
  -OEChem-04052301543D

 85 93  0     1  0  0  0  0  0999 V2000
  -17.6943  -29.7572   17.5096 C   0  0  0  0  0  0  0  0  0  0  0  0
  -18.8752  -29.0268   17.4234 C   0  0  0  0  0  0  0  0  0  0  0  0
  -24.5098  -10.7738   22.4237 C   0  0  0  0  0  0  0  0  0  0  0  0
  -22.5194  -12.1406   22.3372 C   0  0  0  0  0  0  0  0  0  0  0  0
  -34.1253  -20.8717   18.3059 C   0  0  0  0  0  0  0  0  0  0  0  0
  -17.7226  -31.0747   17.9651 C   0  0  0  0  0  0  0  0  0  0  0  0
  -20.0853  -29.6139   17.7916 C   0  0  0  0  0  0  0  0  0  0  0  0
  -24.8546  -26.8527   20.4627 C   0  0  0  0  0  0  0  0  0  0  0  0
  -23.8786   -9.9114   23.3200 C   0  0  0  0  0  0  0  0  0  0  0  0
  -21.8882  -11.2780   23.2334 C   0  0  0  0  0  0  0  0  0  0  0  0
  -33.5950  -22.0474   18.8370 C   0  0  0  0  0  0  0  0  0  0  0  0
  -26.0485  -26.3426   19.9544 C   0  0  0  0  0  0  0  0  0  0  0  0
  -21.6170   -7.4013   23.1884 C   0  0  0  0  0  0  0  0  0  0  0  0
  -21.7432   -6.0300   22.9665 C   0  0  0  0  0  0  0  0  0  0  0  0
  -31.5213  -20.9000   19.3065 C   0  0  0  0  0  0  0  0  0  0  0  0
  -27.1625  -28.4075   20.5151 C   0  0  0  0  0  0  0  0  0  0  0  0
  -22.7921   -5.7769   25.1282 C   0  0  0  0  0  0  0  0  0  0  0  0
  -23.8302  -11.8885   21.9324 C   0  0  0  0  0  0  0  0  0  0  0  0
  -33.3536  -19.7101   18.2750 C   0  0  0  0  0  0  0  0  0  0  0  0
  -32.0517  -19.7243   18.7753 C   0  0  0  0  0  0  0  0  0  0  0  0
  -24.4837  -12.6942   19.6018 C   0  0  0  0  0  0  0  0  0  0  0  0
  -18.9323  -31.6751   18.3482 C   0  0  0  0  0  0  0  0  0  0  0  0
  -24.8032  -28.1502   20.9920 C   0  0  0  0  0  0  0  0  0  0  0  0
  -20.1299  -30.9411   18.2513 C   0  0  0  0  0  0  0  0  0  0  0  0
  -25.9674  -28.9308   21.0319 C   0  0  0  0  0  0  0  0  0  0  0  0
  -22.5678  -10.1634   23.7248 C   0  0  0  0  0  0  0  0  0  0  0  0
  -32.2931  -22.0616   19.3373 C   0  0  0  0  0  0  0  0  0  0  0  0
  -27.2019  -27.1211   19.9779 C   0  0  0  0  0  0  0  0  0  0  0  0
  -22.0783   -7.9604   24.3801 C   0  0  0  0  0  0  0  0  0  0  0  0
  -22.3308   -5.2178   23.9364 C   0  0  0  0  0  0  0  0  0  0  0  0
  -22.6658   -7.1482   25.3500 C   0  0  0  0  0  0  0  0  0  0  0  0
  -24.4819  -12.7802   21.0069 C   0  0  0  0  0  0  0  0  0  0  0  0
  -25.2373  -13.7673   19.1931 C   0  0  0  0  0  0  0  0  0  0  0  0
  -35.0253  -17.9166   18.2110 C   0  0  0  0  0  0  0  0  0  0  0  0
  -33.9501  -18.5043   17.7106 C   0  0  0  0  0  0  0  0  0  0  0  0
  -31.2087  -18.5336   18.7635 C   0  0  0  0  0  0  0  0  0  0  0  0
  -30.6627  -17.9551   19.8511 C   0  0  0  0  0  0  0  0  0  0  0  0
  -23.8599  -11.7305   18.7428 C   0  0  0  0  0  0  0  0  0  0  0  0
  -29.8209  -16.7548   19.6739 C   0  0  0  0  0  0  0  0  0  0  0  0
  -23.2326  -30.8133   20.2537 C   0  0  0  0  0  0  0  0  0  0  0  0
  -30.0362  -24.8809   19.6687 C   0  0  0  0  0  0  0  0  0  0  0  0
  -24.5782  -31.9038   22.9965 C   0  0  0  0  0  0  0  0  0  0  0  0
  -27.0953  -31.6539   25.2875 C   0  0  0  0  0  0  0  0  0  0  0  0
  -18.9192  -33.1172   18.7895 C   0  0  0  0  0  0  0  0  0  0  0  0
  -23.5138  -28.6759   21.5608 C   0  0  0  0  0  0  0  0  0  0  0  0
  -25.9697  -30.3224   21.6079 C   0  0  0  0  0  0  0  0  0  0  0  0
  -20.1927  -33.5437   19.5150 C   0  0  0  0  0  0  0  0  0  0  0  0
  -26.9698  -17.7548   21.7483 C   0  0  0  0  0  0  0  0  0  0  0  0
  -21.4258  -33.0654   18.7551 C   0  0  0  0  0  0  0  0  0  0  0  0
  -26.0900  -16.5108   21.6575 C   0  0  0  0  0  0  0  0  0  0  0  0
  -28.4572  -17.4056   21.7313 C   0  0  0  0  0  0  0  0  0  0  0  0
  -27.9796  -15.3251   20.4729 C   0  0  0  0  0  0  0  0  0  0  0  0
  -21.4590  -31.5349   18.6649 C   0  0  1  0  0  0  0  0  0  0  0  0
  -23.4583  -30.1998   21.6066 C   0  0  1  0  0  0  0  0  0  0  0  0
  -26.4794  -15.6563   20.4409 C   0  0  1  0  0  0  0  0  0  0  0  0
  -27.9481  -32.7067   27.3997 C   0  0  0  0  0  0  0  0  0  0  0  0
  -25.6516  -34.2619   21.3849 C   0  0  0  0  0  0  0  0  0  0  0  0
  -27.2338  -34.7375   23.2660 C   0  0  0  0  0  0  0  0  0  0  0  0
  -24.7718  -34.8595   23.6483 C   0  0  0  0  0  0  0  0  0  0  0  0
  -26.7943  -29.1304   26.8041 C   0  0  0  0  0  0  0  0  0  0  0  0
  -30.3757  -23.4067   19.7496 C   0  0  0  0  0  0  0  0  0  0  0  0
  -28.5622  -25.2145   19.5647 C   0  0  0  0  0  0  0  0  0  1  0  0
  -25.8694  -32.6015   23.3500 C   0  0  1  0  0  0  0  0  0  0  0  0
  -27.0758  -31.6123   26.8048 C   0  0  2  0  0  0  0  0  0  0  0  0
  -25.8815  -34.0896   22.8996 C   0  0  0  0  0  0  0  0  0  0  0  0
  -25.1792  -13.8252   21.4605 N   0  0  0  0  0  0  0  0  0  0  0  0
  -25.6262  -14.4057   20.3339 N   0  0  0  0  0  0  0  0  0  0  0  0
  -28.7939  -16.5398   20.5912 N   0  0  0  0  0  0  0  0  0  0  0  0
  -24.6831  -30.7941   22.1460 N   0  0  0  0  0  0  0  0  0  0  0  0
  -25.5987  -14.2176   17.9729 N   0  0  0  0  0  0  0  0  0  0  0  0
  -23.1224  -10.6922   19.3279 N   0  0  0  0  0  0  0  0  0  0  0  0
  -21.9004  -30.9642   19.9195 N   0  0  0  0  0  0  0  0  0  0  0  0
  -26.0577  -32.4097   24.7839 N   0  0  0  0  0  0  0  0  0  0  0  0
  -27.5751  -30.2958   27.2933 N   0  3  0  0  0  0  0  0  0  0  0  0
  -23.9674  -11.7791   17.4939 O   0  0  0  0  0  0  0  0  0  0  0  0
  -30.0820  -16.0121   18.7258 O   0  0  0  0  0  0  0  0  0  0  0  0
  -24.1960  -31.1280   19.5647 O   0  0  0  0  0  0  0  0  0  0  0  0
  -30.9038  -25.7528   19.6858 O   0  0  0  0  0  0  0  0  0  0  0  0
  -23.5165  -32.3236   23.4635 O   0  0  0  0  0  0  0  0  0  0  0  0
  -27.9480  -31.0771   24.6161 O   0  0  0  0  0  0  0  0  0  0  0  0
  -21.9515   -9.3219   24.5992 O   0  0  0  0  0  0  0  0  0  0  0  0
  -31.7709  -23.2207   19.8606 O   0  0  0  0  0  0  0  0  0  0  0  0
  -28.3684  -26.6259   19.4818 O   0  0  0  0  0  0  0  0  0  1  0  0
  -22.4506   -3.9007   23.7239 F   0  0  0  0  0  0  0  0  0  0  0  0
  -23.1099   -7.6794   26.4974 F   0  0  0  0  0  0  0  0  0  0  0  0
  1  2  1  0  0  0  0
  1  6  2  0  0  0  0
  2  7  2  0  0  0  0
  3  9  2  0  0  0  0
  3 18  1  0  0  0  0
  4 10  1  0  0  0  0
  4 18  2  0  0  0  0
  5 11  2  0  0  0  0
  5 19  1  0  0  0  0
  6 22  1  0  0  0  0
  7 24  1  0  0  0  0
  8 12  2  0  0  0  0
  8 23  1  0  0  0  0
  9 26  1  0  0  0  0
 10 26  2  0  0  0  0
 11 27  1  0  0  0  0
 12 28  1  0  0  0  0
 13 14  2  0  0  0  0
 13 29  1  0  0  0  0
 14 30  1  0  0  0  0
 15 20  1  0  0  0  0
 15 27  2  0  0  0  0
 16 25  1  0  0  0  0
 16 28  2  0  0  0  0
 17 30  2  0  0  0  0
 17 31  1  0  0  0  0
 18 32  1  0  0  0  0
 19 20  2  0  0  0  0
 19 35  1  0  0  0  0
 20 36  1  0  0  0  0
 21 32  1  0  0  0  0
 21 33  2  0  0  0  0
 21 38  1  0  0  0  0
 22 24  2  0  0  0  0
 22 44  1  0  0  0  0
 23 25  2  0  0  0  0
 23 45  1  0  0  0  0
 24 53  1  0  0  0  0
 25 46  1  0  0  0  0
 26 81  1  0  0  0  0
 27 82  1  0  0  0  0
 28 83  1  0  0  0  0
 29 31  2  0  0  0  0
 29 81  1  0  0  0  0
 30 84  1  0  0  0  0
 31 85  1  0  0  0  0
 32 66  2  0  0  0  0
 33 67  1  0  0  0  0
 33 70  1  0  0  0  0
 34 35  2  0  0  0  0
 36 37  2  0  0  0  0
 37 39  1  0  0  0  0
 38 71  1  0  0  0  0
 38 75  2  0  0  0  0
 39 68  1  0  0  0  0
 39 76  2  0  0  0  0
 40 54  1  0  0  0  0
 40 72  1  0  0  0  0
 40 77  2  0  0  0  0
 41 61  1  0  0  0  0
 41 62  1  0  0  0  0
 41 78  2  0  0  0  0
 42 63  1  0  0  0  0
 42 69  1  0  0  0  0
 42 79  2  0  0  0  0
 43 64  1  0  0  0  0
 43 73  1  0  0  0  0
 43 80  2  0  0  0  0
 44 47  1  0  0  0  0
 45 54  1  0  0  0  0
 46 69  1  0  0  0  0
 47 49  1  0  0  0  0
 48 50  1  0  0  0  0
 48 51  1  0  0  0  0
 49 53  1  0  0  0  0
 50 55  1  0  0  0  0
 51 68  1  0  0  0  0
 52 55  1  0  0  0  0
 52 68  1  0  0  0  0
 53 72  1  0  0  0  0
 54 69  1  0  0  0  0
 55 67  1  0  0  0  0
 56 64  1  0  0  0  0
 57 65  1  0  0  0  0
 58 65  1  0  0  0  0
 59 65  1  0  0  0  0
 60 74  1  0  0  0  0
 61 82  1  0  0  0  0
 62 83  1  0  0  0  0
 63 65  1  0  0  0  0
 63 73  1  0  0  0  0
 64 74  1  0  0  0  0
 66 67  1  0  0  0  0
M  CHG  1  74   1
M  ISO  4  37 100  39 100  62 101  83 101
M  END
> <Batch ID>
0120

> <Smiles>
C=Cc1ccc(OCC(=O)[101CH2:1][101O:1]c2ccc3c(c2)CN(C(=O)C(NC(=O)C(C)NC)C(C)(C)C)C(C(=O)NC2CCCc4ccccc42)C3)cc1C=[100CH:0][100C:0](=O)N1CCCC(n2nc(-c3ccc(Oc4ccc(F)cc4F)cc3)c(C(N)=O)c2N)C1

> <Shape>
0.260

> <Color>
0.080

> <Negative vol penalty>
0.000

$$$$

  -OEChem-04052301543D

 85 94  0     1  0  0  0  0  0999 V2000
  -28.7513  -36.2278   20.5627 C   0  0  0  0  0  0  0  0  0  0  0  0
  -28.9604  -34.8551   20.6486 C   0  0  0  0  0  0  0  0  0  0  0  0
  -25.1085   -9.9085   18.6277 C   0  0  0  0  0  0  0  0  0  0  0  0
  -24.8160   -9.3785   20.9667 C   0  0  0  0  0  0  0  0  0  0  0  0
  -27.6991  -36.8167   21.2627 C   0  0  0  0  0  0  0  0  0  0  0  0
  -28.1179  -34.0705   21.4355 C   0  0  0  0  0  0  0  0  0  0  0  0
  -26.6951  -29.8065   19.1034 C   0  0  0  0  0  0  0  0  0  0  0  0
  -24.9541   -8.5608   18.3030 C   0  0  0  0  0  0  0  0  0  0  0  0
  -24.6615   -8.0308   20.6420 C   0  0  0  0  0  0  0  0  0  0  0  0
  -27.6190  -28.7631   19.0650 C   0  0  0  0  0  0  0  0  0  0  0  0
  -22.2284   -6.0269   19.4233 C   0  0  0  0  0  0  0  0  0  0  0  0
  -21.1884   -5.3291   20.0371 C   0  0  0  0  0  0  0  0  0  0  0  0
  -32.2866  -19.9558   21.2412 C   0  0  0  0  0  0  0  0  0  0  0  0
  -30.8923  -21.7737   20.4742 C   0  0  0  0  0  0  0  0  0  0  0  0
  -26.4829  -27.6973   20.9069 C   0  0  0  0  0  0  0  0  0  0  0  0
  -33.1074  -22.2265   21.3261 C   0  0  0  0  0  0  0  0  0  0  0  0
  -22.7877   -3.8021   21.0108 C   0  0  0  0  0  0  0  0  0  0  0  0
  -25.0395  -10.3174   19.9596 C   0  0  0  0  0  0  0  0  0  0  0  0
  -31.0835  -20.4108   20.7016 C   0  0  0  0  0  0  0  0  0  0  0  0
  -24.1870  -12.6829   20.3899 C   0  0  0  0  0  0  0  0  0  0  0  0
  -26.8375  -36.0376   22.0509 C   0  0  0  0  0  0  0  0  0  0  0  0
  -25.6629  -29.8086   20.0526 C   0  0  0  0  0  0  0  0  0  0  0  0
  -27.0540  -34.6497   22.1478 C   0  0  0  0  0  0  0  0  0  0  0  0
  -25.5457  -28.7406   20.9536 C   0  0  0  0  0  0  0  0  0  0  0  0
  -33.2985  -20.8636   21.5535 C   0  0  0  0  0  0  0  0  0  0  0  0
  -31.9043  -22.6815   20.7865 C   0  0  0  0  0  0  0  0  0  0  0  0
  -24.7306   -7.6219   19.3101 C   0  0  0  0  0  0  0  0  0  0  0  0
  -27.5147  -27.7097   19.9686 C   0  0  0  0  0  0  0  0  0  0  0  0
  -23.5481   -5.6124   19.6031 C   0  0  0  0  0  0  0  0  0  0  0  0
  -21.4680   -4.2167   20.8309 C   0  0  0  0  0  0  0  0  0  0  0  0
  -23.8277   -4.5000   20.3968 C   0  0  0  0  0  0  0  0  0  0  0  0
  -25.1995  -11.7093   20.2957 C   0  0  0  0  0  0  0  0  0  0  0  0
  -24.8499  -13.8353   20.7348 C   0  0  0  0  0  0  0  0  0  0  0  0
  -30.7045  -26.0699   20.1147 C   0  0  0  0  0  0  0  0  0  0  0  0
  -30.0277  -19.4645   20.3772 C   0  0  0  0  0  0  0  0  0  0  0  0
  -29.7346  -26.9904   20.1281 C   0  0  0  0  0  0  0  0  0  1  0  0
  -30.1961  -18.1389   20.1843 C   0  0  0  0  0  0  0  0  0  0  0  0
  -22.7737  -12.5568   20.1841 C   0  0  0  0  0  0  0  0  0  0  0  0
  -29.0186  -17.3051   19.8696 C   0  0  0  0  0  0  0  0  0  0  0  0
  -24.8257  -31.7180   22.4520 C   0  0  0  0  0  0  0  0  0  0  0  0
  -22.2454  -29.7576   22.5974 C   0  0  0  0  0  0  0  0  0  0  0  0
  -20.8909  -26.6970   21.9306 C   0  0  0  0  0  0  0  0  0  0  0  0
  -25.7425  -36.7256   22.8269 C   0  0  0  0  0  0  0  0  0  0  0  0
  -24.6585  -30.9282   20.0636 C   0  0  0  0  0  0  0  0  0  0  0  0
  -24.4438  -28.6854   21.9790 C   0  0  0  0  0  0  0  0  0  0  0  0
  -32.1593  -26.3499   20.3222 C   0  0  0  0  0  0  0  0  0  0  0  0
  -30.4849  -24.5907   20.0081 C   0  0  0  0  0  0  0  0  0  0  0  0
  -24.6677  -35.7710   23.3406 C   0  0  0  0  0  0  0  0  0  0  0  0
  -29.5973  -14.5880   22.2601 C   0  0  0  0  0  0  0  0  0  0  0  0
  -25.3065  -34.5457   23.9866 C   0  0  0  0  0  0  0  0  0  0  0  0
  -28.4373  -13.6530   21.9284 C   0  0  0  0  0  0  0  0  0  0  0  0
  -32.6631  -25.0647   20.9729 C   0  0  0  0  0  0  0  0  0  0  0  0
  -30.1213  -15.3110   21.0203 C   0  0  0  0  0  0  0  0  0  0  0  0
  -27.9032  -15.1086   19.9344 C   0  0  0  0  0  0  0  0  0  0  0  0
  -26.1466  -33.7616   22.9712 C   0  0  1  0  0  0  0  0  0  0  0  0
  -23.9521  -31.0840   21.4068 C   0  0  1  0  0  0  0  0  0  0  0  0
  -27.3295  -14.4061   21.1748 C   0  0  1  0  0  0  0  0  0  0  0  0
  -34.5843  -20.3771   22.1320 C   0  0  0  0  0  0  0  0  0  0  0  0
  -18.7724  -25.3792   22.2005 C   0  0  0  0  0  0  0  0  0  0  0  0
  -22.8790  -29.3492   25.5540 C   0  0  0  0  0  0  0  0  0  0  0  0
  -21.3693  -27.3520   25.5300 C   0  0  0  0  0  0  0  0  0  0  0  0
  -20.4471  -29.6164   25.0355 C   0  0  0  0  0  0  0  0  0  0  0  0
  -20.5793  -26.3785   19.0048 C   0  0  0  0  0  0  0  0  0  0  0  0
  -21.9163  -28.4755   23.3233 C   0  0  1  0  0  0  0  0  0  0  0  0
  -19.5744  -26.2960   21.2899 C   0  0  2  0  0  0  0  0  0  0  0  0
  -21.6750  -28.7000   24.8428 C   0  0  0  0  0  0  0  0  0  0  0  0
  -26.4133  -12.2005   20.5593 N   0  0  0  0  0  0  0  0  0  0  0  0
  -26.1678  -13.4953   20.8224 N   0  0  0  0  0  0  0  0  0  0  0  0
  -31.7140  -24.0315   20.5652 N   0  0  3  0  0  0  0  0  0  0  0  0
  -29.0345  -15.9746   20.2846 N   0  0  0  0  0  0  0  0  0  0  0  0
  -23.4901  -29.8067   21.9539 N   0  0  0  0  0  0  0  0  0  0  0  0
  -24.4282  -15.0963   20.9685 N   0  0  0  0  0  0  0  0  0  0  0  0
  -22.2589  -11.3010   19.8344 N   0  0  0  0  0  0  0  0  0  0  0  0
  -25.2920  -32.9730   22.1098 N   0  0  0  0  0  0  0  0  0  0  0  0
  -20.7825  -27.8869   22.6187 N   0  0  0  0  0  0  0  0  0  0  0  0
  -19.8198  -25.5838   20.0040 N   0  3  0  0  0  0  0  0  0  0  0  0
  -21.9926  -13.5325   20.2907 O   0  0  0  0  0  0  0  0  0  0  0  0
  -28.0934  -17.8370   19.2534 O   0  0  0  0  0  0  0  0  0  0  0  0
  -25.0583  -31.1140   23.4925 O   0  0  0  0  0  0  0  0  0  0  0  0
  -21.4251  -30.6789   22.5951 O   0  0  0  0  0  0  0  0  0  0  0  0
  -21.9123  -26.0202   21.8337 O   0  0  0  0  0  0  0  0  0  0  0  0
  -24.5796   -6.3068   18.9936 O   0  0  0  0  0  0  0  0  0  0  0  0
  -28.4155  -26.6903   19.9337 O   0  0  0  0  0  0  0  0  0  1  0  0
  -20.4692   -3.5475   21.4216 F   0  0  0  0  0  0  0  0  0  0  0  0
  -25.0936   -4.0977   20.5742 F   0  0  0  0  0  0  0  0  0  0  0  0
  1  2  1  0  0  0  0
  1  5  2  0  0  0  0
  2  6  2  0  0  0  0
  3  8  2  0  0  0  0
  3 18  1  0  0  0  0
  4  9  1  0  0  0  0
  4 18  2  0  0  0  0
  5 21  1  0  0  0  0
  6 23  1  0  0  0  0
  7 10  2  0  0  0  0
  7 22  1  0  0  0  0
  8 27  1  0  0  0  0
  9 27  2  0  0  0  0
 10 28  1  0  0  0  0
 11 12  2  0  0  0  0
 11 29  1  0  0  0  0
 12 30  1  0  0  0  0
 13 19  2  0  0  0  0
 13 25  1  0  0  0  0
 14 19  1  0  0  0  0
 14 26  2  0  0  0  0
 15 24  1  0  0  0  0
 15 28  2  0  0  0  0
 16 25  2  0  0  0  0
 16 26  1  0  0  0  0
 17 30  2  0  0  0  0
 17 31  1  0  0  0  0
 18 32  1  0  0  0  0
 19 35  1  0  0  0  0
 20 32  1  0  0  0  0
 20 33  2  0  0  0  0
 20 38  1  0  0  0  0
 21 23  2  0  0  0  0
 21 43  1  0  0  0  0
 22 24  2  0  0  0  0
 22 44  1  0  0  0  0
 23 55  1  0  0  0  0
 24 45  1  0  0  0  0
 25 58  1  0  0  0  0
 26 69  1  0  0  0  0
 27 82  1  0  0  0  0
 28 83  1  0  0  0  0
 29 31  2  0  0  0  0
 29 82  1  0  0  0  0
 30 84  1  0  0  0  0
 31 85  1  0  0  0  0
 32 67  2  0  0  0  0
 33 68  1  0  0  0  0
 33 72  1  0  0  0  0
 34 36  2  0  0  0  0
 34 46  1  0  0  0  0
 34 47  1  0  0  0  0
 35 37  2  0  0  0  0
 36 83  1  0  0  0  0
 37 39  1  0  0  0  0
 38 73  1  0  0  0  0
 38 77  2  0  0  0  0
 39 70  1  0  0  0  0
 39 78  2  0  0  0  0
 40 56  1  0  0  0  0
 40 74  1  0  0  0  0
 40 79  2  0  0  0  0
 41 64  1  0  0  0  0
 41 71  1  0  0  0  0
 41 80  2  0  0  0  0
 42 65  1  0  0  0  0
 42 75  1  0  0  0  0
 42 81  2  0  0  0  0
 43 48  1  0  0  0  0
 44 56  1  0  0  0  0
 45 71  1  0  0  0  0
 46 52  1  0  0  0  0
 47 69  1  0  0  0  0
 48 50  1  0  0  0  0
 49 51  1  0  0  0  0
 49 53  1  0  0  0  0
 50 55  1  0  0  0  0
 51 57  1  0  0  0  0
 52 69  1  0  0  0  0
 53 70  1  0  0  0  0
 54 57  1  0  0  0  0
 54 70  1  0  0  0  0
 55 74  1  0  0  0  0
 56 71  1  0  0  0  0
 57 68  1  0  0  0  0
 59 65  1  0  0  0  0
 60 66  1  0  0  0  0
 61 66  1  0  0  0  0
 62 66  1  0  0  0  0
 63 76  1  0  0  0  0
 64 66  1  0  0  0  0
 64 75  1  0  0  0  0
 65 76  1  0  0  0  0
 67 68  1  0  0  0  0
M  CHG  1  76   1
M  ISO  4  36 101  37 100  39 100  83 101
M  END
> <Batch ID>
0120

> <Smiles>
CNC(C)C(=O)NC(C(=O)N1Cc2cc([101O:1][101CH:1]=C3CCN(c4cc(C)cc(C=[100CH:0][100C:0](=O)N5CCCC(n6nc(-c7ccc(Oc8ccc(F)cc8F)cc7)c(C(N)=O)c6N)C5)c4)C3)ccc2CC1C(=O)NC1CCCc2ccccc21)C(C)(C)C

> <Shape>
0.285

> <Color>
0.101

> <Negative vol penalty>
0.000

$$$$

  -OEChem-04052301543D

 86 94  0     1  0  0  0  0  0999 V2000
  -19.6343  -23.9927   22.7850 C   0  0  0  0  0  0  0  0  0  0  0  0
  -20.8156  -24.3080   22.1212 C   0  0  0  0  0  0  0  0  0  0  0  0
  -26.4187  -12.6595   20.0853 C   0  0  0  0  0  0  0  0  0  0  0  0
  -24.1433  -13.1867   20.7031 C   0  0  0  0  0  0  0  0  0  0  0  0
  -18.7487  -25.0062   23.1490 C   0  0  0  0  0  0  0  0  0  0  0  0
  -21.1114  -25.6370   21.8201 C   0  0  0  0  0  0  0  0  0  0  0  0
  -25.9150  -26.8449   22.8744 C   0  0  0  0  0  0  0  0  0  0  0  0
  -24.3425  -21.5186   16.4019 C   0  0  0  0  0  0  0  0  0  0  0  0
  -26.2375  -11.3513   20.5341 C   0  0  0  0  0  0  0  0  0  0  0  0
  -23.9621  -11.8785   21.1519 C   0  0  0  0  0  0  0  0  0  0  0  0
  -26.8896  -26.4301   21.9678 C   0  0  0  0  0  0  0  0  0  0  0  0
  -25.5201  -22.2048   16.1053 C   0  0  0  0  0  0  0  0  0  0  0  0
  -23.3633   -8.8419   19.7949 C   0  0  0  0  0  0  0  0  0  0  0  0
  -22.1856   -8.1902   19.4289 C   0  0  0  0  0  0  0  0  0  0  0  0
  -25.9118  -22.5519   18.4640 C   0  0  0  0  0  0  0  0  0  0  0  0
  -26.9317  -28.6435   21.0096 C   0  0  0  0  0  0  0  0  0  0  0  0
  -21.6067   -7.9273   21.7598 C   0  0  0  0  0  0  0  0  0  0  0  0
  -25.3717  -13.5772   20.1699 C   0  0  0  0  0  0  0  0  0  0  0  0
  -24.7342  -21.8657   18.7605 C   0  0  0  0  0  0  0  0  0  0  0  0
  -25.3210  -15.4240   18.4108 C   0  0  0  0  0  0  0  0  0  0  0  0
  -19.0384  -26.3492   22.8607 C   0  0  0  0  0  0  0  0  0  0  0  0
  -25.4328  -28.1614   22.8483 C   0  0  0  0  0  0  0  0  0  0  0  0
  -20.2282  -26.6693   22.1794 C   0  0  0  0  0  0  0  0  0  0  0  0
  -25.9529  -29.0732   21.9187 C   0  0  0  0  0  0  0  0  0  0  0  0
  -23.9495  -21.3491   17.7295 C   0  0  0  0  0  0  0  0  0  0  0  0
  -25.0092  -10.9608   21.0673 C   0  0  0  0  0  0  0  0  0  0  0  0
  -26.3048  -22.7215   17.1363 C   0  0  0  0  0  0  0  0  0  0  0  0
  -27.3960  -27.3286   21.0333 C   0  0  0  0  0  0  0  0  0  0  0  0
  -23.6627   -9.0363   21.1434 C   0  0  0  0  0  0  0  0  0  0  0  0
  -21.3073   -7.7329   20.4113 C   0  0  0  0  0  0  0  0  0  0  0  0
  -22.7844   -8.5791   22.1258 C   0  0  0  0  0  0  0  0  0  0  0  0
  -25.5585  -14.9289   19.7070 C   0  0  0  0  0  0  0  0  0  0  0  0
  -25.6492  -16.7556   18.4864 C   0  0  0  0  0  0  0  0  0  0  0  0
  -28.0308  -26.2497   16.7789 C   0  0  0  0  0  0  0  0  0  0  0  0
  -28.7959  -26.6036   17.8219 C   0  0  0  0  0  0  0  0  0  0  0  0
  -24.3474  -21.7028   20.1554 C   0  0  0  0  0  0  0  0  0  0  0  0
  -24.8462  -14.7413   17.2428 C   0  0  0  0  0  0  0  0  0  0  0  0
  -25.3623  -21.6215   21.2308 C   0  0  0  0  0  0  0  0  0  0  0  0
  -22.5960  -29.5015   22.3382 C   0  0  0  0  0  0  0  0  0  0  0  0
  -24.1660  -32.2178   23.1625 C   0  0  0  0  0  0  0  0  0  0  0  0
  -27.1324  -33.8857   23.4175 C   0  0  0  0  0  0  0  0  0  0  0  0
  -18.0281  -27.4056   23.2320 C   0  0  0  0  0  0  0  0  0  0  0  0
  -24.4008  -28.6005   23.8505 C   0  0  0  0  0  0  0  0  0  0  0  0
  -25.4833  -30.5032   21.8624 C   0  0  0  0  0  0  0  0  0  0  0  0
  -18.5930  -28.8236   23.2089 C   0  0  0  0  0  0  0  0  0  0  0  0
  -28.0193  -19.3743   22.0955 C   0  0  0  0  0  0  0  0  0  0  0  0
  -19.3989  -29.0564   21.9349 C   0  0  0  0  0  0  0  0  0  0  0  0
  -27.5759  -18.0488   21.4773 C   0  0  0  0  0  0  0  0  0  0  0  0
  -26.8269  -20.1844   22.5940 C   0  0  0  0  0  0  0  0  0  0  0  0
  -25.3412  -19.1101   20.9245 C   0  0  0  0  0  0  0  0  0  0  0  0
  -20.5962  -28.1014   21.8572 C   0  0  1  0  0  0  0  0  0  0  0  0
  -23.6112  -29.8248   23.3977 C   0  0  1  0  0  0  0  0  0  0  0  0
  -26.5163  -18.2763   20.3845 C   0  0  2  0  0  0  0  0  0  0  0  0
  -21.4450  -21.4627   17.7618 C   0  0  0  0  0  0  0  0  0  0  0  0
  -28.0934  -36.1045   24.0889 C   0  0  0  0  0  0  0  0  0  0  0  0
  -23.1731  -33.4364   20.5474 C   0  0  0  0  0  0  0  0  0  0  0  0
  -24.8941  -35.2352   20.8131 C   0  0  0  0  0  0  0  0  0  0  0  0
  -23.0885  -34.9778   22.5149 C   0  0  0  0  0  0  0  0  0  0  0  0
  -28.7655  -32.6608   25.5602 C   0  0  0  0  0  0  0  0  0  0  0  0
  -22.6837  -20.6101   18.0187 C   0  0  0  0  0  0  0  0  0  0  0  0
  -28.4605  -25.2762   15.7178 C   0  0  0  0  0  0  0  0  0  0  0  0
  -28.3640  -27.5727   18.8748 C   0  0  0  0  0  0  0  0  0  1  0  0
  -27.4986  -24.0991   15.6090 C   0  0  0  0  0  0  0  0  0  0  0  0
  -24.9491  -33.2691   22.4138 C   0  0  1  0  0  0  0  0  0  0  0  0
  -27.7367  -34.6992   24.5477 C   0  0  2  0  0  0  0  0  0  0  0  0
  -24.0338  -34.2022   21.5718 C   0  0  0  0  0  0  0  0  0  0  0  0
  -26.0033  -15.8693   20.5447 N   0  0  0  0  0  0  0  0  0  0  0  0
  -23.1060  -21.6208   20.5475 N   0  0  0  0  0  0  0  0  0  0  0  0
  -26.0481  -16.9687   19.7731 N   0  0  0  0  0  0  0  0  0  0  0  0
  -25.8246  -20.3508   21.5434 N   0  0  0  0  0  0  0  0  0  0  0  0
  -24.4684  -30.8827   22.8591 N   0  0  0  0  0  0  0  0  0  0  0  0
  -25.6327  -17.7532   17.5770 N   0  0  0  0  0  0  0  0  0  0  0  0
  -24.5564  -13.3735   17.3399 N   0  0  0  0  0  0  0  0  0  0  0  0
  -21.6632  -28.5572   22.7223 N   0  0  0  0  0  0  0  0  0  0  0  0
  -25.7558  -33.9644   23.4109 N   0  0  0  0  0  0  0  0  0  0  0  0
  -28.9745  -34.0420   25.0547 N   0  3  0  0  0  0  0  0  0  0  0  0
  -24.6993  -15.3233   16.1413 O   0  0  0  0  0  0  0  0  0  0  0  0
  -25.6864  -22.6902   21.7320 O   0  0  0  0  0  0  0  0  0  0  0  0
  -22.6538  -30.0680   21.2531 O   0  0  0  0  0  0  0  0  0  0  0  0
  -23.3222  -32.5681   23.9913 O   0  0  0  0  0  0  0  0  0  0  0  0
  -27.8136  -33.2476   22.6179 O   0  0  0  0  0  0  0  0  0  0  0  0
  -24.8319   -9.6843   21.5051 O   0  0  0  0  0  0  0  0  0  0  0  0
  -28.3468  -26.9261   20.1468 O   0  0  0  0  0  0  0  0  0  1  0  0
  -27.4611  -23.3964   16.8444 O   0  0  0  0  0  0  0  0  0  0  0  0
  -20.1757   -7.1084   20.0597 F   0  0  0  0  0  0  0  0  0  0  0  0
  -23.0661   -8.7640   23.4228 F   0  0  0  0  0  0  0  0  0  0  0  0
  1  2  1  0  0  0  0
  1  5  2  0  0  0  0
  2  6  2  0  0  0  0
  3  9  2  0  0  0  0
  3 18  1  0  0  0  0
  4 10  1  0  0  0  0
  4 18  2  0  0  0  0
  5 21  1  0  0  0  0
  6 23  1  0  0  0  0
  7 11  2  0  0  0  0
  7 22  1  0  0  0  0
  8 12  2  0  0  0  0
  8 25  1  0  0  0  0
  9 26  1  0  0  0  0
 10 26  2  0  0  0  0
 11 28  1  0  0  0  0
 12 27  1  0  0  0  0
 13 14  2  0  0  0  0
 13 29  1  0  0  0  0
 14 30  1  0  0  0  0
 15 19  1  0  0  0  0
 15 27  2  0  0  0  0
 16 24  1  0  0  0  0
 16 28  2  0  0  0  0
 17 30  2  0  0  0  0
 17 31  1  0  0  0  0
 18 32  1  0  0  0  0
 19 25  2  0  0  0  0
 19 36  1  0  0  0  0
 20 32  1  0  0  0  0
 20 33  2  0  0  0  0
 20 37  1  0  0  0  0
 21 23  2  0  0  0  0
 21 42  1  0  0  0  0
 22 24  2  0  0  0  0
 22 43  1  0  0  0  0
 23 51  1  0  0  0  0
 24 44  1  0  0  0  0
 25 60  1  0  0  0  0
 26 82  1  0  0  0  0
 27 84  1  0  0  0  0
 28 83  1  0  0  0  0
 29 31  2  0  0  0  0
 29 82  1  0  0  0  0
 30 85  1  0  0  0  0
 31 86  1  0  0  0  0
 32 67  2  0  0  0  0
 33 69  1  0  0  0  0
 33 72  1  0  0  0  0
 34 35  2  0  0  0  0
 34 61  1  0  0  0  0
 35 62  1  0  0  0  0
 36 38  1  0  0  0  0
 36 68  2  0  0  0  0
 37 73  1  0  0  0  0
 37 77  2  0  0  0  0
 38 70  1  0  0  0  0
 38 78  2  0  0  0  0
 39 52  1  0  0  0  0
 39 74  1  0  0  0  0
 39 79  2  0  0  0  0
 40 64  1  0  0  0  0
 40 71  1  0  0  0  0
 40 80  2  0  0  0  0
 41 65  1  0  0  0  0
 41 75  1  0  0  0  0
 41 81  2  0  0  0  0
 42 45  1  0  0  0  0
 43 52  1  0  0  0  0
 44 71  1  0  0  0  0
 45 47  1  0  0  0  0
 46 48  1  0  0  0  0
 46 49  1  0  0  0  0
 47 51  1  0  0  0  0
 48 53  1  0  0  0  0
 49 70  1  0  0  0  0
 50 53  1  0  0  0  0
 50 70  1  0  0  0  0
 51 74  1  0  0  0  0
 52 71  1  0  0  0  0
 53 69  1  0  0  0  0
 54 60  1  0  0  0  0
 55 65  1  0  0  0  0
 56 66  1  0  0  0  0
 57 66  1  0  0  0  0
 58 66  1  0  0  0  0
 59 76  1  0  0  0  0
 61 63  1  0  0  0  0
 62 83  1  0  0  0  0
 63 84  1  0  0  0  0
 64 66  1  0  0  0  0
 64 75  1  0  0  0  0
 65 76  1  0  0  0  0
 67 69  1  0  0  0  0
M  CHG  1  76   1
M  ISO  4  36 100  38 100  62 101  83 101
M  END
> <Batch ID>
0120

> <Smiles>
CCc1ccc(OCCC=C[101CH2:1][101O:1]c2ccc3c(c2)CN(C(=O)C(NC(=O)C(C)NC)C(C)(C)C)C(C(=O)NC2CCCc4ccccc42)C3)cc1[100C:0](=N)[100C:0](=O)N1CCCC(n2nc(-c3ccc(Oc4ccc(F)cc4F)cc3)c(C(N)=O)c2N)C1

> <Shape>
0.226

> <Color>
0.102

> <Negative vol penalty>
0.000

$$$$

  -OEChem-04052301543D

 86 94  0     1  0  0  0  0  0999 V2000
  -18.9514  -26.3120   17.5011 C   0  0  0  0  0  0  0  0  0  0  0  0
  -19.8552  -26.7353   18.4703 C   0  0  0  0  0  0  0  0  0  0  0  0
  -25.3692  -12.8147   21.7639 C   0  0  0  0  0  0  0  0  0  0  0  0
  -25.6530  -13.1642   19.3902 C   0  0  0  0  0  0  0  0  0  0  0  0
  -19.1905  -25.1347   16.7934 C   0  0  0  0  0  0  0  0  0  0  0  0
  -20.9982  -25.9810   18.7331 C   0  0  0  0  0  0  0  0  0  0  0  0
  -25.1617  -28.8365   19.1291 C   0  0  0  0  0  0  0  0  0  0  0  0
  -25.1466  -11.4566   21.5374 C   0  0  0  0  0  0  0  0  0  0  0  0
  -25.4304  -11.8060   19.1637 C   0  0  0  0  0  0  0  0  0  0  0  0
  -25.3498  -29.5254   20.3265 C   0  0  0  0  0  0  0  0  0  0  0  0
  -22.6047   -9.4905   20.4895 C   0  0  0  0  0  0  0  0  0  0  0  0
  -21.5418   -8.8878   21.1622 C   0  0  0  0  0  0  0  0  0  0  0  0
  -23.1064  -25.7274   23.5801 C   0  0  0  0  0  0  0  0  0  0  0  0
  -21.0495  -24.4718   23.4090 C   0  0  0  0  0  0  0  0  0  0  0  0
  -26.8958  -27.8234   21.0559 C   0  0  0  0  0  0  0  0  0  0  0  0
  -23.0812   -7.3578   22.2237 C   0  0  0  0  0  0  0  0  0  0  0  0
  -25.6224  -13.6686   20.6903 C   0  0  0  0  0  0  0  0  0  0  0  0
  -22.4422  -24.5050   23.4799 C   0  0  0  0  0  0  0  0  0  0  0  0
  -22.3780  -26.9167   23.6095 C   0  0  0  0  0  0  0  0  0  0  0  0
  -27.0873  -15.7027   21.1640 C   0  0  0  0  0  0  0  0  0  0  0  0
  -20.3419  -24.3707   17.0409 C   0  0  0  0  0  0  0  0  0  0  0  0
  -25.8321  -27.6282   18.8902 C   0  0  0  0  0  0  0  0  0  0  0  0
  -21.2523  -24.7918   18.0290 C   0  0  0  0  0  0  0  0  0  0  0  0
  -26.7165  -27.1224   19.8536 C   0  0  0  0  0  0  0  0  0  0  0  0
  -20.3211  -25.6611   23.4384 C   0  0  0  0  0  0  0  0  0  0  0  0
  -20.9854  -26.8835   23.5386 C   0  0  0  0  0  0  0  0  0  0  0  0
  -25.1772  -10.9522   20.2373 C   0  0  0  0  0  0  0  0  0  0  0  0
  -26.2147  -29.0174   21.2913 C   0  0  0  0  0  0  0  0  0  0  0  0
  -23.9059   -9.0269   20.6838 C   0  0  0  0  0  0  0  0  0  0  0  0
  -21.7800   -7.8214   22.0293 C   0  0  0  0  0  0  0  0  0  0  0  0
  -24.1441   -7.9606   21.5509 C   0  0  0  0  0  0  0  0  0  0  0  0
  -25.8519  -15.0718   20.9236 C   0  0  0  0  0  0  0  0  0  0  0  0
  -26.7703  -17.0299   21.3207 C   0  0  0  0  0  0  0  0  0  0  0  0
  -23.2007  -23.2644   23.4493 C   0  0  0  0  0  0  0  0  0  0  0  0
  -23.1105  -28.1897   23.7157 C   0  0  0  0  0  0  0  0  0  0  0  0
  -22.7104  -22.0393   23.7348 C   0  0  0  0  0  0  0  0  0  0  0  0
  -23.9431  -28.5232   24.7143 C   0  0  0  0  0  0  0  0  0  0  0  0
  -28.4036  -15.1394   21.2389 C   0  0  0  0  0  0  0  0  0  0  0  0
  -23.6082  -20.8700   23.6487 C   0  0  0  0  0  0  0  0  0  0  0  0
  -24.9274  -24.6252   18.3732 C   0  0  0  0  0  0  0  0  0  0  0  0
  -28.0963  -24.1718   17.8490 C   0  0  0  0  0  0  0  0  0  0  0  0
  -31.3006  -25.2148   18.3890 C   0  0  0  0  0  0  0  0  0  0  0  0
  -20.5336  -23.0805   16.2837 C   0  0  0  0  0  0  0  0  0  0  0  0
  -25.6388  -26.9109   17.5823 C   0  0  0  0  0  0  0  0  0  0  0  0
  -27.4756  -25.8396   19.6374 C   0  0  0  0  0  0  0  0  0  0  0  0
  -21.9575  -22.5354   16.3597 C   0  0  0  0  0  0  0  0  0  0  0  0
  -22.4846  -19.5328   20.4267 C   0  0  0  0  0  0  0  0  0  0  0  0
  -22.4683  -22.5752   17.7965 C   0  0  0  0  0  0  0  0  0  0  0  0
  -23.3381  -18.2720   20.3183 C   0  0  0  0  0  0  0  0  0  0  0  0
  -22.0941  -19.8363   21.8724 C   0  0  0  0  0  0  0  0  0  0  0  0
  -24.1131  -18.6560   22.6916 C   0  0  0  0  0  0  0  0  0  0  0  0
  -22.5160  -24.0138   18.3254 C   0  0  1  0  0  0  0  0  0  0  0  0
  -25.9795  -25.4259   17.6593 C   0  0  1  0  0  0  0  0  0  0  0  0
  -24.5568  -18.3578   21.2509 C   0  0  1  0  0  0  0  0  0  0  0  0
  -18.8304  -25.5965   23.3618 C   0  0  0  0  0  0  0  0  0  0  0  0
  -19.6867  -28.5489   22.1872 C   0  0  0  0  0  0  0  0  0  0  0  0
  -33.6810  -24.6200   17.8624 C   0  0  0  0  0  0  0  0  0  0  0  0
  -27.9879  -21.9237   19.9092 C   0  0  0  0  0  0  0  0  0  0  0  0
  -30.4864  -22.0169   20.0395 C   0  0  0  0  0  0  0  0  0  0  0  0
  -29.3727  -21.4209   17.8884 C   0  0  0  0  0  0  0  0  0  0  0  0
  -31.7498  -27.7761   16.9759 C   0  0  0  0  0  0  0  0  0  0  0  0
  -20.1923  -28.1532   23.5696 C   0  0  0  0  0  0  0  0  0  0  0  0
  -24.6735  -29.8346   24.7781 C   0  0  0  0  0  0  0  0  0  0  0  0
  -26.1848  -29.6238   24.8505 C   0  0  0  0  0  0  0  0  0  0  0  0
  -26.7106  -28.9069   23.6146 C   0  0  0  0  0  0  0  0  0  1  0  0
  -29.2815  -23.8098   18.7111 C   0  0  1  0  0  0  0  0  0  0  0  0
  -32.4644  -25.4278   17.4379 C   0  0  2  0  0  0  0  0  0  0  0  0
  -29.2665  -22.3160   19.1422 C   0  0  0  0  0  0  0  0  0  0  0  0
  -24.8266  -15.9278   20.9266 N   0  0  0  0  0  0  0  0  0  0  0  0
  -25.4170  -17.1101   21.1708 N   0  0  0  0  0  0  0  0  0  0  0  0
  -23.2703  -19.8553   22.7550 N   0  0  0  0  0  0  0  0  0  0  0  0
  -27.2481  -25.1718   18.3452 N   0  0  0  0  0  0  0  0  0  0  0  0
  -27.5199  -18.1244   21.5707 N   0  0  0  0  0  0  0  0  0  0  0  0
  -28.5507  -13.7579   21.0539 N   0  0  0  0  0  0  0  0  0  0  0  0
  -23.6726  -24.7073   17.8002 N   0  0  0  0  0  0  0  0  0  0  0  0
  -30.4684  -24.2028   17.9593 N   0  0  0  0  0  0  0  0  0  0  0  0
  -32.8460  -26.8679   17.4006 N   0  3  0  0  0  0  0  0  0  0  0  0
  -29.4173  -15.8379   21.4796 O   0  0  0  0  0  0  0  0  0  0  0  0
  -24.6014  -20.8608   24.3781 O   0  0  0  0  0  0  0  0  0  0  0  0
  -25.2318  -23.9795   19.3693 O   0  0  0  0  0  0  0  0  0  0  0  0
  -27.9332  -23.5937   16.7715 O   0  0  0  0  0  0  0  0  0  0  0  0
  -31.1473  -25.8771   19.4129 O   0  0  0  0  0  0  0  0  0  0  0  0
  -24.9602   -9.6268   20.0158 O   0  0  0  0  0  0  0  0  0  0  0  0
  -26.3996  -29.6875   22.4612 O   0  0  0  0  0  0  0  0  0  1  0  0
  -20.7594   -7.2437   22.6764 F   0  0  0  0  0  0  0  0  0  0  0  0
  -25.3921   -7.5115   21.7426 F   0  0  0  0  0  0  0  0  0  0  0  0
  1  2  1  0  0  0  0
  1  5  2  0  0  0  0
  2  6  2  0  0  0  0
  3  8  2  0  0  0  0
  3 17  1  0  0  0  0
  4  9  1  0  0  0  0
  4 17  2  0  0  0  0
  5 21  1  0  0  0  0
  6 23  1  0  0  0  0
  7 10  2  0  0  0  0
  7 22  1  0  0  0  0
  8 27  1  0  0  0  0
  9 27  2  0  0  0  0
 10 28  1  0  0  0  0
 11 12  2  0  0  0  0
 11 29  1  0  0  0  0
 12 30  1  0  0  0  0
 13 18  2  0  0  0  0
 13 19  1  0  0  0  0
 14 18  1  0  0  0  0
 14 25  2  0  0  0  0
 15 24  1  0  0  0  0
 15 28  2  0  0  0  0
 16 30  2  0  0  0  0
 16 31  1  0  0  0  0
 17 32  1  0  0  0  0
 18 34  1  0  0  0  0
 19 26  2  0  0  0  0
 19 35  1  0  0  0  0
 20 32  1  0  0  0  0
 20 33  2  0  0  0  0
 20 38  1  0  0  0  0
 21 23  2  0  0  0  0
 21 43  1  0  0  0  0
 22 24  2  0  0  0  0
 22 44  1  0  0  0  0
 23 52  1  0  0  0  0
 24 45  1  0  0  0  0
 25 26  1  0  0  0  0
 25 55  1  0  0  0  0
 26 62  1  0  0  0  0
 27 83  1  0  0  0  0
 28 84  1  0  0  0  0
 29 31  2  0  0  0  0
 29 83  1  0  0  0  0
 30 85  1  0  0  0  0
 31 86  1  0  0  0  0
 32 69  2  0  0  0  0
 33 70  1  0  0  0  0
 33 73  1  0  0  0  0
 34 36  2  0  0  0  0
 35 37  2  0  0  0  0
 36 39  1  0  0  0  0
 37 63  1  0  0  0  0
 38 74  1  0  0  0  0
 38 78  2  0  0  0  0
 39 71  1  0  0  0  0
 39 79  2  0  0  0  0
 40 53  1  0  0  0  0
 40 75  1  0  0  0  0
 40 80  2  0  0  0  0
 41 66  1  0  0  0  0
 41 72  1  0  0  0  0
 41 81  2  0  0  0  0
 42 67  1  0  0  0  0
 42 76  1  0  0  0  0
 42 82  2  0  0  0  0
 43 46  1  0  0  0  0
 44 53  1  0  0  0  0
 45 72  1  0  0  0  0
 46 48  1  0  0  0  0
 47 49  1  0  0  0  0
 47 50  1  0  0  0  0
 48 52  1  0  0  0  0
 49 54  1  0  0  0  0
 50 71  1  0  0  0  0
 51 54  1  0  0  0  0
 51 71  1  0  0  0  0
 52 75  1  0  0  0  0
 53 72  1  0  0  0  0
 54 70  1  0  0  0  0
 56 62  1  0  0  0  0
 57 67  1  0  0  0  0
 58 68  1  0  0  0  0
 59 68  1  0  0  0  0
 60 68  1  0  0  0  0
 61 77  1  0  0  0  0
 63 64  1  0  0  0  0
 64 65  1  0  0  0  0
 65 84  1  0  0  0  0
 66 68  1  0  0  0  0
 66 76  1  0  0  0  0
 67 77  1  0  0  0  0
 69 70  1  0  0  0  0
M  CHG  1  77   1
M  ISO  4  36 100  39 100  65 101  84 101
M  END
> <Batch ID>
0120

> <Smiles>
CCc1c(C)cc(C=[100CH:0][100C:0](=O)N2CCCC(n3nc(-c4ccc(Oc5ccc(F)cc5F)cc4)c(C(N)=O)c3N)C2)cc1C=CCC[101CH2:1][101O:1]c1ccc2c(c1)CN(C(=O)C(NC(=O)C(C)NC)C(C)(C)C)C(C(=O)NC1CCCc3ccccc31)C2

> <Shape>
0.218

> <Color>
0.064

> <Negative vol penalty>
0.000

$$$$

  -OEChem-04052301543D

 87 95  0     1  0  0  0  0  0999 V2000
  -31.0378  -25.4238   19.1836 C   0  0  0  0  0  0  0  0  0  0  0  0
  -29.7621  -25.4930   18.6330 C   0  0  0  0  0  0  0  0  0  0  0  0
  -26.6258  -15.0378   19.4073 C   0  0  0  0  0  0  0  0  0  0  0  0
  -24.4254  -15.1181   20.4018 C   0  0  0  0  0  0  0  0  0  0  0  0
  -31.2373  -25.7596   20.5220 C   0  0  0  0  0  0  0  0  0  0  0  0
  -28.6849  -25.8970   19.4209 C   0  0  0  0  0  0  0  0  0  0  0  0
  -22.4654  -29.4252   18.9888 C   0  0  0  0  0  0  0  0  0  0  0  0
  -26.7590  -13.7088   19.8092 C   0  0  0  0  0  0  0  0  0  0  0  0
  -24.5586  -13.7890   20.8037 C   0  0  0  0  0  0  0  0  0  0  0  0
  -21.1169  -29.2742   19.3093 C   0  0  0  0  0  0  0  0  0  0  0  0
  -24.3014  -10.7261   19.3991 C   0  0  0  0  0  0  0  0  0  0  0  0
  -23.2164   -9.8752   19.1887 C   0  0  0  0  0  0  0  0  0  0  0  0
  -19.5006  -23.6509   22.3669 C   0  0  0  0  0  0  0  0  0  0  0  0
  -21.5939  -29.9064   21.5879 C   0  0  0  0  0  0  0  0  0  0  0  0
  -22.0260  -24.3737   23.3063 C   0  0  0  0  0  0  0  0  0  0  0  0
  -23.0847   -9.4557   21.5643 C   0  0  0  0  0  0  0  0  0  0  0  0
  -25.4590  -15.7425   19.7037 C   0  0  0  0  0  0  0  0  0  0  0  0
  -20.6444  -23.1132   21.7769 C   0  0  0  0  0  0  0  0  0  0  0  0
  -24.7890  -17.5875   18.0744 C   0  0  0  0  0  0  0  0  0  0  0  0
  -30.1636  -26.1772   21.3242 C   0  0  0  0  0  0  0  0  0  0  0  0
  -23.3916  -29.8079   19.9697 C   0  0  0  0  0  0  0  0  0  0  0  0
  -28.8700  -26.2375   20.7717 C   0  0  0  0  0  0  0  0  0  0  0  0
  -22.9531  -30.0640   21.2767 C   0  0  0  0  0  0  0  0  0  0  0  0
  -21.9071  -23.4745   22.2466 C   0  0  0  0  0  0  0  0  0  0  0  0
  -25.7254  -13.0844   20.5074 C   0  0  0  0  0  0  0  0  0  0  0  0
  -20.6815  -29.5120   20.6097 C   0  0  0  0  0  0  0  0  0  0  0  0
  -24.7781  -10.9418   20.6922 C   0  0  0  0  0  0  0  0  0  0  0  0
  -19.6195  -24.5501   23.4267 C   0  0  0  0  0  0  0  0  0  0  0  0
  -22.6080   -9.2400   20.2713 C   0  0  0  0  0  0  0  0  0  0  0  0
  -20.8822  -24.9115   23.8964 C   0  0  0  0  0  0  0  0  0  0  0  0
  -24.1697  -10.3066   21.7748 C   0  0  0  0  0  0  0  0  0  0  0  0
  -25.3211  -17.1156   19.2893 C   0  0  0  0  0  0  0  0  0  0  0  0
  -24.8801  -18.9548   18.1677 C   0  0  0  0  0  0  0  0  0  0  0  0
  -19.9019  -22.4933   19.5230 C   0  0  0  0  0  0  0  0  0  0  0  0
  -20.4804  -22.1769   20.6711 C   0  0  0  0  0  0  0  0  0  0  0  0
  -24.2596  -16.8554   16.9610 C   0  0  0  0  0  0  0  0  0  0  0  0
  -25.9685  -28.4715   21.2648 C   0  0  0  0  0  0  0  0  0  0  0  0
  -17.7631  -28.1852   22.3073 C   0  0  0  0  0  0  0  0  0  0  0  0
  -26.2488  -31.3532   22.7277 C   0  0  0  0  0  0  0  0  0  0  0  0
  -24.7301  -34.2068   23.8219 C   0  0  0  0  0  0  0  0  0  0  0  0
  -24.4043  -23.2182   22.0352 C   0  0  0  0  0  0  0  0  0  0  0  0
  -30.4204  -26.4846   22.7782 C   0  0  0  0  0  0  0  0  0  0  0  0
  -24.8383  -29.9923   19.6017 C   0  0  0  0  0  0  0  0  0  0  0  0
  -23.9040  -30.4967   22.3617 C   0  0  0  0  0  0  0  0  0  0  0  0
  -29.2891  -27.2628   23.4452 C   0  0  0  0  0  0  0  0  0  0  0  0
  -27.5786  -22.0902   20.8826 C   0  0  0  0  0  0  0  0  0  0  0  0
  -27.9386  -26.6442   23.0983 C   0  0  0  0  0  0  0  0  0  0  0  0
  -27.2698  -20.7384   20.2350 C   0  0  0  0  0  0  0  0  0  0  0  0
  -26.7241  -22.3321   22.1256 C   0  0  0  0  0  0  0  0  0  0  0  0
  -24.9688  -20.8263   21.2766 C   0  0  0  0  0  0  0  0  0  0  0  0
  -27.6804  -26.6950   21.5876 C   0  0  1  0  0  0  0  0  0  0  0  0
  -25.7775  -29.8873   20.7993 C   0  0  1  0  0  0  0  0  0  0  0  0
  -25.7589  -20.5660   19.9837 C   0  0  2  0  0  0  0  0  0  0  0  0
  -25.2116  -36.3618   25.0140 C   0  0  0  0  0  0  0  0  0  0  0  0
  -26.3815  -29.8528   25.3812 C   0  0  0  0  0  0  0  0  0  0  0  0
  -25.9050  -32.0159   26.5483 C   0  0  0  0  0  0  0  0  0  0  0  0
  -27.9786  -31.7672   25.1842 C   0  0  0  0  0  0  0  0  0  0  0  0
  -23.8791  -35.8206   21.4915 C   0  0  0  0  0  0  0  0  0  0  0  0
  -17.3227  -27.7207   23.6867 C   0  0  0  0  0  0  0  0  0  0  0  0
  -19.0589  -28.9710   22.2621 C   0  0  0  0  0  0  0  0  0  1  0  0
  -16.5347  -26.4147   23.6743 C   0  0  0  0  0  0  0  0  0  0  0  0
  -17.3569  -25.2354   23.1678 C   0  0  0  0  0  0  0  0  0  0  0  0
  -25.7427  -31.9506   24.0184 C   0  0  1  0  0  0  0  0  0  0  0  0
  -25.1022  -35.6700   23.6641 C   0  0  2  0  0  0  0  0  0  0  0  0
  -26.4841  -31.3866   25.2633 C   0  0  0  0  0  0  0  0  0  0  0  0
  -25.7208  -18.1028   20.0952 N   0  0  0  0  0  0  0  0  0  0  0  0
  -25.4398  -19.2088   19.3853 N   0  0  0  0  0  0  0  0  0  0  0  0
  -25.3095  -30.6570   21.9538 N   0  0  0  0  0  0  0  0  0  0  0  0
  -25.3048  -22.1555   21.8107 N   0  0  0  0  0  0  0  0  0  0  0  0
  -24.5354  -19.9526   17.3263 N   0  0  0  0  0  0  0  0  0  0  0  0
  -24.2406  -15.4557   17.0300 N   0  0  0  0  0  0  0  0  0  0  0  0
  -23.0871  -22.9453   21.6676 N   0  0  0  0  0  0  0  0  0  0  0  0
  -27.2741  -28.0255   21.1887 N   0  0  0  0  0  0  0  0  0  0  0  0
  -25.8458  -33.3979   23.8664 N   0  0  0  0  0  0  0  0  0  0  0  0
  -24.0740  -36.3815   22.8533 N   0  3  0  0  0  0  0  0  0  0  0  0
  -23.8317  -17.4251   15.9286 O   0  0  0  0  0  0  0  0  0  0  0  0
  -25.0030  -27.8317   21.6649 O   0  0  0  0  0  0  0  0  0  0  0  0
  -17.1045  -27.9651   21.2922 O   0  0  0  0  0  0  0  0  0  0  0  0
  -27.4321  -31.5049   22.4141 O   0  0  0  0  0  0  0  0  0  0  0  0
  -23.5661  -33.8204   23.9017 O   0  0  0  0  0  0  0  0  0  0  0  0
  -24.7793  -24.3009   22.4926 O   0  0  0  0  0  0  0  0  0  0  0  0
  -25.8549  -11.7874   20.8995 O   0  0  0  0  0  0  0  0  0  0  0  0
  -19.3660  -29.3648   20.9253 O   0  0  0  0  0  0  0  0  0  1  0  0
  -18.4951  -25.0787   24.0050 O   0  0  0  0  0  0  0  0  0  0  0  0
  -21.5651   -8.4241   20.0692 F   0  0  0  0  0  0  0  0  0  0  0  0
  -21.0026  -25.7753   24.9138 F   0  0  0  0  0  0  0  0  0  0  0  0
  -24.6225  -10.5108   23.0194 F   0  0  0  0  0  0  0  0  0  0  0  0
  1  2  1  0  0  0  0
  1  5  2  0  0  0  0
  2  6  2  0  0  0  0
  3  8  2  0  0  0  0
  3 17  1  0  0  0  0
  4  9  1  0  0  0  0
  4 17  2  0  0  0  0
  5 20  1  0  0  0  0
  6 22  1  0  0  0  0
  7 10  2  0  0  0  0
  7 21  1  0  0  0  0
  8 25  1  0  0  0  0
  9 25  2  0  0  0  0
 10 26  1  0  0  0  0
 11 12  2  0  0  0  0
 11 27  1  0  0  0  0
 12 29  1  0  0  0  0
 13 18  1  0  0  0  0
 13 28  2  0  0  0  0
 14 23  1  0  0  0  0
 14 26  2  0  0  0  0
 15 24  1  0  0  0  0
 15 30  2  0  0  0  0
 16 29  2  0  0  0  0
 16 31  1  0  0  0  0
 17 32  1  0  0  0  0
 18 24  2  0  0  0  0
 18 35  1  0  0  0  0
 19 32  1  0  0  0  0
 19 33  2  0  0  0  0
 19 36  1  0  0  0  0
 20 22  2  0  0  0  0
 20 42  1  0  0  0  0
 21 23  2  0  0  0  0
 21 43  1  0  0  0  0
 22 51  1  0  0  0  0
 23 44  1  0  0  0  0
 24 72  1  0  0  0  0
 25 82  1  0  0  0  0
 26 83  1  0  0  0  0
 27 31  2  0  0  0  0
 27 82  1  0  0  0  0
 28 30  1  0  0  0  0
 28 84  1  0  0  0  0
 29 85  1  0  0  0  0
 30 86  1  0  0  0  0
 31 87  1  0  0  0  0
 32 66  2  0  0  0  0
 33 67  1  0  0  0  0
 33 70  1  0  0  0  0
 34 35  2  0  0  0  0
 36 71  1  0  0  0  0
 36 76  2  0  0  0  0
 37 52  1  0  0  0  0
 37 73  1  0  0  0  0
 37 77  2  0  0  0  0
 38 59  1  0  0  0  0
 38 60  1  0  0  0  0
 38 78  2  0  0  0  0
 39 63  1  0  0  0  0
 39 68  1  0  0  0  0
 39 79  2  0  0  0  0
 40 64  1  0  0  0  0
 40 74  1  0  0  0  0
 40 80  2  0  0  0  0
 41 69  1  0  0  0  0
 41 72  1  0  0  0  0
 41 81  2  0  0  0  0
 42 45  1  0  0  0  0
 43 52  1  0  0  0  0
 44 68  1  0  0  0  0
 45 47  1  0  0  0  0
 46 48  1  0  0  0  0
 46 49  1  0  0  0  0
 47 51  1  0  0  0  0
 48 53  1  0  0  0  0
 49 69  1  0  0  0  0
 50 53  1  0  0  0  0
 50 69  1  0  0  0  0
 51 73  1  0  0  0  0
 52 68  1  0  0  0  0
 53 67  1  0  0  0  0
 54 64  1  0  0  0  0
 55 65  1  0  0  0  0
 56 65  1  0  0  0  0
 57 65  1  0  0  0  0
 58 75  1  0  0  0  0
 59 61  1  0  0  0  0
 60 83  1  0  0  0  0
 61 62  1  0  0  0  0
 62 84  1  0  0  0  0
 63 65  1  0  0  0  0
 63 74  1  0  0  0  0
 64 75  1  0  0  0  0
 66 67  1  0  0  0  0
M  CHG  1  75   1
M  ISO  4  41 100  60 101  72 100  83 101
M  END
> <Batch ID>
0120

> <Smiles>
C=Cc1cc(OCCCC(=O)[101CH2:1][101O:1]c2ccc3c(c2)CN(C(=O)C(NC(=O)C(C)NC)C(C)(C)C)C(C(=O)NC2CCCc4ccccc42)C3)c(F)cc1[100NH:0][100C:0](=O)N1CCCC(n2nc(-c3ccc(Oc4ccc(F)cc4F)cc3)c(C(N)=O)c2N)C1

> <Shape>
0.284

> <Color>
0.068

> <Negative vol penalty>
0.000

$$$$

  -OEChem-04052301543D

 84 92  0     1  0  0  0  0  0999 V2000
  -28.9350  -19.7380   16.2985 C   0  0  0  0  0  0  0  0  0  0  0  0
  -29.3740  -18.7918   17.2190 C   0  0  0  0  0  0  0  0  0  0  0  0
  -24.9440  -28.8628   19.8927 C   0  0  0  0  0  0  0  0  0  0  0  0
  -26.4796  -30.1177   21.2728 C   0  0  0  0  0  0  0  0  0  0  0  0
  -31.3075  -18.6850   21.4379 C   0  0  0  0  0  0  0  0  0  0  0  0
  -29.1304  -17.6769   21.7225 C   0  0  0  0  0  0  0  0  0  0  0  0
  -27.5745  -20.0217   16.1871 C   0  0  0  0  0  0  0  0  0  0  0  0
  -28.4527  -18.1294   18.0295 C   0  0  0  0  0  0  0  0  0  0  0  0
  -29.3368  -13.1509   18.3082 C   0  0  0  0  0  0  0  0  0  0  0  0
  -31.9121  -17.4840   21.8087 C   0  0  0  0  0  0  0  0  0  0  0  0
  -29.7350  -16.4758   22.0932 C   0  0  0  0  0  0  0  0  0  0  0  0
  -23.8686  -29.5109   20.5000 C   0  0  0  0  0  0  0  0  0  0  0  0
  -25.4041  -30.7659   21.8801 C   0  0  0  0  0  0  0  0  0  0  0  0
  -30.3667  -12.7332   19.1500 C   0  0  0  0  0  0  0  0  0  0  0  0
  -22.1442  -29.2928   23.3989 C   0  0  0  0  0  0  0  0  0  0  0  0
  -21.0559  -28.5131   23.7905 C   0  0  0  0  0  0  0  0  0  0  0  0
  -28.7446  -12.1652   20.8427 C   0  0  0  0  0  0  0  0  0  0  0  0
  -19.6148  -29.7929   22.3337 C   0  0  0  0  0  0  0  0  0  0  0  0
  -26.2496  -29.1662   20.2791 C   0  0  0  0  0  0  0  0  0  0  0  0
  -29.9166  -18.7815   21.3949 C   0  0  0  0  0  0  0  0  0  0  0  0
  -28.0610  -28.9060   18.5018 C   0  0  0  0  0  0  0  0  0  0  0  0
  -26.6351  -19.3555   16.9899 C   0  0  0  0  0  0  0  0  0  0  0  0
  -28.0016  -13.0889   18.7322 C   0  0  0  0  0  0  0  0  0  0  0  0
  -27.0784  -18.4054   17.9297 C   0  0  0  0  0  0  0  0  0  0  0  0
  -27.6995  -12.5802   20.0034 C   0  0  0  0  0  0  0  0  0  0  0  0
  -31.1259  -16.3794   22.1363 C   0  0  0  0  0  0  0  0  0  0  0  0
  -24.0985  -30.4625   21.4937 C   0  0  0  0  0  0  0  0  0  0  0  0
  -30.0709  -12.2430   20.4186 C   0  0  0  0  0  0  0  0  0  0  0  0
  -21.9677  -30.3226   22.4747 C   0  0  0  0  0  0  0  0  0  0  0  0
  -19.7912  -28.7632   23.2579 C   0  0  0  0  0  0  0  0  0  0  0  0
  -20.7031  -30.5726   21.9421 C   0  0  0  0  0  0  0  0  0  0  0  0
  -27.3610  -28.4966   19.6526 C   0  0  0  0  0  0  0  0  0  0  0  0
  -29.0177  -27.9376   18.3193 C   0  0  0  0  0  0  0  0  0  0  0  0
  -29.2863  -20.0339   21.0083 C   0  0  0  0  0  0  0  0  0  0  0  0
  -29.8815  -21.0303   20.3184 C   0  0  0  0  0  0  0  0  0  0  0  0
  -33.4309  -13.5925   23.0263 C   0  0  0  0  0  0  0  0  0  0  0  0
  -27.8640  -30.0586   17.6721 C   0  0  0  0  0  0  0  0  0  0  0  0
  -33.0753  -12.4463   22.4141 C   0  0  0  0  0  0  0  0  0  0  0  0
  -29.1021  -22.2413   19.9919 C   0  0  0  0  0  0  0  0  0  0  0  0
  -25.6996  -15.2271   19.2142 C   0  0  0  0  0  0  0  0  0  0  0  0
  -23.8858  -12.5845   19.7136 C   0  0  0  0  0  0  0  0  0  0  0  0
  -23.7473   -9.2879   20.5851 C   0  0  0  0  0  0  0  0  0  0  0  0
  -25.1794  -19.7299   16.8666 C   0  0  0  0  0  0  0  0  0  0  0  0
  -26.9003  -13.5183   17.8020 C   0  0  0  0  0  0  0  0  0  0  0  0
  -26.2810  -12.4741   20.4985 C   0  0  0  0  0  0  0  0  0  0  0  0
  -24.2332  -18.7132   17.5000 C   0  0  0  0  0  0  0  0  0  0  0  0
  -31.6564  -24.7677   20.7159 C   0  0  0  0  0  0  0  0  0  0  0  0
  -24.7285  -18.3144   18.8865 C   0  0  0  0  0  0  0  0  0  0  0  0
  -30.8771  -26.0549   20.4602 C   0  0  0  0  0  0  0  0  0  0  0  0
  -30.7690  -23.6678   21.2967 C   0  0  0  0  0  0  0  0  0  0  0  0
  -28.7762  -24.6732   20.2204 C   0  0  0  0  0  0  0  0  0  0  0  0
  -26.1074  -17.6479   18.8091 C   0  0  1  0  0  0  0  0  0  0  0  0
  -25.6135  -13.8913   18.5317 C   0  0  1  0  0  0  0  0  0  0  0  0
  -29.6393  -25.7785   19.5920 C   0  0  1  0  0  0  0  0  0  0  0  0
  -33.3915  -11.0690   22.9290 C   0  0  0  0  0  0  0  0  0  0  0  0
  -22.1199   -7.4111   20.9410 C   0  0  0  0  0  0  0  0  0  0  0  0
  -23.0668  -13.8049   22.3875 C   0  0  0  0  0  0  0  0  0  0  0  0
  -22.2475  -11.5454   23.0886 C   0  0  0  0  0  0  0  0  0  0  0  0
  -21.2085  -12.6957   21.1342 C   0  0  0  0  0  0  0  0  0  0  0  0
  -24.9842   -7.6556   18.4486 C   0  0  0  0  0  0  0  0  0  0  0  0
  -33.1536  -14.9939   22.5772 C   0  0  0  0  0  0  0  0  0  0  0  0
  -32.3366  -12.4855   21.0998 C   0  0  0  0  0  0  0  0  0  1  0  0
  -23.5378  -11.7378   20.9140 C   0  0  1  0  0  0  0  0  0  0  0  0
  -23.0381   -8.1065   19.9480 C   0  0  2  0  0  0  0  0  0  0  0  0
  -22.5421  -12.4497   21.8728 C   0  0  0  0  0  0  0  0  0  0  0  0
  -27.8327  -27.3569   20.1649 N   0  0  0  0  0  0  0  0  0  0  0  0
  -28.8394  -27.0418   19.3321 N   0  0  0  0  0  0  0  0  0  0  0  0
  -29.5628  -23.4624   20.4807 N   0  0  0  0  0  0  0  0  0  0  0  0
  -25.2397  -12.9124   19.5546 N   0  0  0  0  0  0  0  0  0  0  0  0
  -29.9857  -27.7734   17.3927 N   0  0  0  0  0  0  0  0  0  0  0  0
  -26.8358  -30.9519   18.0026 N   0  0  0  0  0  0  0  0  0  0  0  0
  -31.7271  -15.1848   22.5051 N   0  0  0  0  0  0  0  0  0  0  0  0
  -25.9818  -16.2773   18.3617 N   0  0  0  0  0  0  0  0  0  0  0  0
  -23.0558  -10.4646   20.3896 N   0  0  0  0  0  0  0  0  0  0  0  0
  -24.0313   -7.1128   19.4508 N   0  3  0  0  0  0  0  0  0  0  0  0
  -28.5680  -30.2809   16.6580 O   0  0  0  0  0  0  0  0  0  0  0  0
  -28.0864  -22.0968   19.3091 O   0  0  0  0  0  0  0  0  0  0  0  0
  -25.5216  -15.2997   20.4245 O   0  0  0  0  0  0  0  0  0  0  0  0
  -22.9903  -12.9359   18.9414 O   0  0  0  0  0  0  0  0  0  0  0  0
  -24.8067   -9.1772   21.1983 O   0  0  0  0  0  0  0  0  0  0  0  0
  -23.0493  -31.0953   22.0863 O   0  0  0  0  0  0  0  0  0  0  0  0
  -31.0743  -11.8353   21.2425 O   0  0  0  0  0  0  0  0  0  1  0  0
  -18.7466  -28.0134   23.6329 F   0  0  0  0  0  0  0  0  0  0  0  0
  -20.5276  -31.5598   21.0530 F   0  0  0  0  0  0  0  0  0  0  0  0
  1  2  1  0  0  0  0
  1  7  2  0  0  0  0
  2  8  2  0  0  0  0
  3 12  2  0  0  0  0
  3 19  1  0  0  0  0
  4 13  1  0  0  0  0
  4 19  2  0  0  0  0
  5 10  2  0  0  0  0
  5 20  1  0  0  0  0
  6 11  1  0  0  0  0
  6 20  2  0  0  0  0
  7 22  1  0  0  0  0
  8 24  1  0  0  0  0
  9 14  2  0  0  0  0
  9 23  1  0  0  0  0
 10 26  1  0  0  0  0
 11 26  2  0  0  0  0
 12 27  1  0  0  0  0
 13 27  2  0  0  0  0
 14 28  1  0  0  0  0
 15 16  2  0  0  0  0
 15 29  1  0  0  0  0
 16 30  1  0  0  0  0
 17 25  1  0  0  0  0
 17 28  2  0  0  0  0
 18 30  2  0  0  0  0
 18 31  1  0  0  0  0
 19 32  1  0  0  0  0
 20 34  1  0  0  0  0
 21 32  1  0  0  0  0
 21 33  2  0  0  0  0
 21 37  1  0  0  0  0
 22 24  2  0  0  0  0
 22 43  1  0  0  0  0
 23 25  2  0  0  0  0
 23 44  1  0  0  0  0
 24 52  1  0  0  0  0
 25 45  1  0  0  0  0
 26 72  1  0  0  0  0
 27 81  1  0  0  0  0
 28 82  1  0  0  0  0
 29 31  2  0  0  0  0
 29 81  1  0  0  0  0
 30 83  1  0  0  0  0
 31 84  1  0  0  0  0
 32 66  2  0  0  0  0
 33 67  1  0  0  0  0
 33 70  1  0  0  0  0
 34 35  2  0  0  0  0
 35 39  1  0  0  0  0
 36 38  2  0  0  0  0
 36 61  1  0  0  0  0
 37 71  1  0  0  0  0
 37 76  2  0  0  0  0
 38 55  1  0  0  0  0
 38 62  1  0  0  0  0
 39 68  1  0  0  0  0
 39 77  2  0  0  0  0
 40 53  1  0  0  0  0
 40 73  1  0  0  0  0
 40 78  2  0  0  0  0
 41 63  1  0  0  0  0
 41 69  1  0  0  0  0
 41 79  2  0  0  0  0
 42 64  1  0  0  0  0
 42 74  1  0  0  0  0
 42 80  2  0  0  0  0
 43 46  1  0  0  0  0
 44 53  1  0  0  0  0
 45 69  1  0  0  0  0
 46 48  1  0  0  0  0
 47 49  1  0  0  0  0
 47 50  1  0  0  0  0
 48 52  1  0  0  0  0
 49 54  1  0  0  0  0
 50 68  1  0  0  0  0
 51 54  1  0  0  0  0
 51 68  1  0  0  0  0
 52 73  1  0  0  0  0
 53 69  1  0  0  0  0
 54 67  1  0  0  0  0
 56 64  1  0  0  0  0
 57 65  1  0  0  0  0
 58 65  1  0  0  0  0
 59 65  1  0  0  0  0
 60 75  1  0  0  0  0
 61 72  1  0  0  0  0
 62 82  1  0  0  0  0
 63 65  1  0  0  0  0
 63 74  1  0  0  0  0
 64 75  1  0  0  0  0
 66 67  1  0  0  0  0
M  CHG  1  75   1
M  ISO  4  35 100  39 100  62 101  82 101
M  END
> <Batch ID>
0120

> <Smiles>
CNC(C)C(=O)NC(C(=O)N1Cc2cc([101O:1][101CH2:1]C(C)=CCNc3ccc(C=[100CH:0][100C:0](=O)N4CCCC(n5nc(-c6ccc(Oc7ccc(F)cc7F)cc6)c(C(N)=O)c5N)C4)cc3)ccc2CC1C(=O)NC1CCCc2ccccc21)C(C)(C)C

> <Shape>
0.311

> <Color>
0.066

> <Negative vol penalty>
0.000

$$$$

  -OEChem-04052301543D

 84 92  0     1  0  0  0  0  0999 V2000
  -28.6086  -34.1337   30.4980 C   0  0  0  0  0  0  0  0  0  0  0  0
  -28.7688  -32.7543   30.4137 C   0  0  0  0  0  0  0  0  0  0  0  0
  -23.0324   -9.8793   20.0010 C   0  0  0  0  0  0  0  0  0  0  0  0
  -23.7752   -9.9430   22.2990 C   0  0  0  0  0  0  0  0  0  0  0  0
  -27.7996  -34.7980   29.5771 C   0  0  0  0  0  0  0  0  0  0  0  0
  -28.1191  -32.0383   29.4089 C   0  0  0  0  0  0  0  0  0  0  0  0
  -30.2088  -27.0818   26.4810 C   0  0  0  0  0  0  0  0  0  0  0  0
  -22.2556   -8.7557   20.2832 C   0  0  0  0  0  0  0  0  0  0  0  0
  -22.9984   -8.8194   22.5813 C   0  0  0  0  0  0  0  0  0  0  0  0
  -29.9685  -25.7194   26.6539 C   0  0  0  0  0  0  0  0  0  0  0  0
  -19.7454   -8.1297   23.1834 C   0  0  0  0  0  0  0  0  0  0  0  0
  -18.9790   -8.1496   24.3486 C   0  0  0  0  0  0  0  0  0  0  0  0
  -32.0706  -18.2413   24.0303 C   0  0  0  0  0  0  0  0  0  0  0  0
  -28.2837  -25.8039   24.9295 C   0  0  0  0  0  0  0  0  0  0  0  0
  -32.1823  -16.4326   22.4325 C   0  0  0  0  0  0  0  0  0  0  0  0
  -20.1617   -6.2053   25.1598 C   0  0  0  0  0  0  0  0  0  0  0  0
  -23.7923  -10.4730   21.0089 C   0  0  0  0  0  0  0  0  0  0  0  0
  -30.6838  -18.2832   23.8860 C   0  0  0  0  0  0  0  0  0  0  0  0
  -30.0463  -17.3997   23.0150 C   0  0  0  0  0  0  0  0  0  0  0  0
  -24.2036  -12.9825   20.8072 C   0  0  0  0  0  0  0  0  0  0  0  0
  -27.1474  -34.0910   28.5546 C   0  0  0  0  0  0  0  0  0  0  0  0
  -29.4795  -27.8190   25.5371 C   0  0  0  0  0  0  0  0  0  0  0  0
  -27.2996  -32.6936   28.4742 C   0  0  0  0  0  0  0  0  0  0  0  0
  -28.5184  -27.1750   24.7448 C   0  0  0  0  0  0  0  0  0  0  0  0
  -30.7956  -16.4744   22.2882 C   0  0  0  0  0  0  0  0  0  0  0  0
  -22.2386   -8.2258   21.5734 C   0  0  0  0  0  0  0  0  0  0  0  0
  -29.0038  -25.0808   25.8801 C   0  0  0  0  0  0  0  0  0  0  0  0
  -20.7199   -7.1475   23.0063 C   0  0  0  0  0  0  0  0  0  0  0  0
  -19.1872   -7.1875   25.3369 C   0  0  0  0  0  0  0  0  0  0  0  0
  -32.8198  -17.3160   23.3035 C   0  0  0  0  0  0  0  0  0  0  0  0
  -20.9281   -6.1853   23.9945 C   0  0  0  0  0  0  0  0  0  0  0  0
  -24.5954  -11.6333   20.7178 C   0  0  0  0  0  0  0  0  0  0  0  0
  -25.3184  -13.6896   20.4282 C   0  0  0  0  0  0  0  0  0  0  0  0
  -27.9777  -18.1616   21.9401 C   0  0  0  0  0  0  0  0  0  0  0  0
  -29.9399  -19.2792   24.6764 C   0  0  0  0  0  0  0  0  0  0  0  0
  -28.5923  -17.4375   22.8587 C   0  0  0  0  0  0  0  0  0  0  0  0
  -30.0991  -20.6091   24.5855 C   0  0  0  0  0  0  0  0  0  0  0  0
  -29.3354  -21.5445   25.3807 C   0  0  0  0  0  0  0  0  0  0  0  0
  -29.4898  -22.8692   25.2944 C   0  0  0  0  0  0  0  0  0  1  0  0
  -22.9445  -13.5462   21.1981 C   0  0  0  0  0  0  0  0  0  0  0  0
  -27.4811  -30.2870   25.6763 C   0  0  0  0  0  0  0  0  0  0  0  0
  -27.6431  -30.1005   22.4419 C   0  0  0  0  0  0  0  0  0  0  0  0
  -28.2572  -28.1969   19.6767 C   0  0  0  0  0  0  0  0  0  0  0  0
  -30.8095  -14.5928   20.6131 C   0  0  0  0  0  0  0  0  0  0  0  0
  -26.2455  -34.8464   27.6109 C   0  0  0  0  0  0  0  0  0  0  0  0
  -29.7694  -29.2823   25.3441 C   0  0  0  0  0  0  0  0  0  0  0  0
  -27.7225  -27.9171   23.7035 C   0  0  0  0  0  0  0  0  0  0  0  0
  -25.8911  -34.0633   26.3494 C   0  0  0  0  0  0  0  0  0  0  0  0
  -29.6474  -12.1315   18.3178 C   0  0  0  0  0  0  0  0  0  0  0  0
  -25.4807  -32.6375   26.7038 C   0  0  0  0  0  0  0  0  0  0  0  0
  -28.1972  -11.8935   18.7449 C   0  0  0  0  0  0  0  0  0  0  0  0
  -30.5595  -12.3759   19.5187 C   0  0  0  0  0  0  0  0  0  0  0  0
  -28.6628  -13.1976   20.8590 C   0  0  0  0  0  0  0  0  0  0  0  0
  -26.6312  -31.8851   27.3834 C   0  0  1  0  0  0  0  0  0  0  0  0
  -28.6078  -30.0433   24.7125 C   0  0  1  0  0  0  0  0  0  0  0  0
  -27.6943  -13.0111   19.6796 C   0  0  2  0  0  0  0  0  0  0  0  0
  -28.2715  -28.3113   17.1699 C   0  0  0  0  0  0  0  0  0  0  0  0
  -24.5945  -29.9766   22.4213 C   0  0  0  0  0  0  0  0  0  0  0  0
  -24.7135  -29.1497   20.0612 C   0  0  0  0  0  0  0  0  0  0  0  0
  -25.5923  -31.4130   20.6336 C   0  0  0  0  0  0  0  0  0  0  0  0
  -31.1437  -27.5562   19.5482 C   0  0  0  0  0  0  0  0  0  0  0  0
  -26.8729  -29.3625   21.3736 C   0  0  1  0  0  0  0  0  0  0  0  0
  -29.0961  -28.4595   18.4391 C   0  0  2  0  0  0  0  0  0  0  0  0
  -25.4567  -29.9616   21.1433 C   0  0  0  0  0  0  0  0  0  0  0  0
  -25.8602  -11.4894   20.3135 N   0  0  0  0  0  0  0  0  0  0  0  0
  -26.2728  -12.7573   20.1454 N   0  0  0  0  0  0  0  0  0  0  0  0
  -28.0381  -29.3476   23.5567 N   0  0  0  0  0  0  0  0  0  0  0  0
  -30.0223  -13.4504   20.3564 N   0  0  0  0  0  0  0  0  0  0  0  0
  -25.5655  -15.0117   20.3124 N   0  0  0  0  0  0  0  0  0  0  0  0
  -21.9058  -12.6765   21.5572 N   0  0  0  0  0  0  0  0  0  0  0  0
  -30.1816  -15.5620   21.3947 N   0  0  0  0  0  0  0  0  0  0  0  0
  -27.6044  -31.4565   26.4018 N   0  0  0  0  0  0  0  0  0  0  0  0
  -27.7211  -29.3605   20.1866 N   0  0  0  0  0  0  0  0  0  0  0  0
  -30.2361  -27.5019   18.3733 N   0  3  0  0  0  0  0  0  0  0  0  0
  -22.7414  -14.7840   21.2123 O   0  0  0  0  0  0  0  0  0  0  0  0
  -26.5668  -29.4748   25.7547 O   0  0  0  0  0  0  0  0  0  0  0  0
  -27.8915  -31.2991   22.2893 O   0  0  0  0  0  0  0  0  0  0  0  0
  -28.0909  -27.0717   20.1423 O   0  0  0  0  0  0  0  0  0  0  0  0
  -31.9462  -14.7152   20.1495 O   0  0  0  0  0  0  0  0  0  0  0  0
  -21.4805   -7.1295   21.8492 O   0  0  0  0  0  0  0  0  0  0  0  0
  -28.7668  -23.7513   26.0473 O   0  0  0  0  0  0  0  0  0  1  0  0
  -18.4522   -7.2077   26.4565 F   0  0  0  0  0  0  0  0  0  0  0  0
  -34.1516  -17.2758   23.4422 F   0  0  0  0  0  0  0  0  0  0  0  0
  -21.8637   -5.2400   23.8306 F   0  0  0  0  0  0  0  0  0  0  0  0
  1  2  1  0  0  0  0
  1  5  2  0  0  0  0
  2  6  2  0  0  0  0
  3  8  2  0  0  0  0
  3 17  1  0  0  0  0
  4  9  1  0  0  0  0
  4 17  2  0  0  0  0
  5 21  1  0  0  0  0
  6 23  1  0  0  0  0
  7 10  2  0  0  0  0
  7 22  1  0  0  0  0
  8 26  1  0  0  0  0
  9 26  2  0  0  0  0
 10 27  1  0  0  0  0
 11 12  2  0  0  0  0
 11 28  1  0  0  0  0
 12 29  1  0  0  0  0
 13 18  2  0  0  0  0
 13 30  1  0  0  0  0
 14 24  1  0  0  0  0
 14 27  2  0  0  0  0
 15 25  1  0  0  0  0
 15 30  2  0  0  0  0
 16 29  2  0  0  0  0
 16 31  1  0  0  0  0
 17 32  1  0  0  0  0
 18 19  1  0  0  0  0
 18 35  1  0  0  0  0
 19 25  2  0  0  0  0
 19 36  1  0  0  0  0
 20 32  1  0  0  0  0
 20 33  2  0  0  0  0
 20 40  1  0  0  0  0
 21 23  2  0  0  0  0
 21 45  1  0  0  0  0
 22 24  2  0  0  0  0
 22 46  1  0  0  0  0
 23 54  1  0  0  0  0
 24 47  1  0  0  0  0
 25 71  1  0  0  0  0
 26 80  1  0  0  0  0
 27 81  1  0  0  0  0
 28 31  2  0  0  0  0
 28 80  1  0  0  0  0
 29 82  1  0  0  0  0
 30 83  1  0  0  0  0
 31 84  1  0  0  0  0
 32 65  2  0  0  0  0
 33 66  1  0  0  0  0
 33 69  1  0  0  0  0
 34 36  2  0  0  0  0
 35 37  2  0  0  0  0
 37 38  1  0  0  0  0
 38 39  2  0  0  0  0
 39 81  1  0  0  0  0
 40 70  1  0  0  0  0
 40 75  2  0  0  0  0
 41 55  1  0  0  0  0
 41 72  1  0  0  0  0
 41 76  2  0  0  0  0
 42 62  1  0  0  0  0
 42 67  1  0  0  0  0
 42 77  2  0  0  0  0
 43 63  1  0  0  0  0
 43 73  1  0  0  0  0
 43 78  2  0  0  0  0
 44 68  1  0  0  0  0
 44 71  1  0  0  0  0
 44 79  2  0  0  0  0
 45 48  1  0  0  0  0
 46 55  1  0  0  0  0
 47 67  1  0  0  0  0
 48 50  1  0  0  0  0
 49 51  1  0  0  0  0
 49 52  1  0  0  0  0
 50 54  1  0  0  0  0
 51 56  1  0  0  0  0
 52 68  1  0  0  0  0
 53 56  1  0  0  0  0
 53 68  1  0  0  0  0
 54 72  1  0  0  0  0
 55 67  1  0  0  0  0
 56 66  1  0  0  0  0
 57 63  1  0  0  0  0
 58 64  1  0  0  0  0
 59 64  1  0  0  0  0
 60 64  1  0  0  0  0
 61 74  1  0  0  0  0
 62 64  1  0  0  0  0
 62 73  1  0  0  0  0
 63 74  1  0  0  0  0
 65 66  1  0  0  0  0
M  CHG  1  74   1
M  ISO  4  39 101  44 100  71 100  81 101
M  END
> <Batch ID>
0120

> <Smiles>
C=Cc1c(C=CC=[101CH:1][101O:1]c2ccc3c(c2)CN(C(=O)C(NC(=O)C(C)NC)C(C)(C)C)C(C(=O)NC2CCCc4ccccc42)C3)cc(F)cc1[100NH:0][100C:0](=O)N1CCCC(n2nc(-c3ccc(Oc4ccc(F)cc4F)cc3)c(C(N)=O)c2N)C1

> <Shape>
0.279

> <Color>
0.212

> <Negative vol penalty>
0.000

$$$$

  -OEChem-04052301543D

 87 95  0     1  0  0  0  0  0999 V2000
  -30.9052  -31.1813   14.7311 C   0  0  0  0  0  0  0  0  0  0  0  0
  -31.6115  -30.3121   15.5563 C   0  0  0  0  0  0  0  0  0  0  0  0
  -23.0782   -9.8633   19.9429 C   0  0  0  0  0  0  0  0  0  0  0  0
  -23.8339   -9.8773   22.2376 C   0  0  0  0  0  0  0  0  0  0  0  0
  -29.8631  -31.9454   15.2547 C   0  0  0  0  0  0  0  0  0  0  0  0
  -31.2768  -30.2072   16.9059 C   0  0  0  0  0  0  0  0  0  0  0  0
  -31.0905  -25.4020   18.4936 C   0  0  0  0  0  0  0  0  0  0  0  0
  -22.3351   -8.7101   20.1946 C   0  0  0  0  0  0  0  0  0  0  0  0
  -23.0908   -8.7241   22.4894 C   0  0  0  0  0  0  0  0  0  0  0  0
  -32.3057  -24.7697   18.7532 C   0  0  0  0  0  0  0  0  0  0  0  0
  -19.8624   -7.9245   23.0882 C   0  0  0  0  0  0  0  0  0  0  0  0
  -19.1033   -7.8870   24.2579 C   0  0  0  0  0  0  0  0  0  0  0  0
  -31.1435  -17.7041   20.5929 C   0  0  0  0  0  0  0  0  0  0  0  0
  -32.0043  -25.1726   21.1124 C   0  0  0  0  0  0  0  0  0  0  0  0
  -29.5096  -17.8947   22.3623 C   0  0  0  0  0  0  0  0  0  0  0  0
  -20.3454   -5.9529   25.0018 C   0  0  0  0  0  0  0  0  0  0  0  0
  -23.8277  -10.4469   20.9643 C   0  0  0  0  0  0  0  0  0  0  0  0
  -31.3103  -19.0889   20.5977 C   0  0  0  0  0  0  0  0  0  0  0  0
  -24.1671  -12.9721   20.8380 C   0  0  0  0  0  0  0  0  0  0  0  0
  -29.5092  -31.8428   16.6093 C   0  0  0  0  0  0  0  0  0  0  0  0
  -30.3271  -25.9350   19.5422 C   0  0  0  0  0  0  0  0  0  0  0  0
  -30.2299  -30.9716   17.4484 C   0  0  0  0  0  0  0  0  0  0  0  0
  -30.7787  -25.8090   20.8637 C   0  0  0  0  0  0  0  0  0  0  0  0
  -29.6764  -19.2795   22.3672 C   0  0  0  0  0  0  0  0  0  0  0  0
  -30.5768  -19.8766   21.4848 C   0  0  0  0  0  0  0  0  0  0  0  0
  -30.2431  -17.1069   21.4752 C   0  0  0  0  0  0  0  0  0  0  0  0
  -22.3413   -8.1405   21.4679 C   0  0  0  0  0  0  0  0  0  0  0  0
  -32.7641  -24.6575   20.0625 C   0  0  0  0  0  0  0  0  0  0  0  0
  -20.8629   -6.9762   22.8753 C   0  0  0  0  0  0  0  0  0  0  0  0
  -19.3449   -6.9012   25.2147 C   0  0  0  0  0  0  0  0  0  0  0  0
  -21.1044   -5.9904   23.8321 C   0  0  0  0  0  0  0  0  0  0  0  0
  -24.5960  -11.6379   20.7047 C   0  0  0  0  0  0  0  0  0  0  0  0
  -25.2591  -13.7217   20.4747 C   0  0  0  0  0  0  0  0  0  0  0  0
  -32.2681  -19.6863   19.6530 C   0  0  0  0  0  0  0  0  0  0  0  0
  -33.5786  -19.4016   19.5976 C   0  0  0  0  0  0  0  0  0  0  0  0
  -22.8953  -13.4877   21.2533 C   0  0  0  0  0  0  0  0  0  0  0  0
  -29.3212  -28.8454   20.3304 C   0  0  0  0  0  0  0  0  0  0  0  0
  -35.1826  -21.9628   20.1436 C   0  0  0  0  0  0  0  0  0  0  0  0
  -27.7080  -27.2381   22.6405 C   0  0  0  0  0  0  0  0  0  0  0  0
  -27.4603  -24.4541   24.5987 C   0  0  0  0  0  0  0  0  0  0  0  0
  -30.7239  -14.7735   20.6564 C   0  0  0  0  0  0  0  0  0  0  0  0
  -28.4063  -32.7239   17.1402 C   0  0  0  0  0  0  0  0  0  0  0  0
  -29.0057  -26.5905   19.2479 C   0  0  0  0  0  0  0  0  0  0  0  0
  -29.9869  -26.3463   22.0268 C   0  0  0  0  0  0  0  0  0  0  0  0
  -27.8701  -32.2772   18.4978 C   0  0  0  0  0  0  0  0  0  0  0  0
  -29.6162  -12.3521   18.2927 C   0  0  0  0  0  0  0  0  0  0  0  0
  -29.0204  -31.9622   19.4488 C   0  0  0  0  0  0  0  0  0  0  0  0
  -28.1761  -12.0602   18.7205 C   0  0  0  0  0  0  0  0  0  0  0  0
  -30.5289  -12.5851   19.4954 C   0  0  0  0  0  0  0  0  0  0  0  0
  -28.6188  -13.3114   20.8712 C   0  0  0  0  0  0  0  0  0  0  0  0
  -29.8805  -30.8117   18.9121 C   0  0  1  0  0  0  0  0  0  0  0  0
  -28.5579  -27.5512   20.3451 C   0  0  1  0  0  0  0  0  0  0  0  0
  -27.6482  -13.1339   19.6921 C   0  0  2  0  0  0  0  0  0  0  0  0
  -30.7472  -21.3643   21.4994 C   0  0  0  0  0  0  0  0  0  0  0  0
  -29.7066  -20.5573   24.5242 C   0  0  0  0  0  0  0  0  0  0  0  0
  -26.4674  -22.8565   26.2599 C   0  0  0  0  0  0  0  0  0  0  0  0
  -28.9920  -29.1193   24.6710 C   0  0  0  0  0  0  0  0  0  0  0  0
  -28.3370  -27.5091   26.4727 C   0  0  0  0  0  0  0  0  0  0  0  0
  -26.5787  -28.6180   25.0939 C   0  0  0  0  0  0  0  0  0  0  0  0
  -25.9247  -23.0431   22.4987 C   0  0  0  0  0  0  0  0  0  0  0  0
  -28.8784  -20.0994   23.3277 C   0  0  0  0  0  0  0  0  0  0  0  0
  -34.5215  -20.0288   18.6075 C   0  0  0  0  0  0  0  0  0  0  0  0
  -35.6546  -20.7933   19.2916 C   0  0  0  0  0  0  0  0  0  0  0  0
  -34.3507  -23.0053   19.4227 C   0  0  0  0  0  0  0  0  0  1  0  0
  -28.0112  -26.8114   24.0565 C   0  0  1  0  0  0  0  0  0  0  0  0
  -26.2844  -23.5486   24.9181 C   0  0  2  0  0  0  0  0  0  0  0  0
  -27.9958  -28.0059   25.0516 C   0  0  0  0  0  0  0  0  0  0  0  0
  -25.8617  -11.5423   20.2890 N   0  0  0  0  0  0  0  0  0  0  0  0
  -26.2375  -12.8259   20.1579 N   0  0  0  0  0  0  0  0  0  0  0  0
  -28.7043  -26.9843   21.6872 N   0  0  0  0  0  0  0  0  0  0  0  0
  -29.9673  -13.6178   20.3689 N   0  0  0  0  0  0  0  0  0  0  0  0
  -25.4682  -15.0532   20.3984 N   0  0  0  0  0  0  0  0  0  0  0  0
  -21.8837  -12.5784   21.5912 N   0  0  0  0  0  0  0  0  0  0  0  0
  -30.0740  -15.7001   21.4711 N   0  0  0  0  0  0  0  0  0  0  0  0
  -29.2254  -29.5416   19.1407 N   0  0  0  0  0  0  0  0  0  0  0  0
  -27.0582  -25.7543   24.3771 N   0  0  0  0  0  0  0  0  0  0  0  0
  -26.1351  -22.5032   23.8666 N   0  3  0  0  0  0  0  0  0  0  0  0
  -22.6577  -14.7182   21.3068 O   0  0  0  0  0  0  0  0  0  0  0  0
  -29.9493  -29.1877   21.3254 O   0  0  0  0  0  0  0  0  0  0  0  0
  -35.4337  -22.0532   21.3442 O   0  0  0  0  0  0  0  0  0  0  0  0
  -26.6242  -27.7704   22.3883 O   0  0  0  0  0  0  0  0  0  0  0  0
  -28.6199  -24.0492   24.5542 O   0  0  0  0  0  0  0  0  0  0  0  0
  -31.8536  -14.9422   20.1903 O   0  0  0  0  0  0  0  0  0  0  0  0
  -21.6161   -7.0153   21.7139 O   0  0  0  0  0  0  0  0  0  0  0  0
  -33.9501  -24.0413   20.3186 O   0  0  0  0  0  0  0  0  0  1  0  0
  -18.6170   -6.8662   26.3386 F   0  0  0  0  0  0  0  0  0  0  0  0
  -22.0651   -5.0773   23.6337 F   0  0  0  0  0  0  0  0  0  0  0  0
  1  2  1  0  0  0  0
  1  5  2  0  0  0  0
  2  6  2  0  0  0  0
  3  8  2  0  0  0  0
  3 17  1  0  0  0  0
  4  9  1  0  0  0  0
  4 17  2  0  0  0  0
  5 20  1  0  0  0  0
  6 22  1  0  0  0  0
  7 10  2  0  0  0  0
  7 21  1  0  0  0  0
  8 27  1  0  0  0  0
  9 27  2  0  0  0  0
 10 28  1  0  0  0  0
 11 12  2  0  0  0  0
 11 29  1  0  0  0  0
 12 30  1  0  0  0  0
 13 18  2  0  0  0  0
 13 26  1  0  0  0  0
 14 23  1  0  0  0  0
 14 28  2  0  0  0  0
 15 24  1  0  0  0  0
 15 26  2  0  0  0  0
 16 30  2  0  0  0  0
 16 31  1  0  0  0  0
 17 32  1  0  0  0  0
 18 25  1  0  0  0  0
 18 34  1  0  0  0  0
 19 32  1  0  0  0  0
 19 33  2  0  0  0  0
 19 36  1  0  0  0  0
 20 22  2  0  0  0  0
 20 42  1  0  0  0  0
 21 23  2  0  0  0  0
 21 43  1  0  0  0  0
 22 51  1  0  0  0  0
 23 44  1  0  0  0  0
 24 25  2  0  0  0  0
 24 61  1  0  0  0  0
 25 54  1  0  0  0  0
 26 74  1  0  0  0  0
 27 84  1  0  0  0  0
 28 85  1  0  0  0  0
 29 31  2  0  0  0  0
 29 84  1  0  0  0  0
 30 86  1  0  0  0  0
 31 87  1  0  0  0  0
 32 68  2  0  0  0  0
 33 69  1  0  0  0  0
 33 72  1  0  0  0  0
 34 35  2  0  0  0  0
 35 62  1  0  0  0  0
 36 73  1  0  0  0  0
 36 78  2  0  0  0  0
 37 52  1  0  0  0  0
 37 75  1  0  0  0  0
 37 79  2  0  0  0  0
 38 63  1  0  0  0  0
 38 64  1  0  0  0  0
 38 80  2  0  0  0  0
 39 65  1  0  0  0  0
 39 70  1  0  0  0  0
 39 81  2  0  0  0  0
 40 66  1  0  0  0  0
 40 76  1  0  0  0  0
 40 82  2  0  0  0  0
 41 71  1  0  0  0  0
 41 74  1  0  0  0  0
 41 83  2  0  0  0  0
 42 45  1  0  0  0  0
 43 52  1  0  0  0  0
 44 70  1  0  0  0  0
 45 47  1  0  0  0  0
 46 48  1  0  0  0  0
 46 49  1  0  0  0  0
 47 51  1  0  0  0  0
 48 53  1  0  0  0  0
 49 71  1  0  0  0  0
 50 53  1  0  0  0  0
 50 71  1  0  0  0  0
 51 75  1  0  0  0  0
 52 70  1  0  0  0  0
 53 69  1  0  0  0  0
 55 61  1  0  0  0  0
 56 66  1  0  0  0  0
 57 67  1  0  0  0  0
 58 67  1  0  0  0  0
 59 67  1  0  0  0  0
 60 77  1  0  0  0  0
 62 63  1  0  0  0  0
 64 85  1  0  0  0  0
 65 67  1  0  0  0  0
 65 76  1  0  0  0  0
 66 77  1  0  0  0  0
 68 69  1  0  0  0  0
M  CHG  1  77   1
M  ISO  4  41 100  64 101  74 100  85 101
M  END
> <Batch ID>
0120

> <Smiles>
CCc1cc([100NH:0][100C:0](=O)N2CCCC(n3nc(-c4ccc(Oc5ccc(F)cc5F)cc4)c(C(N)=O)c3N)C2)cc(C=CCCC(=O)[101CH2:1][101O:1]c2ccc3c(c2)CN(C(=O)C(NC(=O)C(C)NC)C(C)(C)C)C(C(=O)NC2CCCc4ccccc42)C3)c1C

> <Shape>
0.234

> <Color>
0.191

> <Negative vol penalty>
0.000

$$$$

  -OEChem-04052301543D

 84 92  0     1  0  0  0  0  0999 V2000
  -28.5374  -24.4536   17.4279 C   0  0  0  0  0  0  0  0  0  0  0  0
  -27.3560  -24.6271   18.1418 C   0  0  0  0  0  0  0  0  0  0  0  0
  -28.6710  -13.8099   20.0206 C   0  0  0  0  0  0  0  0  0  0  0  0
  -26.5688  -14.8258   19.3994 C   0  0  0  0  0  0  0  0  0  0  0  0
  -29.7033  -25.0939   17.8456 C   0  0  0  0  0  0  0  0  0  0  0  0
  -27.3401  -25.4403   19.2745 C   0  0  0  0  0  0  0  0  0  0  0  0
  -23.3311  -28.5321   19.3905 C   0  0  0  0  0  0  0  0  0  0  0  0
  -28.0093  -12.6162   20.3081 C   0  0  0  0  0  0  0  0  0  0  0  0
  -25.9070  -13.6320   19.6868 C   0  0  0  0  0  0  0  0  0  0  0  0
  -22.1117  -27.9792   19.7792 C   0  0  0  0  0  0  0  0  0  0  0  0
  -25.4129  -10.6389   18.1977 C   0  0  0  0  0  0  0  0  0  0  0  0
  -24.4630  -10.1892   17.2806 C   0  0  0  0  0  0  0  0  0  0  0  0
  -23.7609  -23.3209   21.4520 C   0  0  0  0  0  0  0  0  0  0  0  0
  -22.4119  -28.8888   21.9932 C   0  0  0  0  0  0  0  0  0  0  0  0
  -26.0505  -23.5592   23.0279 C   0  0  0  0  0  0  0  0  0  0  0  0
  -22.7614  -10.2926   18.9926 C   0  0  0  0  0  0  0  0  0  0  0  0
  -27.9508  -14.9147   19.5664 C   0  0  0  0  0  0  0  0  0  0  0  0
  -23.7479  -24.1390   22.5816 C   0  0  0  0  0  0  0  0  0  0  0  0
  -29.1868  -16.5383   18.0354 C   0  0  0  0  0  0  0  0  0  0  0  0
  -29.6995  -25.9230   18.9785 C   0  0  0  0  0  0  0  0  0  0  0  0
  -24.1065  -29.2595   20.3049 C   0  0  0  0  0  0  0  0  0  0  0  0
  -28.5074  -26.0912   19.7085 C   0  0  0  0  0  0  0  0  0  0  0  0
  -23.6395  -29.4521   21.6129 C   0  0  0  0  0  0  0  0  0  0  0  0
  -24.9186  -22.6218   21.1104 C   0  0  0  0  0  0  0  0  0  0  0  0
  -24.8927  -24.2582   23.3696 C   0  0  0  0  0  0  0  0  0  0  0  0
  -26.0634  -22.7410   21.8983 C   0  0  0  0  0  0  0  0  0  0  0  0
  -26.6273  -12.5272   20.1412 C   0  0  0  0  0  0  0  0  0  0  0  0
  -21.6532  -28.1551   21.0815 C   0  0  0  0  0  0  0  0  0  0  0  0
  -25.0371  -10.9153   19.5122 C   0  0  0  0  0  0  0  0  0  0  0  0
  -23.1372  -10.0161   17.6780 C   0  0  0  0  0  0  0  0  0  0  0  0
  -23.7113  -10.7422   19.9097 C   0  0  0  0  0  0  0  0  0  0  0  0
  -28.6338  -16.1483   19.2698 C   0  0  0  0  0  0  0  0  0  0  0  0
  -29.7166  -17.7828   18.2743 C   0  0  0  0  0  0  0  0  0  0  0  0
  -22.5108  -24.8640   22.9164 C   0  0  0  0  0  0  0  0  0  0  0  0
  -21.2662  -24.4308   22.6615 C   0  0  0  0  0  0  0  0  0  0  0  0
  -29.2187  -15.8383   16.7845 C   0  0  0  0  0  0  0  0  0  0  0  0
  -27.0066  -28.9149   21.5598 C   0  0  0  0  0  0  0  0  0  0  0  0
  -26.3746  -31.8289   22.8370 C   0  0  0  0  0  0  0  0  0  0  0  0
  -24.0412  -34.1134   23.8285 C   0  0  0  0  0  0  0  0  0  0  0  0
  -28.4617  -22.0579   22.2560 C   0  0  0  0  0  0  0  0  0  0  0  0
  -30.9955  -26.5565   19.4187 C   0  0  0  0  0  0  0  0  0  0  0  0
  -25.4070  -29.8722   19.8624 C   0  0  0  0  0  0  0  0  0  0  0  0
  -24.4246  -30.2419   22.6270 C   0  0  0  0  0  0  0  0  0  0  0  0
  -30.8078  -27.6996   20.4130 C   0  0  0  0  0  0  0  0  0  0  0  0
  -31.5985  -20.4404   21.7857 C   0  0  0  0  0  0  0  0  0  0  0  0
  -29.8282  -27.2968   21.5107 C   0  0  0  0  0  0  0  0  0  0  0  0
  -31.2454  -19.1948   20.9696 C   0  0  0  0  0  0  0  0  0  0  0  0
  -30.5153  -20.7731   22.8102 C   0  0  0  0  0  0  0  0  0  0  0  0
  -28.8040  -19.6404   21.4472 C   0  0  0  0  0  0  0  0  0  0  0  0
  -28.4444  -26.9850   20.9280 C   0  0  1  0  0  0  0  0  0  0  0  0
  -26.3575  -30.1582   21.0209 C   0  0  1  0  0  0  0  0  0  0  0  0
  -29.8350  -19.3032   20.3577 C   0  0  2  0  0  0  0  0  0  0  0  0
  -24.9034  -21.7519   19.8954 C   0  0  0  0  0  0  0  0  0  0  0  0
  -24.9147  -25.1258   24.5871 C   0  0  0  0  0  0  0  0  0  0  0  0
  -23.8282  -36.3868   24.8693 C   0  0  0  0  0  0  0  0  0  0  0  0
  -27.0470  -30.6401   25.5655 C   0  0  0  0  0  0  0  0  0  0  0  0
  -25.9244  -32.6120   26.6237 C   0  0  0  0  0  0  0  0  0  0  0  0
  -27.9347  -32.9470   25.1852 C   0  0  0  0  0  0  0  0  0  0  0  0
  -22.6602  -35.2015   21.4478 C   0  0  0  0  0  0  0  0  0  0  0  0
  -20.0309  -25.2046   23.0262 C   0  0  0  0  0  0  0  0  0  0  0  0
  -19.2278  -25.5838   21.7833 C   0  0  0  0  0  0  0  0  0  0  0  0
  -20.0564  -26.4134   20.8122 C   0  0  0  0  0  0  0  0  0  1  0  0
  -25.7329  -32.3211   24.1117 C   0  0  1  0  0  0  0  0  0  0  0  0
  -23.9167  -35.6038   23.5687 C   0  0  2  0  0  0  0  0  0  0  0  0
  -26.6457  -32.1135   25.3532 C   0  0  0  0  0  0  0  0  0  0  0  0
  -28.7972  -17.0703   20.2223 N   0  0  0  0  0  0  0  0  0  0  0  0
  -29.4590  -18.0519   19.5864 N   0  0  0  0  0  0  0  0  0  0  0  0
  -25.6930  -30.8158   22.1480 N   0  0  0  0  0  0  0  0  0  0  0  0
  -29.2073  -20.8640   22.1577 N   0  0  0  0  0  0  0  0  0  0  0  0
  -30.3730  -18.6621   17.4881 N   0  0  0  0  0  0  0  0  0  0  0  0
  -28.6274  -14.5696   16.7136 N   0  0  0  0  0  0  0  0  0  0  0  0
  -27.2488  -22.0385   21.5682 N   0  0  0  0  0  0  0  0  0  0  0  0
  -27.7371  -28.2100   20.6222 N   0  0  0  0  0  0  0  0  0  0  0  0
  -25.3592  -33.7106   23.8705 N   0  0  0  0  0  0  0  0  0  0  0  0
  -22.6951  -35.8891   22.7642 N   0  3  0  0  0  0  0  0  0  0  0  0
  -29.7700  -16.3166   15.7643 O   0  0  0  0  0  0  0  0  0  0  0  0
  -26.8570  -28.6178   22.7392 O   0  0  0  0  0  0  0  0  0  0  0  0
  -27.4378  -32.3300   22.4625 O   0  0  0  0  0  0  0  0  0  0  0  0
  -23.0667  -33.3805   23.9828 O   0  0  0  0  0  0  0  0  0  0  0  0
  -28.8815  -23.0357   22.8802 O   0  0  0  0  0  0  0  0  0  0  0  0
  -25.9812  -11.3624   20.4213 O   0  0  0  0  0  0  0  0  0  0  0  0
  -20.4636  -27.6159   21.4637 O   0  0  0  0  0  0  0  0  0  1  0  0
  -22.2248   -9.5858   16.7969 F   0  0  0  0  0  0  0  0  0  0  0  0
  -23.3441  -11.0073   21.1709 F   0  0  0  0  0  0  0  0  0  0  0  0
  1  2  1  0  0  0  0
  1  5  2  0  0  0  0
  2  6  2  0  0  0  0
  3  8  2  0  0  0  0
  3 17  1  0  0  0  0
  4  9  1  0  0  0  0
  4 17  2  0  0  0  0
  5 20  1  0  0  0  0
  6 22  1  0  0  0  0
  7 10  2  0  0  0  0
  7 21  1  0  0  0  0
  8 27  1  0  0  0  0
  9 27  2  0  0  0  0
 10 28  1  0  0  0  0
 11 12  2  0  0  0  0
 11 29  1  0  0  0  0
 12 30  1  0  0  0  0
 13 18  1  0  0  0  0
 13 24  2  0  0  0  0
 14 23  1  0  0  0  0
 14 28  2  0  0  0  0
 15 25  1  0  0  0  0
 15 26  2  0  0  0  0
 16 30  2  0  0  0  0
 16 31  1  0  0  0  0
 17 32  1  0  0  0  0
 18 25  2  0  0  0  0
 18 34  1  0  0  0  0
 19 32  1  0  0  0  0
 19 33  2  0  0  0  0
 19 36  1  0  0  0  0
 20 22  2  0  0  0  0
 20 41  1  0  0  0  0
 21 23  2  0  0  0  0
 21 42  1  0  0  0  0
 22 50  1  0  0  0  0
 23 43  1  0  0  0  0
 24 26  1  0  0  0  0
 24 53  1  0  0  0  0
 25 54  1  0  0  0  0
 26 72  1  0  0  0  0
 27 81  1  0  0  0  0
 28 82  1  0  0  0  0
 29 31  2  0  0  0  0
 29 81  1  0  0  0  0
 30 83  1  0  0  0  0
 31 84  1  0  0  0  0
 32 66  2  0  0  0  0
 33 67  1  0  0  0  0
 33 70  1  0  0  0  0
 34 35  2  0  0  0  0
 35 60  1  0  0  0  0
 36 71  1  0  0  0  0
 36 76  2  0  0  0  0
 37 51  1  0  0  0  0
 37 73  1  0  0  0  0
 37 77  2  0  0  0  0
 38 63  1  0  0  0  0
 38 68  1  0  0  0  0
 38 78  2  0  0  0  0
 39 64  1  0  0  0  0
 39 74  1  0  0  0  0
 39 79  2  0  0  0  0
 40 69  1  0  0  0  0
 40 72  1  0  0  0  0
 40 80  2  0  0  0  0
 41 44  1  0  0  0  0
 42 51  1  0  0  0  0
 43 68  1  0  0  0  0
 44 46  1  0  0  0  0
 45 47  1  0  0  0  0
 45 48  1  0  0  0  0
 46 50  1  0  0  0  0
 47 52  1  0  0  0  0
 48 69  1  0  0  0  0
 49 52  1  0  0  0  0
 49 69  1  0  0  0  0
 50 73  1  0  0  0  0
 51 68  1  0  0  0  0
 52 67  1  0  0  0  0
 55 64  1  0  0  0  0
 56 65  1  0  0  0  0
 57 65  1  0  0  0  0
 58 65  1  0  0  0  0
 59 75  1  0  0  0  0
 60 61  1  0  0  0  0
 61 62  1  0  0  0  0
 62 82  1  0  0  0  0
 63 65  1  0  0  0  0
 63 74  1  0  0  0  0
 64 75  1  0  0  0  0
 66 67  1  0  0  0  0
M  CHG  1  75   1
M  ISO  4  40 100  62 101  72 100  82 101
M  END
> <Batch ID>
0120

> <Smiles>
CNC(C)C(=O)NC(C(=O)N1Cc2cc([101O:1][101CH2:1]CCC=Cc3cc(C)c([100NH:0][100C:0](=O)N4CCCC(n5nc(-c6ccc(Oc7ccc(F)cc7F)cc6)c(C(N)=O)c5N)C4)cc3C)ccc2CC1C(=O)NC1CCCc2ccccc21)C(C)(C)C

> <Shape>
0.302

> <Color>
0.067

> <Negative vol penalty>
0.000

$$$$

  -OEChem-04052301543D

 87 95  0     1  0  0  0  0  0999 V2000
  -29.3716   -8.6208   22.7282 C   0  0  0  0  0  0  0  0  0  0  0  0
  -28.2619   -9.4594   22.7043 C   0  0  0  0  0  0  0  0  0  0  0  0
  -24.7979  -30.7568   21.0671 C   0  0  0  0  0  0  0  0  0  0  0  0
  -24.7723  -29.4266   23.0837 C   0  0  0  0  0  0  0  0  0  0  0  0
  -30.6487   -9.1605   22.8752 C   0  0  0  0  0  0  0  0  0  0  0  0
  -28.4286  -10.8383   22.8284 C   0  0  0  0  0  0  0  0  0  0  0  0
  -25.6407  -13.4400   19.4962 C   0  0  0  0  0  0  0  0  0  0  0  0
  -24.1742  -31.8019   21.7485 C   0  0  0  0  0  0  0  0  0  0  0  0
  -24.1486  -30.4717   23.7652 C   0  0  0  0  0  0  0  0  0  0  0  0
  -24.2831  -13.5860   19.7783 C   0  0  0  0  0  0  0  0  0  0  0  0
  -25.0610  -34.2468   23.9092 C   0  0  0  0  0  0  0  0  0  0  0  0
  -25.5629  -35.5345   23.7205 C   0  0  0  0  0  0  0  0  0  0  0  0
  -22.8103  -20.4666   23.7241 C   0  0  0  0  0  0  0  0  0  0  0  0
  -24.7010  -15.8125   20.6071 C   0  0  0  0  0  0  0  0  0  0  0  0
  -22.1582  -20.5640   21.0134 C   0  0  0  0  0  0  0  0  0  0  0  0
  -23.4190  -36.2442   22.8619 C   0  0  0  0  0  0  0  0  0  0  0  0
  -25.0969  -29.5691   21.7347 C   0  0  0  0  0  0  0  0  0  0  0  0
  -23.4532  -21.3761   22.8844 C   0  0  0  0  0  0  0  0  0  0  0  0
  -27.1243  -28.2644   20.9009 C   0  0  0  0  0  0  0  0  0  0  0  0
  -30.8320  -10.5474   22.9915 C   0  0  0  0  0  0  0  0  0  0  0  0
  -26.5417  -14.4768   19.7780 C   0  0  0  0  0  0  0  0  0  0  0  0
  -29.7092  -11.3969   22.9784 C   0  0  0  0  0  0  0  0  0  0  0  0
  -26.0691  -15.6782   20.3253 C   0  0  0  0  0  0  0  0  0  0  0  0
  -23.1272  -21.4248   21.5291 C   0  0  0  0  0  0  0  0  0  0  0  0
  -23.8496  -31.6594   23.0975 C   0  0  0  0  0  0  0  0  0  0  0  0
  -23.8136  -14.7713   20.3365 C   0  0  0  0  0  0  0  0  0  0  0  0
  -23.7382  -33.9578   23.5742 C   0  0  0  0  0  0  0  0  0  0  0  0
  -21.8415  -19.6057   23.2085 C   0  0  0  0  0  0  0  0  0  0  0  0
  -24.7419  -36.5332   23.1969 C   0  0  0  0  0  0  0  0  0  0  0  0
  -21.5154  -19.6544   21.8531 C   0  0  0  0  0  0  0  0  0  0  0  0
  -22.9172  -34.9565   23.0505 C   0  0  0  0  0  0  0  0  0  0  0  0
  -25.7407  -28.4889   21.0312 C   0  0  0  0  0  0  0  0  0  0  0  0
  -27.2170  -27.1195   20.1479 C   0  0  0  0  0  0  0  0  0  0  0  0
  -25.5754  -21.8270   24.0282 C   0  0  0  0  0  0  0  0  0  0  0  0
  -24.4608  -22.2594   23.4594 C   0  0  0  0  0  0  0  0  0  0  0  0
  -21.1148  -14.6743   23.1782 C   0  0  0  0  0  0  0  0  0  0  0  0
  -20.7561  -15.8834   23.6349 C   0  0  0  0  0  0  0  0  0  0  0  0
  -28.2272  -29.0229   21.4148 C   0  0  0  0  0  0  0  0  0  0  0  0
  -29.0748  -14.7945   21.6718 C   0  0  0  0  0  0  0  0  0  0  0  0
  -29.3308  -17.6713   20.1952 C   0  0  0  0  0  0  0  0  0  0  0  0
  -27.7984  -20.1987   18.4890 C   0  0  0  0  0  0  0  0  0  0  0  0
  -23.5359  -22.4925   19.2842 C   0  0  0  0  0  0  0  0  0  0  0  0
  -32.2279  -11.0806   23.1960 C   0  0  0  0  0  0  0  0  0  0  0  0
  -27.9990  -14.3137   19.4430 C   0  0  0  0  0  0  0  0  0  0  0  0
  -26.9922  -16.8291   20.6279 C   0  0  0  0  0  0  0  0  0  0  0  0
  -32.3494  -12.5815   22.9451 C   0  0  0  0  0  0  0  0  0  0  0  0
  -24.8680  -24.6494   16.7841 C   0  0  0  0  0  0  0  0  0  0  0  0
  -31.2155  -13.3318   23.6365 C   0  0  0  0  0  0  0  0  0  0  0  0
  -25.3743  -25.8556   17.5783 C   0  0  0  0  0  0  0  0  0  0  0  0
  -23.5783  -24.0823   17.3749 C   0  0  0  0  0  0  0  0  0  0  0  0
  -24.1450  -24.9712   19.6015 C   0  0  0  0  0  0  0  0  0  0  0  0
  -29.8513  -12.8998   23.0853 C   0  0  1  0  0  0  0  0  0  0  0  0
  -28.9045  -15.2413   20.2474 C   0  0  1  0  0  0  0  0  0  0  0  0
  -25.4771  -25.5370   19.0828 C   0  0  2  0  0  0  0  0  0  0  0  0
  -28.2590  -22.4349   17.4476 C   0  0  0  0  0  0  0  0  0  0  0  0
  -29.3825  -18.9483   22.9659 C   0  0  0  0  0  0  0  0  0  0  0  0
  -28.8862  -21.1507   21.8837 C   0  0  0  0  0  0  0  0  0  0  0  0
  -30.9950  -19.9384   21.3306 C   0  0  0  0  0  0  0  0  0  0  0  0
  -27.0206  -19.2366   15.8004 C   0  0  0  0  0  0  0  0  0  0  0  0
  -20.6161  -14.0861   21.8883 C   0  0  0  0  0  0  0  0  0  0  0  0
  -21.2545  -16.4711   24.9254 C   0  0  0  0  0  0  0  0  0  0  0  0
  -21.7623  -13.7343   20.9473 C   0  0  0  0  0  0  0  0  0  1  0  0
  -22.0346  -17.7606   24.6965 C   0  0  0  0  0  0  0  0  0  0  0  0
  -28.7929  -19.0578   20.4547 C   0  0  1  0  0  0  0  0  0  0  0  0
  -28.1829  -20.9336   17.2175 C   0  0  2  0  0  0  0  0  0  0  0  0
  -29.4968  -19.7516   21.6549 C   0  0  0  0  0  0  0  0  0  0  0  0
  -25.0071  -27.5612   20.4105 N   0  0  0  0  0  0  0  0  0  0  0  0
  -25.9332  -26.7427   19.8829 N   0  0  0  0  0  0  0  0  0  0  0  0
  -28.4093  -16.6187   20.2883 N   0  0  0  0  0  0  0  0  0  0  0  0
  -23.7519  -23.8006   18.8015 N   0  0  0  0  0  0  0  0  0  0  0  0
  -28.2705  -26.4084   19.6931 N   0  0  0  0  0  0  0  0  0  0  0  0
  -27.9540  -30.1724   22.1686 N   0  0  0  0  0  0  0  0  0  0  0  0
  -23.7629  -22.3376   20.6514 N   0  0  0  0  0  0  0  0  0  0  0  0
  -29.6032  -13.5245   21.8037 N   0  0  0  0  0  0  0  0  0  0  0  0
  -28.9081  -19.7829   19.1940 N   0  0  0  0  0  0  0  0  0  0  0  0
  -27.1811  -20.6726   16.1454 N   0  3  0  0  0  0  0  0  0  0  0  0
  -29.4198  -28.7003   21.1976 O   0  0  0  0  0  0  0  0  0  0  0  0
  -28.7521  -15.5468   22.5837 O   0  0  0  0  0  0  0  0  0  0  0  0
  -30.5231  -17.5283   19.9131 O   0  0  0  0  0  0  0  0  0  0  0  0
  -26.6306  -20.0153   18.8252 O   0  0  0  0  0  0  0  0  0  0  0  0
  -23.2024  -21.5710   18.5348 O   0  0  0  0  0  0  0  0  0  0  0  0
  -23.2412  -32.6791   23.7628 O   0  0  0  0  0  0  0  0  0  0  0  0
  -22.4891  -14.9161   20.6135 O   0  0  0  0  0  0  0  0  0  1  0  0
  -21.2113  -18.7117   24.0341 O   0  0  0  0  0  0  0  0  0  0  0  0
  -25.2235  -37.7701   23.0172 F   0  0  0  0  0  0  0  0  0  0  0  0
  -20.5858  -18.8294   21.3520 F   0  0  0  0  0  0  0  0  0  0  0  0
  -21.6451  -34.6851   22.7279 F   0  0  0  0  0  0  0  0  0  0  0  0
  1  2  1  0  0  0  0
  1  5  2  0  0  0  0
  2  6  2  0  0  0  0
  3  8  2  0  0  0  0
  3 17  1  0  0  0  0
  4  9  1  0  0  0  0
  4 17  2  0  0  0  0
  5 20  1  0  0  0  0
  6 22  1  0  0  0  0
  7 10  2  0  0  0  0
  7 21  1  0  0  0  0
  8 25  1  0  0  0  0
  9 25  2  0  0  0  0
 10 26  1  0  0  0  0
 11 12  2  0  0  0  0
 11 27  1  0  0  0  0
 12 29  1  0  0  0  0
 13 18  1  0  0  0  0
 13 28  2  0  0  0  0
 14 23  1  0  0  0  0
 14 26  2  0  0  0  0
 15 24  1  0  0  0  0
 15 30  2  0  0  0  0
 16 29  2  0  0  0  0
 16 31  1  0  0  0  0
 17 32  1  0  0  0  0
 18 24  2  0  0  0  0
 18 35  1  0  0  0  0
 19 32  1  0  0  0  0
 19 33  2  0  0  0  0
 19 38  1  0  0  0  0
 20 22  2  0  0  0  0
 20 43  1  0  0  0  0
 21 23  2  0  0  0  0
 21 44  1  0  0  0  0
 22 52  1  0  0  0  0
 23 45  1  0  0  0  0
 24 73  1  0  0  0  0
 25 82  1  0  0  0  0
 26 83  1  0  0  0  0
 27 31  2  0  0  0  0
 27 82  1  0  0  0  0
 28 30  1  0  0  0  0
 28 84  1  0  0  0  0
 29 85  1  0  0  0  0
 30 86  1  0  0  0  0
 31 87  1  0  0  0  0
 32 67  2  0  0  0  0
 33 68  1  0  0  0  0
 33 71  1  0  0  0  0
 34 35  2  0  0  0  0
 36 37  2  0  0  0  0
 36 60  1  0  0  0  0
 37 61  1  0  0  0  0
 38 72  1  0  0  0  0
 38 77  2  0  0  0  0
 39 53  1  0  0  0  0
 39 74  1  0  0  0  0
 39 78  2  0  0  0  0
 40 64  1  0  0  0  0
 40 69  1  0  0  0  0
 40 79  2  0  0  0  0
 41 65  1  0  0  0  0
 41 75  1  0  0  0  0
 41 80  2  0  0  0  0
 42 70  1  0  0  0  0
 42 73  1  0  0  0  0
 42 81  2  0  0  0  0
 43 46  1  0  0  0  0
 44 53  1  0  0  0  0
 45 69  1  0  0  0  0
 46 48  1  0  0  0  0
 47 49  1  0  0  0  0
 47 50  1  0  0  0  0
 48 52  1  0  0  0  0
 49 54  1  0  0  0  0
 50 70  1  0  0  0  0
 51 54  1  0  0  0  0
 51 70  1  0  0  0  0
 52 74  1  0  0  0  0
 53 69  1  0  0  0  0
 54 68  1  0  0  0  0
 55 65  1  0  0  0  0
 56 66  1  0  0  0  0
 57 66  1  0  0  0  0
 58 66  1  0  0  0  0
 59 76  1  0  0  0  0
 60 62  1  0  0  0  0
 61 63  1  0  0  0  0
 62 83  1  0  0  0  0
 63 84  1  0  0  0  0
 64 66  1  0  0  0  0
 64 75  1  0  0  0  0
 65 76  1  0  0  0  0
 67 68  1  0  0  0  0
M  CHG  1  76   1
M  ISO  4  42 100  62 101  73 100  83 101
M  END
> <Batch ID>
0120

> <Smiles>
C=Cc1cc(OCCC=CC[101CH2:1][101O:1]c2ccc3c(c2)CN(C(=O)C(NC(=O)C(C)NC)C(C)(C)C)C(C(=O)NC2CCCc4ccccc42)C3)c(F)cc1[100NH:0][100C:0](=O)N1CCCC(n2nc(-c3ccc(Oc4ccc(F)cc4F)cc3)c(C(N)=O)c2N)C1

> <Shape>
0.205

> <Color>
0.077

> <Negative vol penalty>
0.000

$$$$

  -OEChem-04052301543D

 86 94  0     1  0  0  0  0  0999 V2000
  -26.0273  -36.5481   16.5080 C   0  0  0  0  0  0  0  0  0  0  0  0
  -26.3581  -35.2001   16.4149 C   0  0  0  0  0  0  0  0  0  0  0  0
  -22.8932  -10.2307   20.0152 C   0  0  0  0  0  0  0  0  0  0  0  0
  -24.0864   -9.5747   22.0110 C   0  0  0  0  0  0  0  0  0  0  0  0
  -29.2922  -18.5029   20.7839 C   0  0  0  0  0  0  0  0  0  0  0  0
  -29.9847  -17.2921   20.7857 C   0  0  0  0  0  0  0  0  0  0  0  0
  -25.9770  -37.1679   17.7559 C   0  0  0  0  0  0  0  0  0  0  0  0
  -26.6400  -34.4712   17.5698 C   0  0  0  0  0  0  0  0  0  0  0  0
  -25.3418  -28.5776   18.6121 C   0  0  0  0  0  0  0  0  0  0  0  0
  -22.1347   -9.0622   20.0846 C   0  0  0  0  0  0  0  0  0  0  0  0
  -23.3279   -8.4062   22.0804 C   0  0  0  0  0  0  0  0  0  0  0  0
  -26.1101  -27.4178   18.5220 C   0  0  0  0  0  0  0  0  0  0  0  0
  -20.2330   -7.5041   23.0946 C   0  0  0  0  0  0  0  0  0  0  0  0
  -19.7193   -7.1397   24.3391 C   0  0  0  0  0  0  0  0  0  0  0  0
  -28.2719  -17.9227   22.8956 C   0  0  0  0  0  0  0  0  0  0  0  0
  -26.5704  -27.5463   20.8865 C   0  0  0  0  0  0  0  0  0  0  0  0
  -20.9438   -5.0595   24.2355 C   0  0  0  0  0  0  0  0  0  0  0  0
  -23.8691  -10.4870   20.9784 C   0  0  0  0  0  0  0  0  0  0  0  0
  -28.4358  -18.8183   21.8388 C   0  0  0  0  0  0  0  0  0  0  0  0
  -29.8208  -16.3966   21.8425 C   0  0  0  0  0  0  0  0  0  0  0  0
  -24.3548  -12.9376   21.4946 C   0  0  0  0  0  0  0  0  0  0  0  0
  -26.2489  -36.4439   18.9274 C   0  0  0  0  0  0  0  0  0  0  0  0
  -25.1906  -29.2377   19.8400 C   0  0  0  0  0  0  0  0  0  0  0  0
  -26.5946  -35.0822   18.8345 C   0  0  0  0  0  0  0  0  0  0  0  0
  -25.7975  -28.7129   20.9900 C   0  0  0  0  0  0  0  0  0  0  0  0
  -28.9644  -16.7119   22.8975 C   0  0  0  0  0  0  0  0  0  0  0  0
  -22.3520   -8.1500   21.1171 C   0  0  0  0  0  0  0  0  0  0  0  0
  -26.7269  -26.9035   19.6588 C   0  0  0  0  0  0  0  0  0  0  0  0
  -21.1021   -6.6462   22.4204 C   0  0  0  0  0  0  0  0  0  0  0  0
  -20.0747   -5.9174   24.9096 C   0  0  0  0  0  0  0  0  0  0  0  0
  -21.4575   -5.4239   22.9909 C   0  0  0  0  0  0  0  0  0  0  0  0
  -24.6534  -11.6936   20.9069 C   0  0  0  0  0  0  0  0  0  0  0  0
  -25.4038  -13.7478   21.1347 C   0  0  0  0  0  0  0  0  0  0  0  0
  -27.7050  -20.0978   21.8358 C   0  0  0  0  0  0  0  0  0  0  0  0
  -28.0534  -21.1706   21.1105 C   0  0  0  0  0  0  0  0  0  0  0  0
  -27.7447  -23.5203   20.3371 C   0  0  0  0  0  0  0  0  0  0  0  0
  -27.1021  -24.6923   20.3225 C   0  0  0  0  0  0  0  0  0  1  0  0
  -30.5565  -15.1395   21.8194 C   0  0  0  0  0  0  0  0  0  0  0  0
  -23.2299  -13.3259   22.2942 C   0  0  0  0  0  0  0  0  0  0  0  0
  -27.2412  -22.4155   21.1941 C   0  0  0  0  0  0  0  0  0  0  0  0
  -30.9174  -14.4828   20.5420 C   0  0  0  0  0  0  0  0  0  0  0  0
  -25.9503  -32.1193   20.9461 C   0  0  0  0  0  0  0  0  0  0  0  0
  -24.3040  -31.1226   23.5574 C   0  0  0  0  0  0  0  0  0  0  0  0
  -23.1508  -28.5163   25.4346 C   0  0  0  0  0  0  0  0  0  0  0  0
  -26.2282  -37.1686   20.2499 C   0  0  0  0  0  0  0  0  0  0  0  0
  -24.3366  -30.4729   19.9256 C   0  0  0  0  0  0  0  0  0  0  0  0
  -25.6496  -29.3725   22.3359 C   0  0  0  0  0  0  0  0  0  0  0  0
  -26.1744  -36.2341   21.4558 C   0  0  0  0  0  0  0  0  0  0  0  0
  -29.1216  -13.0494   17.7893 C   0  0  0  0  0  0  0  0  0  0  0  0
  -27.1894  -35.1058   21.3025 C   0  0  0  0  0  0  0  0  0  0  0  0
  -27.7894  -12.6360   18.4139 C   0  0  0  0  0  0  0  0  0  0  0  0
  -30.2739  -12.8905   18.7759 C   0  0  0  0  0  0  0  0  0  0  0  0
  -28.7356  -13.2108   20.6941 C   0  0  0  0  0  0  0  0  0  0  0  0
  -26.8826  -34.2518   20.0664 C   0  0  1  0  0  0  0  0  0  0  0  0
  -24.6727  -31.3496   21.1280 C   0  0  1  0  0  0  0  0  0  0  0  0
  -27.5438  -13.3838   19.7364 C   0  0  2  0  0  0  0  0  0  0  0  0
  -29.5377  -16.2089   25.2859 C   0  0  0  0  0  0  0  0  0  0  0  0
  -21.8694  -28.0155   27.5333 C   0  0  0  0  0  0  0  0  0  0  0  0
  -26.7563  -31.8437   25.2237 C   0  0  0  0  0  0  0  0  0  0  0  0
  -25.8045  -30.4733   27.0904 C   0  0  0  0  0  0  0  0  0  0  0  0
  -24.5690  -32.4747   26.2592 C   0  0  0  0  0  0  0  0  0  0  0  0
  -21.0307  -27.0926   23.9387 C   0  0  0  0  0  0  0  0  0  0  0  0
  -28.7717  -15.7705   24.0417 C   0  0  0  0  0  0  0  0  0  0  0  0
  -24.6583  -30.3913   24.8297 C   0  0  1  0  0  0  0  0  0  0  0  0
  -21.7839  -28.2313   26.0303 C   0  0  2  0  0  0  0  0  0  0  0  0
  -25.4516  -31.2842   25.8252 C   0  0  0  0  0  0  0  0  0  0  0  0
  -25.8020  -11.7077   20.2254 N   0  0  0  0  0  0  0  0  0  0  0  0
  -30.9428  -14.5181   22.8992 N   0  0  0  0  0  0  0  0  0  0  0  0
  -26.2344  -12.9704   20.3825 N   0  0  0  0  0  0  0  0  0  0  0  0
  -29.9929  -13.5817   20.0326 N   0  0  0  0  0  0  0  0  0  0  0  0
  -24.8098  -30.5813   22.3670 N   0  0  0  0  0  0  0  0  0  0  0  0
  -25.6876  -15.0424   21.3915 N   0  0  0  0  0  0  0  0  0  0  0  0
  -22.2432  -12.3691   22.5687 N   0  0  0  0  0  0  0  0  0  0  0  0
  -25.7849  -33.3481   20.3362 N   0  0  0  0  0  0  0  0  0  0  0  0
  -23.4047  -29.8697   25.3633 N   0  0  0  0  0  0  0  0  0  0  0  0
  -21.1942  -27.0098   25.4130 N   0  3  0  0  0  0  0  0  0  0  0  0
  -23.0953  -14.4914   22.7381 O   0  0  0  0  0  0  0  0  0  0  0  0
  -26.2480  -22.5212   21.9030 O   0  0  0  0  0  0  0  0  0  0  0  0
  -31.9993  -14.8067   20.0696 O   0  0  0  0  0  0  0  0  0  0  0  0
  -27.0077  -31.6347   21.3319 O   0  0  0  0  0  0  0  0  0  0  0  0
  -23.5985  -32.1327   23.6169 O   0  0  0  0  0  0  0  0  0  0  0  0
  -23.9181  -27.6271   25.0723 O   0  0  0  0  0  0  0  0  0  0  0  0
  -21.6119   -7.0097   21.1853 O   0  0  0  0  0  0  0  0  0  0  0  0
  -27.4780  -25.7719   19.5736 O   0  0  0  0  0  0  0  0  0  1  0  0
  -19.5825   -5.5683   26.1054 F   0  0  0  0  0  0  0  0  0  0  0  0
  -22.2929   -4.5961   22.3485 F   0  0  0  0  0  0  0  0  0  0  0  0
  1  2  1  0  0  0  0
  1  7  2  0  0  0  0
  2  8  2  0  0  0  0
  3 10  2  0  0  0  0
  3 18  1  0  0  0  0
  4 11  1  0  0  0  0
  4 18  2  0  0  0  0
  5  6  2  0  0  0  0
  5 19  1  0  0  0  0
  6 20  1  0  0  0  0
  7 22  1  0  0  0  0
  8 24  1  0  0  0  0
  9 12  2  0  0  0  0
  9 23  1  0  0  0  0
 10 27  1  0  0  0  0
 11 27  2  0  0  0  0
 12 28  1  0  0  0  0
 13 14  2  0  0  0  0
 13 29  1  0  0  0  0
 14 30  1  0  0  0  0
 15 19  2  0  0  0  0
 15 26  1  0  0  0  0
 16 25  1  0  0  0  0
 16 28  2  0  0  0  0
 17 30  2  0  0  0  0
 17 31  1  0  0  0  0
 18 32  1  0  0  0  0
 19 34  1  0  0  0  0
 20 26  2  0  0  0  0
 20 38  1  0  0  0  0
 21 32  1  0  0  0  0
 21 33  2  0  0  0  0
 21 39  1  0  0  0  0
 22 24  2  0  0  0  0
 22 45  1  0  0  0  0
 23 25  2  0  0  0  0
 23 46  1  0  0  0  0
 24 54  1  0  0  0  0
 25 47  1  0  0  0  0
 26 63  1  0  0  0  0
 27 83  1  0  0  0  0
 28 84  1  0  0  0  0
 29 31  2  0  0  0  0
 29 83  1  0  0  0  0
 30 85  1  0  0  0  0
 31 86  1  0  0  0  0
 32 67  2  0  0  0  0
 33 69  1  0  0  0  0
 33 72  1  0  0  0  0
 34 35  2  0  0  0  0
 35 40  1  0  0  0  0
 36 37  2  0  0  0  0
 36 40  1  0  0  0  0
 37 84  1  0  0  0  0
 38 41  1  0  0  0  0
 38 68  2  0  0  0  0
 39 73  1  0  0  0  0
 39 77  2  0  0  0  0
 40 78  2  0  0  0  0
 41 70  1  0  0  0  0
 41 79  2  0  0  0  0
 42 55  1  0  0  0  0
 42 74  1  0  0  0  0
 42 80  2  0  0  0  0
 43 64  1  0  0  0  0
 43 71  1  0  0  0  0
 43 81  2  0  0  0  0
 44 65  1  0  0  0  0
 44 75  1  0  0  0  0
 44 82  2  0  0  0  0
 45 48  1  0  0  0  0
 46 55  1  0  0  0  0
 47 71  1  0  0  0  0
 48 50  1  0  0  0  0
 49 51  1  0  0  0  0
 49 52  1  0  0  0  0
 50 54  1  0  0  0  0
 51 56  1  0  0  0  0
 52 70  1  0  0  0  0
 53 56  1  0  0  0  0
 53 70  1  0  0  0  0
 54 74  1  0  0  0  0
 55 71  1  0  0  0  0
 56 69  1  0  0  0  0
 57 63  1  0  0  0  0
 58 65  1  0  0  0  0
 59 66  1  0  0  0  0
 60 66  1  0  0  0  0
 61 66  1  0  0  0  0
 62 76  1  0  0  0  0
 64 66  1  0  0  0  0
 64 75  1  0  0  0  0
 65 76  1  0  0  0  0
 67 69  1  0  0  0  0
M  CHG  1  76   1
M  ISO  4  37 101  38 100  41 100  84 101
M  END
> <Batch ID>
0120

> <Smiles>
CCc1cc(C=CC(=O)C=[101CH:1][101O:1]c2ccc3c(c2)CN(C(=O)C(NC(=O)C(C)NC)C(C)(C)C)C(C(=O)NC2CCCc4ccccc42)C3)ccc1[100C:0](=N)[100C:0](=O)N1CCCC(n2nc(-c3ccc(Oc4ccc(F)cc4F)cc3)c(C(N)=O)c2N)C1

> <Shape>
0.331

> <Color>
0.209

> <Negative vol penalty>
0.000

$$$$

  -OEChem-04052301543D

 82 90  0     1  0  0  0  0  0999 V2000
  -26.8791  -23.5064   18.0791 C   0  0  0  0  0  0  0  0  0  0  0  0
  -25.7103  -24.1306   18.5029 C   0  0  0  0  0  0  0  0  0  0  0  0
  -25.6723  -13.6979   21.0399 C   0  0  0  0  0  0  0  0  0  0  0  0
  -25.8645  -13.6468   18.6321 C   0  0  0  0  0  0  0  0  0  0  0  0
  -20.9863  -25.2504   22.0754 C   0  0  0  0  0  0  0  0  0  0  0  0
  -28.0707  -23.7162   18.7719 C   0  0  0  0  0  0  0  0  0  0  0  0
  -25.7322  -24.9640   19.6207 C   0  0  0  0  0  0  0  0  0  0  0  0
  -23.1840  -29.2769   18.8782 C   0  0  0  0  0  0  0  0  0  0  0  0
  -20.2244  -26.4173   22.0184 C   0  0  0  0  0  0  0  0  0  0  0  0
  -25.4907  -12.3150   21.0549 C   0  0  0  0  0  0  0  0  0  0  0  0
  -25.6830  -12.2638   18.6470 C   0  0  0  0  0  0  0  0  0  0  0  0
  -21.7935  -29.2169   18.9591 C   0  0  0  0  0  0  0  0  0  0  0  0
  -24.6175   -8.8437   21.6962 C   0  0  0  0  0  0  0  0  0  0  0  0
  -23.6018   -8.3301   22.5024 C   0  0  0  0  0  0  0  0  0  0  0  0
  -19.0677  -23.9630   21.3693 C   0  0  0  0  0  0  0  0  0  0  0  0
  -21.8923  -30.0943   21.2040 C   0  0  0  0  0  0  0  0  0  0  0  0
  -21.9702   -9.6091   21.2616 C   0  0  0  0  0  0  0  0  0  0  0  0
  -25.8591  -14.3638   19.8286 C   0  0  0  0  0  0  0  0  0  0  0  0
  -20.4080  -24.0232   21.7508 C   0  0  0  0  0  0  0  0  0  0  0  0
  -27.2655  -16.4911   19.8948 C   0  0  0  0  0  0  0  0  0  0  0  0
  -28.1092  -24.5602   19.8930 C   0  0  0  0  0  0  0  0  0  0  0  0
  -23.9411  -29.7366   19.9653 C   0  0  0  0  0  0  0  0  0  0  0  0
  -26.9251  -25.1842   20.3300 C   0  0  0  0  0  0  0  0  0  0  0  0
  -23.2922  -30.1616   21.1334 C   0  0  0  0  0  0  0  0  0  0  0  0
  -18.8840  -26.3571   21.6370 C   0  0  0  0  0  0  0  0  0  0  0  0
  -18.3057  -25.1300   21.3124 C   0  0  0  0  0  0  0  0  0  0  0  0
  -25.4961  -11.5980   19.8584 C   0  0  0  0  0  0  0  0  0  0  0  0
  -21.1476  -29.6229   20.1232 C   0  0  0  0  0  0  0  0  0  0  0  0
  -24.3097   -9.7401   20.6727 C   0  0  0  0  0  0  0  0  0  0  0  0
  -22.2781   -8.7127   22.2851 C   0  0  0  0  0  0  0  0  0  0  0  0
  -22.9860  -10.1227   20.4554 C   0  0  0  0  0  0  0  0  0  0  0  0
  -26.0461  -15.7924   19.8125 C   0  0  0  0  0  0  0  0  0  0  0  0
  -26.9068  -17.8157   19.8372 C   0  0  0  0  0  0  0  0  0  0  0  0
  -21.2029  -22.8064   21.8097 C   0  0  0  0  0  0  0  0  0  0  0  0
  -20.9102  -21.6486   21.1802 C   0  0  0  0  0  0  0  0  0  0  0  0
  -28.6028  -15.9878   20.0127 C   0  0  0  0  0  0  0  0  0  0  0  0
  -21.8257  -20.4997   21.3308 C   0  0  0  0  0  0  0  0  0  0  0  0
  -26.1611  -28.4638   21.8509 C   0  0  0  0  0  0  0  0  0  0  0  0
  -26.3461  -31.4848   23.0178 C   0  0  0  0  0  0  0  0  0  0  0  0
  -24.8285  -34.5039   23.4960 C   0  0  0  0  0  0  0  0  0  0  0  0
  -29.4110  -24.7189   20.6378 C   0  0  0  0  0  0  0  0  0  0  0  0
  -25.4386  -29.8204   19.8524 C   0  0  0  0  0  0  0  0  0  0  0  0
  -24.0578  -30.6822   22.3213 C   0  0  0  0  0  0  0  0  0  0  0  0
  -29.4268  -25.9127   21.5891 C   0  0  0  0  0  0  0  0  0  0  0  0
  -23.5465  -20.7234   18.1027 C   0  0  0  0  0  0  0  0  0  0  0  0
  -28.1475  -25.9511   22.4189 C   0  0  0  0  0  0  0  0  0  0  0  0
  -24.4651  -19.5065   18.1747 C   0  0  0  0  0  0  0  0  0  0  0  0
  -22.2138  -20.4763   18.8079 C   0  0  0  0  0  0  0  0  0  0  0  0
  -23.2812  -18.8038   20.2924 C   0  0  0  0  0  0  0  0  0  0  0  0
  -26.9137  -26.1150   21.5231 C   0  0  1  0  0  0  0  0  0  0  0  0
  -26.1408  -29.8212   21.2068 C   0  0  1  0  0  0  0  0  0  0  0  0
  -24.6463  -19.0466   19.6299 C   0  0  1  0  0  0  0  0  0  0  0  0
  -16.8728  -25.0411   20.9009 C   0  0  0  0  0  0  0  0  0  0  0  0
  -25.2164  -36.7643   24.5146 C   0  0  0  0  0  0  0  0  0  0  0  0
  -25.9132  -30.3038   25.7976 C   0  0  0  0  0  0  0  0  0  0  0  0
  -25.3651  -32.6061   26.6143 C   0  0  0  0  0  0  0  0  0  0  0  0
  -27.6306  -32.1186   25.6911 C   0  0  0  0  0  0  0  0  0  0  0  0
  -24.5051  -35.8634   20.8871 C   0  0  0  0  0  0  0  0  0  0  0  0
  -18.0809  -27.6321   21.5826 C   0  0  0  0  0  0  0  0  0  0  0  0
  -17.8499  -28.1545   20.1630 C   0  0  0  0  0  0  0  0  0  0  0  0
  -19.1371  -28.5473   19.4473 C   0  0  0  0  0  0  0  0  0  1  0  0
  -25.6539  -32.2493   24.1202 C   0  0  1  0  0  0  0  0  0  0  0  0
  -25.3091  -35.9229   23.2511 C   0  0  2  0  0  0  0  0  0  0  0  0
  -26.1261  -31.8079   25.5343 C   0  0  0  0  0  0  0  0  0  0  0  0
  -24.9916  -16.6058   19.7105 N   0  0  0  0  0  0  0  0  0  0  0  0
  -25.5473  -17.8293   19.7284 N   0  0  0  0  0  0  0  0  0  0  0  0
  -22.4135  -19.9814   20.1783 N   0  0  0  0  0  0  0  0  0  0  0  0
  -25.5206  -30.7390   22.1645 N   0  0  0  0  0  0  0  0  0  0  0  0
  -27.6248  -18.9584   19.8695 N   0  0  0  0  0  0  0  0  0  0  0  0
  -28.7928  -14.5999   20.0581 N   0  0  0  0  0  0  0  0  0  0  0  0
  -26.7814  -27.4901   21.0917 N   0  0  0  0  0  0  0  0  0  0  0  0
  -25.8683  -33.6635   23.8331 N   0  0  0  0  0  0  0  0  0  0  0  0
  -24.4864  -36.5730   22.1921 N   0  3  0  0  0  0  0  0  0  0  0  0
  -29.5985  -16.7466   20.0924 O   0  0  0  0  0  0  0  0  0  0  0  0
  -22.0105  -20.0653   22.4692 O   0  0  0  0  0  0  0  0  0  0  0  0
  -25.6530  -28.3116   22.9556 O   0  0  0  0  0  0  0  0  0  0  0  0
  -27.5733  -31.5528   22.9130 O   0  0  0  0  0  0  0  0  0  0  0  0
  -23.6481  -34.1748   23.4014 O   0  0  0  0  0  0  0  0  0  0  0  0
  -25.3192  -10.2485   19.8726 O   0  0  0  0  0  0  0  0  0  0  0  0
  -19.7905  -29.5647   20.2050 O   0  0  0  0  0  0  0  0  0  1  0  0
  -21.3026   -8.2182   23.0584 F   0  0  0  0  0  0  0  0  0  0  0  0
  -22.6840  -10.9825   19.4729 F   0  0  0  0  0  0  0  0  0  0  0  0
  1  2  1  0  0  0  0
  1  6  2  0  0  0  0
  2  7  2  0  0  0  0
  3 10  2  0  0  0  0
  3 18  1  0  0  0  0
  4 11  1  0  0  0  0
  4 18  2  0  0  0  0
  5  9  2  0  0  0  0
  5 19  1  0  0  0  0
  6 21  1  0  0  0  0
  7 23  1  0  0  0  0
  8 12  2  0  0  0  0
  8 22  1  0  0  0  0
  9 25  1  0  0  0  0
 10 27  1  0  0  0  0
 11 27  2  0  0  0  0
 12 28  1  0  0  0  0
 13 14  2  0  0  0  0
 13 29  1  0  0  0  0
 14 30  1  0  0  0  0
 15 19  2  0  0  0  0
 15 26  1  0  0  0  0
 16 24  1  0  0  0  0
 16 28  2  0  0  0  0
 17 30  2  0  0  0  0
 17 31  1  0  0  0  0
 18 32  1  0  0  0  0
 19 34  1  0  0  0  0
 20 32  1  0  0  0  0
 20 33  2  0  0  0  0
 20 36  1  0  0  0  0
 21 23  2  0  0  0  0
 21 41  1  0  0  0  0
 22 24  2  0  0  0  0
 22 42  1  0  0  0  0
 23 50  1  0  0  0  0
 24 43  1  0  0  0  0
 25 26  2  0  0  0  0
 25 59  1  0  0  0  0
 26 53  1  0  0  0  0
 27 79  1  0  0  0  0
 28 80  1  0  0  0  0
 29 31  2  0  0  0  0
 29 79  1  0  0  0  0
 30 81  1  0  0  0  0
 31 82  1  0  0  0  0
 32 65  2  0  0  0  0
 33 66  1  0  0  0  0
 33 69  1  0  0  0  0
 34 35  2  0  0  0  0
 35 37  1  0  0  0  0
 36 70  1  0  0  0  0
 36 74  2  0  0  0  0
 37 67  1  0  0  0  0
 37 75  2  0  0  0  0
 38 51  1  0  0  0  0
 38 71  1  0  0  0  0
 38 76  2  0  0  0  0
 39 62  1  0  0  0  0
 39 68  1  0  0  0  0
 39 77  2  0  0  0  0
 40 63  1  0  0  0  0
 40 72  1  0  0  0  0
 40 78  2  0  0  0  0
 41 44  1  0  0  0  0
 42 51  1  0  0  0  0
 43 68  1  0  0  0  0
 44 46  1  0  0  0  0
 45 47  1  0  0  0  0
 45 48  1  0  0  0  0
 46 50  1  0  0  0  0
 47 52  1  0  0  0  0
 48 67  1  0  0  0  0
 49 52  1  0  0  0  0
 49 67  1  0  0  0  0
 50 71  1  0  0  0  0
 51 68  1  0  0  0  0
 52 66  1  0  0  0  0
 54 63  1  0  0  0  0
 55 64  1  0  0  0  0
 56 64  1  0  0  0  0
 57 64  1  0  0  0  0
 58 73  1  0  0  0  0
 59 60  1  0  0  0  0
 60 61  1  0  0  0  0
 61 80  1  0  0  0  0
 62 64  1  0  0  0  0
 62 72  1  0  0  0  0
 63 73  1  0  0  0  0
 65 66  1  0  0  0  0
M  CHG  1  73   1
M  ISO  4  35 100  37 100  61 101  80 101
M  END
> <Batch ID>
0120

> <Smiles>
CNC(C)C(=O)NC(C(=O)N1Cc2cc([101O:1][101CH2:1]CCc3ccc(C=[100CH:0][100C:0](=O)N4CCCC(n5nc(-c6ccc(Oc7ccc(F)cc7F)cc6)c(C(N)=O)c5N)C4)cc3C)ccc2CC1C(=O)NC1CCCc2ccccc21)C(C)(C)C

> <Shape>
0.280

> <Color>
0.082

> <Negative vol penalty>
0.000

$$$$

  -OEChem-04052301543D

 87 95  0     1  0  0  0  0  0999 V2000
  -20.4206   -9.0646   18.8340 C   0  0  0  0  0  0  0  0  0  0  0  0
  -20.3252  -10.4295   19.0857 C   0  0  0  0  0  0  0  0  0  0  0  0
  -29.4185  -27.9640   21.2801 C   0  0  0  0  0  0  0  0  0  0  0  0
  -27.6862  -27.2847   19.7391 C   0  0  0  0  0  0  0  0  0  0  0  0
  -21.4468   -8.3200   19.4139 C   0  0  0  0  0  0  0  0  0  0  0  0
  -21.2554  -11.0504   19.9185 C   0  0  0  0  0  0  0  0  0  0  0  0
  -23.4590  -16.7390   19.3799 C   0  0  0  0  0  0  0  0  0  0  0  0
  -30.2217  -26.9115   20.8412 C   0  0  0  0  0  0  0  0  0  0  0  0
  -28.4894  -26.2322   19.3001 C   0  0  0  0  0  0  0  0  0  0  0  0
  -23.1254  -17.9376   20.0091 C   0  0  0  0  0  0  0  0  0  0  0  0
  -29.3641  -23.1490   20.3769 C   0  0  0  0  0  0  0  0  0  0  0  0
  -28.7684  -21.8962   20.2314 C   0  0  0  0  0  0  0  0  0  0  0  0
  -21.3465  -26.1452   23.5964 C   0  0  0  0  0  0  0  0  0  0  0  0
  -24.9077  -17.5926   21.5977 C   0  0  0  0  0  0  0  0  0  0  0  0
  -18.7402  -25.8804   22.6373 C   0  0  0  0  0  0  0  0  0  0  0  0
  -29.3426  -21.8956   17.8847 C   0  0  0  0  0  0  0  0  0  0  0  0
  -28.1507  -28.1506   20.7291 C   0  0  0  0  0  0  0  0  0  0  0  0
  -20.6199  -27.2779   23.2297 C   0  0  0  0  0  0  0  0  0  0  0  0
  -27.2711  -30.5442   20.6616 C   0  0  0  0  0  0  0  0  0  0  0  0
  -22.3958   -8.9340   20.2465 C   0  0  0  0  0  0  0  0  0  0  0  0
  -24.5142  -15.9515   19.8623 C   0  0  0  0  0  0  0  0  0  0  0  0
  -22.2945  -10.3131   20.5112 C   0  0  0  0  0  0  0  0  0  0  0  0
  -25.2543  -16.3857   20.9713 C   0  0  0  0  0  0  0  0  0  0  0  0
  -19.3167  -27.1456   22.7502 C   0  0  0  0  0  0  0  0  0  0  0  0
  -19.4669  -24.7476   23.0039 C   0  0  0  0  0  0  0  0  0  0  0  0
  -29.7572  -26.0456   19.8512 C   0  0  0  0  0  0  0  0  0  0  0  0
  -23.8480  -18.3632   21.1200 C   0  0  0  0  0  0  0  0  0  0  0  0
  -29.9490  -23.7752   19.2762 C   0  0  0  0  0  0  0  0  0  0  0  0
  -20.7701  -24.8800   23.4834 C   0  0  0  0  0  0  0  0  0  0  0  0
  -28.7576  -21.2695   18.9854 C   0  0  0  0  0  0  0  0  0  0  0  0
  -29.9383  -23.1484   18.0301 C   0  0  0  0  0  0  0  0  0  0  0  0
  -27.3203  -29.2373   21.1826 C   0  0  0  0  0  0  0  0  0  0  0  0
  -26.3326  -31.1859   21.4323 C   0  0  0  0  0  0  0  0  0  0  0  0
  -21.2465  -28.5868   23.3566 C   0  0  0  0  0  0  0  0  0  0  0  0
  -28.0076  -31.1260   19.5778 C   0  0  0  0  0  0  0  0  0  0  0  0
  -21.7197  -29.0895   24.6668 C   0  0  0  0  0  0  0  0  0  0  0  0
  -24.7597  -13.0127   21.0483 C   0  0  0  0  0  0  0  0  0  0  0  0
  -27.9369  -13.6596   20.9533 C   0  0  0  0  0  0  0  0  0  0  0  0
  -30.4167  -16.0041   20.9292 C   0  0  0  0  0  0  0  0  0  0  0  0
  -23.4595   -8.0789   20.8886 C   0  0  0  0  0  0  0  0  0  0  0  0
  -24.8785  -14.6744   19.1561 C   0  0  0  0  0  0  0  0  0  0  0  0
  -26.4091  -15.5869   21.5161 C   0  0  0  0  0  0  0  0  0  0  0  0
  -24.6249   -8.8829   21.4592 C   0  0  0  0  0  0  0  0  0  0  0  0
  -24.4130  -31.1647   25.8053 C   0  0  0  0  0  0  0  0  0  0  0  0
  -24.1098  -10.0683   22.2693 C   0  0  0  0  0  0  0  0  0  0  0  0
  -25.4744  -30.9931   24.7191 C   0  0  0  0  0  0  0  0  0  0  0  0
  -23.6208  -29.8791   26.0199 C   0  0  0  0  0  0  0  0  0  0  0  0
  -24.0489  -29.1715   23.6822 C   0  0  0  0  0  0  0  0  0  0  0  0
  -23.2991  -11.0274   21.3892 C   0  0  1  0  0  0  0  0  0  0  0  0
  -25.6430  -13.6976   20.0443 C   0  0  1  0  0  0  0  0  0  0  0  0
  -24.8512  -30.4575   23.4178 C   0  0  2  0  0  0  0  0  0  0  0  0
  -18.8348  -23.4010   22.8751 C   0  0  0  0  0  0  0  0  0  0  0  0
  -17.6038  -29.7041   20.4211 C   0  0  0  0  0  0  0  0  0  0  0  0
  -32.9158  -16.2278   20.8860 C   0  0  0  0  0  0  0  0  0  0  0  0
  -28.0541  -12.8922   23.9041 C   0  0  0  0  0  0  0  0  0  0  0  0
  -30.2858  -14.0193   24.0368 C   0  0  0  0  0  0  0  0  0  0  0  0
  -29.9699  -12.0553   22.5316 C   0  0  0  0  0  0  0  0  0  0  0  0
  -30.3573  -17.4684   18.3580 C   0  0  0  0  0  0  0  0  0  0  0  0
  -18.5163  -28.3423   22.3511 C   0  0  0  0  0  0  0  0  0  0  0  0
  -18.4466  -28.5051   20.8261 C   0  0  0  0  0  0  0  0  0  0  0  0
  -24.2806  -21.7369   22.3675 C   0  0  0  0  0  0  0  0  0  0  0  0
  -22.9933  -22.0546   23.1202 C   0  0  0  0  0  0  0  0  0  0  0  0
  -24.5826  -20.2442   22.3761 C   0  0  0  0  0  0  0  0  0  1  0  0
  -22.7133  -23.5504   23.1488 C   0  0  0  0  0  0  0  0  0  0  0  0
  -28.9317  -14.2745   21.9079 C   0  0  1  0  0  0  0  0  0  0  0  0
  -31.6458  -16.1614   20.0522 C   0  0  2  0  0  0  0  0  0  0  0  0
  -29.2874  -13.3246   23.0863 C   0  0  0  0  0  0  0  0  0  0  0  0
  -26.4802  -29.0579   22.2053 N   0  0  0  0  0  0  0  0  0  0  0  0
  -21.4328  -29.3906   22.3462 N   0  0  0  0  0  0  0  0  0  0  0  0
  -25.8942  -30.2606   22.3332 N   0  0  0  0  0  0  0  0  0  0  0  0
  -23.0738  -29.3788   24.7603 N   0  0  0  0  0  0  0  0  0  0  0  0
  -26.7225  -14.3423   20.7949 N   0  0  0  0  0  0  0  0  0  0  0  0
  -25.8481  -32.4459   21.4206 N   0  0  0  0  0  0  0  0  0  0  0  0
  -28.9320  -30.3258   18.8925 N   0  0  0  0  0  0  0  0  0  0  0  0
  -24.1825  -11.8453   20.5861 N   0  0  0  0  0  0  0  0  0  0  0  0
  -30.0770  -14.6786   21.0995 N   0  0  0  0  0  0  0  0  0  0  0  0
  -31.5487  -17.4093   19.2434 N   0  3  0  0  0  0  0  0  0  0  0  0
  -27.8626  -32.3248   19.2380 O   0  0  0  0  0  0  0  0  0  0  0  0
  -20.8607  -29.1961   25.5323 O   0  0  0  0  0  0  0  0  0  0  0  0
  -24.6137  -13.5059   22.1606 O   0  0  0  0  0  0  0  0  0  0  0  0
  -28.2294  -12.6159   20.3644 O   0  0  0  0  0  0  0  0  0  0  0  0
  -29.8201  -16.9612   21.4177 O   0  0  0  0  0  0  0  0  0  0  0  0
  -30.5408  -25.0186   19.4224 O   0  0  0  0  0  0  0  0  0  0  0  0
  -23.5241  -19.5323   21.7364 O   0  0  0  0  0  0  0  0  0  1  0  0
  -21.4978  -23.7773   23.8488 O   0  0  0  0  0  0  0  0  0  0  0  0
  -28.1869  -20.0657   18.8462 F   0  0  0  0  0  0  0  0  0  0  0  0
  -30.4997  -23.7445   16.9693 F   0  0  0  0  0  0  0  0  0  0  0  0
  1  2  1  0  0  0  0
  1  5  2  0  0  0  0
  2  6  2  0  0  0  0
  3  8  2  0  0  0  0
  3 17  1  0  0  0  0
  4  9  1  0  0  0  0
  4 17  2  0  0  0  0
  5 20  1  0  0  0  0
  6 22  1  0  0  0  0
  7 10  2  0  0  0  0
  7 21  1  0  0  0  0
  8 26  1  0  0  0  0
  9 26  2  0  0  0  0
 10 27  1  0  0  0  0
 11 12  2  0  0  0  0
 11 28  1  0  0  0  0
 12 30  1  0  0  0  0
 13 18  1  0  0  0  0
 13 29  2  0  0  0  0
 14 23  1  0  0  0  0
 14 27  2  0  0  0  0
 15 24  1  0  0  0  0
 15 25  2  0  0  0  0
 16 30  2  0  0  0  0
 16 31  1  0  0  0  0
 17 32  1  0  0  0  0
 18 24  2  0  0  0  0
 18 34  1  0  0  0  0
 19 32  1  0  0  0  0
 19 33  2  0  0  0  0
 19 35  1  0  0  0  0
 20 22  2  0  0  0  0
 20 40  1  0  0  0  0
 21 23  2  0  0  0  0
 21 41  1  0  0  0  0
 22 49  1  0  0  0  0
 23 42  1  0  0  0  0
 24 59  1  0  0  0  0
 25 29  1  0  0  0  0
 25 52  1  0  0  0  0
 26 83  1  0  0  0  0
 27 84  1  0  0  0  0
 28 31  2  0  0  0  0
 28 83  1  0  0  0  0
 29 85  1  0  0  0  0
 30 86  1  0  0  0  0
 31 87  1  0  0  0  0
 32 68  2  0  0  0  0
 33 70  1  0  0  0  0
 33 73  1  0  0  0  0
 34 36  1  0  0  0  0
 34 69  2  0  0  0  0
 35 74  1  0  0  0  0
 35 78  2  0  0  0  0
 36 71  1  0  0  0  0
 36 79  2  0  0  0  0
 37 50  1  0  0  0  0
 37 75  1  0  0  0  0
 37 80  2  0  0  0  0
 38 65  1  0  0  0  0
 38 72  1  0  0  0  0
 38 81  2  0  0  0  0
 39 66  1  0  0  0  0
 39 76  1  0  0  0  0
 39 82  2  0  0  0  0
 40 43  1  0  0  0  0
 41 50  1  0  0  0  0
 42 72  1  0  0  0  0
 43 45  1  0  0  0  0
 44 46  1  0  0  0  0
 44 47  1  0  0  0  0
 45 49  1  0  0  0  0
 46 51  1  0  0  0  0
 47 71  1  0  0  0  0
 48 51  1  0  0  0  0
 48 71  1  0  0  0  0
 49 75  1  0  0  0  0
 50 72  1  0  0  0  0
 51 70  1  0  0  0  0
 53 60  1  0  0  0  0
 54 66  1  0  0  0  0
 55 67  1  0  0  0  0
 56 67  1  0  0  0  0
 57 67  1  0  0  0  0
 58 77  1  0  0  0  0
 59 60  1  0  0  0  0
 61 62  1  0  0  0  0
 61 63  1  0  0  0  0
 62 64  1  0  0  0  0
 63 84  1  0  0  0  0
 64 85  1  0  0  0  0
 65 67  1  0  0  0  0
 65 76  1  0  0  0  0
 66 77  1  0  0  0  0
 68 70  1  0  0  0  0
M  CHG  1  77   1
M  ISO  4  34 100  36 100  63 101  84 101
M  END
> <Batch ID>
0120

> <Smiles>
CCCc1cc(C)c(OCCC[101CH2:1][101O:1]c2ccc3c(c2)CN(C(=O)C(NC(=O)C(C)NC)C(C)(C)C)C(C(=O)NC2CCCc4ccccc42)C3)cc1[100C:0](=N)[100C:0](=O)N1CCCC(n2nc(-c3ccc(Oc4ccc(F)cc4F)cc3)c(C(N)=O)c2N)C1

> <Shape>
0.320

> <Color>
0.053

> <Negative vol penalty>
0.000

$$$$

  -OEChem-04052301543D

 86 94  0     1  0  0  0  0  0999 V2000
  -22.2190  -31.5755   14.4066 C   0  0  0  0  0  0  0  0  0  0  0  0
  -23.3356  -30.9696   14.9737 C   0  0  0  0  0  0  0  0  0  0  0  0
  -24.4486   -8.6469   20.6072 C   0  0  0  0  0  0  0  0  0  0  0  0
  -22.8859  -10.4824   20.7685 C   0  0  0  0  0  0  0  0  0  0  0  0
  -21.6064  -32.6488   15.0521 C   0  0  0  0  0  0  0  0  0  0  0  0
  -23.8408  -31.4375   16.1863 C   0  0  0  0  0  0  0  0  0  0  0  0
  -24.9722  -27.6874   19.3959 C   0  0  0  0  0  0  0  0  0  0  0  0
  -23.4454   -7.7587   20.9947 C   0  0  0  0  0  0  0  0  0  0  0  0
  -21.8826   -9.5942   21.1559 C   0  0  0  0  0  0  0  0  0  0  0  0
  -26.1630  -26.9971   19.1743 C   0  0  0  0  0  0  0  0  0  0  0  0
  -21.9336   -6.8073   23.8641 C   0  0  0  0  0  0  0  0  0  0  0  0
  -22.2543   -5.8470   24.8236 C   0  0  0  0  0  0  0  0  0  0  0  0
  -27.2322  -28.2996   20.9005 C   0  0  0  0  0  0  0  0  0  0  0  0
  -30.5311  -20.7126   19.4126 C   0  0  0  0  0  0  0  0  0  0  0  0
  -21.7089   -4.0947   23.2522 C   0  0  0  0  0  0  0  0  0  0  0  0
  -24.1689  -10.0088   20.4942 C   0  0  0  0  0  0  0  0  0  0  0  0
  -25.5322  -11.3210   18.7832 C   0  0  0  0  0  0  0  0  0  0  0  0
  -22.0986  -33.1238   16.2779 C   0  0  0  0  0  0  0  0  0  0  0  0
  -24.9052  -28.6981   20.3656 C   0  0  0  0  0  0  0  0  0  0  0  0
  -23.2351  -32.5190   16.8481 C   0  0  0  0  0  0  0  0  0  0  0  0
  -26.0386  -28.9994   21.1343 C   0  0  0  0  0  0  0  0  0  0  0  0
  -22.1624   -8.2323   21.2690 C   0  0  0  0  0  0  0  0  0  0  0  0
  -27.2941  -27.3051   19.9246 C   0  0  0  0  0  0  0  0  0  0  0  0
  -21.5004   -6.4113   22.5986 C   0  0  0  0  0  0  0  0  0  0  0  0
  -31.0760  -19.4109   19.6102 C   0  0  0  0  0  0  0  0  0  0  0  0
  -22.1420   -4.4907   24.5176 C   0  0  0  0  0  0  0  0  0  0  0  0
  -21.3881   -5.0550   22.2927 C   0  0  0  0  0  0  0  0  0  0  0  0
  -25.2050  -10.9269   20.0945 C   0  0  0  0  0  0  0  0  0  0  0  0
  -31.5041  -21.6411   19.1147 C   0  0  0  0  0  0  0  0  0  0  0  0
  -32.4449  -19.3942   19.4556 C   0  0  0  0  0  0  0  0  0  0  0  0
  -26.5774  -12.1983   18.9391 C   0  0  0  0  0  0  0  0  0  0  0  0
  -33.3411  -18.3082   19.5691 C   0  0  0  0  0  0  0  0  0  0  0  0
  -29.9814  -23.6643   18.8844 C   0  0  0  0  0  0  0  0  0  0  0  0
  -33.2173  -17.2061   20.3860 C   0  0  0  0  0  0  0  0  0  0  0  0
  -29.7931  -24.9723   18.6610 C   0  0  0  0  0  0  0  0  0  0  0  0
  -24.9439  -10.9291   17.5358 C   0  0  0  0  0  0  0  0  0  0  0  0
  -31.3538  -23.0908   18.8415 C   0  0  0  0  0  0  0  0  0  0  0  0
  -24.3048  -31.8191   20.3149 C   0  0  0  0  0  0  0  0  0  0  0  0
  -28.8632  -16.5487   21.6111 C   0  0  0  0  0  0  0  0  0  0  0  0
  -24.4316  -31.5005   23.5405 C   0  0  0  0  0  0  0  0  0  0  0  0
  -25.5656  -29.7407   26.2357 C   0  0  0  0  0  0  0  0  0  0  0  0
  -21.4314  -34.3171   16.9148 C   0  0  0  0  0  0  0  0  0  0  0  0
  -23.6059  -29.4150   20.6110 C   0  0  0  0  0  0  0  0  0  0  0  0
  -26.0136  -30.0619   22.2014 C   0  0  0  0  0  0  0  0  0  0  0  0
  -21.8033  -34.5117   18.3824 C   0  0  0  0  0  0  0  0  0  0  0  0
  -29.4021  -13.2826   22.9831 C   0  0  0  0  0  0  0  0  0  0  0  0
  -23.3111  -34.3804   18.5730 C   0  0  0  0  0  0  0  0  0  0  0  0
  -28.3649  -12.4174   22.2683 C   0  0  0  0  0  0  0  0  0  0  0  0
  -28.8727  -14.6897   23.2416 C   0  0  0  0  0  0  0  0  0  0  0  0
  -27.3501  -14.5278   21.2982 C   0  0  0  0  0  0  0  0  0  0  0  0
  -23.7978  -32.9819   18.1744 C   0  0  1  0  0  0  0  0  0  0  0  0
  -23.7909  -30.7787   21.2694 C   0  0  1  0  0  0  0  0  0  0  0  0
  -27.8557  -13.1072   20.9904 C   0  0  2  0  0  0  0  0  0  0  0  0
  -34.1979  -16.0826   20.4800 C   0  0  0  0  0  0  0  0  0  0  0  0
  -25.5379  -29.7457   28.7450 C   0  0  0  0  0  0  0  0  0  0  0  0
  -26.4926  -33.7504   23.5564 C   0  0  0  0  0  0  0  0  0  0  0  0
  -27.1124  -33.0721   25.8854 C   0  0  0  0  0  0  0  0  0  0  0  0
  -24.8011  -33.8721   25.3945 C   0  0  0  0  0  0  0  0  0  0  0  0
  -24.1973  -27.1186   26.3414 C   0  0  0  0  0  0  0  0  0  0  0  0
  -28.4490  -25.6251   18.7000 C   0  0  0  0  0  0  0  0  0  1  0  0
  -28.3092  -17.1132   20.3272 C   0  0  0  0  0  0  0  0  0  0  0  0
  -28.9364  -18.4660   20.0405 C   0  0  0  0  0  0  0  0  0  0  0  0
  -25.5213  -31.5890   24.5816 C   0  0  1  0  0  0  0  0  0  0  0  0
  -24.8581  -29.2401   27.4820 C   0  0  2  0  0  0  0  0  0  0  0  0
  -25.9832  -33.0522   24.8331 C   0  0  0  0  0  0  0  0  0  0  0  0
  -25.9797  -11.5063   21.0155 N   0  0  0  0  0  0  0  0  0  0  0  0
  -26.8042  -12.2732   20.2819 N   0  0  0  0  0  0  0  0  0  0  0  0
  -24.7214  -30.7392   22.3994 N   0  0  0  0  0  0  0  0  0  0  0  0
  -28.3780  -15.3023   22.0074 N   0  0  0  0  0  0  0  0  0  0  0  0
  -27.3156  -12.9052   18.0571 N   0  0  0  0  0  0  0  0  0  0  0  0
  -23.8782  -10.0190   17.5564 N   0  0  0  0  0  0  0  0  0  0  0  0
  -23.4926  -32.0247   19.2160 N   0  0  0  0  0  0  0  0  0  0  0  0
  -25.0085  -30.9120   25.7678 N   0  0  0  0  0  0  0  0  0  0  0  0
  -24.8563  -27.7502   27.5135 N   0  3  0  0  0  0  0  0  0  0  0  0
  -25.3619  -11.3602   16.4345 O   0  0  0  0  0  0  0  0  0  0  0  0
  -32.3469  -23.7736   18.6162 O   0  0  0  0  0  0  0  0  0  0  0  0
  -25.3594  -32.3940   20.5582 O   0  0  0  0  0  0  0  0  0  0  0  0
  -29.7042  -17.1962   22.2400 O   0  0  0  0  0  0  0  0  0  0  0  0
  -23.3601  -32.0795   23.7360 O   0  0  0  0  0  0  0  0  0  0  0  0
  -26.5196  -29.1535   25.7301 O   0  0  0  0  0  0  0  0  0  0  0  0
  -21.1831   -7.3658   21.6469 O   0  0  0  0  0  0  0  0  0  0  0  0
  -28.4579  -26.6334   19.7098 O   0  0  0  0  0  0  0  0  0  1  0  0
  -30.3564  -18.3144   19.9101 O   0  0  0  0  0  0  0  0  0  0  0  0
  -22.4515   -3.5687   25.4386 F   0  0  0  0  0  0  0  0  0  0  0  0
  -20.9737   -4.6685   21.0783 F   0  0  0  0  0  0  0  0  0  0  0  0
  -33.0673  -20.9431   19.0741 S   0  0  0  0  0  0  0  0  0  0  0  0
  1  2  1  0  0  0  0
  1  5  2  0  0  0  0
  2  6  2  0  0  0  0
  3  8  2  0  0  0  0
  3 16  1  0  0  0  0
  4  9  1  0  0  0  0
  4 16  2  0  0  0  0
  5 18  1  0  0  0  0
  6 20  1  0  0  0  0
  7 10  2  0  0  0  0
  7 19  1  0  0  0  0
  8 22  1  0  0  0  0
  9 22  2  0  0  0  0
 10 23  1  0  0  0  0
 11 12  2  0  0  0  0
 11 24  1  0  0  0  0
 12 26  1  0  0  0  0
 13 21  1  0  0  0  0
 13 23  2  0  0  0  0
 14 25  1  0  0  0  0
 14 29  2  0  0  0  0
 15 26  2  0  0  0  0
 15 27  1  0  0  0  0
 16 28  1  0  0  0  0
 17 28  1  0  0  0  0
 17 31  2  0  0  0  0
 17 36  1  0  0  0  0
 18 20  2  0  0  0  0
 18 42  1  0  0  0  0
 19 21  2  0  0  0  0
 19 43  1  0  0  0  0
 20 51  1  0  0  0  0
 21 44  1  0  0  0  0
 22 81  1  0  0  0  0
 23 82  1  0  0  0  0
 24 27  2  0  0  0  0
 24 81  1  0  0  0  0
 25 30  2  0  0  0  0
 25 83  1  0  0  0  0
 26 84  1  0  0  0  0
 27 85  1  0  0  0  0
 28 66  2  0  0  0  0
 29 37  1  0  0  0  0
 29 86  1  0  0  0  0
 30 32  1  0  0  0  0
 30 86  1  0  0  0  0
 31 67  1  0  0  0  0
 31 70  1  0  0  0  0
 32 34  2  0  0  0  0
 33 35  2  0  0  0  0
 33 37  1  0  0  0  0
 34 54  1  0  0  0  0
 35 60  1  0  0  0  0
 36 71  1  0  0  0  0
 36 75  2  0  0  0  0
 37 76  2  0  0  0  0
 38 52  1  0  0  0  0
 38 72  1  0  0  0  0
 38 77  2  0  0  0  0
 39 61  1  0  0  0  0
 39 69  1  0  0  0  0
 39 78  2  0  0  0  0
 40 63  1  0  0  0  0
 40 68  1  0  0  0  0
 40 79  2  0  0  0  0
 41 64  1  0  0  0  0
 41 73  1  0  0  0  0
 41 80  2  0  0  0  0
 42 45  1  0  0  0  0
 43 52  1  0  0  0  0
 44 68  1  0  0  0  0
 45 47  1  0  0  0  0
 46 48  1  0  0  0  0
 46 49  1  0  0  0  0
 47 51  1  0  0  0  0
 48 53  1  0  0  0  0
 49 69  1  0  0  0  0
 50 53  1  0  0  0  0
 50 69  1  0  0  0  0
 51 72  1  0  0  0  0
 52 68  1  0  0  0  0
 53 67  1  0  0  0  0
 55 64  1  0  0  0  0
 56 65  1  0  0  0  0
 57 65  1  0  0  0  0
 58 65  1  0  0  0  0
 59 74  1  0  0  0  0
 60 82  1  0  0  0  0
 61 62  1  0  0  0  0
 62 83  1  0  0  0  0
 63 65  1  0  0  0  0
 63 73  1  0  0  0  0
 64 74  1  0  0  0  0
 66 67  1  0  0  0  0
M  CHG  1  74   1
M  ISO  4  39 100  60 101  61 100  82 101
M  END
> <Batch ID>
0120

> <Smiles>
CC=Cc1sc(C(=O)C=C[101CH2:1][101O:1]c2ccc3c(c2)CN(C(=O)C(NC(=O)C(C)NC)C(C)(C)C)C(C(=O)NC2CCCc4ccccc42)C3)cc1OC[100CH2:0][100C:0](=O)N1CCCC(n2nc(-c3ccc(Oc4ccc(F)cc4F)cc3)c(C(N)=O)c2N)C1

> <Shape>
0.298

> <Color>
0.157

> <Negative vol penalty>
0.000

$$$$

  -OEChem-04052301543D

 85 93  0     1  0  0  0  0  0999 V2000
  -19.3004  -28.2829   26.6874 C   0  0  0  0  0  0  0  0  0  0  0  0
  -20.6163  -27.9717   26.3602 C   0  0  0  0  0  0  0  0  0  0  0  0
  -24.6620   -8.7110   21.9921 C   0  0  0  0  0  0  0  0  0  0  0  0
  -24.3673   -8.2256   19.6438 C   0  0  0  0  0  0  0  0  0  0  0  0
  -29.6906  -20.1147   22.1430 C   0  0  0  0  0  0  0  0  0  0  0  0
  -30.0883  -21.4313   21.9106 C   0  0  0  0  0  0  0  0  0  0  0  0
  -18.3817  -28.5700   25.6787 C   0  0  0  0  0  0  0  0  0  0  0  0
  -21.0140  -27.9464   25.0239 C   0  0  0  0  0  0  0  0  0  0  0  0
  -26.4761  -29.5659   22.7770 C   0  0  0  0  0  0  0  0  0  0  0  0
  -23.4722   -8.0423   22.2797 C   0  0  0  0  0  0  0  0  0  0  0  0
  -23.1775   -7.5568   19.9314 C   0  0  0  0  0  0  0  0  0  0  0  0
  -27.5962  -28.8225   22.4076 C   0  0  0  0  0  0  0  0  0  0  0  0
  -20.6975   -6.1518   23.6734 C   0  0  0  0  0  0  0  0  0  0  0  0
  -20.6935   -5.2716   24.7554 C   0  0  0  0  0  0  0  0  0  0  0  0
  -29.1898  -19.8512   19.7942 C   0  0  0  0  0  0  0  0  0  0  0  0
  -26.8486  -28.8471   20.1142 C   0  0  0  0  0  0  0  0  0  0  0  0
  -22.4258   -3.9621   23.6964 C   0  0  0  0  0  0  0  0  0  0  0  0
  -25.1096   -8.8027   20.6742 C   0  0  0  0  0  0  0  0  0  0  0  0
  -29.2414  -19.3246   21.0848 C   0  0  0  0  0  0  0  0  0  0  0  0
  -30.0367  -21.9579   20.6200 C   0  0  0  0  0  0  0  0  0  0  0  0
  -27.6330   -8.9432   20.3275 C   0  0  0  0  0  0  0  0  0  0  0  0
  -18.7707  -28.5576   24.3299 C   0  0  0  0  0  0  0  0  0  0  0  0
  -25.5266  -29.9468   21.8179 C   0  0  0  0  0  0  0  0  0  0  0  0
  -20.0993  -28.2323   23.9961 C   0  0  0  0  0  0  0  0  0  0  0  0
  -25.7186  -29.5974   20.4736 C   0  0  0  0  0  0  0  0  0  0  0  0
  -29.5874  -21.1679   19.5618 C   0  0  0  0  0  0  0  0  0  0  0  0
  -22.7299   -7.4652   21.2494 C   0  0  0  0  0  0  0  0  0  0  0  0
  -27.7811  -28.4605   21.0765 C   0  0  0  0  0  0  0  0  0  0  0  0
  -21.5656   -5.9372   22.6028 C   0  0  0  0  0  0  0  0  0  0  0  0
  -21.5577   -4.1767   24.7670 C   0  0  0  0  0  0  0  0  0  0  0  0
  -22.4298   -4.8423   22.6144 C   0  0  0  0  0  0  0  0  0  0  0  0
  -26.3383   -9.4938   20.3764 C   0  0  0  0  0  0  0  0  0  0  0  0
  -28.4450  -10.0032   20.0056 C   0  0  0  0  0  0  0  0  0  0  0  0
  -28.8273  -17.9517   21.3284 C   0  0  0  0  0  0  0  0  0  0  0  0
  -28.0377  -17.2162   20.5171 C   0  0  0  0  0  0  0  0  0  0  0  0
  -29.7318  -24.4301   21.1300 C   0  0  0  0  0  0  0  0  0  0  0  0
  -30.0910  -25.7126   20.9802 C   0  0  0  0  0  0  0  0  0  0  0  0
  -30.4660  -23.3604   20.4016 C   0  0  0  0  0  0  0  0  0  0  0  0
  -28.0632   -7.5942   20.5528 C   0  0  0  0  0  0  0  0  0  0  0  0
  -27.7133  -15.8272   20.8994 C   0  0  0  0  0  0  0  0  0  0  0  0
  -22.4358  -29.3593   21.3648 C   0  0  0  0  0  0  0  0  0  0  0  0
  -22.7748  -31.5224   18.9714 C   0  0  0  0  0  0  0  0  0  0  0  0
  -24.8427  -33.0921   16.7563 C   0  0  0  0  0  0  0  0  0  0  0  0
  -17.7306  -28.8284   23.2719 C   0  0  0  0  0  0  0  0  0  0  0  0
  -24.3375  -30.7713   22.2283 C   0  0  0  0  0  0  0  0  0  0  0  0
  -24.7391  -29.9989   19.4022 C   0  0  0  0  0  0  0  0  0  0  0  0
  -18.3238  -29.1468   21.9019 C   0  0  0  0  0  0  0  0  0  0  0  0
  -28.4290  -14.1814   17.7039 C   0  0  0  0  0  0  0  0  0  0  0  0
  -19.4223  -28.1484   21.5507 C   0  0  0  0  0  0  0  0  0  0  0  0
  -28.0410  -12.7400   18.0226 C   0  0  0  0  0  0  0  0  0  0  0  0
  -27.5406  -15.1874   18.4342 C   0  0  0  0  0  0  0  0  0  0  0  0
  -27.1032  -13.5357   20.2289 C   0  0  0  0  0  0  0  0  0  0  0  0
  -20.5749  -28.2188   22.5596 C   0  0  1  0  0  0  0  0  0  0  0  0
  -23.1707  -30.6649   21.2512 C   0  0  1  0  0  0  0  0  0  0  0  0
  -28.0142  -12.5067   19.5415 C   0  0  1  0  0  0  0  0  0  0  0  0
  -30.6746  -21.2082   17.3028 C   0  0  0  0  0  0  0  0  0  0  0  0
  -24.8240  -34.7827   14.9019 C   0  0  0  0  0  0  0  0  0  0  0  0
  -21.5748  -29.4416   17.0898 C   0  0  0  0  0  0  0  0  0  0  0  0
  -22.4458  -30.7830   15.1636 C   0  0  0  0  0  0  0  0  0  0  0  0
  -20.7645  -31.7777   16.7149 C   0  0  0  0  0  0  0  0  0  0  0  0
  -26.6672  -34.8985   18.2284 C   0  0  0  0  0  0  0  0  0  0  0  0
  -29.5232  -21.7076   18.1700 C   0  0  0  0  0  0  0  0  0  0  0  0
  -29.4128  -26.8416   21.6870 C   0  0  0  0  0  0  0  0  0  1  0  0
  -23.1423  -31.4499   17.5090 C   0  0  1  0  0  0  0  0  0  0  0  0
  -25.0056  -34.5574   16.3949 C   0  0  2  0  0  0  0  0  0  0  0  0
  -21.9995  -30.8537   16.6396 C   0  0  0  0  0  0  0  0  0  0  0  0
  -26.3238  -10.8020   20.1073 N   0  0  0  0  0  0  0  0  0  0  0  0
  -27.6194  -11.0823   19.8862 N   0  0  0  0  0  0  0  0  0  0  0  0
  -27.4845  -14.9081   19.8770 N   0  0  0  0  0  0  0  0  0  0  0  0
  -23.5891  -30.7992   19.8544 N   0  0  0  0  0  0  0  0  0  0  0  0
  -29.7774  -10.1082   19.8159 N   0  0  0  0  0  0  0  0  0  0  0  0
  -27.0982   -6.6300   20.8741 N   0  0  0  0  0  0  0  0  0  0  0  0
  -21.4112  -29.3692   22.2920 N   0  0  0  0  0  0  0  0  0  0  0  0
  -23.5464  -32.7974   17.1224 N   0  0  0  0  0  0  0  0  0  0  0  0
  -26.3622  -35.0385   16.7812 N   0  3  0  0  0  0  0  0  0  0  0  0
  -31.4131  -23.5983   19.6602 O   0  0  0  0  0  0  0  0  0  0  0  0
  -29.2698   -7.2573   20.4879 O   0  0  0  0  0  0  0  0  0  0  0  0
  -27.6597  -15.5663   22.1026 O   0  0  0  0  0  0  0  0  0  0  0  0
  -22.7723  -28.4134   20.6622 O   0  0  0  0  0  0  0  0  0  0  0  0
  -21.8053  -32.2016   19.3184 O   0  0  0  0  0  0  0  0  0  0  0  0
  -25.7716  -32.2883   16.7142 O   0  0  0  0  0  0  0  0  0  0  0  0
  -21.5690   -6.8124   21.5297 O   0  0  0  0  0  0  0  0  0  0  0  0
  -28.8732  -27.7344   20.7133 O   0  0  0  0  0  0  0  0  0  1  0  0
  -21.5548   -3.3324   25.8068 F   0  0  0  0  0  0  0  0  0  0  0  0
  -23.2669   -4.6315   21.5894 F   0  0  0  0  0  0  0  0  0  0  0  0
  1  2  1  0  0  0  0
  1  7  2  0  0  0  0
  2  8  2  0  0  0  0
  3 10  2  0  0  0  0
  3 18  1  0  0  0  0
  4 11  1  0  0  0  0
  4 18  2  0  0  0  0
  5  6  2  0  0  0  0
  5 19  1  0  0  0  0
  6 20  1  0  0  0  0
  7 22  1  0  0  0  0
  8 24  1  0  0  0  0
  9 12  2  0  0  0  0
  9 23  1  0  0  0  0
 10 27  1  0  0  0  0
 11 27  2  0  0  0  0
 12 28  1  0  0  0  0
 13 14  2  0  0  0  0
 13 29  1  0  0  0  0
 14 30  1  0  0  0  0
 15 19  2  0  0  0  0
 15 26  1  0  0  0  0
 16 25  1  0  0  0  0
 16 28  2  0  0  0  0
 17 30  2  0  0  0  0
 17 31  1  0  0  0  0
 18 32  1  0  0  0  0
 19 34  1  0  0  0  0
 20 26  2  0  0  0  0
 20 38  1  0  0  0  0
 21 32  1  0  0  0  0
 21 33  2  0  0  0  0
 21 39  1  0  0  0  0
 22 24  2  0  0  0  0
 22 44  1  0  0  0  0
 23 25  2  0  0  0  0
 23 45  1  0  0  0  0
 24 53  1  0  0  0  0
 25 46  1  0  0  0  0
 26 62  1  0  0  0  0
 27 82  1  0  0  0  0
 28 83  1  0  0  0  0
 29 31  2  0  0  0  0
 29 82  1  0  0  0  0
 30 84  1  0  0  0  0
 31 85  1  0  0  0  0
 32 67  2  0  0  0  0
 33 68  1  0  0  0  0
 33 71  1  0  0  0  0
 34 35  2  0  0  0  0
 35 40  1  0  0  0  0
 36 37  2  0  0  0  0
 36 38  1  0  0  0  0
 37 63  1  0  0  0  0
 38 76  2  0  0  0  0
 39 72  1  0  0  0  0
 39 77  2  0  0  0  0
 40 69  1  0  0  0  0
 40 78  2  0  0  0  0
 41 54  1  0  0  0  0
 41 73  1  0  0  0  0
 41 79  2  0  0  0  0
 42 64  1  0  0  0  0
 42 70  1  0  0  0  0
 42 80  2  0  0  0  0
 43 65  1  0  0  0  0
 43 74  1  0  0  0  0
 43 81  2  0  0  0  0
 44 47  1  0  0  0  0
 45 54  1  0  0  0  0
 46 70  1  0  0  0  0
 47 49  1  0  0  0  0
 48 50  1  0  0  0  0
 48 51  1  0  0  0  0
 49 53  1  0  0  0  0
 50 55  1  0  0  0  0
 51 69  1  0  0  0  0
 52 55  1  0  0  0  0
 52 69  1  0  0  0  0
 53 73  1  0  0  0  0
 54 70  1  0  0  0  0
 55 68  1  0  0  0  0
 56 62  1  0  0  0  0
 57 65  1  0  0  0  0
 58 66  1  0  0  0  0
 59 66  1  0  0  0  0
 60 66  1  0  0  0  0
 61 75  1  0  0  0  0
 63 83  1  0  0  0  0
 64 66  1  0  0  0  0
 64 74  1  0  0  0  0
 65 75  1  0  0  0  0
 67 68  1  0  0  0  0
M  CHG  1  75   1
M  ISO  4  35 100  40 100  63 101  83 101
M  END
> <Batch ID>
0120

> <Smiles>
CCc1cc(C=[100CH:0][100C:0](=O)N2CCCC(n3nc(-c4ccc(Oc5ccc(F)cc5F)cc4)c(C(N)=O)c3N)C2)ccc1C(=O)C=C[101CH2:1][101O:1]c1ccc2c(c1)CN(C(=O)C(NC(=O)C(C)NC)C(C)(C)C)C(C(=O)NC1CCCc3ccccc31)C2

> <Shape>
0.272

> <Color>
0.102

> <Negative vol penalty>
0.000

$$$$

  -OEChem-04052301543D

 86 94  0     1  0  0  0  0  0999 V2000
  -20.2659  -26.9840   15.0477 C   0  0  0  0  0  0  0  0  0  0  0  0
  -20.8690  -27.6496   16.1089 C   0  0  0  0  0  0  0  0  0  0  0  0
  -26.7474  -12.9826   20.9711 C   0  0  0  0  0  0  0  0  0  0  0  0
  -26.9452  -13.0524   18.5642 C   0  0  0  0  0  0  0  0  0  0  0  0
  -20.7880  -25.7710   14.6037 C   0  0  0  0  0  0  0  0  0  0  0  0
  -22.0014  -27.1085   16.7186 C   0  0  0  0  0  0  0  0  0  0  0  0
  -24.2657  -29.8838   20.0911 C   0  0  0  0  0  0  0  0  0  0  0  0
  -26.2641  -11.6765   20.8935 C   0  0  0  0  0  0  0  0  0  0  0  0
  -26.4620  -11.7462   18.4866 C   0  0  0  0  0  0  0  0  0  0  0  0
  -23.7263  -30.1255   21.3538 C   0  0  0  0  0  0  0  0  0  0  0  0
  -24.6384   -8.4497   21.3040 C   0  0  0  0  0  0  0  0  0  0  0  0
  -23.5270   -8.1207   22.0798 C   0  0  0  0  0  0  0  0  0  0  0  0
  -21.8753  -23.9493   23.2158 C   0  0  0  0  0  0  0  0  0  0  0  0
  -25.2662  -28.5336   22.3096 C   0  0  0  0  0  0  0  0  0  0  0  0
  -20.3921  -25.5319   22.1516 C   0  0  0  0  0  0  0  0  0  0  0  0
  -22.2303   -9.8097   20.9383 C   0  0  0  0  0  0  0  0  0  0  0  0
  -27.0879  -13.6706   19.8064 C   0  0  0  0  0  0  0  0  0  0  0  0
  -21.8222  -23.1375   22.0828 C   0  0  0  0  0  0  0  0  0  0  0  0
  -28.9296  -15.4242   20.0077 C   0  0  0  0  0  0  0  0  0  0  0  0
  -21.9199  -25.2092   15.2170 C   0  0  0  0  0  0  0  0  0  0  0  0
  -25.3038  -28.9556   19.9263 C   0  0  0  0  0  0  0  0  0  0  0  0
  -22.5576  -25.8971   16.2694 C   0  0  0  0  0  0  0  0  0  0  0  0
  -25.8187  -28.2838   21.0442 C   0  0  0  0  0  0  0  0  0  0  0  0
  -20.3390  -24.7202   21.0185 C   0  0  0  0  0  0  0  0  0  0  0  0
  -21.0541  -23.5230   20.9841 C   0  0  0  0  0  0  0  0  0  0  0  0
  -26.1214  -11.0583   19.6514 C   0  0  0  0  0  0  0  0  0  0  0  0
  -24.2246  -29.4482   22.4629 C   0  0  0  0  0  0  0  0  0  0  0  0
  -24.5459   -9.4587   20.3453 C   0  0  0  0  0  0  0  0  0  0  0  0
  -21.1602  -25.1465   23.2502 C   0  0  0  0  0  0  0  0  0  0  0  0
  -22.3229   -8.8007   21.8970 C   0  0  0  0  0  0  0  0  0  0  0  0
  -23.3418  -10.1387   20.1625 C   0  0  0  0  0  0  0  0  0  0  0  0
  -27.5866  -15.0201   19.8858 C   0  0  0  0  0  0  0  0  0  0  0  0
  -28.8736  -16.7961   20.0420 C   0  0  0  0  0  0  0  0  0  0  0  0
  -22.5820  -21.8939   22.0800 C   0  0  0  0  0  0  0  0  0  0  0  0
  -23.8623  -21.7625   21.6778 C   0  0  0  0  0  0  0  0  0  0  0  0
  -30.1213  -14.6305   20.0831 C   0  0  0  0  0  0  0  0  0  0  0  0
  -24.4993  -20.4319   21.7448 C   0  0  0  0  0  0  0  0  0  0  0  0
  -25.6415  -26.2281   18.3292 C   0  0  0  0  0  0  0  0  0  0  0  0
  -28.7190  -26.4797   19.3231 C   0  0  0  0  0  0  0  0  0  0  0  0
  -30.9382  -27.7418   21.5878 C   0  0  0  0  0  0  0  0  0  0  0  0
  -22.4477  -23.8976   14.6911 C   0  0  0  0  0  0  0  0  0  0  0  0
  -25.8927  -28.7259   18.5615 C   0  0  0  0  0  0  0  0  0  0  0  0
  -26.9462  -27.2924   20.9237 C   0  0  0  0  0  0  0  0  0  0  0  0
  -23.3716  -23.1903   15.6773 C   0  0  0  0  0  0  0  0  0  0  0  0
  -26.2560  -20.4858   18.5287 C   0  0  0  0  0  0  0  0  0  0  0  0
  -24.4239  -24.1612   16.1916 C   0  0  0  0  0  0  0  0  0  0  0  0
  -26.8817  -19.0937   18.5126 C   0  0  0  0  0  0  0  0  0  0  0  0
  -24.8953  -20.4930   19.2237 C   0  0  0  0  0  0  0  0  0  0  0  0
  -25.5527  -18.5297   20.5852 C   0  0  0  0  0  0  0  0  0  0  0  0
  -23.7719  -25.3125   16.9678 C   0  0  1  0  0  0  0  0  0  0  0  0
  -26.6002  -27.3802   18.4347 C   0  0  1  0  0  0  0  0  0  0  0  0
  -26.9436  -18.5082   19.9322 C   0  0  1  0  0  0  0  0  0  0  0  0
  -19.5099  -25.1578   19.8554 C   0  0  0  0  0  0  0  0  0  0  0  0
  -19.6865  -21.8753   19.6797 C   0  0  0  0  0  0  0  0  0  0  0  0
  -33.3811  -27.7431   22.1617 C   0  0  0  0  0  0  0  0  0  0  0  0
  -28.4511  -23.6606   20.4593 C   0  0  0  0  0  0  0  0  0  0  0  0
  -30.5179  -24.0828   21.8078 C   0  0  0  0  0  0  0  0  0  0  0  0
  -30.6269  -24.1221   19.3159 C   0  0  0  0  0  0  0  0  0  0  0  0
  -31.1380  -30.6736   21.2363 C   0  0  0  0  0  0  0  0  0  0  0  0
  -20.9903  -22.6606   19.7617 C   0  0  0  0  0  0  0  0  0  0  0  0
  -21.7197  -29.5964   25.0761 C   0  0  0  0  0  0  0  0  0  0  0  0
  -21.8254  -28.0848   25.2456 C   0  0  0  0  0  0  0  0  0  0  0  0
  -22.3241  -30.0572   23.7564 C   0  0  0  0  0  0  0  0  0  1  0  0
  -21.0619  -27.3424   24.1580 C   0  0  0  0  0  0  0  0  0  0  0  0
  -29.4912  -26.0224   20.5370 C   0  0  1  0  0  0  0  0  0  0  0  0
  -32.2674  -28.4524   21.4072 C   0  0  2  0  0  0  0  0  0  0  0  0
  -29.7492  -24.4892   20.5323 C   0  0  0  0  0  0  0  0  0  0  0  0
  -26.7393  -16.0518   19.8455 N   0  0  0  0  0  0  0  0  0  0  0  0
  -27.5519  -17.1178   19.9427 N   0  0  0  0  0  0  0  0  0  0  0  0
  -24.9682  -19.8751   20.5563 N   0  0  0  0  0  0  0  0  0  0  0  0
  -27.4843  -27.0976   19.5673 N   0  0  0  0  0  0  0  0  0  0  0  0
  -29.8264  -17.7467   20.1471 N   0  0  0  0  0  0  0  0  0  0  0  0
  -29.9989  -13.2352   20.0334 N   0  0  0  0  0  0  0  0  0  0  0  0
  -24.7743  -26.3143   17.2568 N   0  0  0  0  0  0  0  0  0  0  0  0
  -30.7039  -26.8323   20.5783 N   0  0  0  0  0  0  0  0  0  0  0  0
  -32.1783  -29.8531   21.9082 N   0  3  0  0  0  0  0  0  0  0  0  0
  -31.2594  -15.1429   20.2079 O   0  0  0  0  0  0  0  0  0  0  0  0
  -24.5731  -19.8918   22.8500 O   0  0  0  0  0  0  0  0  0  0  0  0
  -25.6862  -25.3270   19.1584 O   0  0  0  0  0  0  0  0  0  0  0  0
  -29.1970  -26.3018   18.1999 O   0  0  0  0  0  0  0  0  0  0  0  0
  -30.1848  -27.9681   22.5322 O   0  0  0  0  0  0  0  0  0  0  0  0
  -25.6501   -9.7836   19.5753 O   0  0  0  0  0  0  0  0  0  0  0  0
  -23.6995  -29.6818   23.6965 O   0  0  0  0  0  0  0  0  0  1  0  0
  -21.2120  -25.9444   24.3636 O   0  0  0  0  0  0  0  0  0  0  0  0
  -21.2551   -8.4836   22.6410 F   0  0  0  0  0  0  0  0  0  0  0  0
  -23.2465  -11.1082   19.2423 F   0  0  0  0  0  0  0  0  0  0  0  0
  1  2  1  0  0  0  0
  1  5  2  0  0  0  0
  2  6  2  0  0  0  0
  3  8  2  0  0  0  0
  3 17  1  0  0  0  0
  4  9  1  0  0  0  0
  4 17  2  0  0  0  0
  5 20  1  0  0  0  0
  6 22  1  0  0  0  0
  7 10  2  0  0  0  0
  7 21  1  0  0  0  0
  8 26  1  0  0  0  0
  9 26  2  0  0  0  0
 10 27  1  0  0  0  0
 11 12  2  0  0  0  0
 11 28  1  0  0  0  0
 12 30  1  0  0  0  0
 13 18  1  0  0  0  0
 13 29  2  0  0  0  0
 14 23  1  0  0  0  0
 14 27  2  0  0  0  0
 15 24  2  0  0  0  0
 15 29  1  0  0  0  0
 16 30  2  0  0  0  0
 16 31  1  0  0  0  0
 17 32  1  0  0  0  0
 18 25  2  0  0  0  0
 18 34  1  0  0  0  0
 19 32  1  0  0  0  0
 19 33  2  0  0  0  0
 19 36  1  0  0  0  0
 20 22  2  0  0  0  0
 20 41  1  0  0  0  0
 21 23  2  0  0  0  0
 21 42  1  0  0  0  0
 22 50  1  0  0  0  0
 23 43  1  0  0  0  0
 24 25  1  0  0  0  0
 24 53  1  0  0  0  0
 25 60  1  0  0  0  0
 26 82  1  0  0  0  0
 27 83  1  0  0  0  0
 28 31  2  0  0  0  0
 28 82  1  0  0  0  0
 29 84  1  0  0  0  0
 30 85  1  0  0  0  0
 31 86  1  0  0  0  0
 32 68  2  0  0  0  0
 33 69  1  0  0  0  0
 33 72  1  0  0  0  0
 34 35  2  0  0  0  0
 35 37  1  0  0  0  0
 36 73  1  0  0  0  0
 36 77  2  0  0  0  0
 37 70  1  0  0  0  0
 37 78  2  0  0  0  0
 38 51  1  0  0  0  0
 38 74  1  0  0  0  0
 38 79  2  0  0  0  0
 39 65  1  0  0  0  0
 39 71  1  0  0  0  0
 39 80  2  0  0  0  0
 40 66  1  0  0  0  0
 40 75  1  0  0  0  0
 40 81  2  0  0  0  0
 41 44  1  0  0  0  0
 42 51  1  0  0  0  0
 43 71  1  0  0  0  0
 44 46  1  0  0  0  0
 45 47  1  0  0  0  0
 45 48  1  0  0  0  0
 46 50  1  0  0  0  0
 47 52  1  0  0  0  0
 48 70  1  0  0  0  0
 49 52  1  0  0  0  0
 49 70  1  0  0  0  0
 50 74  1  0  0  0  0
 51 71  1  0  0  0  0
 52 69  1  0  0  0  0
 54 60  1  0  0  0  0
 55 66  1  0  0  0  0
 56 67  1  0  0  0  0
 57 67  1  0  0  0  0
 58 67  1  0  0  0  0
 59 76  1  0  0  0  0
 61 62  1  0  0  0  0
 61 63  1  0  0  0  0
 62 64  1  0  0  0  0
 63 83  1  0  0  0  0
 64 84  1  0  0  0  0
 65 67  1  0  0  0  0
 65 75  1  0  0  0  0
 66 76  1  0  0  0  0
 68 69  1  0  0  0  0
M  CHG  1  76   1
M  ISO  4  35 100  37 100  63 101  83 101
M  END
> <Batch ID>
0120

> <Smiles>
CCc1c(C)cc(OCCC[101CH2:1][101O:1]c2ccc3c(c2)CN(C(=O)C(NC(=O)C(C)NC)C(C)(C)C)C(C(=O)NC2CCCc4ccccc42)C3)cc1C=[100CH:0][100C:0](=O)N1CCCC(n2nc(-c3ccc(Oc4ccc(F)cc4F)cc3)c(C(N)=O)c2N)C1

> <Shape>
0.214

> <Color>
0.077

> <Negative vol penalty>
0.000

$$$$

  -OEChem-04052301543D

 86 94  0     1  0  0  0  0  0999 V2000
  -23.6073  -31.1207   20.0538 C   0  0  0  0  0  0  0  0  0  0  0  0
  -24.7943  -30.4065   20.1820 C   0  0  0  0  0  0  0  0  0  0  0  0
  -23.0472   -9.9710   21.5219 C   0  0  0  0  0  0  0  0  0  0  0  0
  -23.8584  -10.8808   23.6078 C   0  0  0  0  0  0  0  0  0  0  0  0
  -31.4515  -18.4760   18.3076 C   0  0  0  0  0  0  0  0  0  0  0  0
  -22.6871  -31.1350   21.1011 C   0  0  0  0  0  0  0  0  0  0  0  0
  -25.0622  -29.7071   21.3582 C   0  0  0  0  0  0  0  0  0  0  0  0
  -26.8715  -25.0586   20.4849 C   0  0  0  0  0  0  0  0  0  0  0  0
  -31.2605  -17.2096   18.8602 C   0  0  0  0  0  0  0  0  0  0  0  0
  -22.2906   -9.0336   22.2250 C   0  0  0  0  0  0  0  0  0  0  0  0
  -23.1018   -9.9434   24.3110 C   0  0  0  0  0  0  0  0  0  0  0  0
  -28.2148  -24.9552   20.1260 C   0  0  0  0  0  0  0  0  0  0  0  0
  -22.8155   -6.0991   23.8178 C   0  0  0  0  0  0  0  0  0  0  0  0
  -22.8446   -4.7778   23.3717 C   0  0  0  0  0  0  0  0  0  0  0  0
  -29.6733  -18.1339   20.4298 C   0  0  0  0  0  0  0  0  0  0  0  0
  -28.7671  -24.3429   22.3930 C   0  0  0  0  0  0  0  0  0  0  0  0
  -20.4557   -4.8452   23.0166 C   0  0  0  0  0  0  0  0  0  0  0  0
  -23.8312  -10.8946   22.2133 C   0  0  0  0  0  0  0  0  0  0  0  0
  -30.7535  -19.5714   18.8162 C   0  0  0  0  0  0  0  0  0  0  0  0
  -29.8643  -19.4003   19.8772 C   0  0  0  0  0  0  0  0  0  0  0  0
  -24.2110  -13.1498   21.0831 C   0  0  0  0  0  0  0  0  0  0  0  0
  -22.9395  -30.4275   22.2870 C   0  0  0  0  0  0  0  0  0  0  0  0
  -26.4668  -24.8151   21.8053 C   0  0  0  0  0  0  0  0  0  0  0  0
  -24.1451  -29.7130   22.4229 C   0  0  0  0  0  0  0  0  0  0  0  0
  -27.4178  -24.4414   22.7655 C   0  0  0  0  0  0  0  0  0  0  0  0
  -30.3713  -17.0385   19.9213 C   0  0  0  0  0  0  0  0  0  0  0  0
  -22.3178   -9.0198   23.6195 C   0  0  0  0  0  0  0  0  0  0  0  0
  -29.1632  -24.6001   21.0807 C   0  0  0  0  0  0  0  0  0  0  0  0
  -21.6065   -6.7934   23.8635 C   0  0  0  0  0  0  0  0  0  0  0  0
  -21.6647   -4.1509   22.9711 C   0  0  0  0  0  0  0  0  0  0  0  0
  -20.4267   -6.1664   23.4628 C   0  0  0  0  0  0  0  0  0  0  0  0
  -24.6134  -11.8629   21.4876 C   0  0  0  0  0  0  0  0  0  0  0  0
  -25.3067  -13.6639   20.4337 C   0  0  0  0  0  0  0  0  0  0  0  0
  -27.7918  -20.5567   20.4959 C   0  0  0  0  0  0  0  0  0  0  0  0
  -30.9872  -20.8883   18.2012 C   0  0  0  0  0  0  0  0  0  0  0  0
  -29.1138  -20.5167   20.4411 C   0  0  0  0  0  0  0  0  0  0  0  0
  -32.1774  -21.5042   18.1211 C   0  0  0  0  0  0  0  0  0  0  0  0
  -32.2953  -24.6831   19.2231 C   0  0  0  0  0  0  0  0  0  0  0  0
  -22.9588  -13.8206   21.2770 C   0  0  0  0  0  0  0  0  0  0  0  0
  -32.9915  -23.8486   18.4265 C   0  0  0  0  0  0  0  0  0  0  0  0
  -25.0807  -26.5468   24.0820 C   0  0  0  0  0  0  0  0  0  0  0  0
  -25.0289  -23.7146   25.6627 C   0  0  0  0  0  0  0  0  0  0  0  0
  -26.3637  -20.6006   26.0724 C   0  0  0  0  0  0  0  0  0  0  0  0
  -30.7917  -14.5608   20.0962 C   0  0  0  0  0  0  0  0  0  0  0  0
  -21.9361  -30.5113   23.4099 C   0  0  0  0  0  0  0  0  0  0  0  0
  -25.0104  -24.9048   22.1703 C   0  0  0  0  0  0  0  0  0  0  0  0
  -27.0322  -24.1497   24.1920 C   0  0  0  0  0  0  0  0  0  0  0  0
  -22.1266  -29.4378   24.4783 C   0  0  0  0  0  0  0  0  0  0  0  0
  -29.5854  -11.4262   18.9146 C   0  0  0  0  0  0  0  0  0  0  0  0
  -23.5964  -29.3315   24.8722 C   0  0  0  0  0  0  0  0  0  0  0  0
  -28.1512  -11.3662   19.4454 C   0  0  0  0  0  0  0  0  0  0  0  0
  -30.5309  -12.0966   19.9098 C   0  0  0  0  0  0  0  0  0  0  0  0
  -28.6674  -13.3603   20.9097 C   0  0  0  0  0  0  0  0  0  0  0  0
  -24.4605  -28.9216   23.6736 C   0  0  1  0  0  0  0  0  0  0  0  0
  -24.7811  -25.1360   23.6607 C   0  0  1  0  0  0  0  0  0  0  0  0
  -27.6657  -12.7517   19.9148 C   0  0  2  0  0  0  0  0  0  0  0  0
  -34.4983  -23.8882   18.4182 C   0  0  0  0  0  0  0  0  0  0  0  0
  -26.1360  -18.5279   27.4685 C   0  0  0  0  0  0  0  0  0  0  0  0
  -26.4251  -25.1252   27.9801 C   0  0  0  0  0  0  0  0  0  0  0  0
  -27.0127  -22.8741   28.9050 C   0  0  0  0  0  0  0  0  0  0  0  0
  -24.6196  -23.5350   28.6624 C   0  0  0  0  0  0  0  0  0  0  0  0
  -25.7212  -18.9392   23.7089 C   0  0  0  0  0  0  0  0  0  0  0  0
  -32.3699  -22.8492   17.4773 C   0  0  0  0  0  0  0  0  0  0  0  0
  -30.8093  -24.7708   19.3728 C   0  0  0  0  0  0  0  0  0  1  0  0
  -25.9716  -22.9937   26.5957 C   0  0  1  0  0  0  0  0  0  0  0  0
  -25.7140  -19.2336   26.1892 C   0  0  2  0  0  0  0  0  0  0  0  0
  -26.0151  -23.6393   28.0095 C   0  0  0  0  0  0  0  0  0  0  0  0
  -25.8669  -11.5769   21.1254 N   0  0  0  0  0  0  0  0  0  0  0  0
  -26.2615  -12.6913   20.4864 N   0  0  0  0  0  0  0  0  0  0  0  0
  -25.5968  -24.2571   24.5011 N   0  0  0  0  0  0  0  0  0  0  0  0
  -30.0085  -13.4061   20.3062 N   0  0  0  0  0  0  0  0  0  0  0  0
  -25.5370  -14.8484   19.8284 N   0  0  0  0  0  0  0  0  0  0  0  0
  -21.9401  -13.1480   21.9657 N   0  0  0  0  0  0  0  0  0  0  0  0
  -30.1779  -15.7519   20.4825 N   0  0  0  0  0  0  0  0  0  0  0  0
  -24.3331  -27.5023   23.4206 N   0  0  0  0  0  0  0  0  0  0  0  0
  -25.5600  -21.5940   26.5904 N   0  0  0  0  0  0  0  0  0  0  0  0
  -26.0976  -18.3771   25.0315 N   0  3  0  0  0  0  0  0  0  0  0  0
  -22.7438  -14.9758   20.8379 O   0  0  0  0  0  0  0  0  0  0  0  0
  -25.9264  -26.7531   24.9445 O   0  0  0  0  0  0  0  0  0  0  0  0
  -23.8316  -23.7875   25.9502 O   0  0  0  0  0  0  0  0  0  0  0  0
  -27.4748  -20.7697   25.5749 O   0  0  0  0  0  0  0  0  0  0  0  0
  -31.9125  -14.5005   19.5843 O   0  0  0  0  0  0  0  0  0  0  0  0
  -21.5794   -8.1053   24.3059 O   0  0  0  0  0  0  0  0  0  0  0  0
  -30.4750  -24.4991   20.7332 O   0  0  0  0  0  0  0  0  0  1  0  0
  -21.6930   -2.8826   22.5412 F   0  0  0  0  0  0  0  0  0  0  0  0
  -19.2624   -6.8287   23.5033 F   0  0  0  0  0  0  0  0  0  0  0  0
  1  2  1  0  0  0  0
  1  6  2  0  0  0  0
  2  7  2  0  0  0  0
  3 10  2  0  0  0  0
  3 18  1  0  0  0  0
  4 11  1  0  0  0  0
  4 18  2  0  0  0  0
  5  9  2  0  0  0  0
  5 19  1  0  0  0  0
  6 22  1  0  0  0  0
  7 24  1  0  0  0  0
  8 12  2  0  0  0  0
  8 23  1  0  0  0  0
  9 26  1  0  0  0  0
 10 27  1  0  0  0  0
 11 27  2  0  0  0  0
 12 28  1  0  0  0  0
 13 14  2  0  0  0  0
 13 29  1  0  0  0  0
 14 30  1  0  0  0  0
 15 20  1  0  0  0  0
 15 26  2  0  0  0  0
 16 25  1  0  0  0  0
 16 28  2  0  0  0  0
 17 30  2  0  0  0  0
 17 31  1  0  0  0  0
 18 32  1  0  0  0  0
 19 20  2  0  0  0  0
 19 35  1  0  0  0  0
 20 36  1  0  0  0  0
 21 32  1  0  0  0  0
 21 33  2  0  0  0  0
 21 39  1  0  0  0  0
 22 24  2  0  0  0  0
 22 45  1  0  0  0  0
 23 25  2  0  0  0  0
 23 46  1  0  0  0  0
 24 54  1  0  0  0  0
 25 47  1  0  0  0  0
 26 74  1  0  0  0  0
 27 83  1  0  0  0  0
 28 84  1  0  0  0  0
 29 31  2  0  0  0  0
 29 83  1  0  0  0  0
 30 85  1  0  0  0  0
 31 86  1  0  0  0  0
 32 68  2  0  0  0  0
 33 69  1  0  0  0  0
 33 72  1  0  0  0  0
 34 36  2  0  0  0  0
 35 37  2  0  0  0  0
 37 63  1  0  0  0  0
 38 40  2  0  0  0  0
 38 64  1  0  0  0  0
 39 73  1  0  0  0  0
 39 78  2  0  0  0  0
 40 57  1  0  0  0  0
 40 63  1  0  0  0  0
 41 55  1  0  0  0  0
 41 75  1  0  0  0  0
 41 79  2  0  0  0  0
 42 65  1  0  0  0  0
 42 70  1  0  0  0  0
 42 80  2  0  0  0  0
 43 66  1  0  0  0  0
 43 76  1  0  0  0  0
 43 81  2  0  0  0  0
 44 71  1  0  0  0  0
 44 74  1  0  0  0  0
 44 82  2  0  0  0  0
 45 48  1  0  0  0  0
 46 55  1  0  0  0  0
 47 70  1  0  0  0  0
 48 50  1  0  0  0  0
 49 51  1  0  0  0  0
 49 52  1  0  0  0  0
 50 54  1  0  0  0  0
 51 56  1  0  0  0  0
 52 71  1  0  0  0  0
 53 56  1  0  0  0  0
 53 71  1  0  0  0  0
 54 75  1  0  0  0  0
 55 70  1  0  0  0  0
 56 69  1  0  0  0  0
 58 66  1  0  0  0  0
 59 67  1  0  0  0  0
 60 67  1  0  0  0  0
 61 67  1  0  0  0  0
 62 77  1  0  0  0  0
 64 84  1  0  0  0  0
 65 67  1  0  0  0  0
 65 76  1  0  0  0  0
 66 77  1  0  0  0  0
 68 69  1  0  0  0  0
M  CHG  1  77   1
M  ISO  4  44 100  64 101  74 100  84 101
M  END
> <Batch ID>
0120

> <Smiles>
C=Cc1cc([100NH:0][100C:0](=O)N2CCCC(n3nc(-c4ccc(Oc5ccc(F)cc5F)cc4)c(C(N)=O)c3N)C2)ccc1C=CCC(C)=C[101CH2:1][101O:1]c1ccc2c(c1)CN(C(=O)C(NC(=O)C(C)NC)C(C)(C)C)C(C(=O)NC1CCCc3ccccc31)C2

> <Shape>
0.236

> <Color>
0.154

> <Negative vol penalty>
0.000

$$$$

  -OEChem-04052301543D

 84 92  0     1  0  0  0  0  0999 V2000
  -27.7973  -32.7231   27.5012 C   0  0  0  0  0  0  0  0  0  0  0  0
  -27.9550  -31.6525   26.6270 C   0  0  0  0  0  0  0  0  0  0  0  0
  -24.2959   -8.9743   21.4396 C   0  0  0  0  0  0  0  0  0  0  0  0
  -24.8335  -10.2622   23.4117 C   0  0  0  0  0  0  0  0  0  0  0  0
  -26.5250  -33.2352   27.7520 C   0  0  0  0  0  0  0  0  0  0  0  0
  -26.8402  -31.0926   26.0038 C   0  0  0  0  0  0  0  0  0  0  0  0
  -27.6005  -30.2294   21.0721 C   0  0  0  0  0  0  0  0  0  0  0  0
  -23.9856   -7.8759   22.2414 C   0  0  0  0  0  0  0  0  0  0  0  0
  -24.5232   -9.1638   24.2136 C   0  0  0  0  0  0  0  0  0  0  0  0
  -28.3480  -29.1032   20.7307 C   0  0  0  0  0  0  0  0  0  0  0  0
  -21.4028   -6.8474   24.1660 C   0  0  0  0  0  0  0  0  0  0  0  0
  -20.2342   -6.1430   23.8765 C   0  0  0  0  0  0  0  0  0  0  0  0
  -26.3108  -27.9048   20.2481 C   0  0  0  0  0  0  0  0  0  0  0  0
  -30.1491  -18.7862   19.9410 C   0  0  0  0  0  0  0  0  0  0  0  0
  -27.9663  -20.3652   20.6655 C   0  0  0  0  0  0  0  0  0  0  0  0
  -21.5338   -4.1413   23.5006 C   0  0  0  0  0  0  0  0  0  0  0  0
  -24.7200  -10.1674   22.0247 C   0  0  0  0  0  0  0  0  0  0  0  0
  -24.1657  -12.3192   20.7717 C   0  0  0  0  0  0  0  0  0  0  0  0
  -25.3951  -32.6876   27.1242 C   0  0  0  0  0  0  0  0  0  0  0  0
  -26.1997  -30.1983   21.0144 C   0  0  0  0  0  0  0  0  0  0  0  0
  -25.5515  -31.5970   26.2475 C   0  0  0  0  0  0  0  0  0  0  0  0
  -25.5479  -29.0328   20.5868 C   0  0  0  0  0  0  0  0  0  0  0  0
  -30.3418  -20.1204   20.2994 C   0  0  0  0  0  0  0  0  0  0  0  0
  -27.7736  -19.0311   20.3070 C   0  0  0  0  0  0  0  0  0  0  0  0
  -28.8649  -18.2416   19.9448 C   0  0  0  0  0  0  0  0  0  0  0  0
  -24.0992   -7.9707   23.6284 C   0  0  0  0  0  0  0  0  0  0  0  0
  -27.7031  -27.9397   20.3213 C   0  0  0  0  0  0  0  0  0  0  0  0
  -22.6370   -6.1987   24.1227 C   0  0  0  0  0  0  0  0  0  0  0  0
  -29.2505  -20.9099   20.6617 C   0  0  0  0  0  0  0  0  0  0  0  0
  -20.2997   -4.7900   23.5439 C   0  0  0  0  0  0  0  0  0  0  0  0
  -22.7025   -4.8457   23.7901 C   0  0  0  0  0  0  0  0  0  0  0  0
  -25.0413  -11.3021   21.1970 C   0  0  0  0  0  0  0  0  0  0  0  0
  -24.9508  -13.1534   20.0139 C   0  0  0  0  0  0  0  0  0  0  0  0
  -22.7678  -12.4943   21.0379 C   0  0  0  0  0  0  0  0  0  0  0  0
  -23.8592  -30.5387   23.1380 C   0  0  0  0  0  0  0  0  0  0  0  0
  -28.8754  -24.5158   20.5044 C   0  0  0  0  0  0  0  0  0  0  0  0
  -21.9738  -30.3919   20.5024 C   0  0  0  0  0  0  0  0  0  0  0  0
  -21.5879  -29.3686   17.2697 C   0  0  0  0  0  0  0  0  0  0  0  0
  -29.6781  -15.9787   19.1933 C   0  0  0  0  0  0  0  0  0  0  0  0
  -24.0350  -33.2444   27.4631 C   0  0  0  0  0  0  0  0  0  0  0  0
  -25.4088  -31.4300   21.3604 C   0  0  0  0  0  0  0  0  0  0  0  0
  -24.0471  -28.9542   20.4884 C   0  0  0  0  0  0  0  0  0  0  0  0
  -22.9462  -32.8363   26.4741 C   0  0  0  0  0  0  0  0  0  0  0  0
  -29.6560  -12.5457   18.2493 C   0  0  0  0  0  0  0  0  0  0  0  0
  -23.0264  -31.3420   26.1783 C   0  0  0  0  0  0  0  0  0  0  0  0
  -28.3814  -11.9998   18.8970 C   0  0  0  0  0  0  0  0  0  0  0  0
  -30.3418  -13.5848   19.1346 C   0  0  0  0  0  0  0  0  0  0  0  0
  -28.2053  -14.1412   20.2276 C   0  0  0  0  0  0  0  0  0  0  0  0
  -24.3693  -30.9786   25.5332 C   0  0  1  0  0  0  0  0  0  0  0  0
  -23.9684  -31.1231   21.7581 C   0  0  1  0  0  0  0  0  0  0  0  0
  -27.4444  -13.1388   19.3446 C   0  0  2  0  0  0  0  0  0  0  0  0
  -31.7234  -20.6866   20.2881 C   0  0  0  0  0  0  0  0  0  0  0  0
  -26.3872  -18.4736   20.3198 C   0  0  0  0  0  0  0  0  0  0  0  0
  -19.9234  -29.3593   15.3918 C   0  0  0  0  0  0  0  0  0  0  0  0
  -20.4308  -28.1515   21.8844 C   0  0  0  0  0  0  0  0  0  0  0  0
  -19.4423  -27.5563   19.6625 C   0  0  0  0  0  0  0  0  0  0  0  0
  -19.0034  -29.8002   20.6601 C   0  0  0  0  0  0  0  0  0  0  0  0
  -23.3783  -30.9478   15.5205 C   0  0  0  0  0  0  0  0  0  0  0  0
  -27.8238  -25.5670   20.2140 C   0  0  0  0  0  0  0  0  0  1  0  0
  -28.3578  -23.1126   20.7450 C   0  0  0  0  0  0  0  0  0  0  0  0
  -21.2977  -29.2836   19.7320 C   0  0  1  0  0  0  0  0  0  0  0  0
  -21.0871  -30.0969   16.0356 C   0  0  2  0  0  0  0  0  0  0  0  0
  -20.0718  -28.6985   20.4884 C   0  0  0  0  0  0  0  0  0  0  0  0
  -26.2871  -11.4726   20.7467 N   0  0  0  0  0  0  0  0  0  0  0  0
  -26.2001  -12.6064   20.0305 N   0  0  0  0  0  0  0  0  0  0  0  0
  -23.3176  -30.1828   20.8435 N   0  0  0  0  0  0  0  0  0  0  0  0
  -29.3946  -14.6347   19.5157 N   0  0  0  0  0  0  0  0  0  0  0  0
  -24.6875  -14.2941   19.3417 N   0  0  0  0  0  0  0  0  0  0  0  0
  -22.1154  -11.5441   21.8353 N   0  0  0  0  0  0  0  0  0  0  0  0
  -28.6896  -16.8845   19.5768 N   0  0  0  0  0  0  0  0  0  0  0  0
  -24.3738  -31.3469   24.1337 N   0  0  0  0  0  0  0  0  0  0  0  0
  -20.9824  -29.8334   18.4180 N   0  0  0  0  0  0  0  0  0  0  0  0
  -22.1790  -30.2218   15.0290 N   0  3  0  0  0  0  0  0  0  0  0  0
  -22.1129  -13.4557   20.5685 O   0  0  0  0  0  0  0  0  0  0  0  0
  -23.3447  -29.4367   23.2885 O   0  0  0  0  0  0  0  0  0  0  0  0
  -30.0750  -24.7853   20.5430 O   0  0  0  0  0  0  0  0  0  0  0  0
  -21.3353  -31.4088   20.7849 O   0  0  0  0  0  0  0  0  0  0  0  0
  -22.4292  -28.4740   17.2197 O   0  0  0  0  0  0  0  0  0  0  0  0
  -30.7084  -16.2992   18.5951 O   0  0  0  0  0  0  0  0  0  0  0  0
  -23.7962   -6.8992   24.4112 O   0  0  0  0  0  0  0  0  0  0  0  0
  -28.4303  -26.8388   19.9881 O   0  0  0  0  0  0  0  0  0  1  0  0
  -29.4231  -22.2267   21.0171 O   0  0  0  0  0  0  0  0  0  0  0  0
  -19.1773   -4.1133   23.2674 F   0  0  0  0  0  0  0  0  0  0  0  0
  -23.8851   -4.2169   23.7480 F   0  0  0  0  0  0  0  0  0  0  0  0
  1  2  1  0  0  0  0
  1  5  2  0  0  0  0
  2  6  2  0  0  0  0
  3  8  2  0  0  0  0
  3 17  1  0  0  0  0
  4  9  1  0  0  0  0
  4 17  2  0  0  0  0
  5 19  1  0  0  0  0
  6 21  1  0  0  0  0
  7 10  2  0  0  0  0
  7 20  1  0  0  0  0
  8 26  1  0  0  0  0
  9 26  2  0  0  0  0
 10 27  1  0  0  0  0
 11 12  2  0  0  0  0
 11 28  1  0  0  0  0
 12 30  1  0  0  0  0
 13 22  1  0  0  0  0
 13 27  2  0  0  0  0
 14 23  1  0  0  0  0
 14 25  2  0  0  0  0
 15 24  2  0  0  0  0
 15 29  1  0  0  0  0
 16 30  2  0  0  0  0
 16 31  1  0  0  0  0
 17 32  1  0  0  0  0
 18 32  1  0  0  0  0
 18 33  2  0  0  0  0
 18 34  1  0  0  0  0
 19 21  2  0  0  0  0
 19 40  1  0  0  0  0
 20 22  2  0  0  0  0
 20 41  1  0  0  0  0
 21 49  1  0  0  0  0
 22 42  1  0  0  0  0
 23 29  2  0  0  0  0
 23 52  1  0  0  0  0
 24 25  1  0  0  0  0
 24 53  1  0  0  0  0
 25 70  1  0  0  0  0
 26 80  1  0  0  0  0
 27 81  1  0  0  0  0
 28 31  2  0  0  0  0
 28 80  1  0  0  0  0
 29 82  1  0  0  0  0
 30 83  1  0  0  0  0
 31 84  1  0  0  0  0
 32 64  2  0  0  0  0
 33 65  1  0  0  0  0
 33 68  1  0  0  0  0
 34 69  1  0  0  0  0
 34 74  2  0  0  0  0
 35 50  1  0  0  0  0
 35 71  1  0  0  0  0
 35 75  2  0  0  0  0
 36 59  1  0  0  0  0
 36 60  1  0  0  0  0
 36 76  2  0  0  0  0
 37 61  1  0  0  0  0
 37 66  1  0  0  0  0
 37 77  2  0  0  0  0
 38 62  1  0  0  0  0
 38 72  1  0  0  0  0
 38 78  2  0  0  0  0
 39 67  1  0  0  0  0
 39 70  1  0  0  0  0
 39 79  2  0  0  0  0
 40 43  1  0  0  0  0
 41 50  1  0  0  0  0
 42 66  1  0  0  0  0
 43 45  1  0  0  0  0
 44 46  1  0  0  0  0
 44 47  1  0  0  0  0
 45 49  1  0  0  0  0
 46 51  1  0  0  0  0
 47 67  1  0  0  0  0
 48 51  1  0  0  0  0
 48 67  1  0  0  0  0
 49 71  1  0  0  0  0
 50 66  1  0  0  0  0
 51 65  1  0  0  0  0
 54 62  1  0  0  0  0
 55 63  1  0  0  0  0
 56 63  1  0  0  0  0
 57 63  1  0  0  0  0
 58 73  1  0  0  0  0
 59 81  1  0  0  0  0
 60 82  1  0  0  0  0
 61 63  1  0  0  0  0
 61 72  1  0  0  0  0
 62 73  1  0  0  0  0
 64 65  1  0  0  0  0
M  CHG  1  73   1
M  ISO  4  39 100  59 101  70 100  81 101
M  END
> <Batch ID>
0120

> <Smiles>
CNC(C)C(=O)NC(C(=O)N1Cc2cc([101O:1][101CH2:1]C(=O)COc3cc(C)c([100NH:0][100C:0](=O)N4CCCC(n5nc(-c6ccc(Oc7ccc(F)cc7F)cc6)c(C(N)=O)c5N)C4)cc3C)ccc2CC1C(=O)NC1CCCc2ccccc21)C(C)(C)C

> <Shape>
0.339

> <Color>
0.137

> <Negative vol penalty>
0.000

$$$$

  -OEChem-04052301543D

 84 92  0     1  0  0  0  0  0999 V2000
  -17.1597  -29.1849   24.7048 C   0  0  0  0  0  0  0  0  0  0  0  0
  -18.0913  -28.3110   24.1535 C   0  0  0  0  0  0  0  0  0  0  0  0
  -23.2773   -9.5852   20.2514 C   0  0  0  0  0  0  0  0  0  0  0  0
  -23.7746  -10.1075   22.5573 C   0  0  0  0  0  0  0  0  0  0  0  0
  -17.0739  -30.4958   24.2380 C   0  0  0  0  0  0  0  0  0  0  0  0
  -18.9369  -28.7474   23.1342 C   0  0  0  0  0  0  0  0  0  0  0  0
  -23.7366  -27.2929   23.8358 C   0  0  0  0  0  0  0  0  0  0  0  0
  -22.5632   -8.4590   20.6605 C   0  0  0  0  0  0  0  0  0  0  0  0
  -23.0605   -8.9813   22.9664 C   0  0  0  0  0  0  0  0  0  0  0  0
  -24.0537  -25.9717   23.5233 C   0  0  0  0  0  0  0  0  0  0  0  0
  -19.8248   -8.1060   23.3955 C   0  0  0  0  0  0  0  0  0  0  0  0
  -18.9441   -8.2529   24.4672 C   0  0  0  0  0  0  0  0  0  0  0  0
  -31.1273  -19.3374   23.5031 C   0  0  0  0  0  0  0  0  0  0  0  0
  -29.3282  -18.1067   22.4614 C   0  0  0  0  0  0  0  0  0  0  0  0
  -24.9707  -26.6970   21.4133 C   0  0  0  0  0  0  0  0  0  0  0  0
  -31.6008  -17.3066   22.2831 C   0  0  0  0  0  0  0  0  0  0  0  0
  -20.1819   -6.5929   25.7119 C   0  0  0  0  0  0  0  0  0  0  0  0
  -23.8831  -10.4094   21.1998 C   0  0  0  0  0  0  0  0  0  0  0  0
  -29.7701  -19.1939   23.2153 C   0  0  0  0  0  0  0  0  0  0  0  0
  -24.1212  -12.8752   20.5908 C   0  0  0  0  0  0  0  0  0  0  0  0
  -17.9255  -30.9513   23.2191 C   0  0  0  0  0  0  0  0  0  0  0  0
  -24.0248  -28.3266   22.9331 C   0  0  0  0  0  0  0  0  0  0  0  0
  -18.8615  -30.0653   22.6524 C   0  0  0  0  0  0  0  0  0  0  0  0
  -24.6586  -28.0308   21.7178 C   0  0  0  0  0  0  0  0  0  0  0  0
  -32.0427  -18.3938   23.0370 C   0  0  0  0  0  0  0  0  0  0  0  0
  -30.2436  -17.1630   21.9953 C   0  0  0  0  0  0  0  0  0  0  0  0
  -22.4548   -8.1571   22.0180 C   0  0  0  0  0  0  0  0  0  0  0  0
  -24.6682  -25.6732   22.3107 C   0  0  0  0  0  0  0  0  0  0  0  0
  -20.8840   -7.2025   23.4820 C   0  0  0  0  0  0  0  0  0  0  0  0
  -19.1227   -7.4964   25.6254 C   0  0  0  0  0  0  0  0  0  0  0  0
  -21.0626   -6.4460   24.6402 C   0  0  0  0  0  0  0  0  0  0  0  0
  -24.6213  -11.5726   20.7778 C   0  0  0  0  0  0  0  0  0  0  0  0
  -25.2120  -13.6076   20.1905 C   0  0  0  0  0  0  0  0  0  0  0  0
  -28.8035  -20.1900   23.7066 C   0  0  0  0  0  0  0  0  0  0  0  0
  -27.5737  -20.3878   23.2062 C   0  0  0  0  0  0  0  0  0  0  0  0
  -22.7897  -13.3782   20.7636 C   0  0  0  0  0  0  0  0  0  0  0  0
  -22.2896  -30.4526   21.3291 C   0  0  0  0  0  0  0  0  0  0  0  0
  -26.2422  -22.4225   22.6567 C   0  0  0  0  0  0  0  0  0  0  0  0
  -25.1998  -31.6109   20.4856 C   0  0  0  0  0  0  0  0  0  0  0  0
  -28.5325  -31.0267   20.0399 C   0  0  0  0  0  0  0  0  0  0  0  0
  -30.5712  -15.0334   20.6900 C   0  0  0  0  0  0  0  0  0  0  0  0
  -17.7634  -32.3634   22.7147 C   0  0  0  0  0  0  0  0  0  0  0  0
  -23.7006  -29.7497   23.2966 C   0  0  0  0  0  0  0  0  0  0  0  0
  -25.0075  -29.1065   20.7230 C   0  0  0  0  0  0  0  0  0  0  0  0
  -18.9502  -32.8557   21.8905 C   0  0  0  0  0  0  0  0  0  0  0  0
  -29.8396  -12.1206   18.7776 C   0  0  0  0  0  0  0  0  0  0  0  0
  -19.3652  -31.8012   20.8694 C   0  0  0  0  0  0  0  0  0  0  0  0
  -28.3756  -11.8255   19.1121 C   0  0  0  0  0  0  0  0  0  0  0  0
  -30.6031  -12.6491   19.9906 C   0  0  0  0  0  0  0  0  0  0  0  0
  -28.5226  -13.5078   20.9924 C   0  0  0  0  0  0  0  0  0  0  0  0
  -19.8131  -30.5086   21.5624 C   0  0  1  0  0  0  0  0  0  0  0  0
  -23.5734  -30.6627   22.0810 C   0  0  1  0  0  0  0  0  0  0  0  0
  -27.6966  -13.0345   19.7852 C   0  0  2  0  0  0  0  0  0  0  0  0
  -33.4942  -18.5470   23.3439 C   0  0  0  0  0  0  0  0  0  0  0  0
  -30.6497  -32.1568   19.3066 C   0  0  0  0  0  0  0  0  0  0  0  0
  -24.3005  -31.4033   17.5773 C   0  0  0  0  0  0  0  0  0  0  0  0
  -26.6992  -31.6185   16.8930 C   0  0  0  0  0  0  0  0  0  0  0  0
  -25.5843  -33.4780   18.1267 C   0  0  0  0  0  0  0  0  0  0  0  0
  -29.8130  -30.5926   22.6725 C   0  0  0  0  0  0  0  0  0  0  0  0
  -26.6260  -21.4200   23.7360 C   0  0  0  0  0  0  0  0  0  0  0  0
  -25.2799  -23.5114   23.0908 C   0  0  0  0  0  0  0  0  0  1  0  0
  -26.1690  -31.3488   19.3582 C   0  0  1  0  0  0  0  0  0  0  0  0
  -29.7594  -31.8007   20.4870 C   0  0  2  0  0  0  0  0  0  0  0  0
  -25.6800  -31.9414   18.0065 C   0  0  0  0  0  0  0  0  0  0  0  0
  -25.9281  -11.4797   20.5175 N   0  0  0  0  0  0  0  0  0  0  0  0
  -26.2583  -12.7332   20.1628 N   0  0  0  0  0  0  0  0  0  0  0  0
  -24.6647  -30.4817   21.1215 N   0  0  0  0  0  0  0  0  0  0  0  0
  -29.9032  -13.7961   20.5733 N   0  0  0  0  0  0  0  0  0  0  0  0
  -25.3686  -14.9078   19.8630 N   0  0  0  0  0  0  0  0  0  0  0  0
  -21.7887  -12.4899   21.1799 N   0  0  0  0  0  0  0  0  0  0  0  0
  -29.7950  -16.0591   21.2285 N   0  0  0  0  0  0  0  0  0  0  0  0
  -21.1532  -30.6554   22.0886 N   0  0  0  0  0  0  0  0  0  0  0  0
  -27.4606  -31.8611   19.8029 N   0  0  0  0  0  0  0  0  0  0  0  0
  -30.5584  -30.9929   21.4514 N   0  3  0  0  0  0  0  0  0  0  0  0
  -22.4929  -14.5761   20.5391 O   0  0  0  0  0  0  0  0  0  0  0  0
  -22.3273  -30.1318   20.1470 O   0  0  0  0  0  0  0  0  0  0  0  0
  -26.6866  -22.3743   21.5103 O   0  0  0  0  0  0  0  0  0  0  0  0
  -24.9329  -32.7747   20.7954 O   0  0  0  0  0  0  0  0  0  0  0  0
  -28.5267  -29.8046   19.9099 O   0  0  0  0  0  0  0  0  0  0  0  0
  -31.7367  -15.1798   20.3130 O   0  0  0  0  0  0  0  0  0  0  0  0
  -21.7579   -7.0583   22.4175 O   0  0  0  0  0  0  0  0  0  0  0  0
  -24.9782  -24.3844   22.0030 O   0  0  0  0  0  0  0  0  0  1  0  0
  -18.2778   -7.6387   26.6550 F   0  0  0  0  0  0  0  0  0  0  0  0
  -22.0790   -5.5772   24.7297 F   0  0  0  0  0  0  0  0  0  0  0  0
  1  2  1  0  0  0  0
  1  5  2  0  0  0  0
  2  6  2  0  0  0  0
  3  8  2  0  0  0  0
  3 18  1  0  0  0  0
  4  9  1  0  0  0  0
  4 18  2  0  0  0  0
  5 21  1  0  0  0  0
  6 23  1  0  0  0  0
  7 10  2  0  0  0  0
  7 22  1  0  0  0  0
  8 27  1  0  0  0  0
  9 27  2  0  0  0  0
 10 28  1  0  0  0  0
 11 12  2  0  0  0  0
 11 29  1  0  0  0  0
 12 30  1  0  0  0  0
 13 19  1  0  0  0  0
 13 25  2  0  0  0  0
 14 19  2  0  0  0  0
 14 26  1  0  0  0  0
 15 24  1  0  0  0  0
 15 28  2  0  0  0  0
 16 25  1  0  0  0  0
 16 26  2  0  0  0  0
 17 30  2  0  0  0  0
 17 31  1  0  0  0  0
 18 32  1  0  0  0  0
 19 34  1  0  0  0  0
 20 32  1  0  0  0  0
 20 33  2  0  0  0  0
 20 36  1  0  0  0  0
 21 23  2  0  0  0  0
 21 42  1  0  0  0  0
 22 24  2  0  0  0  0
 22 43  1  0  0  0  0
 23 51  1  0  0  0  0
 24 44  1  0  0  0  0
 25 54  1  0  0  0  0
 26 71  1  0  0  0  0
 27 81  1  0  0  0  0
 28 82  1  0  0  0  0
 29 31  2  0  0  0  0
 29 81  1  0  0  0  0
 30 83  1  0  0  0  0
 31 84  1  0  0  0  0
 32 65  2  0  0  0  0
 33 66  1  0  0  0  0
 33 69  1  0  0  0  0
 34 35  2  0  0  0  0
 35 60  1  0  0  0  0
 36 70  1  0  0  0  0
 36 75  2  0  0  0  0
 37 52  1  0  0  0  0
 37 72  1  0  0  0  0
 37 76  2  0  0  0  0
 38 60  1  0  0  0  0
 38 61  1  0  0  0  0
 38 77  2  0  0  0  0
 39 62  1  0  0  0  0
 39 67  1  0  0  0  0
 39 78  2  0  0  0  0
 40 63  1  0  0  0  0
 40 73  1  0  0  0  0
 40 79  2  0  0  0  0
 41 68  1  0  0  0  0
 41 71  1  0  0  0  0
 41 80  2  0  0  0  0
 42 45  1  0  0  0  0
 43 52  1  0  0  0  0
 44 67  1  0  0  0  0
 45 47  1  0  0  0  0
 46 48  1  0  0  0  0
 46 49  1  0  0  0  0
 47 51  1  0  0  0  0
 48 53  1  0  0  0  0
 49 68  1  0  0  0  0
 50 53  1  0  0  0  0
 50 68  1  0  0  0  0
 51 72  1  0  0  0  0
 52 67  1  0  0  0  0
 53 66  1  0  0  0  0
 55 63  1  0  0  0  0
 56 64  1  0  0  0  0
 57 64  1  0  0  0  0
 58 64  1  0  0  0  0
 59 74  1  0  0  0  0
 61 82  1  0  0  0  0
 62 64  1  0  0  0  0
 62 73  1  0  0  0  0
 63 74  1  0  0  0  0
 65 66  1  0  0  0  0
M  CHG  1  74   1
M  ISO  4  41 100  61 101  71 100  82 101
M  END
> <Batch ID>
0120

> <Smiles>
CNC(C)C(=O)NC(C(=O)N1Cc2cc([101O:1][101CH2:1]C(=O)CC=Cc3cc(C)cc([100NH:0][100C:0](=O)N4CCCC(n5nc(-c6ccc(Oc7ccc(F)cc7F)cc6)c(C(N)=O)c5N)C4)c3)ccc2CC1C(=O)NC1CCCc2ccccc21)C(C)(C)C

> <Shape>
0.263

> <Color>
0.188

> <Negative vol penalty>
0.000

$$$$

  -OEChem-04052301543D

 83 91  0     1  0  0  0  0  0999 V2000
  -17.0696  -26.1661   22.1411 C   0  0  0  0  0  0  0  0  0  0  0  0
  -18.2361  -25.6254   22.6725 C   0  0  0  0  0  0  0  0  0  0  0  0
  -30.9203  -19.3600   24.2839 C   0  0  0  0  0  0  0  0  0  0  0  0
  -23.8746   -9.7548   19.7941 C   0  0  0  0  0  0  0  0  0  0  0  0
  -24.4331   -9.8459   22.1429 C   0  0  0  0  0  0  0  0  0  0  0  0
  -29.8893  -19.9724   24.9963 C   0  0  0  0  0  0  0  0  0  0  0  0
  -17.1271  -27.3329   21.3801 C   0  0  0  0  0  0  0  0  0  0  0  0
  -19.4610  -26.2508   22.4424 C   0  0  0  0  0  0  0  0  0  0  0  0
  -22.2947  -26.5723   26.6271 C   0  0  0  0  0  0  0  0  0  0  0  0
  -30.6247  -18.4030   23.3131 C   0  0  0  0  0  0  0  0  0  0  0  0
  -23.4338   -8.4407   19.9498 C   0  0  0  0  0  0  0  0  0  0  0  0
  -23.9922   -8.5317   22.2986 C   0  0  0  0  0  0  0  0  0  0  0  0
  -22.9672  -25.4197   27.0307 C   0  0  0  0  0  0  0  0  0  0  0  0
  -21.0395   -6.9167   22.6048 C   0  0  0  0  0  0  0  0  0  0  0  0
  -20.2322   -6.6318   23.7060 C   0  0  0  0  0  0  0  0  0  0  0  0
  -24.9970  -26.2634   26.0372 C   0  0  0  0  0  0  0  0  0  0  0  0
  -21.8689   -5.0385   24.4936 C   0  0  0  0  0  0  0  0  0  0  0  0
  -24.3744  -10.4574   20.8906 C   0  0  0  0  0  0  0  0  0  0  0  0
  -28.5626  -19.6279   24.7380 C   0  0  0  0  0  0  0  0  0  0  0  0
  -24.0672  -12.9898   20.8664 C   0  0  0  0  0  0  0  0  0  0  0  0
  -18.3521  -27.9782   21.1486 C   0  0  0  0  0  0  0  0  0  0  0  0
  -22.9668  -27.5759   25.9147 C   0  0  0  0  0  0  0  0  0  0  0  0
  -19.5351  -27.4266   21.6765 C   0  0  0  0  0  0  0  0  0  0  0  0
  -24.3314  -27.4289   25.6279 C   0  0  0  0  0  0  0  0  0  0  0  0
  -28.2669  -18.6708   23.7672 C   0  0  0  0  0  0  0  0  0  0  0  0
  -29.2979  -18.0584   23.0548 C   0  0  0  0  0  0  0  0  0  0  0  0
  -23.4925   -7.8292   21.2021 C   0  0  0  0  0  0  0  0  0  0  0  0
  -24.3178  -25.2638   26.7333 C   0  0  0  0  0  0  0  0  0  0  0  0
  -22.2614   -6.2624   22.4479 C   0  0  0  0  0  0  0  0  0  0  0  0
  -20.6469   -5.6927   24.6505 C   0  0  0  0  0  0  0  0  0  0  0  0
  -22.6761   -5.3234   23.3923 C   0  0  0  0  0  0  0  0  0  0  0  0
  -24.8305  -11.8148   20.7302 C   0  0  0  0  0  0  0  0  0  0  0  0
  -24.9555  -14.0071   20.6166 C   0  0  0  0  0  0  0  0  0  0  0  0
  -27.4990  -20.2949   25.5096 C   0  0  0  0  0  0  0  0  0  0  0  0
  -27.2949  -21.6193   25.5367 C   0  0  0  0  0  0  0  0  0  0  0  0
  -22.6793  -13.1475   21.1898 C   0  0  0  0  0  0  0  0  0  0  0  0
  -26.1933  -22.1973   26.3601 C   0  0  0  0  0  0  0  0  0  0  0  0
  -22.6601  -28.8646   23.0253 C   0  0  0  0  0  0  0  0  0  0  0  0
  -24.9570  -30.8827   24.1087 C   0  0  0  0  0  0  0  0  0  0  0  0
  -27.5418  -31.4393   26.2664 C   0  0  0  0  0  0  0  0  0  0  0  0
  -29.9435  -16.3908   21.2804 C   0  0  0  0  0  0  0  0  0  0  0  0
  -18.3703  -29.2112   20.2802 C   0  0  0  0  0  0  0  0  0  0  0  0
  -22.2336  -28.8252   25.5097 C   0  0  0  0  0  0  0  0  0  0  0  0
  -25.1037  -28.4861   24.8833 C   0  0  0  0  0  0  0  0  0  0  0  0
  -19.6604  -30.0191   20.3965 C   0  0  0  0  0  0  0  0  0  0  0  0
  -29.6644  -13.8877   18.7637 C   0  0  0  0  0  0  0  0  0  0  0  0
  -20.8750  -29.0998   20.3160 C   0  0  0  0  0  0  0  0  0  0  0  0
  -28.3192  -13.2219   19.0621 C   0  0  0  0  0  0  0  0  0  0  0  0
  -30.3977  -14.2836   20.0440 C   0  0  0  0  0  0  0  0  0  0  0  0
  -28.2708  -14.4369   21.2776 C   0  0  0  0  0  0  0  0  0  0  0  0
  -20.8797  -28.0896   21.4696 C   0  0  1  0  0  0  0  0  0  0  0  0
  -22.8919  -29.5521   24.3411 C   0  0  1  0  0  0  0  0  0  0  0  0
  -27.4659  -14.0790   20.0176 C   0  0  2  0  0  0  0  0  0  0  0  0
  -26.8441  -18.2956   23.4843 C   0  0  0  0  0  0  0  0  0  0  0  0
  -29.2505  -33.1685   26.8892 C   0  0  0  0  0  0  0  0  0  0  0  0
  -26.5753  -30.1765   21.6203 C   0  0  0  0  0  0  0  0  0  0  0  0
  -28.5923  -31.1473   22.7415 C   0  0  0  0  0  0  0  0  0  0  0  0
  -26.6247  -32.5977   22.2443 C   0  0  0  0  0  0  0  0  0  0  0  0
  -26.4888  -31.6544   29.0239 C   0  0  0  0  0  0  0  0  0  0  0  0
  -26.0632  -23.7050   26.3091 C   0  0  0  0  0  0  0  0  0  1  0  0
  -26.4666  -30.8878   24.0998 C   0  0  1  0  0  0  0  0  0  0  0  0
  -27.8627  -32.6146   27.1721 C   0  0  2  0  0  0  0  0  0  0  0  0
  -27.0500  -31.1813   22.6888 C   0  0  0  0  0  0  0  0  0  0  0  0
  -26.1055  -12.0614   20.4180 N   0  0  0  0  0  0  0  0  0  0  0  0
  -26.1502  -13.4032   20.3558 N   0  0  0  0  0  0  0  0  0  0  0  0
  -24.3410  -29.6866   24.5032 N   0  0  0  0  0  0  0  0  0  0  0  0
  -29.5295  -15.0973   20.8978 N   0  0  0  0  0  0  0  0  0  0  0  0
  -24.8233  -15.3505   20.5967 N   0  0  0  0  0  0  0  0  0  0  0  0
  -21.9111  -11.9973   21.4162 N   0  0  0  0  0  0  0  0  0  0  0  0
  -29.0216  -17.0827   22.0651 N   0  0  0  0  0  0  0  0  0  0  0  0
  -21.3266  -28.7211   22.6927 N   0  0  0  0  0  0  0  0  0  0  0  0
  -26.8777  -31.8395   25.1263 N   0  0  0  0  0  0  0  0  0  0  0  0
  -27.8055  -32.1976   28.6017 N   0  3  0  0  0  0  0  0  0  0  0  0
  -22.1326  -14.2744   21.2593 O   0  0  0  0  0  0  0  0  0  0  0  0
  -25.4438  -21.4945   27.0327 O   0  0  0  0  0  0  0  0  0  0  0  0
  -23.6201  -28.4933   22.3603 O   0  0  0  0  0  0  0  0  0  0  0  0
  -24.3470  -31.9047   23.7846 O   0  0  0  0  0  0  0  0  0  0  0  0
  -27.8528  -30.2824   26.5410 O   0  0  0  0  0  0  0  0  0  0  0  0
  -31.0238  -16.8611   20.9145 O   0  0  0  0  0  0  0  0  0  0  0  0
  -23.0621   -6.5469   21.3545 O   0  0  0  0  0  0  0  0  0  0  0  0
  -24.9765  -24.1394   27.1256 O   0  0  0  0  0  0  0  0  0  1  0  0
  -19.8723   -5.4204   25.7087 F   0  0  0  0  0  0  0  0  0  0  0  0
  -23.8495   -4.6926   23.2476 F   0  0  0  0  0  0  0  0  0  0  0  0
  1  2  1  0  0  0  0
  1  7  2  0  0  0  0
  2  8  2  0  0  0  0
  3  6  2  0  0  0  0
  3 10  1  0  0  0  0
  4 11  2  0  0  0  0
  4 18  1  0  0  0  0
  5 12  1  0  0  0  0
  5 18  2  0  0  0  0
  6 19  1  0  0  0  0
  7 21  1  0  0  0  0
  8 23  1  0  0  0  0
  9 13  2  0  0  0  0
  9 22  1  0  0  0  0
 10 26  2  0  0  0  0
 11 27  1  0  0  0  0
 12 27  2  0  0  0  0
 13 28  1  0  0  0  0
 14 15  2  0  0  0  0
 14 29  1  0  0  0  0
 15 30  1  0  0  0  0
 16 24  1  0  0  0  0
 16 28  2  0  0  0  0
 17 30  2  0  0  0  0
 17 31  1  0  0  0  0
 18 32  1  0  0  0  0
 19 25  2  0  0  0  0
 19 34  1  0  0  0  0
 20 32  1  0  0  0  0
 20 33  2  0  0  0  0
 20 36  1  0  0  0  0
 21 23  2  0  0  0  0
 21 42  1  0  0  0  0
 22 24  2  0  0  0  0
 22 43  1  0  0  0  0
 23 51  1  0  0  0  0
 24 44  1  0  0  0  0
 25 26  1  0  0  0  0
 25 54  1  0  0  0  0
 26 70  1  0  0  0  0
 27 80  1  0  0  0  0
 28 81  1  0  0  0  0
 29 31  2  0  0  0  0
 29 80  1  0  0  0  0
 30 82  1  0  0  0  0
 31 83  1  0  0  0  0
 32 64  2  0  0  0  0
 33 65  1  0  0  0  0
 33 68  1  0  0  0  0
 34 35  2  0  0  0  0
 35 37  1  0  0  0  0
 36 69  1  0  0  0  0
 36 74  2  0  0  0  0
 37 60  1  0  0  0  0
 37 75  2  0  0  0  0
 38 52  1  0  0  0  0
 38 71  1  0  0  0  0
 38 76  2  0  0  0  0
 39 61  1  0  0  0  0
 39 66  1  0  0  0  0
 39 77  2  0  0  0  0
 40 62  1  0  0  0  0
 40 72  1  0  0  0  0
 40 78  2  0  0  0  0
 41 67  1  0  0  0  0
 41 70  1  0  0  0  0
 41 79  2  0  0  0  0
 42 45  1  0  0  0  0
 43 52  1  0  0  0  0
 44 66  1  0  0  0  0
 45 47  1  0  0  0  0
 46 48  1  0  0  0  0
 46 49  1  0  0  0  0
 47 51  1  0  0  0  0
 48 53  1  0  0  0  0
 49 67  1  0  0  0  0
 50 53  1  0  0  0  0
 50 67  1  0  0  0  0
 51 71  1  0  0  0  0
 52 66  1  0  0  0  0
 53 65  1  0  0  0  0
 55 62  1  0  0  0  0
 56 63  1  0  0  0  0
 57 63  1  0  0  0  0
 58 63  1  0  0  0  0
 59 73  1  0  0  0  0
 60 81  1  0  0  0  0
 61 63  1  0  0  0  0
 61 72  1  0  0  0  0
 62 73  1  0  0  0  0
 64 65  1  0  0  0  0
M  CHG  1  73   1
M  ISO  4  41 100  60 101  70 100  81 101
M  END
> <Batch ID>
0120

> <Smiles>
CNC(C)C(=O)NC(C(=O)N1Cc2cc([101O:1][101CH2:1]C(=O)C=Cc3cccc([100NH:0][100C:0](=O)N4CCCC(n5nc(-c6ccc(Oc7ccc(F)cc7F)cc6)c(C(N)=O)c5N)C4)c3C)ccc2CC1C(=O)NC1CCCc2ccccc21)C(C)(C)C

> <Shape>
0.286

> <Color>
0.148

> <Negative vol penalty>
0.000

$$$$

  -OEChem-04052301543D

 84 92  0     1  0  0  0  0  0999 V2000
  -28.7438  -39.8500   22.8179 C   0  0  0  0  0  0  0  0  0  0  0  0
  -29.2657  -38.6587   22.3240 C   0  0  0  0  0  0  0  0  0  0  0  0
  -24.4006   -9.2642   22.1638 C   0  0  0  0  0  0  0  0  0  0  0  0
  -24.2507   -8.7493   19.8080 C   0  0  0  0  0  0  0  0  0  0  0  0
  -28.3768  -22.2820   21.0795 C   0  0  0  0  0  0  0  0  0  0  0  0
  -28.0221  -20.9598   21.3468 C   0  0  0  0  0  0  0  0  0  0  0  0
  -27.8928  -39.8321   23.9222 C   0  0  0  0  0  0  0  0  0  0  0  0
  -28.9377  -37.4488   22.9348 C   0  0  0  0  0  0  0  0  0  0  0  0
  -28.1788  -32.0264   20.1914 C   0  0  0  0  0  0  0  0  0  0  0  0
  -23.2404   -8.5265   22.3988 C   0  0  0  0  0  0  0  0  0  0  0  0
  -23.0904   -8.0117   20.0431 C   0  0  0  0  0  0  0  0  0  0  0  0
  -29.0226  -30.9274   20.0361 C   0  0  0  0  0  0  0  0  0  0  0  0
  -22.3772   -5.2717   22.7056 C   0  0  0  0  0  0  0  0  0  0  0  0
  -22.3746   -4.3960   23.7912 C   0  0  0  0  0  0  0  0  0  0  0  0
  -30.3908  -21.5204   19.9837 C   0  0  0  0  0  0  0  0  0  0  0  0
  -28.0139  -29.8880   21.9652 C   0  0  0  0  0  0  0  0  0  0  0  0
  -20.5172   -5.6008   24.7586 C   0  0  0  0  0  0  0  0  0  0  0  0
  -24.9058   -9.3756   20.8683 C   0  0  0  0  0  0  0  0  0  0  0  0
  -29.5611  -22.5624   20.3979 C   0  0  0  0  0  0  0  0  0  0  0  0
  -28.8518  -19.9178   20.9325 C   0  0  0  0  0  0  0  0  0  0  0  0
  -27.4302   -9.6661   20.6433 C   0  0  0  0  0  0  0  0  0  0  0  0
  -27.5465  -38.6205   24.5409 C   0  0  0  0  0  0  0  0  0  0  0  0
  -27.2521  -32.0693   21.2430 C   0  0  0  0  0  0  0  0  0  0  0  0
  -28.0823  -37.4148   24.0492 C   0  0  0  0  0  0  0  0  0  0  0  0
  -27.1577  -30.9875   22.1301 C   0  0  0  0  0  0  0  0  0  0  0  0
  -30.0361  -20.1981   20.2509 C   0  0  0  0  0  0  0  0  0  0  0  0
  -22.5853   -7.9003   21.3385 C   0  0  0  0  0  0  0  0  0  0  0  0
  -28.9422  -29.8593   20.9248 C   0  0  0  0  0  0  0  0  0  0  0  0
  -21.4498   -6.3121   22.6465 C   0  0  0  0  0  0  0  0  0  0  0  0
  -21.4446   -4.5605   24.8177 C   0  0  0  0  0  0  0  0  0  0  0  0
  -20.5198   -6.4765   23.6730 C   0  0  0  0  0  0  0  0  0  0  0  0
  -26.1040  -10.1379   20.6248 C   0  0  0  0  0  0  0  0  0  0  0  0
  -28.1919  -10.7713   20.3524 C   0  0  0  0  0  0  0  0  0  0  0  0
  -29.9354  -23.9596   20.1168 C   0  0  0  0  0  0  0  0  0  0  0  0
  -28.4537  -18.5474   21.2262 C   0  0  0  0  0  0  0  0  0  0  0  0
  -29.4497  -25.0240   20.7707 C   0  0  0  0  0  0  0  0  0  0  0  0
  -27.3288  -17.9493   20.7840 C   0  0  0  0  0  0  0  0  0  0  0  0
  -27.9289   -8.3467   20.9003 C   0  0  0  0  0  0  0  0  0  0  0  0
  -29.8869  -26.4018   20.4017 C   0  0  0  0  0  0  0  0  0  0  0  0
  -27.0698  -16.5453   21.1615 C   0  0  0  0  0  0  0  0  0  0  0  0
  -26.7947  -33.9641   23.7537 C   0  0  0  0  0  0  0  0  0  0  0  0
  -24.1187  -32.1694   24.1291 C   0  0  0  0  0  0  0  0  0  0  0  0
  -22.5030  -29.2203   23.5472 C   0  0  0  0  0  0  0  0  0  0  0  0
  -26.6607  -38.6556   25.7610 C   0  0  0  0  0  0  0  0  0  0  0  0
  -26.3306  -33.2501   21.3808 C   0  0  0  0  0  0  0  0  0  0  0  0
  -26.1659  -30.9757   23.2636 C   0  0  0  0  0  0  0  0  0  0  0  0
  -26.0643  -37.2971   26.1201 C   0  0  0  0  0  0  0  0  0  0  0  0
  -28.0382  -14.9286   18.0182 C   0  0  0  0  0  0  0  0  0  0  0  0
  -27.1381  -36.2146   26.0774 C   0  0  0  0  0  0  0  0  0  0  0  0
  -27.7222  -13.4682   18.3296 C   0  0  0  0  0  0  0  0  0  0  0  0
  -27.0566  -15.8832   18.6963 C   0  0  0  0  0  0  0  0  0  0  0  0
  -26.6316  -14.2177   20.4812 C   0  0  0  0  0  0  0  0  0  0  0  0
  -27.7303  -36.0800   24.6693 C   0  0  1  0  0  0  0  0  0  0  0  0
  -25.7780  -33.4151   22.7932 C   0  0  1  0  0  0  0  0  0  0  0  0
  -27.6351  -13.2417   19.8473 C   0  0  1  0  0  0  0  0  0  0  0  0
  -30.9498  -19.1070   19.7929 C   0  0  0  0  0  0  0  0  0  0  0  0
  -20.3408  -28.0339   24.0108 C   0  0  0  0  0  0  0  0  0  0  0  0
  -25.0247  -31.6433   26.9948 C   0  0  0  0  0  0  0  0  0  0  0  0
  -23.3916  -29.7480   27.0892 C   0  0  0  0  0  0  0  0  0  0  0  0
  -22.5754  -32.0790   26.7384 C   0  0  0  0  0  0  0  0  0  0  0  0
  -21.8716  -28.9999   20.6642 C   0  0  0  0  0  0  0  0  0  0  0  0
  -29.2683  -27.5212   21.2122 C   0  0  0  0  0  0  0  0  0  1  0  0
  -23.7819  -30.8922   24.8600 C   0  0  1  0  0  0  0  0  0  0  0  0
  -21.1039  -28.9213   23.0398 C   0  0  2  0  0  0  0  0  0  0  0  0
  -23.7135  -31.0914   26.4005 C   0  0  0  0  0  0  0  0  0  0  0  0
  -26.0243  -11.4414   20.3445 N   0  0  0  0  0  0  0  0  0  0  0  0
  -27.3101  -11.7981   20.1842 N   0  0  0  0  0  0  0  0  0  0  0  0
  -26.9468  -15.6086   20.1369 N   0  0  0  0  0  0  0  0  0  0  0  0
  -25.2912  -32.1559   23.3603 N   0  0  0  0  0  0  0  0  0  0  0  0
  -29.5234  -10.9554   20.2267 N   0  0  0  0  0  0  0  0  0  0  0  0
  -27.0088   -7.3278   21.1823 N   0  0  0  0  0  0  0  0  0  0  0  0
  -26.8278  -35.3444   23.8097 N   0  0  0  0  0  0  0  0  0  0  0  0
  -22.5451  -30.3961   24.2662 N   0  0  0  0  0  0  0  0  0  0  0  0
  -21.1679  -28.2292   21.7215 N   0  3  0  0  0  0  0  0  0  0  0  0
  -29.1552   -8.0827   20.8967 O   0  0  0  0  0  0  0  0  0  0  0  0
  -30.6948  -26.6105   19.5007 O   0  0  0  0  0  0  0  0  0  0  0  0
  -26.9733  -16.2881   22.3629 O   0  0  0  0  0  0  0  0  0  0  0  0
  -27.4960  -33.1926   24.3976 O   0  0  0  0  0  0  0  0  0  0  0  0
  -23.3655  -33.1410   24.2306 O   0  0  0  0  0  0  0  0  0  0  0  0
  -23.4618  -28.4825   23.3309 O   0  0  0  0  0  0  0  0  0  0  0  0
  -21.4532   -7.1802   21.5676 O   0  0  0  0  0  0  0  0  0  0  0  0
  -29.7651  -28.7858   20.7760 O   0  0  0  0  0  0  0  0  0  1  0  0
  -21.4412   -3.7185   25.8595 F   0  0  0  0  0  0  0  0  0  0  0  0
  -19.6257   -7.4734   23.6211 F   0  0  0  0  0  0  0  0  0  0  0  0
  1  2  1  0  0  0  0
  1  7  2  0  0  0  0
  2  8  2  0  0  0  0
  3 10  2  0  0  0  0
  3 18  1  0  0  0  0
  4 11  1  0  0  0  0
  4 18  2  0  0  0  0
  5  6  2  0  0  0  0
  5 19  1  0  0  0  0
  6 20  1  0  0  0  0
  7 22  1  0  0  0  0
  8 24  1  0  0  0  0
  9 12  2  0  0  0  0
  9 23  1  0  0  0  0
 10 27  1  0  0  0  0
 11 27  2  0  0  0  0
 12 28  1  0  0  0  0
 13 14  2  0  0  0  0
 13 29  1  0  0  0  0
 14 30  1  0  0  0  0
 15 19  2  0  0  0  0
 15 26  1  0  0  0  0
 16 25  1  0  0  0  0
 16 28  2  0  0  0  0
 17 30  2  0  0  0  0
 17 31  1  0  0  0  0
 18 32  1  0  0  0  0
 19 34  1  0  0  0  0
 20 26  2  0  0  0  0
 20 35  1  0  0  0  0
 21 32  1  0  0  0  0
 21 33  2  0  0  0  0
 21 38  1  0  0  0  0
 22 24  2  0  0  0  0
 22 44  1  0  0  0  0
 23 25  2  0  0  0  0
 23 45  1  0  0  0  0
 24 53  1  0  0  0  0
 25 46  1  0  0  0  0
 26 56  1  0  0  0  0
 27 81  1  0  0  0  0
 28 82  1  0  0  0  0
 29 31  2  0  0  0  0
 29 81  1  0  0  0  0
 30 83  1  0  0  0  0
 31 84  1  0  0  0  0
 32 66  2  0  0  0  0
 33 67  1  0  0  0  0
 33 70  1  0  0  0  0
 34 36  2  0  0  0  0
 35 37  2  0  0  0  0
 36 39  1  0  0  0  0
 37 40  1  0  0  0  0
 38 71  1  0  0  0  0
 38 75  2  0  0  0  0
 39 62  1  0  0  0  0
 39 76  2  0  0  0  0
 40 68  1  0  0  0  0
 40 77  2  0  0  0  0
 41 54  1  0  0  0  0
 41 72  1  0  0  0  0
 41 78  2  0  0  0  0
 42 63  1  0  0  0  0
 42 69  1  0  0  0  0
 42 79  2  0  0  0  0
 43 64  1  0  0  0  0
 43 73  1  0  0  0  0
 43 80  2  0  0  0  0
 44 47  1  0  0  0  0
 45 54  1  0  0  0  0
 46 69  1  0  0  0  0
 47 49  1  0  0  0  0
 48 50  1  0  0  0  0
 48 51  1  0  0  0  0
 49 53  1  0  0  0  0
 50 55  1  0  0  0  0
 51 68  1  0  0  0  0
 52 55  1  0  0  0  0
 52 68  1  0  0  0  0
 53 72  1  0  0  0  0
 54 69  1  0  0  0  0
 55 67  1  0  0  0  0
 57 64  1  0  0  0  0
 58 65  1  0  0  0  0
 59 65  1  0  0  0  0
 60 65  1  0  0  0  0
 61 74  1  0  0  0  0
 62 82  1  0  0  0  0
 63 65  1  0  0  0  0
 63 73  1  0  0  0  0
 64 74  1  0  0  0  0
 66 67  1  0  0  0  0
M  CHG  1  74   1
M  ISO  4  37 100  40 100  62 101  82 101
M  END
> <Batch ID>
0120

> <Smiles>
CNC(C)C(=O)NC(C(=O)N1Cc2cc([101O:1][101CH2:1]C(=O)C=Cc3ccc(C=[100CH:0][100C:0](=O)N4CCCC(n5nc(-c6ccc(Oc7ccc(F)cc7F)cc6)c(C(N)=O)c5N)C4)c(C)c3)ccc2CC1C(=O)NC1CCCc2ccccc21)C(C)(C)C

> <Shape>
0.315

> <Color>
0.097

> <Negative vol penalty>
0.000

$$$$

  -OEChem-04052301543D

 86 94  0     1  0  0  0  0  0999 V2000
  -20.6964  -25.7057   25.7621 C   0  0  0  0  0  0  0  0  0  0  0  0
  -21.7402  -25.5117   24.8632 C   0  0  0  0  0  0  0  0  0  0  0  0
  -24.3789  -13.9458   24.0717 C   0  0  0  0  0  0  0  0  0  0  0  0
  -23.8392  -15.7477   22.5555 C   0  0  0  0  0  0  0  0  0  0  0  0
  -29.0962  -17.1871   19.4191 C   0  0  0  0  0  0  0  0  0  0  0  0
  -19.5951  -26.4774   25.3939 C   0  0  0  0  0  0  0  0  0  0  0  0
  -21.6830  -26.0886   23.5950 C   0  0  0  0  0  0  0  0  0  0  0  0
  -26.0565  -28.2574   22.2481 C   0  0  0  0  0  0  0  0  0  0  0  0
  -23.8939  -14.6997   25.1404 C   0  0  0  0  0  0  0  0  0  0  0  0
  -23.3542  -16.5016   23.6242 C   0  0  0  0  0  0  0  0  0  0  0  0
  -29.1311  -18.4474   20.0158 C   0  0  0  0  0  0  0  0  0  0  0  0
  -27.0771  -27.4143   21.8106 C   0  0  0  0  0  0  0  0  0  0  0  0
  -22.3049  -19.0427   26.0015 C   0  0  0  0  0  0  0  0  0  0  0  0
  -22.6780  -20.3850   26.0702 C   0  0  0  0  0  0  0  0  0  0  0  0
  -26.5325  -27.9520   19.5229 C   0  0  0  0  0  0  0  0  0  0  0  0
  -29.7556  -19.4320   17.8998 C   0  0  0  0  0  0  0  0  0  0  0  0
  -25.0012  -19.7330   26.1919 C   0  0  0  0  0  0  0  0  0  0  0  0
  -24.3516  -14.4698   22.7793 C   0  0  0  0  0  0  0  0  0  0  0  0
  -29.3910  -17.0493   18.0627 C   0  0  0  0  0  0  0  0  0  0  0  0
  -24.1272  -12.7954   20.8678 C   0  0  0  0  0  0  0  0  0  0  0  0
  -19.5288  -27.0720   24.1239 C   0  0  0  0  0  0  0  0  0  0  0  0
  -25.2578  -28.9468   21.3244 C   0  0  0  0  0  0  0  0  0  0  0  0
  -20.5793  -26.8679   23.2089 C   0  0  0  0  0  0  0  0  0  0  0  0
  -25.5041  -28.8052   19.9513 C   0  0  0  0  0  0  0  0  0  0  0  0
  -29.7207  -18.1717   17.3031 C   0  0  0  0  0  0  0  0  0  0  0  0
  -23.3815  -15.9776   24.9166 C   0  0  0  0  0  0  0  0  0  0  0  0
  -27.3134  -27.2593   20.4478 C   0  0  0  0  0  0  0  0  0  0  0  0
  -29.4608  -19.5698   19.2562 C   0  0  0  0  0  0  0  0  0  0  0  0
  -23.2800  -18.0455   26.0282 C   0  0  0  0  0  0  0  0  0  0  0  0
  -24.0262  -20.7301   26.1653 C   0  0  0  0  0  0  0  0  0  0  0  0
  -24.6281  -18.3907   26.1233 C   0  0  0  0  0  0  0  0  0  0  0  0
  -24.8530  -13.6918   21.6751 C   0  0  0  0  0  0  0  0  0  0  0  0
  -25.0501  -12.3174   19.9699 C   0  0  0  0  0  0  0  0  0  0  0  0
  -29.1785  -24.2273   19.9795 C   0  0  0  0  0  0  0  0  0  0  0  0
  -28.6252  -23.0109   19.8677 C   0  0  0  0  0  0  0  0  0  0  0  0
  -29.3478  -15.7213   17.4657 C   0  0  0  0  0  0  0  0  0  0  0  0
  -22.7425  -12.4278   20.9245 C   0  0  0  0  0  0  0  0  0  0  0  0
  -30.2203  -14.6291   17.9546 C   0  0  0  0  0  0  0  0  0  0  0  0
  -22.1612  -28.9606   20.6068 C   0  0  0  0  0  0  0  0  0  0  0  0
  -23.0202  -31.4148   18.6674 C   0  0  0  0  0  0  0  0  0  0  0  0
  -25.4772  -32.9783   16.8883 C   0  0  0  0  0  0  0  0  0  0  0  0
  -18.2964  -27.8588   23.7542 C   0  0  0  0  0  0  0  0  0  0  0  0
  -24.1782  -29.8731   21.8131 C   0  0  0  0  0  0  0  0  0  0  0  0
  -24.6881  -29.5387   18.9195 C   0  0  0  0  0  0  0  0  0  0  0  0
  -18.4851  -28.7447   22.5255 C   0  0  0  0  0  0  0  0  0  0  0  0
  -29.7190  -11.4309   19.4962 C   0  0  0  0  0  0  0  0  0  0  0  0
  -19.1688  -27.9661   21.4060 C   0  0  0  0  0  0  0  0  0  0  0  0
  -28.3648  -11.5811   20.1886 C   0  0  0  0  0  0  0  0  0  0  0  0
  -30.5015  -12.7400   19.5105 C   0  0  0  0  0  0  0  0  0  0  0  0
  -28.3980  -14.0490   19.6112 C   0  0  0  0  0  0  0  0  0  0  0  0
  -20.5652  -27.4977   21.8329 C   0  0  1  0  0  0  0  0  0  0  0  0
  -23.0929  -30.1279   20.7716 C   0  0  1  0  0  0  0  0  0  0  0  0
  -27.5669  -12.7543   19.5923 C   0  0  2  0  0  0  0  0  0  0  0  0
  -29.2091  -18.4178   13.4843 C   0  0  0  0  0  0  0  0  0  0  0  0
  -25.8678  -34.9403   15.3731 C   0  0  0  0  0  0  0  0  0  0  0  0
  -21.6763  -29.9111   16.3777 C   0  0  0  0  0  0  0  0  0  0  0  0
  -22.8960  -31.3999   14.7765 C   0  0  0  0  0  0  0  0  0  0  0  0
  -21.2639  -32.3777   16.3899 C   0  0  0  0  0  0  0  0  0  0  0  0
  -27.4281  -34.1829   18.7596 C   0  0  0  0  0  0  0  0  0  0  0  0
  -30.0396  -18.0522   15.8484 C   0  0  0  0  0  0  0  0  0  0  0  0
  -28.6244  -25.3144   20.8412 C   0  0  0  0  0  0  0  0  0  1  0  0
  -29.1856  -21.9197   19.0152 C   0  0  0  0  0  0  0  0  0  0  0  0
  -28.8706  -18.5084   14.9638 C   0  0  0  0  0  0  0  0  0  0  0  0
  -23.4911  -31.5335   17.2380 C   0  0  1  0  0  0  0  0  0  0  0  0
  -25.8900  -34.4370   16.8080 C   0  0  2  0  0  0  0  0  0  0  0  0
  -22.3461  -31.2901   16.2147 C   0  0  0  0  0  0  0  0  0  0  0  0
  -26.1380  -13.7796   21.3213 N   0  0  0  0  0  0  0  0  0  0  0  0
  -28.5529  -15.4066   16.4805 N   0  0  0  0  0  0  0  0  0  0  0  0
  -26.2269  -12.9323   20.2820 N   0  0  0  0  0  0  0  0  0  0  0  0
  -29.7030  -13.8391   18.9716 N   0  0  0  0  0  0  0  0  0  0  0  0
  -23.6400  -30.4279   19.4469 N   0  0  0  0  0  0  0  0  0  0  0  0
  -24.9618  -11.4353   18.9519 N   0  0  0  0  0  0  0  0  0  0  0  0
  -21.9355  -13.0137   21.9093 N   0  0  0  0  0  0  0  0  0  0  0  0
  -21.5079  -28.5938   21.7678 N   0  0  0  0  0  0  0  0  0  0  0  0
  -24.1256  -32.8423   17.1246 N   0  0  0  0  0  0  0  0  0  0  0  0
  -27.2677  -34.6158   17.3475 N   0  3  0  0  0  0  0  0  0  0  0  0
  -22.2396  -11.5918   20.1360 O   0  0  0  0  0  0  0  0  0  0  0  0
  -31.3111  -14.5400   17.4064 O   0  0  0  0  0  0  0  0  0  0  0  0
  -22.0428  -28.4327   19.5072 O   0  0  0  0  0  0  0  0  0  0  0  0
  -22.1400  -32.1747   19.0792 O   0  0  0  0  0  0  0  0  0  0  0  0
  -26.2734  -32.0522   16.7510 O   0  0  0  0  0  0  0  0  0  0  0  0
  -22.9080  -16.7134   25.9591 O   0  0  0  0  0  0  0  0  0  0  0  0
  -28.3085  -26.4365   20.0181 O   0  0  0  0  0  0  0  0  0  1  0  0
  -29.4980  -20.8082   19.8430 O   0  0  0  0  0  0  0  0  0  0  0  0
  -24.3844  -22.0192   26.2297 F   0  0  0  0  0  0  0  0  0  0  0  0
  -25.5694  -17.4372   26.1481 F   0  0  0  0  0  0  0  0  0  0  0  0
  1  2  1  0  0  0  0
  1  6  2  0  0  0  0
  2  7  2  0  0  0  0
  3  9  2  0  0  0  0
  3 18  1  0  0  0  0
  4 10  1  0  0  0  0
  4 18  2  0  0  0  0
  5 11  2  0  0  0  0
  5 19  1  0  0  0  0
  6 21  1  0  0  0  0
  7 23  1  0  0  0  0
  8 12  2  0  0  0  0
  8 22  1  0  0  0  0
  9 26  1  0  0  0  0
 10 26  2  0  0  0  0
 11 28  1  0  0  0  0
 12 27  1  0  0  0  0
 13 14  2  0  0  0  0
 13 29  1  0  0  0  0
 14 30  1  0  0  0  0
 15 24  1  0  0  0  0
 15 27  2  0  0  0  0
 16 25  1  0  0  0  0
 16 28  2  0  0  0  0
 17 30  2  0  0  0  0
 17 31  1  0  0  0  0
 18 32  1  0  0  0  0
 19 25  2  0  0  0  0
 19 36  1  0  0  0  0
 20 32  1  0  0  0  0
 20 33  2  0  0  0  0
 20 37  1  0  0  0  0
 21 23  2  0  0  0  0
 21 42  1  0  0  0  0
 22 24  2  0  0  0  0
 22 43  1  0  0  0  0
 23 51  1  0  0  0  0
 24 44  1  0  0  0  0
 25 60  1  0  0  0  0
 26 82  1  0  0  0  0
 27 83  1  0  0  0  0
 28 84  1  0  0  0  0
 29 31  2  0  0  0  0
 29 82  1  0  0  0  0
 30 85  1  0  0  0  0
 31 86  1  0  0  0  0
 32 67  2  0  0  0  0
 33 69  1  0  0  0  0
 33 72  1  0  0  0  0
 34 35  2  0  0  0  0
 34 61  1  0  0  0  0
 35 62  1  0  0  0  0
 36 38  1  0  0  0  0
 36 68  2  0  0  0  0
 37 73  1  0  0  0  0
 37 77  2  0  0  0  0
 38 70  1  0  0  0  0
 38 78  2  0  0  0  0
 39 52  1  0  0  0  0
 39 74  1  0  0  0  0
 39 79  2  0  0  0  0
 40 64  1  0  0  0  0
 40 71  1  0  0  0  0
 40 80  2  0  0  0  0
 41 65  1  0  0  0  0
 41 75  1  0  0  0  0
 41 81  2  0  0  0  0
 42 45  1  0  0  0  0
 43 52  1  0  0  0  0
 44 71  1  0  0  0  0
 45 47  1  0  0  0  0
 46 48  1  0  0  0  0
 46 49  1  0  0  0  0
 47 51  1  0  0  0  0
 48 53  1  0  0  0  0
 49 70  1  0  0  0  0
 50 53  1  0  0  0  0
 50 70  1  0  0  0  0
 51 74  1  0  0  0  0
 52 71  1  0  0  0  0
 53 69  1  0  0  0  0
 54 63  1  0  0  0  0
 55 65  1  0  0  0  0
 56 66  1  0  0  0  0
 57 66  1  0  0  0  0
 58 66  1  0  0  0  0
 59 76  1  0  0  0  0
 60 63  1  0  0  0  0
 61 83  1  0  0  0  0
 62 84  1  0  0  0  0
 64 66  1  0  0  0  0
 64 75  1  0  0  0  0
 65 76  1  0  0  0  0
 67 69  1  0  0  0  0
M  CHG  1  76   1
M  ISO  4  36 100  38 100  61 101  83 101
M  END
> <Batch ID>
0120

> <Smiles>
CCCc1cc(OCC=C[101CH2:1][101O:1]c2ccc3c(c2)CN(C(=O)C(NC(=O)C(C)NC)C(C)(C)C)C(C(=O)NC2CCCc4ccccc42)C3)ccc1[100C:0](=N)[100C:0](=O)N1CCCC(n2nc(-c3ccc(Oc4ccc(F)cc4F)cc3)c(C(N)=O)c2N)C1

> <Shape>
0.225

> <Color>
0.137

> <Negative vol penalty>
0.000

$$$$

  -OEChem-04052301543D

 86 94  0     1  0  0  0  0  0999 V2000
  -27.7058  -19.2016   15.4474 C   0  0  0  0  0  0  0  0  0  0  0  0
  -28.3867  -18.3215   16.2825 C   0  0  0  0  0  0  0  0  0  0  0  0
  -28.7690  -16.6945   23.3762 C   0  0  0  0  0  0  0  0  0  0  0  0
  -24.4733  -29.1196   19.9957 C   0  0  0  0  0  0  0  0  0  0  0  0
  -26.0081  -30.3878   21.3642 C   0  0  0  0  0  0  0  0  0  0  0  0
  -28.2778  -17.9239   22.9370 C   0  0  0  0  0  0  0  0  0  0  0  0
  -29.7800  -16.0518   22.6616 C   0  0  0  0  0  0  0  0  0  0  0  0
  -26.4150  -19.6142   15.7753 C   0  0  0  0  0  0  0  0  0  0  0  0
  -27.7775  -17.8543   17.4465 C   0  0  0  0  0  0  0  0  0  0  0  0
  -28.4008  -12.8714   18.1001 C   0  0  0  0  0  0  0  0  0  0  0  0
  -23.4330  -29.9670   20.3770 C   0  0  0  0  0  0  0  0  0  0  0  0
  -24.9679  -31.2353   21.7455 C   0  0  0  0  0  0  0  0  0  0  0  0
  -29.6362  -12.4422   18.5830 C   0  0  0  0  0  0  0  0  0  0  0  0
  -22.3761  -31.1781   23.9158 C   0  0  0  0  0  0  0  0  0  0  0  0
  -22.2714  -31.5083   25.2669 C   0  0  0  0  0  0  0  0  0  0  0  0
  -28.6947  -12.2401   20.7948 C   0  0  0  0  0  0  0  0  0  0  0  0
  -22.5393  -33.8455   24.7165 C   0  0  0  0  0  0  0  0  0  0  0  0
  -25.7608  -29.3299   20.4894 C   0  0  0  0  0  0  0  0  0  0  0  0
  -28.7975  -18.5107   21.7832 C   0  0  0  0  0  0  0  0  0  0  0  0
  -30.2997  -16.6386   21.5078 C   0  0  0  0  0  0  0  0  0  0  0  0
  -27.6952  -28.6065   18.9918 C   0  0  0  0  0  0  0  0  0  0  0  0
  -25.7860  -19.1443   16.9390 C   0  0  0  0  0  0  0  0  0  0  0  0
  -27.3040  -12.9988   18.9645 C   0  0  0  0  0  0  0  0  0  0  0  0
  -26.4775  -18.2621   17.7910 C   0  0  0  0  0  0  0  0  0  0  0  0
  -27.4457  -12.6687   20.3199 C   0  0  0  0  0  0  0  0  0  0  0  0
  -29.8085  -17.8680   21.0686 C   0  0  0  0  0  0  0  0  0  0  0  0
  -23.6803  -31.0249   21.2518 C   0  0  0  0  0  0  0  0  0  0  0  0
  -29.7841  -12.1293   19.9311 C   0  0  0  0  0  0  0  0  0  0  0  0
  -22.5625  -32.1815   22.9650 C   0  0  0  0  0  0  0  0  0  0  0  0
  -22.3530  -32.8420   25.6673 C   0  0  0  0  0  0  0  0  0  0  0  0
  -22.6441  -33.5152   23.3653 C   0  0  0  0  0  0  0  0  0  0  0  0
  -26.8357  -28.4545   20.0964 C   0  0  0  0  0  0  0  0  0  0  0  0
  -28.5344  -27.5212   19.0579 C   0  0  0  0  0  0  0  0  0  0  0  0
  -28.2602  -19.7956   21.3535 C   0  0  0  0  0  0  0  0  0  0  0  0
  -31.3656  -15.9313   20.7792 C   0  0  0  0  0  0  0  0  0  0  0  0
  -28.3042  -20.9380   22.0683 C   0  0  0  0  0  0  0  0  0  0  0  0
  -32.5529  -15.5778   21.2965 C   0  0  0  0  0  0  0  0  0  0  0  0
  -33.2451  -12.3549   20.7562 C   0  0  0  0  0  0  0  0  0  0  0  0
  -27.7318  -29.6367   17.9953 C   0  0  0  0  0  0  0  0  0  0  0  0
  -33.9020  -13.4827   21.0913 C   0  0  0  0  0  0  0  0  0  0  0  0
  -27.7225  -22.1658   21.4895 C   0  0  0  0  0  0  0  0  0  0  0  0
  -25.4595  -15.4097   19.9076 C   0  0  0  0  0  0  0  0  0  0  0  0
  -23.7878  -13.0462   21.3712 C   0  0  0  0  0  0  0  0  0  0  0  0
  -23.7711   -9.8994   22.6919 C   0  0  0  0  0  0  0  0  0  0  0  0
  -24.4077  -19.6554   17.2761 C   0  0  0  0  0  0  0  0  0  0  0  0
  -25.9711  -13.4375   18.4227 C   0  0  0  0  0  0  0  0  0  0  0  0
  -26.2940  -12.7692   21.2852 C   0  0  0  0  0  0  0  0  0  0  0  0
  -23.6906  -18.8211   18.3345 C   0  0  0  0  0  0  0  0  0  0  0  0
  -30.4911  -24.4716   22.1605 C   0  0  0  0  0  0  0  0  0  0  0  0
  -24.6236  -18.5276   19.5051 C   0  0  0  0  0  0  0  0  0  0  0  0
  -29.9120  -25.7848   21.6410 C   0  0  0  0  0  0  0  0  0  0  0  0
  -29.4165  -23.5768   22.7763 C   0  0  0  0  0  0  0  0  0  0  0  0
  -27.6875  -24.6255   21.3440 C   0  0  0  0  0  0  0  0  0  0  0  0
  -25.8409  -17.7138   19.0497 C   0  0  1  0  0  0  0  0  0  0  0  0
  -25.0548  -14.0234   19.4926 C   0  0  1  0  0  0  0  0  0  0  0  0
  -28.7436  -25.5212   20.6778 C   0  0  1  0  0  0  0  0  0  0  0  0
  -30.3663  -18.4986   19.8283 C   0  0  0  0  0  0  0  0  0  0  0  0
  -34.9951  -13.4445   22.1286 C   0  0  0  0  0  0  0  0  0  0  0  0
  -22.2682   -8.2570   23.8499 C   0  0  0  0  0  0  0  0  0  0  0  0
  -24.0532  -14.6345   23.9629 C   0  0  0  0  0  0  0  0  0  0  0  0
  -23.4037  -12.5661   25.2152 C   0  0  0  0  0  0  0  0  0  0  0  0
  -21.8065  -13.5975   23.6003 C   0  0  0  0  0  0  0  0  0  0  0  0
  -24.0624   -7.9191   20.5118 C   0  0  0  0  0  0  0  0  0  0  0  0
  -33.6109  -14.8499   20.5149 C   0  0  0  0  0  0  0  0  0  0  0  0
  -32.1538  -12.2033   19.7441 C   0  0  0  0  0  0  0  0  0  1  0  0
  -23.8412  -12.3790   22.7243 C   0  0  1  0  0  0  0  0  0  0  0  0
  -22.8113   -8.7370   22.5130 C   0  0  2  0  0  0  0  0  0  0  0  0
  -23.2985  -13.2941   23.8581 C   0  0  0  0  0  0  0  0  0  0  0  0
  -27.1040  -27.3589   20.8116 N   0  0  0  0  0  0  0  0  0  0  0  0
  -28.1416  -26.8126   20.1550 N   0  0  0  0  0  0  0  0  0  0  0  0
  -28.2831  -23.3873   21.8586 N   0  0  0  0  0  0  0  0  0  0  0  0
  -25.0127  -13.2088   20.7086 N   0  0  0  0  0  0  0  0  0  0  0  0
  -29.5625  -27.1135   18.2839 N   0  0  0  0  0  0  0  0  0  0  0  0
  -26.7975  -30.6783   18.0765 N   0  0  0  0  0  0  0  0  0  0  0  0
  -25.4814  -16.3234   18.8712 N   0  0  0  0  0  0  0  0  0  0  0  0
  -23.1278  -11.1142   22.5843 N   0  0  0  0  0  0  0  0  0  0  0  0
  -23.4995   -7.5947   21.8478 N   0  3  0  0  0  0  0  0  0  0  0  0
  -28.5576  -29.6249   17.0512 O   0  0  0  0  0  0  0  0  0  0  0  0
  -26.7712  -22.0348   20.7171 O   0  0  0  0  0  0  0  0  0  0  0  0
  -25.7302  -15.6340   21.0815 O   0  0  0  0  0  0  0  0  0  0  0  0
  -22.6985  -13.4033   20.9156 O   0  0  0  0  0  0  0  0  0  0  0  0
  -24.9709   -9.7452   22.9093 O   0  0  0  0  0  0  0  0  0  0  0  0
  -22.6656  -31.8521   21.6239 O   0  0  0  0  0  0  0  0  0  0  0  0
  -30.9890  -11.7107   20.4052 O   0  0  0  0  0  0  0  0  0  1  0  0
  -22.2508  -33.1592   26.9646 F   0  0  0  0  0  0  0  0  0  0  0  0
  -22.8219  -34.4837   22.4563 F   0  0  0  0  0  0  0  0  0  0  0  0
  1  2  1  0  0  0  0
  1  8  2  0  0  0  0
  2  9  2  0  0  0  0
  3  6  1  0  0  0  0
  3  7  2  0  0  0  0
  4 11  2  0  0  0  0
  4 18  1  0  0  0  0
  5 12  1  0  0  0  0
  5 18  2  0  0  0  0
  6 19  2  0  0  0  0
  7 20  1  0  0  0  0
  8 22  1  0  0  0  0
  9 24  1  0  0  0  0
 10 13  2  0  0  0  0
 10 23  1  0  0  0  0
 11 27  1  0  0  0  0
 12 27  2  0  0  0  0
 13 28  1  0  0  0  0
 14 15  2  0  0  0  0
 14 29  1  0  0  0  0
 15 30  1  0  0  0  0
 16 25  1  0  0  0  0
 16 28  2  0  0  0  0
 17 30  2  0  0  0  0
 17 31  1  0  0  0  0
 18 32  1  0  0  0  0
 19 26  1  0  0  0  0
 19 34  1  0  0  0  0
 20 26  2  0  0  0  0
 20 35  1  0  0  0  0
 21 32  1  0  0  0  0
 21 33  2  0  0  0  0
 21 39  1  0  0  0  0
 22 24  2  0  0  0  0
 22 45  1  0  0  0  0
 23 25  2  0  0  0  0
 23 46  1  0  0  0  0
 24 54  1  0  0  0  0
 25 47  1  0  0  0  0
 26 57  1  0  0  0  0
 27 83  1  0  0  0  0
 28 84  1  0  0  0  0
 29 31  2  0  0  0  0
 29 83  1  0  0  0  0
 30 85  1  0  0  0  0
 31 86  1  0  0  0  0
 32 69  2  0  0  0  0
 33 70  1  0  0  0  0
 33 73  1  0  0  0  0
 34 36  2  0  0  0  0
 35 37  2  0  0  0  0
 36 41  1  0  0  0  0
 37 64  1  0  0  0  0
 38 40  2  0  0  0  0
 38 65  1  0  0  0  0
 39 74  1  0  0  0  0
 39 78  2  0  0  0  0
 40 58  1  0  0  0  0
 40 64  1  0  0  0  0
 41 71  1  0  0  0  0
 41 79  2  0  0  0  0
 42 55  1  0  0  0  0
 42 75  1  0  0  0  0
 42 80  2  0  0  0  0
 43 66  1  0  0  0  0
 43 72  1  0  0  0  0
 43 81  2  0  0  0  0
 44 67  1  0  0  0  0
 44 76  1  0  0  0  0
 44 82  2  0  0  0  0
 45 48  1  0  0  0  0
 46 55  1  0  0  0  0
 47 72  1  0  0  0  0
 48 50  1  0  0  0  0
 49 51  1  0  0  0  0
 49 52  1  0  0  0  0
 50 54  1  0  0  0  0
 51 56  1  0  0  0  0
 52 71  1  0  0  0  0
 53 56  1  0  0  0  0
 53 71  1  0  0  0  0
 54 75  1  0  0  0  0
 55 72  1  0  0  0  0
 56 70  1  0  0  0  0
 59 67  1  0  0  0  0
 60 68  1  0  0  0  0
 61 68  1  0  0  0  0
 62 68  1  0  0  0  0
 63 77  1  0  0  0  0
 65 84  1  0  0  0  0
 66 68  1  0  0  0  0
 66 76  1  0  0  0  0
 67 77  1  0  0  0  0
 69 70  1  0  0  0  0
M  CHG  1  77   1
M  ISO  4  36 100  41 100  65 101  84 101
M  END
> <Batch ID>
0120

> <Smiles>
CNC(C)C(=O)NC(C(=O)N1Cc2cc([101O:1][101CH2:1]C=C(C)CC=Cc3cccc(C=[100CH:0][100C:0](=O)N4CCCC(n5nc(-c6ccc(Oc7ccc(F)cc7F)cc6)c(C(N)=O)c5N)C4)c3C)ccc2CC1C(=O)NC1CCCc2ccccc21)C(C)(C)C

> <Shape>
0.254

> <Color>
0.054

> <Negative vol penalty>
0.000

$$$$

  -OEChem-04052301543D

 82 90  0     1  0  0  0  0  0999 V2000
  -16.8831  -31.3189   23.2470 C   0  0  0  0  0  0  0  0  0  0  0  0
  -18.1822  -31.8136   23.3013 C   0  0  0  0  0  0  0  0  0  0  0  0
  -26.7213  -13.5908   19.3990 C   0  0  0  0  0  0  0  0  0  0  0  0
  -24.6494  -14.1864   20.4895 C   0  0  0  0  0  0  0  0  0  0  0  0
  -16.6603  -29.9430   23.2837 C   0  0  0  0  0  0  0  0  0  0  0  0
  -19.2593  -30.9328   23.3934 C   0  0  0  0  0  0  0  0  0  0  0  0
  -26.0898  -30.2332   21.3510 C   0  0  0  0  0  0  0  0  0  0  0  0
  -26.6543  -12.3184   19.9665 C   0  0  0  0  0  0  0  0  0  0  0  0
  -24.5823  -12.9140   21.0571 C   0  0  0  0  0  0  0  0  0  0  0  0
  -27.3505  -29.9638   21.8818 C   0  0  0  0  0  0  0  0  0  0  0  0
  -23.6969   -9.7998   20.0883 C   0  0  0  0  0  0  0  0  0  0  0  0
  -22.4690   -9.1391   20.0510 C   0  0  0  0  0  0  0  0  0  0  0  0
  -26.8497  -27.6042   21.8578 C   0  0  0  0  0  0  0  0  0  0  0  0
  -32.7330  -25.1260   17.4294 C   0  0  0  0  0  0  0  0  0  0  0  0
  -22.4478   -9.0423   22.4650 C   0  0  0  0  0  0  0  0  0  0  0  0
  -25.7189  -14.5248   19.6605 C   0  0  0  0  0  0  0  0  0  0  0  0
  -25.2541  -16.2484   17.8381 C   0  0  0  0  0  0  0  0  0  0  0  0
  -17.7357  -29.0445   23.3666 C   0  0  0  0  0  0  0  0  0  0  0  0
  -25.1939  -29.1891   21.0793 C   0  0  0  0  0  0  0  0  0  0  0  0
  -19.0506  -29.5437   23.4326 C   0  0  0  0  0  0  0  0  0  0  0  0
  -25.5792  -27.8628   21.3212 C   0  0  0  0  0  0  0  0  0  0  0  0
  -33.0808  -26.3144   18.1148 C   0  0  0  0  0  0  0  0  0  0  0  0
  -25.5848  -11.9800   20.7956 C   0  0  0  0  0  0  0  0  0  0  0  0
  -27.7295  -28.6494   22.1380 C   0  0  0  0  0  0  0  0  0  0  0  0
  -24.3003  -10.0817   21.3140 C   0  0  0  0  0  0  0  0  0  0  0  0
  -21.8445   -8.7604   21.2394 C   0  0  0  0  0  0  0  0  0  0  0  0
  -23.6757   -9.7029   22.5023 C   0  0  0  0  0  0  0  0  0  0  0  0
  -25.7879  -15.8396   19.0750 C   0  0  0  0  0  0  0  0  0  0  0  0
  -31.7161  -24.5502   18.1549 C   0  0  0  0  0  0  0  0  0  0  0  0
  -32.2515  -26.3803   19.2102 C   0  0  0  0  0  0  0  0  0  0  0  0
  -25.5857  -17.5779   17.7437 C   0  0  0  0  0  0  0  0  0  0  0  0
  -31.0353  -23.3445   17.8688 C   0  0  0  0  0  0  0  0  0  0  0  0
  -32.2086  -27.4249   20.2469 C   0  0  0  0  0  0  0  0  0  0  0  0
  -30.0057  -22.7888   18.5893 C   0  0  0  0  0  0  0  0  0  0  0  0
  -31.3606  -27.4474   21.2871 C   0  0  0  0  0  0  0  0  0  0  0  0
  -24.5239  -15.4938   16.8619 C   0  0  0  0  0  0  0  0  0  0  0  0
  -29.3874  -21.5206   18.1534 C   0  0  0  0  0  0  0  0  0  0  0  0
  -22.3083  -28.3773   22.1366 C   0  0  0  0  0  0  0  0  0  0  0  0
  -22.5255  -26.1134   19.8236 C   0  0  0  0  0  0  0  0  0  0  0  0
  -24.3144  -23.6325   17.9099 C   0  0  0  0  0  0  0  0  0  0  0  0
  -17.4427  -27.5675   23.4511 C   0  0  0  0  0  0  0  0  0  0  0  0
  -23.8477  -29.4944   20.4819 C   0  0  0  0  0  0  0  0  0  0  0  0
  -24.6620  -26.7046   21.0282 C   0  0  0  0  0  0  0  0  0  0  0  0
  -18.6589  -26.6883   23.1715 C   0  0  0  0  0  0  0  0  0  0  0  0
  -27.4493  -20.7717   21.1725 C   0  0  0  0  0  0  0  0  0  0  0  0
  -19.8734  -27.1965   23.9419 C   0  0  0  0  0  0  0  0  0  0  0  0
  -26.8382  -19.4230   20.8022 C   0  0  0  0  0  0  0  0  0  0  0  0
  -28.8474  -20.9476   20.5816 C   0  0  0  0  0  0  0  0  0  0  0  0
  -28.2893  -19.3925   18.7349 C   0  0  0  0  0  0  0  0  0  0  0  0
  -20.2463  -28.6192   23.5079 C   0  0  1  0  0  0  0  0  0  0  0  0
  -22.8222  -28.3914   20.7247 C   0  0  1  0  0  0  0  0  0  0  0  0
  -26.8637  -19.2135   19.2798 C   0  0  1  0  0  0  0  0  0  0  0  0
  -34.1269  -27.2766   17.7165 C   0  0  0  0  0  0  0  0  0  0  0  0
  -23.5702  -22.2124   15.9793 C   0  0  0  0  0  0  0  0  0  0  0  0
  -21.8909  -24.0389   21.9693 C   0  0  0  0  0  0  0  0  0  0  0  0
  -22.7190  -22.2689   20.4042 C   0  0  0  0  0  0  0  0  0  0  0  0
  -20.7442  -23.6591   19.7794 C   0  0  0  0  0  0  0  0  0  0  0  0
  -26.5419  -24.5776   16.2058 C   0  0  0  0  0  0  0  0  0  0  0  0
  -31.3428  -28.5427   22.3180 C   0  0  0  0  0  0  0  0  0  0  0  0
  -30.0129  -29.2872   22.3256 C   0  0  0  0  0  0  0  0  0  1  0  0
  -23.0487  -24.6988   19.7579 C   0  0  1  0  0  0  0  0  0  0  0  0
  -24.3104  -23.4725   16.4003 C   0  0  2  0  0  0  0  0  0  0  0  0
  -22.1175  -23.6882   20.4852 C   0  0  0  0  0  0  0  0  0  0  0  0
  -26.4113  -16.8292   19.7199 N   0  0  0  0  0  0  0  0  0  0  0  0
  -26.2714  -17.8730   18.8851 N   0  0  0  0  0  0  0  0  0  0  0  0
  -28.8571  -20.6849   19.1347 N   0  0  0  0  0  0  0  0  0  0  0  0
  -23.3539  -27.0549   20.4505 N   0  0  0  0  0  0  0  0  0  0  0  0
  -25.3547  -18.5116   16.7964 N   0  0  0  0  0  0  0  0  0  0  0  0
  -24.2699  -14.1394   17.1175 N   0  0  0  0  0  0  0  0  0  0  0  0
  -20.9476  -28.5940   22.2422 N   0  0  0  0  0  0  0  0  0  0  0  0
  -23.2593  -24.4067   18.3442 N   0  0  0  0  0  0  0  0  0  0  0  0
  -25.7062  -23.3922   15.8842 N   0  3  0  0  0  0  0  0  0  0  0  0
  -24.1231  -16.0014   15.7870 O   0  0  0  0  0  0  0  0  0  0  0  0
  -29.3824  -21.2760   16.9456 O   0  0  0  0  0  0  0  0  0  0  0  0
  -23.0882  -28.1826   23.0615 O   0  0  0  0  0  0  0  0  0  0  0  0
  -21.4255  -26.3748   19.3303 O   0  0  0  0  0  0  0  0  0  0  0  0
  -25.1659  -23.1187   18.6319 O   0  0  0  0  0  0  0  0  0  0  0  0
  -31.4165  -25.3086   19.2419 O   0  0  0  0  0  0  0  0  0  0  0  0
  -25.5189  -10.7384   21.3494 O   0  0  0  0  0  0  0  0  0  0  0  0
  -28.9593  -28.3837   22.6567 O   0  0  0  0  0  0  0  0  0  1  0  0
  -20.6646   -8.1273   21.2034 F   0  0  0  0  0  0  0  0  0  0  0  0
  -24.2500   -9.9721   23.6828 F   0  0  0  0  0  0  0  0  0  0  0  0
  1  2  1  0  0  0  0
  1  5  2  0  0  0  0
  2  6  2  0  0  0  0
  3  8  2  0  0  0  0
  3 16  1  0  0  0  0
  4  9  1  0  0  0  0
  4 16  2  0  0  0  0
  5 18  1  0  0  0  0
  6 20  1  0  0  0  0
  7 10  2  0  0  0  0
  7 19  1  0  0  0  0
  8 23  1  0  0  0  0
  9 23  2  0  0  0  0
 10 24  1  0  0  0  0
 11 12  2  0  0  0  0
 11 25  1  0  0  0  0
 12 26  1  0  0  0  0
 13 21  1  0  0  0  0
 13 24  2  0  0  0  0
 14 22  1  0  0  0  0
 14 29  2  0  0  0  0
 15 26  2  0  0  0  0
 15 27  1  0  0  0  0
 16 28  1  0  0  0  0
 17 28  1  0  0  0  0
 17 31  2  0  0  0  0
 17 36  1  0  0  0  0
 18 20  2  0  0  0  0
 18 41  1  0  0  0  0
 19 21  2  0  0  0  0
 19 42  1  0  0  0  0
 20 50  1  0  0  0  0
 21 43  1  0  0  0  0
 22 30  2  0  0  0  0
 22 53  1  0  0  0  0
 23 79  1  0  0  0  0
 24 80  1  0  0  0  0
 25 27  2  0  0  0  0
 25 79  1  0  0  0  0
 26 81  1  0  0  0  0
 27 82  1  0  0  0  0
 28 64  2  0  0  0  0
 29 32  1  0  0  0  0
 29 78  1  0  0  0  0
 30 33  1  0  0  0  0
 30 78  1  0  0  0  0
 31 65  1  0  0  0  0
 31 68  1  0  0  0  0
 32 34  2  0  0  0  0
 33 35  2  0  0  0  0
 34 37  1  0  0  0  0
 35 59  1  0  0  0  0
 36 69  1  0  0  0  0
 36 73  2  0  0  0  0
 37 66  1  0  0  0  0
 37 74  2  0  0  0  0
 38 51  1  0  0  0  0
 38 70  1  0  0  0  0
 38 75  2  0  0  0  0
 39 61  1  0  0  0  0
 39 67  1  0  0  0  0
 39 76  2  0  0  0  0
 40 62  1  0  0  0  0
 40 71  1  0  0  0  0
 40 77  2  0  0  0  0
 41 44  1  0  0  0  0
 42 51  1  0  0  0  0
 43 67  1  0  0  0  0
 44 46  1  0  0  0  0
 45 47  1  0  0  0  0
 45 48  1  0  0  0  0
 46 50  1  0  0  0  0
 47 52  1  0  0  0  0
 48 66  1  0  0  0  0
 49 52  1  0  0  0  0
 49 66  1  0  0  0  0
 50 70  1  0  0  0  0
 51 67  1  0  0  0  0
 52 65  1  0  0  0  0
 54 62  1  0  0  0  0
 55 63  1  0  0  0  0
 56 63  1  0  0  0  0
 57 63  1  0  0  0  0
 58 72  1  0  0  0  0
 59 60  1  0  0  0  0
 60 80  1  0  0  0  0
 61 63  1  0  0  0  0
 61 71  1  0  0  0  0
 62 72  1  0  0  0  0
 64 65  1  0  0  0  0
M  CHG  1  72   1
M  ISO  4  34 100  37 100  60 101  80 101
M  END
> <Batch ID>
0120

> <Smiles>
CNC(C)C(=O)NC(C(=O)N1Cc2cc([101O:1][101CH2:1]CC=Cc3oc(C=[100CH:0][100C:0](=O)N4CCCC(n5nc(-c6ccc(Oc7ccc(F)cc7F)cc6)c(C(N)=O)c5N)C4)cc3C)ccc2CC1C(=O)NC1CCCc2ccccc21)C(C)(C)C

> <Shape>
0.239

> <Color>
0.081

> <Negative vol penalty>
0.000

$$$$

  -OEChem-04052301543D

 83 91  0     1  0  0  0  0  0999 V2000
  -21.9755  -13.6313   18.1255 C   0  0  0  0  0  0  0  0  0  0  0  0
  -22.1730  -14.9101   18.6365 C   0  0  0  0  0  0  0  0  0  0  0  0
  -30.2221  -26.2667   19.2890 C   0  0  0  0  0  0  0  0  0  0  0  0
  -29.4727  -25.2398   21.3434 C   0  0  0  0  0  0  0  0  0  0  0  0
  -22.7608  -12.5720   18.5783 C   0  0  0  0  0  0  0  0  0  0  0  0
  -23.1553  -15.1300   19.6016 C   0  0  0  0  0  0  0  0  0  0  0  0
  -25.9149  -19.2696   18.6564 C   0  0  0  0  0  0  0  0  0  0  0  0
  -19.7247  -29.0799   23.1017 C   0  0  0  0  0  0  0  0  0  0  0  0
  -31.5296  -25.8681   19.5667 C   0  0  0  0  0  0  0  0  0  0  0  0
  -30.7802  -24.8411   21.6211 C   0  0  0  0  0  0  0  0  0  0  0  0
  -25.3421  -20.5017   18.9689 C   0  0  0  0  0  0  0  0  0  0  0  0
  -35.1232  -25.4321   19.9127 C   0  0  0  0  0  0  0  0  0  0  0  0
  -18.5268  -28.6842   23.6966 C   0  0  0  0  0  0  0  0  0  0  0  0
  -36.1415  -26.3664   19.7241 C   0  0  0  0  0  0  0  0  0  0  0  0
  -18.6795  -26.5460   22.5822 C   0  0  0  0  0  0  0  0  0  0  0  0
  -26.6181  -20.5690   21.0151 C   0  0  0  0  0  0  0  0  0  0  0  0
  -35.1022  -27.8264   21.3444 C   0  0  0  0  0  0  0  0  0  0  0  0
  -29.1936  -25.9526   20.1774 C   0  0  0  0  0  0  0  0  0  0  0  0
  -19.8775  -26.9417   21.9872 C   0  0  0  0  0  0  0  0  0  0  0  0
  -26.8678  -25.6441   19.1758 C   0  0  0  0  0  0  0  0  0  0  0  0
  -23.7597  -12.7808   19.5423 C   0  0  0  0  0  0  0  0  0  0  0  0
  -26.8369  -18.6718   19.5276 C   0  0  0  0  0  0  0  0  0  0  0  0
  -23.9537  -14.0722   20.0687 C   0  0  0  0  0  0  0  0  0  0  0  0
  -27.2030  -19.3305   20.7101 C   0  0  0  0  0  0  0  0  0  0  0  0
  -20.4000  -28.2087   22.2469 C   0  0  0  0  0  0  0  0  0  0  0  0
  -31.8087  -25.1553   20.7327 C   0  0  0  0  0  0  0  0  0  0  0  0
  -25.6915  -21.1502   20.1498 C   0  0  0  0  0  0  0  0  0  0  0  0
  -34.0943  -25.6949   20.8171 C   0  0  0  0  0  0  0  0  0  0  0  0
  -18.0042  -27.4173   23.4369 C   0  0  0  0  0  0  0  0  0  0  0  0
  -36.1311  -27.5635   20.4399 C   0  0  0  0  0  0  0  0  0  0  0  0
  -34.0838  -26.8920   21.5330 C   0  0  0  0  0  0  0  0  0  0  0  0
  -27.8428  -26.3646   19.8914 C   0  0  0  0  0  0  0  0  0  0  0  0
  -25.7637  -26.4609   19.1824 C   0  0  0  0  0  0  0  0  0  0  0  0
  -20.5612  -25.9944   21.0910 C   0  0  0  0  0  0  0  0  0  0  0  0
  -20.9836  -24.7682   21.4369 C   0  0  0  0  0  0  0  0  0  0  0  0
  -26.9526  -24.3519   18.5603 C   0  0  0  0  0  0  0  0  0  0  0  0
  -26.9189  -15.9672   21.1955 C   0  0  0  0  0  0  0  0  0  0  0  0
  -29.9454  -16.9259   21.8614 C   0  0  0  0  0  0  0  0  0  0  0  0
  -32.1783  -19.4927   22.1307 C   0  0  0  0  0  0  0  0  0  0  0  0
  -22.2440  -29.8722   21.8240 C   0  0  0  0  0  0  0  0  0  0  0  0
  -24.5517  -11.5959   20.0356 C   0  0  0  0  0  0  0  0  0  0  0  0
  -27.4658  -17.3550   19.1631 C   0  0  0  0  0  0  0  0  0  0  0  0
  -28.2033  -18.7407   21.6693 C   0  0  0  0  0  0  0  0  0  0  0  0
  -25.8232  -11.9830   20.7863 C   0  0  0  0  0  0  0  0  0  0  0  0
  -25.2555  -31.3014   20.5728 C   0  0  0  0  0  0  0  0  0  0  0  0
  -25.5310  -13.0873   21.7973 C   0  0  0  0  0  0  0  0  0  0  0  0
  -26.1169  -30.0852   20.2251 C   0  0  0  0  0  0  0  0  0  0  0  0
  -24.4235  -31.0658   21.8322 C   0  0  0  0  0  0  0  0  0  0  0  0
  -24.4678  -28.6295   21.4696 C   0  0  0  0  0  0  0  0  0  0  0  0
  -25.0259  -14.3554   21.0985 C   0  0  1  0  0  0  0  0  0  0  0  0
  -28.0063  -16.5962   20.3712 C   0  0  1  0  0  0  0  0  0  0  0  0
  -25.2751  -28.7952   20.1717 C   0  0  2  0  0  0  0  0  0  0  0  0
  -34.5677  -19.9703   22.7306 C   0  0  0  0  0  0  0  0  0  0  0  0
  -29.2679  -16.5899   24.8174 C   0  0  0  0  0  0  0  0  0  0  0  0
  -31.2949  -17.9533   25.3654 C   0  0  0  0  0  0  0  0  0  0  0  0
  -31.5429  -15.7780   24.1698 C   0  0  0  0  0  0  0  0  0  0  0  0
  -32.7598  -20.5736   19.4376 C   0  0  0  0  0  0  0  0  0  0  0  0
  -21.6740  -23.8329   20.4850 C   0  0  0  0  0  0  0  0  0  0  0  0
  -23.0928  -23.5142   20.9531 C   0  0  0  0  0  0  0  0  0  0  0  0
  -23.8142  -22.5995   19.9729 C   0  0  0  0  0  0  0  0  0  1  0  0
  -30.5878  -17.7681   22.9371 C   0  0  1  0  0  0  0  0  0  0  0  0
  -33.5934  -19.6560   21.6060 C   0  0  2  0  0  0  0  0  0  0  0  0
  -30.6530  -17.0328   24.3055 C   0  0  0  0  0  0  0  0  0  0  0  0
  -27.3974  -27.5482   20.3211 N   0  0  0  0  0  0  0  0  0  0  0  0
  -26.1303  -27.5777   19.8742 N   0  0  0  0  0  0  0  0  0  0  0  0
  -28.7858  -17.4484   21.2715 N   0  0  0  0  0  0  0  0  0  0  0  0
  -23.6495  -29.8288   21.7077 N   0  0  0  0  0  0  0  0  0  0  0  0
  -24.5247  -26.3258   18.6637 N   0  0  0  0  0  0  0  0  0  0  0  0
  -28.1613  -23.6479   18.6484 N   0  0  0  0  0  0  0  0  0  0  0  0
  -21.6131  -28.6401   21.6552 N   0  0  0  0  0  0  0  0  0  0  0  0
  -26.1285  -15.0744   20.4971 N   0  0  0  0  0  0  0  0  0  0  0  0
  -31.8878  -18.1751   22.4149 N   0  0  0  0  0  0  0  0  0  0  0  0
  -33.6521  -20.7632   20.6102 N   0  3  0  0  0  0  0  0  0  0  0  0
  -25.9903  -23.8440   17.9362 O   0  0  0  0  0  0  0  0  0  0  0  0
  -26.8062  -16.2683   22.3780 O   0  0  0  0  0  0  0  0  0  0  0  0
  -30.4578  -15.8476   21.5509 O   0  0  0  0  0  0  0  0  0  0  0  0
  -31.4088  -20.4398   22.2775 O   0  0  0  0  0  0  0  0  0  0  0  0
  -21.6422  -30.9294   22.0291 O   0  0  0  0  0  0  0  0  0  0  0  0
  -33.0844  -24.7660   21.0039 O   0  0  0  0  0  0  0  0  0  0  0  0
  -25.1335  -22.3526   20.4576 O   0  0  0  0  0  0  0  0  0  1  0  0
  -16.8537  -27.0381   24.0085 F   0  0  0  0  0  0  0  0  0  0  0  0
  -37.1099  -28.4600   20.2598 F   0  0  0  0  0  0  0  0  0  0  0  0
  -33.0986  -27.1496   22.4042 F   0  0  0  0  0  0  0  0  0  0  0  0
  1  2  1  0  0  0  0
  1  5  2  0  0  0  0
  2  6  2  0  0  0  0
  3  9  2  0  0  0  0
  3 18  1  0  0  0  0
  4 10  1  0  0  0  0
  4 18  2  0  0  0  0
  5 21  1  0  0  0  0
  6 23  1  0  0  0  0
  7 11  2  0  0  0  0
  7 22  1  0  0  0  0
  8 13  2  0  0  0  0
  8 25  1  0  0  0  0
  9 26  1  0  0  0  0
 10 26  2  0  0  0  0
 11 27  1  0  0  0  0
 12 14  2  0  0  0  0
 12 28  1  0  0  0  0
 13 29  1  0  0  0  0
 14 30  1  0  0  0  0
 15 19  1  0  0  0  0
 15 29  2  0  0  0  0
 16 24  1  0  0  0  0
 16 27  2  0  0  0  0
 17 30  2  0  0  0  0
 17 31  1  0  0  0  0
 18 32  1  0  0  0  0
 19 25  2  0  0  0  0
 19 34  1  0  0  0  0
 20 32  1  0  0  0  0
 20 33  2  0  0  0  0
 20 36  1  0  0  0  0
 21 23  2  0  0  0  0
 21 41  1  0  0  0  0
 22 24  2  0  0  0  0
 22 42  1  0  0  0  0
 23 50  1  0  0  0  0
 24 43  1  0  0  0  0
 25 70  1  0  0  0  0
 26 79  1  0  0  0  0
 27 80  1  0  0  0  0
 28 31  2  0  0  0  0
 28 79  1  0  0  0  0
 29 81  1  0  0  0  0
 30 82  1  0  0  0  0
 31 83  1  0  0  0  0
 32 64  2  0  0  0  0
 33 65  1  0  0  0  0
 33 68  1  0  0  0  0
 34 35  2  0  0  0  0
 35 58  1  0  0  0  0
 36 69  1  0  0  0  0
 36 74  2  0  0  0  0
 37 51  1  0  0  0  0
 37 71  1  0  0  0  0
 37 75  2  0  0  0  0
 38 61  1  0  0  0  0
 38 66  1  0  0  0  0
 38 76  2  0  0  0  0
 39 62  1  0  0  0  0
 39 72  1  0  0  0  0
 39 77  2  0  0  0  0
 40 67  1  0  0  0  0
 40 70  1  0  0  0  0
 40 78  2  0  0  0  0
 41 44  1  0  0  0  0
 42 51  1  0  0  0  0
 43 66  1  0  0  0  0
 44 46  1  0  0  0  0
 45 47  1  0  0  0  0
 45 48  1  0  0  0  0
 46 50  1  0  0  0  0
 47 52  1  0  0  0  0
 48 67  1  0  0  0  0
 49 52  1  0  0  0  0
 49 67  1  0  0  0  0
 50 71  1  0  0  0  0
 51 66  1  0  0  0  0
 52 65  1  0  0  0  0
 53 62  1  0  0  0  0
 54 63  1  0  0  0  0
 55 63  1  0  0  0  0
 56 63  1  0  0  0  0
 57 73  1  0  0  0  0
 58 59  1  0  0  0  0
 59 60  1  0  0  0  0
 60 80  1  0  0  0  0
 61 63  1  0  0  0  0
 61 72  1  0  0  0  0
 62 73  1  0  0  0  0
 64 65  1  0  0  0  0
M  CHG  1  73   1
M  ISO  4  40 100  60 101  70 100  80 101
M  END
> <Batch ID>
0120

> <Smiles>
CNC(C)C(=O)NC(C(=O)N1Cc2cc([101O:1][101CH2:1]CCC=Cc3cc(F)ccc3[100NH:0][100C:0](=O)N3CCCC(n4nc(-c5ccc(Oc6ccc(F)cc6F)cc5)c(C(N)=O)c4N)C3)ccc2CC1C(=O)NC1CCCc2ccccc21)C(C)(C)C

> <Shape>
0.226

> <Color>
0.074

> <Negative vol penalty>
0.000

$$$$

  -OEChem-04052301543D

 86 94  0     1  0  0  0  0  0999 V2000
  -29.8597  -33.9671   15.7098 C   0  0  0  0  0  0  0  0  0  0  0  0
  -29.7342  -32.6904   16.2481 C   0  0  0  0  0  0  0  0  0  0  0  0
  -24.7448   -8.6083   21.6867 C   0  0  0  0  0  0  0  0  0  0  0  0
  -23.4374   -9.3297   19.7874 C   0  0  0  0  0  0  0  0  0  0  0  0
  -29.6832  -35.0858   16.5230 C   0  0  0  0  0  0  0  0  0  0  0  0
  -29.4331  -32.5317   17.6003 C   0  0  0  0  0  0  0  0  0  0  0  0
  -25.8692  -29.0236   18.3984 C   0  0  0  0  0  0  0  0  0  0  0  0
  -23.7433   -7.7006   22.0313 C   0  0  0  0  0  0  0  0  0  0  0  0
  -22.4359   -8.4220   20.1320 C   0  0  0  0  0  0  0  0  0  0  0  0
  -26.2653  -27.6882   18.3372 C   0  0  0  0  0  0  0  0  0  0  0  0
  -22.6939   -4.6482   21.0243 C   0  0  0  0  0  0  0  0  0  0  0  0
  -23.0832   -3.3553   21.3742 C   0  0  0  0  0  0  0  0  0  0  0  0
  -31.6568  -19.4359   23.0026 C   0  0  0  0  0  0  0  0  0  0  0  0
  -26.3570  -27.6113   20.7465 C   0  0  0  0  0  0  0  0  0  0  0  0
  -31.5636  -21.7752   22.4061 C   0  0  0  0  0  0  0  0  0  0  0  0
  -22.0807   -3.6432   23.5535 C   0  0  0  0  0  0  0  0  0  0  0  0
  -24.5919   -9.4229   20.5647 C   0  0  0  0  0  0  0  0  0  0  0  0
  -30.8782  -19.1209   21.8890 C   0  0  0  0  0  0  0  0  0  0  0  0
  -30.4424  -20.1331   21.0339 C   0  0  0  0  0  0  0  0  0  0  0  0
  -26.7274  -10.1314   19.3627 C   0  0  0  0  0  0  0  0  0  0  0  0
  -29.3703  -34.9407   17.8838 C   0  0  0  0  0  0  0  0  0  0  0  0
  -25.7244  -29.6671   19.6359 C   0  0  0  0  0  0  0  0  0  0  0  0
  -29.2536  -33.6495   18.4328 C   0  0  0  0  0  0  0  0  0  0  0  0
  -25.9565  -28.9542   20.8208 C   0  0  0  0  0  0  0  0  0  0  0  0
  -22.5889   -7.6075   21.2540 C   0  0  0  0  0  0  0  0  0  0  0  0
  -26.5120  -26.9827   19.5113 C   0  0  0  0  0  0  0  0  0  0  0  0
  -21.9980   -5.4386   21.9390 C   0  0  0  0  0  0  0  0  0  0  0  0
  -30.7851  -21.4603   21.2925 C   0  0  0  0  0  0  0  0  0  0  0  0
  -22.7766   -2.8528   22.6388 C   0  0  0  0  0  0  0  0  0  0  0  0
  -21.6914   -4.9361   23.2036 C   0  0  0  0  0  0  0  0  0  0  0  0
  -31.9995  -20.7631   23.2612 C   0  0  0  0  0  0  0  0  0  0  0  0
  -25.6258  -10.3611   20.2085 C   0  0  0  0  0  0  0  0  0  0  0  0
  -27.4049  -11.3262   19.3492 C   0  0  0  0  0  0  0  0  0  0  0  0
  -28.3040  -19.8191   19.8745 C   0  0  0  0  0  0  0  0  0  0  0  0
  -30.5456  -17.7183   21.6621 C   0  0  0  0  0  0  0  0  0  0  0  0
  -29.6262  -19.8236   19.8620 C   0  0  0  0  0  0  0  0  0  0  0  0
  -29.8415  -16.9389   22.5060 C   0  0  0  0  0  0  0  0  0  0  0  0
  -27.1047   -8.9443   18.6527 C   0  0  0  0  0  0  0  0  0  0  0  0
  -29.5774  -15.5359   22.1283 C   0  0  0  0  0  0  0  0  0  0  0  0
  -27.1124  -32.1543   21.0468 C   0  0  0  0  0  0  0  0  0  0  0  0
  -28.6417  -24.0942   20.0132 C   0  0  0  0  0  0  0  0  0  0  0  0
  -24.8484  -31.6368   23.3115 C   0  0  0  0  0  0  0  0  0  0  0  0
  -22.6918  -29.4551   24.8068 C   0  0  0  0  0  0  0  0  0  0  0  0
  -29.2353  -36.1793   18.7337 C   0  0  0  0  0  0  0  0  0  0  0  0
  -25.2706  -31.1003   19.6856 C   0  0  0  0  0  0  0  0  0  0  0  0
  -25.7957  -29.5932   22.1752 C   0  0  0  0  0  0  0  0  0  0  0  0
  -28.5487  -35.9268   20.0735 C   0  0  0  0  0  0  0  0  0  0  0  0
  -26.0931  -15.8894   21.0481 C   0  0  0  0  0  0  0  0  0  0  0  0
  -29.1307  -34.6877   20.7464 C   0  0  0  0  0  0  0  0  0  0  0  0
  -25.7426  -14.4431   20.7090 C   0  0  0  0  0  0  0  0  0  0  0  0
  -27.0657  -15.9817   22.2229 C   0  0  0  0  0  0  0  0  0  0  0  0
  -27.9569  -13.7309   21.6938 C   0  0  0  0  0  0  0  0  0  0  0  0
  -28.9034  -33.4365   19.8896 C   0  0  1  0  0  0  0  0  0  0  0  0
  -25.6528  -31.8032   20.9845 C   0  0  1  0  0  0  0  0  0  0  0  0
  -27.0163  -13.6127   20.4844 C   0  0  1  0  0  0  0  0  0  0  0  0
  -21.0001  -29.3126   26.6549 C   0  0  0  0  0  0  0  0  0  0  0  0
  -27.1033  -31.5392   25.3648 C   0  0  0  0  0  0  0  0  0  0  0  0
  -25.5027  -30.4742   26.9687 C   0  0  0  0  0  0  0  0  0  0  0  0
  -25.0630  -32.7762   26.1141 C   0  0  0  0  0  0  0  0  0  0  0  0
  -20.5152  -28.7785   22.9191 C   0  0  0  0  0  0  0  0  0  0  0  0
  -27.7368  -25.2042   20.5075 C   0  0  0  0  0  0  0  0  0  1  0  0
  -29.5709  -23.4903   21.0460 C   0  0  0  0  0  0  0  0  0  0  0  0
  -24.7620  -30.8006   24.5654 C   0  0  1  0  0  0  0  0  0  0  0  0
  -21.2246  -29.5822   25.1751 C   0  0  2  0  0  0  0  0  0  0  0  0
  -25.6127  -31.3858   25.7278 C   0  0  0  0  0  0  0  0  0  0  0  0
  -25.6010  -11.6039   20.6971 N   0  0  0  0  0  0  0  0  0  0  0  0
  -26.6956  -12.1660   20.1566 N   0  0  0  0  0  0  0  0  0  0  0  0
  -28.2482  -15.1335   22.0106 N   0  0  0  0  0  0  0  0  0  0  0  0
  -25.3562  -30.9983   22.1713 N   0  0  0  0  0  0  0  0  0  0  0  0
  -28.5321  -11.7297   18.7256 N   0  0  0  0  0  0  0  0  0  0  0  0
  -26.2966   -7.8060   18.7775 N   0  0  0  0  0  0  0  0  0  0  0  0
  -27.5378  -32.9757   20.0202 N   0  0  0  0  0  0  0  0  0  0  0  0
  -23.3417  -30.6695   24.8716 N   0  0  0  0  0  0  0  0  0  0  0  0
  -20.4080  -28.6126   24.3915 N   0  3  0  0  0  0  0  0  0  0  0  0
  -28.1369   -8.8896   17.9421 O   0  0  0  0  0  0  0  0  0  0  0  0
  -30.5513  -14.8035   21.9446 O   0  0  0  0  0  0  0  0  0  0  0  0
  -27.8013  -31.7139   21.9595 O   0  0  0  0  0  0  0  0  0  0  0  0
  -28.6232  -23.7078   18.8455 O   0  0  0  0  0  0  0  0  0  0  0  0
  -24.4723  -32.8113   23.3408 O   0  0  0  0  0  0  0  0  0  0  0  0
  -23.2104  -28.3849   24.4966 O   0  0  0  0  0  0  0  0  0  0  0  0
  -21.6115   -6.7218   21.5899 O   0  0  0  0  0  0  0  0  0  0  0  0
  -26.8993  -25.6794   19.4544 O   0  0  0  0  0  0  0  0  0  1  0  0
  -30.3708  -22.4800   20.4687 O   0  0  0  0  0  0  0  0  0  0  0  0
  -23.1491   -1.6106   22.9741 F   0  0  0  0  0  0  0  0  0  0  0  0
  -21.0221   -5.6904   24.0861 F   0  0  0  0  0  0  0  0  0  0  0  0
  -32.9599  -21.1527   24.6355 Cl  0  0  0  0  0  0  0  0  0  0  0  0
  1  2  1  0  0  0  0
  1  5  2  0  0  0  0
  2  6  2  0  0  0  0
  3  8  2  0  0  0  0
  3 17  1  0  0  0  0
  4  9  1  0  0  0  0
  4 17  2  0  0  0  0
  5 21  1  0  0  0  0
  6 23  1  0  0  0  0
  7 10  2  0  0  0  0
  7 22  1  0  0  0  0
  8 25  1  0  0  0  0
  9 25  2  0  0  0  0
 10 26  1  0  0  0  0
 11 12  2  0  0  0  0
 11 27  1  0  0  0  0
 12 29  1  0  0  0  0
 13 18  2  0  0  0  0
 13 31  1  0  0  0  0
 14 24  1  0  0  0  0
 14 26  2  0  0  0  0
 15 28  1  0  0  0  0
 15 31  2  0  0  0  0
 16 29  2  0  0  0  0
 16 30  1  0  0  0  0
 17 32  1  0  0  0  0
 18 19  1  0  0  0  0
 18 35  1  0  0  0  0
 19 28  2  0  0  0  0
 19 36  1  0  0  0  0
 20 32  1  0  0  0  0
 20 33  2  0  0  0  0
 20 38  1  0  0  0  0
 21 23  2  0  0  0  0
 21 44  1  0  0  0  0
 22 24  2  0  0  0  0
 22 45  1  0  0  0  0
 23 53  1  0  0  0  0
 24 46  1  0  0  0  0
 25 81  1  0  0  0  0
 26 82  1  0  0  0  0
 27 30  2  0  0  0  0
 27 81  1  0  0  0  0
 28 83  1  0  0  0  0
 29 84  1  0  0  0  0
 30 85  1  0  0  0  0
 31 86  1  0  0  0  0
 32 66  2  0  0  0  0
 33 67  1  0  0  0  0
 33 70  1  0  0  0  0
 34 36  2  0  0  0  0
 35 37  2  0  0  0  0
 37 39  1  0  0  0  0
 38 71  1  0  0  0  0
 38 75  2  0  0  0  0
 39 68  1  0  0  0  0
 39 76  2  0  0  0  0
 40 54  1  0  0  0  0
 40 72  1  0  0  0  0
 40 77  2  0  0  0  0
 41 61  1  0  0  0  0
 41 62  1  0  0  0  0
 41 78  2  0  0  0  0
 42 63  1  0  0  0  0
 42 69  1  0  0  0  0
 42 79  2  0  0  0  0
 43 64  1  0  0  0  0
 43 73  1  0  0  0  0
 43 80  2  0  0  0  0
 44 47  1  0  0  0  0
 45 54  1  0  0  0  0
 46 69  1  0  0  0  0
 47 49  1  0  0  0  0
 48 50  1  0  0  0  0
 48 51  1  0  0  0  0
 49 53  1  0  0  0  0
 50 55  1  0  0  0  0
 51 68  1  0  0  0  0
 52 55  1  0  0  0  0
 52 68  1  0  0  0  0
 53 72  1  0  0  0  0
 54 69  1  0  0  0  0
 55 67  1  0  0  0  0
 56 64  1  0  0  0  0
 57 65  1  0  0  0  0
 58 65  1  0  0  0  0
 59 65  1  0  0  0  0
 60 74  1  0  0  0  0
 61 82  1  0  0  0  0
 62 83  1  0  0  0  0
 63 65  1  0  0  0  0
 63 73  1  0  0  0  0
 64 74  1  0  0  0  0
 66 67  1  0  0  0  0
M  CHG  1  74   1
M  ISO  4  37 100  39 100  61 101  82 101
M  END
> <Batch ID>
0120

> <Smiles>
C=Cc1c(C=[100CH:0][100C:0](=O)N2CCCC(n3nc(-c4ccc(Oc5ccc(F)cc5F)cc4)c(C(N)=O)c3N)C2)cc(Cl)cc1OCC(=O)[101CH2:1][101O:1]c1ccc2c(c1)CN(C(=O)C(NC(=O)C(C)NC)C(C)(C)C)C(C(=O)NC1CCCc3ccccc31)C2

> <Shape>
0.287

> <Color>
0.094

> <Negative vol penalty>
0.000

$$$$

  -OEChem-04052301543D

 84 92  0     1  0  0  0  0  0999 V2000
  -28.8154  -37.8731   24.0170 C   0  0  0  0  0  0  0  0  0  0  0  0
  -28.7866  -36.7781   23.1593 C   0  0  0  0  0  0  0  0  0  0  0  0
  -26.0565   -8.6091   22.5562 C   0  0  0  0  0  0  0  0  0  0  0  0
  -23.9842   -8.6108   21.3141 C   0  0  0  0  0  0  0  0  0  0  0  0
  -28.2089  -37.7919   25.2698 C   0  0  0  0  0  0  0  0  0  0  0  0
  -28.1521  -35.6009   23.5544 C   0  0  0  0  0  0  0  0  0  0  0  0
  -25.0591  -31.7074   19.9795 C   0  0  0  0  0  0  0  0  0  0  0  0
  -25.5194   -7.6838   23.4511 C   0  0  0  0  0  0  0  0  0  0  0  0
  -23.4471   -7.6854   22.2090 C   0  0  0  0  0  0  0  0  0  0  0  0
  -25.4150  -30.5004   19.3793 C   0  0  0  0  0  0  0  0  0  0  0  0
  -23.6345   -4.3562   22.7588 C   0  0  0  0  0  0  0  0  0  0  0  0
  -22.9344   -3.2735   22.2268 C   0  0  0  0  0  0  0  0  0  0  0  0
  -28.7694  -20.4415   19.1017 C   0  0  0  0  0  0  0  0  0  0  0  0
  -30.7292  -20.1192   17.7262 C   0  0  0  0  0  0  0  0  0  0  0  0
  -29.9269  -22.3521   18.1815 C   0  0  0  0  0  0  0  0  0  0  0  0
  -24.4332  -29.2992   21.2267 C   0  0  0  0  0  0  0  0  0  0  0  0
  -20.9535   -3.9659   23.4242 C   0  0  0  0  0  0  0  0  0  0  0  0
  -25.2889   -9.0726   21.4877 C   0  0  0  0  0  0  0  0  0  0  0  0
  -29.6901  -19.5898   18.4914 C   0  0  0  0  0  0  0  0  0  0  0  0
  -28.8878  -21.8227   18.9467 C   0  0  0  0  0  0  0  0  0  0  0  0
  -26.5524   -9.7538   19.3788 C   0  0  0  0  0  0  0  0  0  0  0  0
  -27.5583  -36.6163   25.6766 C   0  0  0  0  0  0  0  0  0  0  0  0
  -24.3961  -31.7196   21.2152 C   0  0  0  0  0  0  0  0  0  0  0  0
  -27.5375  -35.5035   24.8143 C   0  0  0  0  0  0  0  0  0  0  0  0
  -24.0678  -30.5077   21.8392 C   0  0  0  0  0  0  0  0  0  0  0  0
  -30.8477  -21.5004   17.5713 C   0  0  0  0  0  0  0  0  0  0  0  0
  -24.2147   -7.2219   23.2775 C   0  0  0  0  0  0  0  0  0  0  0  0
  -25.1046  -29.2961   20.0043 C   0  0  0  0  0  0  0  0  0  0  0  0
  -22.9941   -5.2438   23.6236 C   0  0  0  0  0  0  0  0  0  0  0  0
  -21.5940   -3.0783   22.5594 C   0  0  0  0  0  0  0  0  0  0  0  0
  -21.6537   -5.0487   23.9563 C   0  0  0  0  0  0  0  0  0  0  0  0
  -25.8429  -10.0289   20.5632 C   0  0  0  0  0  0  0  0  0  0  0  0
  -26.8592  -10.9909   18.8671 C   0  0  0  0  0  0  0  0  0  0  0  0
  -29.5670  -18.1495   18.6534 C   0  0  0  0  0  0  0  0  0  0  0  0
  -27.9162  -22.7220   19.5912 C   0  0  0  0  0  0  0  0  0  0  0  0
  -28.8803  -17.5277   19.6355 C   0  0  0  0  0  0  0  0  0  0  0  0
  -28.1157  -24.0253   19.8430 C   0  0  0  0  0  0  0  0  0  0  0  0
  -26.9028   -8.4927   18.7935 C   0  0  0  0  0  0  0  0  0  0  0  0
  -28.8409  -16.0517   19.6587 C   0  0  0  0  0  0  0  0  0  0  0  0
  -25.0686  -32.8460   24.1105 C   0  0  0  0  0  0  0  0  0  0  0  0
  -22.0282  -31.9154   24.7524 C   0  0  0  0  0  0  0  0  0  0  0  0
  -19.3905  -29.8957   23.9714 C   0  0  0  0  0  0  0  0  0  0  0  0
  -26.9579  -36.5601   27.0590 C   0  0  0  0  0  0  0  0  0  0  0  0
  -23.9954  -33.0295   21.8366 C   0  0  0  0  0  0  0  0  0  0  0  0
  -23.3389  -30.4660   23.1566 C   0  0  0  0  0  0  0  0  0  0  0  0
  -25.9820  -35.4023   27.2526 C   0  0  0  0  0  0  0  0  0  0  0  0
  -25.2376  -15.5918   20.1452 C   0  0  0  0  0  0  0  0  0  0  0  0
  -26.5737  -34.1080   26.7036 C   0  0  0  0  0  0  0  0  0  0  0  0
  -25.1468  -14.0715   20.2473 C   0  0  0  0  0  0  0  0  0  0  0  0
  -26.5342  -16.1289   20.7493 C   0  0  0  0  0  0  0  0  0  0  0  0
  -27.6706  -13.9760   20.2868 C   0  0  0  0  0  0  0  0  0  0  0  0
  -26.8376  -34.2175   25.1970 C   0  0  1  0  0  0  0  0  0  0  0  0
  -23.7794  -32.9345   23.3438 C   0  0  1  0  0  0  0  0  0  0  0  0
  -26.3954  -13.4098   19.6428 C   0  0  1  0  0  0  0  0  0  0  0  0
  -31.9592  -22.0667   16.7538 C   0  0  0  0  0  0  0  0  0  0  0  0
  -17.0547  -29.3364   24.6986 C   0  0  0  0  0  0  0  0  0  0  0  0
  -23.1441  -30.3292   27.1080 C   0  0  0  0  0  0  0  0  0  0  0  0
  -20.9795  -29.0743   27.1985 C   0  0  0  0  0  0  0  0  0  0  0  0
  -21.0074  -31.5388   27.5834 C   0  0  0  0  0  0  0  0  0  0  0  0
  -18.2564  -30.7264   21.3670 C   0  0  0  0  0  0  0  0  0  0  0  0
  -27.0913  -24.9063   20.5001 C   0  0  0  0  0  0  0  0  0  0  0  0
  -26.7362  -26.0989   19.6140 C   0  0  0  0  0  0  0  0  0  0  0  0
  -25.7292  -27.0192   20.2898 C   0  0  0  0  0  0  0  0  0  1  0  0
  -21.3812  -30.6447   25.2482 C   0  0  1  0  0  0  0  0  0  0  0  0
  -17.9141  -30.1946   23.7833 C   0  0  2  0  0  0  0  0  0  0  0  0
  -21.6435  -30.3972   26.7606 C   0  0  0  0  0  0  0  0  0  0  0  0
  -25.7071  -11.3381   20.7906 N   0  0  0  0  0  0  0  0  0  0  0  0
  -26.3355  -11.8966   19.7421 N   0  0  0  0  0  0  0  0  0  0  0  0
  -27.7108  -15.4399   20.1981 N   0  0  0  0  0  0  0  0  0  0  0  0
  -22.9740  -31.7732   23.7273 N   0  0  0  0  0  0  0  0  0  0  0  0
  -27.5231  -11.3815   17.7585 N   0  0  0  0  0  0  0  0  0  0  0  0
  -26.5090   -7.3189   19.4503 N   0  0  0  0  0  0  0  0  0  0  0  0
  -25.6031  -34.0726   24.4558 N   0  0  0  0  0  0  0  0  0  0  0  0
  -19.9691  -30.7408   24.8946 N   0  0  0  0  0  0  0  0  0  0  0  0
  -17.5077  -29.9311   22.3739 N   0  3  0  0  0  0  0  0  0  0  0  0
  -27.5601   -8.4092   17.7284 O   0  0  0  0  0  0  0  0  0  0  0  0
  -29.8147  -15.4497   19.2027 O   0  0  0  0  0  0  0  0  0  0  0  0
  -25.5425  -31.7463   24.3708 O   0  0  0  0  0  0  0  0  0  0  0  0
  -21.7010  -32.9951   25.2513 O   0  0  0  0  0  0  0  0  0  0  0  0
  -19.9714  -28.9996   23.3632 O   0  0  0  0  0  0  0  0  0  0  0  0
  -23.6903   -6.3188   24.1504 O   0  0  0  0  0  0  0  0  0  0  0  0
  -25.4514  -28.1166   19.4209 O   0  0  0  0  0  0  0  0  0  1  0  0
  -20.9214   -2.0393   22.0472 F   0  0  0  0  0  0  0  0  0  0  0  0
  -21.0328   -5.8987   24.7856 F   0  0  0  0  0  0  0  0  0  0  0  0
  1  2  1  0  0  0  0
  1  5  2  0  0  0  0
  2  6  2  0  0  0  0
  3  8  2  0  0  0  0
  3 18  1  0  0  0  0
  4  9  1  0  0  0  0
  4 18  2  0  0  0  0
  5 22  1  0  0  0  0
  6 24  1  0  0  0  0
  7 10  2  0  0  0  0
  7 23  1  0  0  0  0
  8 27  1  0  0  0  0
  9 27  2  0  0  0  0
 10 28  1  0  0  0  0
 11 12  2  0  0  0  0
 11 29  1  0  0  0  0
 12 30  1  0  0  0  0
 13 19  1  0  0  0  0
 13 20  2  0  0  0  0
 14 19  2  0  0  0  0
 14 26  1  0  0  0  0
 15 20  1  0  0  0  0
 15 26  2  0  0  0  0
 16 25  1  0  0  0  0
 16 28  2  0  0  0  0
 17 30  2  0  0  0  0
 17 31  1  0  0  0  0
 18 32  1  0  0  0  0
 19 34  1  0  0  0  0
 20 35  1  0  0  0  0
 21 32  1  0  0  0  0
 21 33  2  0  0  0  0
 21 38  1  0  0  0  0
 22 24  2  0  0  0  0
 22 43  1  0  0  0  0
 23 25  2  0  0  0  0
 23 44  1  0  0  0  0
 24 52  1  0  0  0  0
 25 45  1  0  0  0  0
 26 55  1  0  0  0  0
 27 81  1  0  0  0  0
 28 82  1  0  0  0  0
 29 31  2  0  0  0  0
 29 81  1  0  0  0  0
 30 83  1  0  0  0  0
 31 84  1  0  0  0  0
 32 67  2  0  0  0  0
 33 68  1  0  0  0  0
 33 71  1  0  0  0  0
 34 36  2  0  0  0  0
 35 37  2  0  0  0  0
 36 39  1  0  0  0  0
 37 61  1  0  0  0  0
 38 72  1  0  0  0  0
 38 76  2  0  0  0  0
 39 69  1  0  0  0  0
 39 77  2  0  0  0  0
 40 53  1  0  0  0  0
 40 73  1  0  0  0  0
 40 78  2  0  0  0  0
 41 64  1  0  0  0  0
 41 70  1  0  0  0  0
 41 79  2  0  0  0  0
 42 65  1  0  0  0  0
 42 74  1  0  0  0  0
 42 80  2  0  0  0  0
 43 46  1  0  0  0  0
 44 53  1  0  0  0  0
 45 70  1  0  0  0  0
 46 48  1  0  0  0  0
 47 49  1  0  0  0  0
 47 50  1  0  0  0  0
 48 52  1  0  0  0  0
 49 54  1  0  0  0  0
 50 69  1  0  0  0  0
 51 54  1  0  0  0  0
 51 69  1  0  0  0  0
 52 73  1  0  0  0  0
 53 70  1  0  0  0  0
 54 68  1  0  0  0  0
 56 65  1  0  0  0  0
 57 66  1  0  0  0  0
 58 66  1  0  0  0  0
 59 66  1  0  0  0  0
 60 75  1  0  0  0  0
 61 62  1  0  0  0  0
 62 63  1  0  0  0  0
 63 82  1  0  0  0  0
 64 66  1  0  0  0  0
 64 74  1  0  0  0  0
 65 75  1  0  0  0  0
 67 68  1  0  0  0  0
M  CHG  1  75   1
M  ISO  4  36 100  39 100  63 101  82 101
M  END
> <Batch ID>
0120

> <Smiles>
CNC(C)C(=O)NC(C(=O)N1Cc2cc([101O:1][101CH2:1]CCC=Cc3cc(C)cc(C=[100CH:0][100C:0](=O)N4CCCC(n5nc(-c6ccc(Oc7ccc(F)cc7F)cc6)c(C(N)=O)c5N)C4)c3)ccc2CC1C(=O)NC1CCCc2ccccc21)C(C)(C)C

> <Shape>
0.283

> <Color>
0.053

> <Negative vol penalty>
0.000

$$$$

  -OEChem-04052301543D

 84 92  0     1  0  0  0  0  0999 V2000
  -16.4860  -29.2469   23.6093 C   0  0  0  0  0  0  0  0  0  0  0  0
  -17.1042  -28.7274   22.4764 C   0  0  0  0  0  0  0  0  0  0  0  0
  -27.3139  -10.9095   21.7744 C   0  0  0  0  0  0  0  0  0  0  0  0
  -25.9560  -11.6633   19.9238 C   0  0  0  0  0  0  0  0  0  0  0  0
  -25.8008  -20.0680   16.2995 C   0  0  0  0  0  0  0  0  0  0  0  0
  -17.1476  -30.1929   24.3912 C   0  0  0  0  0  0  0  0  0  0  0  0
  -18.3840  -29.1546   22.1241 C   0  0  0  0  0  0  0  0  0  0  0  0
  -21.4194  -25.3194   20.8115 C   0  0  0  0  0  0  0  0  0  0  0  0
  -26.6983  -19.1651   16.8694 C   0  0  0  0  0  0  0  0  0  0  0  0
  -26.2285  -10.1936   22.2793 C   0  0  0  0  0  0  0  0  0  0  0  0
  -24.8705  -10.9474   20.4286 C   0  0  0  0  0  0  0  0  0  0  0  0
  -21.2541  -24.7849   19.5345 C   0  0  0  0  0  0  0  0  0  0  0  0
  -23.8122   -7.7383   20.4799 C   0  0  0  0  0  0  0  0  0  0  0  0
  -23.0633   -6.9797   19.5804 C   0  0  0  0  0  0  0  0  0  0  0  0
  -23.1485  -26.0625   18.7611 C   0  0  0  0  0  0  0  0  0  0  0  0
  -27.4746  -20.8874   18.3755 C   0  0  0  0  0  0  0  0  0  0  0  0
  -21.0949   -8.2666   20.1339 C   0  0  0  0  0  0  0  0  0  0  0  0
  -27.1777  -11.6444   20.5966 C   0  0  0  0  0  0  0  0  0  0  0  0
  -25.7402  -21.3807   16.7675 C   0  0  0  0  0  0  0  0  0  0  0  0
  -29.2745  -11.9243   19.1709 C   0  0  0  0  0  0  0  0  0  0  0  0
  -18.4400  -30.6247   24.0537 C   0  0  0  0  0  0  0  0  0  0  0  0
  -22.4455  -26.2394   21.0707 C   0  0  0  0  0  0  0  0  0  0  0  0
  -19.0629  -30.1083   22.9014 C   0  0  0  0  0  0  0  0  0  0  0  0
  -23.3262  -26.6053   20.0428 C   0  0  0  0  0  0  0  0  0  0  0  0
  -27.5352  -19.5748   17.9074 C   0  0  0  0  0  0  0  0  0  0  0  0
  -25.0068  -10.2125   21.6064 C   0  0  0  0  0  0  0  0  0  0  0  0
  -22.1169  -25.1586   18.5084 C   0  0  0  0  0  0  0  0  0  0  0  0
  -23.2025   -8.7610   21.2066 C   0  0  0  0  0  0  0  0  0  0  0  0
  -26.5770  -21.7903   17.8055 C   0  0  0  0  0  0  0  0  0  0  0  0
  -21.7047   -7.2438   19.4073 C   0  0  0  0  0  0  0  0  0  0  0  0
  -21.8438   -9.0252   21.0335 C   0  0  0  0  0  0  0  0  0  0  0  0
  -28.2984  -12.3846   20.0749 C   0  0  0  0  0  0  0  0  0  0  0  0
  -30.1116  -12.9986   18.9931 C   0  0  0  0  0  0  0  0  0  0  0  0
  -24.7851  -22.3147   16.1482 C   0  0  0  0  0  0  0  0  0  0  0  0
  -23.5969  -21.9738   15.6250 C   0  0  0  0  0  0  0  0  0  0  0  0
  -29.4121  -10.6405   18.5475 C   0  0  0  0  0  0  0  0  0  0  0  0
  -22.5534  -29.2689   22.0267 C   0  0  0  0  0  0  0  0  0  0  0  0
  -25.7494  -28.7209   22.1118 C   0  0  0  0  0  0  0  0  0  0  0  0
  -28.4071  -26.8974   20.9901 C   0  0  0  0  0  0  0  0  0  0  0  0
  -29.3471  -18.9011   19.5228 C   0  0  0  0  0  0  0  0  0  0  0  0
  -19.0963  -31.6841   24.9030 C   0  0  0  0  0  0  0  0  0  0  0  0
  -22.6269  -26.7864   22.4600 C   0  0  0  0  0  0  0  0  0  0  0  0
  -24.4563  -27.5738   20.2741 C   0  0  0  0  0  0  0  0  0  0  0  0
  -20.6001  -31.8062   24.6703 C   0  0  0  0  0  0  0  0  0  0  0  0
  -31.7301  -16.8989   21.2519 C   0  0  0  0  0  0  0  0  0  0  0  0
  -20.9090  -31.8293   23.1767 C   0  0  0  0  0  0  0  0  0  0  0  0
  -31.2126  -15.4717   21.0589 C   0  0  0  0  0  0  0  0  0  0  0  0
  -30.5874  -17.8975   21.4279 C   0  0  0  0  0  0  0  0  0  0  0  0
  -29.0459  -16.4335   20.1830 C   0  0  0  0  0  0  0  0  0  0  0  0
  -20.4604  -30.5282   22.5004 C   0  0  1  0  0  0  0  0  0  0  0  0
  -23.3887  -28.1079   22.4871 C   0  0  1  0  0  0  0  0  0  0  0  0
  -30.1584  -15.4014   19.9367 C   0  0  2  0  0  0  0  0  0  0  0  0
  -30.8996  -26.7075   21.2109 C   0  0  0  0  0  0  0  0  0  0  0  0
  -26.0916  -31.1783   20.3358 C   0  0  0  0  0  0  0  0  0  0  0  0
  -28.4140  -30.3972   19.8217 C   0  0  0  0  0  0  0  0  0  0  0  0
  -27.7831  -30.9703   22.1661 C   0  0  0  0  0  0  0  0  0  0  0  0
  -28.2198  -24.1390   22.0460 C   0  0  0  0  0  0  0  0  0  0  0  0
  -25.6370  -23.3318   19.3534 C   0  0  0  0  0  0  0  0  0  0  0  0
  -22.6516  -22.9643   15.0063 C   0  0  0  0  0  0  0  0  0  0  0  0
  -21.2916  -22.9406   15.7015 C   0  0  0  0  0  0  0  0  0  0  0  0
  -21.4058  -23.3259   17.1699 C   0  0  0  0  0  0  0  0  0  1  0  0
  -26.8830  -28.8503   21.1232 C   0  0  1  0  0  0  0  0  0  0  0  0
  -29.5523  -26.2275   21.7278 C   0  0  2  0  0  0  0  0  0  0  0  0
  -27.2705  -30.3322   20.8566 C   0  0  0  0  0  0  0  0  0  0  0  0
  -28.4960  -13.6524   20.4457 N   0  0  0  0  0  0  0  0  0  0  0  0
  -29.6059  -13.9980   19.7714 N   0  0  0  0  0  0  0  0  0  0  0  0
  -24.5886  -28.0859   21.6480 N   0  0  0  0  0  0  0  0  0  0  0  0
  -29.6303  -17.7762   20.3260 N   0  0  0  0  0  0  0  0  0  0  0  0
  -31.2236  -13.1764   18.2486 N   0  0  0  0  0  0  0  0  0  0  0  0
  -28.4644   -9.6504   18.8406 N   0  0  0  0  0  0  0  0  0  0  0  0
  -28.4469  -18.6574   18.4860 N   0  0  0  0  0  0  0  0  0  0  0  0
  -21.4056  -29.4662   22.7705 N   0  0  0  0  0  0  0  0  0  0  0  0
  -27.9732  -28.0318   21.6428 N   0  0  0  0  0  0  0  0  0  0  0  0
  -29.4835  -24.7486   21.5576 N   0  3  0  0  0  0  0  0  0  0  0  0
  -30.3570  -10.3739   17.7668 O   0  0  0  0  0  0  0  0  0  0  0  0
  -22.9235  -29.9372   21.0686 O   0  0  0  0  0  0  0  0  0  0  0  0
  -25.8914  -29.1604   23.2556 O   0  0  0  0  0  0  0  0  0  0  0  0
  -27.9463  -26.4603   19.9379 O   0  0  0  0  0  0  0  0  0  0  0  0
  -29.8857  -19.9930   19.7221 O   0  0  0  0  0  0  0  0  0  0  0  0
  -23.9475   -9.5138   22.0987 O   0  0  0  0  0  0  0  0  0  0  0  0
  -26.5384  -23.0679   18.2810 O   0  0  0  0  0  0  0  0  0  0  0  0
  -21.9573  -24.6388   17.2609 O   0  0  0  0  0  0  0  0  0  1  0  0
  -20.9860   -6.5163   18.5423 F   0  0  0  0  0  0  0  0  0  0  0  0
  -21.2528  -10.0072   21.7279 F   0  0  0  0  0  0  0  0  0  0  0  0
  1  2  1  0  0  0  0
  1  6  2  0  0  0  0
  2  7  2  0  0  0  0
  3 10  2  0  0  0  0
  3 18  1  0  0  0  0
  4 11  1  0  0  0  0
  4 18  2  0  0  0  0
  5  9  2  0  0  0  0
  5 19  1  0  0  0  0
  6 21  1  0  0  0  0
  7 23  1  0  0  0  0
  8 12  2  0  0  0  0
  8 22  1  0  0  0  0
  9 25  1  0  0  0  0
 10 26  1  0  0  0  0
 11 26  2  0  0  0  0
 12 27  1  0  0  0  0
 13 14  2  0  0  0  0
 13 28  1  0  0  0  0
 14 30  1  0  0  0  0
 15 24  1  0  0  0  0
 15 27  2  0  0  0  0
 16 25  2  0  0  0  0
 16 29  1  0  0  0  0
 17 30  2  0  0  0  0
 17 31  1  0  0  0  0
 18 32  1  0  0  0  0
 19 29  2  0  0  0  0
 19 34  1  0  0  0  0
 20 32  1  0  0  0  0
 20 33  2  0  0  0  0
 20 36  1  0  0  0  0
 21 23  2  0  0  0  0
 21 41  1  0  0  0  0
 22 24  2  0  0  0  0
 22 42  1  0  0  0  0
 23 50  1  0  0  0  0
 24 43  1  0  0  0  0
 25 71  1  0  0  0  0
 26 80  1  0  0  0  0
 27 82  1  0  0  0  0
 28 31  2  0  0  0  0
 28 80  1  0  0  0  0
 29 81  1  0  0  0  0
 30 83  1  0  0  0  0
 31 84  1  0  0  0  0
 32 65  2  0  0  0  0
 33 66  1  0  0  0  0
 33 69  1  0  0  0  0
 34 35  2  0  0  0  0
 35 59  1  0  0  0  0
 36 70  1  0  0  0  0
 36 75  2  0  0  0  0
 37 51  1  0  0  0  0
 37 72  1  0  0  0  0
 37 76  2  0  0  0  0
 38 62  1  0  0  0  0
 38 67  1  0  0  0  0
 38 77  2  0  0  0  0
 39 63  1  0  0  0  0
 39 73  1  0  0  0  0
 39 78  2  0  0  0  0
 40 68  1  0  0  0  0
 40 71  1  0  0  0  0
 40 79  2  0  0  0  0
 41 44  1  0  0  0  0
 42 51  1  0  0  0  0
 43 67  1  0  0  0  0
 44 46  1  0  0  0  0
 45 47  1  0  0  0  0
 45 48  1  0  0  0  0
 46 50  1  0  0  0  0
 47 52  1  0  0  0  0
 48 68  1  0  0  0  0
 49 52  1  0  0  0  0
 49 68  1  0  0  0  0
 50 72  1  0  0  0  0
 51 67  1  0  0  0  0
 52 66  1  0  0  0  0
 53 63  1  0  0  0  0
 54 64  1  0  0  0  0
 55 64  1  0  0  0  0
 56 64  1  0  0  0  0
 57 74  1  0  0  0  0
 58 81  1  0  0  0  0
 59 60  1  0  0  0  0
 60 61  1  0  0  0  0
 61 82  1  0  0  0  0
 62 64  1  0  0  0  0
 62 73  1  0  0  0  0
 63 74  1  0  0  0  0
 65 66  1  0  0  0  0
M  CHG  1  74   1
M  ISO  4  40 100  61 101  71 100  82 101
M  END
> <Batch ID>
0120

> <Smiles>
CNC(C)C(=O)NC(C(=O)N1Cc2cc([101O:1][101CH2:1]CCC=Cc3ccc([100NH:0][100C:0](=O)N4CCCC(n5nc(-c6ccc(Oc7ccc(F)cc7F)cc6)c(C(N)=O)c5N)C4)cc3OC)ccc2CC1C(=O)NC1CCCc2ccccc21)C(C)(C)C

> <Shape>
0.271

> <Color>
0.081

> <Negative vol penalty>
0.000

$$$$

  -OEChem-04052301543D

 85 94  0     1  0  0  0  0  0999 V2000
  -27.3965  -35.4258   15.5611 C   0  0  0  0  0  0  0  0  0  0  0  0
  -27.5204  -34.0401   15.5508 C   0  0  0  0  0  0  0  0  0  0  0  0
  -22.9952  -10.0728   19.9071 C   0  0  0  0  0  0  0  0  0  0  0  0
  -23.9630   -9.7518   22.0974 C   0  0  0  0  0  0  0  0  0  0  0  0
  -27.4539  -36.1206   16.7685 C   0  0  0  0  0  0  0  0  0  0  0  0
  -27.7029  -33.3486   16.7478 C   0  0  0  0  0  0  0  0  0  0  0  0
  -25.5477  -27.7915   18.1546 C   0  0  0  0  0  0  0  0  0  0  0  0
  -31.6369  -18.4465   20.4328 C   0  0  0  0  0  0  0  0  0  0  0  0
  -31.3816  -19.5977   19.6878 C   0  0  0  0  0  0  0  0  0  0  0  0
  -22.2611   -8.8966   20.0590 C   0  0  0  0  0  0  0  0  0  0  0  0
  -23.2288   -8.5756   22.2494 C   0  0  0  0  0  0  0  0  0  0  0  0
  -26.1325  -26.5260   18.1347 C   0  0  0  0  0  0  0  0  0  0  0  0
  -20.0588   -7.7033   23.0306 C   0  0  0  0  0  0  0  0  0  0  0  0
  -19.4123   -7.4975   24.2493 C   0  0  0  0  0  0  0  0  0  0  0  0
  -26.6337  -26.7272   20.4858 C   0  0  0  0  0  0  0  0  0  0  0  0
  -29.2180  -19.8012   20.7435 C   0  0  0  0  0  0  0  0  0  0  0  0
  -20.6884   -5.4735   24.5844 C   0  0  0  0  0  0  0  0  0  0  0  0
  -23.8462  -10.5005   20.9262 C   0  0  0  0  0  0  0  0  0  0  0  0
  -24.2116  -13.0166   21.1345 C   0  0  0  0  0  0  0  0  0  0  0  0
  -27.6275  -35.4364   17.9819 C   0  0  0  0  0  0  0  0  0  0  0  0
  -25.5113  -28.5401   19.3398 C   0  0  0  0  0  0  0  0  0  0  0  0
  -27.7640  -34.0351   17.9724 C   0  0  0  0  0  0  0  0  0  0  0  0
  -26.0456  -28.0008   20.5187 C   0  0  0  0  0  0  0  0  0  0  0  0
  -30.6827  -17.9725   21.3331 C   0  0  0  0  0  0  0  0  0  0  0  0
  -29.4733  -18.6499   21.4885 C   0  0  0  0  0  0  0  0  0  0  0  0
  -30.1722  -20.2751   19.8431 C   0  0  0  0  0  0  0  0  0  0  0  0
  -22.3779   -8.1480   21.2302 C   0  0  0  0  0  0  0  0  0  0  0  0
  -26.6781  -25.9948   19.2997 C   0  0  0  0  0  0  0  0  0  0  0  0
  -21.0200   -6.7941   22.5887 C   0  0  0  0  0  0  0  0  0  0  0  0
  -19.7271   -6.3827   25.0263 C   0  0  0  0  0  0  0  0  0  0  0  0
  -21.3348   -5.6793   23.3657 C   0  0  0  0  0  0  0  0  0  0  0  0
  -24.6052  -11.7151   20.7696 C   0  0  0  0  0  0  0  0  0  0  0  0
  -25.2762  -13.8091   20.7812 C   0  0  0  0  0  0  0  0  0  0  0  0
  -28.9541  -23.3849   18.3543 C   0  0  0  0  0  0  0  0  0  0  0  0
  -28.3157  -24.5559   18.4521 C   0  0  0  0  0  0  0  0  0  1  0  0
  -22.9925  -13.4686   21.7389 C   0  0  0  0  0  0  0  0  0  0  0  0
  -26.7069  -31.3364   20.2643 C   0  0  0  0  0  0  0  0  0  0  0  0
  -24.9597  -30.7590   22.9357 C   0  0  0  0  0  0  0  0  0  0  0  0
  -23.4502  -28.4745   24.9726 C   0  0  0  0  0  0  0  0  0  0  0  0
  -30.7680  -14.7853   20.6007 C   0  0  0  0  0  0  0  0  0  0  0  0
  -27.7307  -36.2349   19.2572 C   0  0  0  0  0  0  0  0  0  0  0  0
  -24.8531  -29.8925   19.3508 C   0  0  0  0  0  0  0  0  0  0  0  0
  -26.0137  -28.7556   21.8217 C   0  0  0  0  0  0  0  0  0  0  0  0
  -30.1231  -23.1142   17.4611 C   0  0  0  0  0  0  0  0  0  0  0  0
  -28.6817  -22.1832   19.2081 C   0  0  0  0  0  0  0  0  0  0  0  0
  -27.5511  -35.3941   20.5186 C   0  0  0  0  0  0  0  0  0  0  0  0
  -29.3816  -12.7668   18.0161 C   0  0  0  0  0  0  0  0  0  0  0  0
  -28.3838  -34.1188   20.4331 C   0  0  0  0  0  0  0  0  0  0  0  0
  -27.9861  -12.4157   18.5349 C   0  0  0  0  0  0  0  0  0  0  0  0
  -30.9032  -22.0548   18.2344 C   0  0  0  0  0  0  0  0  0  0  0  0
  -30.4085  -12.8131   19.1455 C   0  0  0  0  0  0  0  0  0  0  0  0
  -28.6530  -13.3408   20.7928 C   0  0  0  0  0  0  0  0  0  0  0  0
  -27.9383  -33.2472   19.2527 C   0  0  1  0  0  0  0  0  0  0  0  0
  -25.3305  -30.7801   20.4961 C   0  0  1  0  0  0  0  0  0  0  0  0
  -27.5722  -13.3370   19.6982 C   0  0  2  0  0  0  0  0  0  0  0  0
  -28.4362  -18.1604   22.4453 C   0  0  0  0  0  0  0  0  0  0  0  0
  -22.1322  -28.3003   27.1010 C   0  0  0  0  0  0  0  0  0  0  0  0
  -27.5112  -31.2030   24.5491 C   0  0  0  0  0  0  0  0  0  0  0  0
  -26.3860  -30.1071   26.4987 C   0  0  0  0  0  0  0  0  0  0  0  0
  -25.4552  -32.2173   25.5483 C   0  0  0  0  0  0  0  0  0  0  0  0
  -21.1238  -27.2975   23.5720 C   0  0  0  0  0  0  0  0  0  0  0  0
  -30.9782  -16.7373   22.1187 C   0  0  0  0  0  0  0  0  0  0  0  0
  -25.2148  -30.0613   24.2499 C   0  0  1  0  0  0  0  0  0  0  0  0
  -22.0629  -28.4348   25.5878 C   0  0  2  0  0  0  0  0  0  0  0  0
  -26.1443  -30.8835   25.1867 C   0  0  0  0  0  0  0  0  0  0  0  0
  -25.8247  -11.6787   20.2260 N   0  0  0  0  0  0  0  0  0  0  0  0
  -26.2065  -12.9670   20.2466 N   0  0  0  0  0  0  0  0  0  0  0  0
  -29.9203  -21.4155   19.1059 N   0  0  3  0  0  0  0  0  0  0  0  0
  -25.3650  -30.0766   21.7799 N   0  0  0  0  0  0  0  0  0  0  0  0
  -29.9565  -13.7053   20.2158 N   0  0  0  0  0  0  0  0  0  0  0  0
  -25.4980  -15.1371   20.8786 N   0  0  0  0  0  0  0  0  0  0  0  0
  -22.0031  -12.5217   22.0365 N   0  0  0  0  0  0  0  0  0  0  0  0
  -26.7206  -32.5369   19.5801 N   0  0  0  0  0  0  0  0  0  0  0  0
  -23.9033  -29.7674   24.8173 N   0  0  0  0  0  0  0  0  0  0  0  0
  -30.2623  -15.5851   21.6182 N   0  0  0  0  0  0  0  0  0  0  0  0
  -21.2898  -27.2807   25.0482 N   0  3  0  0  0  0  0  0  0  0  0  0
  -22.7802  -14.6787   21.9921 O   0  0  0  0  0  0  0  0  0  0  0  0
  -27.6840  -30.7227   20.6770 O   0  0  0  0  0  0  0  0  0  0  0  0
  -24.4143  -31.8654   22.9342 O   0  0  0  0  0  0  0  0  0  0  0  0
  -24.0714  -27.4597   24.6643 O   0  0  0  0  0  0  0  0  0  0  0  0
  -31.8598  -15.0225   20.0728 O   0  0  0  0  0  0  0  0  0  0  0  0
  -21.6615   -7.0003   21.3789 O   0  0  0  0  0  0  0  0  0  0  0  0
  -27.2500  -24.7601   19.2829 O   0  0  0  0  0  0  0  0  0  1  0  0
  -19.1074   -6.1860   26.1973 F   0  0  0  0  0  0  0  0  0  0  0  0
  -22.2583   -4.8031   22.9470 F   0  0  0  0  0  0  0  0  0  0  0  0
  1  2  1  0  0  0  0
  1  5  2  0  0  0  0
  2  6  2  0  0  0  0
  3 10  2  0  0  0  0
  3 18  1  0  0  0  0
  4 11  1  0  0  0  0
  4 18  2  0  0  0  0
  5 20  1  0  0  0  0
  6 22  1  0  0  0  0
  7 12  2  0  0  0  0
  7 21  1  0  0  0  0
  8  9  2  0  0  0  0
  8 24  1  0  0  0  0
  9 26  1  0  0  0  0
 10 27  1  0  0  0  0
 11 27  2  0  0  0  0
 12 28  1  0  0  0  0
 13 14  2  0  0  0  0
 13 29  1  0  0  0  0
 14 30  1  0  0  0  0
 15 23  1  0  0  0  0
 15 28  2  0  0  0  0
 16 25  1  0  0  0  0
 16 26  2  0  0  0  0
 17 30  2  0  0  0  0
 17 31  1  0  0  0  0
 18 32  1  0  0  0  0
 19 32  1  0  0  0  0
 19 33  2  0  0  0  0
 19 36  1  0  0  0  0
 20 22  2  0  0  0  0
 20 41  1  0  0  0  0
 21 23  2  0  0  0  0
 21 42  1  0  0  0  0
 22 53  1  0  0  0  0
 23 43  1  0  0  0  0
 24 25  2  0  0  0  0
 24 62  1  0  0  0  0
 25 56  1  0  0  0  0
 26 68  1  0  0  0  0
 27 82  1  0  0  0  0
 28 83  1  0  0  0  0
 29 31  2  0  0  0  0
 29 82  1  0  0  0  0
 30 84  1  0  0  0  0
 31 85  1  0  0  0  0
 32 66  2  0  0  0  0
 33 67  1  0  0  0  0
 33 71  1  0  0  0  0
 34 35  2  0  0  0  0
 34 44  1  0  0  0  0
 34 45  1  0  0  0  0
 35 83  1  0  0  0  0
 36 72  1  0  0  0  0
 36 77  2  0  0  0  0
 37 54  1  0  0  0  0
 37 73  1  0  0  0  0
 37 78  2  0  0  0  0
 38 63  1  0  0  0  0
 38 69  1  0  0  0  0
 38 79  2  0  0  0  0
 39 64  1  0  0  0  0
 39 74  1  0  0  0  0
 39 80  2  0  0  0  0
 40 70  1  0  0  0  0
 40 75  1  0  0  0  0
 40 81  2  0  0  0  0
 41 46  1  0  0  0  0
 42 54  1  0  0  0  0
 43 69  1  0  0  0  0
 44 50  1  0  0  0  0
 45 68  1  0  0  0  0
 46 48  1  0  0  0  0
 47 49  1  0  0  0  0
 47 51  1  0  0  0  0
 48 53  1  0  0  0  0
 49 55  1  0  0  0  0
 50 68  1  0  0  0  0
 51 70  1  0  0  0  0
 52 55  1  0  0  0  0
 52 70  1  0  0  0  0
 53 73  1  0  0  0  0
 54 69  1  0  0  0  0
 55 67  1  0  0  0  0
 57 64  1  0  0  0  0
 58 65  1  0  0  0  0
 59 65  1  0  0  0  0
 60 65  1  0  0  0  0
 61 76  1  0  0  0  0
 62 75  1  0  0  0  0
 63 65  1  0  0  0  0
 63 74  1  0  0  0  0
 64 76  1  0  0  0  0
 66 67  1  0  0  0  0
M  CHG  1  76   1
M  ISO  4  35 101  40 100  75 100  83 101
M  END
> <Batch ID>
0120

> <Smiles>
CNC(C)C(=O)NC(C(=O)N1Cc2cc([101O:1][101CH:1]=C3CCN(c4ccc(C[100NH:0][100C:0](=O)N5CCCC(n6nc(-c7ccc(Oc8ccc(F)cc8F)cc7)c(C(N)=O)c6N)C5)c(C)c4)C3)ccc2CC1C(=O)NC1CCCc2ccccc21)C(C)(C)C

> <Shape>
0.350

> <Color>
0.221

> <Negative vol penalty>
0.000

$$$$

  -OEChem-04052301543D

 85 93  0     1  0  0  0  0  0999 V2000
  -22.8607  -19.0715   15.9008 C   0  0  0  0  0  0  0  0  0  0  0  0
  -23.7146  -18.5132   16.8467 C   0  0  0  0  0  0  0  0  0  0  0  0
  -24.8506  -30.7422   20.9849 C   0  0  0  0  0  0  0  0  0  0  0  0
  -24.9841  -29.2158   22.8530 C   0  0  0  0  0  0  0  0  0  0  0  0
  -21.4910  -18.8188   15.9645 C   0  0  0  0  0  0  0  0  0  0  0  0
  -23.1991  -17.7028   17.8575 C   0  0  0  0  0  0  0  0  0  0  0  0
  -25.9387  -13.5034   18.5677 C   0  0  0  0  0  0  0  0  0  0  0  0
  -24.1546  -31.6534   21.7792 C   0  0  0  0  0  0  0  0  0  0  0  0
  -24.2882  -30.1271   23.6473 C   0  0  0  0  0  0  0  0  0  0  0  0
  -27.1264  -13.6320   19.2865 C   0  0  0  0  0  0  0  0  0  0  0  0
  -24.8757  -33.9332   24.1698 C   0  0  0  0  0  0  0  0  0  0  0  0
  -25.2606  -35.2725   24.1091 C   0  0  0  0  0  0  0  0  0  0  0  0
  -26.0163  -12.7970   21.2587 C   0  0  0  0  0  0  0  0  0  0  0  0
  -30.2994  -20.1042   19.9961 C   0  0  0  0  0  0  0  0  0  0  0  0
  -27.8266  -19.8407   18.7317 C   0  0  0  0  0  0  0  0  0  0  0  0
  -23.0452  -35.8752   23.3570 C   0  0  0  0  0  0  0  0  0  0  0  0
  -25.2653  -29.5233   21.5218 C   0  0  0  0  0  0  0  0  0  0  0  0
  -27.3784  -28.4937   20.5306 C   0  0  0  0  0  0  0  0  0  0  0  0
  -20.9597  -17.9970   16.9710 C   0  0  0  0  0  0  0  0  0  0  0  0
  -24.7762  -13.0301   19.1929 C   0  0  0  0  0  0  0  0  0  0  0  0
  -21.8208  -17.4399   17.9355 C   0  0  0  0  0  0  0  0  0  0  0  0
  -24.8158  -12.6609   20.5450 C   0  0  0  0  0  0  0  0  0  0  0  0
  -29.5827  -21.2409   19.6223 C   0  0  0  0  0  0  0  0  0  0  0  0
  -29.7799  -18.8357   19.7376 C   0  0  0  0  0  0  0  0  0  0  0  0
  -28.3463  -21.1092   18.9902 C   0  0  0  0  0  0  0  0  0  0  0  0
  -23.8734  -31.3459   23.1103 C   0  0  0  0  0  0  0  0  0  0  0  0
  -27.1646  -13.2815   20.6329 C   0  0  0  0  0  0  0  0  0  0  0  0
  -23.5754  -33.5649   23.8241 C   0  0  0  0  0  0  0  0  0  0  0  0
  -24.3454  -36.2435   23.7027 C   0  0  0  0  0  0  0  0  0  0  0  0
  -28.5435  -18.7040   19.1055 C   0  0  0  0  0  0  0  0  0  0  0  0
  -22.6602  -34.5359   23.4177 C   0  0  0  0  0  0  0  0  0  0  0  0
  -25.9838  -28.5814   20.7017 C   0  0  0  0  0  0  0  0  0  0  0  0
  -27.5524  -27.4442   19.6618 C   0  0  0  0  0  0  0  0  0  0  0  0
  -30.2626  -17.2402   21.3015 C   0  0  0  0  0  0  0  0  0  0  0  0
  -28.4231  -29.2896   21.1057 C   0  0  0  0  0  0  0  0  0  0  0  0
  -21.8908  -14.2328   19.7692 C   0  0  0  0  0  0  0  0  0  0  0  0
  -21.2804  -11.2310   20.8362 C   0  0  0  0  0  0  0  0  0  0  0  0
  -22.4957   -8.2989   22.0905 C   0  0  0  0  0  0  0  0  0  0  0  0
  -26.3624  -22.2760   17.9659 C   0  0  0  0  0  0  0  0  0  0  0  0
  -19.4666  -17.7911   17.0270 C   0  0  0  0  0  0  0  0  0  0  0  0
  -23.5098  -12.8720   18.3969 C   0  0  0  0  0  0  0  0  0  0  0  0
  -23.6004  -12.1284   21.2576 C   0  0  0  0  0  0  0  0  0  0  0  0
  -19.0463  -16.6177   17.9084 C   0  0  0  0  0  0  0  0  0  0  0  0
  -24.1908  -24.8798   16.8788 C   0  0  0  0  0  0  0  0  0  0  0  0
  -19.7882  -16.6580   19.2405 C   0  0  0  0  0  0  0  0  0  0  0  0
  -24.5784  -26.0677   17.7624 C   0  0  0  0  0  0  0  0  0  0  0  0
  -24.2587  -23.5586   17.6429 C   0  0  0  0  0  0  0  0  0  0  0  0
  -25.9224  -24.4866   19.2049 C   0  0  0  0  0  0  0  0  0  0  0  0
  -21.3026  -16.5355   19.0326 C   0  0  1  0  0  0  0  0  0  0  0  0
  -22.2553  -12.8651   19.2650 C   0  0  1  0  0  0  0  0  0  0  0  0
  -25.9318  -25.8322   18.4613 C   0  0  2  0  0  0  0  0  0  0  0  0
  -30.7593  -23.2383   18.6672 C   0  0  0  0  0  0  0  0  0  0  0  0
  -21.7505   -6.0438   22.9008 C   0  0  0  0  0  0  0  0  0  0  0  0
  -20.3211  -12.4883   23.4456 C   0  0  0  0  0  0  0  0  0  0  0  0
  -20.4983  -10.2322   24.5166 C   0  0  0  0  0  0  0  0  0  0  0  0
  -18.9147  -10.5910   22.6229 C   0  0  0  0  0  0  0  0  0  0  0  0
  -24.0485   -6.9034   19.9927 C   0  0  0  0  0  0  0  0  0  0  0  0
  -30.1630  -22.5874   19.9111 C   0  0  0  0  0  0  0  0  0  0  0  0
  -30.9883  -16.0288   21.8203 C   0  0  0  0  0  0  0  0  0  0  0  0
  -30.0094  -14.9079   22.1485 C   0  0  0  0  0  0  0  0  0  0  0  0
  -29.2208  -14.4387   20.9316 C   0  0  0  0  0  0  0  0  0  1  0  0
  -21.4001  -10.5235   22.1644 C   0  0  1  0  0  0  0  0  0  0  0  0
  -22.2329   -6.8537   21.7074 C   0  0  2  0  0  0  0  0  0  0  0  0
  -20.3061  -10.9706   23.1748 C   0  0  0  0  0  0  0  0  0  0  0  0
  -25.3191  -27.6611   19.9979 N   0  0  0  0  0  0  0  0  0  0  0  0
  -30.5034  -17.6918   20.1142 N   0  0  0  0  0  0  0  0  0  0  0  0
  -26.3002  -26.9852   19.3761 N   0  0  0  0  0  0  0  0  0  0  0  0
  -22.3844  -11.9980   20.4380 N   0  0  0  0  0  0  0  0  0  0  0  0
  -25.5705  -23.4022   18.2749 N   0  0  0  0  0  0  0  0  0  0  0  0
  -28.6528  -26.8786   19.1218 N   0  0  0  0  0  0  0  0  0  0  0  0
  -28.0689  -30.3277   21.9782 N   0  0  0  0  0  0  0  0  0  0  0  0
  -27.6031  -22.2514   18.6021 N   0  0  0  0  0  0  0  0  0  0  0  0
  -21.6668  -15.1598   18.7692 N   0  0  0  0  0  0  0  0  0  0  0  0
  -21.3920   -9.0950   21.8682 N   0  0  0  0  0  0  0  0  0  0  0  0
  -23.4769   -6.2225   21.1829 N   0  3  0  0  0  0  0  0  0  0  0  0
  -29.6339  -29.0968   20.8405 O   0  0  0  0  0  0  0  0  0  0  0  0
  -21.8168  -14.4320   20.9761 O   0  0  0  0  0  0  0  0  0  0  0  0
  -20.2483  -11.1018   20.1731 O   0  0  0  0  0  0  0  0  0  0  0  0
  -23.5712   -8.6825   22.5451 O   0  0  0  0  0  0  0  0  0  0  0  0
  -25.9801  -21.4117   17.1729 O   0  0  0  0  0  0  0  0  0  0  0  0
  -23.1945  -32.2350   23.8857 O   0  0  0  0  0  0  0  0  0  0  0  0
  -28.3225  -13.4067   21.3369 O   0  0  0  0  0  0  0  0  0  1  0  0
  -24.7148  -37.5298   23.6458 F   0  0  0  0  0  0  0  0  0  0  0  0
  -28.0363  -17.4890   18.8541 F   0  0  0  0  0  0  0  0  0  0  0  0
  -21.4094  -34.1883   23.0855 F   0  0  0  0  0  0  0  0  0  0  0  0
  1  2  1  0  0  0  0
  1  5  2  0  0  0  0
  2  6  2  0  0  0  0
  3  8  2  0  0  0  0
  3 17  1  0  0  0  0
  4  9  1  0  0  0  0
  4 17  2  0  0  0  0
  5 19  1  0  0  0  0
  6 21  1  0  0  0  0
  7 10  2  0  0  0  0
  7 20  1  0  0  0  0
  8 26  1  0  0  0  0
  9 26  2  0  0  0  0
 10 27  1  0  0  0  0
 11 12  2  0  0  0  0
 11 28  1  0  0  0  0
 12 29  1  0  0  0  0
 13 22  1  0  0  0  0
 13 27  2  0  0  0  0
 14 23  1  0  0  0  0
 14 24  2  0  0  0  0
 15 25  1  0  0  0  0
 15 30  2  0  0  0  0
 16 29  2  0  0  0  0
 16 31  1  0  0  0  0
 17 32  1  0  0  0  0
 18 32  1  0  0  0  0
 18 33  2  0  0  0  0
 18 35  1  0  0  0  0
 19 21  2  0  0  0  0
 19 40  1  0  0  0  0
 20 22  2  0  0  0  0
 20 41  1  0  0  0  0
 21 49  1  0  0  0  0
 22 42  1  0  0  0  0
 23 25  2  0  0  0  0
 23 58  1  0  0  0  0
 24 30  1  0  0  0  0
 24 66  1  0  0  0  0
 25 72  1  0  0  0  0
 26 81  1  0  0  0  0
 27 82  1  0  0  0  0
 28 31  2  0  0  0  0
 28 81  1  0  0  0  0
 29 83  1  0  0  0  0
 30 84  1  0  0  0  0
 31 85  1  0  0  0  0
 32 65  2  0  0  0  0
 33 67  1  0  0  0  0
 33 70  1  0  0  0  0
 34 59  1  0  0  0  0
 34 66  2  0  0  0  0
 35 71  1  0  0  0  0
 35 76  2  0  0  0  0
 36 50  1  0  0  0  0
 36 73  1  0  0  0  0
 36 77  2  0  0  0  0
 37 62  1  0  0  0  0
 37 68  1  0  0  0  0
 37 78  2  0  0  0  0
 38 63  1  0  0  0  0
 38 74  1  0  0  0  0
 38 79  2  0  0  0  0
 39 69  1  0  0  0  0
 39 72  1  0  0  0  0
 39 80  2  0  0  0  0
 40 43  1  0  0  0  0
 41 50  1  0  0  0  0
 42 68  1  0  0  0  0
 43 45  1  0  0  0  0
 44 46  1  0  0  0  0
 44 47  1  0  0  0  0
 45 49  1  0  0  0  0
 46 51  1  0  0  0  0
 47 69  1  0  0  0  0
 48 51  1  0  0  0  0
 48 69  1  0  0  0  0
 49 73  1  0  0  0  0
 50 68  1  0  0  0  0
 51 67  1  0  0  0  0
 52 58  1  0  0  0  0
 53 63  1  0  0  0  0
 54 64  1  0  0  0  0
 55 64  1  0  0  0  0
 56 64  1  0  0  0  0
 57 75  1  0  0  0  0
 59 60  1  0  0  0  0
 60 61  1  0  0  0  0
 61 82  1  0  0  0  0
 62 64  1  0  0  0  0
 62 74  1  0  0  0  0
 63 75  1  0  0  0  0
 65 67  1  0  0  0  0
M  CHG  1  75   1
M  ISO  4  39 100  61 101  72 100  82 101
M  END
> <Batch ID>
0120

> <Smiles>
CCc1cc(NC=CC[101CH2:1][101O:1]c2ccc3c(c2)CN(C(=O)C(NC(=O)C(C)NC)C(C)(C)C)C(C(=O)NC2CCCc4ccccc42)C3)c(F)cc1[100NH:0][100C:0](=O)N1CCCC(n2nc(-c3ccc(Oc4ccc(F)cc4F)cc3)c(C(N)=O)c2N)C1

> <Shape>
0.273

> <Color>
0.077

> <Negative vol penalty>
0.000

$$$$

  -OEChem-04052301543D

 84 92  0     1  0  0  0  0  0999 V2000
  -25.6069  -23.6274   19.6300 C   0  0  0  0  0  0  0  0  0  0  0  0
  -25.7231  -22.4738   18.8628 C   0  0  0  0  0  0  0  0  0  0  0  0
  -25.6634  -30.4519   21.7989 C   0  0  0  0  0  0  0  0  0  0  0  0
  -24.8785  -28.8196   20.1999 C   0  0  0  0  0  0  0  0  0  0  0  0
  -25.5138  -23.5311   21.0168 C   0  0  0  0  0  0  0  0  0  0  0  0
  -25.7342  -21.2230   19.4812 C   0  0  0  0  0  0  0  0  0  0  0  0
  -26.5206  -15.6531   17.1391 C   0  0  0  0  0  0  0  0  0  0  0  0
  -24.3567  -30.9066   21.9762 C   0  0  0  0  0  0  0  0  0  0  0  0
  -23.5718  -29.2742   20.3773 C   0  0  0  0  0  0  0  0  0  0  0  0
  -27.5785  -14.7766   16.9017 C   0  0  0  0  0  0  0  0  0  0  0  0
  -21.0938  -28.9040   22.6451 C   0  0  0  0  0  0  0  0  0  0  0  0
  -20.0909  -27.9464   22.7955 C   0  0  0  0  0  0  0  0  0  0  0  0
  -27.0941  -13.6402   18.9737 C   0  0  0  0  0  0  0  0  0  0  0  0
  -31.2375  -17.2276   20.3912 C   0  0  0  0  0  0  0  0  0  0  0  0
  -18.9781  -28.8029   20.8295 C   0  0  0  0  0  0  0  0  0  0  0  0
  -25.9243  -29.4085   20.9107 C   0  0  0  0  0  0  0  0  0  0  0  0
  -28.3786  -29.6834   20.2712 C   0  0  0  0  0  0  0  0  0  0  0  0
  -25.5364  -22.2788   21.6526 C   0  0  0  0  0  0  0  0  0  0  0  0
  -25.7471  -15.5363   18.3029 C   0  0  0  0  0  0  0  0  0  0  0  0
  -25.6172  -21.1038   20.8778 C   0  0  0  0  0  0  0  0  0  0  0  0
  -26.0254  -14.5148   19.2223 C   0  0  0  0  0  0  0  0  0  0  0  0
  -30.8299  -18.5675   20.6536 C   0  0  0  0  0  0  0  0  0  0  0  0
  -23.3109  -30.3177   21.2655 C   0  0  0  0  0  0  0  0  0  0  0  0
  -27.8672  -13.7717   17.8204 C   0  0  0  0  0  0  0  0  0  0  0  0
  -21.0388  -29.8112   21.5869 C   0  0  0  0  0  0  0  0  0  0  0  0
  -19.0330  -27.8958   21.8877 C   0  0  0  0  0  0  0  0  0  0  0  0
  -19.9810  -29.7606   20.6791 C   0  0  0  0  0  0  0  0  0  0  0  0
  -27.2740  -28.9388   20.7266 C   0  0  0  0  0  0  0  0  0  0  0  0
  -30.1907  -19.1349   19.5733 C   0  0  0  0  0  0  0  0  0  0  0  0
  -29.4203  -28.7883   20.2731 C   0  0  0  0  0  0  0  0  0  0  0  0
  -30.8939  -16.8219   19.1202 C   0  0  0  0  0  0  0  0  0  0  0  0
  -29.6445  -20.4312   19.4414 C   0  0  0  0  0  0  0  0  0  0  0  0
  -30.0914  -21.5804   20.0491 C   0  0  0  0  0  0  0  0  0  0  0  0
  -28.4560  -31.0610   19.8814 C   0  0  0  0  0  0  0  0  0  0  0  0
  -29.4153  -22.8697   19.8013 C   0  0  0  0  0  0  0  0  0  0  0  0
  -25.1587  -17.4096   20.8026 C   0  0  0  0  0  0  0  0  0  0  0  0
  -23.0602  -15.0600   21.5758 C   0  0  0  0  0  0  0  0  0  0  0  0
  -31.7316  -14.4529   18.9509 C   0  0  0  0  0  0  0  0  0  0  0  0
  -22.1428  -11.7854   21.2895 C   0  0  0  0  0  0  0  0  0  0  0  0
  -25.4245  -22.2322   23.1561 C   0  0  0  0  0  0  0  0  0  0  0  0
  -24.5926  -16.4731   18.5314 C   0  0  0  0  0  0  0  0  0  0  0  0
  -25.2124  -14.3343   20.4773 C   0  0  0  0  0  0  0  0  0  0  0  0
  -25.8896  -20.9048   23.7459 C   0  0  0  0  0  0  0  0  0  0  0  0
  -30.9799  -24.8468   22.4612 C   0  0  0  0  0  0  0  0  0  0  0  0
  -25.2355  -19.7488   23.0041 C   0  0  0  0  0  0  0  0  0  0  0  0
  -30.2607  -26.1829   22.2957 C   0  0  0  0  0  0  0  0  0  0  0  0
  -30.0692  -23.6633   22.1377 C   0  0  0  0  0  0  0  0  0  0  0  0
  -28.7176  -25.0854   20.6240 C   0  0  0  0  0  0  0  0  0  0  0  0
  -25.6622  -19.7341   21.5307 C   0  0  1  0  0  0  0  0  0  0  0  0
  -24.1941  -16.5833   19.9999 C   0  0  1  0  0  0  0  0  0  0  0  0
  -29.6290  -26.2917   20.8988 C   0  0  1  0  0  0  0  0  0  0  0  0
  -31.0754  -19.2522   21.9471 C   0  0  0  0  0  0  0  0  0  0  0  0
  -20.7242   -9.7327   21.5573 C   0  0  0  0  0  0  0  0  0  0  0  0
  -24.4106  -14.9252   24.3085 C   0  0  0  0  0  0  0  0  0  0  0  0
  -23.3059  -12.7073   24.6675 C   0  0  0  0  0  0  0  0  0  0  0  0
  -21.9161  -14.7571   24.3682 C   0  0  0  0  0  0  0  0  0  0  0  0
  -20.6313  -12.3654   18.8120 C   0  0  0  0  0  0  0  0  0  0  0  0
  -31.7423  -13.3485   17.9031 C   0  0  0  0  0  0  0  0  0  0  0  0
  -31.0151  -12.0913   18.3674 C   0  0  0  0  0  0  0  0  0  0  0  0
  -29.5672  -12.3824   18.7344 C   0  0  0  0  0  0  0  0  0  1  0  0
  -23.1328  -13.7830   22.3776 C   0  0  1  0  0  0  0  0  0  0  0  0
  -20.8053  -11.1374   20.9801 C   0  0  2  0  0  0  0  0  0  0  0  0
  -23.2081  -14.0475   23.9079 C   0  0  0  0  0  0  0  0  0  0  0  0
  -27.5850  -27.6685   20.9979 N   0  0  0  0  0  0  0  0  0  0  0  0
  -28.8968  -27.6079   20.7121 N   0  0  0  0  0  0  0  0  0  0  0  0
  -29.4314  -23.8189   20.8217 N   0  0  0  0  0  0  0  0  0  0  0  0
  -24.0980  -15.2791   20.6588 N   0  0  0  0  0  0  0  0  0  0  0  0
  -30.7240  -28.9036   19.9419 N   0  0  0  0  0  0  0  0  0  0  0  0
  -28.2246  -31.3894   18.5387 N   0  0  0  0  0  0  0  0  0  0  0  0
  -31.1025  -15.5909   18.4540 N   0  0  0  0  0  0  0  0  0  0  0  0
  -24.8654  -18.7599   20.8181 N   0  0  0  0  0  0  0  0  0  0  0  0
  -21.9886  -12.9770   21.9660 N   0  0  0  0  0  0  0  0  0  0  0  0
  -20.5995  -11.0525   19.5065 N   0  3  0  0  0  0  0  0  0  0  0  0
  -28.7385  -31.9718   20.6963 O   0  0  0  0  0  0  0  0  0  0  0  0
  -28.8725  -23.0258   18.7060 O   0  0  0  0  0  0  0  0  0  0  0  0
  -26.0986  -16.8625   21.3673 O   0  0  0  0  0  0  0  0  0  0  0  0
  -22.1136  -15.8313   21.7513 O   0  0  0  0  0  0  0  0  0  0  0  0
  -32.2263  -14.3004   20.0628 O   0  0  0  0  0  0  0  0  0  0  0  0
  -23.2170  -11.2829   20.9670 O   0  0  0  0  0  0  0  0  0  0  0  0
  -22.0357  -30.7609   21.4384 O   0  0  0  0  0  0  0  0  0  0  0  0
  -28.8996  -12.9152   17.5913 O   0  0  0  0  0  0  0  0  0  1  0  0
  -18.0708  -26.9751   22.0314 F   0  0  0  0  0  0  0  0  0  0  0  0
  -19.9234  -30.6287   19.6598 F   0  0  0  0  0  0  0  0  0  0  0  0
  -30.0838  -18.0539   18.2495 S   0  0  0  0  0  0  0  0  0  0  0  0
  1  2  1  0  0  0  0
  1  5  2  0  0  0  0
  2  6  2  0  0  0  0
  3  8  2  0  0  0  0
  3 16  1  0  0  0  0
  4  9  1  0  0  0  0
  4 16  2  0  0  0  0
  5 18  1  0  0  0  0
  6 20  1  0  0  0  0
  7 10  2  0  0  0  0
  7 19  1  0  0  0  0
  8 23  1  0  0  0  0
  9 23  2  0  0  0  0
 10 24  1  0  0  0  0
 11 12  2  0  0  0  0
 11 25  1  0  0  0  0
 12 26  1  0  0  0  0
 13 21  1  0  0  0  0
 13 24  2  0  0  0  0
 14 22  1  0  0  0  0
 14 31  2  0  0  0  0
 15 26  2  0  0  0  0
 15 27  1  0  0  0  0
 16 28  1  0  0  0  0
 17 28  1  0  0  0  0
 17 30  2  0  0  0  0
 17 34  1  0  0  0  0
 18 20  2  0  0  0  0
 18 40  1  0  0  0  0
 19 21  2  0  0  0  0
 19 41  1  0  0  0  0
 20 49  1  0  0  0  0
 21 42  1  0  0  0  0
 22 29  2  0  0  0  0
 22 52  1  0  0  0  0
 23 80  1  0  0  0  0
 24 81  1  0  0  0  0
 25 27  2  0  0  0  0
 25 80  1  0  0  0  0
 26 82  1  0  0  0  0
 27 83  1  0  0  0  0
 28 64  2  0  0  0  0
 29 32  1  0  0  0  0
 29 84  1  0  0  0  0
 30 65  1  0  0  0  0
 30 68  1  0  0  0  0
 31 70  1  0  0  0  0
 31 84  1  0  0  0  0
 32 33  2  0  0  0  0
 33 35  1  0  0  0  0
 34 69  1  0  0  0  0
 34 74  2  0  0  0  0
 35 66  1  0  0  0  0
 35 75  2  0  0  0  0
 36 50  1  0  0  0  0
 36 71  1  0  0  0  0
 36 76  2  0  0  0  0
 37 61  1  0  0  0  0
 37 67  1  0  0  0  0
 37 77  2  0  0  0  0
 38 58  1  0  0  0  0
 38 70  1  0  0  0  0
 38 78  2  0  0  0  0
 39 62  1  0  0  0  0
 39 72  1  0  0  0  0
 39 79  2  0  0  0  0
 40 43  1  0  0  0  0
 41 50  1  0  0  0  0
 42 67  1  0  0  0  0
 43 45  1  0  0  0  0
 44 46  1  0  0  0  0
 44 47  1  0  0  0  0
 45 49  1  0  0  0  0
 46 51  1  0  0  0  0
 47 66  1  0  0  0  0
 48 51  1  0  0  0  0
 48 66  1  0  0  0  0
 49 71  1  0  0  0  0
 50 67  1  0  0  0  0
 51 65  1  0  0  0  0
 53 62  1  0  0  0  0
 54 63  1  0  0  0  0
 55 63  1  0  0  0  0
 56 63  1  0  0  0  0
 57 73  1  0  0  0  0
 58 59  1  0  0  0  0
 59 60  1  0  0  0  0
 60 81  1  0  0  0  0
 61 63  1  0  0  0  0
 61 72  1  0  0  0  0
 62 73  1  0  0  0  0
 64 65  1  0  0  0  0
M  CHG  1  73   1
M  ISO  4  33 100  35 100  60 101  81 101
M  END
> <Batch ID>
0120

> <Smiles>
CNC(C)C(=O)NC(C(=O)N1Cc2cc([101O:1][101CH2:1]CCC(=O)Nc3cc(C)c(C=[100CH:0][100C:0](=O)N4CCCC(n5nc(-c6ccc(Oc7ccc(F)cc7F)cc6)c(C(N)=O)c5N)C4)s3)ccc2CC1C(=O)NC1CCCc2ccccc21)C(C)(C)C

> <Shape>
0.249

> <Color>
0.074

> <Negative vol penalty>
0.000

$$$$

  -OEChem-04052301543D

 83 91  0     1  0  0  0  0  0999 V2000
  -41.8734  -29.8659   21.5077 C   0  0  0  0  0  0  0  0  0  0  0  0
  -41.7005  -28.4924   21.6450 C   0  0  0  0  0  0  0  0  0  0  0  0
  -23.0763   -9.8667   19.9420 C   0  0  0  0  0  0  0  0  0  0  0  0
  -23.8349   -9.8762   22.2358 C   0  0  0  0  0  0  0  0  0  0  0  0
  -40.9314  -30.7430   22.0437 C   0  0  0  0  0  0  0  0  0  0  0  0
  -40.5859  -27.9951   22.3194 C   0  0  0  0  0  0  0  0  0  0  0  0
  -37.5069  -22.8551   21.0521 C   0  0  0  0  0  0  0  0  0  0  0  0
  -22.3323   -8.7138   20.1928 C   0  0  0  0  0  0  0  0  0  0  0  0
  -23.0908   -8.7233   22.4866 C   0  0  0  0  0  0  0  0  0  0  0  0
  -37.5516  -21.5749   21.6027 C   0  0  0  0  0  0  0  0  0  0  0  0
  -19.8624   -7.9261   23.0882 C   0  0  0  0  0  0  0  0  0  0  0  0
  -19.1048   -7.8874   24.2587 C   0  0  0  0  0  0  0  0  0  0  0  0
  -32.0635  -16.5966   22.5345 C   0  0  0  0  0  0  0  0  0  0  0  0
  -35.6831  -22.1278   23.0248 C   0  0  0  0  0  0  0  0  0  0  0  0
  -30.4989  -18.3452   24.0437 C   0  0  0  0  0  0  0  0  0  0  0  0
  -20.3458   -5.9508   24.9980 C   0  0  0  0  0  0  0  0  0  0  0  0
  -23.8276  -10.4479   20.9635 C   0  0  0  0  0  0  0  0  0  0  0  0
  -32.6685  -17.4744   23.4339 C   0  0  0  0  0  0  0  0  0  0  0  0
  -24.1695  -12.9729   20.8409 C   0  0  0  0  0  0  0  0  0  0  0  0
  -39.7997  -30.2560   22.7165 C   0  0  0  0  0  0  0  0  0  0  0  0
  -36.5553  -23.7863   21.4923 C   0  0  0  0  0  0  0  0  0  0  0  0
  -39.6285  -28.8664   22.8660 C   0  0  0  0  0  0  0  0  0  0  0  0
  -35.6268  -23.4182   22.4764 C   0  0  0  0  0  0  0  0  0  0  0  0
  -29.8939  -17.4674   23.1442 C   0  0  0  0  0  0  0  0  0  0  0  0
  -30.6761  -16.5931   22.3896 C   0  0  0  0  0  0  0  0  0  0  0  0
  -22.3395   -8.1421   21.4651 C   0  0  0  0  0  0  0  0  0  0  0  0
  -36.6415  -21.2121   22.5912 C   0  0  0  0  0  0  0  0  0  0  0  0
  -20.8617   -6.9770   22.8725 C   0  0  0  0  0  0  0  0  0  0  0  0
  -19.3465   -6.8998   25.2136 C   0  0  0  0  0  0  0  0  0  0  0  0
  -21.1034   -5.9894   23.8274 C   0  0  0  0  0  0  0  0  0  0  0  0
  -31.8863  -18.3487   24.1885 C   0  0  0  0  0  0  0  0  0  0  0  0
  -24.5968  -11.6385   20.7049 C   0  0  0  0  0  0  0  0  0  0  0  0
  -25.2618  -13.7220   20.4774 C   0  0  0  0  0  0  0  0  0  0  0  0
  -34.1360  -17.4384   23.5482 C   0  0  0  0  0  0  0  0  0  0  0  0
  -34.9954  -17.6566   22.5405 C   0  0  0  0  0  0  0  0  0  0  0  0
  -22.8988  -13.4891   21.2585 C   0  0  0  0  0  0  0  0  0  0  0  0
  -36.6868  -26.6309   22.9046 C   0  0  0  0  0  0  0  0  0  0  0  0
  -33.4786  -26.5823   22.4273 C   0  0  0  0  0  0  0  0  0  0  0  0
  -30.6496  -24.7367   21.9402 C   0  0  0  0  0  0  0  0  0  0  0  0
  -30.7279  -14.7679   20.6541 C   0  0  0  0  0  0  0  0  0  0  0  0
  -38.8329  -31.2438   23.3201 C   0  0  0  0  0  0  0  0  0  0  0  0
  -36.5031  -25.1544   20.8694 C   0  0  0  0  0  0  0  0  0  0  0  0
  -34.5725  -24.3743   22.9692 C   0  0  0  0  0  0  0  0  0  0  0  0
  -37.4871  -30.6281   23.6943 C   0  0  0  0  0  0  0  0  0  0  0  0
  -29.6149  -12.3514   18.2878 C   0  0  0  0  0  0  0  0  0  0  0  0
  -37.6907  -29.3152   24.4437 C   0  0  0  0  0  0  0  0  0  0  0  0
  -28.1750  -12.0603   18.7169 C   0  0  0  0  0  0  0  0  0  0  0  0
  -30.5293  -12.5816   19.4897 C   0  0  0  0  0  0  0  0  0  0  0  0
  -28.6216  -13.3075   20.8691 C   0  0  0  0  0  0  0  0  0  0  0  0
  -38.4197  -28.2880   23.5692 C   0  0  1  0  0  0  0  0  0  0  0  0
  -35.8213  -26.1900   21.7583 C   0  0  1  0  0  0  0  0  0  0  0  0
  -27.6494  -13.1330   19.6909 C   0  0  2  0  0  0  0  0  0  0  0  0
  -28.4057  -17.4848   23.0098 C   0  0  0  0  0  0  0  0  0  0  0  0
  -28.1720  -24.9760   21.6215 C   0  0  0  0  0  0  0  0  0  0  0  0
  -33.1527  -27.1511   25.4073 C   0  0  0  0  0  0  0  0  0  0  0  0
  -30.7593  -26.4433   25.2096 C   0  0  0  0  0  0  0  0  0  0  0  0
  -31.5847  -28.4167   23.9261 C   0  0  0  0  0  0  0  0  0  0  0  0
  -30.7538  -23.4685   19.2681 C   0  0  0  0  0  0  0  0  0  0  0  0
  -36.4902  -17.5975   22.6990 C   0  0  0  0  0  0  0  0  0  0  0  0
  -37.1518  -18.9087   22.2914 C   0  0  0  0  0  0  0  0  0  1  0  0
  -32.2877  -26.0942   23.2163 C   0  0  1  0  0  0  0  0  0  0  0  0
  -29.5229  -24.8675   20.9314 C   0  0  2  0  0  0  0  0  0  0  0  0
  -31.9671  -27.0087   24.4321 C   0  0  0  0  0  0  0  0  0  0  0  0
  -25.8619  -11.5422   20.2874 N   0  0  0  0  0  0  0  0  0  0  0  0
  -26.2389  -12.8256   20.1579 N   0  0  0  0  0  0  0  0  0  0  0  0
  -34.5662  -25.7023   22.3338 N   0  0  0  0  0  0  0  0  0  0  0  0
  -29.9698  -13.6134   20.3657 N   0  0  0  0  0  0  0  0  0  0  0  0
  -25.4722  -15.0534   20.4031 N   0  0  0  0  0  0  0  0  0  0  0  0
  -21.8867  -12.5803   21.5962 N   0  0  0  0  0  0  0  0  0  0  0  0
  -30.0800  -15.6938   21.4711 N   0  0  0  0  0  0  0  0  0  0  0  0
  -37.5076  -27.7027   22.6100 N   0  0  0  0  0  0  0  0  0  0  0  0
  -31.1920  -25.9629   22.2620 N   0  0  0  0  0  0  0  0  0  0  0  0
  -29.4956  -23.6821   20.0286 N   0  3  0  0  0  0  0  0  0  0  0  0
  -22.6624  -14.7198   21.3144 O   0  0  0  0  0  0  0  0  0  0  0  0
  -36.6141  -26.0432   23.9775 O   0  0  0  0  0  0  0  0  0  0  0  0
  -33.4424  -27.7002   21.9071 O   0  0  0  0  0  0  0  0  0  0  0  0
  -31.0100  -23.6552   22.3997 O   0  0  0  0  0  0  0  0  0  0  0  0
  -31.8573  -14.9361   20.1869 O   0  0  0  0  0  0  0  0  0  0  0  0
  -21.6135   -7.0173   21.7103 O   0  0  0  0  0  0  0  0  0  0  0  0
  -36.6834  -19.9634   23.1307 O   0  0  0  0  0  0  0  0  0  1  0  0
  -18.6199   -6.8637   26.3383 F   0  0  0  0  0  0  0  0  0  0  0  0
  -22.0628   -5.0758   23.6263 F   0  0  0  0  0  0  0  0  0  0  0  0
  -32.5848  -19.4567   25.3175 Cl  0  0  0  0  0  0  0  0  0  0  0  0
  1  2  1  0  0  0  0
  1  5  2  0  0  0  0
  2  6  2  0  0  0  0
  3  8  2  0  0  0  0
  3 17  1  0  0  0  0
  4  9  1  0  0  0  0
  4 17  2  0  0  0  0
  5 20  1  0  0  0  0
  6 22  1  0  0  0  0
  7 10  2  0  0  0  0
  7 21  1  0  0  0  0
  8 26  1  0  0  0  0
  9 26  2  0  0  0  0
 10 27  1  0  0  0  0
 11 12  2  0  0  0  0
 11 28  1  0  0  0  0
 12 29  1  0  0  0  0
 13 18  1  0  0  0  0
 13 25  2  0  0  0  0
 14 23  1  0  0  0  0
 14 27  2  0  0  0  0
 15 24  2  0  0  0  0
 15 31  1  0  0  0  0
 16 29  2  0  0  0  0
 16 30  1  0  0  0  0
 17 32  1  0  0  0  0
 18 31  2  0  0  0  0
 18 34  1  0  0  0  0
 19 32  1  0  0  0  0
 19 33  2  0  0  0  0
 19 36  1  0  0  0  0
 20 22  2  0  0  0  0
 20 41  1  0  0  0  0
 21 23  2  0  0  0  0
 21 42  1  0  0  0  0
 22 50  1  0  0  0  0
 23 43  1  0  0  0  0
 24 25  1  0  0  0  0
 24 53  1  0  0  0  0
 25 70  1  0  0  0  0
 26 79  1  0  0  0  0
 27 80  1  0  0  0  0
 28 30  2  0  0  0  0
 28 79  1  0  0  0  0
 29 81  1  0  0  0  0
 30 82  1  0  0  0  0
 31 83  1  0  0  0  0
 32 64  2  0  0  0  0
 33 65  1  0  0  0  0
 33 68  1  0  0  0  0
 34 35  2  0  0  0  0
 35 59  1  0  0  0  0
 36 69  1  0  0  0  0
 36 74  2  0  0  0  0
 37 51  1  0  0  0  0
 37 71  1  0  0  0  0
 37 75  2  0  0  0  0
 38 61  1  0  0  0  0
 38 66  1  0  0  0  0
 38 76  2  0  0  0  0
 39 62  1  0  0  0  0
 39 72  1  0  0  0  0
 39 77  2  0  0  0  0
 40 67  1  0  0  0  0
 40 70  1  0  0  0  0
 40 78  2  0  0  0  0
 41 44  1  0  0  0  0
 42 51  1  0  0  0  0
 43 66  1  0  0  0  0
 44 46  1  0  0  0  0
 45 47  1  0  0  0  0
 45 48  1  0  0  0  0
 46 50  1  0  0  0  0
 47 52  1  0  0  0  0
 48 67  1  0  0  0  0
 49 52  1  0  0  0  0
 49 67  1  0  0  0  0
 50 71  1  0  0  0  0
 51 66  1  0  0  0  0
 52 65  1  0  0  0  0
 54 62  1  0  0  0  0
 55 63  1  0  0  0  0
 56 63  1  0  0  0  0
 57 63  1  0  0  0  0
 58 73  1  0  0  0  0
 59 60  1  0  0  0  0
 60 80  1  0  0  0  0
 61 63  1  0  0  0  0
 61 72  1  0  0  0  0
 62 73  1  0  0  0  0
 64 65  1  0  0  0  0
M  CHG  1  73   1
M  ISO  4  40 100  60 101  70 100  80 101
M  END
> <Batch ID>
0120

> <Smiles>
CNC(C)C(=O)NC(C(=O)N1Cc2cc([101O:1][101CH2:1]CC=Cc3cc([100NH:0][100C:0](=O)N4CCCC(n5nc(-c6ccc(Oc7ccc(F)cc7F)cc6)c(C(N)=O)c5N)C4)c(C)cc3Cl)ccc2CC1C(=O)NC1CCCc2ccccc21)C(C)(C)C

> <Shape>
0.188

> <Color>
0.200

> <Negative vol penalty>
0.000

$$$$

  -OEChem-04052301543D

 85 93  0     1  0  0  0  0  0999 V2000
  -27.5858  -24.5309   16.5703 C   0  0  0  0  0  0  0  0  0  0  0  0
  -26.4558  -24.7327   17.3563 C   0  0  0  0  0  0  0  0  0  0  0  0
  -27.9288  -13.4166   20.5270 C   0  0  0  0  0  0  0  0  0  0  0  0
  -27.4408  -13.9810   22.8249 C   0  0  0  0  0  0  0  0  0  0  0  0
  -28.8181  -25.0384   16.9797 C   0  0  0  0  0  0  0  0  0  0  0  0
  -26.5577  -25.4414   18.5529 C   0  0  0  0  0  0  0  0  0  0  0  0
  -22.8268  -28.8156   19.1363 C   0  0  0  0  0  0  0  0  0  0  0  0
  -29.1980  -12.9780   20.9042 C   0  0  0  0  0  0  0  0  0  0  0  0
  -28.7100  -13.5424   23.2022 C   0  0  0  0  0  0  0  0  0  0  0  0
  -21.5845  -28.3278   19.5394 C   0  0  0  0  0  0  0  0  0  0  0  0
  -30.5618  -10.2364   22.3383 C   0  0  0  0  0  0  0  0  0  0  0  0
  -31.0108   -9.0240   21.8148 C   0  0  0  0  0  0  0  0  0  0  0  0
  -18.7847  -20.1559   22.5259 C   0  0  0  0  0  0  0  0  0  0  0  0
  -16.9643  -19.3823   23.9132 C   0  0  0  0  0  0  0  0  0  0  0  0
  -22.0573  -29.0121   21.8038 C   0  0  0  0  0  0  0  0  0  0  0  0
  -18.4792  -17.7902   22.9097 C   0  0  0  0  0  0  0  0  0  0  0  0
  -32.8834  -10.1585   20.7934 C   0  0  0  0  0  0  0  0  0  0  0  0
  -27.0502  -13.9182   21.4873 C   0  0  0  0  0  0  0  0  0  0  0  0
  -17.6729  -20.4287   23.3228 C   0  0  0  0  0  0  0  0  0  0  0  0
  -24.5588  -13.6074   21.0354 C   0  0  0  0  0  0  0  0  0  0  0  0
  -28.9333  -25.7620   18.1772 C   0  0  0  0  0  0  0  0  0  0  0  0
  -23.6997  -29.3964   20.0675 C   0  0  0  0  0  0  0  0  0  0  0  0
  -27.7930  -25.9580   18.9794 C   0  0  0  0  0  0  0  0  0  0  0  0
  -23.3091  -29.5087   21.4095 C   0  0  0  0  0  0  0  0  0  0  0  0
  -19.1878  -18.8366   22.3193 C   0  0  0  0  0  0  0  0  0  0  0  0
  -29.5886  -13.0408   22.2418 C   0  0  0  0  0  0  0  0  0  0  0  0
  -21.2007  -28.4234   20.8738 C   0  0  0  0  0  0  0  0  0  0  0  0
  -31.2735  -11.4099   22.0893 C   0  0  0  0  0  0  0  0  0  0  0  0
  -32.1716   -8.9850   21.0424 C   0  0  0  0  0  0  0  0  0  0  0  0
  -17.3674  -18.0630   23.7066 C   0  0  0  0  0  0  0  0  0  0  0  0
  -32.4344  -11.3709   21.3169 C   0  0  0  0  0  0  0  0  0  0  0  0
  -25.7392  -14.3720   21.0981 C   0  0  0  0  0  0  0  0  0  0  0  0
  -23.5976  -14.4936   20.6145 C   0  0  0  0  0  0  0  0  0  0  0  0
  -18.0695  -24.1103   23.1030 C   0  0  0  0  0  0  0  0  0  0  0  0
  -18.3242  -22.8583   23.5084 C   0  0  0  0  0  0  0  0  0  0  0  0
  -19.0869  -25.1375   23.0575 C   0  0  0  0  0  0  0  0  0  0  0  0
  -18.8444  -26.3935   22.6539 C   0  0  0  0  0  0  0  0  0  0  0  0
  -17.2417  -21.8326   23.5409 C   0  0  0  0  0  0  0  0  0  0  0  0
  -24.3499  -12.2201   21.3313 C   0  0  0  0  0  0  0  0  0  0  0  0
  -26.6145  -28.7161   21.1374 C   0  0  0  0  0  0  0  0  0  0  0  0
  -26.2830  -31.5465   22.6869 C   0  0  0  0  0  0  0  0  0  0  0  0
  -24.1927  -33.9103   23.9869 C   0  0  0  0  0  0  0  0  0  0  0  0
  -21.1313  -19.4800   20.8511 C   0  0  0  0  0  0  0  0  0  0  0  0
  -30.2955  -26.2506   18.6018 C   0  0  0  0  0  0  0  0  0  0  0  0
  -25.0253  -29.9419   19.6118 C   0  0  0  0  0  0  0  0  0  0  0  0
  -24.2012  -30.1419   22.4447 C   0  0  0  0  0  0  0  0  0  0  0  0
  -30.2475  -27.3126   19.6973 C   0  0  0  0  0  0  0  0  0  0  0  0
  -24.0247  -19.1979   18.7954 C   0  0  0  0  0  0  0  0  0  0  0  0
  -29.2879  -26.8925   20.8063 C   0  0  0  0  0  0  0  0  0  0  0  0
  -24.6316  -17.8543   19.2061 C   0  0  0  0  0  0  0  0  0  0  0  0
  -23.4169  -19.9339   19.9882 C   0  0  0  0  0  0  0  0  0  0  0  0
  -23.0589  -17.8100   21.1839 C   0  0  0  0  0  0  0  0  0  0  0  0
  -27.8585  -26.7428   20.2716 C   0  0  1  0  0  0  0  0  0  0  0  0
  -26.0469  -30.0492   20.7397 C   0  0  1  0  0  0  0  0  0  0  0  0
  -23.6259  -17.0023   20.0050 C   0  0  2  0  0  0  0  0  0  0  0  0
  -24.2148  -36.0927   25.2255 C   0  0  0  0  0  0  0  0  0  0  0  0
  -26.9762  -30.0724   25.2670 C   0  0  0  0  0  0  0  0  0  0  0  0
  -26.0685  -32.0250   26.5444 C   0  0  0  0  0  0  0  0  0  0  0  0
  -28.0334  -32.3272   25.0375 C   0  0  0  0  0  0  0  0  0  0  0  0
  -22.8013  -35.3093   21.7810 C   0  0  0  0  0  0  0  0  0  0  0  0
  -19.8876  -27.4626   22.6083 C   0  0  0  0  0  0  0  0  0  1  0  0
  -25.7417  -31.9730   24.0301 C   0  0  1  0  0  0  0  0  0  0  0  0
  -24.1802  -35.4230   23.8606 C   0  0  2  0  0  0  0  0  0  0  0  0
  -26.6887  -31.5857   25.2008 C   0  0  0  0  0  0  0  0  0  0  0  0
  -25.5477  -15.6459   20.7451 N   0  0  0  0  0  0  0  0  0  0  0  0
  -16.0045  -22.1313   23.7828 N   0  0  0  0  0  0  0  0  0  0  0  0
  -24.2359  -15.6885   20.4565 N   0  0  0  0  0  0  0  0  0  0  0  0
  -25.4899  -30.6547   21.9510 N   0  0  0  0  0  0  0  0  0  0  0  0
  -22.4712  -19.0668   20.6942 N   0  0  0  0  0  0  0  0  0  0  0  0
  -22.2772  -14.3595   20.3678 N   0  0  0  0  0  0  0  0  0  0  0  0
  -25.4459  -11.4542   21.7514 N   0  0  0  0  0  0  0  0  0  0  0  0
  -20.3173  -18.5591   21.5099 N   0  0  0  0  0  0  0  0  0  0  0  0
  -27.2418  -28.0417   20.1073 N   0  0  0  0  0  0  0  0  0  0  0  0
  -25.4736  -33.4033   23.9267 N   0  0  0  0  0  0  0  0  0  0  0  0
  -22.9516  -35.8731   23.1472 N   0  3  0  0  0  0  0  0  0  0  0  0
  -23.2281  -11.6720   21.2105 O   0  0  0  0  0  0  0  0  0  0  0  0
  -26.4937  -28.3286   22.2937 O   0  0  0  0  0  0  0  0  0  0  0  0
  -27.3661  -31.9939   22.3017 O   0  0  0  0  0  0  0  0  0  0  0  0
  -23.1689  -33.2453   24.1289 O   0  0  0  0  0  0  0  0  0  0  0  0
  -20.7286  -20.5586   20.4078 O   0  0  0  0  0  0  0  0  0  0  0  0
  -30.8269  -12.6127   22.6103 O   0  0  0  0  0  0  0  0  0  0  0  0
  -19.9890  -27.9475   21.2700 O   0  0  0  0  0  0  0  0  0  1  0  0
  -32.6035   -7.8204   20.5411 F   0  0  0  0  0  0  0  0  0  0  0  0
  -16.6853  -17.0580   24.2710 F   0  0  0  0  0  0  0  0  0  0  0  0
  -33.1230  -12.4948   21.0753 F   0  0  0  0  0  0  0  0  0  0  0  0
  1  2  1  0  0  0  0
  1  5  2  0  0  0  0
  2  6  2  0  0  0  0
  3  8  2  0  0  0  0
  3 18  1  0  0  0  0
  4  9  1  0  0  0  0
  4 18  2  0  0  0  0
  5 21  1  0  0  0  0
  6 23  1  0  0  0  0
  7 10  2  0  0  0  0
  7 22  1  0  0  0  0
  8 26  1  0  0  0  0
  9 26  2  0  0  0  0
 10 27  1  0  0  0  0
 11 12  2  0  0  0  0
 11 28  1  0  0  0  0
 12 29  1  0  0  0  0
 13 19  2  0  0  0  0
 13 25  1  0  0  0  0
 14 19  1  0  0  0  0
 14 30  2  0  0  0  0
 15 24  1  0  0  0  0
 15 27  2  0  0  0  0
 16 25  2  0  0  0  0
 16 30  1  0  0  0  0
 17 29  2  0  0  0  0
 17 31  1  0  0  0  0
 18 32  1  0  0  0  0
 19 38  1  0  0  0  0
 20 32  1  0  0  0  0
 20 33  2  0  0  0  0
 20 39  1  0  0  0  0
 21 23  2  0  0  0  0
 21 44  1  0  0  0  0
 22 24  2  0  0  0  0
 22 45  1  0  0  0  0
 23 53  1  0  0  0  0
 24 46  1  0  0  0  0
 25 72  1  0  0  0  0
 26 81  1  0  0  0  0
 27 82  1  0  0  0  0
 28 31  2  0  0  0  0
 28 81  1  0  0  0  0
 29 83  1  0  0  0  0
 30 84  1  0  0  0  0
 31 85  1  0  0  0  0
 32 65  2  0  0  0  0
 33 67  1  0  0  0  0
 33 70  1  0  0  0  0
 34 35  2  0  0  0  0
 34 36  1  0  0  0  0
 35 38  1  0  0  0  0
 36 37  2  0  0  0  0
 37 61  1  0  0  0  0
 38 66  2  0  0  0  0
 39 71  1  0  0  0  0
 39 76  2  0  0  0  0
 40 54  1  0  0  0  0
 40 73  1  0  0  0  0
 40 77  2  0  0  0  0
 41 62  1  0  0  0  0
 41 68  1  0  0  0  0
 41 78  2  0  0  0  0
 42 63  1  0  0  0  0
 42 74  1  0  0  0  0
 42 79  2  0  0  0  0
 43 69  1  0  0  0  0
 43 72  1  0  0  0  0
 43 80  2  0  0  0  0
 44 47  1  0  0  0  0
 45 54  1  0  0  0  0
 46 68  1  0  0  0  0
 47 49  1  0  0  0  0
 48 50  1  0  0  0  0
 48 51  1  0  0  0  0
 49 53  1  0  0  0  0
 50 55  1  0  0  0  0
 51 69  1  0  0  0  0
 52 55  1  0  0  0  0
 52 69  1  0  0  0  0
 53 73  1  0  0  0  0
 54 68  1  0  0  0  0
 55 67  1  0  0  0  0
 56 63  1  0  0  0  0
 57 64  1  0  0  0  0
 58 64  1  0  0  0  0
 59 64  1  0  0  0  0
 60 75  1  0  0  0  0
 61 82  1  0  0  0  0
 62 64  1  0  0  0  0
 62 74  1  0  0  0  0
 63 75  1  0  0  0  0
 65 67  1  0  0  0  0
M  CHG  1  75   1
M  ISO  4  43 100  61 101  72 100  82 101
M  END
> <Batch ID>
0120

> <Smiles>
CNC(C)C(=O)NC(C(=O)N1Cc2cc([101O:1][101CH2:1]C=CC=CC(=N)c3cc(F)cc([100NH:0][100C:0](=O)N4CCCC(n5nc(-c6ccc(Oc7ccc(F)cc7F)cc6)c(C(N)=O)c5N)C4)c3)ccc2CC1C(=O)NC1CCCc2ccccc21)C(C)(C)C

> <Shape>
0.259

> <Color>
0.085

> <Negative vol penalty>
0.000

$$$$

  -OEChem-04052301543D

 85 93  0     1  0  0  0  0  0999 V2000
  -27.9261  -34.7042   25.8375 C   0  0  0  0  0  0  0  0  0  0  0  0
  -28.1296  -33.4304   25.3165 C   0  0  0  0  0  0  0  0  0  0  0  0
  -23.4004   -9.9141   22.0316 C   0  0  0  0  0  0  0  0  0  0  0  0
  -24.8781   -8.2198   21.1466 C   0  0  0  0  0  0  0  0  0  0  0  0
  -26.6294  -35.1692   26.0527 C   0  0  0  0  0  0  0  0  0  0  0  0
  -27.0363  -32.6204   25.0114 C   0  0  0  0  0  0  0  0  0  0  0  0
  -27.5100  -30.3285   20.5205 C   0  0  0  0  0  0  0  0  0  0  0  0
  -22.3169   -9.0492   21.8782 C   0  0  0  0  0  0  0  0  0  0  0  0
  -23.7945   -7.3549   20.9933 C   0  0  0  0  0  0  0  0  0  0  0  0
  -28.3442  -29.2131   20.4598 C   0  0  0  0  0  0  0  0  0  0  0  0
  -20.9922   -6.4017   23.5119 C   0  0  0  0  0  0  0  0  0  0  0  0
  -20.0867   -6.3033   24.5682 C   0  0  0  0  0  0  0  0  0  0  0  0
  -28.7216  -20.4912   17.9995 C   0  0  0  0  0  0  0  0  0  0  0  0
  -28.6729  -19.1027   16.0230 C   0  0  0  0  0  0  0  0  0  0  0  0
  -26.4142  -27.7707   20.5769 C   0  0  0  0  0  0  0  0  0  0  0  0
  -18.3102   -7.0594   23.1158 C   0  0  0  0  0  0  0  0  0  0  0  0
  -24.6810   -9.4994   21.6657 C   0  0  0  0  0  0  0  0  0  0  0  0
  -28.3993  -19.2845   17.3787 C   0  0  0  0  0  0  0  0  0  0  0  0
  -29.3173  -21.5163   17.2647 C   0  0  0  0  0  0  0  0  0  0  0  0
  -26.6297  -10.5252   22.9534 C   0  0  0  0  0  0  0  0  0  0  0  0
  -25.5196  -34.3681   25.7410 C   0  0  0  0  0  0  0  0  0  0  0  0
  -26.1200  -30.1730   20.6211 C   0  0  0  0  0  0  0  0  0  0  0  0
  -25.7236  -33.0746   25.2239 C   0  0  0  0  0  0  0  0  0  0  0  0
  -25.5643  -28.8857   20.6362 C   0  0  0  0  0  0  0  0  0  0  0  0
  -29.2686  -20.1278   15.2882 C   0  0  0  0  0  0  0  0  0  0  0  0
  -29.5909  -21.3346   15.9090 C   0  0  0  0  0  0  0  0  0  0  0  0
  -22.5139   -7.7696   21.3591 C   0  0  0  0  0  0  0  0  0  0  0  0
  -27.7966  -27.9339   20.4909 C   0  0  0  0  0  0  0  0  0  0  0  0
  -20.5568   -6.8290   22.2575 C   0  0  0  0  0  0  0  0  0  0  0  0
  -18.7457   -6.6322   24.3702 C   0  0  0  0  0  0  0  0  0  0  0  0
  -19.2158   -7.1578   22.0594 C   0  0  0  0  0  0  0  0  0  0  0  0
  -25.8006  -10.3926   21.8234 C   0  0  0  0  0  0  0  0  0  0  0  0
  -27.5351  -11.4967   22.6028 C   0  0  0  0  0  0  0  0  0  0  0  0
  -27.7779  -18.2150   18.1440 C   0  0  0  0  0  0  0  0  0  0  0  0
  -29.6450  -22.7783   17.9514 C   0  0  0  0  0  0  0  0  0  0  0  0
  -27.7628  -16.9103   17.7971 C   0  0  0  0  0  0  0  0  0  0  0  0
  -28.7462  -23.5813   18.5378 C   0  0  0  0  0  0  0  0  0  0  0  0
  -26.5855   -9.8321   24.2077 C   0  0  0  0  0  0  0  0  0  0  0  0
  -29.1808  -24.8456   19.1997 C   0  0  0  0  0  0  0  0  0  0  0  0
  -27.0967  -15.9393   18.6883 C   0  0  0  0  0  0  0  0  0  0  0  0
  -23.9231  -30.9750   22.7738 C   0  0  0  0  0  0  0  0  0  0  0  0
  -21.8707  -29.8714   20.5172 C   0  0  0  0  0  0  0  0  0  0  0  0
  -21.3526  -27.8675   17.8038 C   0  0  0  0  0  0  0  0  0  0  0  0
  -24.1378  -34.8960   26.0353 C   0  0  0  0  0  0  0  0  0  0  0  0
  -25.2320  -31.3865   20.6588 C   0  0  0  0  0  0  0  0  0  0  0  0
  -24.0770  -28.6650   20.7229 C   0  0  0  0  0  0  0  0  0  0  0  0
  -23.0267  -34.1181   25.3349 C   0  0  0  0  0  0  0  0  0  0  0  0
  -29.7295  -13.3930   18.8155 C   0  0  0  0  0  0  0  0  0  0  0  0
  -23.2415  -32.6167   25.4982 C   0  0  0  0  0  0  0  0  0  0  0  0
  -29.0618  -12.3229   19.6750 C   0  0  0  0  0  0  0  0  0  0  0  0
  -28.7229  -14.1243   17.9286 C   0  0  0  0  0  0  0  0  0  0  0  0
  -26.9080  -13.6359   19.5435 C   0  0  0  0  0  0  0  0  0  0  0  0
  -24.5628  -32.1756   24.8571 C   0  0  1  0  0  0  0  0  0  0  0  0
  -23.8659  -31.1082   21.2783 C   0  0  1  0  0  0  0  0  0  0  0  0
  -27.8952  -12.9196   20.4782 C   0  0  1  0  0  0  0  0  0  0  0  0
  -29.5498  -19.9067   13.8376 C   0  0  0  0  0  0  0  0  0  0  0  0
  -30.2298  -22.4276   15.1094 C   0  0  0  0  0  0  0  0  0  0  0  0
  -19.5617  -27.1467   16.2005 C   0  0  0  0  0  0  0  0  0  0  0  0
  -20.6809  -28.0596   22.6646 C   0  0  0  0  0  0  0  0  0  0  0  0
  -19.5962  -26.7289   20.8423 C   0  0  0  0  0  0  0  0  0  0  0  0
  -18.9996  -29.1308   21.1546 C   0  0  0  0  0  0  0  0  0  0  0  0
  -22.8298  -28.9580   15.4826 C   0  0  0  0  0  0  0  0  0  0  0  0
  -28.0741  -25.6674   19.8263 C   0  0  0  0  0  0  0  0  0  1  0  0
  -21.2592  -28.5299   20.1927 C   0  0  1  0  0  0  0  0  0  0  0  0
  -20.6863  -28.1353   16.4663 C   0  0  2  0  0  0  0  0  0  0  0  0
  -20.1622  -28.1161   21.2139 C   0  0  0  0  0  0  0  0  0  0  0  0
  -26.1483  -11.2143   20.8294 N   0  0  0  0  0  0  0  0  0  0  0  0
  -27.2059  -11.8726   21.3337 N   0  0  0  0  0  0  0  0  0  0  0  0
  -27.5874  -14.6351   18.7112 N   0  0  0  0  0  0  0  0  0  0  0  0
  -23.2509  -29.8829   20.7637 N   0  0  0  0  0  0  0  0  0  0  0  0
  -28.5727  -12.0577   23.2594 N   0  0  0  0  0  0  0  0  0  0  0  0
  -25.5906   -8.8642   24.4015 N   0  0  0  0  0  0  0  0  0  0  0  0
  -24.4231  -32.0899   23.4192 N   0  0  0  0  0  0  0  0  0  0  0  0
  -20.7897  -28.6180   18.8142 N   0  0  0  0  0  0  0  0  0  0  0  0
  -21.6801  -28.0249   15.3613 N   0  3  0  0  0  0  0  0  0  0  0  0
  -27.3939  -10.0758   25.1354 O   0  0  0  0  0  0  0  0  0  0  0  0
  -30.3581  -25.1934   19.2328 O   0  0  0  0  0  0  0  0  0  0  0  0
  -26.1419  -16.3418   19.3554 O   0  0  0  0  0  0  0  0  0  0  0  0
  -23.5404  -29.9381   23.3031 O   0  0  0  0  0  0  0  0  0  0  0  0
  -21.1516  -30.8733   20.5438 O   0  0  0  0  0  0  0  0  0  0  0  0
  -22.2773  -27.0693   17.9394 O   0  0  0  0  0  0  0  0  0  0  0  0
  -21.4569   -6.9253   21.2095 O   0  0  0  0  0  0  0  0  0  0  0  0
  -28.6087  -26.8435   20.4324 O   0  0  0  0  0  0  0  0  0  1  0  0
  -17.8760   -6.5362   25.3844 F   0  0  0  0  0  0  0  0  0  0  0  0
  -18.7913   -7.5677   20.8563 F   0  0  0  0  0  0  0  0  0  0  0  0
  1  2  1  0  0  0  0
  1  5  2  0  0  0  0
  2  6  2  0  0  0  0
  3  8  2  0  0  0  0
  3 17  1  0  0  0  0
  4  9  1  0  0  0  0
  4 17  2  0  0  0  0
  5 21  1  0  0  0  0
  6 23  1  0  0  0  0
  7 10  2  0  0  0  0
  7 22  1  0  0  0  0
  8 27  1  0  0  0  0
  9 27  2  0  0  0  0
 10 28  1  0  0  0  0
 11 12  2  0  0  0  0
 11 29  1  0  0  0  0
 12 30  1  0  0  0  0
 13 18  2  0  0  0  0
 13 19  1  0  0  0  0
 14 18  1  0  0  0  0
 14 25  2  0  0  0  0
 15 24  1  0  0  0  0
 15 28  2  0  0  0  0
 16 30  2  0  0  0  0
 16 31  1  0  0  0  0
 17 32  1  0  0  0  0
 18 34  1  0  0  0  0
 19 26  2  0  0  0  0
 19 35  1  0  0  0  0
 20 32  1  0  0  0  0
 20 33  2  0  0  0  0
 20 38  1  0  0  0  0
 21 23  2  0  0  0  0
 21 44  1  0  0  0  0
 22 24  2  0  0  0  0
 22 45  1  0  0  0  0
 23 53  1  0  0  0  0
 24 46  1  0  0  0  0
 25 26  1  0  0  0  0
 25 56  1  0  0  0  0
 26 57  1  0  0  0  0
 27 82  1  0  0  0  0
 28 83  1  0  0  0  0
 29 31  2  0  0  0  0
 29 82  1  0  0  0  0
 30 84  1  0  0  0  0
 31 85  1  0  0  0  0
 32 67  2  0  0  0  0
 33 68  1  0  0  0  0
 33 71  1  0  0  0  0
 34 36  2  0  0  0  0
 35 37  2  0  0  0  0
 36 40  1  0  0  0  0
 37 39  1  0  0  0  0
 38 72  1  0  0  0  0
 38 76  2  0  0  0  0
 39 63  1  0  0  0  0
 39 77  2  0  0  0  0
 40 69  1  0  0  0  0
 40 78  2  0  0  0  0
 41 54  1  0  0  0  0
 41 73  1  0  0  0  0
 41 79  2  0  0  0  0
 42 64  1  0  0  0  0
 42 70  1  0  0  0  0
 42 80  2  0  0  0  0
 43 65  1  0  0  0  0
 43 74  1  0  0  0  0
 43 81  2  0  0  0  0
 44 47  1  0  0  0  0
 45 54  1  0  0  0  0
 46 70  1  0  0  0  0
 47 49  1  0  0  0  0
 48 50  1  0  0  0  0
 48 51  1  0  0  0  0
 49 53  1  0  0  0  0
 50 55  1  0  0  0  0
 51 69  1  0  0  0  0
 52 55  1  0  0  0  0
 52 69  1  0  0  0  0
 53 73  1  0  0  0  0
 54 70  1  0  0  0  0
 55 68  1  0  0  0  0
 58 65  1  0  0  0  0
 59 66  1  0  0  0  0
 60 66  1  0  0  0  0
 61 66  1  0  0  0  0
 62 75  1  0  0  0  0
 63 83  1  0  0  0  0
 64 66  1  0  0  0  0
 64 74  1  0  0  0  0
 65 75  1  0  0  0  0
 67 68  1  0  0  0  0
M  CHG  1  75   1
M  ISO  4  36 100  40 100  63 101  83 101
M  END
> <Batch ID>
0120

> <Smiles>
CNC(C)C(=O)NC(C(=O)N1Cc2cc([101O:1][101CH2:1]C(=O)C=Cc3cc(C=[100CH:0][100C:0](=O)N4CCCC(n5nc(-c6ccc(Oc7ccc(F)cc7F)cc6)c(C(N)=O)c5N)C4)cc(C)c3C)ccc2CC1C(=O)NC1CCCc2ccccc21)C(C)(C)C

> <Shape>
0.269

> <Color>
0.114

> <Negative vol penalty>
0.000

$$$$

  -OEChem-04052301543D

 84 92  0     1  0  0  0  0  0999 V2000
  -28.1827  -22.1247   28.5331 C   0  0  0  0  0  0  0  0  0  0  0  0
  -28.3262  -23.0023   27.4644 C   0  0  0  0  0  0  0  0  0  0  0  0
  -28.4168  -12.6357   21.5904 C   0  0  0  0  0  0  0  0  0  0  0  0
  -26.7470  -13.4448   20.0431 C   0  0  0  0  0  0  0  0  0  0  0  0
  -26.9139  -21.6815   28.9005 C   0  0  0  0  0  0  0  0  0  0  0  0
  -27.2001  -23.4463   26.7703 C   0  0  0  0  0  0  0  0  0  0  0  0
  -27.8991  -26.9404   23.3783 C   0  0  0  0  0  0  0  0  0  0  0  0
  -27.8038  -11.3828   21.5968 C   0  0  0  0  0  0  0  0  0  0  0  0
  -26.1340  -12.1919   20.0495 C   0  0  0  0  0  0  0  0  0  0  0  0
  -28.5276  -26.6921   22.1589 C   0  0  0  0  0  0  0  0  0  0  0  0
  -24.0622  -10.4423   22.0688 C   0  0  0  0  0  0  0  0  0  0  0  0
  -22.6728  -10.4012   22.1849 C   0  0  0  0  0  0  0  0  0  0  0  0
  -27.1132  -21.6973   20.5982 C   0  0  0  0  0  0  0  0  0  0  0  0
  -25.0264  -20.9017   19.6768 C   0  0  0  0  0  0  0  0  0  0  0  0
  -26.3819  -26.7074   21.0567 C   0  0  0  0  0  0  0  0  0  0  0  0
  -26.6255  -22.0227   18.2544 C   0  0  0  0  0  0  0  0  0  0  0  0
  -22.5282   -9.2702   20.0548 C   0  0  0  0  0  0  0  0  0  0  0  0
  -27.8884  -13.6668   20.8136 C   0  0  0  0  0  0  0  0  0  0  0  0
  -25.8845  -21.0585   20.7652 C   0  0  0  0  0  0  0  0  0  0  0  0
  -29.5381  -15.4062   19.9414 C   0  0  0  0  0  0  0  0  0  0  0  0
  -25.7734  -22.1109   28.2022 C   0  0  0  0  0  0  0  0  0  0  0  0
  -26.5040  -27.0635   23.4480 C   0  0  0  0  0  0  0  0  0  0  0  0
  -25.9090  -23.0291   27.1411 C   0  0  0  0  0  0  0  0  0  0  0  0
  -25.7383  -26.9598   22.2779 C   0  0  0  0  0  0  0  0  0  0  0  0
  -26.6624  -11.1609   20.8263 C   0  0  0  0  0  0  0  0  0  0  0  0
  -27.7688  -26.5727   20.9983 C   0  0  0  0  0  0  0  0  0  0  0  0
  -24.6846   -9.8975   20.9456 C   0  0  0  0  0  0  0  0  0  0  0  0
  -27.4837  -22.1794   19.3428 C   0  0  0  0  0  0  0  0  0  0  0  0
  -21.9058   -9.8151   21.1780 C   0  0  0  0  0  0  0  0  0  0  0  0
  -25.3968  -21.3838   18.4214 C   0  0  0  0  0  0  0  0  0  0  0  0
  -23.9177   -9.3114   19.9387 C   0  0  0  0  0  0  0  0  0  0  0  0
  -28.5208  -14.9614   20.8069 C   0  0  0  0  0  0  0  0  0  0  0  0
  -29.7904  -16.6955   20.3420 C   0  0  0  0  0  0  0  0  0  0  0  0
  -30.8579  -25.0700   17.7672 C   0  0  0  0  0  0  0  0  0  0  0  0
  -25.4980  -20.5558   22.0741 C   0  0  0  0  0  0  0  0  0  0  0  0
  -30.1960  -14.7156   18.8709 C   0  0  0  0  0  0  0  0  0  0  0  0
  -29.7936  -24.8335   18.5505 C   0  0  0  0  0  0  0  0  0  0  0  0
  -26.3852  -20.7057   23.2504 C   0  0  0  0  0  0  0  0  0  0  0  0
  -24.1821  -25.4678   24.9199 C   0  0  0  0  0  0  0  0  0  0  0  0
  -22.3305  -27.8652   23.7596 C   0  0  0  0  0  0  0  0  0  0  0  0
  -21.8852  -30.3085   21.4188 C   0  0  0  0  0  0  0  0  0  0  0  0
  -24.4236  -21.6058   28.6473 C   0  0  0  0  0  0  0  0  0  0  0  0
  -25.8435  -27.3579   24.7669 C   0  0  0  0  0  0  0  0  0  0  0  0
  -24.2392  -27.1040   22.2958 C   0  0  0  0  0  0  0  0  0  0  0  0
  -23.3441  -21.7778   27.5836 C   0  0  0  0  0  0  0  0  0  0  0  0
  -29.6429  -19.5321   24.1812 C   0  0  0  0  0  0  0  0  0  0  0  0
  -23.3665  -23.2008   27.0457 C   0  0  0  0  0  0  0  0  0  0  0  0
  -29.7999  -18.2461   23.3706 C   0  0  0  0  0  0  0  0  0  0  0  0
  -28.1965  -19.7451   24.6160 C   0  0  0  0  0  0  0  0  0  0  0  0
  -27.3728  -18.4502   22.6683 C   0  0  0  0  0  0  0  0  0  0  0  0
  -24.7012  -23.5015   26.3521 C   0  0  1  0  0  0  0  0  0  0  0  0
  -24.3729  -26.9536   24.8021 C   0  0  1  0  0  0  0  0  0  0  0  0
  -28.8156  -18.2153   22.1878 C   0  0  2  0  0  0  0  0  0  0  0  0
  -20.2567  -32.0792   20.7049 C   0  0  0  0  0  0  0  0  0  0  0  0
  -20.5382  -25.7202   22.5363 C   0  0  0  0  0  0  0  0  0  0  0  0
  -19.5245  -27.4923   21.0871 C   0  0  0  0  0  0  0  0  0  0  0  0
  -19.3121  -27.6402   23.5682 C   0  0  0  0  0  0  0  0  0  0  0  0
  -23.8586  -32.4680   21.8674 C   0  0  0  0  0  0  0  0  0  0  0  0
  -29.5959  -25.5840   19.8407 C   0  0  0  0  0  0  0  0  0  1  0  0
  -28.7631  -23.8056   18.1705 C   0  0  0  0  0  0  0  0  0  0  0  0
  -21.5518  -28.0942   22.4867 C   0  0  1  0  0  0  0  0  0  0  0  0
  -21.4827  -31.7664   21.5486 C   0  0  2  0  0  0  0  0  0  0  0  0
  -20.2597  -27.2320   22.4192 C   0  0  0  0  0  0  0  0  0  0  0  0
  -28.1523  -15.8925   21.6908 N   0  0  0  0  0  0  0  0  0  0  0  0
  -24.3639  -19.9506   22.3030 N   0  0  0  0  0  0  0  0  0  0  0  0
  -28.9422  -16.9351   21.3828 N   0  0  0  0  0  0  0  0  0  0  0  0
  -27.2858  -19.6739   23.4751 N   0  0  0  0  0  0  0  0  0  0  0  0
  -23.6394  -27.3851   23.6105 N   0  0  0  0  0  0  0  0  0  0  0  0
  -30.6529  -17.6362   19.9020 N   0  0  0  0  0  0  0  0  0  0  0  0
  -29.8149  -13.3958   18.5932 N   0  0  0  0  0  0  0  0  0  0  0  0
  -24.7652  -24.9130   26.0432 N   0  0  0  0  0  0  0  0  0  0  0  0
  -21.3159  -29.5316   22.4056 N   0  0  0  0  0  0  0  0  0  0  0  0
  -22.5962  -32.6526   21.1062 N   0  3  0  0  0  0  0  0  0  0  0  0
  -31.1067  -15.2475   18.1917 O   0  0  0  0  0  0  0  0  0  0  0  0
  -26.2278  -21.7295   23.9026 O   0  0  0  0  0  0  0  0  0  0  0  0
  -23.5513  -24.8694   24.0564 O   0  0  0  0  0  0  0  0  0  0  0  0
  -21.7996  -28.1103   24.8457 O   0  0  0  0  0  0  0  0  0  0  0  0
  -22.6273  -29.8990   20.5288 O   0  0  0  0  0  0  0  0  0  0  0  0
  -26.0642   -9.9384   20.8322 O   0  0  0  0  0  0  0  0  0  0  0  0
  -28.3797  -26.3297   19.8068 O   0  0  0  0  0  0  0  0  0  1  0  0
  -28.6913  -22.8065   19.1789 O   0  0  0  0  0  0  0  0  0  0  0  0
  -20.5717   -9.7744   21.2903 F   0  0  0  0  0  0  0  0  0  0  0  0
  -24.5727  -21.2337   17.3762 F   0  0  0  0  0  0  0  0  0  0  0  0
  -24.5100   -8.7852   18.8580 F   0  0  0  0  0  0  0  0  0  0  0  0
  1  2  1  0  0  0  0
  1  5  2  0  0  0  0
  2  6  2  0  0  0  0
  3  8  2  0  0  0  0
  3 18  1  0  0  0  0
  4  9  1  0  0  0  0
  4 18  2  0  0  0  0
  5 21  1  0  0  0  0
  6 23  1  0  0  0  0
  7 10  2  0  0  0  0
  7 22  1  0  0  0  0
  8 25  1  0  0  0  0
  9 25  2  0  0  0  0
 10 26  1  0  0  0  0
 11 12  2  0  0  0  0
 11 27  1  0  0  0  0
 12 29  1  0  0  0  0
 13 19  1  0  0  0  0
 13 28  2  0  0  0  0
 14 19  2  0  0  0  0
 14 30  1  0  0  0  0
 15 24  1  0  0  0  0
 15 26  2  0  0  0  0
 16 28  1  0  0  0  0
 16 30  2  0  0  0  0
 17 29  2  0  0  0  0
 17 31  1  0  0  0  0
 18 32  1  0  0  0  0
 19 35  1  0  0  0  0
 20 32  1  0  0  0  0
 20 33  2  0  0  0  0
 20 36  1  0  0  0  0
 21 23  2  0  0  0  0
 21 42  1  0  0  0  0
 22 24  2  0  0  0  0
 22 43  1  0  0  0  0
 23 51  1  0  0  0  0
 24 44  1  0  0  0  0
 25 79  1  0  0  0  0
 26 80  1  0  0  0  0
 27 31  2  0  0  0  0
 27 79  1  0  0  0  0
 28 81  1  0  0  0  0
 29 82  1  0  0  0  0
 30 83  1  0  0  0  0
 31 84  1  0  0  0  0
 32 64  2  0  0  0  0
 33 66  1  0  0  0  0
 33 69  1  0  0  0  0
 34 37  2  0  0  0  0
 35 38  1  0  0  0  0
 35 65  2  0  0  0  0
 36 70  1  0  0  0  0
 36 74  2  0  0  0  0
 37 59  1  0  0  0  0
 37 60  1  0  0  0  0
 38 67  1  0  0  0  0
 38 75  2  0  0  0  0
 39 52  1  0  0  0  0
 39 71  1  0  0  0  0
 39 76  2  0  0  0  0
 40 61  1  0  0  0  0
 40 68  1  0  0  0  0
 40 77  2  0  0  0  0
 41 62  1  0  0  0  0
 41 72  1  0  0  0  0
 41 78  2  0  0  0  0
 42 45  1  0  0  0  0
 43 52  1  0  0  0  0
 44 68  1  0  0  0  0
 45 47  1  0  0  0  0
 46 48  1  0  0  0  0
 46 49  1  0  0  0  0
 47 51  1  0  0  0  0
 48 53  1  0  0  0  0
 49 67  1  0  0  0  0
 50 53  1  0  0  0  0
 50 67  1  0  0  0  0
 51 71  1  0  0  0  0
 52 68  1  0  0  0  0
 53 66  1  0  0  0  0
 54 62  1  0  0  0  0
 55 63  1  0  0  0  0
 56 63  1  0  0  0  0
 57 63  1  0  0  0  0
 58 73  1  0  0  0  0
 59 80  1  0  0  0  0
 60 81  1  0  0  0  0
 61 63  1  0  0  0  0
 61 72  1  0  0  0  0
 62 73  1  0  0  0  0
 64 66  1  0  0  0  0
M  CHG  1  73   1
M  ISO  4  35 100  38 100  59 101  80 101
M  END
> <Batch ID>
0120

> <Smiles>
C=C(COc1cc(F)cc([100C:0](=N)[100C:0](=O)N2CCCC(n3nc(-c4ccc(Oc5ccc(F)cc5F)cc4)c(C(N)=O)c3N)C2)c1)[101CH2:1][101O:1]c1ccc2c(c1)CN(C(=O)C(NC(=O)C(C)NC)C(C)(C)C)C(C(=O)NC1CCCc3ccccc31)C2

> <Shape>
0.199

> <Color>
0.080

> <Negative vol penalty>
0.000

$$$$

  -OEChem-04052301543D

 83 91  0     1  0  0  0  0  0999 V2000
  -16.9475  -30.9539   23.1368 C   0  0  0  0  0  0  0  0  0  0  0  0
  -18.0122  -31.0953   22.2525 C   0  0  0  0  0  0  0  0  0  0  0  0
  -24.2920   -9.5089   22.1239 C   0  0  0  0  0  0  0  0  0  0  0  0
  -23.9679   -9.1515   19.7565 C   0  0  0  0  0  0  0  0  0  0  0  0
  -29.1860  -21.1695   21.3170 C   0  0  0  0  0  0  0  0  0  0  0  0
  -17.0985  -30.1860   24.2907 C   0  0  0  0  0  0  0  0  0  0  0  0
  -19.2289  -30.4697   22.5222 C   0  0  0  0  0  0  0  0  0  0  0  0
  -24.7843  -27.3988   19.2021 C   0  0  0  0  0  0  0  0  0  0  0  0
  -29.3961  -22.5340   21.1181 C   0  0  0  0  0  0  0  0  0  0  0  0
  -23.2306   -8.6470   22.3994 C   0  0  0  0  0  0  0  0  0  0  0  0
  -22.9065   -8.2894   20.0320 C   0  0  0  0  0  0  0  0  0  0  0  0
  -26.1764  -27.4572   19.1535 C   0  0  0  0  0  0  0  0  0  0  0  0
  -22.6982   -5.3100   22.5189 C   0  0  0  0  0  0  0  0  0  0  0  0
  -22.8771   -4.3630   23.5272 C   0  0  0  0  0  0  0  0  0  0  0  0
  -26.2970  -26.0906   21.1377 C   0  0  0  0  0  0  0  0  0  0  0  0
  -31.3547  -22.0392   19.7929 C   0  0  0  0  0  0  0  0  0  0  0  0
  -21.0178   -5.3090   24.7459 C   0  0  0  0  0  0  0  0  0  0  0  0
  -24.6607   -9.7612   20.8024 C   0  0  0  0  0  0  0  0  0  0  0  0
  -30.0603  -20.2398   20.7540 C   0  0  0  0  0  0  0  0  0  0  0  0
  -27.1160  -10.3115   20.3823 C   0  0  0  0  0  0  0  0  0  0  0  0
  -18.3146  -29.5428   24.5699 C   0  0  0  0  0  0  0  0  0  0  0  0
  -24.1368  -26.6937   20.2268 C   0  0  0  0  0  0  0  0  0  0  0  0
  -19.3967  -29.6936   23.6817 C   0  0  0  0  0  0  0  0  0  0  0  0
  -24.8966  -26.0226   21.1955 C   0  0  0  0  0  0  0  0  0  0  0  0
  -31.1447  -20.6746   19.9919 C   0  0  0  0  0  0  0  0  0  0  0  0
  -30.4804  -22.9688   20.3560 C   0  0  0  0  0  0  0  0  0  0  0  0
  -22.5378   -8.0372   21.3535 C   0  0  0  0  0  0  0  0  0  0  0  0
  -26.9330  -26.8055   20.1230 C   0  0  0  0  0  0  0  0  0  0  0  0
  -21.6791   -6.2567   22.6242 C   0  0  0  0  0  0  0  0  0  0  0  0
  -22.0370   -4.3624   24.6406 C   0  0  0  0  0  0  0  0  0  0  0  0
  -20.8389   -6.2561   23.7376 C   0  0  0  0  0  0  0  0  0  0  0  0
  -25.7567  -10.6520   20.5172 C   0  0  0  0  0  0  0  0  0  0  0  0
  -27.7438  -11.5036   20.1155 C   0  0  0  0  0  0  0  0  0  0  0  0
  -29.8138  -18.8217   20.9801 C   0  0  0  0  0  0  0  0  0  0  0  0
  -28.6003  -18.2570   21.1462 C   0  0  0  0  0  0  0  0  0  0  0  0
  -30.1184  -24.8565   19.1189 C   0  0  0  0  0  0  0  0  0  0  0  0
  -27.7540   -9.0319   20.4886 C   0  0  0  0  0  0  0  0  0  0  0  0
  -28.5137  -16.7980   21.3571 C   0  0  0  0  0  0  0  0  0  0  0  0
  -22.1327  -27.4743   22.5673 C   0  0  0  0  0  0  0  0  0  0  0  0
  -22.0364  -24.2648   23.0280 C   0  0  0  0  0  0  0  0  0  0  0  0
  -23.5640  -21.2365   22.6500 C   0  0  0  0  0  0  0  0  0  0  0  0
  -18.4450  -28.7620   25.8536 C   0  0  0  0  0  0  0  0  0  0  0  0
  -22.6348  -26.6179   20.2498 C   0  0  0  0  0  0  0  0  0  0  0  0
  -24.2502  -25.2352   22.3049 C   0  0  0  0  0  0  0  0  0  0  0  0
  -19.6501  -27.8253   25.8771 C   0  0  0  0  0  0  0  0  0  0  0  0
  -25.8707  -16.0346   18.9356 C   0  0  0  0  0  0  0  0  0  0  0  0
  -20.8976  -28.5478   25.3787 C   0  0  0  0  0  0  0  0  0  0  0  0
  -25.6890  -14.5361   19.1619 C   0  0  0  0  0  0  0  0  0  0  0  0
  -26.2246  -16.7692   20.2278 C   0  0  0  0  0  0  0  0  0  0  0  0
  -27.2310  -14.7035   21.1555 C   0  0  0  0  0  0  0  0  0  0  0  0
  -20.7244  -29.0102   23.9269 C   0  0  1  0  0  0  0  0  0  0  0  0
  -22.0737  -26.2996   21.6323 C   0  0  1  0  0  0  0  0  0  0  0  0
  -26.9206  -13.9377   19.8599 C   0  0  1  0  0  0  0  0  0  0  0  0
  -32.1011  -19.7065   19.3730 C   0  0  0  0  0  0  0  0  0  0  0  0
  -23.2585  -18.7987   23.1608 C   0  0  0  0  0  0  0  0  0  0  0  0
  -22.7612  -24.7878   25.9454 C   0  0  0  0  0  0  0  0  0  0  0  0
  -23.3659  -22.3675   26.1564 C   0  0  0  0  0  0  0  0  0  0  0  0
  -21.0235  -23.0223   25.6025 C   0  0  0  0  0  0  0  0  0  0  0  0
  -23.6071  -20.5109   19.7811 C   0  0  0  0  0  0  0  0  0  0  0  0
  -30.2617  -26.3229   18.8105 C   0  0  0  0  0  0  0  0  0  0  0  0
  -28.8948  -26.9861   18.7909 C   0  0  0  0  0  0  0  0  0  1  0  0
  -22.8291  -23.2787   23.8515 C   0  0  1  0  0  0  0  0  0  0  0  0
  -23.0466  -19.9043   22.1383 C   0  0  2  0  0  0  0  0  0  0  0  0
  -22.5074  -23.3804   25.3693 C   0  0  0  0  0  0  0  0  0  0  0  0
  -25.5333  -11.9582   20.3500 N   0  0  0  0  0  0  0  0  0  0  0  0
  -30.6929  -24.3434   20.1574 N   0  0  0  0  0  0  0  0  0  0  0  0
  -26.7607  -12.4489   20.1074 N   0  0  0  0  0  0  0  0  0  0  0  0
  -27.3689  -16.1429   20.9069 N   0  0  0  0  0  0  0  0  0  0  0  0
  -22.7786  -25.1962   22.2880 N   0  0  0  0  0  0  0  0  0  0  0  0
  -29.0353  -11.8249   19.8894 N   0  0  0  0  0  0  0  0  0  0  0  0
  -26.9606   -7.9107   20.7673 N   0  0  0  0  0  0  0  0  0  0  0  0
  -20.8968  -27.8972   23.0181 N   0  0  0  0  0  0  0  0  0  0  0  0
  -22.5723  -21.9643   23.2731 N   0  0  0  0  0  0  0  0  0  0  0  0
  -23.7509  -19.5232   20.8814 N   0  3  0  0  0  0  0  0  0  0  0  0
  -28.9934   -8.8896   20.3571 O   0  0  0  0  0  0  0  0  0  0  0  0
  -29.4597  -16.2483   21.9242 O   0  0  0  0  0  0  0  0  0  0  0  0
  -23.2192  -27.9601   22.8593 O   0  0  0  0  0  0  0  0  0  0  0  0
  -20.8043  -24.2062   23.0352 O   0  0  0  0  0  0  0  0  0  0  0  0
  -24.7319  -21.5942   22.5140 O   0  0  0  0  0  0  0  0  0  0  0  0
  -21.5022   -7.1958   21.6220 O   0  0  0  0  0  0  0  0  0  0  0  0
  -28.2919  -26.8615   20.0783 O   0  0  0  0  0  0  0  0  0  1  0  0
  -22.2080   -3.4519   25.6081 F   0  0  0  0  0  0  0  0  0  0  0  0
  -19.8574   -7.1623   23.8437 F   0  0  0  0  0  0  0  0  0  0  0  0
  1  2  1  0  0  0  0
  1  6  2  0  0  0  0
  2  7  2  0  0  0  0
  3 10  2  0  0  0  0
  3 18  1  0  0  0  0
  4 11  1  0  0  0  0
  4 18  2  0  0  0  0
  5  9  2  0  0  0  0
  5 19  1  0  0  0  0
  6 21  1  0  0  0  0
  7 23  1  0  0  0  0
  8 12  2  0  0  0  0
  8 22  1  0  0  0  0
  9 26  1  0  0  0  0
 10 27  1  0  0  0  0
 11 27  2  0  0  0  0
 12 28  1  0  0  0  0
 13 14  2  0  0  0  0
 13 29  1  0  0  0  0
 14 30  1  0  0  0  0
 15 24  1  0  0  0  0
 15 28  2  0  0  0  0
 16 25  1  0  0  0  0
 16 26  2  0  0  0  0
 17 30  2  0  0  0  0
 17 31  1  0  0  0  0
 18 32  1  0  0  0  0
 19 25  2  0  0  0  0
 19 34  1  0  0  0  0
 20 32  1  0  0  0  0
 20 33  2  0  0  0  0
 20 37  1  0  0  0  0
 21 23  2  0  0  0  0
 21 42  1  0  0  0  0
 22 24  2  0  0  0  0
 22 43  1  0  0  0  0
 23 51  1  0  0  0  0
 24 44  1  0  0  0  0
 25 54  1  0  0  0  0
 26 66  1  0  0  0  0
 27 80  1  0  0  0  0
 28 81  1  0  0  0  0
 29 31  2  0  0  0  0
 29 80  1  0  0  0  0
 30 82  1  0  0  0  0
 31 83  1  0  0  0  0
 32 65  2  0  0  0  0
 33 67  1  0  0  0  0
 33 70  1  0  0  0  0
 34 35  2  0  0  0  0
 35 38  1  0  0  0  0
 36 60  1  0  0  0  0
 36 66  2  0  0  0  0
 37 71  1  0  0  0  0
 37 75  2  0  0  0  0
 38 68  1  0  0  0  0
 38 76  2  0  0  0  0
 39 52  1  0  0  0  0
 39 72  1  0  0  0  0
 39 77  2  0  0  0  0
 40 62  1  0  0  0  0
 40 69  1  0  0  0  0
 40 78  2  0  0  0  0
 41 63  1  0  0  0  0
 41 73  1  0  0  0  0
 41 79  2  0  0  0  0
 42 45  1  0  0  0  0
 43 52  1  0  0  0  0
 44 69  1  0  0  0  0
 45 47  1  0  0  0  0
 46 48  1  0  0  0  0
 46 49  1  0  0  0  0
 47 51  1  0  0  0  0
 48 53  1  0  0  0  0
 49 68  1  0  0  0  0
 50 53  1  0  0  0  0
 50 68  1  0  0  0  0
 51 72  1  0  0  0  0
 52 69  1  0  0  0  0
 53 67  1  0  0  0  0
 55 63  1  0  0  0  0
 56 64  1  0  0  0  0
 57 64  1  0  0  0  0
 58 64  1  0  0  0  0
 59 74  1  0  0  0  0
 60 61  1  0  0  0  0
 61 81  1  0  0  0  0
 62 64  1  0  0  0  0
 62 73  1  0  0  0  0
 63 74  1  0  0  0  0
 65 67  1  0  0  0  0
M  CHG  1  74   1
M  ISO  4  35 100  38 100  61 101  81 101
M  END
> <Batch ID>
0120

> <Smiles>
CNC(C)C(=O)NC(C(=O)N1Cc2cc([101O:1][101CH2:1]CC=Nc3ccc(C=[100CH:0][100C:0](=O)N4CCCC(n5nc(-c6ccc(Oc7ccc(F)cc7F)cc6)c(C(N)=O)c5N)C4)c(C)c3)ccc2CC1C(=O)NC1CCCc2ccccc21)C(C)(C)C

> <Shape>
0.252

> <Color>
0.112

> <Negative vol penalty>
0.000

$$$$

  -OEChem-04052301543D

 83 91  0     1  0  0  0  0  0999 V2000
  -25.1445  -25.7224   31.8356 C   0  0  0  0  0  0  0  0  0  0  0  0
  -25.8766  -24.6071   32.2298 C   0  0  0  0  0  0  0  0  0  0  0  0
  -23.1899   -9.8193   19.9320 C   0  0  0  0  0  0  0  0  0  0  0  0
  -23.5701   -9.9992   22.3111 C   0  0  0  0  0  0  0  0  0  0  0  0
  -24.4764  -25.7194   30.6119 C   0  0  0  0  0  0  0  0  0  0  0  0
  -25.9403  -23.4876   31.4008 C   0  0  0  0  0  0  0  0  0  0  0  0
  -30.7046  -19.7082   30.6776 C   0  0  0  0  0  0  0  0  0  0  0  0
  -22.4240   -8.6724   20.1410 C   0  0  0  0  0  0  0  0  0  0  0  0
  -22.8041   -8.8523   22.5202 C   0  0  0  0  0  0  0  0  0  0  0  0
  -31.0057  -18.4628   31.2271 C   0  0  0  0  0  0  0  0  0  0  0  0
  -23.2057   -5.5058   22.2550 C   0  0  0  0  0  0  0  0  0  0  0  0
  -23.7049   -4.5444   23.1336 C   0  0  0  0  0  0  0  0  0  0  0  0
  -32.7718  -11.8457   26.3584 C   0  0  0  0  0  0  0  0  0  0  0  0
  -30.7001  -12.5149   25.3111 C   0  0  0  0  0  0  0  0  0  0  0  0
  -30.0876  -17.3857   29.2736 C   0  0  0  0  0  0  0  0  0  0  0  0
  -32.6604  -12.1070   23.9592 C   0  0  0  0  0  0  0  0  0  0  0  0
  -21.7494   -4.8037   24.5285 C   0  0  0  0  0  0  0  0  0  0  0  0
  -23.7630  -10.4827   21.0170 C   0  0  0  0  0  0  0  0  0  0  0  0
  -31.4278  -12.2047   26.4599 C   0  0  0  0  0  0  0  0  0  0  0  0
  -24.1010  -12.9994   20.7735 C   0  0  0  0  0  0  0  0  0  0  0  0
  -24.5398  -24.6030   29.7632 C   0  0  0  0  0  0  0  0  0  0  0  0
  -30.0818  -19.8017   29.4247 C   0  0  0  0  0  0  0  0  0  0  0  0
  -25.2713  -23.4692   30.1652 C   0  0  0  0  0  0  0  0  0  0  0  0
  -29.7820  -18.6336   28.7093 C   0  0  0  0  0  0  0  0  0  0  0  0
  -33.3882  -11.7969   25.1080 C   0  0  0  0  0  0  0  0  0  0  0  0
  -31.3164  -12.4660   24.0607 C   0  0  0  0  0  0  0  0  0  0  0  0
  -22.2311   -8.1890   21.4351 C   0  0  0  0  0  0  0  0  0  0  0  0
  -30.6946  -17.3012   30.5263 C   0  0  0  0  0  0  0  0  0  0  0  0
  -21.9783   -6.1163   22.5132 C   0  0  0  0  0  0  0  0  0  0  0  0
  -22.9768   -4.1933   24.2704 C   0  0  0  0  0  0  0  0  0  0  0  0
  -21.2502   -5.7651   23.6499 C   0  0  0  0  0  0  0  0  0  0  0  0
  -24.5547  -11.6671   20.8016 C   0  0  0  0  0  0  0  0  0  0  0  0
  -25.2318  -13.7424   20.5375 C   0  0  0  0  0  0  0  0  0  0  0  0
  -30.7769  -12.2570   27.7797 C   0  0  0  0  0  0  0  0  0  0  0  0
  -31.4165  -12.3593   28.9553 C   0  0  0  0  0  0  0  0  0  0  0  0
  -22.7758  -13.5190   20.9455 C   0  0  0  0  0  0  0  0  0  0  0  0
  -27.3158  -20.9650   28.3759 C   0  0  0  0  0  0  0  0  0  0  0  0
  -28.5688  -20.2612   25.4678 C   0  0  0  0  0  0  0  0  0  0  0  0
  -30.7644  -18.4022   23.6320 C   0  0  0  0  0  0  0  0  0  0  0  0
  -31.0373  -12.7827   21.5771 C   0  0  0  0  0  0  0  0  0  0  0  0
  -23.7622  -24.6283   28.4711 C   0  0  0  0  0  0  0  0  0  0  0  0
  -29.7878  -21.1534   28.8340 C   0  0  0  0  0  0  0  0  0  0  0  0
  -29.1316  -18.6802   27.3516 C   0  0  0  0  0  0  0  0  0  0  0  0
  -24.1875  -23.5453   27.4829 C   0  0  0  0  0  0  0  0  0  0  0  0
  -29.5222  -13.4647   18.4280 C   0  0  0  0  0  0  0  0  0  0  0  0
  -24.3116  -22.1983   28.1879 C   0  0  0  0  0  0  0  0  0  0  0  0
  -28.0344  -13.2083   18.6784 C   0  0  0  0  0  0  0  0  0  0  0  0
  -30.4042  -12.4797   19.1933 C   0  0  0  0  0  0  0  0  0  0  0  0
  -28.6457  -12.1375   20.8845 C   0  0  0  0  0  0  0  0  0  0  0  0
  -25.3845  -22.2452   29.2825 C   0  0  1  0  0  0  0  0  0  0  0  0
  -28.6863  -21.1177   27.7791 C   0  0  1  0  0  0  0  0  0  0  0  0
  -27.7191  -13.1459   20.1858 C   0  0  2  0  0  0  0  0  0  0  0  0
  -34.8254  -11.4136   24.9989 C   0  0  0  0  0  0  0  0  0  0  0  0
  -31.5339  -18.0237   21.2736 C   0  0  0  0  0  0  0  0  0  0  0  0
  -26.0268  -18.6735   24.8958 C   0  0  0  0  0  0  0  0  0  0  0  0
  -27.2265  -17.5709   22.9949 C   0  0  0  0  0  0  0  0  0  0  0  0
  -26.8594  -20.0381   22.9725 C   0  0  0  0  0  0  0  0  0  0  0  0
  -33.5312  -19.2304   24.2787 C   0  0  0  0  0  0  0  0  0  0  0  0
  -30.7085  -12.4138   30.2794 C   0  0  0  0  0  0  0  0  0  0  0  0
  -31.0656  -13.6857   31.0463 C   0  0  0  0  0  0  0  0  0  0  0  0
  -30.6404  -14.9356   30.2881 C   0  0  0  0  0  0  0  0  0  1  0  0
  -28.5590  -19.0524   24.5636 C   0  0  1  0  0  0  0  0  0  0  0  0
  -31.7687  -18.7945   22.5633 C   0  0  2  0  0  0  0  0  0  0  0  0
  -27.1784  -18.8324   23.8831 C   0  0  0  0  0  0  0  0  0  0  0  0
  -25.8711  -11.5663   20.5994 N   0  0  0  0  0  0  0  0  0  0  0  0
  -26.2543  -12.8448   20.4419 N   0  0  0  0  0  0  0  0  0  0  0  0
  -28.8582  -20.0253   26.8192 N   0  0  0  0  0  0  0  0  0  0  0  0
  -30.0515  -12.4778   20.6148 N   0  0  0  0  0  0  0  0  0  0  0  0
  -25.4414  -15.0693   20.4044 N   0  0  0  0  0  0  0  0  0  0  0  0
  -21.7295  -12.6165   21.1802 N   0  0  0  0  0  0  0  0  0  0  0  0
  -30.5776  -12.7821   22.8936 N   0  0  0  0  0  0  0  0  0  0  0  0
  -26.7061  -22.1623   28.6985 N   0  0  0  0  0  0  0  0  0  0  0  0
  -29.6641  -19.2332   23.6284 N   0  0  0  0  0  0  0  0  0  0  0  0
  -33.1566  -18.5176   23.0303 N   0  3  0  0  0  0  0  0  0  0  0  0
  -22.5243  -14.7460   20.8763 O   0  0  0  0  0  0  0  0  0  0  0  0
  -26.8457  -19.8440   28.5307 O   0  0  0  0  0  0  0  0  0  0  0  0
  -28.3356  -21.3748   24.9911 O   0  0  0  0  0  0  0  0  0  0  0  0
  -30.9369  -17.4513   24.3913 O   0  0  0  0  0  0  0  0  0  0  0  0
  -32.1971  -13.0531   21.2549 O   0  0  0  0  0  0  0  0  0  0  0  0
  -21.4836   -7.0700   21.6395 O   0  0  0  0  0  0  0  0  0  0  0  0
  -30.9868  -16.0842   31.0606 O   0  0  0  0  0  0  0  0  0  1  0  0
  -23.4557   -3.2689   25.1132 F   0  0  0  0  0  0  0  0  0  0  0  0
  -20.0699   -6.3473   23.9027 F   0  0  0  0  0  0  0  0  0  0  0  0
  1  2  1  0  0  0  0
  1  5  2  0  0  0  0
  2  6  2  0  0  0  0
  3  8  2  0  0  0  0
  3 18  1  0  0  0  0
  4  9  1  0  0  0  0
  4 18  2  0  0  0  0
  5 21  1  0  0  0  0
  6 23  1  0  0  0  0
  7 10  2  0  0  0  0
  7 22  1  0  0  0  0
  8 27  1  0  0  0  0
  9 27  2  0  0  0  0
 10 28  1  0  0  0  0
 11 12  2  0  0  0  0
 11 29  1  0  0  0  0
 12 30  1  0  0  0  0
 13 19  1  0  0  0  0
 13 25  2  0  0  0  0
 14 19  2  0  0  0  0
 14 26  1  0  0  0  0
 15 24  1  0  0  0  0
 15 28  2  0  0  0  0
 16 25  1  0  0  0  0
 16 26  2  0  0  0  0
 17 30  2  0  0  0  0
 17 31  1  0  0  0  0
 18 32  1  0  0  0  0
 19 34  1  0  0  0  0
 20 32  1  0  0  0  0
 20 33  2  0  0  0  0
 20 36  1  0  0  0  0
 21 23  2  0  0  0  0
 21 41  1  0  0  0  0
 22 24  2  0  0  0  0
 22 42  1  0  0  0  0
 23 50  1  0  0  0  0
 24 43  1  0  0  0  0
 25 53  1  0  0  0  0
 26 71  1  0  0  0  0
 27 80  1  0  0  0  0
 28 81  1  0  0  0  0
 29 31  2  0  0  0  0
 29 80  1  0  0  0  0
 30 82  1  0  0  0  0
 31 83  1  0  0  0  0
 32 65  2  0  0  0  0
 33 66  1  0  0  0  0
 33 69  1  0  0  0  0
 34 35  2  0  0  0  0
 35 59  1  0  0  0  0
 36 70  1  0  0  0  0
 36 75  2  0  0  0  0
 37 51  1  0  0  0  0
 37 72  1  0  0  0  0
 37 76  2  0  0  0  0
 38 62  1  0  0  0  0
 38 67  1  0  0  0  0
 38 77  2  0  0  0  0
 39 63  1  0  0  0  0
 39 73  1  0  0  0  0
 39 78  2  0  0  0  0
 40 68  1  0  0  0  0
 40 71  1  0  0  0  0
 40 79  2  0  0  0  0
 41 44  1  0  0  0  0
 42 51  1  0  0  0  0
 43 67  1  0  0  0  0
 44 46  1  0  0  0  0
 45 47  1  0  0  0  0
 45 48  1  0  0  0  0
 46 50  1  0  0  0  0
 47 52  1  0  0  0  0
 48 68  1  0  0  0  0
 49 52  1  0  0  0  0
 49 68  1  0  0  0  0
 50 72  1  0  0  0  0
 51 67  1  0  0  0  0
 52 66  1  0  0  0  0
 54 63  1  0  0  0  0
 55 64  1  0  0  0  0
 56 64  1  0  0  0  0
 57 64  1  0  0  0  0
 58 74  1  0  0  0  0
 59 60  1  0  0  0  0
 60 61  1  0  0  0  0
 61 81  1  0  0  0  0
 62 64  1  0  0  0  0
 62 73  1  0  0  0  0
 63 74  1  0  0  0  0
 65 66  1  0  0  0  0
M  CHG  1  74   1
M  ISO  4  40 100  61 101  71 100  81 101
M  END
> <Batch ID>
0120

> <Smiles>
CNC(C)C(=O)NC(C(=O)N1Cc2cc([101O:1][101CH2:1]CCC=Cc3cc(C)cc([100NH:0][100C:0](=O)N4CCCC(n5nc(-c6ccc(Oc7ccc(F)cc7F)cc6)c(C(N)=O)c5N)C4)c3)ccc2CC1C(=O)NC1CCCc2ccccc21)C(C)(C)C

> <Shape>
0.149

> <Color>
0.190

> <Negative vol penalty>
0.000

$$$$

  -OEChem-04052301543D

 86 94  0     1  0  0  0  0  0999 V2000
  -30.9759  -32.7929   24.1704 C   0  0  0  0  0  0  0  0  0  0  0  0
  -30.2156  -31.7325   23.6877 C   0  0  0  0  0  0  0  0  0  0  0  0
  -24.8259   -8.9756   21.0957 C   0  0  0  0  0  0  0  0  0  0  0  0
  -23.0918  -10.4137   20.2228 C   0  0  0  0  0  0  0  0  0  0  0  0
  -30.4399  -33.6554   25.1257 C   0  0  0  0  0  0  0  0  0  0  0  0
  -28.9191  -31.5334   24.1610 C   0  0  0  0  0  0  0  0  0  0  0  0
  -25.6265  -30.5349   20.4453 C   0  0  0  0  0  0  0  0  0  0  0  0
  -23.8719   -7.9994   21.3828 C   0  0  0  0  0  0  0  0  0  0  0  0
  -22.1377   -9.4375   20.5099 C   0  0  0  0  0  0  0  0  0  0  0  0
  -25.6273  -29.2416   19.9244 C   0  0  0  0  0  0  0  0  0  0  0  0
  -21.5559   -7.4074   23.7724 C   0  0  0  0  0  0  0  0  0  0  0  0
  -21.6258   -6.7801   25.0162 C   0  0  0  0  0  0  0  0  0  0  0  0
  -28.9657  -19.4741   16.7664 C   0  0  0  0  0  0  0  0  0  0  0  0
  -23.7012  -28.7037   21.2735 C   0  0  0  0  0  0  0  0  0  0  0  0
  -28.0650  -20.0285   19.3479 C   0  0  0  0  0  0  0  0  0  0  0  0
  -21.9147   -4.6449   23.9232 C   0  0  0  0  0  0  0  0  0  0  0  0
  -24.4359  -10.1828   20.5157 C   0  0  0  0  0  0  0  0  0  0  0  0
  -28.9607  -20.7874   17.2363 C   0  0  0  0  0  0  0  0  0  0  0  0
  -26.1487  -11.3442   19.0240 C   0  0  0  0  0  0  0  0  0  0  0  0
  -29.1328  -33.4726   25.6038 C   0  0  0  0  0  0  0  0  0  0  0  0
  -24.6682  -30.9196   21.3939 C   0  0  0  0  0  0  0  0  0  0  0  0
  -28.3656  -32.3936   25.1246 C   0  0  0  0  0  0  0  0  0  0  0  0
  -23.6889  -30.0032   21.8030 C   0  0  0  0  0  0  0  0  0  0  0  0
  -28.5202  -18.4379   17.5873 C   0  0  0  0  0  0  0  0  0  0  0  0
  -28.0699  -18.7152   18.8780 C   0  0  0  0  0  0  0  0  0  0  0  0
  -22.5278   -8.2303   21.0899 C   0  0  0  0  0  0  0  0  0  0  0  0
  -24.6663  -28.3249   20.3407 C   0  0  0  0  0  0  0  0  0  0  0  0
  -21.6654   -6.6535   22.6039 C   0  0  0  0  0  0  0  0  0  0  0  0
  -28.5104  -21.0646   18.5270 C   0  0  0  0  0  0  0  0  0  0  0  0
  -21.8052   -5.3988   25.0916 C   0  0  0  0  0  0  0  0  0  0  0  0
  -21.8448   -5.2723   22.6793 C   0  0  0  0  0  0  0  0  0  0  0  0
  -25.4208  -11.1918   20.2193 C   0  0  0  0  0  0  0  0  0  0  0  0
  -26.9457  -12.4407   19.2447 C   0  0  0  0  0  0  0  0  0  0  0  0
  -28.8574  -22.1565   15.2040 C   0  0  0  0  0  0  0  0  0  0  0  0
  -29.4289  -21.8525   16.3599 C   0  0  0  0  0  0  0  0  0  0  0  0
  -26.1078  -10.5643   17.8216 C   0  0  0  0  0  0  0  0  0  0  0  0
  -24.7720  -31.9145   24.4111 C   0  0  0  0  0  0  0  0  0  0  0  0
  -21.5898  -32.3584   23.9652 C   0  0  0  0  0  0  0  0  0  0  0  0
  -18.7617  -31.5280   22.2449 C   0  0  0  0  0  0  0  0  0  0  0  0
  -27.6774  -17.6327   21.1186 C   0  0  0  0  0  0  0  0  0  0  0  0
  -28.6135  -34.4028   26.6713 C   0  0  0  0  0  0  0  0  0  0  0  0
  -24.6647  -32.3264   21.9262 C   0  0  0  0  0  0  0  0  0  0  0  0
  -22.6259  -30.3725   22.8039 C   0  0  0  0  0  0  0  0  0  0  0  0
  -27.0980  -34.3449   26.8451 C   0  0  0  0  0  0  0  0  0  0  0  0
  -27.9237  -14.9987   23.5017 C   0  0  0  0  0  0  0  0  0  0  0  0
  -26.6220  -32.8967   26.9000 C   0  0  0  0  0  0  0  0  0  0  0  0
  -27.3544  -13.7860   22.7618 C   0  0  0  0  0  0  0  0  0  0  0  0
  -27.1774  -16.2829   23.1443 C   0  0  0  0  0  0  0  0  0  0  0  0
  -26.5049  -15.3485   20.9663 C   0  0  0  0  0  0  0  0  0  0  0  0
  -26.9465  -32.1594   25.5952 C   0  0  1  0  0  0  0  0  0  0  0  0
  -23.9559  -32.4547   23.2710 C   0  0  1  0  0  0  0  0  0  0  0  0
  -27.2661  -14.0420   21.2445 C   0  0  2  0  0  0  0  0  0  0  0  0
  -29.7035  -16.2276   17.6123 C   0  0  0  0  0  0  0  0  0  0  0  0
  -16.3056  -32.0303   22.1322 C   0  0  0  0  0  0  0  0  0  0  0  0
  -21.1306  -30.6599   26.4580 C   0  0  0  0  0  0  0  0  0  0  0  0
  -18.7397  -30.4062   25.7598 C   0  0  0  0  0  0  0  0  0  0  0  0
  -19.6525  -32.6692   26.2779 C   0  0  0  0  0  0  0  0  0  0  0  0
  -18.9750  -32.5257   19.4667 C   0  0  0  0  0  0  0  0  0  0  0  0
  -28.5376  -17.0403   17.0584 C   0  0  0  0  0  0  0  0  0  0  0  0
  -25.9016  -25.0014   19.5965 C   0  0  0  0  0  0  0  0  0  0  0  0
  -27.2379  -24.3769   19.2105 C   0  0  0  0  0  0  0  0  0  0  0  0
  -25.9253  -26.5167   19.4457 C   0  0  0  0  0  0  0  0  0  1  0  0
  -27.2288  -22.8669   19.4018 C   0  0  0  0  0  0  0  0  0  0  0  0
  -20.3560  -31.5073   24.1454 C   0  0  1  0  0  0  0  0  0  0  0  0
  -17.6861  -32.3845   21.6015 C   0  0  2  0  0  0  0  0  0  0  0  0
  -19.9908  -31.3028   25.6428 C   0  0  0  0  0  0  0  0  0  0  0  0
  -25.7284  -12.1174   21.1318 N   0  0  0  0  0  0  0  0  0  0  0  0
  -26.6583  -12.8619   20.5097 N   0  0  0  0  0  0  0  0  0  0  0  0
  -22.6682  -31.7581   23.3000 N   0  0  0  0  0  0  0  0  0  0  0  0
  -27.1375  -16.4616   21.6912 N   0  0  0  0  0  0  0  0  0  0  0  0
  -27.8574  -13.0761   18.4782 N   0  0  0  0  0  0  0  0  0  0  0  0
  -25.2320   -9.4716   17.7633 N   0  0  0  0  0  0  0  0  0  0  0  0
  -27.6123  -17.6766   19.7264 N   0  0  0  0  0  0  0  0  0  0  0  0
  -26.0030  -32.5243   24.5604 N   0  0  0  0  0  0  0  0  0  0  0  0
  -19.3052  -32.1392   23.3550 N   0  0  0  0  0  0  0  0  0  0  0  0
  -17.6852  -32.1915   20.1238 N   0  3  0  0  0  0  0  0  0  0  0  0
  -26.8385  -10.8187   16.8342 O   0  0  0  0  0  0  0  0  0  0  0  0
  -24.3179  -31.0122   25.1049 O   0  0  0  0  0  0  0  0  0  0  0  0
  -21.5939  -33.5156   24.3923 O   0  0  0  0  0  0  0  0  0  0  0  0
  -19.0848  -30.4254   21.8086 O   0  0  0  0  0  0  0  0  0  0  0  0
  -28.1864  -18.5182   21.8106 O   0  0  0  0  0  0  0  0  0  0  0  0
  -21.5966   -7.2779   21.3698 O   0  0  0  0  0  0  0  0  0  0  0  0
  -24.6651  -27.0618   19.8344 O   0  0  0  0  0  0  0  0  0  1  0  0
  -28.4923  -22.3465   19.0121 O   0  0  0  0  0  0  0  0  0  0  0  0
  -21.8738   -4.7968   26.2862 F   0  0  0  0  0  0  0  0  0  0  0  0
  -21.9519   -4.5429   21.5602 F   0  0  0  0  0  0  0  0  0  0  0  0
  1  2  1  0  0  0  0
  1  5  2  0  0  0  0
  2  6  2  0  0  0  0
  3  8  2  0  0  0  0
  3 17  1  0  0  0  0
  4  9  1  0  0  0  0
  4 17  2  0  0  0  0
  5 20  1  0  0  0  0
  6 22  1  0  0  0  0
  7 10  2  0  0  0  0
  7 21  1  0  0  0  0
  8 26  1  0  0  0  0
  9 26  2  0  0  0  0
 10 27  1  0  0  0  0
 11 12  2  0  0  0  0
 11 28  1  0  0  0  0
 12 30  1  0  0  0  0
 13 18  1  0  0  0  0
 13 24  2  0  0  0  0
 14 23  1  0  0  0  0
 14 27  2  0  0  0  0
 15 25  2  0  0  0  0
 15 29  1  0  0  0  0
 16 30  2  0  0  0  0
 16 31  1  0  0  0  0
 17 32  1  0  0  0  0
 18 29  2  0  0  0  0
 18 35  1  0  0  0  0
 19 32  1  0  0  0  0
 19 33  2  0  0  0  0
 19 36  1  0  0  0  0
 20 22  2  0  0  0  0
 20 41  1  0  0  0  0
 21 23  2  0  0  0  0
 21 42  1  0  0  0  0
 22 50  1  0  0  0  0
 23 43  1  0  0  0  0
 24 25  1  0  0  0  0
 24 59  1  0  0  0  0
 25 73  1  0  0  0  0
 26 82  1  0  0  0  0
 27 83  1  0  0  0  0
 28 31  2  0  0  0  0
 28 82  1  0  0  0  0
 29 84  1  0  0  0  0
 30 85  1  0  0  0  0
 31 86  1  0  0  0  0
 32 67  2  0  0  0  0
 33 68  1  0  0  0  0
 33 71  1  0  0  0  0
 34 35  2  0  0  0  0
 36 72  1  0  0  0  0
 36 77  2  0  0  0  0
 37 51  1  0  0  0  0
 37 74  1  0  0  0  0
 37 78  2  0  0  0  0
 38 64  1  0  0  0  0
 38 69  1  0  0  0  0
 38 79  2  0  0  0  0
 39 65  1  0  0  0  0
 39 75  1  0  0  0  0
 39 80  2  0  0  0  0
 40 70  1  0  0  0  0
 40 73  1  0  0  0  0
 40 81  2  0  0  0  0
 41 44  1  0  0  0  0
 42 51  1  0  0  0  0
 43 69  1  0  0  0  0
 44 46  1  0  0  0  0
 45 47  1  0  0  0  0
 45 48  1  0  0  0  0
 46 50  1  0  0  0  0
 47 52  1  0  0  0  0
 48 70  1  0  0  0  0
 49 52  1  0  0  0  0
 49 70  1  0  0  0  0
 50 74  1  0  0  0  0
 51 69  1  0  0  0  0
 52 68  1  0  0  0  0
 53 59  1  0  0  0  0
 54 65  1  0  0  0  0
 55 66  1  0  0  0  0
 56 66  1  0  0  0  0
 57 66  1  0  0  0  0
 58 76  1  0  0  0  0
 60 61  1  0  0  0  0
 60 62  1  0  0  0  0
 61 63  1  0  0  0  0
 62 83  1  0  0  0  0
 63 84  1  0  0  0  0
 64 66  1  0  0  0  0
 64 75  1  0  0  0  0
 65 76  1  0  0  0  0
 67 68  1  0  0  0  0
M  CHG  1  76   1
M  ISO  4  40 100  62 101  73 100  83 101
M  END
> <Batch ID>
0120

> <Smiles>
C=Cc1cc(CC)c([100NH:0][100C:0](=O)N2CCCC(n3nc(-c4ccc(Oc5ccc(F)cc5F)cc4)c(C(N)=O)c3N)C2)cc1OCCC[101CH2:1][101O:1]c1ccc2c(c1)CN(C(=O)C(NC(=O)C(C)NC)C(C)(C)C)C(C(=O)NC1CCCc3ccccc31)C2

> <Shape>
0.274

> <Color>
0.082

> <Negative vol penalty>
0.000

$$$$

  -OEChem-04052301543D

 84 92  0     1  0  0  0  0  0999 V2000
  -26.9483  -31.3264   28.6849 C   0  0  0  0  0  0  0  0  0  0  0  0
  -27.3742  -30.5643   27.6018 C   0  0  0  0  0  0  0  0  0  0  0  0
  -24.6718   -8.2503   20.7152 C   0  0  0  0  0  0  0  0  0  0  0  0
  -23.3815  -10.2879   20.8593 C   0  0  0  0  0  0  0  0  0  0  0  0
  -25.5870  -31.5520   28.8848 C   0  0  0  0  0  0  0  0  0  0  0  0
  -26.4389  -30.0264   26.7184 C   0  0  0  0  0  0  0  0  0  0  0  0
  -27.1025  -29.2443   20.6807 C   0  0  0  0  0  0  0  0  0  0  0  0
  -23.5444   -7.5111   21.0732 C   0  0  0  0  0  0  0  0  0  0  0  0
  -22.2541   -9.5486   21.2173 C   0  0  0  0  0  0  0  0  0  0  0  0
  -27.4444  -28.1334   19.9108 C   0  0  0  0  0  0  0  0  0  0  0  0
  -21.8492   -6.7671   23.9011 C   0  0  0  0  0  0  0  0  0  0  0  0
  -22.0091   -5.7656   24.8587 C   0  0  0  0  0  0  0  0  0  0  0  0
  -25.1049  -27.6866   19.5278 C   0  0  0  0  0  0  0  0  0  0  0  0
  -29.5989  -18.9500   18.4647 C   0  0  0  0  0  0  0  0  0  0  0  0
  -30.4755  -18.2006   21.0050 C   0  0  0  0  0  0  0  0  0  0  0  0
  -21.2564   -4.1174   23.2605 C   0  0  0  0  0  0  0  0  0  0  0  0
  -24.5903   -9.6387   20.6083 C   0  0  0  0  0  0  0  0  0  0  0  0
  -26.1637  -10.7542   18.9386 C   0  0  0  0  0  0  0  0  0  0  0  0
  -24.6351  -31.0247   27.9980 C   0  0  0  0  0  0  0  0  0  0  0  0
  -25.7568  -29.5789   20.8893 C   0  0  0  0  0  0  0  0  0  0  0  0
  -25.0635  -30.2441   26.9073 C   0  0  0  0  0  0  0  0  0  0  0  0
  -24.7487  -28.8037   20.2986 C   0  0  0  0  0  0  0  0  0  0  0  0
  -29.5033  -17.6191   18.8710 C   0  0  0  0  0  0  0  0  0  0  0  0
  -29.9416  -17.2444   20.1411 C   0  0  0  0  0  0  0  0  0  0  0  0
  -22.3356   -8.1602   21.3243 C   0  0  0  0  0  0  0  0  0  0  0  0
  -26.4455  -27.3527   19.3365 C   0  0  0  0  0  0  0  0  0  0  0  0
  -21.3928   -6.4438   22.6232 C   0  0  0  0  0  0  0  0  0  0  0  0
  -30.1328  -19.9063   19.3286 C   0  0  0  0  0  0  0  0  0  0  0  0
  -21.7127   -4.4407   24.5384 C   0  0  0  0  0  0  0  0  0  0  0  0
  -30.5711  -19.5316   20.5986 C   0  0  0  0  0  0  0  0  0  0  0  0
  -21.0965   -5.1190   22.3030 C   0  0  0  0  0  0  0  0  0  0  0  0
  -25.7547  -10.4030   20.2390 C   0  0  0  0  0  0  0  0  0  0  0  0
  -27.3189  -11.4735   19.1245 C   0  0  0  0  0  0  0  0  0  0  0  0
  -25.5539  -10.4568   17.6754 C   0  0  0  0  0  0  0  0  0  0  0  0
  -23.8707  -29.8049   23.4379 C   0  0  0  0  0  0  0  0  0  0  0  0
  -21.7436  -30.9577   21.2771 C   0  0  0  0  0  0  0  0  0  0  0  0
  -20.7169  -31.1232   18.0267 C   0  0  0  0  0  0  0  0  0  0  0  0
  -30.2478  -15.3775   21.8047 C   0  0  0  0  0  0  0  0  0  0  0  0
  -23.1720  -31.2559   28.2819 C   0  0  0  0  0  0  0  0  0  0  0  0
  -25.4053  -30.7959   21.7003 C   0  0  0  0  0  0  0  0  0  0  0  0
  -23.2895  -29.1322   20.4754 C   0  0  0  0  0  0  0  0  0  0  0  0
  -22.2664  -30.9638   27.0882 C   0  0  0  0  0  0  0  0  0  0  0  0
  -30.1608  -12.1299   23.2615 C   0  0  0  0  0  0  0  0  0  0  0  0
  -22.6431  -29.6327   26.4454 C   0  0  0  0  0  0  0  0  0  0  0  0
  -29.0404  -11.4200   22.4980 C   0  0  0  0  0  0  0  0  0  0  0  0
  -29.8401  -13.6047   23.4976 C   0  0  0  0  0  0  0  0  0  0  0  0
  -28.3599  -13.6526   21.5288 C   0  0  0  0  0  0  0  0  0  0  0  0
  -24.0808  -29.6644   25.9131 C   0  0  1  0  0  0  0  0  0  0  0  0
  -23.9918  -30.7451   22.2720 C   0  0  1  0  0  0  0  0  0  0  0  0
  -28.6664  -12.1801   21.2104 C   0  0  2  0  0  0  0  0  0  0  0  0
  -28.9272  -16.6161   17.9249 C   0  0  0  0  0  0  0  0  0  0  0  0
  -18.9242  -32.1112   16.5750 C   0  0  0  0  0  0  0  0  0  0  0  0
  -19.7760  -28.8509   22.2772 C   0  0  0  0  0  0  0  0  0  0  0  0
  -18.4152  -29.2421   20.2124 C   0  0  0  0  0  0  0  0  0  0  0  0
  -18.7671  -31.0976   21.8422 C   0  0  0  0  0  0  0  0  0  0  0  0
  -22.6847  -32.6771   16.4544 C   0  0  0  0  0  0  0  0  0  0  0  0
  -27.8739  -24.1169   18.5525 C   0  0  0  0  0  0  0  0  0  0  0  0
  -29.1409  -23.3487   18.9120 C   0  0  0  0  0  0  0  0  0  0  0  0
  -27.9872  -25.5905   18.9197 C   0  0  0  0  0  0  0  0  0  1  0  0
  -29.0123  -21.8677   18.5848 C   0  0  0  0  0  0  0  0  0  0  0  0
  -20.6909  -30.3480   20.3831 C   0  0  1  0  0  0  0  0  0  0  0  0
  -20.3171  -32.3002   17.1553 C   0  0  2  0  0  0  0  0  0  0  0  0
  -19.4397  -29.8771   21.1768 C   0  0  0  0  0  0  0  0  0  0  0  0
  -26.5828  -10.8613   21.1814 N   0  0  0  0  0  0  0  0  0  0  0  0
  -27.5238  -11.5078   20.4725 N   0  0  0  0  0  0  0  0  0  0  0  0
  -22.9964  -30.3283   21.2822 N   0  0  0  0  0  0  0  0  0  0  0  0
  -29.4993  -14.2609   22.2334 N   0  0  0  0  0  0  0  0  0  0  0  0
  -28.1693  -12.0737   18.2648 N   0  0  0  0  0  0  0  0  0  0  0  0
  -24.3700   -9.7069   17.6652 N   0  0  0  0  0  0  0  0  0  0  0  0
  -29.8530  -15.8976   20.5725 N   0  0  0  0  0  0  0  0  0  0  0  0
  -24.1404  -30.3881   24.6612 N   0  0  0  0  0  0  0  0  0  0  0  0
  -20.4061  -31.3404   19.3524 N   0  0  0  0  0  0  0  0  0  0  0  0
  -21.2783  -32.4600   16.0277 N   0  3  0  0  0  0  0  0  0  0  0  0
  -26.0533  -10.8307   16.5872 O   0  0  0  0  0  0  0  0  0  0  0  0
  -23.5544  -28.6373   23.2421 O   0  0  0  0  0  0  0  0  0  0  0  0
  -21.4666  -31.9599   21.9409 O   0  0  0  0  0  0  0  0  0  0  0  0
  -21.2481  -30.1108   17.5758 O   0  0  0  0  0  0  0  0  0  0  0  0
  -31.1885  -15.8217   22.4679 O   0  0  0  0  0  0  0  0  0  0  0  0
  -21.2353   -7.4392   21.6734 O   0  0  0  0  0  0  0  0  0  0  0  0
  -26.7763  -26.2674   18.5851 O   0  0  0  0  0  0  0  0  0  1  0  0
  -30.2263  -21.2139   18.9283 O   0  0  0  0  0  0  0  0  0  0  0  0
  -21.8678   -3.4788   25.4576 F   0  0  0  0  0  0  0  0  0  0  0  0
  -31.0850  -20.4458   21.4330 F   0  0  0  0  0  0  0  0  0  0  0  0
  -20.6588   -4.8021   21.0766 F   0  0  0  0  0  0  0  0  0  0  0  0
  1  2  1  0  0  0  0
  1  5  2  0  0  0  0
  2  6  2  0  0  0  0
  3  8  2  0  0  0  0
  3 17  1  0  0  0  0
  4  9  1  0  0  0  0
  4 17  2  0  0  0  0
  5 19  1  0  0  0  0
  6 21  1  0  0  0  0
  7 10  2  0  0  0  0
  7 20  1  0  0  0  0
  8 25  1  0  0  0  0
  9 25  2  0  0  0  0
 10 26  1  0  0  0  0
 11 12  2  0  0  0  0
 11 27  1  0  0  0  0
 12 29  1  0  0  0  0
 13 22  1  0  0  0  0
 13 26  2  0  0  0  0
 14 23  2  0  0  0  0
 14 28  1  0  0  0  0
 15 24  2  0  0  0  0
 15 30  1  0  0  0  0
 16 29  2  0  0  0  0
 16 31  1  0  0  0  0
 17 32  1  0  0  0  0
 18 32  1  0  0  0  0
 18 33  2  0  0  0  0
 18 34  1  0  0  0  0
 19 21  2  0  0  0  0
 19 39  1  0  0  0  0
 20 22  2  0  0  0  0
 20 40  1  0  0  0  0
 21 48  1  0  0  0  0
 22 41  1  0  0  0  0
 23 24  1  0  0  0  0
 23 51  1  0  0  0  0
 24 70  1  0  0  0  0
 25 79  1  0  0  0  0
 26 80  1  0  0  0  0
 27 31  2  0  0  0  0
 27 79  1  0  0  0  0
 28 30  2  0  0  0  0
 28 81  1  0  0  0  0
 29 82  1  0  0  0  0
 30 83  1  0  0  0  0
 31 84  1  0  0  0  0
 32 64  2  0  0  0  0
 33 65  1  0  0  0  0
 33 68  1  0  0  0  0
 34 69  1  0  0  0  0
 34 74  2  0  0  0  0
 35 49  1  0  0  0  0
 35 71  1  0  0  0  0
 35 75  2  0  0  0  0
 36 61  1  0  0  0  0
 36 66  1  0  0  0  0
 36 76  2  0  0  0  0
 37 62  1  0  0  0  0
 37 72  1  0  0  0  0
 37 77  2  0  0  0  0
 38 67  1  0  0  0  0
 38 70  1  0  0  0  0
 38 78  2  0  0  0  0
 39 42  1  0  0  0  0
 40 49  1  0  0  0  0
 41 66  1  0  0  0  0
 42 44  1  0  0  0  0
 43 45  1  0  0  0  0
 43 46  1  0  0  0  0
 44 48  1  0  0  0  0
 45 50  1  0  0  0  0
 46 67  1  0  0  0  0
 47 50  1  0  0  0  0
 47 67  1  0  0  0  0
 48 71  1  0  0  0  0
 49 66  1  0  0  0  0
 50 65  1  0  0  0  0
 52 62  1  0  0  0  0
 53 63  1  0  0  0  0
 54 63  1  0  0  0  0
 55 63  1  0  0  0  0
 56 73  1  0  0  0  0
 57 58  1  0  0  0  0
 57 59  1  0  0  0  0
 58 60  1  0  0  0  0
 59 80  1  0  0  0  0
 60 81  1  0  0  0  0
 61 63  1  0  0  0  0
 61 72  1  0  0  0  0
 62 73  1  0  0  0  0
 64 65  1  0  0  0  0
M  CHG  1  73   1
M  ISO  4  38 100  59 101  70 100  80 101
M  END
> <Batch ID>
0120

> <Smiles>
CNC(C)C(=O)NC(C(=O)N1Cc2cc([101O:1][101CH2:1]CCCOc3cc(C)c([100NH:0][100C:0](=O)N4CCCC(n5nc(-c6ccc(Oc7ccc(F)cc7F)cc6)c(C(N)=O)c5N)C4)cc3F)ccc2CC1C(=O)NC1CCCc2ccccc21)C(C)(C)C

> <Shape>
0.282

> <Color>
0.108

> <Negative vol penalty>
0.000

$$$$

  -OEChem-04052301543D

 86 94  0     1  0  0  0  0  0999 V2000
  -16.6827  -29.0380   24.0458 C   0  0  0  0  0  0  0  0  0  0  0  0
  -17.0404  -28.3993   22.8628 C   0  0  0  0  0  0  0  0  0  0  0  0
  -21.8240  -10.7602   22.6233 C   0  0  0  0  0  0  0  0  0  0  0  0
  -23.3354  -10.6901   20.7397 C   0  0  0  0  0  0  0  0  0  0  0  0
  -17.5408  -29.9768   24.6169 C   0  0  0  0  0  0  0  0  0  0  0  0
  -18.2560  -28.7000   22.2494 C   0  0  0  0  0  0  0  0  0  0  0  0
  -21.8693  -24.8460   19.1516 C   0  0  0  0  0  0  0  0  0  0  0  0
  -21.5294   -9.4096   22.4371 C   0  0  0  0  0  0  0  0  0  0  0  0
  -23.0408   -9.3395   20.5536 C   0  0  0  0  0  0  0  0  0  0  0  0
  -22.0299  -24.6018   17.7884 C   0  0  0  0  0  0  0  0  0  0  0  0
  -22.9674   -6.4282   23.1273 C   0  0  0  0  0  0  0  0  0  0  0  0
  -22.9421   -5.6088   24.2558 C   0  0  0  0  0  0  0  0  0  0  0  0
  -25.2994  -20.8336   18.2101 C   0  0  0  0  0  0  0  0  0  0  0  0
  -23.9108  -26.1116   17.7458 C   0  0  0  0  0  0  0  0  0  0  0  0
  -26.8611  -19.7033   19.6663 C   0  0  0  0  0  0  0  0  0  0  0  0
  -20.6296   -5.0684   23.8115 C   0  0  0  0  0  0  0  0  0  0  0  0
  -22.7270  -11.4005   21.7746 C   0  0  0  0  0  0  0  0  0  0  0  0
  -26.3434  -21.5896   17.6771 C   0  0  0  0  0  0  0  0  0  0  0  0
  -24.0535  -13.3410   22.7657 C   0  0  0  0  0  0  0  0  0  0  0  0
  -18.7719  -30.2821   24.0154 C   0  0  0  0  0  0  0  0  0  0  0  0
  -22.7229  -25.7347   19.8210 C   0  0  0  0  0  0  0  0  0  0  0  0
  -19.1308  -29.6448   22.8123 C   0  0  0  0  0  0  0  0  0  0  0  0
  -23.7605  -26.3634   19.1181 C   0  0  0  0  0  0  0  0  0  0  0  0
  -27.9052  -20.4593   19.1333 C   0  0  0  0  0  0  0  0  0  0  0  0
  -27.6463  -21.4025   18.1387 C   0  0  0  0  0  0  0  0  0  0  0  0
  -25.5582  -19.8905   19.2047 C   0  0  0  0  0  0  0  0  0  0  0  0
  -22.1378   -8.6992   21.4023 C   0  0  0  0  0  0  0  0  0  0  0  0
  -23.0490  -25.2369   17.0847 C   0  0  0  0  0  0  0  0  0  0  0  0
  -21.8238   -6.5679   22.3410 C   0  0  0  0  0  0  0  0  0  0  0  0
  -21.7733   -4.9288   24.5979 C   0  0  0  0  0  0  0  0  0  0  0  0
  -20.6549   -5.8880   22.6831 C   0  0  0  0  0  0  0  0  0  0  0  0
  -23.0313  -12.7958   21.9660 C   0  0  0  0  0  0  0  0  0  0  0  0
  -23.9237  -14.6994   22.6100 C   0  0  0  0  0  0  0  0  0  0  0  0
  -26.0350  -22.5769   16.6292 C   0  0  0  0  0  0  0  0  0  0  0  0
  -25.4602  -22.2991   15.4484 C   0  0  0  0  0  0  0  0  0  0  0  0
  -25.0329  -12.6787   23.5768 C   0  0  0  0  0  0  0  0  0  0  0  0
  -22.3305  -28.4767   21.3802 C   0  0  0  0  0  0  0  0  0  0  0  0
  -25.4746  -28.0822   22.0738 C   0  0  0  0  0  0  0  0  0  0  0  0
  -28.4741  -26.6880   21.2334 C   0  0  0  0  0  0  0  0  0  0  0  0
  -23.1485  -19.1821   19.3994 C   0  0  0  0  0  0  0  0  0  0  0  0
  -19.6452  -31.3385   24.6447 C   0  0  0  0  0  0  0  0  0  0  0  0
  -22.5530  -25.9668   21.2974 C   0  0  0  0  0  0  0  0  0  0  0  0
  -24.7163  -27.3107   19.7945 C   0  0  0  0  0  0  0  0  0  0  0  0
  -21.0827  -31.3256   24.1313 C   0  0  0  0  0  0  0  0  0  0  0  0
  -20.2388  -17.4326   20.4716 C   0  0  0  0  0  0  0  0  0  0  0  0
  -21.1051  -31.2281   22.6092 C   0  0  0  0  0  0  0  0  0  0  0  0
  -20.7900  -16.1152   21.0218 C   0  0  0  0  0  0  0  0  0  0  0  0
  -21.0206  -17.9077   19.2482 C   0  0  0  0  0  0  0  0  0  0  0  0
  -23.0253  -16.6811   19.9873 C   0  0  0  0  0  0  0  0  0  0  0  0
  -20.4521  -29.9259   22.1301 C   0  0  1  0  0  0  0  0  0  0  0  0
  -23.1592  -27.2851   21.7686 C   0  0  1  0  0  0  0  0  0  0  0  0
  -22.3107  -16.1959   21.2592 C   0  0  2  0  0  0  0  0  0  0  0  0
  -29.7479  -18.7933   19.4729 C   0  0  0  0  0  0  0  0  0  0  0  0
  -29.2088  -23.3272   18.5139 C   0  0  0  0  0  0  0  0  0  0  0  0
  -30.8908  -26.0513   21.4598 C   0  0  0  0  0  0  0  0  0  0  0  0
  -25.9419  -30.8872   20.9678 C   0  0  0  0  0  0  0  0  0  0  0  0
  -28.3855  -30.3561   20.8447 C   0  0  0  0  0  0  0  0  0  0  0  0
  -27.2215  -30.3606   23.0510 C   0  0  0  0  0  0  0  0  0  0  0  0
  -27.8036  -24.2134   22.7118 C   0  0  0  0  0  0  0  0  0  0  0  0
  -29.2910  -20.2385   19.6456 C   0  0  0  0  0  0  0  0  0  0  0  0
  -28.7754  -22.2080   17.5743 C   0  0  0  0  0  0  0  0  0  0  0  0
  -25.1600  -23.3424   14.4097 C   0  0  0  0  0  0  0  0  0  0  0  0
  -23.6729  -23.3648   14.0610 C   0  0  0  0  0  0  0  0  0  0  0  0
  -22.8186  -23.7155   15.2713 C   0  0  0  0  0  0  0  0  0  1  0  0
  -26.7730  -28.4844   21.4169 C   0  0  1  0  0  0  0  0  0  0  0  0
  -29.4978  -25.9281   22.0574 C   0  0  2  0  0  0  0  0  0  0  0  0
  -27.0614  -30.0058   21.5567 C   0  0  0  0  0  0  0  0  0  0  0  0
  -22.3055  -13.7315   21.3482 N   0  0  0  0  0  0  0  0  0  0  0  0
  -22.8724  -14.8784   21.7598 N   0  0  0  0  0  0  0  0  0  0  0  0
  -24.5053  -27.5099   21.2378 N   0  0  0  0  0  0  0  0  0  0  0  0
  -22.4529  -17.9637   19.5488 N   0  0  0  0  0  0  0  0  0  0  0  0
  -24.6075  -15.7464   23.1188 N   0  0  0  0  0  0  0  0  0  0  0  0
  -25.0251  -11.2779   23.6236 N   0  0  0  0  0  0  0  0  0  0  0  0
  -24.4980  -19.1218   19.7457 N   0  0  0  0  0  0  0  0  0  0  0  0
  -21.3592  -28.8118   22.3043 N   0  0  0  0  0  0  0  0  0  0  0  0
  -27.8036  -27.6256   21.9901 N   0  0  0  0  0  0  0  0  0  0  0  0
  -29.1405  -24.4828   22.1226 N   0  3  0  0  0  0  0  0  0  0  0  0
  -25.8792  -13.3108   24.2534 O   0  0  0  0  0  0  0  0  0  0  0  0
  -22.5564  -29.0505   20.3213 O   0  0  0  0  0  0  0  0  0  0  0  0
  -25.3286  -28.2624   23.2853 O   0  0  0  0  0  0  0  0  0  0  0  0
  -28.2904  -26.4741   20.0372 O   0  0  0  0  0  0  0  0  0  0  0  0
  -22.5823  -20.2104   19.0200 O   0  0  0  0  0  0  0  0  0  0  0  0
  -21.8507   -7.3812   21.2205 O   0  0  0  0  0  0  0  0  0  0  0  0
  -23.2076  -25.0009   15.7539 O   0  0  0  0  0  0  0  0  0  1  0  0
  -21.7496   -4.1407   25.6807 F   0  0  0  0  0  0  0  0  0  0  0  0
  -19.5534   -6.0173   21.9309 F   0  0  0  0  0  0  0  0  0  0  0  0
  1  2  1  0  0  0  0
  1  5  2  0  0  0  0
  2  6  2  0  0  0  0
  3  8  2  0  0  0  0
  3 17  1  0  0  0  0
  4  9  1  0  0  0  0
  4 17  2  0  0  0  0
  5 20  1  0  0  0  0
  6 22  1  0  0  0  0
  7 10  2  0  0  0  0
  7 21  1  0  0  0  0
  8 27  1  0  0  0  0
  9 27  2  0  0  0  0
 10 28  1  0  0  0  0
 11 12  2  0  0  0  0
 11 29  1  0  0  0  0
 12 30  1  0  0  0  0
 13 18  2  0  0  0  0
 13 26  1  0  0  0  0
 14 23  1  0  0  0  0
 14 28  2  0  0  0  0
 15 24  1  0  0  0  0
 15 26  2  0  0  0  0
 16 30  2  0  0  0  0
 16 31  1  0  0  0  0
 17 32  1  0  0  0  0
 18 25  1  0  0  0  0
 18 34  1  0  0  0  0
 19 32  1  0  0  0  0
 19 33  2  0  0  0  0
 19 36  1  0  0  0  0
 20 22  2  0  0  0  0
 20 41  1  0  0  0  0
 21 23  2  0  0  0  0
 21 42  1  0  0  0  0
 22 50  1  0  0  0  0
 23 43  1  0  0  0  0
 24 25  2  0  0  0  0
 24 60  1  0  0  0  0
 25 61  1  0  0  0  0
 26 74  1  0  0  0  0
 27 83  1  0  0  0  0
 28 84  1  0  0  0  0
 29 31  2  0  0  0  0
 29 83  1  0  0  0  0
 30 85  1  0  0  0  0
 31 86  1  0  0  0  0
 32 68  2  0  0  0  0
 33 69  1  0  0  0  0
 33 72  1  0  0  0  0
 34 35  2  0  0  0  0
 35 62  1  0  0  0  0
 36 73  1  0  0  0  0
 36 78  2  0  0  0  0
 37 51  1  0  0  0  0
 37 75  1  0  0  0  0
 37 79  2  0  0  0  0
 38 65  1  0  0  0  0
 38 70  1  0  0  0  0
 38 80  2  0  0  0  0
 39 66  1  0  0  0  0
 39 76  1  0  0  0  0
 39 81  2  0  0  0  0
 40 71  1  0  0  0  0
 40 74  1  0  0  0  0
 40 82  2  0  0  0  0
 41 44  1  0  0  0  0
 42 51  1  0  0  0  0
 43 70  1  0  0  0  0
 44 46  1  0  0  0  0
 45 47  1  0  0  0  0
 45 48  1  0  0  0  0
 46 50  1  0  0  0  0
 47 52  1  0  0  0  0
 48 71  1  0  0  0  0
 49 52  1  0  0  0  0
 49 71  1  0  0  0  0
 50 75  1  0  0  0  0
 51 70  1  0  0  0  0
 52 69  1  0  0  0  0
 53 60  1  0  0  0  0
 54 61  1  0  0  0  0
 55 66  1  0  0  0  0
 56 67  1  0  0  0  0
 57 67  1  0  0  0  0
 58 67  1  0  0  0  0
 59 77  1  0  0  0  0
 62 63  1  0  0  0  0
 63 64  1  0  0  0  0
 64 84  1  0  0  0  0
 65 67  1  0  0  0  0
 65 76  1  0  0  0  0
 66 77  1  0  0  0  0
 68 69  1  0  0  0  0
M  CHG  1  77   1
M  ISO  4  40 100  64 101  74 100  84 101
M  END
> <Batch ID>
0120

> <Smiles>
CCc1cc([100NH:0][100C:0](=O)N2CCCC(n3nc(-c4ccc(Oc5ccc(F)cc5F)cc4)c(C(N)=O)c3N)C2)cc(C=CCC[101CH2:1][101O:1]c2ccc3c(c2)CN(C(=O)C(NC(=O)C(C)NC)C(C)(C)C)C(C(=O)NC2CCCc4ccccc42)C3)c1CC

> <Shape>
0.220

> <Color>
0.091

> <Negative vol penalty>
0.000

$$$$

  -OEChem-04052301543D

 85 93  0     1  0  0  0  0  0999 V2000
  -29.0110  -24.2395   17.9031 C   0  0  0  0  0  0  0  0  0  0  0  0
  -27.8388  -24.3760   18.6398 C   0  0  0  0  0  0  0  0  0  0  0  0
  -25.4709  -17.4522   21.7105 C   0  0  0  0  0  0  0  0  0  0  0  0
  -23.3479  -17.9985   20.6950 C   0  0  0  0  0  0  0  0  0  0  0  0
  -30.1374  -24.9878   18.2424 C   0  0  0  0  0  0  0  0  0  0  0  0
  -27.7928  -25.2601   19.7171 C   0  0  0  0  0  0  0  0  0  0  0  0
  -23.5728  -28.0594   19.7537 C   0  0  0  0  0  0  0  0  0  0  0  0
  -25.5295  -16.2797   20.9573 C   0  0  0  0  0  0  0  0  0  0  0  0
  -23.4065  -16.8259   19.9417 C   0  0  0  0  0  0  0  0  0  0  0  0
  -22.4074  -27.4484   20.2146 C   0  0  0  0  0  0  0  0  0  0  0  0
  -24.1762  -13.1841   21.0591 C   0  0  0  0  0  0  0  0  0  0  0  0
  -24.5548  -12.0122   21.7140 C   0  0  0  0  0  0  0  0  0  0  0  0
  -22.6972  -28.5237   22.3544 C   0  0  0  0  0  0  0  0  0  0  0  0
  -17.8681  -25.6157   26.5471 C   0  0  0  0  0  0  0  0  0  0  0  0
  -26.4432  -11.7893   20.2236 C   0  0  0  0  0  0  0  0  0  0  0  0
  -24.3801  -18.3116   21.5794 C   0  0  0  0  0  0  0  0  0  0  0  0
  -24.8161  -20.7898   21.9988 C   0  0  0  0  0  0  0  0  0  0  0  0
  -30.1022  -25.8887   19.3184 C   0  0  0  0  0  0  0  0  0  0  0  0
  -24.3162  -28.8999   20.5946 C   0  0  0  0  0  0  0  0  0  0  0  0
  -28.9201  -26.0202   20.0719 C   0  0  0  0  0  0  0  0  0  0  0  0
  -23.8702  -29.1462   21.9009 C   0  0  0  0  0  0  0  0  0  0  0  0
  -24.4974  -15.9665   20.0729 C   0  0  0  0  0  0  0  0  0  0  0  0
  -21.9710  -27.6782   21.5160 C   0  0  0  0  0  0  0  0  0  0  0  0
  -24.9310  -13.6586   19.9863 C   0  0  0  0  0  0  0  0  0  0  0  0
  -17.8467  -24.3863   27.2480 C   0  0  0  0  0  0  0  0  0  0  0  0
  -25.6883  -11.3148   21.2963 C   0  0  0  0  0  0  0  0  0  0  0  0
  -26.0645  -12.9612   19.5686 C   0  0  0  0  0  0  0  0  0  0  0  0
  -24.3187  -19.5227   22.3576 C   0  0  0  0  0  0  0  0  0  0  0  0
  -18.0549  -25.2968   25.2222 C   0  0  0  0  0  0  0  0  0  0  0  0
  -18.0216  -23.4038   26.3014 C   0  0  0  0  0  0  0  0  0  0  0  0
  -24.5102  -21.5944   23.0691 C   0  0  0  0  0  0  0  0  0  0  0  0
  -18.1467  -26.2274   24.0849 C   0  0  0  0  0  0  0  0  0  0  0  0
  -18.3502  -25.8691   22.8074 C   0  0  0  0  0  0  0  0  0  0  0  0
  -25.4940  -21.2027   20.8048 C   0  0  0  0  0  0  0  0  0  0  0  0
  -27.2650  -28.8478   21.7803 C   0  0  0  0  0  0  0  0  0  0  0  0
  -26.4548  -31.7886   22.8836 C   0  0  0  0  0  0  0  0  0  0  0  0
  -23.9869  -33.9625   23.7949 C   0  0  0  0  0  0  0  0  0  0  0  0
  -20.2990  -21.3048   27.3157 C   0  0  0  0  0  0  0  0  0  0  0  0
  -31.3593  -26.6411   19.6767 C   0  0  0  0  0  0  0  0  0  0  0  0
  -25.5567  -29.5725   20.0737 C   0  0  0  0  0  0  0  0  0  0  0  0
  -24.6213  -30.0562   22.8370 C   0  0  0  0  0  0  0  0  0  0  0  0
  -31.1142  -27.8320   20.5996 C   0  0  0  0  0  0  0  0  0  0  0  0
  -23.8239  -21.4306   27.8013 C   0  0  0  0  0  0  0  0  0  0  0  0
  -30.1952  -27.4352   21.7506 C   0  0  0  0  0  0  0  0  0  0  0  0
  -24.3953  -21.0702   26.4288 C   0  0  0  0  0  0  0  0  0  0  0  0
  -22.5514  -20.6438   28.1071 C   0  0  0  0  0  0  0  0  0  0  0  0
  -22.0721  -20.3801   25.7040 C   0  0  0  0  0  0  0  0  0  0  0  0
  -28.8234  -26.9872   21.2320 C   0  0  1  0  0  0  0  0  0  0  0  0
  -26.5131  -30.0028   21.1816 C   0  0  1  0  0  0  0  0  0  0  0  0
  -23.3251  -21.1890   25.3271 C   0  0  2  0  0  0  0  0  0  0  0  0
  -17.1795  -26.0344   31.7986 C   0  0  0  0  0  0  0  0  0  0  0  0
  -23.6351  -36.2798   24.6914 C   0  0  0  0  0  0  0  0  0  0  0  0
  -27.2823  -30.8367   25.6619 C   0  0  0  0  0  0  0  0  0  0  0  0
  -26.0461  -32.7902   26.6232 C   0  0  0  0  0  0  0  0  0  0  0  0
  -27.9889  -33.1703   25.1053 C   0  0  0  0  0  0  0  0  0  0  0  0
  -22.4694  -34.7872   21.3916 C   0  0  0  0  0  0  0  0  0  0  0  0
  -18.0931  -21.9370   26.3704 C   0  0  0  0  0  0  0  0  0  0  0  0
  -18.4501  -26.8556   21.6762 C   0  0  0  0  0  0  0  0  0  0  0  0
  -17.3803  -24.8683   30.8475 C   0  0  0  0  0  0  0  0  0  0  0  0
  -19.8179  -26.8066   21.0057 C   0  0  0  0  0  0  0  0  0  1  0  0
  -17.5178  -25.3317   29.4053 C   0  0  0  0  0  0  0  0  0  0  0  0
  -25.8119  -32.3184   24.1425 C   0  0  1  0  0  0  0  0  0  0  0  0
  -23.7472  -35.4195   23.4424 C   0  0  2  0  0  0  0  0  0  0  0  0
  -26.7690  -32.2602   25.3665 C   0  0  0  0  0  0  0  0  0  0  0  0
  -23.7408  -19.5176   23.5618 N   0  0  0  0  0  0  0  0  0  0  0  0
  -23.8733  -20.7915   23.9690 N   0  0  0  0  0  0  0  0  0  0  0  0
  -25.8315  -30.6855   22.2832 N   0  0  0  0  0  0  0  0  0  0  0  0
  -21.5770  -20.7998   27.0244 N   0  0  0  0  0  0  0  0  0  0  0  0
  -24.7267  -22.9033   23.3189 N   0  0  0  0  0  0  0  0  0  0  0  0
  -25.7275  -20.2485   19.8051 N   0  0  0  0  0  0  0  0  0  0  0  0
  -28.0207  -28.1354   20.8688 N   0  0  0  0  0  0  0  0  0  0  0  0
  -25.3315  -33.6584   23.8229 N   0  0  0  0  0  0  0  0  0  0  0  0
  -19.4389  -21.4269   26.2312 N   0  0  0  0  0  0  0  0  0  0  0  0
  -22.4877  -35.5624   22.6587 N   0  3  0  0  0  0  0  0  0  0  0  0
  -25.8957  -22.3790   20.6365 O   0  0  0  0  0  0  0  0  0  0  0  0
  -27.1679  -28.6207   22.9806 O   0  0  0  0  0  0  0  0  0  0  0  0
  -27.4685  -32.3379   22.4450 O   0  0  0  0  0  0  0  0  0  0  0  0
  -23.0729  -33.1741   24.0262 O   0  0  0  0  0  0  0  0  0  0  0  0
  -19.9521  -21.6284   28.4567 O   0  0  0  0  0  0  0  0  0  0  0  0
  -18.1493  -23.9505   25.0639 O   0  0  0  0  0  0  0  0  0  0  0  0
  -24.5543  -14.8226   19.3376 O   0  0  0  0  0  0  0  0  0  0  0  0
  -20.8342  -27.0826   21.9686 O   0  0  0  0  0  0  0  0  0  1  0  0
  -17.6898  -24.1810   28.5621 O   0  0  0  0  0  0  0  0  0  0  0  0
  -26.0526  -10.1904   21.9264 F   0  0  0  0  0  0  0  0  0  0  0  0
  -26.7944  -13.4127   18.5394 F   0  0  0  0  0  0  0  0  0  0  0  0
  1  2  1  0  0  0  0
  1  5  2  0  0  0  0
  2  6  2  0  0  0  0
  3  8  2  0  0  0  0
  3 16  1  0  0  0  0
  4  9  1  0  0  0  0
  4 16  2  0  0  0  0
  5 18  1  0  0  0  0
  6 20  1  0  0  0  0
  7 10  2  0  0  0  0
  7 19  1  0  0  0  0
  8 22  1  0  0  0  0
  9 22  2  0  0  0  0
 10 23  1  0  0  0  0
 11 12  2  0  0  0  0
 11 24  1  0  0  0  0
 12 26  1  0  0  0  0
 13 21  1  0  0  0  0
 13 23  2  0  0  0  0
 14 25  1  0  0  0  0
 14 29  2  0  0  0  0
 15 26  2  0  0  0  0
 15 27  1  0  0  0  0
 16 28  1  0  0  0  0
 17 28  1  0  0  0  0
 17 31  2  0  0  0  0
 17 34  1  0  0  0  0
 18 20  2  0  0  0  0
 18 39  1  0  0  0  0
 19 21  2  0  0  0  0
 19 40  1  0  0  0  0
 20 48  1  0  0  0  0
 21 41  1  0  0  0  0
 22 81  1  0  0  0  0
 23 82  1  0  0  0  0
 24 27  2  0  0  0  0
 24 81  1  0  0  0  0
 25 30  2  0  0  0  0
 25 83  1  0  0  0  0
 26 84  1  0  0  0  0
 27 85  1  0  0  0  0
 28 65  2  0  0  0  0
 29 32  1  0  0  0  0
 29 80  1  0  0  0  0
 30 57  1  0  0  0  0
 30 80  1  0  0  0  0
 31 66  1  0  0  0  0
 31 69  1  0  0  0  0
 32 33  2  0  0  0  0
 33 58  1  0  0  0  0
 34 70  1  0  0  0  0
 34 75  2  0  0  0  0
 35 49  1  0  0  0  0
 35 71  1  0  0  0  0
 35 76  2  0  0  0  0
 36 62  1  0  0  0  0
 36 67  1  0  0  0  0
 36 77  2  0  0  0  0
 37 63  1  0  0  0  0
 37 72  1  0  0  0  0
 37 78  2  0  0  0  0
 38 68  1  0  0  0  0
 38 73  1  0  0  0  0
 38 79  2  0  0  0  0
 39 42  1  0  0  0  0
 40 49  1  0  0  0  0
 41 67  1  0  0  0  0
 42 44  1  0  0  0  0
 43 45  1  0  0  0  0
 43 46  1  0  0  0  0
 44 48  1  0  0  0  0
 45 50  1  0  0  0  0
 46 68  1  0  0  0  0
 47 50  1  0  0  0  0
 47 68  1  0  0  0  0
 48 71  1  0  0  0  0
 49 67  1  0  0  0  0
 50 66  1  0  0  0  0
 51 59  1  0  0  0  0
 52 63  1  0  0  0  0
 53 64  1  0  0  0  0
 54 64  1  0  0  0  0
 55 64  1  0  0  0  0
 56 74  1  0  0  0  0
 57 73  1  0  0  0  0
 58 60  1  0  0  0  0
 59 61  1  0  0  0  0
 60 82  1  0  0  0  0
 61 83  1  0  0  0  0
 62 64  1  0  0  0  0
 62 72  1  0  0  0  0
 63 74  1  0  0  0  0
 65 66  1  0  0  0  0
M  CHG  1  74   1
M  ISO  4  38 100  60 101  73 100  82 101
M  END
> <Batch ID>
0120

> <Smiles>
CCCOc1cc(C=CC[101CH2:1][101O:1]c2ccc3c(c2)CN(C(=O)C(NC(=O)C(C)NC)C(C)(C)C)C(C(=O)NC2CCCc4ccccc42)C3)oc1C[100NH:0][100C:0](=O)N1CCCC(n2nc(-c3ccc(Oc4ccc(F)cc4F)cc3)c(C(N)=O)c2N)C1

> <Shape>
0.240

> <Color>
0.058

> <Negative vol penalty>
0.000

$$$$

  -OEChem-04052301543D

 85 93  0     1  0  0  0  0  0999 V2000
  -25.9086  -37.5614   23.2647 C   0  0  0  0  0  0  0  0  0  0  0  0
  -26.7062  -36.5116   22.8204 C   0  0  0  0  0  0  0  0  0  0  0  0
  -23.9970   -9.8380   22.3904 C   0  0  0  0  0  0  0  0  0  0  0  0
  -24.4658  -11.5600   24.0190 C   0  0  0  0  0  0  0  0  0  0  0  0
  -24.7685  -37.2968   24.0224 C   0  0  0  0  0  0  0  0  0  0  0  0
  -26.3647  -35.1967   23.1347 C   0  0  0  0  0  0  0  0  0  0  0  0
  -27.1933  -30.2408   19.6335 C   0  0  0  0  0  0  0  0  0  0  0  0
  -23.5733   -8.9876   23.4116 C   0  0  0  0  0  0  0  0  0  0  0  0
  -24.0420  -10.7095   25.0402 C   0  0  0  0  0  0  0  0  0  0  0  0
  -28.1780  -29.2539   19.6227 C   0  0  0  0  0  0  0  0  0  0  0  0
  -20.8121   -8.5658   25.3171 C   0  0  0  0  0  0  0  0  0  0  0  0
  -19.6300   -7.8526   25.1181 C   0  0  0  0  0  0  0  0  0  0  0  0
  -28.3392  -20.5414   19.1187 C   0  0  0  0  0  0  0  0  0  0  0  0
  -26.7668  -27.8394   20.9742 C   0  0  0  0  0  0  0  0  0  0  0  0
  -30.4638  -18.7386   18.9841 C   0  0  0  0  0  0  0  0  0  0  0  0
  -20.8427   -5.7764   25.3550 C   0  0  0  0  0  0  0  0  0  0  0  0
  -24.4433  -11.1242   22.6941 C   0  0  0  0  0  0  0  0  0  0  0  0
  -28.0888  -19.1696   19.0871 C   0  0  0  0  0  0  0  0  0  0  0  0
  -29.6519  -21.0119   19.0829 C   0  0  0  0  0  0  0  0  0  0  0  0
  -24.0937  -12.9108   20.9070 C   0  0  0  0  0  0  0  0  0  0  0  0
  -24.4076  -35.9774   24.3379 C   0  0  0  0  0  0  0  0  0  0  0  0
  -25.9902  -30.0383   20.3250 C   0  0  0  0  0  0  0  0  0  0  0  0
  -25.2194  -34.9143   23.8985 C   0  0  0  0  0  0  0  0  0  0  0  0
  -25.7673  -28.8242   20.9901 C   0  0  0  0  0  0  0  0  0  0  0  0
  -29.1511  -18.2682   19.0198 C   0  0  0  0  0  0  0  0  0  0  0  0
  -23.5958   -9.4233   24.7364 C   0  0  0  0  0  0  0  0  0  0  0  0
  -27.9661  -28.0542   20.2955 C   0  0  0  0  0  0  0  0  0  0  0  0
  -22.0096   -7.8843   25.5350 C   0  0  0  0  0  0  0  0  0  0  0  0
  -19.6453   -6.4579   25.1371 C   0  0  0  0  0  0  0  0  0  0  0  0
  -30.7142  -20.1104   19.0156 C   0  0  0  0  0  0  0  0  0  0  0  0
  -22.0249   -6.4897   25.5540 C   0  0  0  0  0  0  0  0  0  0  0  0
  -24.8816  -12.0030   21.6397 C   0  0  0  0  0  0  0  0  0  0  0  0
  -24.9730  -13.5002   20.0319 C   0  0  0  0  0  0  0  0  0  0  0  0
  -25.8636  -19.0092   20.1060 C   0  0  0  0  0  0  0  0  0  0  0  0
  -26.7039  -18.7149   19.1261 C   0  0  0  0  0  0  0  0  0  0  0  0
  -29.9113  -22.4621   19.1164 C   0  0  0  0  0  0  0  0  0  0  0  0
  -29.1148  -23.3643   19.7064 C   0  0  0  0  0  0  0  0  0  0  0  0
  -22.6922  -13.1958   21.0084 C   0  0  0  0  0  0  0  0  0  0  0  0
  -29.4631  -24.8146   19.6754 C   0  0  0  0  0  0  0  0  0  0  0  0
  -24.5413  -31.4619   22.7699 C   0  0  0  0  0  0  0  0  0  0  0  0
  -22.1346  -29.4170   22.0295 C   0  0  0  0  0  0  0  0  0  0  0  0
  -21.1708  -26.4769   20.5894 C   0  0  0  0  0  0  0  0  0  0  0  0
  -29.8910  -15.8622   18.9198 C   0  0  0  0  0  0  0  0  0  0  0  0
  -23.1921  -35.7437   25.1997 C   0  0  0  0  0  0  0  0  0  0  0  0
  -24.9271  -31.1021   20.3046 C   0  0  0  0  0  0  0  0  0  0  0  0
  -24.4847  -28.5494   21.7304 C   0  0  0  0  0  0  0  0  0  0  0  0
  -22.6944  -34.3008   25.1722 C   0  0  0  0  0  0  0  0  0  0  0  0
  -29.7491  -12.3051   18.8563 C   0  0  0  0  0  0  0  0  0  0  0  0
  -23.8591  -33.3309   25.3435 C   0  0  0  0  0  0  0  0  0  0  0  0
  -28.4053  -11.9841   19.5145 C   0  0  0  0  0  0  0  0  0  0  0  0
  -30.4273  -13.5084   19.5090 C   0  0  0  0  0  0  0  0  0  0  0  0
  -28.2535  -14.3956   20.2551 C   0  0  0  0  0  0  0  0  0  0  0  0
  -24.8685  -33.4730   24.1979 C   0  0  1  0  0  0  0  0  0  0  0  0
  -23.9498  -30.9925   21.4709 C   0  0  1  0  0  0  0  0  0  0  0  0
  -27.5024  -13.2309   19.5894 C   0  0  2  0  0  0  0  0  0  0  0  0
  -19.1428  -25.0582   20.1747 C   0  0  0  0  0  0  0  0  0  0  0  0
  -22.1733  -28.5140   24.9438 C   0  0  0  0  0  0  0  0  0  0  0  0
  -20.8490  -26.5006   24.2649 C   0  0  0  0  0  0  0  0  0  0  0  0
  -19.8876  -28.7828   23.9653 C   0  0  0  0  0  0  0  0  0  0  0  0
  -21.4925  -26.6708   17.6538 C   0  0  0  0  0  0  0  0  0  0  0  0
  -28.4861  -25.7349   20.3761 C   0  0  0  0  0  0  0  0  0  1  0  0
  -21.7564  -28.0158   22.4450 C   0  0  1  0  0  0  0  0  0  0  0  0
  -20.0469  -26.1495   19.6229 C   0  0  2  0  0  0  0  0  0  0  0  0
  -21.1916  -27.9589   23.8925 C   0  0  0  0  0  0  0  0  0  0  0  0
  -26.1630  -12.0114   21.2628 N   0  0  0  0  0  0  0  0  0  0  0  0
  -26.1869  -12.9315   20.2836 N   0  0  0  0  0  0  0  0  0  0  0  0
  -23.4783  -29.6231   21.6865 N   0  0  0  0  0  0  0  0  0  0  0  0
  -29.5139  -14.6528   19.5410 N   0  0  0  0  0  0  0  0  0  0  0  0
  -24.8186  -14.4442   19.0793 N   0  0  0  0  0  0  0  0  0  0  0  0
  -21.9360  -12.4995   21.9612 N   0  0  0  0  0  0  0  0  0  0  0  0
  -28.9287  -16.8692   18.9864 N   0  0  0  0  0  0  0  0  0  0  0  0
  -24.3775  -32.8133   23.0070 N   0  0  0  0  0  0  0  0  0  0  0  0
  -20.8375  -27.5216   21.4253 N   0  0  0  0  0  0  0  0  0  0  0  0
  -20.6027  -25.6854   18.3203 N   0  3  0  0  0  0  0  0  0  0  0  0
  -22.1240  -14.0310   20.2647 O   0  0  0  0  0  0  0  0  0  0  0  0
  -30.4753  -25.2306   19.1183 O   0  0  0  0  0  0  0  0  0  0  0  0
  -25.1034  -30.6572   23.5036 O   0  0  0  0  0  0  0  0  0  0  0  0
  -21.2681  -30.2946   22.0032 O   0  0  0  0  0  0  0  0  0  0  0  0
  -22.2363  -25.8645   20.6041 O   0  0  0  0  0  0  0  0  0  0  0  0
  -30.9759  -15.9860   18.3455 O   0  0  0  0  0  0  0  0  0  0  0  0
  -23.1822   -8.5938   25.7331 O   0  0  0  0  0  0  0  0  0  0  0  0
  -28.9259  -27.0895   20.2872 O   0  0  0  0  0  0  0  0  0  1  0  0
  -18.5098   -5.7732   24.9476 F   0  0  0  0  0  0  0  0  0  0  0  0
  -31.9817  -20.5471   18.9805 F   0  0  0  0  0  0  0  0  0  0  0  0
  -23.1719   -5.8294   25.7640 F   0  0  0  0  0  0  0  0  0  0  0  0
  1  2  1  0  0  0  0
  1  5  2  0  0  0  0
  2  6  2  0  0  0  0
  3  8  2  0  0  0  0
  3 17  1  0  0  0  0
  4  9  1  0  0  0  0
  4 17  2  0  0  0  0
  5 21  1  0  0  0  0
  6 23  1  0  0  0  0
  7 10  2  0  0  0  0
  7 22  1  0  0  0  0
  8 26  1  0  0  0  0
  9 26  2  0  0  0  0
 10 27  1  0  0  0  0
 11 12  2  0  0  0  0
 11 28  1  0  0  0  0
 12 29  1  0  0  0  0
 13 18  1  0  0  0  0
 13 19  2  0  0  0  0
 14 24  1  0  0  0  0
 14 27  2  0  0  0  0
 15 25  1  0  0  0  0
 15 30  2  0  0  0  0
 16 29  2  0  0  0  0
 16 31  1  0  0  0  0
 17 32  1  0  0  0  0
 18 25  2  0  0  0  0
 18 35  1  0  0  0  0
 19 30  1  0  0  0  0
 19 36  1  0  0  0  0
 20 32  1  0  0  0  0
 20 33  2  0  0  0  0
 20 38  1  0  0  0  0
 21 23  2  0  0  0  0
 21 44  1  0  0  0  0
 22 24  2  0  0  0  0
 22 45  1  0  0  0  0
 23 53  1  0  0  0  0
 24 46  1  0  0  0  0
 25 71  1  0  0  0  0
 26 81  1  0  0  0  0
 27 82  1  0  0  0  0
 28 31  2  0  0  0  0
 28 81  1  0  0  0  0
 29 83  1  0  0  0  0
 30 84  1  0  0  0  0
 31 85  1  0  0  0  0
 32 65  2  0  0  0  0
 33 66  1  0  0  0  0
 33 69  1  0  0  0  0
 34 35  2  0  0  0  0
 36 37  2  0  0  0  0
 37 39  1  0  0  0  0
 38 70  1  0  0  0  0
 38 75  2  0  0  0  0
 39 61  1  0  0  0  0
 39 76  2  0  0  0  0
 40 54  1  0  0  0  0
 40 72  1  0  0  0  0
 40 77  2  0  0  0  0
 41 62  1  0  0  0  0
 41 67  1  0  0  0  0
 41 78  2  0  0  0  0
 42 63  1  0  0  0  0
 42 73  1  0  0  0  0
 42 79  2  0  0  0  0
 43 68  1  0  0  0  0
 43 71  1  0  0  0  0
 43 80  2  0  0  0  0
 44 47  1  0  0  0  0
 45 54  1  0  0  0  0
 46 67  1  0  0  0  0
 47 49  1  0  0  0  0
 48 50  1  0  0  0  0
 48 51  1  0  0  0  0
 49 53  1  0  0  0  0
 50 55  1  0  0  0  0
 51 68  1  0  0  0  0
 52 55  1  0  0  0  0
 52 68  1  0  0  0  0
 53 72  1  0  0  0  0
 54 67  1  0  0  0  0
 55 66  1  0  0  0  0
 56 63  1  0  0  0  0
 57 64  1  0  0  0  0
 58 64  1  0  0  0  0
 59 64  1  0  0  0  0
 60 74  1  0  0  0  0
 61 82  1  0  0  0  0
 62 64  1  0  0  0  0
 62 73  1  0  0  0  0
 63 74  1  0  0  0  0
 65 66  1  0  0  0  0
M  CHG  1  74   1
M  ISO  4  43 100  61 101  71 100  82 101
M  END
> <Batch ID>
0120

> <Smiles>
C=Cc1cc(C=CC(=O)[101CH2:1][101O:1]c2ccc3c(c2)CN(C(=O)C(NC(=O)C(C)NC)C(C)(C)C)C(C(=O)NC2CCCc4ccccc42)C3)c(F)cc1[100NH:0][100C:0](=O)N1CCCC(n2nc(-c3ccc(Oc4ccc(F)cc4F)cc3)c(C(N)=O)c2N)C1

> <Shape>
0.345

> <Color>
0.131

> <Negative vol penalty>
0.000

$$$$

  -OEChem-04052301543D

 82 90  0     1  0  0  0  0  0999 V2000
  -28.9499  -36.7866   19.1559 C   0  0  0  0  0  0  0  0  0  0  0  0
  -29.2151  -35.4209   19.1402 C   0  0  0  0  0  0  0  0  0  0  0  0
  -26.6054   -7.1537   22.7866 C   0  0  0  0  0  0  0  0  0  0  0  0
  -26.7846   -6.4219   20.4911 C   0  0  0  0  0  0  0  0  0  0  0  0
  -27.8221  -18.9885   20.1806 C   0  0  0  0  0  0  0  0  0  0  0  0
  -27.9203  -20.3393   19.8468 C   0  0  0  0  0  0  0  0  0  0  0  0
  -28.0433  -37.3090   20.0772 C   0  0  0  0  0  0  0  0  0  0  0  0
  -28.5744  -34.5771   20.0468 C   0  0  0  0  0  0  0  0  0  0  0  0
  -26.7740  -28.8063   19.0654 C   0  0  0  0  0  0  0  0  0  0  0  0
  -25.5827   -6.2297   23.0013 C   0  0  0  0  0  0  0  0  0  0  0  0
  -25.7619   -5.4979   20.7058 C   0  0  0  0  0  0  0  0  0  0  0  0
  -27.3494  -27.5771   19.3845 C   0  0  0  0  0  0  0  0  0  0  0  0
  -22.2749   -5.9805   22.3525 C   0  0  0  0  0  0  0  0  0  0  0  0
  -21.1445   -6.4152   23.0444 C   0  0  0  0  0  0  0  0  0  0  0  0
  -29.4266  -19.3110   21.9578 C   0  0  0  0  0  0  0  0  0  0  0  0
  -25.9960  -27.4681   21.3784 C   0  0  0  0  0  0  0  0  0  0  0  0
  -21.5459   -4.7489   24.7471 C   0  0  0  0  0  0  0  0  0  0  0  0
  -27.2063   -7.2498   21.5315 C   0  0  0  0  0  0  0  0  0  0  0  0
  -28.5752  -18.4744   21.2361 C   0  0  0  0  0  0  0  0  0  0  0  0
  -28.7716  -21.1759   20.5685 C   0  0  0  0  0  0  0  0  0  0  0  0
  -29.6442   -7.9991   21.4820 C   0  0  0  0  0  0  0  0  0  0  0  0
  -27.3839  -36.4698   20.9892 C   0  0  0  0  0  0  0  0  0  0  0  0
  -25.8116  -29.3818   19.9075 C   0  0  0  0  0  0  0  0  0  0  0  0
  -27.6591  -35.0889   20.9821 C   0  0  0  0  0  0  0  0  0  0  0  0
  -25.4081  -28.7034   21.0665 C   0  0  0  0  0  0  0  0  0  0  0  0
  -29.5248  -20.6618   21.6241 C   0  0  0  0  0  0  0  0  0  0  0  0
  -25.1610   -5.4019   21.9609 C   0  0  0  0  0  0  0  0  0  0  0  0
  -26.9625  -26.9092   20.5426 C   0  0  0  0  0  0  0  0  0  0  0  0
  -23.0408   -4.9299   22.8578 C   0  0  0  0  0  0  0  0  0  0  0  0
  -20.7800   -5.7995   24.2417 C   0  0  0  0  0  0  0  0  0  0  0  0
  -22.6763   -4.3141   24.0552 C   0  0  0  0  0  0  0  0  0  0  0  0
  -28.2623   -8.2044   21.3089 C   0  0  0  0  0  0  0  0  0  0  0  0
  -30.2151   -9.2013   21.1425 C   0  0  0  0  0  0  0  0  0  0  0  0
  -28.4728  -17.0656   21.5829 C   0  0  0  0  0  0  0  0  0  0  0  0
  -28.8529  -22.5971   20.1920 C   0  0  0  0  0  0  0  0  0  0  0  0
  -28.0118  -16.0905   20.7708 C   0  0  0  0  0  0  0  0  0  0  0  0
  -27.8197  -23.4537   20.1747 C   0  0  0  0  0  0  0  0  0  0  0  0
  -30.3488   -6.8266   21.9113 C   0  0  0  0  0  0  0  0  0  0  0  0
  -27.9789  -14.7001   21.2671 C   0  0  0  0  0  0  0  0  0  0  0  0
  -25.6317  -32.0633   21.6049 C   0  0  0  0  0  0  0  0  0  0  0  0
  -22.5937  -31.0602   22.1404 C   0  0  0  0  0  0  0  0  0  0  0  0
  -20.3839  -28.4638   22.2902 C   0  0  0  0  0  0  0  0  0  0  0  0
  -26.4477  -37.0870   21.9977 C   0  0  0  0  0  0  0  0  0  0  0  0
  -25.1811  -30.6957   19.5354 C   0  0  0  0  0  0  0  0  0  0  0  0
  -24.3642  -29.2688   21.9934 C   0  0  0  0  0  0  0  0  0  0  0  0
  -25.5296  -36.0736   22.6764 C   0  0  0  0  0  0  0  0  0  0  0  0
  -29.5315  -13.0389   18.3928 C   0  0  0  0  0  0  0  0  0  0  0  0
  -26.3242  -34.8526   23.1288 C   0  0  0  0  0  0  0  0  0  0  0  0
  -29.4597  -11.5767   18.8247 C   0  0  0  0  0  0  0  0  0  0  0  0
  -28.3296  -13.8413   18.8890 C   0  0  0  0  0  0  0  0  0  0  0  0
  -28.0441  -12.2825   20.7940 C   0  0  0  0  0  0  0  0  0  0  0  0
  -26.9655  -34.1379   21.9332 C   0  0  1  0  0  0  0  0  0  0  0  0
  -24.5849  -31.4322   20.7310 C   0  0  1  0  0  0  0  0  0  0  0  0
  -29.2670  -11.4671   20.3455 C   0  0  1  0  0  0  0  0  0  0  0  0
  -30.4481  -21.5286   22.4187 C   0  0  0  0  0  0  0  0  0  0  0  0
  -17.9790  -27.9502   22.7906 C   0  0  0  0  0  0  0  0  0  0  0  0
  -23.1519  -31.3657   25.1245 C   0  0  0  0  0  0  0  0  0  0  0  0
  -21.1220  -29.9714   25.5760 C   0  0  0  0  0  0  0  0  0  0  0  0
  -20.8938  -32.1589   24.3990 C   0  0  0  0  0  0  0  0  0  0  0  0
  -19.9206  -27.4114   19.5632 C   0  0  0  0  0  0  0  0  0  0  0  0
  -27.9489  -24.8874   19.7709 C   0  0  0  0  0  0  0  0  0  1  0  0
  -21.9205  -30.1966   23.1795 C   0  0  1  0  0  0  0  0  0  0  0  0
  -18.9923  -28.2907   21.7089 C   0  0  2  0  0  0  0  0  0  0  0  0
  -21.7932  -30.9131   24.5535 C   0  0  0  0  0  0  0  0  0  0  0  0
  -27.9728   -9.4399   20.8920 N   0  0  0  0  0  0  0  0  0  0  0  0
  -29.1807  -10.0218   20.8003 N   0  0  0  0  0  0  0  0  0  0  0  0
  -28.1311  -13.6738   20.3365 N   0  0  0  0  0  0  0  0  0  0  0  0
  -23.7817  -30.5592   21.5895 N   0  0  0  0  0  0  0  0  0  0  0  0
  -31.4960   -9.6261   21.1063 N   0  0  0  0  0  0  0  0  0  0  0  0
  -29.6081   -5.6777   22.2205 N   0  0  0  0  0  0  0  0  0  0  0  0
  -25.9793  -33.3467   21.2289 N   0  0  0  0  0  0  0  0  0  0  0  0
  -20.6468  -29.7810   22.6021 N   0  0  0  0  0  0  0  0  0  0  0  0
  -18.9859  -27.1960   20.6976 N   0  3  0  0  0  0  0  0  0  0  0  0
  -31.5971   -6.8035   22.0333 O   0  0  0  0  0  0  0  0  0  0  0  0
  -27.8136  -14.5319   22.4767 O   0  0  0  0  0  0  0  0  0  0  0  0
  -26.0890  -31.4330   22.5511 O   0  0  0  0  0  0  0  0  0  0  0  0
  -22.0805  -32.1363   21.8237 O   0  0  0  0  0  0  0  0  0  0  0  0
  -21.1586  -27.5241   22.4549 O   0  0  0  0  0  0  0  0  0  0  0  0
  -24.1633   -4.5000   22.1701 O   0  0  0  0  0  0  0  0  0  0  0  0
  -27.5230  -25.7096   20.8568 O   0  0  0  0  0  0  0  0  0  1  0  0
  -19.6953   -6.2180   24.9069 F   0  0  0  0  0  0  0  0  0  0  0  0
  -23.4089   -3.3051   24.5462 F   0  0  0  0  0  0  0  0  0  0  0  0
  1  2  1  0  0  0  0
  1  7  2  0  0  0  0
  2  8  2  0  0  0  0
  3 10  2  0  0  0  0
  3 18  1  0  0  0  0
  4 11  1  0  0  0  0
  4 18  2  0  0  0  0
  5  6  2  0  0  0  0
  5 19  1  0  0  0  0
  6 20  1  0  0  0  0
  7 22  1  0  0  0  0
  8 24  1  0  0  0  0
  9 12  2  0  0  0  0
  9 23  1  0  0  0  0
 10 27  1  0  0  0  0
 11 27  2  0  0  0  0
 12 28  1  0  0  0  0
 13 14  2  0  0  0  0
 13 29  1  0  0  0  0
 14 30  1  0  0  0  0
 15 19  2  0  0  0  0
 15 26  1  0  0  0  0
 16 25  1  0  0  0  0
 16 28  2  0  0  0  0
 17 30  2  0  0  0  0
 17 31  1  0  0  0  0
 18 32  1  0  0  0  0
 19 34  1  0  0  0  0
 20 26  2  0  0  0  0
 20 35  1  0  0  0  0
 21 32  1  0  0  0  0
 21 33  2  0  0  0  0
 21 38  1  0  0  0  0
 22 24  2  0  0  0  0
 22 43  1  0  0  0  0
 23 25  2  0  0  0  0
 23 44  1  0  0  0  0
 24 52  1  0  0  0  0
 25 45  1  0  0  0  0
 26 55  1  0  0  0  0
 27 79  1  0  0  0  0
 28 80  1  0  0  0  0
 29 31  2  0  0  0  0
 29 79  1  0  0  0  0
 30 81  1  0  0  0  0
 31 82  1  0  0  0  0
 32 65  2  0  0  0  0
 33 66  1  0  0  0  0
 33 69  1  0  0  0  0
 34 36  2  0  0  0  0
 35 37  2  0  0  0  0
 36 39  1  0  0  0  0
 37 61  1  0  0  0  0
 38 70  1  0  0  0  0
 38 74  2  0  0  0  0
 39 67  1  0  0  0  0
 39 75  2  0  0  0  0
 40 53  1  0  0  0  0
 40 71  1  0  0  0  0
 40 76  2  0  0  0  0
 41 62  1  0  0  0  0
 41 68  1  0  0  0  0
 41 77  2  0  0  0  0
 42 63  1  0  0  0  0
 42 72  1  0  0  0  0
 42 78  2  0  0  0  0
 43 46  1  0  0  0  0
 44 53  1  0  0  0  0
 45 68  1  0  0  0  0
 46 48  1  0  0  0  0
 47 49  1  0  0  0  0
 47 50  1  0  0  0  0
 48 52  1  0  0  0  0
 49 54  1  0  0  0  0
 50 67  1  0  0  0  0
 51 54  1  0  0  0  0
 51 67  1  0  0  0  0
 52 71  1  0  0  0  0
 53 68  1  0  0  0  0
 54 66  1  0  0  0  0
 56 63  1  0  0  0  0
 57 64  1  0  0  0  0
 58 64  1  0  0  0  0
 59 64  1  0  0  0  0
 60 73  1  0  0  0  0
 61 80  1  0  0  0  0
 62 64  1  0  0  0  0
 62 72  1  0  0  0  0
 63 73  1  0  0  0  0
 65 66  1  0  0  0  0
M  CHG  1  73   1
M  ISO  4  36 100  39 100  61 101  80 101
M  END
> <Batch ID>
0120

> <Smiles>
CNC(C)C(=O)NC(C(=O)N1Cc2cc([101O:1][101CH2:1]C=Cc3ccc(C=[100CH:0][100C:0](=O)N4CCCC(n5nc(-c6ccc(Oc7ccc(F)cc7F)cc6)c(C(N)=O)c5N)C4)cc3C)ccc2CC1C(=O)NC1CCCc2ccccc21)C(C)(C)C

> <Shape>
0.254

> <Color>
0.085

> <Negative vol penalty>
0.000

$$$$

  -OEChem-04052301543D

 84 92  0     1  0  0  0  0  0999 V2000
  -29.4302  -35.9346   22.6256 C   0  0  0  0  0  0  0  0  0  0  0  0
  -29.3083  -34.5682   22.8569 C   0  0  0  0  0  0  0  0  0  0  0  0
  -23.8316   -9.6496   22.1500 C   0  0  0  0  0  0  0  0  0  0  0  0
  -23.4579  -11.8624   23.0448 C   0  0  0  0  0  0  0  0  0  0  0  0
  -28.7730  -19.3934   21.2296 C   0  0  0  0  0  0  0  0  0  0  0  0
  -28.3006  -36.7508   22.6666 C   0  0  0  0  0  0  0  0  0  0  0  0
  -28.0568  -34.0174   23.1305 C   0  0  0  0  0  0  0  0  0  0  0  0
  -27.2135  -29.7376   20.5581 C   0  0  0  0  0  0  0  0  0  0  0  0
  -28.7297  -18.0151   21.4397 C   0  0  0  0  0  0  0  0  0  0  0  0
  -23.1776   -9.0944   23.2498 C   0  0  0  0  0  0  0  0  0  0  0  0
  -22.8038  -11.3072   24.1446 C   0  0  0  0  0  0  0  0  0  0  0  0
  -27.8206  -28.5772   21.0361 C   0  0  0  0  0  0  0  0  0  0  0  0
  -19.9904   -8.6292   24.2787 C   0  0  0  0  0  0  0  0  0  0  0  0
  -19.0606   -7.6180   24.0373 C   0  0  0  0  0  0  0  0  0  0  0  0
  -25.7435  -27.9258   22.0755 C   0  0  0  0  0  0  0  0  0  0  0  0
  -30.5941  -17.7265   19.9305 C   0  0  0  0  0  0  0  0  0  0  0  0
  -20.3562   -6.1013   25.4005 C   0  0  0  0  0  0  0  0  0  0  0  0
  -23.9719  -11.0336   22.0476 C   0  0  0  0  0  0  0  0  0  0  0  0
  -29.7268  -19.9382   20.3699 C   0  0  0  0  0  0  0  0  0  0  0  0
  -24.0713  -12.0044   19.6906 C   0  0  0  0  0  0  0  0  0  0  0  0
  -27.0332  -36.2083   22.9312 C   0  0  0  0  0  0  0  0  0  0  0  0
  -25.8674  -30.0066   20.8448 C   0  0  0  0  0  0  0  0  0  0  0  0
  -26.9094  -34.8274   23.1764 C   0  0  0  0  0  0  0  0  0  0  0  0
  -25.1209  -29.0891   21.5978 C   0  0  0  0  0  0  0  0  0  0  0  0
  -30.6373  -19.1048   19.7204 C   0  0  0  0  0  0  0  0  0  0  0  0
  -29.6402  -17.1817   20.7902 C   0  0  0  0  0  0  0  0  0  0  0  0
  -22.6636   -9.9232   24.2471 C   0  0  0  0  0  0  0  0  0  0  0  0
  -27.0864  -27.6725   21.7974 C   0  0  0  0  0  0  0  0  0  0  0  0
  -21.1032   -8.3765   25.0809 C   0  0  0  0  0  0  0  0  0  0  0  0
  -19.2434   -6.3540   24.5982 C   0  0  0  0  0  0  0  0  0  0  0  0
  -21.2861   -7.1125   25.6418 C   0  0  0  0  0  0  0  0  0  0  0  0
  -24.6479  -11.6077   20.9120 C   0  0  0  0  0  0  0  0  0  0  0  0
  -25.1262  -12.4821   18.9520 C   0  0  0  0  0  0  0  0  0  0  0  0
  -29.7470  -21.3967   20.1694 C   0  0  0  0  0  0  0  0  0  0  0  0
  -29.9120  -22.3093   21.1399 C   0  0  0  0  0  0  0  0  0  0  0  0
  -22.7043  -11.9464   19.2620 C   0  0  0  0  0  0  0  0  0  0  0  0
  -24.3223  -32.3043   22.4059 C   0  0  0  0  0  0  0  0  0  0  0  0
  -28.8128  -24.4839   21.6670 C   0  0  0  0  0  0  0  0  0  0  0  0
  -21.6971  -30.7647   21.2831 C   0  0  0  0  0  0  0  0  0  0  0  0
  -20.3090  -27.8678   20.1308 C   0  0  0  0  0  0  0  0  0  0  0  0
  -30.4240  -14.8139   20.4355 C   0  0  0  0  0  0  0  0  0  0  0  0
  -25.8482  -37.1377   23.0119 C   0  0  0  0  0  0  0  0  0  0  0  0
  -25.2199  -31.2498   20.2992 C   0  0  0  0  0  0  0  0  0  0  0  0
  -23.6673  -29.3214   21.9164 C   0  0  0  0  0  0  0  0  0  0  0  0
  -24.5038  -36.4183   22.9383 C   0  0  0  0  0  0  0  0  0  0  0  0
  -29.8531  -11.9517   18.3962 C   0  0  0  0  0  0  0  0  0  0  0  0
  -24.4953  -35.2066   23.8649 C   0  0  0  0  0  0  0  0  0  0  0  0
  -28.3991  -11.5784   18.6942 C   0  0  0  0  0  0  0  0  0  0  0  0
  -30.5739  -12.4639   19.6420 C   0  0  0  0  0  0  0  0  0  0  0  0
  -28.4421  -13.1876   20.6424 C   0  0  0  0  0  0  0  0  0  0  0  0
  -25.5654  -34.1888   23.4519 C   0  0  1  0  0  0  0  0  0  0  0  0
  -23.9829  -31.6734   21.0851 C   0  0  1  0  0  0  0  0  0  0  0  0
  -27.6563  -12.7275   19.4036 C   0  0  2  0  0  0  0  0  0  0  0  0
  -31.6733  -19.6536   18.7928 C   0  0  0  0  0  0  0  0  0  0  0  0
  -18.1334  -26.9092   19.3274 C   0  0  0  0  0  0  0  0  0  0  0  0
  -20.6885  -30.6487   24.1605 C   0  0  0  0  0  0  0  0  0  0  0  0
  -19.0481  -28.8994   23.4413 C   0  0  0  0  0  0  0  0  0  0  0  0
  -18.9352  -31.1906   22.4615 C   0  0  0  0  0  0  0  0  0  0  0  0
  -21.4394  -27.2283   17.4714 C   0  0  0  0  0  0  0  0  0  0  0  0
  -29.9190  -23.7861   20.8881 C   0  0  0  0  0  0  0  0  0  0  0  0
  -28.7352  -25.9875   21.4838 C   0  0  0  0  0  0  0  0  0  1  0  0
  -20.8181  -29.6448   21.7853 C   0  0  1  0  0  0  0  0  0  0  0  0
  -19.4368  -27.5798   18.9222 C   0  0  2  0  0  0  0  0  0  0  0  0
  -19.9004  -30.0921   22.9579 C   0  0  0  0  0  0  0  0  0  0  0  0
  -25.9668  -11.8152   20.9510 N   0  0  0  0  0  0  0  0  0  0  0  0
  -26.2277  -12.3474   19.7449 N   0  0  0  0  0  0  0  0  0  0  0  0
  -23.0809  -30.5544   21.3656 N   0  0  0  0  0  0  0  0  0  0  0  0
  -29.8144  -13.5539   20.2583 N   0  0  0  0  0  0  0  0  0  0  0  0
  -25.2097  -13.0000   17.7081 N   0  0  0  0  0  0  0  0  0  0  0  0
  -21.7485  -11.4268   20.1457 N   0  0  0  0  0  0  0  0  0  0  0  0
  -29.5944  -15.7813   21.0015 N   0  0  0  0  0  0  0  0  0  0  0  0
  -25.1218  -33.4267   22.3043 N   0  0  0  0  0  0  0  0  0  0  0  0
  -20.0975  -29.1386   20.6222 N   0  0  0  0  0  0  0  0  0  0  0  0
  -20.1507  -26.6828   17.9701 N   0  3  0  0  0  0  0  0  0  0  0  0
  -22.3437  -12.3283   18.1229 O   0  0  0  0  0  0  0  0  0  0  0  0
  -23.8895  -31.8102   23.4404 O   0  0  0  0  0  0  0  0  0  0  0  0
  -28.0188  -23.8804   22.3876 O   0  0  0  0  0  0  0  0  0  0  0  0
  -21.1752  -31.7853   20.8276 O   0  0  0  0  0  0  0  0  0  0  0  0
  -21.0963  -27.0461   20.5950 O   0  0  0  0  0  0  0  0  0  0  0  0
  -31.5872  -15.0273   20.0841 O   0  0  0  0  0  0  0  0  0  0  0  0
  -22.0251   -9.3818   25.3203 O   0  0  0  0  0  0  0  0  0  0  0  0
  -27.6768  -26.5394   22.2659 O   0  0  0  0  0  0  0  0  0  1  0  0
  -18.3496   -5.3834   24.3676 F   0  0  0  0  0  0  0  0  0  0  0  0
  -22.3525   -6.8641   26.4143 F   0  0  0  0  0  0  0  0  0  0  0  0
  1  2  1  0  0  0  0
  1  6  2  0  0  0  0
  2  7  2  0  0  0  0
  3 10  2  0  0  0  0
  3 18  1  0  0  0  0
  4 11  1  0  0  0  0
  4 18  2  0  0  0  0
  5  9  2  0  0  0  0
  5 19  1  0  0  0  0
  6 21  1  0  0  0  0
  7 23  1  0  0  0  0
  8 12  2  0  0  0  0
  8 22  1  0  0  0  0
  9 26  1  0  0  0  0
 10 27  1  0  0  0  0
 11 27  2  0  0  0  0
 12 28  1  0  0  0  0
 13 14  2  0  0  0  0
 13 29  1  0  0  0  0
 14 30  1  0  0  0  0
 15 24  1  0  0  0  0
 15 28  2  0  0  0  0
 16 25  1  0  0  0  0
 16 26  2  0  0  0  0
 17 30  2  0  0  0  0
 17 31  1  0  0  0  0
 18 32  1  0  0  0  0
 19 25  2  0  0  0  0
 19 34  1  0  0  0  0
 20 32  1  0  0  0  0
 20 33  2  0  0  0  0
 20 36  1  0  0  0  0
 21 23  2  0  0  0  0
 21 42  1  0  0  0  0
 22 24  2  0  0  0  0
 22 43  1  0  0  0  0
 23 51  1  0  0  0  0
 24 44  1  0  0  0  0
 25 54  1  0  0  0  0
 26 71  1  0  0  0  0
 27 81  1  0  0  0  0
 28 82  1  0  0  0  0
 29 31  2  0  0  0  0
 29 81  1  0  0  0  0
 30 83  1  0  0  0  0
 31 84  1  0  0  0  0
 32 65  2  0  0  0  0
 33 66  1  0  0  0  0
 33 69  1  0  0  0  0
 34 35  2  0  0  0  0
 35 60  1  0  0  0  0
 36 70  1  0  0  0  0
 36 75  2  0  0  0  0
 37 52  1  0  0  0  0
 37 72  1  0  0  0  0
 37 76  2  0  0  0  0
 38 60  1  0  0  0  0
 38 61  1  0  0  0  0
 38 77  2  0  0  0  0
 39 62  1  0  0  0  0
 39 67  1  0  0  0  0
 39 78  2  0  0  0  0
 40 63  1  0  0  0  0
 40 73  1  0  0  0  0
 40 79  2  0  0  0  0
 41 68  1  0  0  0  0
 41 71  1  0  0  0  0
 41 80  2  0  0  0  0
 42 45  1  0  0  0  0
 43 52  1  0  0  0  0
 44 67  1  0  0  0  0
 45 47  1  0  0  0  0
 46 48  1  0  0  0  0
 46 49  1  0  0  0  0
 47 51  1  0  0  0  0
 48 53  1  0  0  0  0
 49 68  1  0  0  0  0
 50 53  1  0  0  0  0
 50 68  1  0  0  0  0
 51 72  1  0  0  0  0
 52 67  1  0  0  0  0
 53 66  1  0  0  0  0
 55 63  1  0  0  0  0
 56 64  1  0  0  0  0
 57 64  1  0  0  0  0
 58 64  1  0  0  0  0
 59 74  1  0  0  0  0
 61 82  1  0  0  0  0
 62 64  1  0  0  0  0
 62 73  1  0  0  0  0
 63 74  1  0  0  0  0
 65 66  1  0  0  0  0
M  CHG  1  74   1
M  ISO  4  41 100  61 101  71 100  82 101
M  END
> <Batch ID>
0120

> <Smiles>
CNC(C)C(=O)NC(C(=O)N1Cc2cc([101O:1][101CH2:1]C(=O)CC=Cc3ccc([100NH:0][100C:0](=O)N4CCCC(n5nc(-c6ccc(Oc7ccc(F)cc7F)cc6)c(C(N)=O)c5N)C4)cc3C)ccc2CC1C(=O)NC1CCCc2ccccc21)C(C)(C)C

> <Shape>
0.299

> <Color>
0.098

> <Negative vol penalty>
0.000

$$$$

  -OEChem-04052301543D

 88 96  0     1  0  0  0  0  0999 V2000
  -29.6632  -25.0101   17.2518 C   0  0  0  0  0  0  0  0  0  0  0  0
  -28.2831  -25.1335   17.3765 C   0  0  0  0  0  0  0  0  0  0  0  0
  -27.2282  -17.6776   19.4324 C   0  0  0  0  0  0  0  0  0  0  0  0
  -25.7521  -19.3327   20.3910 C   0  0  0  0  0  0  0  0  0  0  0  0
  -30.4955  -25.4208   18.2923 C   0  0  0  0  0  0  0  0  0  0  0  0
  -27.7344  -25.6667   18.5422 C   0  0  0  0  0  0  0  0  0  0  0  0
  -22.7103  -29.1396   18.9924 C   0  0  0  0  0  0  0  0  0  0  0  0
  -28.2952  -18.5702   19.5342 C   0  0  0  0  0  0  0  0  0  0  0  0
  -26.8191  -20.2253   20.4929 C   0  0  0  0  0  0  0  0  0  0  0  0
  -21.3908  -28.8412   19.3296 C   0  0  0  0  0  0  0  0  0  0  0  0
  -29.4703  -21.2501   17.8425 C   0  0  0  0  0  0  0  0  0  0  0  0
  -30.3205  -21.3707   16.7433 C   0  0  0  0  0  0  0  0  0  0  0  0
  -18.6241  -23.4968   20.1222 C   0  0  0  0  0  0  0  0  0  0  0  0
  -17.2638  -24.4819   18.3856 C   0  0  0  0  0  0  0  0  0  0  0  0
  -21.8302  -29.5010   21.6080 C   0  0  0  0  0  0  0  0  0  0  0  0
  -32.1844  -20.6616   18.1072 C   0  0  0  0  0  0  0  0  0  0  0  0
  -25.9566  -18.0588   19.8607 C   0  0  0  0  0  0  0  0  0  0  0  0
  -17.8550  -24.5588   19.6466 C   0  0  0  0  0  0  0  0  0  0  0  0
  -24.4319  -16.2027   20.7197 C   0  0  0  0  0  0  0  0  0  0  0  0
  -29.9571  -25.9683   19.4675 C   0  0  0  0  0  0  0  0  0  0  0  0
  -23.6041  -29.6115   19.9645 C   0  0  0  0  0  0  0  0  0  0  0  0
  -28.5602  -26.0839   19.5999 C   0  0  0  0  0  0  0  0  0  0  0  0
  -23.1598  -29.8071   21.2800 C   0  0  0  0  0  0  0  0  0  0  0  0
  -28.0906  -19.8441   20.0645 C   0  0  0  0  0  0  0  0  0  0  0  0
  -20.9514  -29.0191   20.6382 C   0  0  0  0  0  0  0  0  0  0  0  0
  -29.9771  -20.8353   19.0741 C   0  0  0  0  0  0  0  0  0  0  0  0
  -18.8022  -22.3579   19.3367 C   0  0  0  0  0  0  0  0  0  0  0  0
  -18.2110  -22.2810   18.0757 C   0  0  0  0  0  0  0  0  0  0  0  0
  -31.6775  -21.0765   16.8757 C   0  0  0  0  0  0  0  0  0  0  0  0
  -17.4418  -23.3430   17.6001 C   0  0  0  0  0  0  0  0  0  0  0  0
  -31.3342  -20.5410   19.2064 C   0  0  0  0  0  0  0  0  0  0  0  0
  -24.8539  -17.1374   19.7553 C   0  0  0  0  0  0  0  0  0  0  0  0
  -23.3540  -15.5769   20.1427 C   0  0  0  0  0  0  0  0  0  0  0  0
  -17.6664  -25.7608   20.4756 C   0  0  0  0  0  0  0  0  0  0  0  0
  -18.4541  -26.1251   21.4996 C   0  0  0  0  0  0  0  0  0  0  0  0
  -24.9664  -15.9252   22.0209 C   0  0  0  0  0  0  0  0  0  0  0  0
  -26.3288  -28.5497   21.2104 C   0  0  0  0  0  0  0  0  0  0  0  0
  -19.5167  -17.3265   15.8619 C   0  0  0  0  0  0  0  0  0  0  0  0
  -26.3181  -31.4317   22.6992 C   0  0  0  0  0  0  0  0  0  0  0  0
  -24.5168  -34.0949   23.8435 C   0  0  0  0  0  0  0  0  0  0  0  0
  -30.8945  -26.3544   20.5841 C   0  0  0  0  0  0  0  0  0  0  0  0
  -25.0169  -29.9542   19.5787 C   0  0  0  0  0  0  0  0  0  0  0  0
  -24.0743  -30.3303   22.3563 C   0  0  0  0  0  0  0  0  0  0  0  0
  -30.2514  -27.2557   21.6350 C   0  0  0  0  0  0  0  0  0  0  0  0
  -21.5489  -14.3754   15.8864 C   0  0  0  0  0  0  0  0  0  0  0  0
  -28.8836  -26.7140   22.0380 C   0  0  0  0  0  0  0  0  0  0  0  0
  -22.6054  -14.6758   16.9488 C   0  0  0  0  0  0  0  0  0  0  0  0
  -21.1573  -15.6330   15.1170 C   0  0  0  0  0  0  0  0  0  0  0  0
  -21.7507  -17.0600   17.0492 C   0  0  0  0  0  0  0  0  0  0  0  0
  -27.9283  -26.6804   20.8389 C   0  0  1  0  0  0  0  0  0  0  0  0
  -25.9795  -29.9407   20.7622 C   0  0  1  0  0  0  0  0  0  0  0  0
  -22.1522  -15.8220   17.8704 C   0  0  2  0  0  0  0  0  0  0  0  0
  -21.7402  -20.3553   19.9272 C   0  0  0  0  0  0  0  0  0  0  0  0
  -24.7806  -36.2787   25.0512 C   0  0  0  0  0  0  0  0  0  0  0  0
  -26.6508  -29.9311   25.3349 C   0  0  0  0  0  0  0  0  0  0  0  0
  -25.9610  -32.0197   26.5308 C   0  0  0  0  0  0  0  0  0  0  0  0
  -28.0291  -32.0083   25.1360 C   0  0  0  0  0  0  0  0  0  0  0  0
  -23.4627  -35.6279   21.5418 C   0  0  0  0  0  0  0  0  0  0  0  0
  -18.2171  -27.3570   22.3297 C   0  0  0  0  0  0  0  0  0  0  0  0
  -19.1705  -18.4191   16.8419 C   0  0  0  0  0  0  0  0  0  0  0  0
  -17.7955  -18.9837   16.5163 C   0  0  0  0  0  0  0  0  0  0  0  0
  -20.9171  -21.6100   20.1266 C   0  0  0  0  0  0  0  0  0  0  0  0
  -19.4210  -28.2914   22.3069 C   0  0  0  0  0  0  0  0  0  1  0  0
  -17.4220  -20.1273   17.4476 C   0  0  0  0  0  0  0  0  0  0  0  0
  -25.7696  -31.9596   24.0028 C   0  0  1  0  0  0  0  0  0  0  0  0
  -24.7267  -35.5911   23.6959 C   0  0  2  0  0  0  0  0  0  0  0  0
  -26.5857  -31.4679   25.2315 C   0  0  0  0  0  0  0  0  0  0  0  0
  -24.1053  -17.1110   18.6494 N   0  0  0  0  0  0  0  0  0  0  0  0
  -23.2021  -16.1520   18.9154 N   0  0  0  0  0  0  0  0  0  0  0  0
  -25.4482  -30.6450   21.9309 N   0  0  0  0  0  0  0  0  0  0  0  0
  -20.7545  -16.7053   16.0288 N   0  0  0  0  0  0  0  0  0  0  0  0
  -22.5310  -14.5960   20.5704 N   0  0  0  0  0  0  0  0  0  0  0  0
  -26.0763  -16.6608   22.4581 N   0  0  0  0  0  0  0  0  0  0  0  0
  -27.4204  -28.0066   20.5602 N   0  0  0  0  0  0  0  0  0  0  0  0
  -25.7138  -33.4108   23.8644 N   0  0  0  0  0  0  0  0  0  0  0  0
  -23.6159  -36.1945   22.9066 N   0  3  0  0  0  0  0  0  0  0  0  0
  -24.4844  -15.0394   22.7669 O   0  0  0  0  0  0  0  0  0  0  0  0
  -25.6585  -28.0098   22.0827 O   0  0  0  0  0  0  0  0  0  0  0  0
  -18.7084  -17.0333   14.9770 O   0  0  0  0  0  0  0  0  0  0  0  0
  -27.4735  -31.7131   22.3711 O   0  0  0  0  0  0  0  0  0  0  0  0
  -23.4025  -33.5844   23.9351 O   0  0  0  0  0  0  0  0  0  0  0  0
  -29.1316  -20.7153   20.1642 O   0  0  0  0  0  0  0  0  0  0  0  0
  -19.6642  -28.7279   20.9702 O   0  0  0  0  0  0  0  0  0  1  0  0
  -19.5550  -21.3269   19.8123 O   0  0  0  0  0  0  0  0  0  0  0  0
  -18.3789  -21.1743   17.2992 O   0  0  0  0  0  0  0  0  0  0  0  0
  -32.4936  -21.1909   15.8197 F   0  0  0  0  0  0  0  0  0  0  0  0
  -16.8718  -23.2755   16.3890 F   0  0  0  0  0  0  0  0  0  0  0  0
  -31.8267  -20.1410   20.3868 F   0  0  0  0  0  0  0  0  0  0  0  0
  1  2  1  0  0  0  0
  1  5  2  0  0  0  0
  2  6  2  0  0  0  0
  3  8  2  0  0  0  0
  3 17  1  0  0  0  0
  4  9  1  0  0  0  0
  4 17  2  0  0  0  0
  5 20  1  0  0  0  0
  6 22  1  0  0  0  0
  7 10  2  0  0  0  0
  7 21  1  0  0  0  0
  8 24  1  0  0  0  0
  9 24  2  0  0  0  0
 10 25  1  0  0  0  0
 11 12  2  0  0  0  0
 11 26  1  0  0  0  0
 12 29  1  0  0  0  0
 13 18  2  0  0  0  0
 13 27  1  0  0  0  0
 14 18  1  0  0  0  0
 14 30  2  0  0  0  0
 15 23  1  0  0  0  0
 15 25  2  0  0  0  0
 16 29  2  0  0  0  0
 16 31  1  0  0  0  0
 17 32  1  0  0  0  0
 18 34  1  0  0  0  0
 19 32  1  0  0  0  0
 19 33  2  0  0  0  0
 19 36  1  0  0  0  0
 20 22  2  0  0  0  0
 20 41  1  0  0  0  0
 21 23  2  0  0  0  0
 21 42  1  0  0  0  0
 22 50  1  0  0  0  0
 23 43  1  0  0  0  0
 24 82  1  0  0  0  0
 25 83  1  0  0  0  0
 26 31  2  0  0  0  0
 26 82  1  0  0  0  0
 27 28  2  0  0  0  0
 27 84  1  0  0  0  0
 28 30  1  0  0  0  0
 28 85  1  0  0  0  0
 29 86  1  0  0  0  0
 30 87  1  0  0  0  0
 31 88  1  0  0  0  0
 32 68  2  0  0  0  0
 33 69  1  0  0  0  0
 33 72  1  0  0  0  0
 34 35  2  0  0  0  0
 35 59  1  0  0  0  0
 36 73  1  0  0  0  0
 36 77  2  0  0  0  0
 37 51  1  0  0  0  0
 37 74  1  0  0  0  0
 37 78  2  0  0  0  0
 38 60  1  0  0  0  0
 38 71  1  0  0  0  0
 38 79  2  0  0  0  0
 39 65  1  0  0  0  0
 39 70  1  0  0  0  0
 39 80  2  0  0  0  0
 40 66  1  0  0  0  0
 40 75  1  0  0  0  0
 40 81  2  0  0  0  0
 41 44  1  0  0  0  0
 42 51  1  0  0  0  0
 43 70  1  0  0  0  0
 44 46  1  0  0  0  0
 45 47  1  0  0  0  0
 45 48  1  0  0  0  0
 46 50  1  0  0  0  0
 47 52  1  0  0  0  0
 48 71  1  0  0  0  0
 49 52  1  0  0  0  0
 49 71  1  0  0  0  0
 50 74  1  0  0  0  0
 51 70  1  0  0  0  0
 52 69  1  0  0  0  0
 53 62  1  0  0  0  0
 54 66  1  0  0  0  0
 55 67  1  0  0  0  0
 56 67  1  0  0  0  0
 57 67  1  0  0  0  0
 58 76  1  0  0  0  0
 59 63  1  0  0  0  0
 60 61  1  0  0  0  0
 61 64  1  0  0  0  0
 62 84  1  0  0  0  0
 63 83  1  0  0  0  0
 64 85  1  0  0  0  0
 65 67  1  0  0  0  0
 65 75  1  0  0  0  0
 66 76  1  0  0  0  0
 68 69  1  0  0  0  0
M  CHG  1  76   1
M  ISO  4  38 100  60 100  63 101  83 101
M  END
> <Batch ID>
0120

> <Smiles>
CCOc1cc(C=CC[101CH2:1][101O:1]c2ccc3c(c2)CN(C(=O)C(NC(=O)C(C)NC)C(C)(C)C)C(C(=O)NC2CCCc4ccccc42)C3)cc(F)c1OCC[100CH2:0][100C:0](=O)N1CCCC(n2nc(-c3ccc(Oc4ccc(F)cc4F)cc3)c(C(N)=O)c2N)C1

> <Shape>
0.247

> <Color>
0.089

> <Negative vol penalty>
0.000

$$$$

  -OEChem-04052301543D

 82 90  0     1  0  0  0  0  0999 V2000
  -29.6055  -36.8852   21.1693 C   0  0  0  0  0  0  0  0  0  0  0  0
  -29.5404  -35.7684   20.3423 C   0  0  0  0  0  0  0  0  0  0  0  0
  -24.3689   -9.6778   22.1618 C   0  0  0  0  0  0  0  0  0  0  0  0
  -23.3544   -9.6810   19.9692 C   0  0  0  0  0  0  0  0  0  0  0  0
  -27.0634  -19.7143   22.0915 C   0  0  0  0  0  0  0  0  0  0  0  0
  -27.7859  -18.5456   21.8511 C   0  0  0  0  0  0  0  0  0  0  0  0
  -29.2614  -36.7749   22.5159 C   0  0  0  0  0  0  0  0  0  0  0  0
  -29.1322  -34.5404   20.8617 C   0  0  0  0  0  0  0  0  0  0  0  0
  -25.6106  -28.5855   19.0033 C   0  0  0  0  0  0  0  0  0  0  0  0
  -23.1579   -9.2710   22.7216 C   0  0  0  0  0  0  0  0  0  0  0  0
  -22.1433   -9.2742   20.5290 C   0  0  0  0  0  0  0  0  0  0  0  0
  -25.7604  -27.1994   19.0092 C   0  0  0  0  0  0  0  0  0  0  0  0
  -21.3992   -6.4004   23.0374 C   0  0  0  0  0  0  0  0  0  0  0  0
  -21.4336   -5.3734   23.9806 C   0  0  0  0  0  0  0  0  0  0  0  0
  -28.1893  -20.7902   20.2444 C   0  0  0  0  0  0  0  0  0  0  0  0
  -25.1142  -27.1454   21.3327 C   0  0  0  0  0  0  0  0  0  0  0  0
  -20.4641   -6.8525   25.6266 C   0  0  0  0  0  0  0  0  0  0  0  0
  -24.4672   -9.8829   20.7856 C   0  0  0  0  0  0  0  0  0  0  0  0
  -27.2651  -20.8366   21.2880 C   0  0  0  0  0  0  0  0  0  0  0  0
  -28.7101  -18.4992   20.8074 C   0  0  0  0  0  0  0  0  0  0  0  0
  -26.7525   -9.4787   19.7266 C   0  0  0  0  0  0  0  0  0  0  0  0
  -28.8396  -35.5471   23.0499 C   0  0  0  0  0  0  0  0  0  0  0  0
  -25.2213  -29.2643   20.1670 C   0  0  0  0  0  0  0  0  0  0  0  0
  -28.7835  -34.4133   22.2170 C   0  0  0  0  0  0  0  0  0  0  0  0
  -24.9577  -28.5399   21.3382 C   0  0  0  0  0  0  0  0  0  0  0  0
  -28.9119  -19.6215   20.0040 C   0  0  0  0  0  0  0  0  0  0  0  0
  -22.0450   -9.0691   21.9052 C   0  0  0  0  0  0  0  0  0  0  0  0
  -25.5150  -26.4794   20.1747 C   0  0  0  0  0  0  0  0  0  0  0  0
  -20.8974   -7.6535   23.3888 C   0  0  0  0  0  0  0  0  0  0  0  0
  -20.9660   -5.5994   25.2752 C   0  0  0  0  0  0  0  0  0  0  0  0
  -20.4298   -7.8796   24.6834 C   0  0  0  0  0  0  0  0  0  0  0  0
  -25.7178  -10.3037   20.2068 C   0  0  0  0  0  0  0  0  0  0  0  0
  -27.7124  -10.3552   19.2828 C   0  0  0  0  0  0  0  0  0  0  0  0
  -26.5016  -22.0697   21.5426 C   0  0  0  0  0  0  0  0  0  0  0  0
  -26.8489  -23.2959   21.1219 C   0  0  0  0  0  0  0  0  0  0  0  0
  -29.4506  -17.2657   20.5783 C   0  0  0  0  0  0  0  0  0  0  0  0
  -26.8383   -8.0481   19.6852 C   0  0  0  0  0  0  0  0  0  0  0  0
  -28.8673  -15.9489   20.9046 C   0  0  0  0  0  0  0  0  0  0  0  0
  -26.5483  -31.4775   22.0229 C   0  0  0  0  0  0  0  0  0  0  0  0
  -23.6577  -31.4195   23.4938 C   0  0  0  0  0  0  0  0  0  0  0  0
  -20.7984  -29.6938   24.1961 C   0  0  0  0  0  0  0  0  0  0  0  0
  -28.5232  -35.4662   24.5224 C   0  0  0  0  0  0  0  0  0  0  0  0
  -25.0383  -30.7569   20.1370 C   0  0  0  0  0  0  0  0  0  0  0  0
  -24.5178  -29.2191   22.6086 C   0  0  0  0  0  0  0  0  0  0  0  0
  -27.7417  -34.2134   24.9095 C   0  0  0  0  0  0  0  0  0  0  0  0
  -28.2508  -14.7460   17.4981 C   0  0  0  0  0  0  0  0  0  0  0  0
  -28.3632  -32.9769   24.2679 C   0  0  0  0  0  0  0  0  0  0  0  0
  -27.5778  -13.4048   17.7776 C   0  0  0  0  0  0  0  0  0  0  0  0
  -27.8937  -15.7951   18.5499 C   0  0  0  0  0  0  0  0  0  0  0  0
  -27.4989  -14.0145   20.2275 C   0  0  0  0  0  0  0  0  0  0  0  0
  -28.3218  -33.0695   22.7378 C   0  0  1  0  0  0  0  0  0  0  0  0
  -25.1354  -31.3987   21.5176 C   0  0  1  0  0  0  0  0  0  0  0  0
  -27.8817  -12.9308   19.2076 C   0  0  1  0  0  0  0  0  0  0  0  0
  -29.8952  -19.5977   18.8793 C   0  0  0  0  0  0  0  0  0  0  0  0
  -18.6359  -29.8929   25.4535 C   0  0  0  0  0  0  0  0  0  0  0  0
  -25.1418  -30.9433   26.1168 C   0  0  0  0  0  0  0  0  0  0  0  0
  -22.9720  -30.2153   27.1316 C   0  0  0  0  0  0  0  0  0  0  0  0
  -23.2277  -32.5449   26.2771 C   0  0  0  0  0  0  0  0  0  0  0  0
  -19.1993  -29.3971   21.7235 C   0  0  0  0  0  0  0  0  0  0  0  0
  -26.0470  -24.5228   21.4175 C   0  0  0  0  0  0  0  0  0  1  0  0
  -23.0527  -30.6333   24.6317 C   0  0  1  0  0  0  0  0  0  0  0  0
  -19.3360  -30.0932   24.1184 C   0  0  2  0  0  0  0  0  0  0  0  0
  -23.6087  -31.0713   26.0161 C   0  0  0  0  0  0  0  0  0  0  0  0
  -25.9944  -11.6042   20.0802 N   0  0  0  0  0  0  0  0  0  0  0  0
  -30.6547  -17.2381   20.0776 N   0  0  0  0  0  0  0  0  0  0  0  0
  -27.2139  -11.6032   19.5154 N   0  0  0  0  0  0  0  0  0  0  0  0
  -28.1382  -15.2968   19.9118 N   0  0  0  0  0  0  0  0  0  0  0  0
  -24.3591  -30.6807   22.5305 N   0  0  0  0  0  0  0  0  0  0  0  0
  -28.9259  -10.1723   18.7202 N   0  0  0  0  0  0  0  0  0  0  0  0
  -25.7628   -7.2997   20.1826 N   0  0  0  0  0  0  0  0  0  0  0  0
  -26.9939  -32.7658   22.2488 N   0  0  0  0  0  0  0  0  0  0  0  0
  -21.6063  -30.7695   24.4984 N   0  0  0  0  0  0  0  0  0  0  0  0
  -18.6300  -29.2772   23.0904 N   0  3  0  0  0  0  0  0  0  0  0  0
  -27.8460   -7.4512   19.2361 O   0  0  0  0  0  0  0  0  0  0  0  0
  -29.0573  -15.5083   22.0397 O   0  0  0  0  0  0  0  0  0  0  0  0
  -27.1863  -30.4458   22.1965 O   0  0  0  0  0  0  0  0  0  0  0  0
  -23.5071  -32.6433   23.4570 O   0  0  0  0  0  0  0  0  0  0  0  0
  -21.1850  -28.5419   24.0111 O   0  0  0  0  0  0  0  0  0  0  0  0
  -20.8632   -8.6719   22.4511 O   0  0  0  0  0  0  0  0  0  0  0  0
  -25.6611  -25.1265   20.1834 O   0  0  0  0  0  0  0  0  0  1  0  0
  -20.9976   -4.6126   26.1804 F   0  0  0  0  0  0  0  0  0  0  0  0
  -19.9454   -9.0810   25.0265 F   0  0  0  0  0  0  0  0  0  0  0  0
  1  2  1  0  0  0  0
  1  7  2  0  0  0  0
  2  8  2  0  0  0  0
  3 10  2  0  0  0  0
  3 18  1  0  0  0  0
  4 11  1  0  0  0  0
  4 18  2  0  0  0  0
  5  6  2  0  0  0  0
  5 19  1  0  0  0  0
  6 20  1  0  0  0  0
  7 22  1  0  0  0  0
  8 24  1  0  0  0  0
  9 12  2  0  0  0  0
  9 23  1  0  0  0  0
 10 27  1  0  0  0  0
 11 27  2  0  0  0  0
 12 28  1  0  0  0  0
 13 14  2  0  0  0  0
 13 29  1  0  0  0  0
 14 30  1  0  0  0  0
 15 19  2  0  0  0  0
 15 26  1  0  0  0  0
 16 25  1  0  0  0  0
 16 28  2  0  0  0  0
 17 30  2  0  0  0  0
 17 31  1  0  0  0  0
 18 32  1  0  0  0  0
 19 34  1  0  0  0  0
 20 26  2  0  0  0  0
 20 36  1  0  0  0  0
 21 32  1  0  0  0  0
 21 33  2  0  0  0  0
 21 37  1  0  0  0  0
 22 24  2  0  0  0  0
 22 42  1  0  0  0  0
 23 25  2  0  0  0  0
 23 43  1  0  0  0  0
 24 51  1  0  0  0  0
 25 44  1  0  0  0  0
 26 54  1  0  0  0  0
 27 79  1  0  0  0  0
 28 80  1  0  0  0  0
 29 31  2  0  0  0  0
 29 79  1  0  0  0  0
 30 81  1  0  0  0  0
 31 82  1  0  0  0  0
 32 64  2  0  0  0  0
 33 66  1  0  0  0  0
 33 69  1  0  0  0  0
 34 35  2  0  0  0  0
 35 60  1  0  0  0  0
 36 38  1  0  0  0  0
 36 65  2  0  0  0  0
 37 70  1  0  0  0  0
 37 74  2  0  0  0  0
 38 67  1  0  0  0  0
 38 75  2  0  0  0  0
 39 52  1  0  0  0  0
 39 71  1  0  0  0  0
 39 76  2  0  0  0  0
 40 61  1  0  0  0  0
 40 68  1  0  0  0  0
 40 77  2  0  0  0  0
 41 62  1  0  0  0  0
 41 72  1  0  0  0  0
 41 78  2  0  0  0  0
 42 45  1  0  0  0  0
 43 52  1  0  0  0  0
 44 68  1  0  0  0  0
 45 47  1  0  0  0  0
 46 48  1  0  0  0  0
 46 49  1  0  0  0  0
 47 51  1  0  0  0  0
 48 53  1  0  0  0  0
 49 67  1  0  0  0  0
 50 53  1  0  0  0  0
 50 67  1  0  0  0  0
 51 71  1  0  0  0  0
 52 68  1  0  0  0  0
 53 66  1  0  0  0  0
 55 62  1  0  0  0  0
 56 63  1  0  0  0  0
 57 63  1  0  0  0  0
 58 63  1  0  0  0  0
 59 73  1  0  0  0  0
 60 80  1  0  0  0  0
 61 63  1  0  0  0  0
 61 72  1  0  0  0  0
 62 73  1  0  0  0  0
 64 66  1  0  0  0  0
M  CHG  1  73   1
M  ISO  4  36 100  38 100  60 101  80 101
M  END
> <Batch ID>
0120

> <Smiles>
CNC(C)C(=O)NC(C(=O)N1Cc2cc([101O:1][101CH2:1]C=Cc3ccc([100C:0](=N)[100C:0](=O)N4CCCC(n5nc(-c6ccc(Oc7ccc(F)cc7F)cc6)c(C(N)=O)c5N)C4)c(C)c3)ccc2CC1C(=O)NC1CCCc2ccccc21)C(C)(C)C

> <Shape>
0.269

> <Color>
0.090

> <Negative vol penalty>
0.000

$$$$

  -OEChem-04052301543D

 88 96  0     1  0  0  0  0  0999 V2000
  -25.7657  -38.6147   25.9808 C   0  0  0  0  0  0  0  0  0  0  0  0
  -25.2958  -37.5225   26.7030 C   0  0  0  0  0  0  0  0  0  0  0  0
  -27.5491  -14.7885   21.7631 C   0  0  0  0  0  0  0  0  0  0  0  0
  -26.3184  -15.2043   19.7260 C   0  0  0  0  0  0  0  0  0  0  0  0
  -25.7875  -38.5704   24.5874 C   0  0  0  0  0  0  0  0  0  0  0  0
  -24.8463  -36.3857   26.0322 C   0  0  0  0  0  0  0  0  0  0  0  0
  -25.3989  -30.5689   27.8669 C   0  0  0  0  0  0  0  0  0  0  0  0
  -17.7764  -27.9015   21.8603 C   0  0  0  0  0  0  0  0  0  0  0  0
  -27.1543  -13.4512   21.7287 C   0  0  0  0  0  0  0  0  0  0  0  0
  -25.9237  -13.8669   19.6916 C   0  0  0  0  0  0  0  0  0  0  0  0
  -24.5161  -29.6988   28.5050 C   0  0  0  0  0  0  0  0  0  0  0  0
  -18.7829  -27.1299   21.2796 C   0  0  0  0  0  0  0  0  0  0  0  0
  -23.6247  -11.9080   21.2110 C   0  0  0  0  0  0  0  0  0  0  0  0
  -22.2863  -11.6344   20.9294 C   0  0  0  0  0  0  0  0  0  0  0  0
  -20.2581  -27.6737   23.1141 C   0  0  0  0  0  0  0  0  0  0  0  0
  -23.8911  -28.7741   26.3664 C   0  0  0  0  0  0  0  0  0  0  0  0
  -22.9544  -10.3717   18.9809 C   0  0  0  0  0  0  0  0  0  0  0  0
  -27.1311  -15.6651   20.7618 C   0  0  0  0  0  0  0  0  0  0  0  0
  -19.2515  -28.4453   23.6947 C   0  0  0  0  0  0  0  0  0  0  0  0
  -28.6904  -17.6088   20.2154 C   0  0  0  0  0  0  0  0  0  0  0  0
  -25.3470  -37.4287   23.8994 C   0  0  0  0  0  0  0  0  0  0  0  0
  -25.5266  -30.5557   26.4705 C   0  0  0  0  0  0  0  0  0  0  0  0
  -24.8609  -36.3265   24.6283 C   0  0  0  0  0  0  0  0  0  0  0  0
  -24.7781  -29.6434   25.7132 C   0  0  0  0  0  0  0  0  0  0  0  0
  -18.0107  -28.5593   23.0678 C   0  0  0  0  0  0  0  0  0  0  0  0
  -26.3416  -12.9903   20.6930 C   0  0  0  0  0  0  0  0  0  0  0  0
  -20.0237  -27.0160   21.9065 C   0  0  0  0  0  0  0  0  0  0  0  0
  -23.7599  -28.8032   27.7546 C   0  0  0  0  0  0  0  0  0  0  0  0
  -24.6280  -11.4135   20.3776 C   0  0  0  0  0  0  0  0  0  0  0  0
  -21.9511  -10.8662   19.8144 C   0  0  0  0  0  0  0  0  0  0  0  0
  -24.2928  -10.6453   19.2626 C   0  0  0  0  0  0  0  0  0  0  0  0
  -27.5381  -17.0469   20.7971 C   0  0  0  0  0  0  0  0  0  0  0  0
  -28.6180  -18.9437   20.5305 C   0  0  0  0  0  0  0  0  0  0  0  0
  -19.8947  -28.2934   26.1510 C   0  0  0  0  0  0  0  0  0  0  0  0
  -20.1385  -28.8669   27.3375 C   0  0  0  0  0  0  0  0  0  0  0  0
  -19.5278  -29.1336   24.9791 C   0  0  0  0  0  0  0  0  0  0  0  0
  -29.7329  -16.9803   19.4579 C   0  0  0  0  0  0  0  0  0  0  0  0
  -25.0074  -32.6655   24.1504 C   0  0  0  0  0  0  0  0  0  0  0  0
  -23.9524  -22.4032   21.7715 C   0  0  0  0  0  0  0  0  0  0  0  0
  -26.3258  -30.3587   22.2895 C   0  0  0  0  0  0  0  0  0  0  0  0
  -27.0342  -27.0504   21.8422 C   0  0  0  0  0  0  0  0  0  0  0  0
  -25.3454  -37.4456   22.3913 C   0  0  0  0  0  0  0  0  0  0  0  0
  -26.5030  -31.4823   25.7994 C   0  0  0  0  0  0  0  0  0  0  0  0
  -24.8933  -29.5753   24.2130 C   0  0  0  0  0  0  0  0  0  0  0  0
  -25.2017  -36.0600   21.7669 C   0  0  0  0  0  0  0  0  0  0  0  0
  -26.9042  -21.9296   23.8427 C   0  0  0  0  0  0  0  0  0  0  0  0
  -24.0829  -35.2800   22.4499 C   0  0  0  0  0  0  0  0  0  0  0  0
  -27.4901  -20.6482   23.2514 C   0  0  0  0  0  0  0  0  0  0  0  0
  -25.3780  -21.9124   23.8181 C   0  0  0  0  0  0  0  0  0  0  0  0
  -25.3846  -20.3880   21.8687 C   0  0  0  0  0  0  0  0  0  0  0  0
  -24.3881  -35.0659   23.9374 C   0  0  1  0  0  0  0  0  0  0  0  0
  -26.1739  -31.7359   24.3315 C   0  0  1  0  0  0  0  0  0  0  0  0
  -26.9222  -20.3785   21.8470 C   0  0  2  0  0  0  0  0  0  0  0  0
  -16.9152  -29.3790   23.6675 C   0  0  0  0  0  0  0  0  0  0  0  0
  -28.0117  -25.0027   20.7704 C   0  0  0  0  0  0  0  0  0  0  0  0
  -22.0071  -28.0920   30.5947 C   0  0  0  0  0  0  0  0  0  0  0  0
  -23.8468  -30.5445   20.5203 C   0  0  0  0  0  0  0  0  0  0  0  0
  -24.4934  -28.3498   19.5036 C   0  0  0  0  0  0  0  0  0  0  0  0
  -26.0036  -30.3219   19.2740 C   0  0  0  0  0  0  0  0  0  0  0  0
  -29.5671  -27.3300   23.3473 C   0  0  0  0  0  0  0  0  0  0  0  0
  -20.5024  -28.0899   28.5738 C   0  0  0  0  0  0  0  0  0  0  0  0
  -23.4396  -23.6353   22.4734 C   0  0  0  0  0  0  0  0  0  0  0  0
  -22.4473  -24.3611   21.5767 C   0  0  0  0  0  0  0  0  0  0  0  0
  -21.9393  -25.6422   22.2211 C   0  0  0  0  0  0  0  0  0  0  0  0
  -25.7951  -29.1749   21.5175 C   0  0  1  0  0  0  0  0  0  0  0  0
  -28.3108  -26.3406   21.4286 C   0  0  2  0  0  0  0  0  0  0  0  0
  -21.8499  -28.5397   29.1469 C   0  0  2  0  0  0  0  0  0  1  0  0
  -25.0309  -29.6002   20.2319 C   0  0  0  0  0  0  0  0  0  0  0  0
  -26.7887  -17.9508   21.4337 N   0  0  0  0  0  0  0  0  0  0  0  0
  -27.4716  -19.0942   21.2539 N   0  0  0  0  0  0  0  0  0  0  0  0
  -25.8570  -30.5061   23.6027 N   0  0  0  0  0  0  0  0  0  0  0  0
  -24.8770  -21.6252   22.4687 N   0  0  0  0  0  0  0  0  0  0  0  0
  -29.4238  -19.9916   20.2567 N   0  0  0  0  0  0  0  0  0  0  0  0
  -29.6516  -15.6004   19.2263 N   0  0  0  0  0  0  0  0  0  0  0  0
  -25.3547  -34.0023   24.1070 N   0  0  0  0  0  0  0  0  0  0  0  0
  -26.9381  -28.3021   21.2720 N   0  0  0  0  0  0  0  0  0  0  0  0
  -29.1762  -26.0967   22.6170 N   0  3  0  0  0  0  0  0  0  0  0  0
  -19.4247  -30.3533   25.0501 O   0  0  0  0  0  0  0  0  0  0  0  0
  -30.7161  -17.6205   19.0139 O   0  0  0  0  0  0  0  0  0  0  0  0
  -23.8762  -32.2040   24.0556 O   0  0  0  0  0  0  0  0  0  0  0  0
  -23.5444  -22.1431   20.6366 O   0  0  0  0  0  0  0  0  0  0  0  0
  -27.1321  -31.1204   21.7499 O   0  0  0  0  0  0  0  0  0  0  0  0
  -26.2035  -26.5436   22.5929 O   0  0  0  0  0  0  0  0  0  0  0  0
  -25.9564  -11.6853   20.6590 O   0  0  0  0  0  0  0  0  0  0  0  0
  -21.0059  -26.2638   21.3390 O   0  0  0  0  0  0  0  0  0  0  0  0
  -22.8969  -27.9532   28.3749 O   0  0  0  0  0  0  0  0  0  1  0  0
  -20.6658  -10.6023   19.5449 F   0  0  0  0  0  0  0  0  0  0  0  0
  -25.2524  -10.1665   18.4589 F   0  0  0  0  0  0  0  0  0  0  0  0
  1  2  1  0  0  0  0
  1  5  2  0  0  0  0
  2  6  2  0  0  0  0
  3  9  2  0  0  0  0
  3 18  1  0  0  0  0
  4 10  1  0  0  0  0
  4 18  2  0  0  0  0
  5 21  1  0  0  0  0
  6 23  1  0  0  0  0
  7 11  2  0  0  0  0
  7 22  1  0  0  0  0
  8 12  2  0  0  0  0
  8 25  1  0  0  0  0
  9 26  1  0  0  0  0
 10 26  2  0  0  0  0
 11 28  1  0  0  0  0
 12 27  1  0  0  0  0
 13 14  2  0  0  0  0
 13 29  1  0  0  0  0
 14 30  1  0  0  0  0
 15 19  1  0  0  0  0
 15 27  2  0  0  0  0
 16 24  1  0  0  0  0
 16 28  2  0  0  0  0
 17 30  2  0  0  0  0
 17 31  1  0  0  0  0
 18 32  1  0  0  0  0
 19 25  2  0  0  0  0
 19 36  1  0  0  0  0
 20 32  1  0  0  0  0
 20 33  2  0  0  0  0
 20 37  1  0  0  0  0
 21 23  2  0  0  0  0
 21 42  1  0  0  0  0
 22 24  2  0  0  0  0
 22 43  1  0  0  0  0
 23 51  1  0  0  0  0
 24 44  1  0  0  0  0
 25 54  1  0  0  0  0
 26 84  1  0  0  0  0
 27 85  1  0  0  0  0
 28 86  1  0  0  0  0
 29 31  2  0  0  0  0
 29 84  1  0  0  0  0
 30 87  1  0  0  0  0
 31 88  1  0  0  0  0
 32 69  2  0  0  0  0
 33 70  1  0  0  0  0
 33 73  1  0  0  0  0
 34 35  2  0  0  0  0
 34 36  1  0  0  0  0
 35 61  1  0  0  0  0
 36 78  2  0  0  0  0
 37 74  1  0  0  0  0
 37 79  2  0  0  0  0
 38 52  1  0  0  0  0
 38 75  1  0  0  0  0
 38 80  2  0  0  0  0
 39 62  1  0  0  0  0
 39 72  1  0  0  0  0
 39 81  2  0  0  0  0
 40 65  1  0  0  0  0
 40 71  1  0  0  0  0
 40 82  2  0  0  0  0
 41 66  1  0  0  0  0
 41 76  1  0  0  0  0
 41 83  2  0  0  0  0
 42 45  1  0  0  0  0
 43 52  1  0  0  0  0
 44 71  1  0  0  0  0
 45 47  1  0  0  0  0
 46 48  1  0  0  0  0
 46 49  1  0  0  0  0
 47 51  1  0  0  0  0
 48 53  1  0  0  0  0
 49 72  1  0  0  0  0
 50 53  1  0  0  0  0
 50 72  1  0  0  0  0
 51 75  1  0  0  0  0
 52 71  1  0  0  0  0
 53 70  1  0  0  0  0
 55 66  1  0  0  0  0
 56 67  1  0  0  0  0
 57 68  1  0  0  0  0
 58 68  1  0  0  0  0
 59 68  1  0  0  0  0
 60 77  1  0  0  0  0
 61 67  1  0  0  0  0
 62 63  1  0  0  0  0
 63 64  1  0  0  0  0
 64 85  1  0  0  0  0
 65 68  1  0  0  0  0
 65 76  1  0  0  0  0
 66 77  1  0  0  0  0
 67 86  1  0  0  0  0
 69 70  1  0  0  0  0
M  CHG  1  77   1
M  ISO  4  39 100  62 100  67 101  86 101
M  END
> <Batch ID>
0120

> <Smiles>
CNC(C)C(=O)NC(C(=O)N1Cc2cc([101O:1][101CH:1](C)CC=CC(=O)c3cc(OCC[100CH2:0][100C:0](=O)N4CCCC(n5nc(-c6ccc(Oc7ccc(F)cc7F)cc6)c(C(N)=O)c5N)C4)ccc3C)ccc2CC1C(=O)NC1CCCc2ccccc21)C(C)(C)C

> <Shape>
0.285

> <Color>
0.094

> <Negative vol penalty>
0.000

$$$$

  -OEChem-04052301543D

 82 91  0     1  0  0  0  0  0999 V2000
  -26.8370  -36.8766   16.4843 C   0  0  0  0  0  0  0  0  0  0  0  0
  -26.9606  -35.5006   16.3208 C   0  0  0  0  0  0  0  0  0  0  0  0
  -23.2739   -9.8173   19.8524 C   0  0  0  0  0  0  0  0  0  0  0  0
  -24.1872   -9.5392   22.0718 C   0  0  0  0  0  0  0  0  0  0  0  0
  -27.1389  -20.8749   19.3929 C   0  0  0  0  0  0  0  0  0  0  0  0
  -26.9398  -37.4384   17.7562 C   0  0  0  0  0  0  0  0  0  0  0  0
  -27.1881  -34.6856   17.4292 C   0  0  0  0  0  0  0  0  0  0  0  0
  -27.3047  -19.5355   19.7520 C   0  0  0  0  0  0  0  0  0  0  0  0
  -25.0879  -29.0010   18.3121 C   0  0  0  0  0  0  0  0  0  0  0  0
  -22.6597   -8.5687   19.9487 C   0  0  0  0  0  0  0  0  0  0  0  0
  -23.5729   -8.2906   22.1681 C   0  0  0  0  0  0  0  0  0  0  0  0
  -25.6715  -27.7473   18.1348 C   0  0  0  0  0  0  0  0  0  0  0  0
  -20.4826   -7.0791   22.8028 C   0  0  0  0  0  0  0  0  0  0  0  0
  -19.8158   -6.7764   23.9899 C   0  0  0  0  0  0  0  0  0  0  0  0
  -27.6336  -20.3614   17.0654 C   0  0  0  0  0  0  0  0  0  0  0  0
  -26.2609  -27.6976   20.4734 C   0  0  0  0  0  0  0  0  0  0  0  0
  -21.2801   -4.8851   24.3303 C   0  0  0  0  0  0  0  0  0  0  0  0
  -24.0377  -10.3026   20.9140 C   0  0  0  0  0  0  0  0  0  0  0  0
  -27.3013  -21.2847   18.0594 C   0  0  0  0  0  0  0  0  0  0  0  0
  -24.1340  -12.8365   21.1928 C   0  0  0  0  0  0  0  0  0  0  0  0
  -27.1591  -36.6289   18.8819 C   0  0  0  0  0  0  0  0  0  0  0  0
  -25.0960  -29.6182   19.5712 C   0  0  0  0  0  0  0  0  0  0  0  0
  -27.6359  -18.6296   18.7597 C   0  0  0  0  0  0  0  0  0  0  0  0
  -27.2952  -35.2373   18.7172 C   0  0  0  0  0  0  0  0  0  0  0  0
  -27.7980  -19.0374   17.4320 C   0  0  0  0  0  0  0  0  0  0  0  0
  -25.6744  -28.9580   20.6646 C   0  0  0  0  0  0  0  0  0  0  0  0
  -22.8091   -7.8053   21.1065 C   0  0  0  0  0  0  0  0  0  0  0  0
  -26.2607  -27.0967   19.2149 C   0  0  0  0  0  0  0  0  0  0  0  0
  -21.5482   -6.2847   22.3793 C   0  0  0  0  0  0  0  0  0  0  0  0
  -20.2145   -5.6795   24.7537 C   0  0  0  0  0  0  0  0  0  0  0  0
  -21.9470   -5.1878   23.1431 C   0  0  0  0  0  0  0  0  0  0  0  0
  -24.6729  -11.5921   20.8149 C   0  0  0  0  0  0  0  0  0  0  0  0
  -25.1238  -13.7425   20.9000 C   0  0  0  0  0  0  0  0  0  0  0  0
  -27.1217  -22.6859   17.7102 C   0  0  0  0  0  0  0  0  0  0  0  0
  -26.4504  -23.6040   18.4415 C   0  0  0  0  0  0  0  0  0  0  0  0
  -22.8532  -13.1457   21.7582 C   0  0  0  0  0  0  0  0  0  0  0  0
  -26.3254  -32.3044   20.7446 C   0  0  0  0  0  0  0  0  0  0  0  0
  -24.6801  -31.4370   23.4022 C   0  0  0  0  0  0  0  0  0  0  0  0
  -23.2485  -28.9413   25.2376 C   0  0  0  0  0  0  0  0  0  0  0  0
  -28.9054  -15.5719   17.1542 C   0  0  0  0  0  0  0  0  0  0  0  0
  -27.3102  -37.2867   20.2307 C   0  0  0  0  0  0  0  0  0  0  0  0
  -24.4386  -30.9590   19.7517 C   0  0  0  0  0  0  0  0  0  0  0  0
  -27.8442  -17.1548   18.8794 C   0  0  0  0  0  0  0  0  0  0  0  0
  -28.1562  -17.8723   16.5726 C   0  0  0  0  0  0  0  0  0  0  0  0
  -25.6916  -29.5688   22.0413 C   0  0  0  0  0  0  0  0  0  0  0  0
  -27.1783  -36.3149   21.4005 C   0  0  0  0  0  0  0  0  0  0  0  0
  -29.9638  -13.0496   19.5973 C   0  0  0  0  0  0  0  0  0  0  0  0
  -28.0072  -35.0596   21.1477 C   0  0  0  0  0  0  0  0  0  0  0  0
  -28.6301  -12.5198   20.1288 C   0  0  0  0  0  0  0  0  0  0  0  0
  -29.8573  -13.5216   18.1486 C   0  0  0  0  0  0  0  0  0  0  0  0
  -27.4467  -13.9457   18.4214 C   0  0  0  0  0  0  0  0  0  0  0  0
  -27.5177  -34.3175   19.8982 C   0  0  1  0  0  0  0  0  0  0  0  0
  -24.9588  -31.7208   20.9668 C   0  0  1  0  0  0  0  0  0  0  0  0
  -27.4943  -13.5356   19.8992 C   0  0  1  0  0  0  0  0  0  0  0  0
  -22.0116  -28.5347   27.3829 C   0  0  0  0  0  0  0  0  0  0  0  0
  -27.2904  -31.7162   24.9573 C   0  0  0  0  0  0  0  0  0  0  0  0
  -26.2395  -30.4132   26.8190 C   0  0  0  0  0  0  0  0  0  0  0  0
  -25.2735  -32.6092   26.1357 C   0  0  0  0  0  0  0  0  0  0  0  0
  -20.8711  -27.9115   23.8071 C   0  0  0  0  0  0  0  0  0  0  0  0
  -26.2805  -25.0325   18.0340 C   0  0  0  0  0  0  0  0  0  1  0  0
  -24.9845  -30.6037   24.6236 C   0  0  1  0  0  0  0  0  0  0  0  0
  -21.8854  -28.8303   25.8965 C   0  0  2  0  0  0  0  0  0  0  0  0
  -25.9485  -31.3246   25.6077 C   0  0  0  0  0  0  0  0  0  0  0  0
  -25.9091  -11.6945   20.3196 N   0  0  0  0  0  0  0  0  0  0  0  0
  -26.1551  -13.0142   20.3842 N   0  0  0  0  0  0  0  0  0  0  0  0
  -25.0416  -30.8839   22.1656 N   0  0  0  0  0  0  0  0  0  0  0  0
  -28.2347  -16.7433   17.5145 N   0  0  0  0  0  0  0  0  0  0  0  0
  -28.7487  -14.4614   17.9894 N   0  0  0  0  0  0  0  0  0  0  0  0
  -25.2039  -15.0832   21.0358 N   0  0  0  0  0  0  0  0  0  0  0  0
  -21.9561  -12.0952   21.9949 N   0  0  0  0  0  0  0  0  0  0  0  0
  -26.3133  -33.5713   20.1930 N   0  0  0  0  0  0  0  0  0  0  0  0
  -23.6954  -30.2453   25.2050 N   0  0  0  0  0  0  0  0  0  0  0  0
  -21.0926  -27.7374   25.2657 N   0  3  0  0  0  0  0  0  0  0  0  0
  -22.5080  -14.3207   22.0297 O   0  0  0  0  0  0  0  0  0  0  0  0
  -27.3174  -31.6540   21.0523 O   0  0  0  0  0  0  0  0  0  0  0  0
  -24.1349  -32.5349   23.5398 O   0  0  0  0  0  0  0  0  0  0  0  0
  -23.8577  -27.9680   24.7994 O   0  0  0  0  0  0  0  0  0  0  0  0
  -29.6515  -15.5347   16.1674 O   0  0  0  0  0  0  0  0  0  0  0  0
  -22.2097   -6.5870   21.2009 O   0  0  0  0  0  0  0  0  0  0  0  0
  -26.8359  -25.8642   19.0432 O   0  0  0  0  0  0  0  0  0  1  0  0
  -19.5751   -5.3898   25.8945 F   0  0  0  0  0  0  0  0  0  0  0  0
  -22.9707   -4.4217   22.7420 F   0  0  0  0  0  0  0  0  0  0  0  0
  1  2  1  0  0  0  0
  1  6  2  0  0  0  0
  2  7  2  0  0  0  0
  3 10  2  0  0  0  0
  3 18  1  0  0  0  0
  4 11  1  0  0  0  0
  4 18  2  0  0  0  0
  5  8  2  0  0  0  0
  5 19  1  0  0  0  0
  6 21  1  0  0  0  0
  7 24  1  0  0  0  0
  8 23  1  0  0  0  0
  9 12  2  0  0  0  0
  9 22  1  0  0  0  0
 10 27  1  0  0  0  0
 11 27  2  0  0  0  0
 12 28  1  0  0  0  0
 13 14  2  0  0  0  0
 13 29  1  0  0  0  0
 14 30  1  0  0  0  0
 15 19  2  0  0  0  0
 15 25  1  0  0  0  0
 16 26  1  0  0  0  0
 16 28  2  0  0  0  0
 17 30  2  0  0  0  0
 17 31  1  0  0  0  0
 18 32  1  0  0  0  0
 19 34  1  0  0  0  0
 20 32  1  0  0  0  0
 20 33  2  0  0  0  0
 20 36  1  0  0  0  0
 21 24  2  0  0  0  0
 21 41  1  0  0  0  0
 22 26  2  0  0  0  0
 22 42  1  0  0  0  0
 23 25  2  0  0  0  0
 23 43  1  0  0  0  0
 24 52  1  0  0  0  0
 25 44  1  0  0  0  0
 26 45  1  0  0  0  0
 27 79  1  0  0  0  0
 28 80  1  0  0  0  0
 29 31  2  0  0  0  0
 29 79  1  0  0  0  0
 30 81  1  0  0  0  0
 31 82  1  0  0  0  0
 32 64  2  0  0  0  0
 33 65  1  0  0  0  0
 33 69  1  0  0  0  0
 34 35  2  0  0  0  0
 35 60  1  0  0  0  0
 36 70  1  0  0  0  0
 36 74  2  0  0  0  0
 37 53  1  0  0  0  0
 37 71  1  0  0  0  0
 37 75  2  0  0  0  0
 38 61  1  0  0  0  0
 38 66  1  0  0  0  0
 38 76  2  0  0  0  0
 39 62  1  0  0  0  0
 39 72  1  0  0  0  0
 39 77  2  0  0  0  0
 40 67  1  0  0  0  0
 40 68  1  0  0  0  0
 40 78  2  0  0  0  0
 41 46  1  0  0  0  0
 42 53  1  0  0  0  0
 43 67  1  0  0  0  0
 44 67  1  0  0  0  0
 45 66  1  0  0  0  0
 46 48  1  0  0  0  0
 47 49  1  0  0  0  0
 47 50  1  0  0  0  0
 48 52  1  0  0  0  0
 49 54  1  0  0  0  0
 50 68  1  0  0  0  0
 51 54  1  0  0  0  0
 51 68  1  0  0  0  0
 52 71  1  0  0  0  0
 53 66  1  0  0  0  0
 54 65  1  0  0  0  0
 55 62  1  0  0  0  0
 56 63  1  0  0  0  0
 57 63  1  0  0  0  0
 58 63  1  0  0  0  0
 59 73  1  0  0  0  0
 60 80  1  0  0  0  0
 61 63  1  0  0  0  0
 61 72  1  0  0  0  0
 62 73  1  0  0  0  0
 64 65  1  0  0  0  0
M  CHG  1  73   1
M  ISO  4  40 100  60 101  67 100  80 101
M  END
> <Batch ID>
0120

> <Smiles>
CNC(C)C(=O)NC(C(=O)N1Cc2cc([101O:1][101CH2:1]C=Cc3ccc4c(c3)C[100N:0]([100C:0](=O)N3CCCC(n5nc(-c6ccc(Oc7ccc(F)cc7F)cc6)c(C(N)=O)c5N)C3)C4)ccc2CC1C(=O)NC1CCCc2ccccc21)C(C)(C)C

> <Shape>
0.286

> <Color>
0.192

> <Negative vol penalty>
0.000

$$$$

  -OEChem-04052301543D

 84 92  0     1  0  0  0  0  0999 V2000
  -29.5773  -30.9994   26.5959 C   0  0  0  0  0  0  0  0  0  0  0  0
  -29.3095  -30.0298   25.6349 C   0  0  0  0  0  0  0  0  0  0  0  0
  -23.1541   -9.8467   21.5003 C   0  0  0  0  0  0  0  0  0  0  0  0
  -23.5979  -11.1892   23.4593 C   0  0  0  0  0  0  0  0  0  0  0  0
  -28.5259  -31.6331   27.2569 C   0  0  0  0  0  0  0  0  0  0  0  0
  -27.9901  -29.6924   25.3352 C   0  0  0  0  0  0  0  0  0  0  0  0
  -27.1596  -29.3369   20.3523 C   0  0  0  0  0  0  0  0  0  0  0  0
  -32.0550  -18.9390   21.0895 C   0  0  0  0  0  0  0  0  0  0  0  0
  -31.5881  -17.6619   20.7789 C   0  0  0  0  0  0  0  0  0  0  0  0
  -22.4045   -8.9625   22.2761 C   0  0  0  0  0  0  0  0  0  0  0  0
  -22.8482  -10.3050   24.2351 C   0  0  0  0  0  0  0  0  0  0  0  0
  -27.5937  -28.1749   19.7158 C   0  0  0  0  0  0  0  0  0  0  0  0
  -22.9927   -6.4264   24.4316 C   0  0  0  0  0  0  0  0  0  0  0  0
  -23.2042   -5.0606   24.2432 C   0  0  0  0  0  0  0  0  0  0  0  0
  -25.3436  -27.3075   19.7782 C   0  0  0  0  0  0  0  0  0  0  0  0
  -20.8861   -4.7879   23.6191 C   0  0  0  0  0  0  0  0  0  0  0  0
  -23.7509  -10.9601   22.0920 C   0  0  0  0  0  0  0  0  0  0  0  0
  -29.8102  -19.8090   20.8865 C   0  0  0  0  0  0  0  0  0  0  0  0
  -24.0597  -13.0162   20.6140 C   0  0  0  0  0  0  0  0  0  0  0  0
  -27.1928  -31.3103   26.9583 C   0  0  0  0  0  0  0  0  0  0  0  0
  -25.8141  -29.4886   20.7170 C   0  0  0  0  0  0  0  0  0  0  0  0
  -26.9199  -30.3215   25.9938 C   0  0  0  0  0  0  0  0  0  0  0  0
  -24.8945  -28.4734   20.4170 C   0  0  0  0  0  0  0  0  0  0  0  0
  -31.1660  -20.0126   21.1434 C   0  0  0  0  0  0  0  0  0  0  0  0
  -29.3433  -18.5318   20.5759 C   0  0  0  0  0  0  0  0  0  0  0  0
  -30.2323  -17.4582   20.5221 C   0  0  0  0  0  0  0  0  0  0  0  0
  -22.2515   -9.1917   23.6434 C   0  0  0  0  0  0  0  0  0  0  0  0
  -26.6862  -27.1588   19.4312 C   0  0  0  0  0  0  0  0  0  0  0  0
  -21.7280   -6.9729   24.2139 C   0  0  0  0  0  0  0  0  0  0  0  0
  -22.1509   -4.2413   23.8368 C   0  0  0  0  0  0  0  0  0  0  0  0
  -20.6747   -6.1537   23.8076 C   0  0  0  0  0  0  0  0  0  0  0  0
  -24.5259  -11.8735   21.2912 C   0  0  0  0  0  0  0  0  0  0  0  0
  -25.1770  -13.5349   20.0064 C   0  0  0  0  0  0  0  0  0  0  0  0
  -28.8745  -20.9454   20.9444 C   0  0  0  0  0  0  0  0  0  0  0  0
  -28.5753  -21.7498   19.9120 C   0  0  0  0  0  0  0  0  0  0  0  0
  -27.6534  -22.8591   20.0259 C   0  0  0  0  0  0  0  0  0  0  0  0
  -27.3481  -23.6682   19.0006 C   0  0  0  0  0  0  0  0  0  0  0  0
  -22.7352  -13.5602   20.5406 C   0  0  0  0  0  0  0  0  0  0  0  0
  -24.2637  -29.8629   23.4665 C   0  0  0  0  0  0  0  0  0  0  0  0
  -21.7024  -30.2696   21.5181 C   0  0  0  0  0  0  0  0  0  0  0  0
  -20.2512  -29.6967   18.4828 C   0  0  0  0  0  0  0  0  0  0  0  0
  -30.5499  -14.9918   20.1195 C   0  0  0  0  0  0  0  0  0  0  0  0
  -26.0906  -31.9884   27.7329 C   0  0  0  0  0  0  0  0  0  0  0  0
  -25.3567  -30.7594   21.3790 C   0  0  0  0  0  0  0  0  0  0  0  0
  -23.4353  -28.5957   20.7694 C   0  0  0  0  0  0  0  0  0  0  0  0
  -24.7142  -31.8411   27.0894 C   0  0  0  0  0  0  0  0  0  0  0  0
  -29.8088  -11.5822   19.4107 C   0  0  0  0  0  0  0  0  0  0  0  0
  -24.4736  -30.3947   26.6689 C   0  0  0  0  0  0  0  0  0  0  0  0
  -28.3300  -11.4480   19.7810 C   0  0  0  0  0  0  0  0  0  0  0  0
  -30.5494  -12.5188   20.3635 C   0  0  0  0  0  0  0  0  0  0  0  0
  -28.4609  -13.7102   20.9000 C   0  0  0  0  0  0  0  0  0  0  0  0
  -25.5016  -29.9459   25.6233 C   0  0  1  0  0  0  0  0  0  0  0  0
  -24.0616  -30.5898   22.1672 C   0  0  1  0  0  0  0  0  0  0  0  0
  -27.6589  -12.8275   19.9298 C   0  0  2  0  0  0  0  0  0  0  0  0
  -31.7066  -21.3657   21.4799 C   0  0  0  0  0  0  0  0  0  0  0  0
  -27.8887  -18.3013   20.2982 C   0  0  0  0  0  0  0  0  0  0  0  0
  -18.1374  -30.1206   17.1986 C   0  0  0  0  0  0  0  0  0  0  0  0
  -20.2930  -28.0910   23.1235 C   0  0  0  0  0  0  0  0  0  0  0  0
  -18.6287  -27.8943   21.2635 C   0  0  0  0  0  0  0  0  0  0  0  0
  -18.8480  -30.0399   22.5169 C   0  0  0  0  0  0  0  0  0  0  0  0
  -21.6865  -31.2371   16.4029 C   0  0  0  0  0  0  0  0  0  0  0  0
  -26.4017  -24.8196   19.1099 C   0  0  0  0  0  0  0  0  0  1  0  0
  -20.6704  -29.3549   20.9040 C   0  0  1  0  0  0  0  0  0  0  0  0
  -19.5365  -30.6244   17.5169 C   0  0  2  0  0  0  0  0  0  0  0  0
  -19.6378  -28.8416   21.9469 C   0  0  0  0  0  0  0  0  0  0  0  0
  -25.8371  -11.6772   21.1294 N   0  0  0  0  0  0  0  0  0  0  0  0
  -26.2044  -12.7035   20.3434 N   0  0  0  0  0  0  0  0  0  0  0  0
  -23.0382  -29.8546   21.4213 N   0  0  0  0  0  0  0  0  0  0  0  0
  -29.8587  -13.8073   20.4510 N   0  0  0  0  0  0  0  0  0  0  0  0
  -25.3711  -14.6164   19.2222 N   0  0  0  0  0  0  0  0  0  0  0  0
  -21.7038  -12.9022   21.2243 N   0  0  0  0  0  0  0  0  0  0  0  0
  -29.7814  -16.1520   20.2087 N   0  0  0  0  0  0  0  0  0  0  0  0
  -25.1613  -30.4754   24.3202 N   0  0  0  0  0  0  0  0  0  0  0  0
  -20.0804  -30.0930   19.7924 N   0  0  0  0  0  0  0  0  0  0  0  0
  -20.2992  -30.7310   16.2410 N   0  3  0  0  0  0  0  0  0  0  0  0
  -22.4710  -14.5899   19.8747 O   0  0  0  0  0  0  0  0  0  0  0  0
  -23.6497  -28.8240   23.6795 O   0  0  0  0  0  0  0  0  0  0  0  0
  -21.3375  -31.3173   22.0572 O   0  0  0  0  0  0  0  0  0  0  0  0
  -20.8934  -28.7163   18.1129 O   0  0  0  0  0  0  0  0  0  0  0  0
  -31.7284  -14.9751   19.7551 O   0  0  0  0  0  0  0  0  0  0  0  0
  -21.5199   -8.3292   24.4007 O   0  0  0  0  0  0  0  0  0  0  0  0
  -27.1073  -26.0233   18.8106 O   0  0  0  0  0  0  0  0  0  1  0  0
  -22.3544   -2.9301   23.6544 F   0  0  0  0  0  0  0  0  0  0  0  0
  -19.4577   -6.6732   23.5957 F   0  0  0  0  0  0  0  0  0  0  0  0
  1  2  1  0  0  0  0
  1  5  2  0  0  0  0
  2  6  2  0  0  0  0
  3 10  2  0  0  0  0
  3 17  1  0  0  0  0
  4 11  1  0  0  0  0
  4 17  2  0  0  0  0
  5 20  1  0  0  0  0
  6 22  1  0  0  0  0
  7 12  2  0  0  0  0
  7 21  1  0  0  0  0
  8  9  1  0  0  0  0
  8 24  2  0  0  0  0
  9 26  2  0  0  0  0
 10 27  1  0  0  0  0
 11 27  2  0  0  0  0
 12 28  1  0  0  0  0
 13 14  2  0  0  0  0
 13 29  1  0  0  0  0
 14 30  1  0  0  0  0
 15 23  1  0  0  0  0
 15 28  2  0  0  0  0
 16 30  2  0  0  0  0
 16 31  1  0  0  0  0
 17 32  1  0  0  0  0
 18 24  1  0  0  0  0
 18 25  2  0  0  0  0
 18 34  1  0  0  0  0
 19 32  1  0  0  0  0
 19 33  2  0  0  0  0
 19 38  1  0  0  0  0
 20 22  2  0  0  0  0
 20 43  1  0  0  0  0
 21 23  2  0  0  0  0
 21 44  1  0  0  0  0
 22 52  1  0  0  0  0
 23 45  1  0  0  0  0
 24 55  1  0  0  0  0
 25 26  1  0  0  0  0
 25 56  1  0  0  0  0
 26 72  1  0  0  0  0
 27 81  1  0  0  0  0
 28 82  1  0  0  0  0
 29 31  2  0  0  0  0
 29 81  1  0  0  0  0
 30 83  1  0  0  0  0
 31 84  1  0  0  0  0
 32 66  2  0  0  0  0
 33 67  1  0  0  0  0
 33 70  1  0  0  0  0
 34 35  2  0  0  0  0
 35 36  1  0  0  0  0
 36 37  2  0  0  0  0
 37 62  1  0  0  0  0
 38 71  1  0  0  0  0
 38 76  2  0  0  0  0
 39 53  1  0  0  0  0
 39 73  1  0  0  0  0
 39 77  2  0  0  0  0
 40 63  1  0  0  0  0
 40 68  1  0  0  0  0
 40 78  2  0  0  0  0
 41 64  1  0  0  0  0
 41 74  1  0  0  0  0
 41 79  2  0  0  0  0
 42 69  1  0  0  0  0
 42 72  1  0  0  0  0
 42 80  2  0  0  0  0
 43 46  1  0  0  0  0
 44 53  1  0  0  0  0
 45 68  1  0  0  0  0
 46 48  1  0  0  0  0
 47 49  1  0  0  0  0
 47 50  1  0  0  0  0
 48 52  1  0  0  0  0
 49 54  1  0  0  0  0
 50 69  1  0  0  0  0
 51 54  1  0  0  0  0
 51 69  1  0  0  0  0
 52 73  1  0  0  0  0
 53 68  1  0  0  0  0
 54 67  1  0  0  0  0
 57 64  1  0  0  0  0
 58 65  1  0  0  0  0
 59 65  1  0  0  0  0
 60 65  1  0  0  0  0
 61 75  1  0  0  0  0
 62 82  1  0  0  0  0
 63 65  1  0  0  0  0
 63 74  1  0  0  0  0
 64 75  1  0  0  0  0
 66 67  1  0  0  0  0
M  CHG  1  75   1
M  ISO  4  42 100  62 101  72 100  82 101
M  END
> <Batch ID>
0120

> <Smiles>
CNC(C)C(=O)NC(C(=O)N1Cc2cc([101O:1][101CH2:1]C=CC=Cc3c(C)ccc([100NH:0][100C:0](=O)N4CCCC(n5nc(-c6ccc(Oc7ccc(F)cc7F)cc6)c(C(N)=O)c5N)C4)c3C)ccc2CC1C(=O)NC1CCCc2ccccc21)C(C)(C)C

> <Shape>
0.343

> <Color>
0.170

> <Negative vol penalty>
0.000

$$$$

  -OEChem-04052301543D

 87 95  0     1  0  0  0  0  0999 V2000
  -23.6372  -25.4058   21.6919 C   0  0  0  0  0  0  0  0  0  0  0  0
  -25.0135  -25.2528   21.8253 C   0  0  0  0  0  0  0  0  0  0  0  0
  -23.5056   -9.5787   20.4625 C   0  0  0  0  0  0  0  0  0  0  0  0
  -24.0561  -10.1217   22.7514 C   0  0  0  0  0  0  0  0  0  0  0  0
  -22.8703  -24.3709   21.1584 C   0  0  0  0  0  0  0  0  0  0  0  0
  -25.6236  -24.0641   21.4263 C   0  0  0  0  0  0  0  0  0  0  0  0
  -31.1849  -23.4346   18.9400 C   0  0  0  0  0  0  0  0  0  0  0  0
  -22.8717   -8.4127   20.8915 C   0  0  0  0  0  0  0  0  0  0  0  0
  -23.4221   -8.9556   23.1805 C   0  0  0  0  0  0  0  0  0  0  0  0
  -32.4199  -23.0808   19.4816 C   0  0  0  0  0  0  0  0  0  0  0  0
  -23.7714   -5.3091   21.8827 C   0  0  0  0  0  0  0  0  0  0  0  0
  -24.0313   -4.1340   21.1776 C   0  0  0  0  0  0  0  0  0  0  0  0
  -30.9503  -19.7365   23.4722 C   0  0  0  0  0  0  0  0  0  0  0  0
  -32.0566  -20.7951   18.8014 C   0  0  0  0  0  0  0  0  0  0  0  0
  -31.4530  -17.7330   22.2191 C   0  0  0  0  0  0  0  0  0  0  0  0
  -21.6829   -3.9335   20.6464 C   0  0  0  0  0  0  0  0  0  0  0  0
  -24.0979  -10.4332   21.3925 C   0  0  0  0  0  0  0  0  0  0  0  0
  -29.5887  -19.5374   23.2443 C   0  0  0  0  0  0  0  0  0  0  0  0
  -24.1741  -12.9103   20.7875 C   0  0  0  0  0  0  0  0  0  0  0  0
  -23.4726  -23.1726   20.7436 C   0  0  0  0  0  0  0  0  0  0  0  0
  -30.3702  -22.4676   18.3337 C   0  0  0  0  0  0  0  0  0  0  0  0
  -24.8639  -23.0116   20.8879 C   0  0  0  0  0  0  0  0  0  0  0  0
  -30.8128  -21.1397   18.2506 C   0  0  0  0  0  0  0  0  0  0  0  0
  -29.1592  -18.4361   22.5038 C   0  0  0  0  0  0  0  0  0  0  0  0
  -30.0914  -17.5339   21.9912 C   0  0  0  0  0  0  0  0  0  0  0  0
  -22.8298   -8.1012   22.2505 C   0  0  0  0  0  0  0  0  0  0  0  0
  -32.8546  -21.7603   19.4149 C   0  0  0  0  0  0  0  0  0  0  0  0
  -22.4673   -5.7964   21.9698 C   0  0  0  0  0  0  0  0  0  0  0  0
  -31.8825  -18.8343   22.9596 C   0  0  0  0  0  0  0  0  0  0  0  0
  -22.9870   -3.4462   20.5594 C   0  0  0  0  0  0  0  0  0  0  0  0
  -21.4231   -5.1086   21.3516 C   0  0  0  0  0  0  0  0  0  0  0  0
  -24.7534  -11.6375   20.9499 C   0  0  0  0  0  0  0  0  0  0  0  0
  -25.2065  -13.7044   20.3517 C   0  0  0  0  0  0  0  0  0  0  0  0
  -28.5485  -20.7800   25.0853 C   0  0  0  0  0  0  0  0  0  0  0  0
  -28.6426  -20.4999   23.7943 C   0  0  0  0  0  0  0  0  0  0  0  0
  -35.4331  -21.3055   21.8745 C   0  0  0  0  0  0  0  0  0  0  0  0
  -22.8235  -13.3365   21.0107 C   0  0  0  0  0  0  0  0  0  0  0  0
  -35.0983  -20.4882   22.8926 C   0  0  0  0  0  0  0  0  0  0  0  0
  -27.4702  -21.2990   18.9062 C   0  0  0  0  0  0  0  0  0  0  0  0
  -27.9720  -19.7384   16.1071 C   0  0  0  0  0  0  0  0  0  0  0  0
  -30.2020  -18.4947   13.8428 C   0  0  0  0  0  0  0  0  0  0  0  0
  -30.4912  -15.4300   20.6644 C   0  0  0  0  0  0  0  0  0  0  0  0
  -22.5963  -22.0640   20.2166 C   0  0  0  0  0  0  0  0  0  0  0  0
  -29.0526  -22.8705   17.7305 C   0  0  0  0  0  0  0  0  0  0  0  0
  -29.9848  -20.0676   17.5922 C   0  0  0  0  0  0  0  0  0  0  0  0
  -23.3688  -20.9792   19.4706 C   0  0  0  0  0  0  0  0  0  0  0  0
  -29.8563  -12.4860   18.7653 C   0  0  0  0  0  0  0  0  0  0  0  0
  -24.6056  -20.5648   20.2616 C   0  0  0  0  0  0  0  0  0  0  0  0
  -28.4245  -12.1075   19.1510 C   0  0  0  0  0  0  0  0  0  0  0  0
  -30.6323  -13.0534   19.9526 C   0  0  0  0  0  0  0  0  0  0  0  0
  -28.5444  -13.7899   21.0330 C   0  0  0  0  0  0  0  0  0  0  0  0
  -25.5656  -21.7466   20.4435 C   0  0  1  0  0  0  0  0  0  0  0  0
  -28.0771  -21.7056   17.5932 C   0  0  1  0  0  0  0  0  0  0  0  0
  -27.7031  -13.2741   19.8541 C   0  0  2  0  0  0  0  0  0  0  0  0
  -27.6981  -18.2150   22.2566 C   0  0  0  0  0  0  0  0  0  0  0  0
  -36.6537  -20.3854   24.8692 C   0  0  0  0  0  0  0  0  0  0  0  0
  -30.3132  -17.2375   11.6738 C   0  0  0  0  0  0  0  0  0  0  0  0
  -27.3119  -17.1477   17.5776 C   0  0  0  0  0  0  0  0  0  0  0  0
  -28.3434  -15.8873   15.6761 C   0  0  0  0  0  0  0  0  0  0  0  0
  -26.3399  -17.3197   15.2797 C   0  0  0  0  0  0  0  0  0  0  0  0
  -31.5696  -20.7373   12.4793 C   0  0  0  0  0  0  0  0  0  0  0  0
  -34.5214  -22.1690   21.0614 C   0  0  0  0  0  0  0  0  0  1  0  0
  -36.0892  -19.6458   23.6648 C   0  0  0  0  0  0  0  0  0  0  0  0
  -33.6568  -20.3751   23.3250 C   0  0  0  0  0  0  0  0  0  0  0  0
  -28.5778  -18.4121   15.7162 C   0  0  1  0  0  0  0  0  0  0  0  0
  -30.2716  -18.6085   12.3306 C   0  0  2  0  0  0  0  0  0  0  0  0
  -27.6582  -17.2113   16.0766 C   0  0  0  0  0  0  0  0  0  0  0  0
  -26.0531  -11.6195   20.6421 N   0  0  0  0  0  0  0  0  0  0  0  0
  -26.2989  -12.8907   20.2819 N   0  0  0  0  0  0  0  0  0  0  0  0
  -28.7012  -20.5100   17.0228 N   0  0  0  0  0  0  0  0  0  0  0  0
  -29.8904  -14.1572   20.5658 N   0  0  0  0  0  0  0  0  0  0  0  0
  -25.2774  -15.0124   20.0252 N   0  0  0  0  0  0  0  0  0  0  0  0
  -21.8900  -12.3918   21.4585 N   0  0  0  0  0  0  0  0  0  0  0  0
  -29.6783  -16.4085   21.2357 N   0  0  0  0  0  0  0  0  0  0  0  0
  -26.3129  -21.9826   19.2268 N   0  0  0  0  0  0  0  0  0  0  0  0
  -28.9002  -18.5130   14.2970 N   0  0  0  0  0  0  0  0  0  0  0  0
  -31.4913  -19.3619   11.9235 N   0  3  0  0  0  0  0  0  0  0  0  0
  -22.4515  -14.5164   20.8030 O   0  0  0  0  0  0  0  0  0  0  0  0
  -28.0109  -20.4284   19.5780 O   0  0  0  0  0  0  0  0  0  0  0  0
  -26.8950  -20.0805   15.6124 O   0  0  0  0  0  0  0  0  0  0  0  0
  -31.2022  -18.3954   14.5501 O   0  0  0  0  0  0  0  0  0  0  0  0
  -31.6321  -15.6433   20.2463 O   0  0  0  0  0  0  0  0  0  0  0  0
  -22.2111   -6.9636   22.6695 O   0  0  0  0  0  0  0  0  0  0  0  0
  -34.0594  -21.4121   19.9434 O   0  0  0  0  0  0  0  0  0  1  0  0
  -33.2205  -19.0297   23.1831 O   0  0  0  0  0  0  0  0  0  0  0  0
  -23.2369   -2.3186   19.8810 F   0  0  0  0  0  0  0  0  0  0  0  0
  -20.1683   -5.5725   21.4307 F   0  0  0  0  0  0  0  0  0  0  0  0
  1  2  1  0  0  0  0
  1  5  2  0  0  0  0
  2  6  2  0  0  0  0
  3  8  2  0  0  0  0
  3 17  1  0  0  0  0
  4  9  1  0  0  0  0
  4 17  2  0  0  0  0
  5 20  1  0  0  0  0
  6 22  1  0  0  0  0
  7 10  2  0  0  0  0
  7 21  1  0  0  0  0
  8 26  1  0  0  0  0
  9 26  2  0  0  0  0
 10 27  1  0  0  0  0
 11 12  2  0  0  0  0
 11 28  1  0  0  0  0
 12 30  1  0  0  0  0
 13 18  1  0  0  0  0
 13 29  2  0  0  0  0
 14 23  1  0  0  0  0
 14 27  2  0  0  0  0
 15 25  2  0  0  0  0
 15 29  1  0  0  0  0
 16 30  2  0  0  0  0
 16 31  1  0  0  0  0
 17 32  1  0  0  0  0
 18 24  2  0  0  0  0
 18 35  1  0  0  0  0
 19 32  1  0  0  0  0
 19 33  2  0  0  0  0
 19 37  1  0  0  0  0
 20 22  2  0  0  0  0
 20 43  1  0  0  0  0
 21 23  2  0  0  0  0
 21 44  1  0  0  0  0
 22 52  1  0  0  0  0
 23 45  1  0  0  0  0
 24 25  1  0  0  0  0
 24 55  1  0  0  0  0
 25 74  1  0  0  0  0
 26 83  1  0  0  0  0
 27 84  1  0  0  0  0
 28 31  2  0  0  0  0
 28 83  1  0  0  0  0
 29 85  1  0  0  0  0
 30 86  1  0  0  0  0
 31 87  1  0  0  0  0
 32 68  2  0  0  0  0
 33 69  1  0  0  0  0
 33 72  1  0  0  0  0
 34 35  2  0  0  0  0
 36 38  2  0  0  0  0
 36 62  1  0  0  0  0
 37 73  1  0  0  0  0
 37 78  2  0  0  0  0
 38 63  1  0  0  0  0
 38 64  1  0  0  0  0
 39 53  1  0  0  0  0
 39 75  1  0  0  0  0
 39 79  2  0  0  0  0
 40 65  1  0  0  0  0
 40 70  1  0  0  0  0
 40 80  2  0  0  0  0
 41 66  1  0  0  0  0
 41 76  1  0  0  0  0
 41 81  2  0  0  0  0
 42 71  1  0  0  0  0
 42 74  1  0  0  0  0
 42 82  2  0  0  0  0
 43 46  1  0  0  0  0
 44 53  1  0  0  0  0
 45 70  1  0  0  0  0
 46 48  1  0  0  0  0
 47 49  1  0  0  0  0
 47 50  1  0  0  0  0
 48 52  1  0  0  0  0
 49 54  1  0  0  0  0
 50 71  1  0  0  0  0
 51 54  1  0  0  0  0
 51 71  1  0  0  0  0
 52 75  1  0  0  0  0
 53 70  1  0  0  0  0
 54 69  1  0  0  0  0
 56 63  1  0  0  0  0
 57 66  1  0  0  0  0
 58 67  1  0  0  0  0
 59 67  1  0  0  0  0
 60 67  1  0  0  0  0
 61 77  1  0  0  0  0
 62 84  1  0  0  0  0
 64 85  1  0  0  0  0
 65 67  1  0  0  0  0
 65 76  1  0  0  0  0
 66 77  1  0  0  0  0
 68 69  1  0  0  0  0
M  CHG  1  77   1
M  ISO  4  42 100  62 101  74 100  84 101
M  END
> <Batch ID>
0120

> <Smiles>
C=Cc1cc(OCC(=C[101CH2:1][101O:1]c2ccc3c(c2)CN(C(=O)C(NC(=O)C(C)NC)C(C)(C)C)C(C(=O)NC2CCCc4ccccc42)C3)CC)cc([100NH:0][100C:0](=O)N2CCCC(n3nc(-c4ccc(Oc5ccc(F)cc5F)cc4)c(C(N)=O)c3N)C2)c1C

> <Shape>
0.187

> <Color>
0.146

> <Negative vol penalty>
0.000

$$$$

  -OEChem-04052301543D

 88 96  0     1  0  0  0  0  0999 V2000
  -17.2099  -29.0195   24.4359 C   0  0  0  0  0  0  0  0  0  0  0  0
  -17.7569  -28.0065   23.6549 C   0  0  0  0  0  0  0  0  0  0  0  0
  -29.9637  -15.9957   18.1742 C   0  0  0  0  0  0  0  0  0  0  0  0
  -28.6635  -16.5402   20.1363 C   0  0  0  0  0  0  0  0  0  0  0  0
  -17.6704  -30.3285   24.3004 C   0  0  0  0  0  0  0  0  0  0  0  0
  -18.7641  -28.3022   22.7370 C   0  0  0  0  0  0  0  0  0  0  0  0
  -22.5644  -24.9581   22.8787 C   0  0  0  0  0  0  0  0  0  0  0  0
  -30.0664  -17.3521   17.8657 C   0  0  0  0  0  0  0  0  0  0  0  0
  -28.7662  -17.8967   19.8279 C   0  0  0  0  0  0  0  0  0  0  0  0
  -22.3581  -23.7326   22.2467 C   0  0  0  0  0  0  0  0  0  0  0  0
  -31.0716  -20.3496   20.1260 C   0  0  0  0  0  0  0  0  0  0  0  0
  -31.3836  -21.2270   21.1645 C   0  0  0  0  0  0  0  0  0  0  0  0
  -22.8123  -16.1635   22.1858 C   0  0  0  0  0  0  0  0  0  0  0  0
  -22.8663  -16.8161   24.5113 C   0  0  0  0  0  0  0  0  0  0  0  0
  -23.6078  -24.5140   20.3371 C   0  0  0  0  0  0  0  0  0  0  0  0
  -22.0581  -14.6257   23.8898 C   0  0  0  0  0  0  0  0  0  0  0  0
  -29.3052  -22.4025   20.7957 C   0  0  0  0  0  0  0  0  0  0  0  0
  -29.2622  -15.5897   19.3095 C   0  0  0  0  0  0  0  0  0  0  0  0
  -23.0997  -17.1111   23.1681 C   0  0  0  0  0  0  0  0  0  0  0  0
  -30.0345  -13.4280   20.4222 C   0  0  0  0  0  0  0  0  0  0  0  0
  -18.6906  -30.6387   23.3873 C   0  0  0  0  0  0  0  0  0  0  0  0
  -23.2859  -25.9763   22.2391 C   0  0  0  0  0  0  0  0  0  0  0  0
  -19.2378  -29.6168   22.5882 C   0  0  0  0  0  0  0  0  0  0  0  0
  -23.8241  -25.7506   20.9642 C   0  0  0  0  0  0  0  0  0  0  0  0
  -29.4677  -18.3026   18.6926 C   0  0  0  0  0  0  0  0  0  0  0  0
  -22.8773  -23.5115   20.9745 C   0  0  0  0  0  0  0  0  0  0  0  0
  -29.8765  -20.4987   19.4223 C   0  0  0  0  0  0  0  0  0  0  0  0
  -22.2915  -14.9208   22.5466 C   0  0  0  0  0  0  0  0  0  0  0  0
  -30.5004  -22.2534   21.4994 C   0  0  0  0  0  0  0  0  0  0  0  0
  -22.3456  -15.5734   24.8721 C   0  0  0  0  0  0  0  0  0  0  0  0
  -28.9933  -21.5251   19.7572 C   0  0  0  0  0  0  0  0  0  0  0  0
  -29.1553  -14.1887   19.6283 C   0  0  0  0  0  0  0  0  0  0  0  0
  -29.4959  -12.1645   20.4170 C   0  0  0  0  0  0  0  0  0  0  0  0
  -23.2606  -18.9639   21.4454 C   0  0  0  0  0  0  0  0  0  0  0  0
  -23.5778  -11.0546   20.6828 C   0  0  0  0  0  0  0  0  0  0  0  0
  -24.0712  -19.7854   20.7647 C   0  0  0  0  0  0  0  0  0  0  0  0
  -23.6557  -18.4382   22.7830 C   0  0  0  0  0  0  0  0  0  0  0  0
  -31.2310  -13.8278   21.1036 C   0  0  0  0  0  0  0  0  0  0  0  0
  -22.4580  -11.7874   20.7574 C   0  0  0  0  0  0  0  0  0  0  0  0
  -23.8809  -10.2275   19.4924 C   0  0  0  0  0  0  0  0  0  0  0  0
  -22.6163  -28.9257   21.2612 C   0  0  0  0  0  0  0  0  0  0  0  0
  -25.7919  -29.0105   20.6047 C   0  0  0  0  0  0  0  0  0  0  0  0
  -28.6517  -27.2866   19.9000 C   0  0  0  0  0  0  0  0  0  0  0  0
  -19.1228  -32.0763   23.2426 C   0  0  0  0  0  0  0  0  0  0  0  0
  -23.5225  -27.2831   22.9454 C   0  0  0  0  0  0  0  0  0  0  0  0
  -24.6232  -26.8039   20.2429 C   0  0  0  0  0  0  0  0  0  0  0  0
  -20.4538  -32.2418   22.5137 C   0  0  0  0  0  0  0  0  0  0  0  0
  -26.8467   -9.2226   17.7457 C   0  0  0  0  0  0  0  0  0  0  0  0
  -20.4833  -31.3817   21.2542 C   0  0  0  0  0  0  0  0  0  0  0  0
  -27.8428  -10.3346   18.0725 C   0  0  0  0  0  0  0  0  0  0  0  0
  -25.4250   -9.7627   17.6300 C   0  0  0  0  0  0  0  0  0  0  0  0
  -25.9611  -11.6311   19.1697 C   0  0  0  0  0  0  0  0  0  0  0  0
  -20.3492  -29.8936   21.5991 C   0  0  1  0  0  0  0  0  0  0  0  0
  -23.8336  -28.4309   21.9899 C   0  0  1  0  0  0  0  0  0  0  0  0
  -27.4041  -11.1192   19.3218 C   0  0  2  0  0  0  0  0  0  0  0  0
  -31.0946  -26.9050   19.4707 C   0  0  0  0  0  0  0  0  0  0  0  0
  -25.0556  -29.8642   17.7693 C   0  0  0  0  0  0  0  0  0  0  0  0
  -27.3836  -29.2740   17.0618 C   0  0  0  0  0  0  0  0  0  0  0  0
  -27.0130  -31.0745   18.7481 C   0  0  0  0  0  0  0  0  0  0  0  0
  -29.2235  -26.9426   22.7834 C   0  0  0  0  0  0  0  0  0  0  0  0
  -23.7256  -20.3562   19.4174 C   0  0  0  0  0  0  0  0  0  0  0  0
  -22.1235  -12.6227   21.9581 C   0  0  0  0  0  0  0  0  0  0  0  0
  -23.6853  -21.8796   19.4447 C   0  0  0  0  0  0  0  0  0  1  0  0
  -26.6462  -28.6621   19.4098 C   0  0  1  0  0  0  0  0  0  0  0  0
  -30.0549  -27.3872   20.4704 C   0  0  2  0  0  0  0  0  0  0  0  0
  -26.5079  -29.6993   18.2598 C   0  0  0  0  0  0  0  0  0  0  0  0
  -28.1357  -13.4685   19.1531 N   0  0  0  0  0  0  0  0  0  0  0  0
  -24.4799  -19.0414   23.5792 N   0  0  0  0  0  0  0  0  0  0  0  0
  -28.3709  -12.2421   19.6499 N   0  0  0  0  0  0  0  0  0  0  0  0
  -25.0538  -10.5321   18.8159 N   0  0  0  0  0  0  0  0  0  0  0  0
  -24.8219  -28.0672   20.9724 N   0  0  0  0  0  0  0  0  0  0  0  0
  -29.8796  -11.0059   20.9938 N   0  0  0  0  0  0  0  0  0  0  0  0
  -31.6418  -15.1641   21.0041 N   0  0  0  0  0  0  0  0  0  0  0  0
  -21.6068  -29.3736   22.0916 N   0  0  0  0  0  0  0  0  0  0  0  0
  -28.0067  -28.5052   19.9125 N   0  0  0  0  0  0  0  0  0  0  0  0
  -30.1724  -26.5617   21.7057 N   0  3  0  0  0  0  0  0  0  0  0  0
  -31.9244  -13.0202   21.7672 O   0  0  0  0  0  0  0  0  0  0  0  0
  -23.0592   -9.3587   19.2308 O   0  0  0  0  0  0  0  0  0  0  0  0
  -22.5952  -28.9041   20.0361 O   0  0  0  0  0  0  0  0  0  0  0  0
  -25.9830  -30.0769   21.1945 O   0  0  0  0  0  0  0  0  0  0  0  0
  -28.1767  -26.2331   19.4815 O   0  0  0  0  0  0  0  0  0  0  0  0
  -21.5246  -11.7953   19.7384 O   0  0  0  0  0  0  0  0  0  0  0  0
  -29.5679  -19.6263   18.3920 O   0  0  0  0  0  0  0  0  0  0  0  0
  -22.0117  -13.9961   21.5879 O   0  0  0  0  0  0  0  0  0  0  0  0
  -22.6769  -22.3165   20.3550 O   0  0  0  0  0  0  0  0  0  1  0  0
  -30.7994  -23.0949   22.4977 F   0  0  0  0  0  0  0  0  0  0  0  0
  -22.1211  -15.2900   26.1619 F   0  0  0  0  0  0  0  0  0  0  0  0
  -27.8431  -21.6726   19.0855 F   0  0  0  0  0  0  0  0  0  0  0  0
  1  2  1  0  0  0  0
  1  5  2  0  0  0  0
  2  6  2  0  0  0  0
  3  8  2  0  0  0  0
  3 18  1  0  0  0  0
  4  9  1  0  0  0  0
  4 18  2  0  0  0  0
  5 21  1  0  0  0  0
  6 23  1  0  0  0  0
  7 10  2  0  0  0  0
  7 22  1  0  0  0  0
  8 25  1  0  0  0  0
  9 25  2  0  0  0  0
 10 26  1  0  0  0  0
 11 12  2  0  0  0  0
 11 27  1  0  0  0  0
 12 29  1  0  0  0  0
 13 19  2  0  0  0  0
 13 28  1  0  0  0  0
 14 19  1  0  0  0  0
 14 30  2  0  0  0  0
 15 24  1  0  0  0  0
 15 26  2  0  0  0  0
 16 28  2  0  0  0  0
 16 30  1  0  0  0  0
 17 29  2  0  0  0  0
 17 31  1  0  0  0  0
 18 32  1  0  0  0  0
 19 37  1  0  0  0  0
 20 32  1  0  0  0  0
 20 33  2  0  0  0  0
 20 38  1  0  0  0  0
 21 23  2  0  0  0  0
 21 44  1  0  0  0  0
 22 24  2  0  0  0  0
 22 45  1  0  0  0  0
 23 53  1  0  0  0  0
 24 46  1  0  0  0  0
 25 83  1  0  0  0  0
 26 85  1  0  0  0  0
 27 31  2  0  0  0  0
 27 83  1  0  0  0  0
 28 84  1  0  0  0  0
 29 86  1  0  0  0  0
 30 87  1  0  0  0  0
 31 88  1  0  0  0  0
 32 67  2  0  0  0  0
 33 69  1  0  0  0  0
 33 72  1  0  0  0  0
 34 36  2  0  0  0  0
 34 37  1  0  0  0  0
 35 39  2  0  0  0  0
 35 40  1  0  0  0  0
 36 61  1  0  0  0  0
 37 68  2  0  0  0  0
 38 73  1  0  0  0  0
 38 77  2  0  0  0  0
 39 62  1  0  0  0  0
 39 82  1  0  0  0  0
 40 70  1  0  0  0  0
 40 78  2  0  0  0  0
 41 54  1  0  0  0  0
 41 74  1  0  0  0  0
 41 79  2  0  0  0  0
 42 64  1  0  0  0  0
 42 71  1  0  0  0  0
 42 80  2  0  0  0  0
 43 65  1  0  0  0  0
 43 75  1  0  0  0  0
 43 81  2  0  0  0  0
 44 47  1  0  0  0  0
 45 54  1  0  0  0  0
 46 71  1  0  0  0  0
 47 49  1  0  0  0  0
 48 50  1  0  0  0  0
 48 51  1  0  0  0  0
 49 53  1  0  0  0  0
 50 55  1  0  0  0  0
 51 70  1  0  0  0  0
 52 55  1  0  0  0  0
 52 70  1  0  0  0  0
 53 74  1  0  0  0  0
 54 71  1  0  0  0  0
 55 69  1  0  0  0  0
 56 65  1  0  0  0  0
 57 66  1  0  0  0  0
 58 66  1  0  0  0  0
 59 66  1  0  0  0  0
 60 76  1  0  0  0  0
 61 63  1  0  0  0  0
 62 84  1  0  0  0  0
 63 85  1  0  0  0  0
 64 66  1  0  0  0  0
 64 75  1  0  0  0  0
 65 76  1  0  0  0  0
 67 69  1  0  0  0  0
M  CHG  1  76   1
M  ISO  4  35 100  40 100  63 101  85 101
M  END
> <Batch ID>
0120

> <Smiles>
CNC(C)C(=O)NC(C(=O)N1Cc2cc([101O:1][101CH2:1]CC=CC(=N)c3cc(F)cc(OCC(=O)[100CH2:0][100C:0](=O)N4CCCC(n5nc(-c6ccc(Oc7ccc(F)cc7F)cc6)c(C(N)=O)c5N)C4)c3)ccc2CC1C(=O)NC1CCCc2ccccc21)C(C)(C)C

> <Shape>
0.248

> <Color>
0.065

> <Negative vol penalty>
0.000

$$$$

  -OEChem-04052301543D

 85 93  0     1  0  0  0  0  0999 V2000
  -27.3414  -34.1824   25.0062 C   0  0  0  0  0  0  0  0  0  0  0  0
  -27.6361  -32.9136   24.5177 C   0  0  0  0  0  0  0  0  0  0  0  0
  -24.8054   -8.9817   21.4944 C   0  0  0  0  0  0  0  0  0  0  0  0
  -23.1352  -10.6655   21.0336 C   0  0  0  0  0  0  0  0  0  0  0  0
  -26.0383  -34.4945   25.3914 C   0  0  0  0  0  0  0  0  0  0  0  0
  -26.6280  -31.9556   24.4152 C   0  0  0  0  0  0  0  0  0  0  0  0
  -26.7591  -29.4611   20.0101 C   0  0  0  0  0  0  0  0  0  0  0  0
  -23.9443   -8.3784   22.4110 C   0  0  0  0  0  0  0  0  0  0  0  0
  -22.2741  -10.0622   21.9501 C   0  0  0  0  0  0  0  0  0  0  0  0
  -27.7169  -28.4570   19.8752 C   0  0  0  0  0  0  0  0  0  0  0  0
  -22.0491   -6.1866   24.6063 C   0  0  0  0  0  0  0  0  0  0  0  0
  -21.9257   -4.7979   24.5633 C   0  0  0  0  0  0  0  0  0  0  0  0
  -27.2272  -19.1992   20.6338 C   0  0  0  0  0  0  0  0  0  0  0  0
  -26.0319  -26.7952   20.3426 C   0  0  0  0  0  0  0  0  0  0  0  0
  -24.5715  -19.6559   19.9119 C   0  0  0  0  0  0  0  0  0  0  0  0
  -21.1327   -4.9390   22.2855 C   0  0  0  0  0  0  0  0  0  0  0  0
  -24.4009  -10.1253   20.8057 C   0  0  0  0  0  0  0  0  0  0  0  0
  -26.6292  -20.4273   20.9159 C   0  0  0  0  0  0  0  0  0  0  0  0
  -25.3939  -10.4755   18.4822 C   0  0  0  0  0  0  0  0  0  0  0  0
  -25.0117  -33.5429   25.2845 C   0  0  0  0  0  0  0  0  0  0  0  0
  -25.4305  -29.1399   20.3235 C   0  0  0  0  0  0  0  0  0  0  0  0
  -25.3102  -32.2549   24.8006 C   0  0  0  0  0  0  0  0  0  0  0  0
  -25.0586  -27.7969   20.4784 C   0  0  0  0  0  0  0  0  0  0  0  0
  -25.3013  -20.6557   20.5550 C   0  0  0  0  0  0  0  0  0  0  0  0
  -26.4975  -18.1994   19.9907 C   0  0  0  0  0  0  0  0  0  0  0  0
  -22.6786   -8.9186   22.6389 C   0  0  0  0  0  0  0  0  0  0  0  0
  -27.3540  -27.1240   20.0443 C   0  0  0  0  0  0  0  0  0  0  0  0
  -21.7142   -6.9515   23.4890 C   0  0  0  0  0  0  0  0  0  0  0  0
  -25.1696  -18.4277   19.6298 C   0  0  0  0  0  0  0  0  0  0  0  0
  -21.4675   -4.1741   23.4029 C   0  0  0  0  0  0  0  0  0  0  0  0
  -21.2560   -6.3277   22.3286 C   0  0  0  0  0  0  0  0  0  0  0  0
  -25.2902  -10.7492   19.8592 C   0  0  0  0  0  0  0  0  0  0  0  0
  -26.3746  -11.3272   18.0358 C   0  0  0  0  0  0  0  0  0  0  0  0
  -27.4257  -21.4634   21.5944 C   0  0  0  0  0  0  0  0  0  0  0  0
  -28.5469  -22.0196   21.1096 C   0  0  0  0  0  0  0  0  0  0  0  0
  -24.6686   -9.5355   17.6785 C   0  0  0  0  0  0  0  0  0  0  0  0
  -23.4749  -29.7959   22.7419 C   0  0  0  0  0  0  0  0  0  0  0  0
  -21.2877  -28.3040   20.8677 C   0  0  0  0  0  0  0  0  0  0  0  0
  -20.6602  -26.0832   18.3534 C   0  0  0  0  0  0  0  0  0  0  0  0
  -28.4276  -16.5805   20.0089 C   0  0  0  0  0  0  0  0  0  0  0  0
  -23.6280  -33.9117   25.7577 C   0  0  0  0  0  0  0  0  0  0  0  0
  -24.4037  -30.2329   20.4392 C   0  0  0  0  0  0  0  0  0  0  0  0
  -23.6413  -27.3980   20.7955 C   0  0  0  0  0  0  0  0  0  0  0  0
  -22.5419  -32.9583   25.2660 C   0  0  0  0  0  0  0  0  0  0  0  0
  -30.3181  -13.6033   19.5199 C   0  0  0  0  0  0  0  0  0  0  0  0
  -22.9752  -31.5089   25.4619 C   0  0  0  0  0  0  0  0  0  0  0  0
  -29.2525  -12.5095   19.4200 C   0  0  0  0  0  0  0  0  0  0  0  0
  -29.9352  -14.6770   20.5369 C   0  0  0  0  0  0  0  0  0  0  0  0
  -27.5409  -14.1774   20.2419 C   0  0  0  0  0  0  0  0  0  0  0  0
  -24.2389  -31.1965   24.6512 C   0  0  1  0  0  0  0  0  0  0  0  0
  -23.1886  -29.8260   21.2672 C   0  0  1  0  0  0  0  0  0  0  0  0
  -27.8518  -13.1073   19.1827 C   0  0  2  0  0  0  0  0  0  0  0  0
  -24.6278  -21.9593   20.8415 C   0  0  0  0  0  0  0  0  0  0  0  0
  -18.7715  -25.0443   17.0686 C   0  0  0  0  0  0  0  0  0  0  0  0
  -20.6663  -26.4974   23.2467 C   0  0  0  0  0  0  0  0  0  0  0  0
  -19.5202  -24.9289   21.6673 C   0  0  0  0  0  0  0  0  0  0  0  0
  -18.6603  -27.2524   21.9582 C   0  0  0  0  0  0  0  0  0  0  0  0
  -21.6346  -27.2005   15.7919 C   0  0  0  0  0  0  0  0  0  0  0  0
  -23.7096  -16.5609   19.8272 C   0  0  0  0  0  0  0  0  0  0  0  0
  -29.3253  -23.0790   21.8372 C   0  0  0  0  0  0  0  0  0  0  0  0
  -29.4562  -24.3467   20.9950 C   0  0  0  0  0  0  0  0  0  0  0  0
  -28.0963  -24.9580   20.6871 C   0  0  0  0  0  0  0  0  0  1  0  0
  -20.8199  -26.8787   20.6978 C   0  0  1  0  0  0  0  0  0  0  0  0
  -19.7811  -26.1805   17.1197 C   0  0  2  0  0  0  0  0  0  0  0  0
  -19.9439  -26.3967   21.8884 C   0  0  0  0  0  0  0  0  0  0  0  0
  -26.1374  -11.7003   20.2611 N   0  0  0  0  0  0  0  0  0  0  0  0
  -26.7830  -12.0317   19.1299 N   0  0  0  0  0  0  0  0  0  0  0  0
  -22.6751  -28.5034   20.9049 N   0  0  0  0  0  0  0  0  0  0  0  0
  -28.5985  -15.2003   20.2467 N   0  0  0  0  0  0  0  0  0  0  0  0
  -26.9189  -11.5348   16.8179 N   0  0  0  0  0  0  0  0  0  0  0  0
  -23.6956   -8.7385   18.2968 N   0  0  0  0  0  0  0  0  0  0  0  0
  -27.1181  -16.9566   19.7115 N   0  0  0  0  0  0  0  0  0  0  0  0
  -23.9090  -31.0031   23.2555 N   0  0  0  0  0  0  0  0  0  0  0  0
  -20.1519  -26.8201   19.4022 N   0  0  0  0  0  0  0  0  0  0  0  0
  -20.6136  -26.1253   15.8848 N   0  3  0  0  0  0  0  0  0  0  0  0
  -24.8887   -9.3945   16.4516 O   0  0  0  0  0  0  0  0  0  0  0  0
  -23.3124  -28.7550   23.3679 O   0  0  0  0  0  0  0  0  0  0  0  0
  -20.4531  -29.2079   20.9566 O   0  0  0  0  0  0  0  0  0  0  0  0
  -21.6926  -25.4170   18.3849 O   0  0  0  0  0  0  0  0  0  0  0  0
  -29.3779  -17.3666   20.0383 O   0  0  0  0  0  0  0  0  0  0  0  0
  -21.8380   -8.3301   23.5330 O   0  0  0  0  0  0  0  0  0  0  0  0
  -24.4392  -17.4644   19.0000 O   0  0  0  0  0  0  0  0  0  0  0  0
  -28.2871  -26.1421   19.9139 O   0  0  0  0  0  0  0  0  0  1  0  0
  -21.3505   -2.8404   23.3612 F   0  0  0  0  0  0  0  0  0  0  0  0
  -20.9339   -7.0572   21.2516 F   0  0  0  0  0  0  0  0  0  0  0  0
  1  2  1  0  0  0  0
  1  5  2  0  0  0  0
  2  6  2  0  0  0  0
  3  8  2  0  0  0  0
  3 17  1  0  0  0  0
  4  9  1  0  0  0  0
  4 17  2  0  0  0  0
  5 20  1  0  0  0  0
  6 22  1  0  0  0  0
  7 10  2  0  0  0  0
  7 21  1  0  0  0  0
  8 26  1  0  0  0  0
  9 26  2  0  0  0  0
 10 27  1  0  0  0  0
 11 12  2  0  0  0  0
 11 28  1  0  0  0  0
 12 30  1  0  0  0  0
 13 18  1  0  0  0  0
 13 25  2  0  0  0  0
 14 23  1  0  0  0  0
 14 27  2  0  0  0  0
 15 24  1  0  0  0  0
 15 29  2  0  0  0  0
 16 30  2  0  0  0  0
 16 31  1  0  0  0  0
 17 32  1  0  0  0  0
 18 24  2  0  0  0  0
 18 34  1  0  0  0  0
 19 32  1  0  0  0  0
 19 33  2  0  0  0  0
 19 36  1  0  0  0  0
 20 22  2  0  0  0  0
 20 41  1  0  0  0  0
 21 23  2  0  0  0  0
 21 42  1  0  0  0  0
 22 50  1  0  0  0  0
 23 43  1  0  0  0  0
 24 53  1  0  0  0  0
 25 29  1  0  0  0  0
 25 72  1  0  0  0  0
 26 81  1  0  0  0  0
 27 83  1  0  0  0  0
 28 31  2  0  0  0  0
 28 81  1  0  0  0  0
 29 82  1  0  0  0  0
 30 84  1  0  0  0  0
 31 85  1  0  0  0  0
 32 66  2  0  0  0  0
 33 67  1  0  0  0  0
 33 70  1  0  0  0  0
 34 35  2  0  0  0  0
 35 60  1  0  0  0  0
 36 71  1  0  0  0  0
 36 76  2  0  0  0  0
 37 51  1  0  0  0  0
 37 73  1  0  0  0  0
 37 77  2  0  0  0  0
 38 63  1  0  0  0  0
 38 68  1  0  0  0  0
 38 78  2  0  0  0  0
 39 64  1  0  0  0  0
 39 74  1  0  0  0  0
 39 79  2  0  0  0  0
 40 69  1  0  0  0  0
 40 72  1  0  0  0  0
 40 80  2  0  0  0  0
 41 44  1  0  0  0  0
 42 51  1  0  0  0  0
 43 68  1  0  0  0  0
 44 46  1  0  0  0  0
 45 47  1  0  0  0  0
 45 48  1  0  0  0  0
 46 50  1  0  0  0  0
 47 52  1  0  0  0  0
 48 69  1  0  0  0  0
 49 52  1  0  0  0  0
 49 69  1  0  0  0  0
 50 73  1  0  0  0  0
 51 68  1  0  0  0  0
 52 67  1  0  0  0  0
 54 64  1  0  0  0  0
 55 65  1  0  0  0  0
 56 65  1  0  0  0  0
 57 65  1  0  0  0  0
 58 75  1  0  0  0  0
 59 82  1  0  0  0  0
 60 61  1  0  0  0  0
 61 62  1  0  0  0  0
 62 83  1  0  0  0  0
 63 65  1  0  0  0  0
 63 74  1  0  0  0  0
 64 75  1  0  0  0  0
 66 67  1  0  0  0  0
M  CHG  1  75   1
M  ISO  4  40 100  62 101  72 100  83 101
M  END
> <Batch ID>
0120

> <Smiles>
CNC(C)C(=O)NC(C(=O)N1Cc2cc([101O:1][101CH2:1]CCC=Cc3cc([100NH:0][100C:0](=O)N4CCCC(n5nc(-c6ccc(Oc7ccc(F)cc7F)cc6)c(C(N)=O)c5N)C4)c(OC)cc3C)ccc2CC1C(=O)NC1CCCc2ccccc21)C(C)(C)C

> <Shape>
0.310

> <Color>
0.113

> <Negative vol penalty>
0.000

$$$$

  -OEChem-04052301543D

 87 95  0     1  0  0  0  0  0999 V2000
  -16.7601  -30.0556   26.7462 C   0  0  0  0  0  0  0  0  0  0  0  0
  -18.1248  -30.0581   27.0162 C   0  0  0  0  0  0  0  0  0  0  0  0
  -24.3723   -9.3399   22.0480 C   0  0  0  0  0  0  0  0  0  0  0  0
  -23.6890   -9.2034   19.7347 C   0  0  0  0  0  0  0  0  0  0  0  0
  -16.3082  -29.8340   25.4460 C   0  0  0  0  0  0  0  0  0  0  0  0
  -19.0385  -29.8377   25.9861 C   0  0  0  0  0  0  0  0  0  0  0  0
  -25.6213  -31.7077   23.8678 C   0  0  0  0  0  0  0  0  0  0  0  0
  -23.3118   -8.5094   22.4103 C   0  0  0  0  0  0  0  0  0  0  0  0
  -22.6285   -8.3729   20.0969 C   0  0  0  0  0  0  0  0  0  0  0  0
  -26.8259  -31.1344   23.4629 C   0  0  0  0  0  0  0  0  0  0  0  0
  -22.6022   -5.2040   22.3468 C   0  0  0  0  0  0  0  0  0  0  0  0
  -22.8675   -4.1662   23.2402 C   0  0  0  0  0  0  0  0  0  0  0  0
  -30.3234  -20.7026   21.7706 C   0  0  0  0  0  0  0  0  0  0  0  0
  -25.9328  -30.8413   21.2413 C   0  0  0  0  0  0  0  0  0  0  0  0
  -31.2630  -21.7409   19.3577 C   0  0  0  0  0  0  0  0  0  0  0  0
  -21.2639   -5.0921   24.7920 C   0  0  0  0  0  0  0  0  0  0  0  0
  -24.5609   -9.6869   20.7102 C   0  0  0  0  0  0  0  0  0  0  0  0
  -30.5180  -19.8590   20.6770 C   0  0  0  0  0  0  0  0  0  0  0  0
  -26.9585  -10.1526   19.9737 C   0  0  0  0  0  0  0  0  0  0  0  0
  -17.2172  -29.6204   24.3977 C   0  0  0  0  0  0  0  0  0  0  0  0
  -24.5578  -31.8423   22.9638 C   0  0  0  0  0  0  0  0  0  0  0  0
  -18.5984  -29.6117   24.6709 C   0  0  0  0  0  0  0  0  0  0  0  0
  -24.7166  -31.4189   21.6365 C   0  0  0  0  0  0  0  0  0  0  0  0
  -30.5985  -22.0655   21.6577 C   0  0  0  0  0  0  0  0  0  0  0  0
  -30.9878  -20.3780   19.4706 C   0  0  0  0  0  0  0  0  0  0  0  0
  -31.0683  -22.5846   20.4513 C   0  0  0  0  0  0  0  0  0  0  0  0
  -22.4399   -8.0259   21.4347 C   0  0  0  0  0  0  0  0  0  0  0  0
  -26.9809  -30.6984   22.1503 C   0  0  0  0  0  0  0  0  0  0  0  0
  -21.6679   -6.1860   22.6761 C   0  0  0  0  0  0  0  0  0  0  0  0
  -22.1984   -4.1102   24.4628 C   0  0  0  0  0  0  0  0  0  0  0  0
  -20.9987   -6.1300   23.8987 C   0  0  0  0  0  0  0  0  0  0  0  0
  -25.6559  -10.5452   20.3355 C   0  0  0  0  0  0  0  0  0  0  0  0
  -27.6118  -11.3316   19.7103 C   0  0  0  0  0  0  0  0  0  0  0  0
  -30.2217  -18.4401   20.8260 C   0  0  0  0  0  0  0  0  0  0  0  0
  -29.0132  -17.9223   21.1261 C   0  0  0  0  0  0  0  0  0  0  0  0
  -30.3939  -26.0971   19.9810 C   0  0  0  0  0  0  0  0  0  0  0  0
  -27.5270   -8.8394   19.8837 C   0  0  0  0  0  0  0  0  0  0  0  0
  -28.8702  -16.4564   21.2330 C   0  0  0  0  0  0  0  0  0  0  0  0
  -21.5923  -30.7091   22.8041 C   0  0  0  0  0  0  0  0  0  0  0  0
  -29.2187  -28.1581   20.8498 C   0  0  0  0  0  0  0  0  0  0  0  0
  -21.3892  -32.6905   20.2438 C   0  0  0  0  0  0  0  0  0  0  0  0
  -22.9997  -34.3938   17.7635 C   0  0  0  0  0  0  0  0  0  0  0  0
  -16.6798  -29.3382   23.0171 C   0  0  0  0  0  0  0  0  0  0  0  0
  -23.2740  -32.4873   23.4091 C   0  0  0  0  0  0  0  0  0  0  0  0
  -23.6125  -31.5594   20.6218 C   0  0  0  0  0  0  0  0  0  0  0  0
  -17.7255  -29.4851   21.9147 C   0  0  0  0  0  0  0  0  0  0  0  0
  -25.8643  -16.0322   19.1797 C   0  0  0  0  0  0  0  0  0  0  0  0
  -19.0197  -28.7807   22.3091 C   0  0  0  0  0  0  0  0  0  0  0  0
  -25.6273  -14.5302   19.3127 C   0  0  0  0  0  0  0  0  0  0  0  0
  -26.4445  -16.6350   20.4581 C   0  0  0  0  0  0  0  0  0  0  0  0
  -27.4481  -14.4512   21.0617 C   0  0  0  0  0  0  0  0  0  0  0  0
  -19.6215  -29.4011   23.5758 C   0  0  1  0  0  0  0  0  0  0  0  0
  -22.0803  -32.1053   22.5393 C   0  0  1  0  0  0  0  0  0  0  0  0
  -26.9085  -13.8155   19.7709 C   0  0  1  0  0  0  0  0  0  0  0  0
  -30.3824  -22.9497   22.8419 C   0  0  0  0  0  0  0  0  0  0  0  0
  -31.2082  -19.5035   18.2782 C   0  0  0  0  0  0  0  0  0  0  0  0
  -22.5633  -35.8962   15.8014 C   0  0  0  0  0  0  0  0  0  0  0  0
  -20.4445  -30.2880   18.6173 C   0  0  0  0  0  0  0  0  0  0  0  0
  -20.9380  -31.5905   16.5369 C   0  0  0  0  0  0  0  0  0  0  0  0
  -19.2179  -32.4155   18.1442 C   0  0  0  0  0  0  0  0  0  0  0  0
  -24.5781  -36.5973   18.9519 C   0  0  0  0  0  0  0  0  0  0  0  0
  -31.3713  -24.0496   20.3059 C   0  0  0  0  0  0  0  0  0  0  0  0
  -29.2674  -27.0730   19.7955 C   0  0  0  0  0  0  0  0  0  0  0  0
  -28.0903  -29.1608   20.7147 C   0  0  0  0  0  0  0  0  0  1  0  0
  -21.6645  -32.5586   18.7653 C   0  0  1  0  0  0  0  0  0  0  0  0
  -22.8813  -35.8303   17.2871 C   0  0  2  0  0  0  0  0  0  0  0  0
  -20.5866  -31.7086   18.0353 C   0  0  0  0  0  0  0  0  0  0  0  0
  -25.4898  -11.8702   20.3059 N   0  0  0  0  0  0  0  0  0  0  0  0
  -30.1554  -24.8438   20.1548 N   0  0  0  0  0  0  0  0  0  0  0  0
  -26.6966  -12.3204   19.9224 N   0  0  0  0  0  0  0  0  0  0  0  0
  -27.6350  -15.8983   20.9084 N   0  0  0  0  0  0  0  0  0  0  0  0
  -22.3742  -32.1906   21.1073 N   0  0  0  0  0  0  0  0  0  0  0  0
  -28.8742  -11.6088   19.3203 N   0  0  0  0  0  0  0  0  0  0  0  0
  -26.7160   -7.7379   20.1889 N   0  0  0  0  0  0  0  0  0  0  0  0
  -20.2897  -30.6455   23.2607 N   0  0  0  0  0  0  0  0  0  0  0  0
  -21.8018  -33.9176   18.2529 N   0  0  0  0  0  0  0  0  0  0  0  0
  -24.1568  -36.5626   17.5277 N   0  3  0  0  0  0  0  0  0  0  0  0
  -28.7235   -8.6495   19.5585 O   0  0  0  0  0  0  0  0  0  0  0  0
  -29.8533  -15.8151   21.6084 O   0  0  0  0  0  0  0  0  0  0  0  0
  -22.3416  -29.7597   22.6071 O   0  0  0  0  0  0  0  0  0  0  0  0
  -30.0452  -28.2272   21.7583 O   0  0  0  0  0  0  0  0  0  0  0  0
  -20.3421  -33.2242   20.6187 O   0  0  0  0  0  0  0  0  0  0  0  0
  -24.0489  -33.7566   17.7038 O   0  0  0  0  0  0  0  0  0  0  0  0
  -21.4051   -7.2153   21.7878 O   0  0  0  0  0  0  0  0  0  0  0  0
  -28.1554  -30.1379   21.7527 O   0  0  0  0  0  0  0  0  0  1  0  0
  -22.4521   -3.1126   25.3199 F   0  0  0  0  0  0  0  0  0  0  0  0
  -20.0991   -7.0699   24.2201 F   0  0  0  0  0  0  0  0  0  0  0  0
  1  2  1  0  0  0  0
  1  5  2  0  0  0  0
  2  6  2  0  0  0  0
  3  8  2  0  0  0  0
  3 17  1  0  0  0  0
  4  9  1  0  0  0  0
  4 17  2  0  0  0  0
  5 20  1  0  0  0  0
  6 22  1  0  0  0  0
  7 10  2  0  0  0  0
  7 21  1  0  0  0  0
  8 27  1  0  0  0  0
  9 27  2  0  0  0  0
 10 28  1  0  0  0  0
 11 12  2  0  0  0  0
 11 29  1  0  0  0  0
 12 30  1  0  0  0  0
 13 18  2  0  0  0  0
 13 24  1  0  0  0  0
 14 23  1  0  0  0  0
 14 28  2  0  0  0  0
 15 25  2  0  0  0  0
 15 26  1  0  0  0  0
 16 30  2  0  0  0  0
 16 31  1  0  0  0  0
 17 32  1  0  0  0  0
 18 25  1  0  0  0  0
 18 34  1  0  0  0  0
 19 32  1  0  0  0  0
 19 33  2  0  0  0  0
 19 37  1  0  0  0  0
 20 22  2  0  0  0  0
 20 43  1  0  0  0  0
 21 23  2  0  0  0  0
 21 44  1  0  0  0  0
 22 52  1  0  0  0  0
 23 45  1  0  0  0  0
 24 26  2  0  0  0  0
 24 55  1  0  0  0  0
 25 56  1  0  0  0  0
 26 62  1  0  0  0  0
 27 84  1  0  0  0  0
 28 85  1  0  0  0  0
 29 31  2  0  0  0  0
 29 84  1  0  0  0  0
 30 86  1  0  0  0  0
 31 87  1  0  0  0  0
 32 68  2  0  0  0  0
 33 70  1  0  0  0  0
 33 73  1  0  0  0  0
 34 35  2  0  0  0  0
 35 38  1  0  0  0  0
 36 63  1  0  0  0  0
 36 69  2  0  0  0  0
 37 74  1  0  0  0  0
 37 78  2  0  0  0  0
 38 71  1  0  0  0  0
 38 79  2  0  0  0  0
 39 53  1  0  0  0  0
 39 75  1  0  0  0  0
 39 80  2  0  0  0  0
 40 63  1  0  0  0  0
 40 64  1  0  0  0  0
 40 81  2  0  0  0  0
 41 65  1  0  0  0  0
 41 72  1  0  0  0  0
 41 82  2  0  0  0  0
 42 66  1  0  0  0  0
 42 76  1  0  0  0  0
 42 83  2  0  0  0  0
 43 46  1  0  0  0  0
 44 53  1  0  0  0  0
 45 72  1  0  0  0  0
 46 48  1  0  0  0  0
 47 49  1  0  0  0  0
 47 50  1  0  0  0  0
 48 52  1  0  0  0  0
 49 54  1  0  0  0  0
 50 71  1  0  0  0  0
 51 54  1  0  0  0  0
 51 71  1  0  0  0  0
 52 75  1  0  0  0  0
 53 72  1  0  0  0  0
 54 70  1  0  0  0  0
 57 66  1  0  0  0  0
 58 67  1  0  0  0  0
 59 67  1  0  0  0  0
 60 67  1  0  0  0  0
 61 77  1  0  0  0  0
 62 69  1  0  0  0  0
 64 85  1  0  0  0  0
 65 67  1  0  0  0  0
 65 76  1  0  0  0  0
 66 77  1  0  0  0  0
 68 70  1  0  0  0  0
M  CHG  1  77   1
M  ISO  4  35 100  38 100  64 101  85 101
M  END
> <Batch ID>
0120

> <Smiles>
CNC(C)C(=O)NC(C(=O)N1Cc2cc([101O:1][101CH2:1]C(=O)CC=NCc3cc(C)c(C=[100CH:0][100C:0](=O)N4CCCC(n5nc(-c6ccc(Oc7ccc(F)cc7F)cc6)c(C(N)=O)c5N)C4)cc3C)ccc2CC1C(=O)NC1CCCc2ccccc21)C(C)(C)C

> <Shape>
0.282

> <Color>
0.090

> <Negative vol penalty>
0.000

$$$$

  -OEChem-04052301543D

 87 95  0     1  0  0  0  0  0999 V2000
  -29.1481  -32.7306   24.9724 C   0  0  0  0  0  0  0  0  0  0  0  0
  -28.9352  -31.7212   24.0391 C   0  0  0  0  0  0  0  0  0  0  0  0
  -23.0477  -10.2878   21.8930 C   0  0  0  0  0  0  0  0  0  0  0  0
  -24.5140   -8.9779   20.4890 C   0  0  0  0  0  0  0  0  0  0  0  0
  -28.1634  -33.0268   25.9140 C   0  0  0  0  0  0  0  0  0  0  0  0
  -27.7378  -31.0066   24.0474 C   0  0  0  0  0  0  0  0  0  0  0  0
  -25.8048  -30.4001   19.4062 C   0  0  0  0  0  0  0  0  0  0  0  0
  -22.1556   -9.2177   21.9597 C   0  0  0  0  0  0  0  0  0  0  0  0
  -23.6219   -7.9077   20.5558 C   0  0  0  0  0  0  0  0  0  0  0  0
  -26.3779  -29.4165   18.6014 C   0  0  0  0  0  0  0  0  0  0  0  0
  -19.6642   -6.7060   22.7960 C   0  0  0  0  0  0  0  0  0  0  0  0
  -19.1303   -6.3837   24.0437 C   0  0  0  0  0  0  0  0  0  0  0  0
  -28.6022  -18.9007   17.9817 C   0  0  0  0  0  0  0  0  0  0  0  0
  -24.5660  -27.9211   19.1494 C   0  0  0  0  0  0  0  0  0  0  0  0
  -30.0147  -20.8588   18.0688 C   0  0  0  0  0  0  0  0  0  0  0  0
  -21.3557   -5.9737   24.8901 C   0  0  0  0  0  0  0  0  0  0  0  0
  -24.2269  -10.1680   21.1575 C   0  0  0  0  0  0  0  0  0  0  0  0
  -27.5401  -19.6438   18.4967 C   0  0  0  0  0  0  0  0  0  0  0  0
  -26.2219  -11.5415   21.9582 C   0  0  0  0  0  0  0  0  0  0  0  0
  -26.9494  -32.3219   25.9278 C   0  0  0  0  0  0  0  0  0  0  0  0
  -24.6118  -30.1475   20.0985 C   0  0  0  0  0  0  0  0  0  0  0  0
  -26.7365  -31.2927   24.9909 C   0  0  0  0  0  0  0  0  0  0  0  0
  -23.9785  -28.9041   19.9603 C   0  0  0  0  0  0  0  0  0  0  0  0
  -27.7153  -20.9945   18.7977 C   0  0  0  0  0  0  0  0  0  0  0  0
  -22.4427   -8.0276   21.2912 C   0  0  0  0  0  0  0  0  0  0  0  0
  -25.7600  -28.1758   18.4751 C   0  0  0  0  0  0  0  0  0  0  0  0
  -21.0439   -6.6620   22.5954 C   0  0  0  0  0  0  0  0  0  0  0  0
  -28.9526  -21.6020   18.5838 C   0  0  0  0  0  0  0  0  0  0  0  0
  -19.9760   -6.0175   25.0907 C   0  0  0  0  0  0  0  0  0  0  0  0
  -29.8395  -19.5081   17.7678 C   0  0  0  0  0  0  0  0  0  0  0  0
  -21.8896   -6.2959   23.6424 C   0  0  0  0  0  0  0  0  0  0  0  0
  -25.1485  -11.2733   21.0877 C   0  0  0  0  0  0  0  0  0  0  0  0
  -26.7828  -12.6948   21.4665 C   0  0  0  0  0  0  0  0  0  0  0  0
  -28.2051  -25.8307   17.2866 C   0  0  0  0  0  0  0  0  0  0  0  0
  -29.0531  -25.1584   18.0785 C   0  0  0  0  0  0  0  0  0  0  0  0
  -26.2596  -18.9823   18.7096 C   0  0  0  0  0  0  0  0  0  0  0  0
  -26.6717  -10.8131   23.1083 C   0  0  0  0  0  0  0  0  0  0  0  0
  -26.1353  -17.8274   19.6215 C   0  0  0  0  0  0  0  0  0  0  0  0
  -23.7727  -30.0567   23.1631 C   0  0  0  0  0  0  0  0  0  0  0  0
  -20.7949  -29.6775   21.9338 C   0  0  0  0  0  0  0  0  0  0  0  0
  -18.8472  -28.6875   19.3121 C   0  0  0  0  0  0  0  0  0  0  0  0
  -25.9339  -32.6460   26.9948 C   0  0  0  0  0  0  0  0  0  0  0  0
  -23.9924  -31.2283   20.9416 C   0  0  0  0  0  0  0  0  0  0  0  0
  -22.6859  -28.5897   20.6665 C   0  0  0  0  0  0  0  0  0  0  0  0
  -24.5417  -32.0945   26.6983 C   0  0  0  0  0  0  0  0  0  0  0  0
  -26.0306  -15.1466   17.1246 C   0  0  0  0  0  0  0  0  0  0  0  0
  -24.6287  -30.6401   26.2467 C   0  0  0  0  0  0  0  0  0  0  0  0
  -25.8308  -13.9233   18.0153 C   0  0  0  0  0  0  0  0  0  0  0  0
  -25.3228  -16.3810   17.6813 C   0  0  0  0  0  0  0  0  0  0  0  0
  -25.4974  -15.4743   19.9809 C   0  0  0  0  0  0  0  0  0  0  0  0
  -25.4407  -30.5119   24.9523 C   0  0  1  0  0  0  0  0  0  0  0  0
  -23.0461  -30.6856   22.0080 C   0  0  1  0  0  0  0  0  0  0  0  0
  -26.2401  -14.2323   19.4641 C   0  0  1  0  0  0  0  0  0  0  0  0
  -25.5913  -22.8763   21.4155 C   0  0  0  0  0  0  0  0  0  0  0  0
  -16.4466  -28.4602   18.6171 C   0  0  0  0  0  0  0  0  0  0  0  0
  -20.5293  -27.1857   23.6746 C   0  0  0  0  0  0  0  0  0  0  0  0
  -18.5758  -26.4966   22.2685 C   0  0  0  0  0  0  0  0  0  0  0  0
  -18.4799  -28.6160   23.5807 C   0  0  0  0  0  0  0  0  0  0  0  0
  -19.1995  -30.5756   17.0605 C   0  0  0  0  0  0  0  0  0  0  0  0
  -26.5819  -21.7990   19.3509 C   0  0  0  0  0  0  0  0  0  0  0  0
  -27.7388  -27.2226   17.5631 C   0  0  0  0  0  0  0  0  0  1  0  0
  -29.5287  -23.7708   17.7962 C   0  0  0  0  0  0  0  0  0  0  0  0
  -26.7267  -22.0306   20.8610 C   0  0  0  0  0  0  0  0  0  0  0  0
  -19.9489  -28.4954   21.5266 C   0  0  1  0  0  0  0  0  0  0  0  0
  -17.6745  -29.3576   18.6191 C   0  0  2  0  0  0  0  0  0  0  0  0
  -19.4088  -27.7034   22.7507 C   0  0  0  0  0  0  0  0  0  0  0  0
  -25.0324  -12.1831   20.1167 N   0  0  0  0  0  0  0  0  0  0  0  0
  -25.1562  -19.3570   18.1238 N   0  0  0  0  0  0  0  0  0  0  0  0
  -26.0401  -13.0343   20.3742 N   0  0  0  0  0  0  0  0  0  0  0  0
  -25.6856  -16.6217   19.0860 N   0  0  0  0  0  0  0  0  0  0  0  0
  -22.1229  -29.6769   21.4841 N   0  0  0  0  0  0  0  0  0  0  0  0
  -27.8340  -13.4415   21.8664 N   0  0  0  0  0  0  0  0  0  0  0  0
  -25.9815   -9.6495   23.4743 N   0  0  0  0  0  0  0  0  0  0  0  0
  -24.6424  -30.9113   23.8132 N   0  0  0  0  0  0  0  0  0  0  0  0
  -18.9089  -29.0208   20.6487 N   0  0  0  0  0  0  0  0  0  0  0  0
  -18.0231  -29.6802   17.2066 N   0  3  0  0  0  0  0  0  0  0  0  0
  -27.6465  -11.1922   23.8009 O   0  0  0  0  0  0  0  0  0  0  0  0
  -26.4330  -18.0023   20.8045 O   0  0  0  0  0  0  0  0  0  0  0  0
  -23.5590  -28.8833   23.4446 O   0  0  0  0  0  0  0  0  0  0  0  0
  -20.2938  -30.5722   22.6195 O   0  0  0  0  0  0  0  0  0  0  0  0
  -19.6281  -27.9401   18.7272 O   0  0  0  0  0  0  0  0  0  0  0  0
  -21.5725   -6.9830   21.3563 O   0  0  0  0  0  0  0  0  0  0  0  0
  -26.3175  -27.2137   17.6907 O   0  0  0  0  0  0  0  0  0  1  0  0
  -29.1444  -22.9281   18.8735 O   0  0  0  0  0  0  0  0  0  0  0  0
  -19.4632   -5.7096   26.2892 F   0  0  0  0  0  0  0  0  0  0  0  0
  -30.8594  -18.7945   17.2730 F   0  0  0  0  0  0  0  0  0  0  0  0
  -23.2160   -6.2531   23.4560 F   0  0  0  0  0  0  0  0  0  0  0  0
  1  2  1  0  0  0  0
  1  5  2  0  0  0  0
  2  6  2  0  0  0  0
  3  8  2  0  0  0  0
  3 17  1  0  0  0  0
  4  9  1  0  0  0  0
  4 17  2  0  0  0  0
  5 20  1  0  0  0  0
  6 22  1  0  0  0  0
  7 10  2  0  0  0  0
  7 21  1  0  0  0  0
  8 25  1  0  0  0  0
  9 25  2  0  0  0  0
 10 26  1  0  0  0  0
 11 12  2  0  0  0  0
 11 27  1  0  0  0  0
 12 29  1  0  0  0  0
 13 18  1  0  0  0  0
 13 30  2  0  0  0  0
 14 23  1  0  0  0  0
 14 26  2  0  0  0  0
 15 28  2  0  0  0  0
 15 30  1  0  0  0  0
 16 29  2  0  0  0  0
 16 31  1  0  0  0  0
 17 32  1  0  0  0  0
 18 24  2  0  0  0  0
 18 36  1  0  0  0  0
 19 32  1  0  0  0  0
 19 33  2  0  0  0  0
 19 37  1  0  0  0  0
 20 22  2  0  0  0  0
 20 42  1  0  0  0  0
 21 23  2  0  0  0  0
 21 43  1  0  0  0  0
 22 51  1  0  0  0  0
 23 44  1  0  0  0  0
 24 28  1  0  0  0  0
 24 60  1  0  0  0  0
 25 82  1  0  0  0  0
 26 83  1  0  0  0  0
 27 31  2  0  0  0  0
 27 82  1  0  0  0  0
 28 84  1  0  0  0  0
 29 85  1  0  0  0  0
 30 86  1  0  0  0  0
 31 87  1  0  0  0  0
 32 67  2  0  0  0  0
 33 69  1  0  0  0  0
 33 72  1  0  0  0  0
 34 35  2  0  0  0  0
 34 61  1  0  0  0  0
 35 62  1  0  0  0  0
 36 38  1  0  0  0  0
 36 68  2  0  0  0  0
 37 73  1  0  0  0  0
 37 77  2  0  0  0  0
 38 70  1  0  0  0  0
 38 78  2  0  0  0  0
 39 52  1  0  0  0  0
 39 74  1  0  0  0  0
 39 79  2  0  0  0  0
 40 64  1  0  0  0  0
 40 71  1  0  0  0  0
 40 80  2  0  0  0  0
 41 65  1  0  0  0  0
 41 75  1  0  0  0  0
 41 81  2  0  0  0  0
 42 45  1  0  0  0  0
 43 52  1  0  0  0  0
 44 71  1  0  0  0  0
 45 47  1  0  0  0  0
 46 48  1  0  0  0  0
 46 49  1  0  0  0  0
 47 51  1  0  0  0  0
 48 53  1  0  0  0  0
 49 70  1  0  0  0  0
 50 53  1  0  0  0  0
 50 70  1  0  0  0  0
 51 74  1  0  0  0  0
 52 71  1  0  0  0  0
 53 69  1  0  0  0  0
 54 63  1  0  0  0  0
 55 65  1  0  0  0  0
 56 66  1  0  0  0  0
 57 66  1  0  0  0  0
 58 66  1  0  0  0  0
 59 76  1  0  0  0  0
 60 63  1  0  0  0  0
 61 83  1  0  0  0  0
 62 84  1  0  0  0  0
 64 66  1  0  0  0  0
 64 75  1  0  0  0  0
 65 76  1  0  0  0  0
 67 69  1  0  0  0  0
M  CHG  1  76   1
M  ISO  4  36 100  38 100  61 101  83 101
M  END
> <Batch ID>
0120

> <Smiles>
CCCc1c(OCC=C[101CH2:1][101O:1]c2ccc3c(c2)CN(C(=O)C(NC(=O)C(C)NC)C(C)(C)C)C(C(=O)NC2CCCc4ccccc42)C3)cc(F)cc1[100C:0](=N)[100C:0](=O)N1CCCC(n2nc(-c3ccc(Oc4ccc(F)cc4F)cc3)c(C(N)=O)c2N)C1

> <Shape>
0.298

> <Color>
0.096

> <Negative vol penalty>
0.000

$$$$

  -OEChem-04052301543D

 86 94  0     1  0  0  0  0  0999 V2000
  -23.1230   -7.9074   21.4980 C   0  0  0  0  0  0  0  0  0  0  0  0
  -24.0901   -8.8744   21.7528 C   0  0  0  0  0  0  0  0  0  0  0  0
  -25.0684  -29.7809   19.7494 C   0  0  0  0  0  0  0  0  0  0  0  0
  -24.8388  -28.7785   21.9356 C   0  0  0  0  0  0  0  0  0  0  0  0
  -29.9517  -18.8413   21.2026 C   0  0  0  0  0  0  0  0  0  0  0  0
  -21.9015   -8.2760   20.9358 C   0  0  0  0  0  0  0  0  0  0  0  0
  -23.8368  -10.2105   21.4445 C   0  0  0  0  0  0  0  0  0  0  0  0
  -25.2484  -13.3607   25.1497 C   0  0  0  0  0  0  0  0  0  0  0  0
  -29.0755  -19.8957   20.9460 C   0  0  0  0  0  0  0  0  0  0  0  0
  -24.4042  -30.9208   20.2023 C   0  0  0  0  0  0  0  0  0  0  0  0
  -24.1747  -29.9184   22.3885 C   0  0  0  0  0  0  0  0  0  0  0  0
  -26.6080  -13.6504   25.2556 C   0  0  0  0  0  0  0  0  0  0  0  0
  -22.7371  -32.7101   24.2211 C   0  0  0  0  0  0  0  0  0  0  0  0
  -23.1073  -33.2270   25.4625 C   0  0  0  0  0  0  0  0  0  0  0  0
  -26.2441  -15.7455   24.1166 C   0  0  0  0  0  0  0  0  0  0  0  0
  -27.7062  -18.4299   19.5992 C   0  0  0  0  0  0  0  0  0  0  0  0
  -25.3608  -33.5530   24.6548 C   0  0  0  0  0  0  0  0  0  0  0  0
  -25.2856  -28.7097   20.6160 C   0  0  0  0  0  0  0  0  0  0  0  0
  -29.7054  -17.5812   20.6575 C   0  0  0  0  0  0  0  0  0  0  0  0
  -27.3568  -27.2853   20.1814 C   0  0  0  0  0  0  0  0  0  0  0  0
  -21.6293   -9.6187   20.6294 C   0  0  0  0  0  0  0  0  0  0  0  0
  -24.3767  -14.2577   24.5158 C   0  0  0  0  0  0  0  0  0  0  0  0
  -22.6110  -10.5973   20.8764 C   0  0  0  0  0  0  0  0  0  0  0  0
  -24.8734  -15.4660   24.0063 C   0  0  0  0  0  0  0  0  0  0  0  0
  -27.9527  -19.6900   20.1443 C   0  0  0  0  0  0  0  0  0  0  0  0
  -23.9574  -30.9896   21.5218 C   0  0  0  0  0  0  0  0  0  0  0  0
  -27.1066  -14.8417   24.7365 C   0  0  0  0  0  0  0  0  0  0  0  0
  -23.6787  -32.6145   23.1964 C   0  0  0  0  0  0  0  0  0  0  0  0
  -28.5826  -17.3755   19.8558 C   0  0  0  0  0  0  0  0  0  0  0  0
  -24.4191  -33.6485   25.6794 C   0  0  0  0  0  0  0  0  0  0  0  0
  -24.9906  -33.0360   23.4133 C   0  0  0  0  0  0  0  0  0  0  0  0
  -25.9711  -27.5317   20.1487 C   0  0  0  0  0  0  0  0  0  0  0  0
  -27.4969  -26.0374   19.6249 C   0  0  0  0  0  0  0  0  0  0  0  0
  -30.8346  -16.0998   22.3769 C   0  0  0  0  0  0  0  0  0  0  0  0
  -30.5204  -14.8727   22.8135 C   0  0  0  0  0  0  0  0  0  0  0  0
  -30.6541  -16.4694   20.9443 C   0  0  0  0  0  0  0  0  0  0  0  0
  -28.4221  -28.1105   20.6711 C   0  0  0  0  0  0  0  0  0  0  0  0
  -22.5014  -14.1304   21.9524 C   0  0  0  0  0  0  0  0  0  0  0  0
  -21.5451  -17.0518   22.9884 C   0  0  0  0  0  0  0  0  0  0  0  0
  -22.2533  -19.8609   24.7924 C   0  0  0  0  0  0  0  0  0  0  0  0
  -25.9034  -20.7272   19.1093 C   0  0  0  0  0  0  0  0  0  0  0  0
  -20.3127   -9.9624   19.9790 C   0  0  0  0  0  0  0  0  0  0  0  0
  -22.9083  -13.9426   24.4334 C   0  0  0  0  0  0  0  0  0  0  0  0
  -23.9760  -16.4718   23.3344 C   0  0  0  0  0  0  0  0  0  0  0  0
  -19.9793  -11.4512   20.0282 C   0  0  0  0  0  0  0  0  0  0  0  0
  -24.1626  -23.1399   17.1533 C   0  0  0  0  0  0  0  0  0  0  0  0
  -21.1901  -12.2833   19.6178 C   0  0  0  0  0  0  0  0  0  0  0  0
  -24.5919  -24.4773   17.7609 C   0  0  0  0  0  0  0  0  0  0  0  0
  -24.0025  -22.0578   18.2197 C   0  0  0  0  0  0  0  0  0  0  0  0
  -25.5954  -23.2106   19.7040 C   0  0  0  0  0  0  0  0  0  0  0  0
  -22.3641  -12.0603   20.5788 C   0  0  1  0  0  0  0  0  0  0  0  0
  -22.1979  -14.6941   23.3118 C   0  0  1  0  0  0  0  0  0  0  0  0
  -25.8325  -24.3150   18.6610 C   0  0  2  0  0  0  0  0  0  0  0  0
  -27.2649  -14.0282   19.6274 C   0  0  0  0  0  0  0  0  0  0  0  0
  -21.2929  -22.0923   25.4213 C   0  0  0  0  0  0  0  0  0  0  0  0
  -22.1959  -18.1142   20.2031 C   0  0  0  0  0  0  0  0  0  0  0  0
  -22.1360  -20.4315   21.1490 C   0  0  0  0  0  0  0  0  0  0  0  0
  -20.0840  -19.0137   21.1956 C   0  0  0  0  0  0  0  0  0  0  0  0
  -22.2866  -19.1927   27.6754 C   0  0  0  0  0  0  0  0  0  0  0  0
  -30.6703  -14.4427   24.2464 C   0  0  0  0  0  0  0  0  0  0  0  0
  -27.0920  -15.5315   19.6724 C   0  0  0  0  0  0  0  0  0  0  0  0
  -29.3360  -14.0215   24.8505 C   0  0  0  0  0  0  0  0  0  1  0  0
  -22.0007  -18.4716   22.7527 C   0  0  1  0  0  0  0  0  0  0  0  0
  -21.4405  -20.6314   25.8172 C   0  0  2  0  0  0  0  0  0  0  0  0
  -21.6216  -18.9881   21.3360 C   0  0  0  0  0  0  0  0  0  0  0  0
  -25.2803  -26.5216   19.6135 N   0  0  0  0  0  0  0  0  0  0  0  0
  -31.3072  -15.9191   19.9708 N   0  0  0  0  0  0  0  0  0  0  0  0
  -26.2358  -25.6284   19.3048 N   0  0  0  0  0  0  0  0  0  0  0  0
  -22.5489  -16.1152   23.2728 N   0  0  0  0  0  0  0  0  0  0  0  0
  -25.2178  -21.9579   19.0309 N   0  0  0  0  0  0  0  0  0  0  0  0
  -28.5745  -25.2612   19.3829 N   0  0  0  0  0  0  0  0  0  0  0  0
  -28.1022  -29.3636   21.2113 N   0  0  0  0  0  0  0  0  0  0  0  0
  -27.0629  -20.7615   19.8832 N   0  0  0  0  0  0  0  0  0  0  0  0
  -22.1598  -12.7995   21.8062 N   0  0  0  0  0  0  0  0  0  0  0  0
  -21.4478  -19.2645   23.8454 N   0  0  0  0  0  0  0  0  0  0  0  0
  -22.0991  -20.5706   27.1526 N   0  3  0  0  0  0  0  0  0  0  0  0
  -29.6236  -27.7544   20.6159 O   0  0  0  0  0  0  0  0  0  0  0  0
  -23.0067  -14.8501   21.0989 O   0  0  0  0  0  0  0  0  0  0  0  0
  -20.3422  -16.7850   22.9296 O   0  0  0  0  0  0  0  0  0  0  0  0
  -23.4802  -19.7976   24.8263 O   0  0  0  0  0  0  0  0  0  0  0  0
  -25.5070  -19.7242   18.5103 O   0  0  0  0  0  0  0  0  0  0  0  0
  -23.3094  -32.1018   21.9642 O   0  0  0  0  0  0  0  0  0  0  0  0
  -28.4333  -15.1267   24.8379 O   0  0  0  0  0  0  0  0  0  1  0  0
  -28.3249  -16.1518   19.3139 O   0  0  0  0  0  0  0  0  0  0  0  0
  -24.7742  -34.1463   26.8712 F   0  0  0  0  0  0  0  0  0  0  0  0
  -25.8994  -32.9477   22.4324 F   0  0  0  0  0  0  0  0  0  0  0  0
  1  2  1  0  0  0  0
  1  6  2  0  0  0  0
  2  7  2  0  0  0  0
  3 10  2  0  0  0  0
  3 18  1  0  0  0  0
  4 11  1  0  0  0  0
  4 18  2  0  0  0  0
  5  9  2  0  0  0  0
  5 19  1  0  0  0  0
  6 21  1  0  0  0  0
  7 23  1  0  0  0  0
  8 12  2  0  0  0  0
  8 22  1  0  0  0  0
  9 25  1  0  0  0  0
 10 26  1  0  0  0  0
 11 26  2  0  0  0  0
 12 27  1  0  0  0  0
 13 14  2  0  0  0  0
 13 28  1  0  0  0  0
 14 30  1  0  0  0  0
 15 24  1  0  0  0  0
 15 27  2  0  0  0  0
 16 25  2  0  0  0  0
 16 29  1  0  0  0  0
 17 30  2  0  0  0  0
 17 31  1  0  0  0  0
 18 32  1  0  0  0  0
 19 29  2  0  0  0  0
 19 36  1  0  0  0  0
 20 32  1  0  0  0  0
 20 33  2  0  0  0  0
 20 37  1  0  0  0  0
 21 23  2  0  0  0  0
 21 42  1  0  0  0  0
 22 24  2  0  0  0  0
 22 43  1  0  0  0  0
 23 51  1  0  0  0  0
 24 44  1  0  0  0  0
 25 73  1  0  0  0  0
 26 82  1  0  0  0  0
 27 83  1  0  0  0  0
 28 31  2  0  0  0  0
 28 82  1  0  0  0  0
 29 84  1  0  0  0  0
 30 85  1  0  0  0  0
 31 86  1  0  0  0  0
 32 66  2  0  0  0  0
 33 68  1  0  0  0  0
 33 71  1  0  0  0  0
 34 35  2  0  0  0  0
 34 36  1  0  0  0  0
 35 60  1  0  0  0  0
 36 67  2  0  0  0  0
 37 72  1  0  0  0  0
 37 77  2  0  0  0  0
 38 52  1  0  0  0  0
 38 74  1  0  0  0  0
 38 78  2  0  0  0  0
 39 63  1  0  0  0  0
 39 69  1  0  0  0  0
 39 79  2  0  0  0  0
 40 64  1  0  0  0  0
 40 75  1  0  0  0  0
 40 80  2  0  0  0  0
 41 70  1  0  0  0  0
 41 73  1  0  0  0  0
 41 81  2  0  0  0  0
 42 45  1  0  0  0  0
 43 52  1  0  0  0  0
 44 69  1  0  0  0  0
 45 47  1  0  0  0  0
 46 48  1  0  0  0  0
 46 49  1  0  0  0  0
 47 51  1  0  0  0  0
 48 53  1  0  0  0  0
 49 70  1  0  0  0  0
 50 53  1  0  0  0  0
 50 70  1  0  0  0  0
 51 74  1  0  0  0  0
 52 69  1  0  0  0  0
 53 68  1  0  0  0  0
 54 61  1  0  0  0  0
 55 64  1  0  0  0  0
 56 65  1  0  0  0  0
 57 65  1  0  0  0  0
 58 65  1  0  0  0  0
 59 76  1  0  0  0  0
 60 62  1  0  0  0  0
 61 84  1  0  0  0  0
 62 83  1  0  0  0  0
 63 65  1  0  0  0  0
 63 75  1  0  0  0  0
 64 76  1  0  0  0  0
 66 68  1  0  0  0  0
M  CHG  1  76   1
M  ISO  4  41 100  62 101  73 100  83 101
M  END
> <Batch ID>
0120

> <Smiles>
CCOc1cc([100NH:0][100C:0](=O)N2CCCC(n3nc(-c4ccc(Oc5ccc(F)cc5F)cc4)c(C(N)=O)c3N)C2)ccc1C(=N)C=CC[101CH2:1][101O:1]c1ccc2c(c1)CN(C(=O)C(NC(=O)C(C)NC)C(C)(C)C)C(C(=O)NC1CCCc3ccccc31)C2

> <Shape>
0.218

> <Color>
0.070

> <Negative vol penalty>
0.000

$$$$

  -OEChem-04052301543D

 85 93  0     1  0  0  0  0  0999 V2000
  -32.3325  -33.6474   21.5053 C   0  0  0  0  0  0  0  0  0  0  0  0
  -32.1659  -32.3932   20.9269 C   0  0  0  0  0  0  0  0  0  0  0  0
  -22.9688  -10.0003   20.2556 C   0  0  0  0  0  0  0  0  0  0  0  0
  -24.4190   -9.2449   22.0341 C   0  0  0  0  0  0  0  0  0  0  0  0
  -27.9976  -17.8159   23.4488 C   0  0  0  0  0  0  0  0  0  0  0  0
  -31.5247  -34.0338   22.5740 C   0  0  0  0  0  0  0  0  0  0  0  0
  -31.1920  -31.5241   21.4176 C   0  0  0  0  0  0  0  0  0  0  0  0
  -27.8421  -27.5453   18.1845 C   0  0  0  0  0  0  0  0  0  0  0  0
  -22.3174   -8.7669   20.2628 C   0  0  0  0  0  0  0  0  0  0  0  0
  -23.7676   -8.0115   22.0414 C   0  0  0  0  0  0  0  0  0  0  0  0
  -27.9843  -18.8229   22.4838 C   0  0  0  0  0  0  0  0  0  0  0  0
  -27.9694  -26.1748   17.9624 C   0  0  0  0  0  0  0  0  0  0  0  0
  -20.8820   -6.7274   23.2435 C   0  0  0  0  0  0  0  0  0  0  0  0
  -20.5363   -6.1860   24.4816 C   0  0  0  0  0  0  0  0  0  0  0  0
  -29.5273  -17.5473   21.1313 C   0  0  0  0  0  0  0  0  0  0  0  0
  -26.4158  -25.7457   19.7572 C   0  0  0  0  0  0  0  0  0  0  0  0
  -21.9037   -4.2493   24.0165 C   0  0  0  0  0  0  0  0  0  0  0  0
  -24.0196  -10.2393   21.1412 C   0  0  0  0  0  0  0  0  0  0  0  0
  -28.7758  -16.6745   23.2551 C   0  0  0  0  0  0  0  0  0  0  0  0
  -29.5406  -16.5402   22.0963 C   0  0  0  0  0  0  0  0  0  0  0  0
  -24.3621  -12.6541   21.8888 C   0  0  0  0  0  0  0  0  0  0  0  0
  -30.5340  -33.1728   23.0718 C   0  0  0  0  0  0  0  0  0  0  0  0
  -27.0076  -28.0267   19.2035 C   0  0  0  0  0  0  0  0  0  0  0  0
  -30.3711  -31.8989   22.4948 C   0  0  0  0  0  0  0  0  0  0  0  0
  -26.2776  -27.1228   19.9886 C   0  0  0  0  0  0  0  0  0  0  0  0
  -22.7168   -7.7725   21.1557 C   0  0  0  0  0  0  0  0  0  0  0  0
  -28.7491  -18.6886   21.3250 C   0  0  0  0  0  0  0  0  0  0  0  0
  -27.2585  -25.2747   18.7507 C   0  0  0  0  0  0  0  0  0  0  0  0
  -21.7385   -6.0297   22.3917 C   0  0  0  0  0  0  0  0  0  0  0  0
  -21.0472   -4.9470   24.8681 C   0  0  0  0  0  0  0  0  0  0  0  0
  -22.2493   -4.7907   22.7783 C   0  0  0  0  0  0  0  0  0  0  0  0
  -24.6932  -11.5130   21.1339 C   0  0  0  0  0  0  0  0  0  0  0  0
  -25.2984  -13.5906   21.5243 C   0  0  0  0  0  0  0  0  0  0  0  0
  -29.1156  -15.8621   25.5442 C   0  0  0  0  0  0  0  0  0  0  0  0
  -28.7675  -15.6433   24.2855 C   0  0  0  0  0  0  0  0  0  0  0  0
  -30.3680  -15.3639   21.8556 C   0  0  0  0  0  0  0  0  0  0  0  0
  -23.3029  -12.8501   22.8351 C   0  0  0  0  0  0  0  0  0  0  0  0
  -30.6398  -14.8840   20.4811 C   0  0  0  0  0  0  0  0  0  0  0  0
  -27.4536  -29.7240   21.8538 C   0  0  0  0  0  0  0  0  0  0  0  0
  -28.0280  -21.8115   19.4997 C   0  0  0  0  0  0  0  0  0  0  0  0
  -24.2129  -29.6537   21.9784 C   0  0  0  0  0  0  0  0  0  0  0  0
  -21.3124  -28.0931   21.0851 C   0  0  0  0  0  0  0  0  0  0  0  0
  -29.7167  -33.6163   24.2593 C   0  0  0  0  0  0  0  0  0  0  0  0
  -26.8606  -29.5089   19.4129 C   0  0  0  0  0  0  0  0  0  0  0  0
  -25.3528  -27.5892   21.0820 C   0  0  0  0  0  0  0  0  0  0  0  0
  -28.4567  -32.7824   24.4771 C   0  0  0  0  0  0  0  0  0  0  0  0
  -28.6765  -13.5974   17.7706 C   0  0  0  0  0  0  0  0  0  0  0  0
  -28.7773  -31.2945   24.3764 C   0  0  0  0  0  0  0  0  0  0  0  0
  -27.4566  -12.9996   18.4709 C   0  0  0  0  0  0  0  0  0  0  0  0
  -29.9376  -13.4389   18.6137 C   0  0  0  0  0  0  0  0  0  0  0  0
  -28.5951  -13.4097   20.6983 C   0  0  0  0  0  0  0  0  0  0  0  0
  -29.3090  -30.9377   22.9830 C   0  0  1  0  0  0  0  0  0  0  0  0
  -26.3782  -29.8694   20.8145 C   0  0  1  0  0  0  0  0  0  0  0  0
  -27.2969  -13.5754   19.8892 C   0  0  2  0  0  0  0  0  0  0  0  0
  -18.8238  -28.2483   21.3685 C   0  0  0  0  0  0  0  0  0  0  0  0
  -24.4705  -28.5626   24.8162 C   0  0  0  0  0  0  0  0  0  0  0  0
  -22.0718  -27.8569   24.6880 C   0  0  0  0  0  0  0  0  0  0  0  0
  -22.6704  -30.2724   24.5154 C   0  0  0  0  0  0  0  0  0  0  0  0
  -20.8840  -28.4106   18.1740 C   0  0  0  0  0  0  0  0  0  0  0  0
  -27.9265  -20.8095   20.6315 C   0  0  0  0  0  0  0  0  0  0  0  0
  -27.2168  -23.0800   19.6659 C   0  0  0  0  0  0  0  0  0  1  0  0
  -23.1861  -28.7265   22.5825 C   0  0  1  0  0  0  0  0  0  0  0  0
  -20.0163  -28.6308   20.5058 C   0  0  2  0  0  0  0  0  0  0  0  0
  -23.1185  -28.8454   24.1313 C   0  0  0  0  0  0  0  0  0  0  0  0
  -25.7567  -11.7048   20.3489 N   0  0  0  0  0  0  0  0  0  0  0  0
  -30.9157  -14.6695   22.8133 N   0  0  0  0  0  0  0  0  0  0  0  0
  -26.1019  -12.9774   20.6085 N   0  0  0  0  0  0  0  0  0  0  0  0
  -29.7401  -13.9625   19.9639 N   0  0  0  0  0  0  0  0  0  0  0  0
  -25.2478  -29.0478   21.2520 N   0  0  0  0  0  0  0  0  0  0  0  0
  -25.5045  -14.8705   21.9008 N   0  0  0  0  0  0  0  0  0  0  0  0
  -22.4308  -11.7835   23.0922 N   0  0  0  0  0  0  0  0  0  0  0  0
  -28.2211  -30.8592   22.0318 N   0  0  0  0  0  0  0  0  0  0  0  0
  -21.9266  -29.0156   21.9055 N   0  0  0  0  0  0  0  0  0  0  0  0
  -19.7976  -28.0889   19.1348 N   0  3  0  0  0  0  0  0  0  0  0  0
  -23.1249  -13.9440   23.4227 O   0  0  0  0  0  0  0  0  0  0  0  0
  -31.6350  -15.3541   19.9456 O   0  0  0  0  0  0  0  0  0  0  0  0
  -27.5768  -28.6611   22.4510 O   0  0  0  0  0  0  0  0  0  0  0  0
  -28.7254  -21.6072   18.5073 O   0  0  0  0  0  0  0  0  0  0  0  0
  -24.0970  -30.8713   22.1390 O   0  0  0  0  0  0  0  0  0  0  0  0
  -21.7355  -26.9660   20.8378 O   0  0  0  0  0  0  0  0  0  0  0  0
  -22.0813   -6.5689   21.1632 O   0  0  0  0  0  0  0  0  0  0  0  0
  -28.7354  -19.6813   20.3739 O   0  0  0  0  0  0  0  0  0  0  0  0
  -27.3815  -23.9364   18.5364 O   0  0  0  0  0  0  0  0  0  1  0  0
  -20.7164   -4.4279   26.0578 F   0  0  0  0  0  0  0  0  0  0  0  0
  -23.0735   -4.1163   21.9648 F   0  0  0  0  0  0  0  0  0  0  0  0
  1  2  1  0  0  0  0
  1  6  2  0  0  0  0
  2  7  2  0  0  0  0
  3  9  2  0  0  0  0
  3 18  1  0  0  0  0
  4 10  1  0  0  0  0
  4 18  2  0  0  0  0
  5 11  2  0  0  0  0
  5 19  1  0  0  0  0
  6 22  1  0  0  0  0
  7 24  1  0  0  0  0
  8 12  2  0  0  0  0
  8 23  1  0  0  0  0
  9 26  1  0  0  0  0
 10 26  2  0  0  0  0
 11 27  1  0  0  0  0
 12 28  1  0  0  0  0
 13 14  2  0  0  0  0
 13 29  1  0  0  0  0
 14 30  1  0  0  0  0
 15 20  1  0  0  0  0
 15 27  2  0  0  0  0
 16 25  1  0  0  0  0
 16 28  2  0  0  0  0
 17 30  2  0  0  0  0
 17 31  1  0  0  0  0
 18 32  1  0  0  0  0
 19 20  2  0  0  0  0
 19 35  1  0  0  0  0
 20 36  1  0  0  0  0
 21 32  1  0  0  0  0
 21 33  2  0  0  0  0
 21 37  1  0  0  0  0
 22 24  2  0  0  0  0
 22 43  1  0  0  0  0
 23 25  2  0  0  0  0
 23 44  1  0  0  0  0
 24 52  1  0  0  0  0
 25 45  1  0  0  0  0
 26 81  1  0  0  0  0
 27 82  1  0  0  0  0
 28 83  1  0  0  0  0
 29 31  2  0  0  0  0
 29 81  1  0  0  0  0
 30 84  1  0  0  0  0
 31 85  1  0  0  0  0
 32 65  2  0  0  0  0
 33 67  1  0  0  0  0
 33 70  1  0  0  0  0
 34 35  2  0  0  0  0
 36 38  1  0  0  0  0
 36 66  2  0  0  0  0
 37 71  1  0  0  0  0
 37 75  2  0  0  0  0
 38 68  1  0  0  0  0
 38 76  2  0  0  0  0
 39 53  1  0  0  0  0
 39 72  1  0  0  0  0
 39 77  2  0  0  0  0
 40 60  1  0  0  0  0
 40 61  1  0  0  0  0
 40 78  2  0  0  0  0
 41 62  1  0  0  0  0
 41 69  1  0  0  0  0
 41 79  2  0  0  0  0
 42 63  1  0  0  0  0
 42 73  1  0  0  0  0
 42 80  2  0  0  0  0
 43 46  1  0  0  0  0
 44 53  1  0  0  0  0
 45 69  1  0  0  0  0
 46 48  1  0  0  0  0
 47 49  1  0  0  0  0
 47 50  1  0  0  0  0
 48 52  1  0  0  0  0
 49 54  1  0  0  0  0
 50 68  1  0  0  0  0
 51 54  1  0  0  0  0
 51 68  1  0  0  0  0
 52 72  1  0  0  0  0
 53 69  1  0  0  0  0
 54 67  1  0  0  0  0
 55 63  1  0  0  0  0
 56 64  1  0  0  0  0
 57 64  1  0  0  0  0
 58 64  1  0  0  0  0
 59 74  1  0  0  0  0
 60 82  1  0  0  0  0
 61 83  1  0  0  0  0
 62 64  1  0  0  0  0
 62 73  1  0  0  0  0
 63 74  1  0  0  0  0
 65 67  1  0  0  0  0
M  CHG  1  74   1
M  ISO  4  36 100  38 100  61 101  83 101
M  END
> <Batch ID>
0120

> <Smiles>
C=Cc1ccc(OCC(=O)[101CH2:1][101O:1]c2ccc3c(c2)CN(C(=O)C(NC(=O)C(C)NC)C(C)(C)C)C(C(=O)NC2CCCc4ccccc42)C3)cc1[100C:0](=N)[100C:0](=O)N1CCCC(n2nc(-c3ccc(Oc4ccc(F)cc4F)cc3)c(C(N)=O)c2N)C1

> <Shape>
0.312

> <Color>
0.148

> <Negative vol penalty>
0.000

$$$$

  -OEChem-04052301543D

 85 93  0     1  0  0  0  0  0999 V2000
  -34.7445  -32.4443   18.6838 C   0  0  0  0  0  0  0  0  0  0  0  0
  -33.4639  -32.6525   19.1859 C   0  0  0  0  0  0  0  0  0  0  0  0
  -27.6594  -13.2351   18.6940 C   0  0  0  0  0  0  0  0  0  0  0  0
  -28.0847  -13.3715   21.0683 C   0  0  0  0  0  0  0  0  0  0  0  0
  -17.2199  -21.5199   18.5453 C   0  0  0  0  0  0  0  0  0  0  0  0
  -16.5364  -22.7353   18.5770 C   0  0  0  0  0  0  0  0  0  0  0  0
  -34.9712  -31.4298   17.7546 C   0  0  0  0  0  0  0  0  0  0  0  0
  -32.4090  -31.8471   18.7582 C   0  0  0  0  0  0  0  0  0  0  0  0
  -26.2846  -28.9604   21.0981 C   0  0  0  0  0  0  0  0  0  0  0  0
  -28.9506  -12.7482   18.4906 C   0  0  0  0  0  0  0  0  0  0  0  0
  -29.3759  -12.8845   20.8650 C   0  0  0  0  0  0  0  0  0  0  0  0
  -24.9370  -28.8673   20.7533 C   0  0  0  0  0  0  0  0  0  0  0  0
  -32.9050  -12.0178   20.9314 C   0  0  0  0  0  0  0  0  0  0  0  0
  -33.9511  -12.6564   21.5973 C   0  0  0  0  0  0  0  0  0  0  0  0
  -19.2753  -22.6611   19.1021 C   0  0  0  0  0  0  0  0  0  0  0  0
  -25.4619  -27.0942   19.2042 C   0  0  0  0  0  0  0  0  0  0  0  0
  -33.4020  -14.7250   20.4763 C   0  0  0  0  0  0  0  0  0  0  0  0
  -27.2265  -13.5468   19.9829 C   0  0  0  0  0  0  0  0  0  0  0  0
  -18.5894  -21.4828   18.8079 C   0  0  0  0  0  0  0  0  0  0  0  0
  -17.2223  -23.9137   18.8713 C   0  0  0  0  0  0  0  0  0  0  0  0
  -24.7301  -13.2980   20.4452 C   0  0  0  0  0  0  0  0  0  0  0  0
  -33.9204  -30.6054   17.3225 C   0  0  0  0  0  0  0  0  0  0  0  0
  -27.2342  -28.1271   20.4895 C   0  0  0  0  0  0  0  0  0  0  0  0
  -32.6216  -30.8216   17.8213 C   0  0  0  0  0  0  0  0  0  0  0  0
  -26.8207  -27.1769   19.5449 C   0  0  0  0  0  0  0  0  0  0  0  0
  -29.8088  -12.5729   19.5761 C   0  0  0  0  0  0  0  0  0  0  0  0
  -24.5258  -27.9361   19.8041 C   0  0  0  0  0  0  0  0  0  0  0  0
  -32.1074  -12.7328   20.0378 C   0  0  0  0  0  0  0  0  0  0  0  0
  -18.5918  -23.8766   19.1339 C   0  0  0  0  0  0  0  0  0  0  0  0
  -34.1996  -14.0100   21.3698 C   0  0  0  0  0  0  0  0  0  0  0  0
  -32.3559  -14.0864   19.8103 C   0  0  0  0  0  0  0  0  0  0  0  0
  -25.8930  -14.0504   20.1935 C   0  0  0  0  0  0  0  0  0  0  0  0
  -23.7347  -14.2360   20.5706 C   0  0  0  0  0  0  0  0  0  0  0  0
  -15.4904  -25.4195   19.7363 C   0  0  0  0  0  0  0  0  0  0  0  0
  -19.3017  -20.2151   18.7747 C   0  0  0  0  0  0  0  0  0  0  0  0
  -16.4856  -25.1702   18.8984 C   0  0  0  0  0  0  0  0  0  0  0  0
  -20.6361  -20.0700   18.6292 C   0  0  0  0  0  0  0  0  0  0  0  0
  -24.5645  -11.8781   20.5560 C   0  0  0  0  0  0  0  0  0  0  0  0
  -21.2131  -18.7107   18.6251 C   0  0  0  0  0  0  0  0  0  0  0  0
  -29.7902  -28.6008   18.6602 C   0  0  0  0  0  0  0  0  0  0  0  0
  -21.2741  -26.3921   19.4192 C   0  0  0  0  0  0  0  0  0  0  0  0
  -30.1700  -25.4014   19.0370 C   0  0  0  0  0  0  0  0  0  0  0  0
  -28.7459  -22.3745   19.7128 C   0  0  0  0  0  0  0  0  0  0  0  0
  -34.2051  -29.5523   16.2810 C   0  0  0  0  0  0  0  0  0  0  0  0
  -28.6804  -28.2216   20.8919 C   0  0  0  0  0  0  0  0  0  0  0  0
  -27.7977  -26.2451   18.8772 C   0  0  0  0  0  0  0  0  0  0  0  0
  -33.1050  -28.5008   16.1614 C   0  0  0  0  0  0  0  0  0  0  0  0
  -23.9574  -19.2563   20.9922 C   0  0  0  0  0  0  0  0  0  0  0  0
  -31.7333  -29.1664   16.1134 C   0  0  0  0  0  0  0  0  0  0  0  0
  -24.6372  -17.8898   20.9737 C   0  0  0  0  0  0  0  0  0  0  0  0
  -23.3756  -19.6240   19.6280 C   0  0  0  0  0  0  0  0  0  0  0  0
  -23.1308  -17.2248   19.0583 C   0  0  0  0  0  0  0  0  0  0  0  0
  -31.4563  -29.9528   17.4004 C   0  0  1  0  0  0  0  0  0  0  0  0
  -29.6324  -27.6746   19.8328 C   0  0  1  0  0  0  0  0  0  0  0  0
  -23.6822  -16.8141   20.4326 C   0  0  1  0  0  0  0  0  0  0  0  0
  -29.3031  -19.9358   19.9118 C   0  0  0  0  0  0  0  0  0  0  0  0
  -30.2967  -25.1847   15.9961 C   0  0  0  0  0  0  0  0  0  0  0  0
  -29.8961  -22.7239   16.2244 C   0  0  0  0  0  0  0  0  0  0  0  0
  -31.9436  -23.7496   17.2138 C   0  0  0  0  0  0  0  0  0  0  0  0
  -27.9089  -22.2959   22.5504 C   0  0  0  0  0  0  0  0  0  0  0  0
  -22.7347  -26.5627   19.0548 C   0  0  0  0  0  0  0  0  0  1  0  0
  -20.6528  -25.0604   19.0511 C   0  0  0  0  0  0  0  0  0  0  0  0
  -29.6981  -24.1741   18.2953 C   0  0  1  0  0  0  0  0  0  0  0  0
  -29.1565  -21.2556   20.6530 C   0  0  2  0  0  0  0  0  0  0  0  0
  -30.4402  -23.9768   16.9434 C   0  0  0  0  0  0  0  0  0  0  0  0
  -25.6595  -15.3651   20.1604 N   0  0  0  0  0  0  0  0  0  0  0  0
  -24.3383  -15.4461   20.3928 N   0  0  0  0  0  0  0  0  0  0  0  0
  -22.5122  -18.5544   19.1051 N   0  0  0  0  0  0  0  0  0  0  0  0
  -29.2015  -26.3806   19.2997 N   0  0  0  0  0  0  0  0  0  0  0  0
  -22.4107  -14.1356   20.8142 N   0  0  0  0  0  0  0  0  0  0  0  0
  -25.6916  -11.0598   20.4003 N   0  0  0  0  0  0  0  0  0  0  0  0
  -31.0818  -29.0540   18.4711 N   0  0  0  0  0  0  0  0  0  0  0  0
  -29.8393  -23.0571   19.2231 N   0  0  0  0  0  0  0  0  0  0  0  0
  -28.1376  -21.0810   21.7265 N   0  3  0  0  0  0  0  0  0  0  0  0
  -23.4471  -11.3498   20.7699 O   0  0  0  0  0  0  0  0  0  0  0  0
  -20.5102  -17.7959   18.1917 O   0  0  0  0  0  0  0  0  0  0  0  0
  -28.8128  -28.8822   17.9768 O   0  0  0  0  0  0  0  0  0  0  0  0
  -20.6326  -27.2800   19.9788 O   0  0  0  0  0  0  0  0  0  0  0  0
  -31.3528  -25.4849   19.3772 O   0  0  0  0  0  0  0  0  0  0  0  0
  -27.5728  -22.6163   19.4372 O   0  0  0  0  0  0  0  0  0  0  0  0
  -31.0687  -12.0976   19.3781 O   0  0  0  0  0  0  0  0  0  0  0  0
  -23.2111  -27.8437   19.4653 O   0  0  0  0  0  0  0  0  0  1  0  0
  -19.2920  -25.0231   19.4262 O   0  0  0  0  0  0  0  0  0  0  0  0
  -35.2032  -14.6235   22.0106 F   0  0  0  0  0  0  0  0  0  0  0  0
  -31.5923  -14.7787   18.9540 F   0  0  0  0  0  0  0  0  0  0  0  0
  1  2  1  0  0  0  0
  1  7  2  0  0  0  0
  2  8  2  0  0  0  0
  3 10  2  0  0  0  0
  3 18  1  0  0  0  0
  4 11  1  0  0  0  0
  4 18  2  0  0  0  0
  5  6  2  0  0  0  0
  5 19  1  0  0  0  0
  6 20  1  0  0  0  0
  7 22  1  0  0  0  0
  8 24  1  0  0  0  0
  9 12  2  0  0  0  0
  9 23  1  0  0  0  0
 10 26  1  0  0  0  0
 11 26  2  0  0  0  0
 12 27  1  0  0  0  0
 13 14  2  0  0  0  0
 13 28  1  0  0  0  0
 14 30  1  0  0  0  0
 15 19  2  0  0  0  0
 15 29  1  0  0  0  0
 16 25  1  0  0  0  0
 16 27  2  0  0  0  0
 17 30  2  0  0  0  0
 17 31  1  0  0  0  0
 18 32  1  0  0  0  0
 19 35  1  0  0  0  0
 20 29  2  0  0  0  0
 20 36  1  0  0  0  0
 21 32  1  0  0  0  0
 21 33  2  0  0  0  0
 21 38  1  0  0  0  0
 22 24  2  0  0  0  0
 22 44  1  0  0  0  0
 23 25  2  0  0  0  0
 23 45  1  0  0  0  0
 24 53  1  0  0  0  0
 25 46  1  0  0  0  0
 26 81  1  0  0  0  0
 27 82  1  0  0  0  0
 28 31  2  0  0  0  0
 28 81  1  0  0  0  0
 29 83  1  0  0  0  0
 30 84  1  0  0  0  0
 31 85  1  0  0  0  0
 32 66  2  0  0  0  0
 33 67  1  0  0  0  0
 33 70  1  0  0  0  0
 34 36  2  0  0  0  0
 35 37  2  0  0  0  0
 37 39  1  0  0  0  0
 38 71  1  0  0  0  0
 38 75  2  0  0  0  0
 39 68  1  0  0  0  0
 39 76  2  0  0  0  0
 40 54  1  0  0  0  0
 40 72  1  0  0  0  0
 40 77  2  0  0  0  0
 41 61  1  0  0  0  0
 41 62  1  0  0  0  0
 41 78  2  0  0  0  0
 42 63  1  0  0  0  0
 42 69  1  0  0  0  0
 42 79  2  0  0  0  0
 43 64  1  0  0  0  0
 43 73  1  0  0  0  0
 43 80  2  0  0  0  0
 44 47  1  0  0  0  0
 45 54  1  0  0  0  0
 46 69  1  0  0  0  0
 47 49  1  0  0  0  0
 48 50  1  0  0  0  0
 48 51  1  0  0  0  0
 49 53  1  0  0  0  0
 50 55  1  0  0  0  0
 51 68  1  0  0  0  0
 52 55  1  0  0  0  0
 52 68  1  0  0  0  0
 53 72  1  0  0  0  0
 54 69  1  0  0  0  0
 55 67  1  0  0  0  0
 56 64  1  0  0  0  0
 57 65  1  0  0  0  0
 58 65  1  0  0  0  0
 59 65  1  0  0  0  0
 60 74  1  0  0  0  0
 61 82  1  0  0  0  0
 62 83  1  0  0  0  0
 63 65  1  0  0  0  0
 63 73  1  0  0  0  0
 64 74  1  0  0  0  0
 66 67  1  0  0  0  0
M  CHG  1  74   1
M  ISO  4  37 100  39 100  61 101  82 101
M  END
> <Batch ID>
0120

> <Smiles>
C=Cc1ccc(C=[100CH:0][100C:0](=O)N2CCCC(n3nc(-c4ccc(Oc5ccc(F)cc5F)cc4)c(C(N)=O)c3N)C2)cc1OCC(=O)[101CH2:1][101O:1]c1ccc2c(c1)CN(C(=O)C(NC(=O)C(C)NC)C(C)(C)C)C(C(=O)NC1CCCc3ccccc31)C2

> <Shape>
0.223

> <Color>
0.079

> <Negative vol penalty>
0.000

$$$$

  -OEChem-04052301543D

 83 91  0     1  0  0  0  0  0999 V2000
  -25.6465  -37.5556   21.5639 C   0  0  0  0  0  0  0  0  0  0  0  0
  -26.3717  -36.4488   21.1346 C   0  0  0  0  0  0  0  0  0  0  0  0
  -24.0290   -7.4218   23.3415 C   0  0  0  0  0  0  0  0  0  0  0  0
  -22.8250   -7.0962   21.2723 C   0  0  0  0  0  0  0  0  0  0  0  0
  -29.9782  -18.4823   18.9527 C   0  0  0  0  0  0  0  0  0  0  0  0
  -24.7420  -37.4290   22.6174 C   0  0  0  0  0  0  0  0  0  0  0  0
  -26.1937  -35.2149   21.7592 C   0  0  0  0  0  0  0  0  0  0  0  0
  -26.4328  -29.6889   19.1300 C   0  0  0  0  0  0  0  0  0  0  0  0
  -23.1330   -6.5767   23.9960 C   0  0  0  0  0  0  0  0  0  0  0  0
  -21.9289   -6.2509   21.9268 C   0  0  0  0  0  0  0  0  0  0  0  0
  -27.4410  -28.7289   19.0546 C   0  0  0  0  0  0  0  0  0  0  0  0
  -21.8572   -3.0451   22.9935 C   0  0  0  0  0  0  0  0  0  0  0  0
  -21.5158   -1.8499   22.3606 C   0  0  0  0  0  0  0  0  0  0  0  0
  -30.1216  -19.8402   18.6904 C   0  0  0  0  0  0  0  0  0  0  0  0
  -26.4849  -27.5846   20.9508 C   0  0  0  0  0  0  0  0  0  0  0  0
  -19.1959   -2.5241   22.3389 C   0  0  0  0  0  0  0  0  0  0  0  0
  -28.3452  -19.0249   20.5944 C   0  0  0  0  0  0  0  0  0  0  0  0
  -23.8750   -7.6817   21.9797 C   0  0  0  0  0  0  0  0  0  0  0  0
  -29.0752  -18.0585   19.9213 C   0  0  0  0  0  0  0  0  0  0  0  0
  -25.9994   -8.1909   20.6623 C   0  0  0  0  0  0  0  0  0  0  0  0
  -24.5457  -36.1908   23.2489 C   0  0  0  0  0  0  0  0  0  0  0  0
  -25.4477  -29.6099   20.1248 C   0  0  0  0  0  0  0  0  0  0  0  0
  -25.2867  -35.0719   22.8230 C   0  0  0  0  0  0  0  0  0  0  0  0
  -25.4638  -28.5435   21.0351 C   0  0  0  0  0  0  0  0  0  0  0  0
  -22.0830   -5.9912   23.2886 C   0  0  0  0  0  0  0  0  0  0  0  0
  -27.4688  -27.6782   19.9668 C   0  0  0  0  0  0  0  0  0  0  0  0
  -20.8679   -3.9798   23.2992 C   0  0  0  0  0  0  0  0  0  0  0  0
  -20.1852   -1.5894   22.0333 C   0  0  0  0  0  0  0  0  0  0  0  0
  -19.5373   -3.7193   22.9718 C   0  0  0  0  0  0  0  0  0  0  0  0
  -24.8000   -8.5551   21.3032 C   0  0  0  0  0  0  0  0  0  0  0  0
  -29.3446  -20.7268   19.4184 C   0  0  0  0  0  0  0  0  0  0  0  0
  -26.5045   -9.3741   20.1812 C   0  0  0  0  0  0  0  0  0  0  0  0
  -28.9033  -16.6485   20.2185 C   0  0  0  0  0  0  0  0  0  0  0  0
  -27.8308  -16.0989   20.8313 C   0  0  0  0  0  0  0  0  0  0  0  0
  -26.6029   -6.8987   20.5151 C   0  0  0  0  0  0  0  0  0  0  0  0
  -27.7995  -14.6396   21.0548 C   0  0  0  0  0  0  0  0  0  0  0  0
  -24.5562  -31.4601   22.5509 C   0  0  0  0  0  0  0  0  0  0  0  0
  -28.9274  -24.3881   19.5748 C   0  0  0  0  0  0  0  0  0  0  0  0
  -22.1645  -29.2855   22.8217 C   0  0  0  0  0  0  0  0  0  0  0  0
  -21.0519  -26.1138   22.2307 C   0  0  0  0  0  0  0  0  0  0  0  0
  -23.5917  -36.1135   24.4145 C   0  0  0  0  0  0  0  0  0  0  0  0
  -24.3516  -30.6386   20.1761 C   0  0  0  0  0  0  0  0  0  0  0  0
  -24.4177  -28.4019   22.1094 C   0  0  0  0  0  0  0  0  0  0  0  0
  -23.1867  -34.6869   24.7766 C   0  0  0  0  0  0  0  0  0  0  0  0
  -24.4208  -13.9515   19.8129 C   0  0  0  0  0  0  0  0  0  0  0  0
  -24.4125  -33.7804   24.8264 C   0  0  0  0  0  0  0  0  0  0  0  0
  -24.3066  -12.4542   20.0865 C   0  0  0  0  0  0  0  0  0  0  0  0
  -25.2532  -14.6653   20.8769 C   0  0  0  0  0  0  0  0  0  0  0  0
  -26.4919  -12.5715   21.3478 C   0  0  0  0  0  0  0  0  0  0  0  0
  -25.1032  -33.7110   23.4590 C   0  0  1  0  0  0  0  0  0  0  0  0
  -23.6950  -30.7442   21.5491 C   0  0  1  0  0  0  0  0  0  0  0  0
  -25.6978  -11.8257   20.2640 C   0  0  1  0  0  0  0  0  0  0  0  0
  -19.0697  -24.6203   22.6021 C   0  0  0  0  0  0  0  0  0  0  0  0
  -22.9624  -28.9583   25.7485 C   0  0  0  0  0  0  0  0  0  0  0  0
  -21.6319  -26.8381   25.8018 C   0  0  0  0  0  0  0  0  0  0  0  0
  -20.4958  -29.0102   25.3392 C   0  0  0  0  0  0  0  0  0  0  0  0
  -20.6388  -25.7449   19.3235 C   0  0  0  0  0  0  0  0  0  0  0  0
  -28.1265  -25.4230   20.3381 C   0  0  0  0  0  0  0  0  0  1  0  0
  -28.6581  -22.9429   19.9409 C   0  0  0  0  0  0  0  0  0  0  0  0
  -21.9805  -27.9860   23.5676 C   0  0  1  0  0  0  0  0  0  0  0  0
  -19.7478  -25.5952   21.6521 C   0  0  2  0  0  0  0  0  0  0  0  0
  -21.7886  -28.2016   25.0953 C   0  0  0  0  0  0  0  0  0  0  0  0
  -28.4570  -20.3528   20.3671 N   0  0  0  0  0  0  0  0  0  0  0  0
  -24.5578   -9.8669   21.2371 N   0  0  0  0  0  0  0  0  0  0  0  0
  -25.6120  -10.3375   20.5491 N   0  0  0  0  0  0  0  0  0  0  0  0
  -26.5558  -14.0107   21.0699 N   0  0  0  0  0  0  0  0  0  0  0  0
  -23.3703  -29.4364   22.1224 N   0  0  0  0  0  0  0  0  0  0  0  0
  -27.6207   -9.6739   19.4837 N   0  0  0  0  0  0  0  0  0  0  0  0
  -25.9505   -5.7894   21.0702 N   0  0  0  0  0  0  0  0  0  0  0  0
  -24.3767  -32.8301   22.5699 N   0  0  0  0  0  0  0  0  0  0  0  0
  -20.8716  -27.2957   22.9176 N   0  0  0  0  0  0  0  0  0  0  0  0
  -19.9963  -24.8961   20.3597 N   0  3  0  0  0  0  0  0  0  0  0  0
  -27.6968   -6.7350   19.9234 O   0  0  0  0  0  0  0  0  0  0  0  0
  -28.8779  -14.0663   21.2196 O   0  0  0  0  0  0  0  0  0  0  0  0
  -25.3253  -30.8170   23.2555 O   0  0  0  0  0  0  0  0  0  0  0  0
  -29.7458  -24.7019   18.7119 O   0  0  0  0  0  0  0  0  0  0  0  0
  -21.2682  -30.1325   22.8523 O   0  0  0  0  0  0  0  0  0  0  0  0
  -22.1227  -25.5270   22.0908 O   0  0  0  0  0  0  0  0  0  0  0  0
  -21.2085   -5.1662   23.9269 O   0  0  0  0  0  0  0  0  0  0  0  0
  -28.4521  -26.7401   19.8958 O   0  0  0  0  0  0  0  0  0  1  0  0
  -29.4682  -22.0746   19.1771 O   0  0  0  0  0  0  0  0  0  0  0  0
  -19.8577   -0.4423   21.4241 F   0  0  0  0  0  0  0  0  0  0  0  0
  -18.5826   -4.6139   23.2619 F   0  0  0  0  0  0  0  0  0  0  0  0
  1  2  1  0  0  0  0
  1  6  2  0  0  0  0
  2  7  2  0  0  0  0
  3  9  2  0  0  0  0
  3 18  1  0  0  0  0
  4 10  1  0  0  0  0
  4 18  2  0  0  0  0
  5 14  2  0  0  0  0
  5 19  1  0  0  0  0
  6 21  1  0  0  0  0
  7 23  1  0  0  0  0
  8 11  2  0  0  0  0
  8 22  1  0  0  0  0
  9 25  1  0  0  0  0
 10 25  2  0  0  0  0
 11 26  1  0  0  0  0
 12 13  2  0  0  0  0
 12 27  1  0  0  0  0
 13 28  1  0  0  0  0
 14 31  1  0  0  0  0
 15 24  1  0  0  0  0
 15 26  2  0  0  0  0
 16 28  2  0  0  0  0
 16 29  1  0  0  0  0
 17 19  2  0  0  0  0
 17 63  1  0  0  0  0
 18 30  1  0  0  0  0
 19 33  1  0  0  0  0
 20 30  1  0  0  0  0
 20 32  2  0  0  0  0
 20 35  1  0  0  0  0
 21 23  2  0  0  0  0
 21 41  1  0  0  0  0
 22 24  2  0  0  0  0
 22 42  1  0  0  0  0
 23 50  1  0  0  0  0
 24 43  1  0  0  0  0
 25 79  1  0  0  0  0
 26 80  1  0  0  0  0
 27 29  2  0  0  0  0
 27 79  1  0  0  0  0
 28 82  1  0  0  0  0
 29 83  1  0  0  0  0
 30 64  2  0  0  0  0
 31 63  2  0  0  0  0
 31 81  1  0  0  0  0
 32 65  1  0  0  0  0
 32 68  1  0  0  0  0
 33 34  2  0  0  0  0
 34 36  1  0  0  0  0
 35 69  1  0  0  0  0
 35 73  2  0  0  0  0
 36 66  1  0  0  0  0
 36 74  2  0  0  0  0
 37 51  1  0  0  0  0
 37 70  1  0  0  0  0
 37 75  2  0  0  0  0
 38 58  1  0  0  0  0
 38 59  1  0  0  0  0
 38 76  2  0  0  0  0
 39 60  1  0  0  0  0
 39 67  1  0  0  0  0
 39 77  2  0  0  0  0
 40 61  1  0  0  0  0
 40 71  1  0  0  0  0
 40 78  2  0  0  0  0
 41 44  1  0  0  0  0
 42 51  1  0  0  0  0
 43 67  1  0  0  0  0
 44 46  1  0  0  0  0
 45 47  1  0  0  0  0
 45 48  1  0  0  0  0
 46 50  1  0  0  0  0
 47 52  1  0  0  0  0
 48 66  1  0  0  0  0
 49 52  1  0  0  0  0
 49 66  1  0  0  0  0
 50 70  1  0  0  0  0
 51 67  1  0  0  0  0
 52 65  1  0  0  0  0
 53 61  1  0  0  0  0
 54 62  1  0  0  0  0
 55 62  1  0  0  0  0
 56 62  1  0  0  0  0
 57 72  1  0  0  0  0
 58 80  1  0  0  0  0
 59 81  1  0  0  0  0
 60 62  1  0  0  0  0
 60 71  1  0  0  0  0
 61 72  1  0  0  0  0
 64 65  1  0  0  0  0
M  CHG  1  72   1
M  ISO  4  34 100  36 100  58 101  80 101
M  END
> <Batch ID>
0120

> <Smiles>
CNC(C)C(=O)NC(C(=O)N1Cc2cc([101O:1][101CH2:1]C(=O)COc3ccc(C=[100CH:0][100C:0](=O)N4CCCC(n5nc(-c6ccc(Oc7ccc(F)cc7F)cc6)c(C(N)=O)c5N)C4)cn3)ccc2CC1C(=O)NC1CCCc2ccccc21)C(C)(C)C

> <Shape>
0.319

> <Color>
0.076

> <Negative vol penalty>
0.000

$$$$

  -OEChem-04052301543D

 85 93  0     1  0  0  0  0  0999 V2000
  -27.7976  -33.2394   27.0812 C   0  0  0  0  0  0  0  0  0  0  0  0
  -28.0343  -32.1473   26.2524 C   0  0  0  0  0  0  0  0  0  0  0  0
  -23.9744   -9.4012   20.3283 C   0  0  0  0  0  0  0  0  0  0  0  0
  -24.3338   -9.9950   22.6424 C   0  0  0  0  0  0  0  0  0  0  0  0
  -26.4900  -33.5868   27.4181 C   0  0  0  0  0  0  0  0  0  0  0  0
  -26.9635  -31.4014   25.7610 C   0  0  0  0  0  0  0  0  0  0  0  0
  -27.4352  -30.3401   20.8319 C   0  0  0  0  0  0  0  0  0  0  0  0
  -30.1616  -19.1247   21.9690 C   0  0  0  0  0  0  0  0  0  0  0  0
  -23.5350   -8.1369   20.7209 C   0  0  0  0  0  0  0  0  0  0  0  0
  -23.8943   -8.7307   23.0351 C   0  0  0  0  0  0  0  0  0  0  0  0
  -28.3050  -29.3078   20.4832 C   0  0  0  0  0  0  0  0  0  0  0  0
  -30.2722  -20.4916   22.2240 C   0  0  0  0  0  0  0  0  0  0  0  0
  -20.9424   -7.1355   23.4376 C   0  0  0  0  0  0  0  0  0  0  0  0
  -20.0489   -7.0646   24.5062 C   0  0  0  0  0  0  0  0  0  0  0  0
  -26.4265  -27.8130   20.2468 C   0  0  0  0  0  0  0  0  0  0  0  0
  -21.6296   -5.7156   25.7385 C   0  0  0  0  0  0  0  0  0  0  0  0
  -24.3739  -10.3302   21.2890 C   0  0  0  0  0  0  0  0  0  0  0  0
  -27.7853  -19.3826   21.6175 C   0  0  0  0  0  0  0  0  0  0  0  0
  -24.0449  -12.7926   20.7092 C   0  0  0  0  0  0  0  0  0  0  0  0
  -25.4022  -32.8506   26.9227 C   0  0  0  0  0  0  0  0  0  0  0  0
  -26.0531  -30.1134   20.9013 C   0  0  0  0  0  0  0  0  0  0  0  0
  -25.6403  -31.7385   26.0927 C   0  0  0  0  0  0  0  0  0  0  0  0
  -25.5411  -28.8447   20.5940 C   0  0  0  0  0  0  0  0  0  0  0  0
  -27.8959  -20.7495   21.8726 C   0  0  0  0  0  0  0  0  0  0  0  0
  -28.9181  -18.5702   21.6656 C   0  0  0  0  0  0  0  0  0  0  0  0
  -23.4949   -7.8017   22.0743 C   0  0  0  0  0  0  0  0  0  0  0  0
  -27.8010  -28.0432   20.1934 C   0  0  0  0  0  0  0  0  0  0  0  0
  -29.1394  -21.3040   22.1759 C   0  0  0  0  0  0  0  0  0  0  0  0
  -22.1796   -6.4963   23.5193 C   0  0  0  0  0  0  0  0  0  0  0  0
  -20.3924   -6.3547   25.6567 C   0  0  0  0  0  0  0  0  0  0  0  0
  -22.5231   -5.7864   24.6698 C   0  0  0  0  0  0  0  0  0  0  0  0
  -24.8284  -11.6361   20.8840 C   0  0  0  0  0  0  0  0  0  0  0  0
  -24.9409  -13.7592   20.3229 C   0  0  0  0  0  0  0  0  0  0  0  0
  -25.6384  -18.3612   22.2198 C   0  0  0  0  0  0  0  0  0  0  0  0
  -26.4805  -18.8052   21.3022 C   0  0  0  0  0  0  0  0  0  0  0  0
  -22.6334  -12.9766   20.8807 C   0  0  0  0  0  0  0  0  0  0  0  0
  -23.8685  -30.2631   23.2053 C   0  0  0  0  0  0  0  0  0  0  0  0
  -21.8152  -29.6923   20.7598 C   0  0  0  0  0  0  0  0  0  0  0  0
  -21.3171  -28.4230   17.6313 C   0  0  0  0  0  0  0  0  0  0  0  0
  -29.8325  -16.3632   20.8662 C   0  0  0  0  0  0  0  0  0  0  0  0
  -24.0089  -33.2358   27.3527 C   0  0  0  0  0  0  0  0  0  0  0  0
  -25.1259  -31.2443   21.2529 C   0  0  0  0  0  0  0  0  0  0  0  0
  -24.0637  -28.5548   20.6343 C   0  0  0  0  0  0  0  0  0  0  0  0
  -22.9123  -32.6203   26.4873 C   0  0  0  0  0  0  0  0  0  0  0  0
  -29.7891  -13.3838   18.9172 C   0  0  0  0  0  0  0  0  0  0  0  0
  -23.1800  -31.1354   26.2626 C   0  0  0  0  0  0  0  0  0  0  0  0
  -28.4302  -12.7587   19.2407 C   0  0  0  0  0  0  0  0  0  0  0  0
  -30.4090  -14.0577   20.1400 C   0  0  0  0  0  0  0  0  0  0  0  0
  -28.1851  -14.4071   21.1406 C   0  0  0  0  0  0  0  0  0  0  0  0
  -24.5039  -30.9197   25.5196 C   0  0  1  0  0  0  0  0  0  0  0  0
  -23.7809  -30.7684   21.7930 C   0  0  1  0  0  0  0  0  0  0  0  0
  -27.4917  -13.7726   19.9239 C   0  0  2  0  0  0  0  0  0  0  0  0
  -26.6931  -21.6406   21.8265 C   0  0  0  0  0  0  0  0  0  0  0  0
  -19.5236  -28.0664   15.9127 C   0  0  0  0  0  0  0  0  0  0  0  0
  -20.7239  -27.3534   22.3874 C   0  0  0  0  0  0  0  0  0  0  0  0
  -19.6527  -26.4886   20.2962 C   0  0  0  0  0  0  0  0  0  0  0  0
  -18.9818  -28.7096   21.2125 C   0  0  0  0  0  0  0  0  0  0  0  0
  -22.7165  -30.1190   15.6504 C   0  0  0  0  0  0  0  0  0  0  0  0
  -30.5031  -25.6574   20.5565 C   0  0  0  0  0  0  0  0  0  0  0  0
  -29.6135  -24.8060   21.4558 C   0  0  0  0  0  0  0  0  0  0  0  0
  -29.9616  -27.0732   20.4090 C   0  0  0  0  0  0  0  0  0  1  0  0
  -30.1306  -23.3789   21.5692 C   0  0  0  0  0  0  0  0  0  0  0  0
  -21.2431  -28.4551   20.1108 C   0  0  1  0  0  0  0  0  0  0  0  0
  -20.6191  -28.9960   16.4111 C   0  0  2  0  0  0  0  0  0  0  0  0
  -20.1784  -27.7563   21.0028 C   0  0  0  0  0  0  0  0  0  0  0  0
  -26.1226  -11.8468   20.6295 N   0  0  0  0  0  0  0  0  0  0  0  0
  -26.1592  -13.1468   20.2907 N   0  0  0  0  0  0  0  0  0  0  0  0
  -23.1983  -29.6916   20.9896 N   0  0  0  0  0  0  0  0  0  0  0  0
  -29.4646  -15.0076   20.7320 N   0  0  0  0  0  0  0  0  0  0  0  0
  -24.7977  -15.0648   20.0109 N   0  0  0  0  0  0  0  0  0  0  0  0
  -21.8603  -11.8785   21.2818 N   0  0  0  0  0  0  0  0  0  0  0  0
  -28.8415  -17.1782   21.4122 N   0  0  0  0  0  0  0  0  0  0  0  0
  -24.3422  -31.1958   24.1082 N   0  0  0  0  0  0  0  0  0  0  0  0
  -20.7470  -28.8721   18.8038 N   0  0  0  0  0  0  0  0  0  0  0  0
  -21.5966  -29.2056   15.3059 N   0  3  0  0  0  0  0  0  0  0  0  0
  -22.0718  -14.0779   20.6683 O   0  0  0  0  0  0  0  0  0  0  0  0
  -23.5299  -29.1127   23.4575 O   0  0  0  0  0  0  0  0  0  0  0  0
  -21.0636  -30.6277   21.0457 O   0  0  0  0  0  0  0  0  0  0  0  0
  -22.2701  -27.6510   17.5523 O   0  0  0  0  0  0  0  0  0  0  0  0
  -30.9348  -16.7760   20.4969 O   0  0  0  0  0  0  0  0  0  0  0  0
  -23.0660   -6.5682   22.4578 O   0  0  0  0  0  0  0  0  0  0  0  0
  -28.6478  -27.0337   19.8535 O   0  0  0  0  0  0  0  0  0  1  0  0
  -29.2695  -22.6449   22.4288 O   0  0  0  0  0  0  0  0  0  0  0  0
  -19.5348   -6.2881   26.6835 F   0  0  0  0  0  0  0  0  0  0  0  0
  -23.7107   -5.1713   24.7546 F   0  0  0  0  0  0  0  0  0  0  0  0
  1  2  1  0  0  0  0
  1  5  2  0  0  0  0
  2  6  2  0  0  0  0
  3  9  2  0  0  0  0
  3 17  1  0  0  0  0
  4 10  1  0  0  0  0
  4 17  2  0  0  0  0
  5 20  1  0  0  0  0
  6 22  1  0  0  0  0
  7 11  2  0  0  0  0
  7 21  1  0  0  0  0
  8 12  1  0  0  0  0
  8 25  2  0  0  0  0
  9 26  1  0  0  0  0
 10 26  2  0  0  0  0
 11 27  1  0  0  0  0
 12 28  2  0  0  0  0
 13 14  2  0  0  0  0
 13 29  1  0  0  0  0
 14 30  1  0  0  0  0
 15 23  1  0  0  0  0
 15 27  2  0  0  0  0
 16 30  2  0  0  0  0
 16 31  1  0  0  0  0
 17 32  1  0  0  0  0
 18 24  2  0  0  0  0
 18 25  1  0  0  0  0
 18 35  1  0  0  0  0
 19 32  1  0  0  0  0
 19 33  2  0  0  0  0
 19 36  1  0  0  0  0
 20 22  2  0  0  0  0
 20 41  1  0  0  0  0
 21 23  2  0  0  0  0
 21 42  1  0  0  0  0
 22 50  1  0  0  0  0
 23 43  1  0  0  0  0
 24 28  1  0  0  0  0
 24 53  1  0  0  0  0
 25 72  1  0  0  0  0
 26 81  1  0  0  0  0
 27 82  1  0  0  0  0
 28 83  1  0  0  0  0
 29 31  2  0  0  0  0
 29 81  1  0  0  0  0
 30 84  1  0  0  0  0
 31 85  1  0  0  0  0
 32 66  2  0  0  0  0
 33 67  1  0  0  0  0
 33 70  1  0  0  0  0
 34 35  2  0  0  0  0
 36 71  1  0  0  0  0
 36 76  2  0  0  0  0
 37 51  1  0  0  0  0
 37 73  1  0  0  0  0
 37 77  2  0  0  0  0
 38 63  1  0  0  0  0
 38 68  1  0  0  0  0
 38 78  2  0  0  0  0
 39 64  1  0  0  0  0
 39 74  1  0  0  0  0
 39 79  2  0  0  0  0
 40 69  1  0  0  0  0
 40 72  1  0  0  0  0
 40 80  2  0  0  0  0
 41 44  1  0  0  0  0
 42 51  1  0  0  0  0
 43 68  1  0  0  0  0
 44 46  1  0  0  0  0
 45 47  1  0  0  0  0
 45 48  1  0  0  0  0
 46 50  1  0  0  0  0
 47 52  1  0  0  0  0
 48 69  1  0  0  0  0
 49 52  1  0  0  0  0
 49 69  1  0  0  0  0
 50 73  1  0  0  0  0
 51 68  1  0  0  0  0
 52 67  1  0  0  0  0
 54 64  1  0  0  0  0
 55 65  1  0  0  0  0
 56 65  1  0  0  0  0
 57 65  1  0  0  0  0
 58 75  1  0  0  0  0
 59 60  1  0  0  0  0
 59 61  1  0  0  0  0
 60 62  1  0  0  0  0
 61 82  1  0  0  0  0
 62 83  1  0  0  0  0
 63 65  1  0  0  0  0
 63 74  1  0  0  0  0
 64 75  1  0  0  0  0
 66 67  1  0  0  0  0
M  CHG  1  75   1
M  ISO  4  40 100  61 101  72 100  82 101
M  END
> <Batch ID>
0120

> <Smiles>
C=Cc1c([100NH:0][100C:0](=O)N2CCCC(n3nc(-c4ccc(Oc5ccc(F)cc5F)cc4)c(C(N)=O)c3N)C2)ccc(OCCC[101CH2:1][101O:1]c2ccc3c(c2)CN(C(=O)C(NC(=O)C(C)NC)C(C)(C)C)C(C(=O)NC2CCCc4ccccc42)C3)c1C

> <Shape>
0.357

> <Color>
0.164

> <Negative vol penalty>
0.000

$$$$

  -OEChem-04052301543D

 86 94  0     1  0  0  0  0  0999 V2000
  -28.6473  -17.8777   18.0327 C   0  0  0  0  0  0  0  0  0  0  0  0
  -27.3675  -18.3620   18.2833 C   0  0  0  0  0  0  0  0  0  0  0  0
  -29.7228  -23.9963   21.8838 C   0  0  0  0  0  0  0  0  0  0  0  0
  -29.9142  -23.9206   19.4766 C   0  0  0  0  0  0  0  0  0  0  0  0
  -28.9066  -16.5115   18.1335 C   0  0  0  0  0  0  0  0  0  0  0  0
  -26.3458  -17.4801   18.6340 C   0  0  0  0  0  0  0  0  0  0  0  0
  -23.5617  -19.1747   22.5097 C   0  0  0  0  0  0  0  0  0  0  0  0
  -30.1567  -22.6729   21.9600 C   0  0  0  0  0  0  0  0  0  0  0  0
  -30.3482  -22.5972   19.5527 C   0  0  0  0  0  0  0  0  0  0  0  0
  -22.6101  -20.1544   22.2297 C   0  0  0  0  0  0  0  0  0  0  0  0
  -30.8706  -19.1989   22.7633 C   0  0  0  0  0  0  0  0  0  0  0  0
  -30.1780  -18.3355   23.6120 C   0  0  0  0  0  0  0  0  0  0  0  0
  -20.4432  -27.2073   21.7152 C   0  0  0  0  0  0  0  0  0  0  0  0
  -20.8867  -18.4666   22.2111 C   0  0  0  0  0  0  0  0  0  0  0  0
  -18.4476  -27.1506   23.0758 C   0  0  0  0  0  0  0  0  0  0  0  0
  -28.1519  -18.7253   22.3550 C   0  0  0  0  0  0  0  0  0  0  0  0
  -29.6014  -24.6202   20.6421 C   0  0  0  0  0  0  0  0  0  0  0  0
  -20.7724  -28.4529   22.2498 C   0  0  0  0  0  0  0  0  0  0  0  0
  -29.9504  -27.1467   20.5896 C   0  0  0  0  0  0  0  0  0  0  0  0
  -27.8899  -15.6135   18.4950 C   0  0  0  0  0  0  0  0  0  0  0  0
  -23.1839  -17.8298   22.6320 C   0  0  0  0  0  0  0  0  0  0  0  0
  -26.5914  -16.1004   18.7384 C   0  0  0  0  0  0  0  0  0  0  0  0
  -21.8350  -17.4721   22.4952 C   0  0  0  0  0  0  0  0  0  0  0  0
  -18.7767  -28.3961   23.6105 C   0  0  0  0  0  0  0  0  0  0  0  0
  -19.9392  -29.0472   23.1975 C   0  0  0  0  0  0  0  0  0  0  0  0
  -30.4695  -21.9733   20.7944 C   0  0  0  0  0  0  0  0  0  0  0  0
  -21.2728  -19.8001   22.0775 C   0  0  0  0  0  0  0  0  0  0  0  0
  -30.2039  -19.8256   21.7105 C   0  0  0  0  0  0  0  0  0  0  0  0
  -19.2808  -26.5562   22.1281 C   0  0  0  0  0  0  0  0  0  0  0  0
  -28.8186  -18.0986   23.4078 C   0  0  0  0  0  0  0  0  0  0  0  0
  -28.8446  -19.5888   21.5063 C   0  0  0  0  0  0  0  0  0  0  0  0
  -29.1527  -25.9871   20.5628 C   0  0  0  0  0  0  0  0  0  0  0  0
  -29.0544  -28.1824   20.4850 C   0  0  0  0  0  0  0  0  0  0  0  0
  -21.9923  -29.1090   21.7976 C   0  0  0  0  0  0  0  0  0  0  0  0
  -31.3741  -27.2760   20.6992 C   0  0  0  0  0  0  0  0  0  0  0  0
  -23.3146  -28.4762   21.9758 C   0  0  0  0  0  0  0  0  0  0  0  0
  -23.8886  -15.1513   21.0723 C   0  0  0  0  0  0  0  0  0  0  0  0
  -19.6574  -23.0356   21.3703 C   0  0  0  0  0  0  0  0  0  0  0  0
  -22.1403  -13.7769   23.4338 C   0  0  0  0  0  0  0  0  0  0  0  0
  -19.7154  -14.1099   25.8120 C   0  0  0  0  0  0  0  0  0  0  0  0
  -28.2069  -14.1399   18.5451 C   0  0  0  0  0  0  0  0  0  0  0  0
  -24.2185  -16.7887   22.9607 C   0  0  0  0  0  0  0  0  0  0  0  0
  -21.3747  -16.0450   22.6369 C   0  0  0  0  0  0  0  0  0  0  0  0
  -27.1579  -13.3161   19.2874 C   0  0  0  0  0  0  0  0  0  0  0  0
  -24.7647  -29.2706   18.7050 C   0  0  0  0  0  0  0  0  0  0  0  0
  -25.7545  -13.7054   18.8339 C   0  0  0  0  0  0  0  0  0  0  0  0
  -26.1191  -28.5743   18.8073 C   0  0  0  0  0  0  0  0  0  0  0  0
  -23.6708  -28.5054   19.4482 C   0  0  0  0  0  0  0  0  0  0  0  0
  -25.3586  -27.5286   20.9772 C   0  0  0  0  0  0  0  0  0  0  0  0
  -25.4627  -15.1783   19.1455 C   0  0  1  0  0  0  0  0  0  0  0  0
  -23.7981  -15.3795   22.5546 C   0  0  1  0  0  0  0  0  0  0  0  0
  -26.4836  -28.3058   20.2760 C   0  0  1  0  0  0  0  0  0  0  0  0
  -17.8677  -29.0109   24.6241 C   0  0  0  0  0  0  0  0  0  0  0  0
  -19.4564  -31.5074   23.1670 C   0  0  0  0  0  0  0  0  0  0  0  0
  -18.4775  -12.8021   27.5597 C   0  0  0  0  0  0  0  0  0  0  0  0
  -20.4705  -12.4481   21.2531 C   0  0  0  0  0  0  0  0  0  0  0  0
  -18.7293  -11.9558   22.9834 C   0  0  0  0  0  0  0  0  0  0  0  0
  -21.0115  -10.9719   23.1979 C   0  0  0  0  0  0  0  0  0  0  0  0
  -20.7074  -15.8552   27.9867 C   0  0  0  0  0  0  0  0  0  0  0  0
  -20.2888  -30.3832   23.7735 C   0  0  0  0  0  0  0  0  0  0  0  0
  -20.8055  -22.0987   21.6853 C   0  0  0  0  0  0  0  0  0  1  0  0
  -20.0238  -24.4958   21.2015 C   0  0  0  0  0  0  0  0  0  0  0  0
  -20.6812  -13.4415   23.6269 C   0  0  1  0  0  0  0  0  0  0  0  0
  -19.6731  -13.6968   27.2722 C   0  0  2  0  0  0  0  0  0  0  0  0
  -20.2317  -12.2310   22.7607 C   0  0  0  0  0  0  0  0  0  0  0  0
  -27.8500  -26.2599   20.4502 N   0  0  0  0  0  0  0  0  0  0  0  0
  -22.0013  -30.2755   21.2144 N   0  0  0  0  0  0  0  0  0  0  0  0
  -27.8224  -27.6028   20.4053 N   0  0  0  0  0  0  0  0  0  0  0  0
  -24.0670  -28.2096   20.8332 N   0  0  0  0  0  0  0  0  0  0  0  0
  -22.4249  -15.0626   22.9524 N   0  0  0  0  0  0  0  0  0  0  0  0
  -29.2081  -29.5232   20.4543 N   0  0  0  0  0  0  0  0  0  0  0  0
  -32.1454  -26.1099   20.7979 N   0  0  0  0  0  0  0  0  0  0  0  0
  -25.1527  -15.3461   20.5492 N   0  0  0  0  0  0  0  0  0  0  0  0
  -20.4919  -13.2529   25.0611 N   0  0  0  0  0  0  0  0  0  0  0  0
  -19.5819  -14.8990   28.1482 N   0  3  0  0  0  0  0  0  0  0  0  0
  -31.9441  -28.3931   20.7258 O   0  0  0  0  0  0  0  0  0  0  0  0
  -23.6708  -28.2176   23.1268 O   0  0  0  0  0  0  0  0  0  0  0  0
  -22.8861  -14.8214   20.4494 O   0  0  0  0  0  0  0  0  0  0  0  0
  -18.4996  -22.6355   21.2590 O   0  0  0  0  0  0  0  0  0  0  0  0
  -22.9964  -12.9319   23.7071 O   0  0  0  0  0  0  0  0  0  0  0  0
  -19.1164  -15.0923   25.3801 O   0  0  0  0  0  0  0  0  0  0  0  0
  -30.8932  -20.6820   20.8683 O   0  0  0  0  0  0  0  0  0  0  0  0
  -20.3420  -20.7542   21.8035 O   0  0  0  0  0  0  0  0  0  1  0  0
  -18.9559  -25.3285   21.6014 O   0  0  0  0  0  0  0  0  0  0  0  0
  -28.1539  -17.2682   24.2220 F   0  0  0  0  0  0  0  0  0  0  0  0
  -28.1989  -20.1871   20.4959 F   0  0  0  0  0  0  0  0  0  0  0  0
  1  2  1  0  0  0  0
  1  5  2  0  0  0  0
  2  6  2  0  0  0  0
  3  8  2  0  0  0  0
  3 17  1  0  0  0  0
  4  9  1  0  0  0  0
  4 17  2  0  0  0  0
  5 20  1  0  0  0  0
  6 22  1  0  0  0  0
  7 10  2  0  0  0  0
  7 21  1  0  0  0  0
  8 26  1  0  0  0  0
  9 26  2  0  0  0  0
 10 27  1  0  0  0  0
 11 12  2  0  0  0  0
 11 28  1  0  0  0  0
 12 30  1  0  0  0  0
 13 18  1  0  0  0  0
 13 29  2  0  0  0  0
 14 23  1  0  0  0  0
 14 27  2  0  0  0  0
 15 24  2  0  0  0  0
 15 29  1  0  0  0  0
 16 30  2  0  0  0  0
 16 31  1  0  0  0  0
 17 32  1  0  0  0  0
 18 25  2  0  0  0  0
 18 34  1  0  0  0  0
 19 32  1  0  0  0  0
 19 33  2  0  0  0  0
 19 35  1  0  0  0  0
 20 22  2  0  0  0  0
 20 41  1  0  0  0  0
 21 23  2  0  0  0  0
 21 42  1  0  0  0  0
 22 50  1  0  0  0  0
 23 43  1  0  0  0  0
 24 25  1  0  0  0  0
 24 53  1  0  0  0  0
 25 60  1  0  0  0  0
 26 82  1  0  0  0  0
 27 83  1  0  0  0  0
 28 31  2  0  0  0  0
 28 82  1  0  0  0  0
 29 84  1  0  0  0  0
 30 85  1  0  0  0  0
 31 86  1  0  0  0  0
 32 66  2  0  0  0  0
 33 68  1  0  0  0  0
 33 71  1  0  0  0  0
 34 36  1  0  0  0  0
 34 67  2  0  0  0  0
 35 72  1  0  0  0  0
 35 76  2  0  0  0  0
 36 69  1  0  0  0  0
 36 77  2  0  0  0  0
 37 51  1  0  0  0  0
 37 73  1  0  0  0  0
 37 78  2  0  0  0  0
 38 61  1  0  0  0  0
 38 62  1  0  0  0  0
 38 79  2  0  0  0  0
 39 63  1  0  0  0  0
 39 70  1  0  0  0  0
 39 80  2  0  0  0  0
 40 64  1  0  0  0  0
 40 74  1  0  0  0  0
 40 81  2  0  0  0  0
 41 44  1  0  0  0  0
 42 51  1  0  0  0  0
 43 70  1  0  0  0  0
 44 46  1  0  0  0  0
 45 47  1  0  0  0  0
 45 48  1  0  0  0  0
 46 50  1  0  0  0  0
 47 52  1  0  0  0  0
 48 69  1  0  0  0  0
 49 52  1  0  0  0  0
 49 69  1  0  0  0  0
 50 73  1  0  0  0  0
 51 70  1  0  0  0  0
 52 68  1  0  0  0  0
 54 60  1  0  0  0  0
 55 64  1  0  0  0  0
 56 65  1  0  0  0  0
 57 65  1  0  0  0  0
 58 65  1  0  0  0  0
 59 75  1  0  0  0  0
 61 83  1  0  0  0  0
 62 84  1  0  0  0  0
 63 65  1  0  0  0  0
 63 74  1  0  0  0  0
 64 75  1  0  0  0  0
 66 68  1  0  0  0  0
M  CHG  1  75   1
M  ISO  4  34 100  36 100  61 101  83 101
M  END
> <Batch ID>
0120

> <Smiles>
CCc1c(C)cc(OCC(=O)[101CH2:1][101O:1]c2ccc3c(c2)CN(C(=O)C(NC(=O)C(C)NC)C(C)(C)C)C(C(=O)NC2CCCc4ccccc42)C3)cc1[100C:0](=N)[100C:0](=O)N1CCCC(n2nc(-c3ccc(Oc4ccc(F)cc4F)cc3)c(C(N)=O)c2N)C1

> <Shape>
0.218

> <Color>
0.076

> <Negative vol penalty>
0.000

$$$$

  -OEChem-04052301543D

 84 92  0     1  0  0  0  0  0999 V2000
  -27.9364  -36.8804   24.0032 C   0  0  0  0  0  0  0  0  0  0  0  0
  -28.3911  -35.6177   23.6367 C   0  0  0  0  0  0  0  0  0  0  0  0
  -23.2564  -10.0187   22.2759 C   0  0  0  0  0  0  0  0  0  0  0  0
  -23.3498   -9.6593   19.8887 C   0  0  0  0  0  0  0  0  0  0  0  0
  -26.6255  -37.0460   24.4481 C   0  0  0  0  0  0  0  0  0  0  0  0
  -27.5353  -34.5196   23.7160 C   0  0  0  0  0  0  0  0  0  0  0  0
  -27.3944  -29.6833   19.9616 C   0  0  0  0  0  0  0  0  0  0  0  0
  -22.5681   -8.8153   22.4302 C   0  0  0  0  0  0  0  0  0  0  0  0
  -22.6615   -8.4558   20.0429 C   0  0  0  0  0  0  0  0  0  0  0  0
  -27.9306  -28.4004   20.0639 C   0  0  0  0  0  0  0  0  0  0  0  0
  -23.3047   -5.5161   22.5024 C   0  0  0  0  0  0  0  0  0  0  0  0
  -23.7114   -4.6638   23.5289 C   0  0  0  0  0  0  0  0  0  0  0  0
  -26.9978  -19.6161   17.1239 C   0  0  0  0  0  0  0  0  0  0  0  0
  -25.8155  -27.5891   20.8930 C   0  0  0  0  0  0  0  0  0  0  0  0
  -28.7000  -18.4085   15.2727 C   0  0  0  0  0  0  0  0  0  0  0  0
  -21.5122   -4.8071   24.5191 C   0  0  0  0  0  0  0  0  0  0  0  0
  -23.6471  -10.4407   21.0051 C   0  0  0  0  0  0  0  0  0  0  0  0
  -27.9642  -20.3764   16.4656 C   0  0  0  0  0  0  0  0  0  0  0  0
  -25.7520  -11.8756   20.8705 C   0  0  0  0  0  0  0  0  0  0  0  0
  -25.7503  -35.9510   24.5237 C   0  0  0  0  0  0  0  0  0  0  0  0
  -26.0657  -29.9313   20.3351 C   0  0  0  0  0  0  0  0  0  0  0  0
  -26.2118  -34.6705   24.1636 C   0  0  0  0  0  0  0  0  0  0  0  0
  -25.2640  -28.8755   20.7920 C   0  0  0  0  0  0  0  0  0  0  0  0
  -28.8153  -19.7727   15.5399 C   0  0  0  0  0  0  0  0  0  0  0  0
  -27.7335  -17.6481   15.9311 C   0  0  0  0  0  0  0  0  0  0  0  0
  -26.8825  -18.2518   16.8568 C   0  0  0  0  0  0  0  0  0  0  0  0
  -22.2707   -8.0339   21.3138 C   0  0  0  0  0  0  0  0  0  0  0  0
  -27.1420  -27.3536   20.5325 C   0  0  0  0  0  0  0  0  0  0  0  0
  -22.0018   -6.0140   22.4842 C   0  0  0  0  0  0  0  0  0  0  0  0
  -22.8151   -4.3092   24.5373 C   0  0  0  0  0  0  0  0  0  0  0  0
  -21.1056   -5.6595   23.4925 C   0  0  0  0  0  0  0  0  0  0  0  0
  -24.3576  -11.6840   20.8450 C   0  0  0  0  0  0  0  0  0  0  0  0
  -25.9168  -13.2248   20.6730 C   0  0  0  0  0  0  0  0  0  0  0  0
  -28.0617  -21.8146   16.7698 C   0  0  0  0  0  0  0  0  0  0  0  0
  -28.2986  -22.3299   17.9867 C   0  0  0  0  0  0  0  0  0  0  0  0
  -28.3766  -23.7537   18.2319 C   0  0  0  0  0  0  0  0  0  0  0  0
  -28.6127  -24.2781   19.4437 C   0  0  0  0  0  0  0  0  0  0  0  0
  -26.8042  -10.9196   21.0561 C   0  0  0  0  0  0  0  0  0  0  0  0
  -24.6541  -31.7444   22.5313 C   0  0  0  0  0  0  0  0  0  0  0  0
  -21.9461  -30.7618   21.0402 C   0  0  0  0  0  0  0  0  0  0  0  0
  -20.3929  -28.4237   19.0990 C   0  0  0  0  0  0  0  0  0  0  0  0
  -24.6597  -17.9460   18.0021 C   0  0  0  0  0  0  0  0  0  0  0  0
  -24.3563  -36.1713   25.0556 C   0  0  0  0  0  0  0  0  0  0  0  0
  -25.4943  -31.3154   20.1934 C   0  0  0  0  0  0  0  0  0  0  0  0
  -23.8257  -29.0851   21.1866 C   0  0  0  0  0  0  0  0  0  0  0  0
  -23.4005  -35.0197   24.7545 C   0  0  0  0  0  0  0  0  0  0  0  0
  -22.5390  -16.9946   20.6993 C   0  0  0  0  0  0  0  0  0  0  0  0
  -24.0587  -33.6817   25.0759 C   0  0  0  0  0  0  0  0  0  0  0  0
  -22.9378  -15.5439   20.9798 C   0  0  0  0  0  0  0  0  0  0  0  0
  -22.5794  -17.3154   19.2062 C   0  0  0  0  0  0  0  0  0  0  0  0
  -24.2442  -15.5418   18.8164 C   0  0  0  0  0  0  0  0  0  0  0  0
  -25.3062  -33.4591   24.2123 C   0  0  1  0  0  0  0  0  0  0  0  0
  -24.2821  -31.5559   21.0878 C   0  0  1  0  0  0  0  0  0  0  0  0
  -24.2812  -15.1897   20.3125 C   0  0  2  0  0  0  0  0  0  0  0  0
  -29.8628  -20.5564   14.8164 C   0  0  0  0  0  0  0  0  0  0  0  0
  -27.6320  -16.1890   15.6248 C   0  0  0  0  0  0  0  0  0  0  0  0
  -18.1670  -27.8739   18.0790 C   0  0  0  0  0  0  0  0  0  0  0  0
  -20.9237  -29.8523   23.7673 C   0  0  0  0  0  0  0  0  0  0  0  0
  -19.1851  -28.4933   22.5847 C   0  0  0  0  0  0  0  0  0  0  0  0
  -19.2106  -30.9749   22.3323 C   0  0  0  0  0  0  0  0  0  0  0  0
  -21.4917  -28.5415   16.3535 C   0  0  0  0  0  0  0  0  0  0  0  0
  -28.6894  -25.7470   19.7078 C   0  0  0  0  0  0  0  0  0  1  0  0
  -21.0010  -29.5954   21.1995 C   0  0  1  0  0  0  0  0  0  0  0  0
  -19.5089  -28.5591   17.8724 C   0  0  2  0  0  0  0  0  0  0  0  0
  -20.1077  -29.7251   22.4654 C   0  0  0  0  0  0  0  0  0  0  0  0
  -23.6844  -12.8205   20.6471 N   0  0  0  0  0  0  0  0  0  0  0  0
  -24.6600  -13.7393   20.5465 N   0  0  0  0  0  0  0  0  0  0  0  0
  -23.3148  -30.4577   21.0361 N   0  0  0  0  0  0  0  0  0  0  0  0
  -23.8832  -16.9576   18.6432 N   0  0  0  0  0  0  0  0  0  0  0  0
  -27.0127  -14.0094   20.5970 N   0  0  0  0  0  0  0  0  0  0  0  0
  -26.4590   -9.5745   21.2459 N   0  0  0  0  0  0  0  0  0  0  0  0
  -25.8943  -17.4963   17.5353 N   0  0  0  0  0  0  0  0  0  0  0  0
  -24.9294  -33.0542   22.8749 N   0  0  0  0  0  0  0  0  0  0  0  0
  -20.2553  -29.5006   19.9491 N   0  0  0  0  0  0  0  0  0  0  0  0
  -20.1715  -27.9469   16.6862 N   0  3  0  0  0  0  0  0  0  0  0  0
  -28.0140  -11.2508   21.0701 O   0  0  0  0  0  0  0  0  0  0  0  0
  -24.6874  -30.7737   23.2785 O   0  0  0  0  0  0  0  0  0  0  0  0
  -21.4867  -31.8999   20.9165 O   0  0  0  0  0  0  0  0  0  0  0  0
  -21.1290  -27.4575   19.2863 O   0  0  0  0  0  0  0  0  0  0  0  0
  -24.2705  -19.1123   17.9006 O   0  0  0  0  0  0  0  0  0  0  0  0
  -21.5994   -6.8594   21.4640 O   0  0  0  0  0  0  0  0  0  0  0  0
  -27.6630  -26.1006   20.6340 O   0  0  0  0  0  0  0  0  0  1  0  0
  -23.2053   -3.4895   25.5221 F   0  0  0  0  0  0  0  0  0  0  0  0
  -19.8523   -6.1337   23.4798 F   0  0  0  0  0  0  0  0  0  0  0  0
  1  2  1  0  0  0  0
  1  5  2  0  0  0  0
  2  6  2  0  0  0  0
  3  8  2  0  0  0  0
  3 17  1  0  0  0  0
  4  9  1  0  0  0  0
  4 17  2  0  0  0  0
  5 20  1  0  0  0  0
  6 22  1  0  0  0  0
  7 10  2  0  0  0  0
  7 21  1  0  0  0  0
  8 27  1  0  0  0  0
  9 27  2  0  0  0  0
 10 28  1  0  0  0  0
 11 12  2  0  0  0  0
 11 29  1  0  0  0  0
 12 30  1  0  0  0  0
 13 18  1  0  0  0  0
 13 26  2  0  0  0  0
 14 23  1  0  0  0  0
 14 28  2  0  0  0  0
 15 24  1  0  0  0  0
 15 25  2  0  0  0  0
 16 30  2  0  0  0  0
 16 31  1  0  0  0  0
 17 32  1  0  0  0  0
 18 24  2  0  0  0  0
 18 34  1  0  0  0  0
 19 32  1  0  0  0  0
 19 33  2  0  0  0  0
 19 38  1  0  0  0  0
 20 22  2  0  0  0  0
 20 43  1  0  0  0  0
 21 23  2  0  0  0  0
 21 44  1  0  0  0  0
 22 52  1  0  0  0  0
 23 45  1  0  0  0  0
 24 55  1  0  0  0  0
 25 26  1  0  0  0  0
 25 56  1  0  0  0  0
 26 72  1  0  0  0  0
 27 81  1  0  0  0  0
 28 82  1  0  0  0  0
 29 31  2  0  0  0  0
 29 81  1  0  0  0  0
 30 83  1  0  0  0  0
 31 84  1  0  0  0  0
 32 66  2  0  0  0  0
 33 67  1  0  0  0  0
 33 70  1  0  0  0  0
 34 35  2  0  0  0  0
 35 36  1  0  0  0  0
 36 37  2  0  0  0  0
 37 62  1  0  0  0  0
 38 71  1  0  0  0  0
 38 76  2  0  0  0  0
 39 53  1  0  0  0  0
 39 73  1  0  0  0  0
 39 77  2  0  0  0  0
 40 63  1  0  0  0  0
 40 68  1  0  0  0  0
 40 78  2  0  0  0  0
 41 64  1  0  0  0  0
 41 74  1  0  0  0  0
 41 79  2  0  0  0  0
 42 69  1  0  0  0  0
 42 72  1  0  0  0  0
 42 80  2  0  0  0  0
 43 46  1  0  0  0  0
 44 53  1  0  0  0  0
 45 68  1  0  0  0  0
 46 48  1  0  0  0  0
 47 49  1  0  0  0  0
 47 50  1  0  0  0  0
 48 52  1  0  0  0  0
 49 54  1  0  0  0  0
 50 69  1  0  0  0  0
 51 54  1  0  0  0  0
 51 69  1  0  0  0  0
 52 73  1  0  0  0  0
 53 68  1  0  0  0  0
 54 67  1  0  0  0  0
 57 64  1  0  0  0  0
 58 65  1  0  0  0  0
 59 65  1  0  0  0  0
 60 65  1  0  0  0  0
 61 75  1  0  0  0  0
 62 82  1  0  0  0  0
 63 65  1  0  0  0  0
 63 74  1  0  0  0  0
 64 75  1  0  0  0  0
 66 67  1  0  0  0  0
M  CHG  1  75   1
M  ISO  4  42 100  62 101  72 100  82 101
M  END
> <Batch ID>
0120

> <Smiles>
CNC(C)C(=O)NC(C(=O)N1Cc2cc([101O:1][101CH2:1]C=CC=Cc3cc([100NH:0][100C:0](=O)N4CCCC(n5nc(-c6ccc(Oc7ccc(F)cc7F)cc6)c(C(N)=O)c5N)C4)c(C)cc3C)ccc2CC1C(=O)NC1CCCc2ccccc21)C(C)(C)C

> <Shape>
0.274

> <Color>
0.108

> <Negative vol penalty>
0.000

$$$$

  -OEChem-04052301543D

 84 92  0     1  0  0  0  0  0999 V2000
  -16.4983  -28.6136   23.1565 C   0  0  0  0  0  0  0  0  0  0  0  0
  -17.3730  -28.2452   22.1393 C   0  0  0  0  0  0  0  0  0  0  0  0
  -23.3971  -14.5757   20.2693 C   0  0  0  0  0  0  0  0  0  0  0  0
  -25.3111  -15.1339   21.6338 C   0  0  0  0  0  0  0  0  0  0  0  0
  -16.9223  -29.4881   24.1562 C   0  0  0  0  0  0  0  0  0  0  0  0
  -18.6719  -28.7519   22.1207 C   0  0  0  0  0  0  0  0  0  0  0  0
  -23.7248  -25.8604   20.2198 C   0  0  0  0  0  0  0  0  0  0  0  0
  -29.1044  -22.2946   20.9315 C   0  0  0  0  0  0  0  0  0  0  0  0
  -23.8397  -13.2554   20.1886 C   0  0  0  0  0  0  0  0  0  0  0  0
  -25.7537  -13.8136   21.5531 C   0  0  0  0  0  0  0  0  0  0  0  0
  -24.4307  -25.8973   19.0181 C   0  0  0  0  0  0  0  0  0  0  0  0
  -30.4317  -22.7006   21.0683 C   0  0  0  0  0  0  0  0  0  0  0  0
  -23.8165  -10.4964   22.1432 C   0  0  0  0  0  0  0  0  0  0  0  0
  -22.8755   -9.4845   22.3335 C   0  0  0  0  0  0  0  0  0  0  0  0
  -25.9379  -27.5280   19.9605 C   0  0  0  0  0  0  0  0  0  0  0  0
  -28.9928  -23.3849   18.7784 C   0  0  0  0  0  0  0  0  0  0  0  0
  -23.3330   -8.6421   20.1157 C   0  0  0  0  0  0  0  0  0  0  0  0
  -24.1328  -15.5150   20.9919 C   0  0  0  0  0  0  0  0  0  0  0  0
  -22.8220  -17.4317   22.0481 C   0  0  0  0  0  0  0  0  0  0  0  0
  -18.2301  -29.9983   24.1552 C   0  0  0  0  0  0  0  0  0  0  0  0
  -24.1143  -26.6665   21.2991 C   0  0  0  0  0  0  0  0  0  0  0  0
  -19.1134  -29.6351   23.1206 C   0  0  0  0  0  0  0  0  0  0  0  0
  -25.2369  -27.4976   21.1757 C   0  0  0  0  0  0  0  0  0  0  0  0
  -30.3202  -23.7910   18.9153 C   0  0  0  0  0  0  0  0  0  0  0  0
  -28.3849  -22.6366   19.7864 C   0  0  0  0  0  0  0  0  0  0  0  0
  -25.0180  -12.8743   20.8305 C   0  0  0  0  0  0  0  0  0  0  0  0
  -25.5357  -26.7333   18.8873 C   0  0  0  0  0  0  0  0  0  0  0  0
  -31.0397  -23.4489   20.0603 C   0  0  0  0  0  0  0  0  0  0  0  0
  -24.5156  -10.5813   20.9391 C   0  0  0  0  0  0  0  0  0  0  0  0
  -22.6338   -8.5573   21.3198 C   0  0  0  0  0  0  0  0  0  0  0  0
  -24.2739   -9.6541   19.9255 C   0  0  0  0  0  0  0  0  0  0  0  0
  -23.6764  -16.8791   21.0752 C   0  0  0  0  0  0  0  0  0  0  0  0
  -22.6967  -18.7506   21.6857 C   0  0  0  0  0  0  0  0  0  0  0  0
  -22.1975  -16.8086   23.1783 C   0  0  0  0  0  0  0  0  0  0  0  0
  -22.7523  -29.0170   22.9495 C   0  0  0  0  0  0  0  0  0  0  0  0
  -30.5082  -26.0412   17.8431 C   0  0  0  0  0  0  0  0  0  0  0  0
  -25.4101  -28.7407   24.7885 C   0  0  0  0  0  0  0  0  0  0  0  0
  -28.6729  -27.7718   25.0378 C   0  0  0  0  0  0  0  0  0  0  0  0
  -26.1811  -22.4784   18.5763 C   0  0  0  0  0  0  0  0  0  0  0  0
  -18.6281  -30.9777   25.2308 C   0  0  0  0  0  0  0  0  0  0  0  0
  -23.3584  -26.5953   22.5975 C   0  0  0  0  0  0  0  0  0  0  0  0
  -25.7082  -28.3676   22.3112 C   0  0  0  0  0  0  0  0  0  0  0  0
  -20.1373  -31.1756   25.3462 C   0  0  0  0  0  0  0  0  0  0  0  0
  -22.8084  -21.6049   17.8418 C   0  0  0  0  0  0  0  0  0  0  0  0
  -20.7565  -31.3759   23.9666 C   0  0  0  0  0  0  0  0  0  0  0  0
  -22.5686  -20.3476   18.6809 C   0  0  0  0  0  0  0  0  0  0  0  0
  -24.2287  -21.6501   17.2811 C   0  0  0  0  0  0  0  0  0  0  0  0
  -25.0552  -20.2298   19.1166 C   0  0  0  0  0  0  0  0  0  0  0  0
  -20.5379  -30.1442   23.0797 C   0  0  1  0  0  0  0  0  0  0  0  0
  -23.5349  -27.8406   23.4608 C   0  0  1  0  0  0  0  0  0  0  0  0
  -23.6585  -20.1715   19.7564 C   0  0  2  0  0  0  0  0  0  0  0  0
  -30.5904  -27.7067   26.6553 C   0  0  0  0  0  0  0  0  0  0  0  0
  -25.8455  -31.7342   24.3891 C   0  0  0  0  0  0  0  0  0  0  0  0
  -28.1985  -31.4278   25.1876 C   0  0  0  0  0  0  0  0  0  0  0  0
  -26.2900  -30.9160   26.7101 C   0  0  0  0  0  0  0  0  0  0  0  0
  -28.8319  -24.8193   24.9099 C   0  0  0  0  0  0  0  0  0  0  0  0
  -30.9606  -24.5981   17.8171 C   0  0  0  0  0  0  0  0  0  0  0  0
  -29.8352  -26.6325   16.6230 C   0  0  0  0  0  0  0  0  0  0  0  0
  -28.3288  -26.3949   16.6237 C   0  0  0  0  0  0  0  0  0  0  0  0
  -27.6197  -27.0688   17.7917 C   0  0  0  0  0  0  0  0  0  1  0  0
  -26.7861  -29.3616   24.7789 C   0  0  1  0  0  0  0  0  0  0  0  0
  -29.4021  -26.9487   26.0843 C   0  0  2  0  0  0  0  0  0  0  0  0
  -26.7703  -30.8451   25.2442 C   0  0  0  0  0  0  0  0  0  0  0  0
  -24.0663  -17.7737   20.1633 N   0  0  0  0  0  0  0  0  0  0  0  0
  -30.6943  -26.7842   18.8865 N   0  0  0  0  0  0  0  0  0  0  0  0
  -23.4540  -18.9018   20.5614 N   0  0  0  0  0  0  0  0  0  0  0  0
  -24.9323  -28.2673   23.5584 N   0  0  0  0  0  0  0  0  0  0  0  0
  -25.2073  -21.4810   18.3576 N   0  0  0  0  0  0  0  0  0  0  0  0
  -22.0138  -19.7841   22.2221 N   0  0  0  0  0  0  0  0  0  0  0  0
  -22.4328  -15.4456   23.4044 N   0  0  0  0  0  0  0  0  0  0  0  0
  -27.0365  -22.2239   19.6477 N   0  0  0  0  0  0  0  0  0  0  0  0
  -21.4627  -29.0911   23.4405 N   0  0  0  0  0  0  0  0  0  0  0  0
  -27.6326  -28.4908   25.5873 N   0  0  0  0  0  0  0  0  0  0  0  0
  -29.8986  -25.6760   25.4887 N   0  3  0  0  0  0  0  0  0  0  0  0
  -21.4397  -17.4379   23.9549 O   0  0  0  0  0  0  0  0  0  0  0  0
  -23.2798  -29.8003   22.1686 O   0  0  0  0  0  0  0  0  0  0  0  0
  -24.7853  -28.6717   25.8499 O   0  0  0  0  0  0  0  0  0  0  0  0
  -28.9963  -27.7793   23.8521 O   0  0  0  0  0  0  0  0  0  0  0  0
  -26.2338  -23.4971   17.8825 O   0  0  0  0  0  0  0  0  0  0  0  0
  -32.3370  -23.8373   20.2101 O   0  0  0  0  0  0  0  0  0  0  0  0
  -25.4501  -11.5860   20.7521 O   0  0  0  0  0  0  0  0  0  0  0  0
  -26.2260  -26.7717   17.7152 O   0  0  0  0  0  0  0  0  0  1  0  0
  -21.7313   -7.5847   21.5032 F   0  0  0  0  0  0  0  0  0  0  0  0
  -24.9434   -9.7298   18.7670 F   0  0  0  0  0  0  0  0  0  0  0  0
  1  2  1  0  0  0  0
  1  5  2  0  0  0  0
  2  6  2  0  0  0  0
  3  9  2  0  0  0  0
  3 18  1  0  0  0  0
  4 10  1  0  0  0  0
  4 18  2  0  0  0  0
  5 20  1  0  0  0  0
  6 22  1  0  0  0  0
  7 11  2  0  0  0  0
  7 21  1  0  0  0  0
  8 12  2  0  0  0  0
  8 25  1  0  0  0  0
  9 26  1  0  0  0  0
 10 26  2  0  0  0  0
 11 27  1  0  0  0  0
 12 28  1  0  0  0  0
 13 14  2  0  0  0  0
 13 29  1  0  0  0  0
 14 30  1  0  0  0  0
 15 23  1  0  0  0  0
 15 27  2  0  0  0  0
 16 24  1  0  0  0  0
 16 25  2  0  0  0  0
 17 30  2  0  0  0  0
 17 31  1  0  0  0  0
 18 32  1  0  0  0  0
 19 32  1  0  0  0  0
 19 33  2  0  0  0  0
 19 34  1  0  0  0  0
 20 22  2  0  0  0  0
 20 40  1  0  0  0  0
 21 23  2  0  0  0  0
 21 41  1  0  0  0  0
 22 49  1  0  0  0  0
 23 42  1  0  0  0  0
 24 28  2  0  0  0  0
 24 57  1  0  0  0  0
 25 71  1  0  0  0  0
 26 81  1  0  0  0  0
 27 82  1  0  0  0  0
 28 80  1  0  0  0  0
 29 31  2  0  0  0  0
 29 81  1  0  0  0  0
 30 83  1  0  0  0  0
 31 84  1  0  0  0  0
 32 64  2  0  0  0  0
 33 66  1  0  0  0  0
 33 69  1  0  0  0  0
 34 70  1  0  0  0  0
 34 75  2  0  0  0  0
 35 50  1  0  0  0  0
 35 72  1  0  0  0  0
 35 76  2  0  0  0  0
 36 57  1  0  0  0  0
 36 58  1  0  0  0  0
 36 65  2  0  0  0  0
 37 61  1  0  0  0  0
 37 67  1  0  0  0  0
 37 77  2  0  0  0  0
 38 62  1  0  0  0  0
 38 73  1  0  0  0  0
 38 78  2  0  0  0  0
 39 68  1  0  0  0  0
 39 71  1  0  0  0  0
 39 79  2  0  0  0  0
 40 43  1  0  0  0  0
 41 50  1  0  0  0  0
 42 67  1  0  0  0  0
 43 45  1  0  0  0  0
 44 46  1  0  0  0  0
 44 47  1  0  0  0  0
 45 49  1  0  0  0  0
 46 51  1  0  0  0  0
 47 68  1  0  0  0  0
 48 51  1  0  0  0  0
 48 68  1  0  0  0  0
 49 72  1  0  0  0  0
 50 67  1  0  0  0  0
 51 66  1  0  0  0  0
 52 62  1  0  0  0  0
 53 63  1  0  0  0  0
 54 63  1  0  0  0  0
 55 63  1  0  0  0  0
 56 74  1  0  0  0  0
 58 59  1  0  0  0  0
 59 60  1  0  0  0  0
 60 82  1  0  0  0  0
 61 63  1  0  0  0  0
 61 73  1  0  0  0  0
 62 74  1  0  0  0  0
 64 66  1  0  0  0  0
M  CHG  1  74   1
M  ISO  4  39 100  60 101  71 100  82 101
M  END
> <Batch ID>
0120

> <Smiles>
CNC(C)C(=O)NC(C(=O)N1Cc2cc([101O:1][101CH2:1]CCC(=N)Cc3cc([100NH:0][100C:0](=O)N4CCCC(n5nc(-c6ccc(Oc7ccc(F)cc7F)cc6)c(C(N)=O)c5N)C4)ccc3O)ccc2CC1C(=O)NC1CCCc2ccccc21)C(C)(C)C

> <Shape>
0.235

> <Color>
0.072

> <Negative vol penalty>
0.000

$$$$

  -OEChem-04052301543D

 88 96  0     1  0  0  0  0  0999 V2000
  -35.1679  -22.6641   16.6421 C   0  0  0  0  0  0  0  0  0  0  0  0
  -34.3601  -23.7136   17.0681 C   0  0  0  0  0  0  0  0  0  0  0  0
  -29.6842  -17.1048   18.8338 C   0  0  0  0  0  0  0  0  0  0  0  0
  -30.0477  -17.6254   21.1649 C   0  0  0  0  0  0  0  0  0  0  0  0
  -35.2958  -21.5205   17.4292 C   0  0  0  0  0  0  0  0  0  0  0  0
  -33.6788  -23.6195   18.2811 C   0  0  0  0  0  0  0  0  0  0  0  0
  -32.4783  -28.1766   22.1923 C   0  0  0  0  0  0  0  0  0  0  0  0
  -30.5329  -16.0037   18.9474 C   0  0  0  0  0  0  0  0  0  0  0  0
  -30.8964  -16.5243   21.2785 C   0  0  0  0  0  0  0  0  0  0  0  0
  -31.3418  -28.9559   22.4042 C   0  0  0  0  0  0  0  0  0  0  0  0
  -32.3195  -12.8464   18.7144 C   0  0  0  0  0  0  0  0  0  0  0  0
  -31.9030  -11.6448   18.1416 C   0  0  0  0  0  0  0  0  0  0  0  0
  -25.0407  -29.3767   22.1234 C   0  0  0  0  0  0  0  0  0  0  0  0
  -30.6750  -27.4854   24.1964 C   0  0  0  0  0  0  0  0  0  0  0  0
  -25.1634  -30.9472   19.8210 C   0  0  0  0  0  0  0  0  0  0  0  0
  -29.9523  -11.6414   19.5670 C   0  0  0  0  0  0  0  0  0  0  0  0
  -29.4416  -17.9157   19.9426 C   0  0  0  0  0  0  0  0  0  0  0  0
  -24.8892  -30.7604   22.2141 C   0  0  0  0  0  0  0  0  0  0  0  0
  -27.1739  -19.0803   20.0371 C   0  0  0  0  0  0  0  0  0  0  0  0
  -34.6233  -21.4163   18.6570 C   0  0  0  0  0  0  0  0  0  0  0  0
  -32.7164  -27.0377   22.9751 C   0  0  0  0  0  0  0  0  0  0  0  0
  -33.7967  -22.4728   19.0848 C   0  0  0  0  0  0  0  0  0  0  0  0
  -31.8165  -26.6947   23.9942 C   0  0  0  0  0  0  0  0  0  0  0  0
  -24.9505  -31.5456   21.0629 C   0  0  0  0  0  0  0  0  0  0  0  0
  -31.1389  -15.7134   20.1697 C   0  0  0  0  0  0  0  0  0  0  0  0
  -30.4385  -28.6087   23.4045 C   0  0  0  0  0  0  0  0  0  0  0  0
  -31.5525  -13.4455   19.7136 C   0  0  0  0  0  0  0  0  0  0  0  0
  -25.2536  -28.7783   20.8815 C   0  0  0  0  0  0  0  0  0  0  0  0
  -25.3149  -29.5635   19.7303 C   0  0  0  0  0  0  0  0  0  0  0  0
  -30.7194  -11.0423   18.5678 C   0  0  0  0  0  0  0  0  0  0  0  0
  -30.3688  -12.8430   20.1399 C   0  0  0  0  0  0  0  0  0  0  0  0
  -28.5655  -19.0536   19.8258 C   0  0  0  0  0  0  0  0  0  0  0  0
  -26.8159  -20.3854   19.8023 C   0  0  0  0  0  0  0  0  0  0  0  0
  -25.7317  -31.1592   24.5715 C   0  0  0  0  0  0  0  0  0  0  0  0
  -27.0075  -30.9838   24.2017 C   0  0  0  0  0  0  0  0  0  0  0  0
  -24.6647  -31.3730   23.5530 C   0  0  0  0  0  0  0  0  0  0  0  0
  -26.2844  -18.0202   20.4121 C   0  0  0  0  0  0  0  0  0  0  0  0
  -32.9875  -23.9263   22.3841 C   0  0  0  0  0  0  0  0  0  0  0  0
  -27.7766  -25.8503   20.5100 C   0  0  0  0  0  0  0  0  0  0  0  0
  -33.7865  -23.7959   25.5253 C   0  0  0  0  0  0  0  0  0  0  0  0
  -33.6090  -25.2204   28.6214 C   0  0  0  0  0  0  0  0  0  0  0  0
  -34.7551  -20.1408   19.4509 C   0  0  0  0  0  0  0  0  0  0  0  0
  -33.9607  -26.2227   22.7516 C   0  0  0  0  0  0  0  0  0  0  0  0
  -32.0367  -25.4933   24.8754 C   0  0  0  0  0  0  0  0  0  0  0  0
  -34.2958  -20.2754   20.9005 C   0  0  0  0  0  0  0  0  0  0  0  0
  -29.4219  -24.2108   17.7816 C   0  0  0  0  0  0  0  0  0  0  0  0
  -32.9536  -20.9967   20.9704 C   0  0  0  0  0  0  0  0  0  0  0  0
  -29.2577  -22.7260   18.1033 C   0  0  0  0  0  0  0  0  0  0  0  0
  -29.5999  -25.0405   19.0493 C   0  0  0  0  0  0  0  0  0  0  0  0
  -28.3420  -23.3737   20.3764 C   0  0  0  0  0  0  0  0  0  0  0  0
  -33.0613  -22.4185   20.4062 C   0  0  1  0  0  0  0  0  0  0  0  0
  -33.8391  -24.7925   23.2684 C   0  0  1  0  0  0  0  0  0  0  0  0
  -28.1287  -22.5034   19.1253 C   0  0  2  0  0  0  0  0  0  0  0  0
  -24.7919  -33.0295   21.1317 C   0  0  0  0  0  0  0  0  0  0  0  0
  -34.3279  -24.8620   30.9988 C   0  0  0  0  0  0  0  0  0  0  0  0
  -31.6107  -21.6834   25.8623 C   0  0  0  0  0  0  0  0  0  0  0  0
  -31.7238  -22.0617   28.3346 C   0  0  0  0  0  0  0  0  0  0  0  0
  -33.7251  -21.2118   27.1118 C   0  0  0  0  0  0  0  0  0  0  0  0
  -35.1902  -27.7220   28.6423 C   0  0  0  0  0  0  0  0  0  0  0  0
  -24.3677  -28.5898   17.7783 C   0  0  0  0  0  0  0  0  0  0  0  0
  -28.1263  -30.7541   25.1795 C   0  0  0  0  0  0  0  0  0  0  0  0
  -26.6786  -25.5070   21.4850 C   0  0  0  0  0  0  0  0  0  0  0  0
  -28.8144  -29.4149   24.9435 C   0  0  0  0  0  0  0  0  0  1  0  0
  -25.9709  -26.7719   21.9378 C   0  0  0  0  0  0  0  0  0  0  0  0
  -33.0233  -23.6227   26.8162 C   0  0  1  0  0  0  0  0  0  0  0  0
  -34.6764  -25.5013   29.6636 C   0  0  2  0  0  0  0  0  0  0  0  0
  -32.5153  -22.1665   27.0135 C   0  0  0  0  0  0  0  0  0  0  0  0
  -29.0580  -20.2469   19.4830 N   0  0  0  0  0  0  0  0  0  0  0  0
  -23.5586  -32.0034   23.7903 N   0  0  0  0  0  0  0  0  0  0  0  0
  -27.9698  -21.0357   19.4770 N   0  0  0  0  0  0  0  0  0  0  0  0
  -33.2647  -24.7246   24.6136 N   0  0  0  0  0  0  0  0  0  0  0  0
  -28.5198  -24.7840   20.0036 N   0  0  0  0  0  0  0  0  0  0  0  0
  -25.6298  -21.0286   19.8444 N   0  0  0  0  0  0  0  0  0  0  0  0
  -26.8182  -16.7401   20.6139 N   0  0  0  0  0  0  0  0  0  0  0  0
  -33.6859  -23.2988   21.3702 N   0  0  0  0  0  0  0  0  0  0  0  0
  -33.9042  -24.0973   27.8779 N   0  0  0  0  0  0  0  0  0  0  0  0
  -34.8249  -26.9697   29.8702 N   0  3  0  0  0  0  0  0  0  0  0  0
  -25.0503  -18.1991   20.5476 O   0  0  0  0  0  0  0  0  0  0  0  0
  -31.7860  -23.8328   22.6061 O   0  0  0  0  0  0  0  0  0  0  0  0
  -27.9646  -27.0313   20.2065 O   0  0  0  0  0  0  0  0  0  0  0  0
  -34.8119  -23.1369   25.3358 O   0  0  0  0  0  0  0  0  0  0  0  0
  -32.6112  -25.9245   28.4833 O   0  0  0  0  0  0  0  0  0  0  0  0
  -31.9669  -14.6389   20.2809 O   0  0  0  0  0  0  0  0  0  0  0  0
  -25.5232  -28.9905   18.5121 O   0  0  0  0  0  0  0  0  0  0  0  0
  -29.3281  -29.3673   23.6129 O   0  0  0  0  0  0  0  0  0  1  0  0
  -25.4000  -27.4260   20.8063 O   0  0  0  0  0  0  0  0  0  0  0  0
  -30.3187   -9.8892   18.0165 F   0  0  0  0  0  0  0  0  0  0  0  0
  -29.6271  -13.4145   21.0986 F   0  0  0  0  0  0  0  0  0  0  0  0
  1  2  1  0  0  0  0
  1  5  2  0  0  0  0
  2  6  2  0  0  0  0
  3  8  2  0  0  0  0
  3 17  1  0  0  0  0
  4  9  1  0  0  0  0
  4 17  2  0  0  0  0
  5 20  1  0  0  0  0
  6 22  1  0  0  0  0
  7 10  2  0  0  0  0
  7 21  1  0  0  0  0
  8 25  1  0  0  0  0
  9 25  2  0  0  0  0
 10 26  1  0  0  0  0
 11 12  2  0  0  0  0
 11 27  1  0  0  0  0
 12 30  1  0  0  0  0
 13 18  1  0  0  0  0
 13 28  2  0  0  0  0
 14 23  1  0  0  0  0
 14 26  2  0  0  0  0
 15 24  1  0  0  0  0
 15 29  2  0  0  0  0
 16 30  2  0  0  0  0
 16 31  1  0  0  0  0
 17 32  1  0  0  0  0
 18 24  2  0  0  0  0
 18 36  1  0  0  0  0
 19 32  1  0  0  0  0
 19 33  2  0  0  0  0
 19 37  1  0  0  0  0
 20 22  2  0  0  0  0
 20 42  1  0  0  0  0
 21 23  2  0  0  0  0
 21 43  1  0  0  0  0
 22 51  1  0  0  0  0
 23 44  1  0  0  0  0
 24 54  1  0  0  0  0
 25 83  1  0  0  0  0
 26 85  1  0  0  0  0
 27 31  2  0  0  0  0
 27 83  1  0  0  0  0
 28 29  1  0  0  0  0
 28 86  1  0  0  0  0
 29 84  1  0  0  0  0
 30 87  1  0  0  0  0
 31 88  1  0  0  0  0
 32 68  2  0  0  0  0
 33 70  1  0  0  0  0
 33 73  1  0  0  0  0
 34 35  2  0  0  0  0
 34 36  1  0  0  0  0
 35 61  1  0  0  0  0
 36 69  2  0  0  0  0
 37 74  1  0  0  0  0
 37 78  2  0  0  0  0
 38 52  1  0  0  0  0
 38 75  1  0  0  0  0
 38 79  2  0  0  0  0
 39 62  1  0  0  0  0
 39 72  1  0  0  0  0
 39 80  2  0  0  0  0
 40 65  1  0  0  0  0
 40 71  1  0  0  0  0
 40 81  2  0  0  0  0
 41 66  1  0  0  0  0
 41 76  1  0  0  0  0
 41 82  2  0  0  0  0
 42 45  1  0  0  0  0
 43 52  1  0  0  0  0
 44 71  1  0  0  0  0
 45 47  1  0  0  0  0
 46 48  1  0  0  0  0
 46 49  1  0  0  0  0
 47 51  1  0  0  0  0
 48 53  1  0  0  0  0
 49 72  1  0  0  0  0
 50 53  1  0  0  0  0
 50 72  1  0  0  0  0
 51 75  1  0  0  0  0
 52 71  1  0  0  0  0
 53 70  1  0  0  0  0
 55 66  1  0  0  0  0
 56 67  1  0  0  0  0
 57 67  1  0  0  0  0
 58 67  1  0  0  0  0
 59 77  1  0  0  0  0
 60 84  1  0  0  0  0
 61 63  1  0  0  0  0
 62 64  1  0  0  0  0
 63 85  1  0  0  0  0
 64 86  1  0  0  0  0
 65 67  1  0  0  0  0
 65 76  1  0  0  0  0
 66 77  1  0  0  0  0
 68 70  1  0  0  0  0
M  CHG  1  77   1
M  ISO  4  39 100  62 100  63 101  85 101
M  END
> <Batch ID>
0120

> <Smiles>
CNC(C)C(=O)NC(C(=O)N1Cc2cc([101O:1][101CH2:1]CC=CC(=N)c3cc(OC[100CH2:0][100C:0](=O)N4CCCC(n5nc(-c6ccc(Oc7ccc(F)cc7F)cc6)c(C(N)=O)c5N)C4)c(OC)cc3C)ccc2CC1C(=O)NC1CCCc2ccccc21)C(C)(C)C

> <Shape>
0.191

> <Color>
0.080

> <Negative vol penalty>
0.000

$$$$

  -OEChem-04052301543D

 85 93  0     1  0  0  0  0  0999 V2000
  -33.2358  -32.6439   17.2171 C   0  0  0  0  0  0  0  0  0  0  0  0
  -32.4429  -31.5016   17.1747 C   0  0  0  0  0  0  0  0  0  0  0  0
  -22.9699   -9.9151   20.0094 C   0  0  0  0  0  0  0  0  0  0  0  0
  -23.7410   -9.9689   22.2984 C   0  0  0  0  0  0  0  0  0  0  0  0
  -29.8474  -17.2245   19.8659 C   0  0  0  0  0  0  0  0  0  0  0  0
  -33.3382  -33.3765   18.3989 C   0  0  0  0  0  0  0  0  0  0  0  0
  -31.7528  -31.0906   18.3145 C   0  0  0  0  0  0  0  0  0  0  0  0
  -26.2516  -28.4071   18.5200 C   0  0  0  0  0  0  0  0  0  0  0  0
  -22.2002   -8.7876   20.2952 C   0  0  0  0  0  0  0  0  0  0  0  0
  -22.9712   -8.8414   22.5842 C   0  0  0  0  0  0  0  0  0  0  0  0
  -29.1811  -18.3376   19.3535 C   0  0  0  0  0  0  0  0  0  0  0  0
  -25.8622  -27.0742   18.6441 C   0  0  0  0  0  0  0  0  0  0  0  0
  -23.1805   -5.4989   22.1203 C   0  0  0  0  0  0  0  0  0  0  0  0
  -23.7750   -4.4800   22.8645 C   0  0  0  0  0  0  0  0  0  0  0  0
  -25.6012  -27.3781   21.0229 C   0  0  0  0  0  0  0  0  0  0  0  0
  -27.7589  -18.3849   21.3060 C   0  0  0  0  0  0  0  0  0  0  0  0
  -22.0866   -4.7424   24.5725 C   0  0  0  0  0  0  0  0  0  0  0  0
  -23.7404  -10.5058   21.0110 C   0  0  0  0  0  0  0  0  0  0  0  0
  -29.4694  -16.6915   21.0983 C   0  0  0  0  0  0  0  0  0  0  0  0
  -24.1415  -13.0176   20.8179 C   0  0  0  0  0  0  0  0  0  0  0  0
  -32.6413  -32.9797   19.5511 C   0  0  0  0  0  0  0  0  0  0  0  0
  -26.3293  -29.2340   19.6499 C   0  0  0  0  0  0  0  0  0  0  0  0
  -31.8470  -31.8178   19.5133 C   0  0  0  0  0  0  0  0  0  0  0  0
  -25.9893  -28.7219   20.9101 C   0  0  0  0  0  0  0  0  0  0  0  0
  -28.4252  -17.2717   21.8184 C   0  0  0  0  0  0  0  0  0  0  0  0
  -22.2008   -8.2507   21.5826 C   0  0  0  0  0  0  0  0  0  0  0  0
  -25.5397  -26.5587   19.8960 C   0  0  0  0  0  0  0  0  0  0  0  0
  -28.1368  -18.9178   20.0736 C   0  0  0  0  0  0  0  0  0  0  0  0
  -22.0390   -6.1397   22.6022 C   0  0  0  0  0  0  0  0  0  0  0  0
  -23.2280   -4.1017   24.0906 C   0  0  0  0  0  0  0  0  0  0  0  0
  -21.4921   -5.7614   23.8283 C   0  0  0  0  0  0  0  0  0  0  0  0
  -24.5363  -11.6702   20.7163 C   0  0  0  0  0  0  0  0  0  0  0  0
  -25.2493  -13.7303   20.4288 C   0  0  0  0  0  0  0  0  0  0  0  0
  -25.7556  -22.9794   19.7151 C   0  0  0  0  0  0  0  0  0  0  0  0
  -26.8880  -22.2822   19.8877 C   0  0  0  0  0  0  0  0  0  0  0  0
  -30.1819  -15.5282   21.6090 C   0  0  0  0  0  0  0  0  0  0  0  0
  -22.8857  -13.5753   21.2273 C   0  0  0  0  0  0  0  0  0  0  0  0
  -30.7795  -14.5290   20.6938 C   0  0  0  0  0  0  0  0  0  0  0  0
  -28.6607  -30.8325   21.1037 C   0  0  0  0  0  0  0  0  0  0  0  0
  -26.2217  -31.9715   22.9137 C   0  0  0  0  0  0  0  0  0  0  0  0
  -23.0618  -31.5310   24.1251 C   0  0  0  0  0  0  0  0  0  0  0  0
  -32.8206  -33.7772   20.8186 C   0  0  0  0  0  0  0  0  0  0  0  0
  -26.7253  -30.6769   19.4956 C   0  0  0  0  0  0  0  0  0  0  0  0
  -26.0370  -29.5736   22.1514 C   0  0  0  0  0  0  0  0  0  0  0  0
  -31.7605  -33.4847   21.8773 C   0  0  0  0  0  0  0  0  0  0  0  0
  -29.5439  -12.2262   18.2388 C   0  0  0  0  0  0  0  0  0  0  0  0
  -31.5599  -31.9804   22.0306 C   0  0  0  0  0  0  0  0  0  0  0  0
  -28.1106  -11.9576   18.6965 C   0  0  0  0  0  0  0  0  0  0  0  0
  -30.4783  -12.4387   19.4254 C   0  0  0  0  0  0  0  0  0  0  0  0
  -28.5968  -13.2556   20.8188 C   0  0  0  0  0  0  0  0  0  0  0  0
  -31.0635  -31.3539   20.7219 C   0  0  1  0  0  0  0  0  0  0  0  0
  -27.2654  -31.2894   20.7842 C   0  0  1  0  0  0  0  0  0  0  0  0
  -27.6182  -13.0632   19.6472 C   0  0  2  0  0  0  0  0  0  0  0  0
  -28.5113  -17.5623   24.3073 C   0  0  0  0  0  0  0  0  0  0  0  0
  -21.3529  -32.6131   25.6105 C   0  0  0  0  0  0  0  0  0  0  0  0
  -27.7894  -31.0687   25.3708 C   0  0  0  0  0  0  0  0  0  0  0  0
  -25.6848  -31.2903   26.7087 C   0  0  0  0  0  0  0  0  0  0  0  0
  -26.6755  -33.2957   25.6042 C   0  0  0  0  0  0  0  0  0  0  0  0
  -21.1180  -31.7746   21.9067 C   0  0  0  0  0  0  0  0  0  0  0  0
  -28.0011  -16.7216   23.1410 C   0  0  0  0  0  0  0  0  0  0  0  0
  -25.7020  -24.3306   19.0805 C   0  0  0  0  0  0  0  0  0  1  0  0
  -26.9405  -20.9260   20.5117 C   0  0  0  0  0  0  0  0  0  0  0  0
  -25.5418  -31.5342   24.1886 C   0  0  1  0  0  0  0  0  0  0  0  0
  -21.8673  -32.4659   24.1869 C   0  0  2  0  0  0  0  0  0  0  0  0
  -26.4237  -31.7804   25.4452 C   0  0  0  0  0  0  0  0  0  0  0  0
  -25.7965  -11.5324   20.2956 N   0  0  0  0  0  0  0  0  0  0  0  0
  -30.3422  -15.2906   22.8816 N   0  0  0  0  0  0  0  0  0  0  0  0
  -26.2031  -12.8025   20.1292 N   0  0  0  0  0  0  0  0  0  0  0  0
  -29.9634  -13.4685   20.3258 N   0  0  0  0  0  0  0  0  0  0  0  0
  -26.4362  -30.9762   21.9497 N   0  0  0  0  0  0  0  0  0  0  0  0
  -25.4909  -15.0537   20.3171 N   0  0  0  0  0  0  0  0  0  0  0  0
  -21.8542  -12.7004   21.5946 N   0  0  0  0  0  0  0  0  0  0  0  0
  -29.6514  -31.6141   20.5407 N   0  0  0  0  0  0  0  0  0  0  0  0
  -24.2535  -32.2182   24.2195 N   0  0  0  0  0  0  0  0  0  0  0  0
  -20.7583  -31.9461   23.3378 N   0  3  0  0  0  0  0  0  0  0  0  0
  -22.6790  -14.8123   21.2507 O   0  0  0  0  0  0  0  0  0  0  0  0
  -31.9364  -14.7467   20.3582 O   0  0  0  0  0  0  0  0  0  0  0  0
  -28.8262  -29.8448   21.8099 O   0  0  0  0  0  0  0  0  0  0  0  0
  -26.5441  -33.1541   22.7752 O   0  0  0  0  0  0  0  0  0  0  0  0
  -22.9488  -30.3128   24.0087 O   0  0  0  0  0  0  0  0  0  0  0  0
  -21.4495   -7.1506   21.8618 O   0  0  0  0  0  0  0  0  0  0  0  0
  -25.1600  -25.2578   20.0200 O   0  0  0  0  0  0  0  0  0  1  0  0
  -27.4799  -20.0101   19.5690 O   0  0  0  0  0  0  0  0  0  0  0  0
  -23.7981   -3.1221   24.8044 F   0  0  0  0  0  0  0  0  0  0  0  0
  -20.3949   -6.3725   24.2960 F   0  0  0  0  0  0  0  0  0  0  0  0
  1  2  1  0  0  0  0
  1  6  2  0  0  0  0
  2  7  2  0  0  0  0
  3  9  2  0  0  0  0
  3 18  1  0  0  0  0
  4 10  1  0  0  0  0
  4 18  2  0  0  0  0
  5 11  2  0  0  0  0
  5 19  1  0  0  0  0
  6 21  1  0  0  0  0
  7 23  1  0  0  0  0
  8 12  2  0  0  0  0
  8 22  1  0  0  0  0
  9 26  1  0  0  0  0
 10 26  2  0  0  0  0
 11 28  1  0  0  0  0
 12 27  1  0  0  0  0
 13 14  2  0  0  0  0
 13 29  1  0  0  0  0
 14 30  1  0  0  0  0
 15 24  1  0  0  0  0
 15 27  2  0  0  0  0
 16 25  1  0  0  0  0
 16 28  2  0  0  0  0
 17 30  2  0  0  0  0
 17 31  1  0  0  0  0
 18 32  1  0  0  0  0
 19 25  2  0  0  0  0
 19 36  1  0  0  0  0
 20 32  1  0  0  0  0
 20 33  2  0  0  0  0
 20 37  1  0  0  0  0
 21 23  2  0  0  0  0
 21 42  1  0  0  0  0
 22 24  2  0  0  0  0
 22 43  1  0  0  0  0
 23 51  1  0  0  0  0
 24 44  1  0  0  0  0
 25 60  1  0  0  0  0
 26 81  1  0  0  0  0
 27 82  1  0  0  0  0
 28 83  1  0  0  0  0
 29 31  2  0  0  0  0
 29 81  1  0  0  0  0
 30 84  1  0  0  0  0
 31 85  1  0  0  0  0
 32 66  2  0  0  0  0
 33 68  1  0  0  0  0
 33 71  1  0  0  0  0
 34 35  2  0  0  0  0
 34 61  1  0  0  0  0
 35 62  1  0  0  0  0
 36 38  1  0  0  0  0
 36 67  2  0  0  0  0
 37 72  1  0  0  0  0
 37 76  2  0  0  0  0
 38 69  1  0  0  0  0
 38 77  2  0  0  0  0
 39 52  1  0  0  0  0
 39 73  1  0  0  0  0
 39 78  2  0  0  0  0
 40 63  1  0  0  0  0
 40 70  1  0  0  0  0
 40 79  2  0  0  0  0
 41 64  1  0  0  0  0
 41 74  1  0  0  0  0
 41 80  2  0  0  0  0
 42 45  1  0  0  0  0
 43 52  1  0  0  0  0
 44 70  1  0  0  0  0
 45 47  1  0  0  0  0
 46 48  1  0  0  0  0
 46 49  1  0  0  0  0
 47 51  1  0  0  0  0
 48 53  1  0  0  0  0
 49 69  1  0  0  0  0
 50 53  1  0  0  0  0
 50 69  1  0  0  0  0
 51 73  1  0  0  0  0
 52 70  1  0  0  0  0
 53 68  1  0  0  0  0
 54 60  1  0  0  0  0
 55 64  1  0  0  0  0
 56 65  1  0  0  0  0
 57 65  1  0  0  0  0
 58 65  1  0  0  0  0
 59 75  1  0  0  0  0
 61 82  1  0  0  0  0
 62 83  1  0  0  0  0
 63 65  1  0  0  0  0
 63 74  1  0  0  0  0
 64 75  1  0  0  0  0
 66 68  1  0  0  0  0
M  CHG  1  75   1
M  ISO  4  36 100  38 100  61 101  82 101
M  END
> <Batch ID>
0120

> <Smiles>
CCc1cc(OCC=C[101CH2:1][101O:1]c2ccc3c(c2)CN(C(=O)C(NC(=O)C(C)NC)C(C)(C)C)C(C(=O)NC2CCCc4ccccc42)C3)ccc1[100C:0](=N)[100C:0](=O)N1CCCC(n2nc(-c3ccc(Oc4ccc(F)cc4F)cc3)c(C(N)=O)c2N)C1

> <Shape>
0.337

> <Color>
0.234

> <Negative vol penalty>
0.000

$$$$

  -OEChem-04052301543D

 85 93  0     1  0  0  0  0  0999 V2000
  -28.9554  -36.8628   19.7928 C   0  0  0  0  0  0  0  0  0  0  0  0
  -29.2025  -35.5038   19.6269 C   0  0  0  0  0  0  0  0  0  0  0  0
  -22.7931   -5.7487   23.8874 C   0  0  0  0  0  0  0  0  0  0  0  0
  -20.7782   -5.6364   22.5590 C   0  0  0  0  0  0  0  0  0  0  0  0
  -26.5116  -17.1286   19.7720 C   0  0  0  0  0  0  0  0  0  0  0  0
  -26.6585  -18.4826   19.4708 C   0  0  0  0  0  0  0  0  0  0  0  0
  -28.0913  -37.2955   20.7978 C   0  0  0  0  0  0  0  0  0  0  0  0
  -28.5863  -34.5767   20.4667 C   0  0  0  0  0  0  0  0  0  0  0  0
  -26.6769  -28.9533   18.9707 C   0  0  0  0  0  0  0  0  0  0  0  0
  -22.2014   -4.9352   24.8537 C   0  0  0  0  0  0  0  0  0  0  0  0
  -20.1865   -4.8229   23.5253 C   0  0  0  0  0  0  0  0  0  0  0  0
  -27.2484  -27.6929   19.1393 C   0  0  0  0  0  0  0  0  0  0  0  0
  -21.5622   -1.6433   25.2867 C   0  0  0  0  0  0  0  0  0  0  0  0
  -22.3229   -0.5963   25.8069 C   0  0  0  0  0  0  0  0  0  0  0  0
  -27.2099  -16.5544   17.5315 C   0  0  0  0  0  0  0  0  0  0  0  0
  -25.9709  -27.3910   21.1632 C   0  0  0  0  0  0  0  0  0  0  0  0
  -22.1118   -1.5423   28.0199 C   0  0  0  0  0  0  0  0  0  0  0  0
  -22.0815   -6.0993   22.7401 C   0  0  0  0  0  0  0  0  0  0  0  0
  -26.7873  -16.1645   18.8024 C   0  0  0  0  0  0  0  0  0  0  0  0
  -27.0811  -18.8725   18.2000 C   0  0  0  0  0  0  0  0  0  0  0  0
  -23.4484   -6.5263   20.6290 C   0  0  0  0  0  0  0  0  0  0  0  0
  -27.4567  -36.3726   21.6441 C   0  0  0  0  0  0  0  0  0  0  0  0
  -25.7547  -29.4474   19.9045 C   0  0  0  0  0  0  0  0  0  0  0  0
  -27.7139  -34.9975   21.4848 C   0  0  0  0  0  0  0  0  0  0  0  0
  -25.3872  -28.6570   21.0028 C   0  0  0  0  0  0  0  0  0  0  0  0
  -27.3568  -17.9084   17.2303 C   0  0  0  0  0  0  0  0  0  0  0  0
  -20.8981   -4.4723   24.6727 C   0  0  0  0  0  0  0  0  0  0  0  0
  -26.8976  -26.9127   20.2372 C   0  0  0  0  0  0  0  0  0  0  0  0
  -21.0763   -2.6399   26.1331 C   0  0  0  0  0  0  0  0  0  0  0  0
  -22.5978   -0.5458   27.1735 C   0  0  0  0  0  0  0  0  0  0  0  0
  -21.3511   -2.5894   27.4997 C   0  0  0  0  0  0  0  0  0  0  0  0
  -22.6919   -6.9400   21.7418 C   0  0  0  0  0  0  0  0  0  0  0  0
  -23.7983   -7.6950   19.9979 C   0  0  0  0  0  0  0  0  0  0  0  0
  -26.6330  -14.7529   19.1171 C   0  0  0  0  0  0  0  0  0  0  0  0
  -27.2269  -20.3093   17.9132 C   0  0  0  0  0  0  0  0  0  0  0  0
  -25.8931  -14.2524   20.1294 C   0  0  0  0  0  0  0  0  0  0  0  0
  -28.0283  -21.1545   18.5805 C   0  0  0  0  0  0  0  0  0  0  0  0
  -23.8031   -5.2038   20.2036 C   0  0  0  0  0  0  0  0  0  0  0  0
  -25.8279  -12.7888   20.3142 C   0  0  0  0  0  0  0  0  0  0  0  0
  -25.6737  -31.9415   21.8734 C   0  0  0  0  0  0  0  0  0  0  0  0
  -27.7472  -23.4747   19.4481 C   0  0  0  0  0  0  0  0  0  0  0  0
  -22.6459  -30.9150   22.4223 C   0  0  0  0  0  0  0  0  0  0  0  0
  -20.4108  -28.3362   22.3921 C   0  0  0  0  0  0  0  0  0  0  0  0
  -26.5676  -36.8909   22.7466 C   0  0  0  0  0  0  0  0  0  0  0  0
  -25.1271  -30.7980   19.6941 C   0  0  0  0  0  0  0  0  0  0  0  0
  -24.3867  -29.1330   22.0231 C   0  0  0  0  0  0  0  0  0  0  0  0
  -25.6634  -35.8211   23.3535 C   0  0  0  0  0  0  0  0  0  0  0  0
  -22.1994  -12.4284   20.6828 C   0  0  0  0  0  0  0  0  0  0  0  0
  -26.4591  -34.5532   23.6467 C   0  0  0  0  0  0  0  0  0  0  0  0
  -22.0785  -10.9302   20.9484 C   0  0  0  0  0  0  0  0  0  0  0  0
  -23.4768  -13.0142   21.2825 C   0  0  0  0  0  0  0  0  0  0  0  0
  -24.5961  -10.8099   21.1140 C   0  0  0  0  0  0  0  0  0  0  0  0
  -27.0452  -33.9597   22.3599 C   0  0  1  0  0  0  0  0  0  0  0  0
  -24.5864  -31.4128   20.9813 C   0  0  1  0  0  0  0  0  0  0  0  0
  -23.3413  -10.1906   20.4789 C   0  0  1  0  0  0  0  0  0  0  0  0
  -27.8108  -18.2897   15.8578 C   0  0  0  0  0  0  0  0  0  0  0  0
  -18.0205  -27.7947   22.9314 C   0  0  0  0  0  0  0  0  0  0  0  0
  -23.3216  -30.9070   25.3978 C   0  0  0  0  0  0  0  0  0  0  0  0
  -21.2930  -29.4913   25.7834 C   0  0  0  0  0  0  0  0  0  0  0  0
  -21.0476  -31.7902   24.8467 C   0  0  0  0  0  0  0  0  0  0  0  0
  -19.8304  -27.5740   19.5919 C   0  0  0  0  0  0  0  0  0  0  0  0
  -28.1386  -22.6129   18.2559 C   0  0  0  0  0  0  0  0  0  0  0  0
  -27.8282  -24.9726   19.2242 C   0  0  0  0  0  0  0  0  0  1  0  0
  -22.0020  -29.9549   23.3932 C   0  0  1  0  0  0  0  0  0  0  0  0
  -18.9959  -28.2359   21.8512 C   0  0  2  0  0  0  0  0  0  0  0  0
  -21.9364  -30.5274   24.8373 C   0  0  0  0  0  0  0  0  0  0  0  0
  -22.5682   -8.2679   21.8163 N   0  0  0  0  0  0  0  0  0  0  0  0
  -23.2517   -8.6987   20.7423 N   0  0  0  0  0  0  0  0  0  0  0  0
  -24.6648  -12.2543   20.8656 N   0  0  0  0  0  0  0  0  0  0  0  0
  -23.8056  -30.4631   21.7767 N   0  0  0  0  0  0  0  0  0  0  0  0
  -24.5172   -7.9518   18.8845 N   0  0  0  0  0  0  0  0  0  0  0  0
  -23.3609   -4.1152   20.9677 N   0  0  0  0  0  0  0  0  0  0  0  0
  -26.0229  -33.2538   21.6176 N   0  0  0  0  0  0  0  0  0  0  0  0
  -20.7021  -29.6120   22.8267 N   0  0  0  0  0  0  0  0  0  0  0  0
  -18.9371  -27.2511   20.7342 N   0  3  0  0  0  0  0  0  0  0  0  0
  -24.5055   -4.9945   19.1856 O   0  0  0  0  0  0  0  0  0  0  0  0
  -26.8107  -12.1282   19.9729 O   0  0  0  0  0  0  0  0  0  0  0  0
  -26.1588  -31.2133   22.7314 O   0  0  0  0  0  0  0  0  0  0  0  0
  -27.3738  -23.0024   20.5211 O   0  0  0  0  0  0  0  0  0  0  0  0
  -22.1346  -32.0224   22.2380 O   0  0  0  0  0  0  0  0  0  0  0  0
  -21.1793  -27.3779   22.4291 O   0  0  0  0  0  0  0  0  0  0  0  0
  -20.3205   -3.6783   25.6153 O   0  0  0  0  0  0  0  0  0  0  0  0
  -27.4545  -25.6823   20.4045 O   0  0  0  0  0  0  0  0  0  1  0  0
  -23.3270    0.4606   27.6731 F   0  0  0  0  0  0  0  0  0  0  0  0
  -20.8860   -3.5433   28.3180 F   0  0  0  0  0  0  0  0  0  0  0  0
  1  2  1  0  0  0  0
  1  7  2  0  0  0  0
  2  8  2  0  0  0  0
  3 10  2  0  0  0  0
  3 18  1  0  0  0  0
  4 11  1  0  0  0  0
  4 18  2  0  0  0  0
  5  6  2  0  0  0  0
  5 19  1  0  0  0  0
  6 20  1  0  0  0  0
  7 22  1  0  0  0  0
  8 24  1  0  0  0  0
  9 12  2  0  0  0  0
  9 23  1  0  0  0  0
 10 27  1  0  0  0  0
 11 27  2  0  0  0  0
 12 28  1  0  0  0  0
 13 14  2  0  0  0  0
 13 29  1  0  0  0  0
 14 30  1  0  0  0  0
 15 19  2  0  0  0  0
 15 26  1  0  0  0  0
 16 25  1  0  0  0  0
 16 28  2  0  0  0  0
 17 30  2  0  0  0  0
 17 31  1  0  0  0  0
 18 32  1  0  0  0  0
 19 34  1  0  0  0  0
 20 26  2  0  0  0  0
 20 35  1  0  0  0  0
 21 32  1  0  0  0  0
 21 33  2  0  0  0  0
 21 38  1  0  0  0  0
 22 24  2  0  0  0  0
 22 44  1  0  0  0  0
 23 25  2  0  0  0  0
 23 45  1  0  0  0  0
 24 53  1  0  0  0  0
 25 46  1  0  0  0  0
 26 56  1  0  0  0  0
 27 82  1  0  0  0  0
 28 83  1  0  0  0  0
 29 31  2  0  0  0  0
 29 82  1  0  0  0  0
 30 84  1  0  0  0  0
 31 85  1  0  0  0  0
 32 67  2  0  0  0  0
 33 68  1  0  0  0  0
 33 71  1  0  0  0  0
 34 36  2  0  0  0  0
 35 37  2  0  0  0  0
 36 39  1  0  0  0  0
 37 62  1  0  0  0  0
 38 72  1  0  0  0  0
 38 76  2  0  0  0  0
 39 69  1  0  0  0  0
 39 77  2  0  0  0  0
 40 54  1  0  0  0  0
 40 73  1  0  0  0  0
 40 78  2  0  0  0  0
 41 62  1  0  0  0  0
 41 63  1  0  0  0  0
 41 79  2  0  0  0  0
 42 64  1  0  0  0  0
 42 70  1  0  0  0  0
 42 80  2  0  0  0  0
 43 65  1  0  0  0  0
 43 74  1  0  0  0  0
 43 81  2  0  0  0  0
 44 47  1  0  0  0  0
 45 54  1  0  0  0  0
 46 70  1  0  0  0  0
 47 49  1  0  0  0  0
 48 50  1  0  0  0  0
 48 51  1  0  0  0  0
 49 53  1  0  0  0  0
 50 55  1  0  0  0  0
 51 69  1  0  0  0  0
 52 55  1  0  0  0  0
 52 69  1  0  0  0  0
 53 73  1  0  0  0  0
 54 70  1  0  0  0  0
 55 68  1  0  0  0  0
 57 65  1  0  0  0  0
 58 66  1  0  0  0  0
 59 66  1  0  0  0  0
 60 66  1  0  0  0  0
 61 75  1  0  0  0  0
 63 83  1  0  0  0  0
 64 66  1  0  0  0  0
 64 74  1  0  0  0  0
 65 75  1  0  0  0  0
 67 68  1  0  0  0  0
M  CHG  1  75   1
M  ISO  4  36 100  39 100  63 101  83 101
M  END
> <Batch ID>
0120

> <Smiles>
CNC(C)C(=O)NC(C(=O)N1Cc2cc([101O:1][101CH2:1]C(=O)CC=Cc3ccc(C=[100CH:0][100C:0](=O)N4CCCC(n5nc(-c6ccc(Oc7ccc(F)cc7F)cc6)c(C(N)=O)c5N)C4)cc3C)ccc2CC1C(=O)NC1CCCc2ccccc21)C(C)(C)C

> <Shape>
0.261

> <Color>
0.077

> <Negative vol penalty>
0.000

$$$$

  -OEChem-04052301543D

 86 94  0     1  0  0  0  0  0999 V2000
  -23.6879  -33.2885   11.5970 C   0  0  0  0  0  0  0  0  0  0  0  0
  -24.6935  -32.7499   12.3934 C   0  0  0  0  0  0  0  0  0  0  0  0
  -22.9812  -10.0364   19.8774 C   0  0  0  0  0  0  0  0  0  0  0  0
  -23.9849   -9.5867   22.0286 C   0  0  0  0  0  0  0  0  0  0  0  0
  -22.3560  -33.1920   11.9979 C   0  0  0  0  0  0  0  0  0  0  0  0
  -24.3678  -32.1155   13.5916 C   0  0  0  0  0  0  0  0  0  0  0  0
  -27.1840  -27.2806   16.0813 C   0  0  0  0  0  0  0  0  0  0  0  0
  -22.2498   -8.8524   19.9711 C   0  0  0  0  0  0  0  0  0  0  0  0
  -23.2534   -8.4027   22.1224 C   0  0  0  0  0  0  0  0  0  0  0  0
  -28.1467  -27.1693   17.0836 C   0  0  0  0  0  0  0  0  0  0  0  0
  -20.0967   -7.4821   22.9022 C   0  0  0  0  0  0  0  0  0  0  0  0
  -19.4703   -7.2036   24.1169 C   0  0  0  0  0  0  0  0  0  0  0  0
  -29.2162  -19.7053   21.1915 C   0  0  0  0  0  0  0  0  0  0  0  0
  -26.4057  -26.7593   18.7022 C   0  0  0  0  0  0  0  0  0  0  0  0
  -31.6290  -18.3736   20.7582 C   0  0  0  0  0  0  0  0  0  0  0  0
  -20.7519   -5.1646   24.3102 C   0  0  0  0  0  0  0  0  0  0  0  0
  -23.8488  -10.4035   20.9061 C   0  0  0  0  0  0  0  0  0  0  0  0
  -30.1549  -20.2334   20.3052 C   0  0  0  0  0  0  0  0  0  0  0  0
  -24.2174  -12.9032   21.2577 C   0  0  0  0  0  0  0  0  0  0  0  0
  -22.0130  -32.5476   13.1969 C   0  0  0  0  0  0  0  0  0  0  0  0
  -25.8218  -27.1426   16.3844 C   0  0  0  0  0  0  0  0  0  0  0  0
  -23.0302  -32.0115   14.0095 C   0  0  0  0  0  0  0  0  0  0  0  0
  -25.4278  -26.8666   17.7015 C   0  0  0  0  0  0  0  0  0  0  0  0
  -29.4839  -18.5113   21.8612 C   0  0  0  0  0  0  0  0  0  0  0  0
  -31.3613  -19.5676   20.0886 C   0  0  0  0  0  0  0  0  0  0  0  0
  -30.6903  -17.8454   21.6445 C   0  0  0  0  0  0  0  0  0  0  0  0
  -22.3859   -8.0356   21.0936 C   0  0  0  0  0  0  0  0  0  0  0  0
  -27.7575  -26.9115   18.3947 C   0  0  0  0  0  0  0  0  0  0  0  0
  -21.0506   -6.6019   22.3913 C   0  0  0  0  0  0  0  0  0  0  0  0
  -19.7980   -6.0448   24.8209 C   0  0  0  0  0  0  0  0  0  0  0  0
  -21.3783   -5.4432   23.0953 C   0  0  0  0  0  0  0  0  0  0  0  0
  -24.6051  -11.6262   20.8096 C   0  0  0  0  0  0  0  0  0  0  0  0
  -25.2760  -13.7164   20.9347 C   0  0  0  0  0  0  0  0  0  0  0  0
  -29.8432  -21.4953   19.6136 C   0  0  0  0  0  0  0  0  0  0  0  0
  -29.5724  -22.6624   20.2186 C   0  0  0  0  0  0  0  0  0  0  0  0
  -23.0084  -13.3172   21.9078 C   0  0  0  0  0  0  0  0  0  0  0  0
  -23.2769  -29.0369   16.1876 C   0  0  0  0  0  0  0  0  0  0  0  0
  -21.6917  -26.3474   17.0685 C   0  0  0  0  0  0  0  0  0  0  0  0
  -21.7849  -23.3012   18.6043 C   0  0  0  0  0  0  0  0  0  0  0  0
  -30.7641  -14.7074   20.7226 C   0  0  0  0  0  0  0  0  0  0  0  0
  -20.5635  -32.5096   13.6117 C   0  0  0  0  0  0  0  0  0  0  0  0
  -24.7974  -27.2388   15.2872 C   0  0  0  0  0  0  0  0  0  0  0  0
  -23.9795  -26.6899   18.0755 C   0  0  0  0  0  0  0  0  0  0  0  0
  -20.2711  -31.4921   14.7115 C   0  0  0  0  0  0  0  0  0  0  0  0
  -29.3356  -12.8447   18.0456 C   0  0  0  0  0  0  0  0  0  0  0  0
  -21.3060  -31.5996   15.8270 C   0  0  0  0  0  0  0  0  0  0  0  0
  -27.9487  -12.4620   18.5654 C   0  0  0  0  0  0  0  0  0  0  0  0
  -30.3808  -12.8249   19.1587 C   0  0  0  0  0  0  0  0  0  0  0  0
  -28.6526  -13.2519   20.8631 C   0  0  0  0  0  0  0  0  0  0  0  0
  -22.7147  -31.2939   15.3040 C   0  0  1  0  0  0  0  0  0  0  0  0
  -23.4043  -27.5909   15.7996 C   0  0  1  0  0  0  0  0  0  0  0  0
  -27.5540  -13.3120   19.7881 C   0  0  2  0  0  0  0  0  0  0  0  0
  -28.4640  -17.9647   22.8055 C   0  0  0  0  0  0  0  0  0  0  0  0
  -32.3903  -20.1043   19.1460 C   0  0  0  0  0  0  0  0  0  0  0  0
  -20.3238  -21.3499   19.2001 C   0  0  0  0  0  0  0  0  0  0  0  0
  -31.0222  -27.3821   19.2877 C   0  0  0  0  0  0  0  0  0  0  0  0
  -20.4521  -27.9708   19.3352 C   0  0  0  0  0  0  0  0  0  0  0  0
  -19.7882  -25.8155   20.4224 C   0  0  0  0  0  0  0  0  0  0  0  0
  -18.8711  -26.4143   18.1811 C   0  0  0  0  0  0  0  0  0  0  0  0
  -23.4170  -21.4364   16.9863 C   0  0  0  0  0  0  0  0  0  0  0  0
  -30.9990  -16.5659   22.3504 C   0  0  0  0  0  0  0  0  0  0  0  0
  -29.2469  -23.9249   19.4711 C   0  0  0  0  0  0  0  0  0  0  0  0
  -30.2749  -25.0231   19.7672 C   0  0  0  0  0  0  0  0  0  0  0  0
  -21.2945  -25.7231   18.3844 C   0  0  1  0  0  0  0  0  0  0  0  0
  -21.2759  -21.9384   18.1706 C   0  0  2  0  0  0  0  0  0  0  0  0
  -29.9795  -26.3119   18.9938 C   0  0  1  0  0  0  0  0  0  1  0  0
  -20.1287  -26.4861   19.0744 C   0  0  0  0  0  0  0  0  0  0  0  0
  -25.8155  -11.6234   20.2449 N   0  0  0  0  0  0  0  0  0  0  0  0
  -26.1975  -12.9086   20.3358 N   0  0  0  0  0  0  0  0  0  0  0  0
  -23.0152  -26.7993   16.9684 N   0  0  0  0  0  0  0  0  0  0  0  0
  -29.9464  -13.6513   20.2875 N   0  0  0  0  0  0  0  0  0  0  0  0
  -25.4993  -15.0366   21.1073 N   0  0  0  0  0  0  0  0  0  0  0  0
  -22.0240  -12.3532   22.1647 N   0  0  0  0  0  0  0  0  0  0  0  0
  -22.8978  -29.8666   15.1497 N   0  0  0  0  0  0  0  0  0  0  0  0
  -21.0061  -24.3214   18.1006 N   0  0  0  0  0  0  0  0  0  0  0  0
  -30.2750  -15.4448   21.7939 N   0  0  0  0  0  0  0  0  0  0  0  0
  -22.4142  -20.9939   17.9892 N   0  3  0  0  0  0  0  0  0  0  0  0
  -22.8001  -14.5099   22.2359 O   0  0  0  0  0  0  0  0  0  0  0  0
  -23.5042  -29.3746   17.3434 O   0  0  0  0  0  0  0  0  0  0  0  0
  -20.8604  -26.4246   16.1604 O   0  0  0  0  0  0  0  0  0  0  0  0
  -22.7724  -23.4460   19.3216 O   0  0  0  0  0  0  0  0  0  0  0  0
  -31.8470  -14.9767   20.1918 O   0  0  0  0  0  0  0  0  0  0  0  0
  -21.6721   -6.8803   21.1855 O   0  0  0  0  0  0  0  0  0  0  0  0
  -28.6951  -26.8031   19.3750 O   0  0  0  0  0  0  0  0  0  1  0  0
  -19.1975   -5.7782   25.9882 F   0  0  0  0  0  0  0  0  0  0  0  0
  -22.2948   -4.5944   22.6102 F   0  0  0  0  0  0  0  0  0  0  0  0
  1  2  1  0  0  0  0
  1  5  2  0  0  0  0
  2  6  2  0  0  0  0
  3  8  2  0  0  0  0
  3 17  1  0  0  0  0
  4  9  1  0  0  0  0
  4 17  2  0  0  0  0
  5 20  1  0  0  0  0
  6 22  1  0  0  0  0
  7 10  2  0  0  0  0
  7 21  1  0  0  0  0
  8 27  1  0  0  0  0
  9 27  2  0  0  0  0
 10 28  1  0  0  0  0
 11 12  2  0  0  0  0
 11 29  1  0  0  0  0
 12 30  1  0  0  0  0
 13 18  1  0  0  0  0
 13 24  2  0  0  0  0
 14 23  1  0  0  0  0
 14 28  2  0  0  0  0
 15 25  1  0  0  0  0
 15 26  2  0  0  0  0
 16 30  2  0  0  0  0
 16 31  1  0  0  0  0
 17 32  1  0  0  0  0
 18 25  2  0  0  0  0
 18 34  1  0  0  0  0
 19 32  1  0  0  0  0
 19 33  2  0  0  0  0
 19 36  1  0  0  0  0
 20 22  2  0  0  0  0
 20 41  1  0  0  0  0
 21 23  2  0  0  0  0
 21 42  1  0  0  0  0
 22 50  1  0  0  0  0
 23 43  1  0  0  0  0
 24 26  1  0  0  0  0
 24 53  1  0  0  0  0
 25 54  1  0  0  0  0
 26 61  1  0  0  0  0
 27 83  1  0  0  0  0
 28 84  1  0  0  0  0
 29 31  2  0  0  0  0
 29 83  1  0  0  0  0
 30 85  1  0  0  0  0
 31 86  1  0  0  0  0
 32 68  2  0  0  0  0
 33 69  1  0  0  0  0
 33 72  1  0  0  0  0
 34 35  2  0  0  0  0
 35 62  1  0  0  0  0
 36 73  1  0  0  0  0
 36 78  2  0  0  0  0
 37 51  1  0  0  0  0
 37 74  1  0  0  0  0
 37 79  2  0  0  0  0
 38 64  1  0  0  0  0
 38 70  1  0  0  0  0
 38 80  2  0  0  0  0
 39 65  1  0  0  0  0
 39 75  1  0  0  0  0
 39 81  2  0  0  0  0
 40 71  1  0  0  0  0
 40 76  1  0  0  0  0
 40 82  2  0  0  0  0
 41 44  1  0  0  0  0
 42 51  1  0  0  0  0
 43 70  1  0  0  0  0
 44 46  1  0  0  0  0
 45 47  1  0  0  0  0
 45 48  1  0  0  0  0
 46 50  1  0  0  0  0
 47 52  1  0  0  0  0
 48 71  1  0  0  0  0
 49 52  1  0  0  0  0
 49 71  1  0  0  0  0
 50 74  1  0  0  0  0
 51 70  1  0  0  0  0
 52 69  1  0  0  0  0
 55 65  1  0  0  0  0
 56 66  1  0  0  0  0
 57 67  1  0  0  0  0
 58 67  1  0  0  0  0
 59 67  1  0  0  0  0
 60 77  1  0  0  0  0
 61 76  1  0  0  0  0
 62 63  1  0  0  0  0
 63 66  1  0  0  0  0
 64 67  1  0  0  0  0
 64 75  1  0  0  0  0
 65 77  1  0  0  0  0
 66 84  1  0  0  0  0
 68 69  1  0  0  0  0
M  CHG  1  77   1
M  ISO  4  40 100  66 101  76 100  84 101
M  END
> <Batch ID>
0120

> <Smiles>
CNC(C)C(=O)NC(C(=O)N1Cc2cc([101O:1][101CH:1](C)CCC=Cc3cc(C)c(C[100NH:0][100C:0](=O)N4CCCC(n5nc(-c6ccc(Oc7ccc(F)cc7F)cc6)c(C(N)=O)c5N)C4)cc3C)ccc2CC1C(=O)NC1CCCc2ccccc21)C(C)(C)C

> <Shape>
0.248

> <Color>
0.181

> <Negative vol penalty>
0.000

$$$$

  -OEChem-04052301543D

 87 95  0     1  0  0  0  0  0999 V2000
  -23.9671  -28.4843   14.6038 C   0  0  0  0  0  0  0  0  0  0  0  0
  -24.1556  -27.5447   15.6123 C   0  0  0  0  0  0  0  0  0  0  0  0
  -23.0158   -9.9980   20.0685 C   0  0  0  0  0  0  0  0  0  0  0  0
  -23.8475  -10.0352   22.3366 C   0  0  0  0  0  0  0  0  0  0  0  0
  -24.2759  -29.8242   14.8345 C   0  0  0  0  0  0  0  0  0  0  0  0
  -24.6542  -27.9443   16.8517 C   0  0  0  0  0  0  0  0  0  0  0  0
  -22.1156  -25.8883   20.7213 C   0  0  0  0  0  0  0  0  0  0  0  0
  -22.2606   -8.8631   20.3641 C   0  0  0  0  0  0  0  0  0  0  0  0
  -23.0923   -8.9003   22.6321 C   0  0  0  0  0  0  0  0  0  0  0  0
  -22.4055  -24.5624   21.0403 C   0  0  0  0  0  0  0  0  0  0  0  0
  -19.8716   -8.1713   23.3504 C   0  0  0  0  0  0  0  0  0  0  0  0
  -19.1513   -8.1670   24.5448 C   0  0  0  0  0  0  0  0  0  0  0  0
  -29.1704  -20.0718   23.9010 C   0  0  0  0  0  0  0  0  0  0  0  0
  -28.7965  -18.3032   22.2982 C   0  0  0  0  0  0  0  0  0  0  0  0
  -23.8174  -25.3120   22.8469 C   0  0  0  0  0  0  0  0  0  0  0  0
  -20.3820   -6.2223   25.2801 C   0  0  0  0  0  0  0  0  0  0  0  0
  -23.8093  -10.5840   21.0548 C   0  0  0  0  0  0  0  0  0  0  0  0
  -30.5339  -19.7777   23.9077 C   0  0  0  0  0  0  0  0  0  0  0  0
  -30.1600  -18.0090   22.3048 C   0  0  0  0  0  0  0  0  0  0  0  0
  -24.1902  -13.1000   20.8747 C   0  0  0  0  0  0  0  0  0  0  0  0
  -24.7694  -30.2420   16.0805 C   0  0  0  0  0  0  0  0  0  0  0  0
  -22.6840  -26.9380   21.4571 C   0  0  0  0  0  0  0  0  0  0  0  0
  -24.9712  -29.2908   17.0988 C   0  0  0  0  0  0  0  0  0  0  0  0
  -23.5311  -26.6503   22.5369 C   0  0  0  0  0  0  0  0  0  0  0  0
  -31.0287  -18.7463   23.1095 C   0  0  0  0  0  0  0  0  0  0  0  0
  -22.2988   -8.3143   21.6458 C   0  0  0  0  0  0  0  0  0  0  0  0
  -23.2588  -24.2742   22.1014 C   0  0  0  0  0  0  0  0  0  0  0  0
  -20.8471   -7.2010   23.1207 C   0  0  0  0  0  0  0  0  0  0  0  0
  -28.3017  -19.3346   23.0963 C   0  0  0  0  0  0  0  0  0  0  0  0
  -19.4065   -7.1926   25.5097 C   0  0  0  0  0  0  0  0  0  0  0  0
  -21.1023   -6.2266   24.0856 C   0  0  0  0  0  0  0  0  0  0  0  0
  -24.5901  -11.7560   20.7499 C   0  0  0  0  0  0  0  0  0  0  0  0
  -25.2830  -13.8230   20.4630 C   0  0  0  0  0  0  0  0  0  0  0  0
  -31.5330  -21.8838   24.6699 C   0  0  0  0  0  0  0  0  0  0  0  0
  -31.4120  -20.5682   24.7610 C   0  0  0  0  0  0  0  0  0  0  0  0
  -30.6416  -16.9246   21.4585 C   0  0  0  0  0  0  0  0  0  0  0  0
  -30.2343  -15.6410   21.5277 C   0  0  0  0  0  0  0  0  0  0  0  0
  -22.9425  -13.6460   21.3228 C   0  0  0  0  0  0  0  0  0  0  0  0
  -30.8133  -14.6539   20.5877 C   0  0  0  0  0  0  0  0  0  0  0  0
  -24.6322  -29.3561   20.7776 C   0  0  0  0  0  0  0  0  0  0  0  0
  -24.0015  -30.2148   23.8415 C   0  0  0  0  0  0  0  0  0  0  0  0
  -23.0265  -29.2707   26.9727 C   0  0  0  0  0  0  0  0  0  0  0  0
  -25.1336  -31.6936   16.2674 C   0  0  0  0  0  0  0  0  0  0  0  0
  -22.3402  -28.3623   21.1172 C   0  0  0  0  0  0  0  0  0  0  0  0
  -24.1510  -27.7406   23.3709 C   0  0  0  0  0  0  0  0  0  0  0  0
  -25.3041  -32.0953   17.7302 C   0  0  0  0  0  0  0  0  0  0  0  0
  -29.5264  -12.3657   18.1454 C   0  0  0  0  0  0  0  0  0  0  0  0
  -26.1562  -31.0689   18.4699 C   0  0  0  0  0  0  0  0  0  0  0  0
  -28.1075  -12.0840   18.6386 C   0  0  0  0  0  0  0  0  0  0  0  0
  -30.4909  -12.5734   19.3086 C   0  0  0  0  0  0  0  0  0  0  0  0
  -28.6424  -13.3658   20.7591 C   0  0  0  0  0  0  0  0  0  0  0  0
  -25.4866  -29.6894   18.4647 C   0  0  1  0  0  0  0  0  0  0  0  0
  -23.3814  -29.3624   21.6102 C   0  0  1  0  0  0  0  0  0  0  0  0
  -27.6340  -13.1779   19.6122 C   0  0  2  0  0  0  0  0  0  0  0  0
  -32.8096  -17.1873   23.9370 C   0  0  0  0  0  0  0  0  0  0  0  0
  -22.6427  -30.1880   29.2768 C   0  0  0  0  0  0  0  0  0  0  0  0
  -25.3805  -21.1037   21.1286 C   0  0  0  0  0  0  0  0  0  0  0  0
  -27.0161  -30.3079   24.3039 C   0  0  0  0  0  0  0  0  0  0  0  0
  -26.5688  -30.2822   26.7671 C   0  0  0  0  0  0  0  0  0  0  0  0
  -25.7389  -32.1750   25.3702 C   0  0  0  0  0  0  0  0  0  0  0  0
  -20.1655  -28.5148   26.9231 C   0  0  0  0  0  0  0  0  0  0  0  0
  -32.4943  -18.4313   23.1158 C   0  0  0  0  0  0  0  0  0  0  0  0
  -24.8228  -22.7190   22.9908 C   0  0  0  0  0  0  0  0  0  1  0  0
  -26.5969  -20.9746   23.3406 C   0  0  0  0  0  0  0  0  0  0  0  0
  -24.6213  -29.9148   25.1850 C   0  0  1  0  0  0  0  0  0  0  0  0
  -22.0102  -29.8626   27.9326 C   0  0  2  0  0  0  0  0  0  0  0  0
  -25.2704  -21.2957   22.6460 C   0  0  2  0  0  0  0  0  0  0  0  0
  -25.9763  -30.6493   25.3898 C   0  0  0  0  0  0  0  0  0  0  0  0
  -25.8394  -11.6299   20.2944 N   0  0  0  0  0  0  0  0  0  0  0  0
  -26.2339  -12.9040   20.1293 N   0  0  0  0  0  0  0  0  0  0  0  0
  -29.9941  -13.5917   20.2318 N   0  0  0  0  0  0  0  0  0  0  0  0
  -23.7892  -29.1173   22.9951 N   0  0  0  0  0  0  0  0  0  0  0  0
  -25.5137  -15.1489   20.3574 N   0  0  0  0  0  0  0  0  0  0  0  0
  -21.9264  -12.7615   21.7092 N   0  0  0  0  0  0  0  0  0  0  0  0
  -24.4205  -29.6413   19.4422 N   0  0  0  0  0  0  0  0  0  0  0  0
  -23.6085  -30.2400   26.1834 N   0  0  0  0  0  0  0  0  0  0  0  0
  -20.8920  -28.9039   28.1591 N   0  3  0  0  0  0  0  0  0  0  0  0
  -22.7292  -14.8815   21.3634 O   0  0  0  0  0  0  0  0  0  0  0  0
  -31.9595  -14.8818   20.2234 O   0  0  0  0  0  0  0  0  0  0  0  0
  -25.7097  -29.1119   21.3078 O   0  0  0  0  0  0  0  0  0  0  0  0
  -23.7099  -31.3789   23.5564 O   0  0  0  0  0  0  0  0  0  0  0  0
  -23.2814  -28.0691   26.9302 O   0  0  0  0  0  0  0  0  0  0  0  0
  -21.5619   -7.2070   21.9347 O   0  0  0  0  0  0  0  0  0  0  0  0
  -23.5439  -22.9809   22.4144 O   0  0  0  0  0  0  0  0  0  1  0  0
  -26.9622  -19.6239   23.0897 O   0  0  0  0  0  0  0  0  0  0  0  0
  -18.7158   -7.1895   26.6573 F   0  0  0  0  0  0  0  0  0  0  0  0
  -22.0391   -5.2926   23.8711 F   0  0  0  0  0  0  0  0  0  0  0  0
  1  2  1  0  0  0  0
  1  5  2  0  0  0  0
  2  6  2  0  0  0  0
  3  8  2  0  0  0  0
  3 17  1  0  0  0  0
  4  9  1  0  0  0  0
  4 17  2  0  0  0  0
  5 21  1  0  0  0  0
  6 23  1  0  0  0  0
  7 10  2  0  0  0  0
  7 22  1  0  0  0  0
  8 26  1  0  0  0  0
  9 26  2  0  0  0  0
 10 27  1  0  0  0  0
 11 12  2  0  0  0  0
 11 28  1  0  0  0  0
 12 30  1  0  0  0  0
 13 18  1  0  0  0  0
 13 29  2  0  0  0  0
 14 19  2  0  0  0  0
 14 29  1  0  0  0  0
 15 24  1  0  0  0  0
 15 27  2  0  0  0  0
 16 30  2  0  0  0  0
 16 31  1  0  0  0  0
 17 32  1  0  0  0  0
 18 25  2  0  0  0  0
 18 35  1  0  0  0  0
 19 25  1  0  0  0  0
 19 36  1  0  0  0  0
 20 32  1  0  0  0  0
 20 33  2  0  0  0  0
 20 38  1  0  0  0  0
 21 23  2  0  0  0  0
 21 43  1  0  0  0  0
 22 24  2  0  0  0  0
 22 44  1  0  0  0  0
 23 52  1  0  0  0  0
 24 45  1  0  0  0  0
 25 62  1  0  0  0  0
 26 83  1  0  0  0  0
 27 84  1  0  0  0  0
 28 31  2  0  0  0  0
 28 83  1  0  0  0  0
 29 85  1  0  0  0  0
 30 86  1  0  0  0  0
 31 87  1  0  0  0  0
 32 69  2  0  0  0  0
 33 70  1  0  0  0  0
 33 73  1  0  0  0  0
 34 35  2  0  0  0  0
 36 37  2  0  0  0  0
 37 39  1  0  0  0  0
 38 74  1  0  0  0  0
 38 78  2  0  0  0  0
 39 71  1  0  0  0  0
 39 79  2  0  0  0  0
 40 53  1  0  0  0  0
 40 75  1  0  0  0  0
 40 80  2  0  0  0  0
 41 65  1  0  0  0  0
 41 72  1  0  0  0  0
 41 81  2  0  0  0  0
 42 66  1  0  0  0  0
 42 76  1  0  0  0  0
 42 82  2  0  0  0  0
 43 46  1  0  0  0  0
 44 53  1  0  0  0  0
 45 72  1  0  0  0  0
 46 48  1  0  0  0  0
 47 49  1  0  0  0  0
 47 50  1  0  0  0  0
 48 52  1  0  0  0  0
 49 54  1  0  0  0  0
 50 71  1  0  0  0  0
 51 54  1  0  0  0  0
 51 71  1  0  0  0  0
 52 75  1  0  0  0  0
 53 72  1  0  0  0  0
 54 70  1  0  0  0  0
 55 62  1  0  0  0  0
 56 66  1  0  0  0  0
 57 67  1  0  0  0  0
 58 68  1  0  0  0  0
 59 68  1  0  0  0  0
 60 68  1  0  0  0  0
 61 77  1  0  0  0  0
 63 67  1  0  0  0  0
 63 84  1  0  0  0  0
 64 67  1  0  0  0  0
 64 85  1  0  0  0  0
 65 68  1  0  0  0  0
 65 76  1  0  0  0  0
 66 77  1  0  0  0  0
 69 70  1  0  0  0  0
M  CHG  1  77   1
M  ISO  4  37 100  39 100  63 101  84 101
M  END
> <Batch ID>
0120

> <Smiles>
C=Cc1cc(OCC(C)[101CH2:1][101O:1]c2ccc3c(c2)CN(C(=O)C(NC(=O)C(C)NC)C(C)(C)C)C(C(=O)NC2CCCc4ccccc42)C3)cc(C=[100CH:0][100C:0](=O)N2CCCC(n3nc(-c4ccc(Oc5ccc(F)cc5F)cc4)c(C(N)=O)c3N)C2)c1CC

> <Shape>
0.256

> <Color>
0.211

> <Negative vol penalty>
0.000

$$$$

  -OEChem-04052301543D

 85 94  0     1  0  0  0  0  0999 V2000
  -29.2993  -36.2233   21.7146 C   0  0  0  0  0  0  0  0  0  0  0  0
  -29.2042  -34.9812   22.3340 C   0  0  0  0  0  0  0  0  0  0  0  0
  -24.4038   -9.5582   20.6122 C   0  0  0  0  0  0  0  0  0  0  0  0
  -24.9225  -10.2323   22.8736 C   0  0  0  0  0  0  0  0  0  0  0  0
  -30.1660  -20.7061   22.7736 C   0  0  0  0  0  0  0  0  0  0  0  0
  -28.1428  -36.9418   21.4147 C   0  0  0  0  0  0  0  0  0  0  0  0
  -27.9524  -34.4575   22.6549 C   0  0  0  0  0  0  0  0  0  0  0  0
  -27.5199  -29.5645   21.4235 C   0  0  0  0  0  0  0  0  0  0  0  0
  -30.0210  -19.5301   22.0377 C   0  0  0  0  0  0  0  0  0  0  0  0
  -24.1221   -8.2681   21.0614 C   0  0  0  0  0  0  0  0  0  0  0  0
  -24.6407   -8.9422   23.3228 C   0  0  0  0  0  0  0  0  0  0  0  0
  -28.1181  -28.6380   22.2763 C   0  0  0  0  0  0  0  0  0  0  0  0
  -21.5726   -6.6680   22.6018 C   0  0  0  0  0  0  0  0  0  0  0  0
  -20.4186   -6.0511   22.1190 C   0  0  0  0  0  0  0  0  0  0  0  0
  -25.9734  -28.1920   23.2865 C   0  0  0  0  0  0  0  0  0  0  0  0
  -27.6389  -19.5726   22.4394 C   0  0  0  0  0  0  0  0  0  0  0  0
  -21.7606   -4.2739   21.1820 C   0  0  0  0  0  0  0  0  0  0  0  0
  -24.8041  -10.5403   21.5183 C   0  0  0  0  0  0  0  0  0  0  0  0
  -29.0476  -21.3153   23.3425 C   0  0  0  0  0  0  0  0  0  0  0  0
  -24.1957  -12.9495   20.9406 C   0  0  0  0  0  0  0  0  0  0  0  0
  -26.8757  -36.4223   21.7233 C   0  0  0  0  0  0  0  0  0  0  0  0
  -26.1434  -29.8201   21.5032 C   0  0  0  0  0  0  0  0  0  0  0  0
  -26.7778  -35.1703   22.3601 C   0  0  0  0  0  0  0  0  0  0  0  0
  -25.3596  -29.1204   22.4318 C   0  0  0  0  0  0  0  0  0  0  0  0
  -27.7840  -20.7486   23.1753 C   0  0  0  0  0  0  0  0  0  0  0  0
  -28.7574  -18.9633   21.8706 C   0  0  0  0  0  0  0  0  0  0  0  0
  -24.2405   -7.9600   22.4166 C   0  0  0  0  0  0  0  0  0  0  0  0
  -27.3454  -27.9537   23.2100 C   0  0  0  0  0  0  0  0  0  0  0  0
  -22.8207   -6.0880   22.3747 C   0  0  0  0  0  0  0  0  0  0  0  0
  -20.5126   -4.8540   21.4091 C   0  0  0  0  0  0  0  0  0  0  0  0
  -22.9147   -4.8909   21.6648 C   0  0  0  0  0  0  0  0  0  0  0  0
  -25.0958  -11.8731   21.0548 C   0  0  0  0  0  0  0  0  0  0  0  0
  -24.9581  -13.9849   20.4580 C   0  0  0  0  0  0  0  0  0  0  0  0
  -29.1700  -23.8724   23.4926 C   0  0  0  0  0  0  0  0  0  0  0  0
  -29.4931  -22.4616   25.4334 C   0  0  0  0  0  0  0  0  0  0  0  0
  -29.2341  -22.5599   24.1155 C   0  0  0  0  0  0  0  0  0  0  0  0
  -29.1787  -25.0121   24.2045 C   0  0  0  0  0  0  0  0  0  0  0  0
  -22.7956  -13.0081   21.2438 C   0  0  0  0  0  0  0  0  0  0  0  0
  -24.3709  -32.3733   22.1691 C   0  0  0  0  0  0  0  0  0  0  0  0
  -21.9258  -30.4074   21.3452 C   0  0  0  0  0  0  0  0  0  0  0  0
  -20.7622  -27.2174   21.0033 C   0  0  0  0  0  0  0  0  0  0  0  0
  -29.6170  -17.0339   20.4978 C   0  0  0  0  0  0  0  0  0  0  0  0
  -25.6560  -37.2569   21.4226 C   0  0  0  0  0  0  0  0  0  0  0  0
  -25.5087  -30.8030   20.5580 C   0  0  0  0  0  0  0  0  0  0  0  0
  -23.8744  -29.3436   22.5439 C   0  0  0  0  0  0  0  0  0  0  0  0
  -29.7137  -23.6569   26.3146 C   0  0  0  0  0  0  0  0  0  0  0  0
  -29.2669  -24.9967   25.7097 C   0  0  0  0  0  0  0  0  0  0  0  0
  -24.3519  -36.4640   21.4565 C   0  0  0  0  0  0  0  0  0  0  0  0
  -29.6667  -14.0213   18.6006 C   0  0  0  0  0  0  0  0  0  0  0  0
  -24.2957  -35.5819   22.6997 C   0  0  0  0  0  0  0  0  0  0  0  0
  -28.4079  -13.2824   19.0606 C   0  0  0  0  0  0  0  0  0  0  0  0
  -30.3337  -14.7751   19.7498 C   0  0  0  0  0  0  0  0  0  0  0  0
  -28.1908  -14.9426   20.9537 C   0  0  0  0  0  0  0  0  0  0  0  0
  -25.4369  -34.5576   22.7015 C   0  0  1  0  0  0  0  0  0  0  0  0
  -24.1859  -31.3603   21.0749 C   0  0  1  0  0  0  0  0  0  0  0  0
  -27.4480  -14.2215   19.8171 C   0  0  2  0  0  0  0  0  0  0  0  0
  -26.5635  -21.3741   23.7701 C   0  0  0  0  0  0  0  0  0  0  0  0
  -18.7120  -25.9282   20.3462 C   0  0  0  0  0  0  0  0  0  0  0  0
  -20.6437  -31.0823   24.0305 C   0  0  0  0  0  0  0  0  0  0  0  0
  -19.1456  -29.0982   23.7351 C   0  0  0  0  0  0  0  0  0  0  0  0
  -19.0478  -30.9860   22.1074 C   0  0  0  0  0  0  0  0  0  0  0  0
  -22.1710  -25.8944   18.7619 C   0  0  0  0  0  0  0  0  0  0  0  0
  -29.0762  -26.3595   23.5546 C   0  0  0  0  0  0  0  0  0  1  0  0
  -21.0422  -29.4323   22.0851 C   0  0  1  0  0  0  0  0  0  0  0  0
  -20.0241  -26.5307   19.8684 C   0  0  2  0  0  0  0  0  0  0  0  0
  -19.9981  -30.1467   22.9890 C   0  0  0  0  0  0  0  0  0  0  0  0
  -26.3352  -12.1949   20.6751 N   0  0  0  0  0  0  0  0  0  0  0  0
  -26.2194  -13.4852   20.3176 N   0  0  0  0  0  0  0  0  0  0  0  0
  -23.3013  -30.3192   21.6019 N   0  0  0  0  0  0  0  0  0  0  0  0
  -29.3652  -15.6479   20.4169 N   0  0  0  0  0  0  0  0  0  0  0  0
  -24.6660  -15.2650   20.1442 N   0  0  0  0  0  0  0  0  0  0  0  0
  -22.1685  -11.8532   21.7311 N   0  0  0  0  0  0  0  0  0  0  0  0
  -28.6105  -17.7671   21.1254 N   0  0  0  0  0  0  0  0  0  0  0  0
  -25.1360  -33.4641   21.8026 N   0  0  0  0  0  0  0  0  0  0  0  0
  -20.4581  -28.5606   21.0715 N   0  0  0  0  0  0  0  0  0  0  0  0
  -20.8599  -25.4397   19.2920 N   0  3  0  0  0  0  0  0  0  0  0  0
  -22.1170  -14.0490   21.0718 O   0  0  0  0  0  0  0  0  0  0  0  0
  -23.8564  -32.1803   23.2644 O   0  0  0  0  0  0  0  0  0  0  0  0
  -21.4151  -31.2127   20.5628 O   0  0  0  0  0  0  0  0  0  0  0  0
  -21.5289  -26.6211   21.7564 O   0  0  0  0  0  0  0  0  0  0  0  0
  -30.6369  -17.5371   20.0195 O   0  0  0  0  0  0  0  0  0  0  0  0
  -23.9655   -6.7013   22.8553 O   0  0  0  0  0  0  0  0  0  0  0  0
  -27.9269  -27.0493   24.0441 O   0  0  0  0  0  0  0  0  0  1  0  0
  -19.4041   -4.2609   20.9469 F   0  0  0  0  0  0  0  0  0  0  0  0
  -24.1108   -4.3283   21.4445 F   0  0  0  0  0  0  0  0  0  0  0  0
  1  2  1  0  0  0  0
  1  6  2  0  0  0  0
  2  7  2  0  0  0  0
  3 10  2  0  0  0  0
  3 18  1  0  0  0  0
  4 11  1  0  0  0  0
  4 18  2  0  0  0  0
  5  9  2  0  0  0  0
  5 19  1  0  0  0  0
  6 21  1  0  0  0  0
  7 23  1  0  0  0  0
  8 12  2  0  0  0  0
  8 22  1  0  0  0  0
  9 26  1  0  0  0  0
 10 27  1  0  0  0  0
 11 27  2  0  0  0  0
 12 28  1  0  0  0  0
 13 14  2  0  0  0  0
 13 29  1  0  0  0  0
 14 30  1  0  0  0  0
 15 24  1  0  0  0  0
 15 28  2  0  0  0  0
 16 25  1  0  0  0  0
 16 26  2  0  0  0  0
 17 30  2  0  0  0  0
 17 31  1  0  0  0  0
 18 32  1  0  0  0  0
 19 25  2  0  0  0  0
 19 36  1  0  0  0  0
 20 32  1  0  0  0  0
 20 33  2  0  0  0  0
 20 38  1  0  0  0  0
 21 23  2  0  0  0  0
 21 43  1  0  0  0  0
 22 24  2  0  0  0  0
 22 44  1  0  0  0  0
 23 54  1  0  0  0  0
 24 45  1  0  0  0  0
 25 57  1  0  0  0  0
 26 73  1  0  0  0  0
 27 82  1  0  0  0  0
 28 83  1  0  0  0  0
 29 31  2  0  0  0  0
 29 82  1  0  0  0  0
 30 84  1  0  0  0  0
 31 85  1  0  0  0  0
 32 67  2  0  0  0  0
 33 68  1  0  0  0  0
 33 71  1  0  0  0  0
 34 36  1  0  0  0  0
 34 37  2  0  0  0  0
 35 36  2  0  0  0  0
 35 46  1  0  0  0  0
 37 47  1  0  0  0  0
 37 63  1  0  0  0  0
 38 72  1  0  0  0  0
 38 77  2  0  0  0  0
 39 55  1  0  0  0  0
 39 74  1  0  0  0  0
 39 78  2  0  0  0  0
 40 64  1  0  0  0  0
 40 69  1  0  0  0  0
 40 79  2  0  0  0  0
 41 65  1  0  0  0  0
 41 75  1  0  0  0  0
 41 80  2  0  0  0  0
 42 70  1  0  0  0  0
 42 73  1  0  0  0  0
 42 81  2  0  0  0  0
 43 48  1  0  0  0  0
 44 55  1  0  0  0  0
 45 69  1  0  0  0  0
 46 47  1  0  0  0  0
 48 50  1  0  0  0  0
 49 51  1  0  0  0  0
 49 52  1  0  0  0  0
 50 54  1  0  0  0  0
 51 56  1  0  0  0  0
 52 70  1  0  0  0  0
 53 56  1  0  0  0  0
 53 70  1  0  0  0  0
 54 74  1  0  0  0  0
 55 69  1  0  0  0  0
 56 68  1  0  0  0  0
 58 65  1  0  0  0  0
 59 66  1  0  0  0  0
 60 66  1  0  0  0  0
 61 66  1  0  0  0  0
 62 76  1  0  0  0  0
 63 83  1  0  0  0  0
 64 66  1  0  0  0  0
 64 75  1  0  0  0  0
 65 76  1  0  0  0  0
 67 68  1  0  0  0  0
M  CHG  1  76   1
M  ISO  4  42 100  63 101  73 100  83 101
M  END
> <Batch ID>
0120

> <Smiles>
CNC(C)C(=O)NC(C(=O)N1Cc2cc([101O:1][101CH2:1]C3=CC(c4ccc([100NH:0][100C:0](=O)N5CCCC(n6nc(-c7ccc(Oc8ccc(F)cc8F)cc7)c(C(N)=O)c6N)C5)cc4C)=CCC3)ccc2CC1C(=O)NC1CCCc2ccccc21)C(C)(C)C

> <Shape>
0.273

> <Color>
0.125

> <Negative vol penalty>
0.000

$$$$

  -OEChem-04052301543D

 84 92  0     1  0  0  0  0  0999 V2000
  -27.4256  -33.7309   26.4648 C   0  0  0  0  0  0  0  0  0  0  0  0
  -27.7091  -32.5644   25.7617 C   0  0  0  0  0  0  0  0  0  0  0  0
  -26.2711  -11.7378   21.3211 C   0  0  0  0  0  0  0  0  0  0  0  0
  -25.6064  -12.3575   19.0826 C   0  0  0  0  0  0  0  0  0  0  0  0
  -26.1047  -34.0549   26.7716 C   0  0  0  0  0  0  0  0  0  0  0  0
  -26.6719  -31.7206   25.3659 C   0  0  0  0  0  0  0  0  0  0  0  0
  -27.1752  -30.1346   20.5830 C   0  0  0  0  0  0  0  0  0  0  0  0
  -24.9879  -11.2494   21.5670 C   0  0  0  0  0  0  0  0  0  0  0  0
  -24.3232  -11.8691   19.3284 C   0  0  0  0  0  0  0  0  0  0  0  0
  -28.0900  -29.1098   20.3450 C   0  0  0  0  0  0  0  0  0  0  0  0
  -23.1991   -8.4722   20.8459 C   0  0  0  0  0  0  0  0  0  0  0  0
  -23.0868   -7.2335   21.4772 C   0  0  0  0  0  0  0  0  0  0  0  0
  -27.8386  -21.4169   14.9157 C   0  0  0  0  0  0  0  0  0  0  0  0
  -28.9705  -20.9680   17.0024 C   0  0  0  0  0  0  0  0  0  0  0  0
  -26.2808  -27.5150   20.2933 C   0  0  0  0  0  0  0  0  0  0  0  0
  -28.3598  -19.1425   15.5424 C   0  0  0  0  0  0  0  0  0  0  0  0
  -21.8767   -8.2691   23.2939 C   0  0  0  0  0  0  0  0  0  0  0  0
  -26.5804  -12.2919   20.0789 C   0  0  0  0  0  0  0  0  0  0  0  0
  -28.4194  -21.8758   16.0979 C   0  0  0  0  0  0  0  0  0  0  0  0
  -29.0012  -12.0843   19.3016 C   0  0  0  0  0  0  0  0  0  0  0  0
  -25.0500  -33.2196   26.3710 C   0  0  0  0  0  0  0  0  0  0  0  0
  -25.8051  -29.8553   20.6890 C   0  0  0  0  0  0  0  0  0  0  0  0
  -25.3357  -32.0331   25.6689 C   0  0  0  0  0  0  0  0  0  0  0  0
  -25.3504  -28.5384   20.5302 C   0  0  0  0  0  0  0  0  0  0  0  0
  -27.8087  -20.0502   14.6380 C   0  0  0  0  0  0  0  0  0  0  0  0
  -28.9407  -19.6014   16.7246 C   0  0  0  0  0  0  0  0  0  0  0  0
  -24.0139  -11.3150   20.5707 C   0  0  0  0  0  0  0  0  0  0  0  0
  -27.6432  -27.7994   20.2030 C   0  0  0  0  0  0  0  0  0  0  0  0
  -22.6502   -9.6094   21.4386 C   0  0  0  0  0  0  0  0  0  0  0  0
  -22.4256   -7.1319   22.7012 C   0  0  0  0  0  0  0  0  0  0  0  0
  -21.9890   -9.5078   22.6626 C   0  0  0  0  0  0  0  0  0  0  0  0
  -27.9056  -12.7971   19.8245 C   0  0  0  0  0  0  0  0  0  0  0  0
  -30.0188  -13.0056   19.2536 C   0  0  0  0  0  0  0  0  0  0  0  0
  -28.4508  -23.3194   16.3921 C   0  0  0  0  0  0  0  0  0  0  0  0
  -29.2861  -23.9005   17.2646 C   0  0  0  0  0  0  0  0  0  0  0  0
  -29.0910  -10.7122   18.8956 C   0  0  0  0  0  0  0  0  0  0  0  0
  -29.2310  -25.3744   17.4989 C   0  0  0  0  0  0  0  0  0  0  0  0
  -23.6235  -30.1645   22.9801 C   0  0  0  0  0  0  0  0  0  0  0  0
  -21.5903  -29.2309   20.6313 C   0  0  0  0  0  0  0  0  0  0  0  0
  -21.1403  -27.5971   17.6690 C   0  0  0  0  0  0  0  0  0  0  0  0
  -30.1128  -18.9674   18.8625 C   0  0  0  0  0  0  0  0  0  0  0  0
  -23.6420  -33.5876   26.7669 C   0  0  0  0  0  0  0  0  0  0  0  0
  -24.8284  -30.9758   20.9195 C   0  0  0  0  0  0  0  0  0  0  0  0
  -23.8879  -28.1887   20.6152 C   0  0  0  0  0  0  0  0  0  0  0  0
  -22.5718  -32.8301   25.9851 C   0  0  0  0  0  0  0  0  0  0  0  0
  -31.5793  -16.9781   21.4256 C   0  0  0  0  0  0  0  0  0  0  0  0
  -22.9061  -31.3430   25.9260 C   0  0  0  0  0  0  0  0  0  0  0  0
  -30.9078  -15.6136   21.2544 C   0  0  0  0  0  0  0  0  0  0  0  0
  -30.6104  -18.1260   21.1471 C   0  0  0  0  0  0  0  0  0  0  0  0
  -29.2459  -16.6891   19.6833 C   0  0  0  0  0  0  0  0  0  0  0  0
  -24.2360  -31.1049   25.2007 C   0  0  1  0  0  0  0  0  0  0  0  0
  -23.5083  -30.5035   21.5208 C   0  0  1  0  0  0  0  0  0  0  0  0
  -30.1997  -15.5012   19.8900 C   0  0  2  0  0  0  0  0  0  0  0  0
  -27.1871  -19.5590   13.3744 C   0  0  0  0  0  0  0  0  0  0  0  0
  -19.3593  -26.9695   16.0163 C   0  0  0  0  0  0  0  0  0  0  0  0
  -20.6122  -27.0430   22.5198 C   0  0  0  0  0  0  0  0  0  0  0  0
  -19.5746  -25.9015   20.5478 C   0  0  0  0  0  0  0  0  0  0  0  0
  -18.8062  -28.1790   21.2151 C   0  0  0  0  0  0  0  0  0  0  0  0
  -22.4543  -29.1210   15.4988 C   0  0  0  0  0  0  0  0  0  0  0  0
  -30.2309  -25.9099   18.5124 C   0  0  0  0  0  0  0  0  0  0  0  0
  -29.7214  -27.1361   19.2559 C   0  0  0  0  0  0  0  0  0  1  0  0
  -21.0731  -27.9042   20.1298 C   0  0  1  0  0  0  0  0  0  0  0  0
  -20.4128  -27.9975   16.3982 C   0  0  2  0  0  0  0  0  0  0  0  0
  -20.0444  -27.2629   21.1034 C   0  0  0  0  0  0  0  0  0  0  0  0
  -28.1995  -14.0727   20.0898 N   0  0  0  0  0  0  0  0  0  0  0  0
  -29.4914  -14.1687   19.7323 N   0  0  0  0  0  0  0  0  0  0  0  0
  -22.9727  -29.3182   20.8481 N   0  0  0  0  0  0  0  0  0  0  0  0
  -29.9807  -17.9547   19.8360 N   0  0  0  0  0  0  0  0  0  0  0  0
  -31.3042  -12.9260   18.8491 N   0  0  0  0  0  0  0  0  0  0  0  0
  -27.9511   -9.9051   19.0115 N   0  0  0  0  0  0  0  0  0  0  0  0
  -29.4995  -18.6791   17.6438 N   0  0  0  0  0  0  0  0  0  0  0  0
  -24.0572  -31.2131   23.7687 N   0  0  0  0  0  0  0  0  0  0  0  0
  -20.5542  -28.1490   18.7885 N   0  0  0  0  0  0  0  0  0  0  0  0
  -21.3761  -28.1253   15.2683 N   0  3  0  0  0  0  0  0  0  0  0  0
  -30.1553  -10.2122   18.4588 O   0  0  0  0  0  0  0  0  0  0  0  0
  -28.4303  -26.0931   16.9070 O   0  0  0  0  0  0  0  0  0  0  0  0
  -23.3385  -29.0357   23.3624 O   0  0  0  0  0  0  0  0  0  0  0  0
  -20.7978  -30.1578   20.8168 O   0  0  0  0  0  0  0  0  0  0  0  0
  -22.1273  -26.8647   17.6690 O   0  0  0  0  0  0  0  0  0  0  0  0
  -30.7480  -20.0015   19.0840 O   0  0  0  0  0  0  0  0  0  0  0  0
  -22.7617  -10.8384   20.8102 O   0  0  0  0  0  0  0  0  0  0  0  0
  -28.5340  -26.7971   19.9712 O   0  0  0  0  0  0  0  0  0  1  0  0
  -22.3166   -5.9421   23.3066 F   0  0  0  0  0  0  0  0  0  0  0  0
  -21.4586  -10.5966   23.2363 F   0  0  0  0  0  0  0  0  0  0  0  0
  1  2  1  0  0  0  0
  1  5  2  0  0  0  0
  2  6  2  0  0  0  0
  3  8  2  0  0  0  0
  3 18  1  0  0  0  0
  4  9  1  0  0  0  0
  4 18  2  0  0  0  0
  5 21  1  0  0  0  0
  6 23  1  0  0  0  0
  7 10  2  0  0  0  0
  7 22  1  0  0  0  0
  8 27  1  0  0  0  0
  9 27  2  0  0  0  0
 10 28  1  0  0  0  0
 11 12  2  0  0  0  0
 11 29  1  0  0  0  0
 12 30  1  0  0  0  0
 13 19  1  0  0  0  0
 13 25  2  0  0  0  0
 14 19  2  0  0  0  0
 14 26  1  0  0  0  0
 15 24  1  0  0  0  0
 15 28  2  0  0  0  0
 16 25  1  0  0  0  0
 16 26  2  0  0  0  0
 17 30  2  0  0  0  0
 17 31  1  0  0  0  0
 18 32  1  0  0  0  0
 19 34  1  0  0  0  0
 20 32  1  0  0  0  0
 20 33  2  0  0  0  0
 20 36  1  0  0  0  0
 21 23  2  0  0  0  0
 21 42  1  0  0  0  0
 22 24  2  0  0  0  0
 22 43  1  0  0  0  0
 23 51  1  0  0  0  0
 24 44  1  0  0  0  0
 25 54  1  0  0  0  0
 26 71  1  0  0  0  0
 27 81  1  0  0  0  0
 28 82  1  0  0  0  0
 29 31  2  0  0  0  0
 29 81  1  0  0  0  0
 30 83  1  0  0  0  0
 31 84  1  0  0  0  0
 32 65  2  0  0  0  0
 33 66  1  0  0  0  0
 33 69  1  0  0  0  0
 34 35  2  0  0  0  0
 35 37  1  0  0  0  0
 36 70  1  0  0  0  0
 36 75  2  0  0  0  0
 37 60  1  0  0  0  0
 37 76  2  0  0  0  0
 38 52  1  0  0  0  0
 38 72  1  0  0  0  0
 38 77  2  0  0  0  0
 39 62  1  0  0  0  0
 39 67  1  0  0  0  0
 39 78  2  0  0  0  0
 40 63  1  0  0  0  0
 40 73  1  0  0  0  0
 40 79  2  0  0  0  0
 41 68  1  0  0  0  0
 41 71  1  0  0  0  0
 41 80  2  0  0  0  0
 42 45  1  0  0  0  0
 43 52  1  0  0  0  0
 44 67  1  0  0  0  0
 45 47  1  0  0  0  0
 46 48  1  0  0  0  0
 46 49  1  0  0  0  0
 47 51  1  0  0  0  0
 48 53  1  0  0  0  0
 49 68  1  0  0  0  0
 50 53  1  0  0  0  0
 50 68  1  0  0  0  0
 51 72  1  0  0  0  0
 52 67  1  0  0  0  0
 53 66  1  0  0  0  0
 55 63  1  0  0  0  0
 56 64  1  0  0  0  0
 57 64  1  0  0  0  0
 58 64  1  0  0  0  0
 59 74  1  0  0  0  0
 60 61  1  0  0  0  0
 61 82  1  0  0  0  0
 62 64  1  0  0  0  0
 62 73  1  0  0  0  0
 63 74  1  0  0  0  0
 65 66  1  0  0  0  0
M  CHG  1  74   1
M  ISO  4  41 100  61 101  71 100  82 101
M  END
> <Batch ID>
0120

> <Smiles>
CNC(C)C(=O)NC(C(=O)N1Cc2cc([101O:1][101CH2:1]CC(=O)C=Cc3cc(C)cc([100NH:0][100C:0](=O)N4CCCC(n5nc(-c6ccc(Oc7ccc(F)cc7F)cc6)c(C(N)=O)c5N)C4)c3)ccc2CC1C(=O)NC1CCCc2ccccc21)C(C)(C)C

> <Shape>
0.329

> <Color>
0.088

> <Negative vol penalty>
0.000

$$$$

  -OEChem-04052301543D

 85 93  0     1  0  0  0  0  0999 V2000
  -22.0876  -35.8850   15.1603 C   0  0  0  0  0  0  0  0  0  0  0  0
  -23.3367  -35.5101   15.6448 C   0  0  0  0  0  0  0  0  0  0  0  0
  -22.9702   -9.9374   19.9702 C   0  0  0  0  0  0  0  0  0  0  0  0
  -23.8021   -9.8798   22.2378 C   0  0  0  0  0  0  0  0  0  0  0  0
  -28.9848  -17.5264   22.1609 C   0  0  0  0  0  0  0  0  0  0  0  0
  -20.9836  -35.8895   16.0118 C   0  0  0  0  0  0  0  0  0  0  0  0
  -23.4826  -35.1406   16.9814 C   0  0  0  0  0  0  0  0  0  0  0  0
  -25.9979  -28.6334   18.7763 C   0  0  0  0  0  0  0  0  0  0  0  0
  -22.2061   -8.7979   20.2216 C   0  0  0  0  0  0  0  0  0  0  0  0
  -23.0380   -8.7403   22.4891 C   0  0  0  0  0  0  0  0  0  0  0  0
  -28.2916  -18.6640   21.7474 C   0  0  0  0  0  0  0  0  0  0  0  0
  -26.6696  -27.4864   19.1997 C   0  0  0  0  0  0  0  0  0  0  0  0
  -23.2282   -5.4241   21.8586 C   0  0  0  0  0  0  0  0  0  0  0  0
  -23.8403   -4.3699   22.5365 C   0  0  0  0  0  0  0  0  0  0  0  0
  -29.3431  -16.9058   19.8537 C   0  0  0  0  0  0  0  0  0  0  0  0
  -26.2974  -28.1072   21.5071 C   0  0  0  0  0  0  0  0  0  0  0  0
  -22.1985   -4.5504   24.2998 C   0  0  0  0  0  0  0  0  0  0  0  0
  -23.7683  -10.4784   20.9783 C   0  0  0  0  0  0  0  0  0  0  0  0
  -29.5106  -16.6473   21.2141 C   0  0  0  0  0  0  0  0  0  0  0  0
  -28.6498  -18.0433   19.4401 C   0  0  0  0  0  0  0  0  0  0  0  0
  -24.1690  -12.9964   20.8962 C   0  0  0  0  0  0  0  0  0  0  0  0
  -21.1142  -35.5105   17.3571 C   0  0  0  0  0  0  0  0  0  0  0  0
  -25.4594  -29.5149   19.7178 C   0  0  0  0  0  0  0  0  0  0  0  0
  -22.3795  -35.1413   17.8520 C   0  0  0  0  0  0  0  0  0  0  0  0
  -25.6127  -29.2514   21.0889 C   0  0  0  0  0  0  0  0  0  0  0  0
  -22.2399   -8.1993   21.4810 C   0  0  0  0  0  0  0  0  0  0  0  0
  -26.8192  -27.2241   20.5618 C   0  0  0  0  0  0  0  0  0  0  0  0
  -28.1241  -18.9224   20.3869 C   0  0  0  0  0  0  0  0  0  0  0  0
  -22.1013   -6.0415   22.4013 C   0  0  0  0  0  0  0  0  0  0  0  0
  -23.3255   -3.9330   23.7571 C   0  0  0  0  0  0  0  0  0  0  0  0
  -21.5864   -5.6047   23.6219 C   0  0  0  0  0  0  0  0  0  0  0  0
  -24.5583  -11.6551   20.7191 C   0  0  0  0  0  0  0  0  0  0  0  0
  -25.2675  -13.7262   20.5127 C   0  0  0  0  0  0  0  0  0  0  0  0
  -27.8408  -17.4750   17.1956 C   0  0  0  0  0  0  0  0  0  0  0  0
  -28.4880  -18.2915   18.0137 C   0  0  0  0  0  0  0  0  0  0  0  0
  -30.2333  -15.4615   21.6463 C   0  0  0  0  0  0  0  0  0  0  0  0
  -22.9257  -13.5344   21.3656 C   0  0  0  0  0  0  0  0  0  0  0  0
  -30.8043  -14.5074   20.6682 C   0  0  0  0  0  0  0  0  0  0  0  0
  -23.5417  -32.6773   20.3483 C   0  0  0  0  0  0  0  0  0  0  0  0
  -22.5533  -30.6135   22.3914 C   0  0  0  0  0  0  0  0  0  0  0  0
  -21.4463  -27.9350   24.1906 C   0  0  0  0  0  0  0  0  0  0  0  0
  -19.9012  -35.5765   18.2510 C   0  0  0  0  0  0  0  0  0  0  0  0
  -24.7816  -30.7941   19.3077 C   0  0  0  0  0  0  0  0  0  0  0  0
  -25.0471  -30.2455   22.0660 C   0  0  0  0  0  0  0  0  0  0  0  0
  -20.0678  -34.8115   19.5614 C   0  0  0  0  0  0  0  0  0  0  0  0
  -29.4992  -12.3270   18.1385 C   0  0  0  0  0  0  0  0  0  0  0  0
  -21.4147  -35.1342   20.2004 C   0  0  0  0  0  0  0  0  0  0  0  0
  -28.0781  -12.0375   18.6208 C   0  0  0  0  0  0  0  0  0  0  0  0
  -30.4653  -12.4812   19.3087 C   0  0  0  0  0  0  0  0  0  0  0  0
  -28.6232  -13.2309   20.7897 C   0  0  0  0  0  0  0  0  0  0  0  0
  -22.5732  -34.7101   19.2896 C   0  0  1  0  0  0  0  0  0  0  0  0
  -23.6155  -31.1830   20.2341 C   0  0  1  0  0  0  0  0  0  0  0  0
  -27.6134  -13.0962   19.6367 C   0  0  2  0  0  0  0  0  0  0  0  0
  -19.7791  -27.3011   25.9558 C   0  0  0  0  0  0  0  0  0  0  0  0
  -24.3191  -31.9043   24.5174 C   0  0  0  0  0  0  0  0  0  0  0  0
  -23.1821  -30.4738   26.2289 C   0  0  0  0  0  0  0  0  0  0  0  0
  -21.8618  -32.1369   24.9198 C   0  0  0  0  0  0  0  0  0  0  0  0
  -20.0789  -26.0340   22.3808 C   0  0  0  0  0  0  0  0  0  0  0  0
  -27.4598  -23.6857   20.9381 C   0  0  0  0  0  0  0  0  0  0  0  0
  -27.4067  -22.4416   20.0583 C   0  0  0  0  0  0  0  0  0  0  0  0
  -27.4006  -24.9624   20.1099 C   0  0  0  0  0  0  0  0  0  1  0  0
  -27.5091  -21.1657   20.8820 C   0  0  0  0  0  0  0  0  0  0  0  0
  -22.6932  -30.0397   23.7786 C   0  0  1  0  0  0  0  0  0  0  0  0
  -20.0470  -27.4131   24.4630 C   0  0  2  0  0  0  0  0  0  0  0  0
  -23.0271  -31.1269   24.8388 C   0  0  0  0  0  0  0  0  0  0  0  0
  -25.8065  -11.5370   20.2587 N   0  0  0  0  0  0  0  0  0  0  0  0
  -30.4288  -15.1593   22.9014 N   0  0  0  0  0  0  0  0  0  0  0  0
  -26.2111  -12.8134   20.1432 N   0  0  0  0  0  0  0  0  0  0  0  0
  -29.9767  -13.4665   20.2712 N   0  0  0  0  0  0  0  0  0  0  0  0
  -23.7180  -30.6898   21.6180 N   0  0  0  0  0  0  0  0  0  0  0  0
  -25.5086  -15.0534   20.4587 N   0  0  0  0  0  0  0  0  0  0  0  0
  -21.9025  -12.6434   21.7175 N   0  0  0  0  0  0  0  0  0  0  0  0
  -22.7787  -33.2796   19.3661 N   0  0  0  0  0  0  0  0  0  0  0  0
  -21.4604  -29.3059   24.0431 N   0  0  0  0  0  0  0  0  0  0  0  0
  -19.8683  -26.0661   23.8510 N   0  3  0  0  0  0  0  0  0  0  0  0
  -22.7221  -14.7690   21.4543 O   0  0  0  0  0  0  0  0  0  0  0  0
  -31.9523  -14.7403   20.3128 O   0  0  0  0  0  0  0  0  0  0  0  0
  -24.1319  -33.2434   21.2609 O   0  0  0  0  0  0  0  0  0  0  0  0
  -21.4438  -30.9900   22.0035 O   0  0  0  0  0  0  0  0  0  0  0  0
  -22.4291  -27.2004   24.1196 O   0  0  0  0  0  0  0  0  0  0  0  0
  -21.4942   -7.0875   21.7267 O   0  0  0  0  0  0  0  0  0  0  0  0
  -27.4721  -26.1002   20.9682 O   0  0  0  0  0  0  0  0  0  1  0  0
  -27.4388  -20.0475   20.0081 O   0  0  0  0  0  0  0  0  0  0  0  0
  -23.9125   -2.9196   24.4072 F   0  0  0  0  0  0  0  0  0  0  0  0
  -20.5033   -6.1932   24.1477 F   0  0  0  0  0  0  0  0  0  0  0  0
  1  2  1  0  0  0  0
  1  6  2  0  0  0  0
  2  7  2  0  0  0  0
  3  9  2  0  0  0  0
  3 18  1  0  0  0  0
  4 10  1  0  0  0  0
  4 18  2  0  0  0  0
  5 11  2  0  0  0  0
  5 19  1  0  0  0  0
  6 22  1  0  0  0  0
  7 24  1  0  0  0  0
  8 12  2  0  0  0  0
  8 23  1  0  0  0  0
  9 26  1  0  0  0  0
 10 26  2  0  0  0  0
 11 28  1  0  0  0  0
 12 27  1  0  0  0  0
 13 14  2  0  0  0  0
 13 29  1  0  0  0  0
 14 30  1  0  0  0  0
 15 19  2  0  0  0  0
 15 20  1  0  0  0  0
 16 25  1  0  0  0  0
 16 27  2  0  0  0  0
 17 30  2  0  0  0  0
 17 31  1  0  0  0  0
 18 32  1  0  0  0  0
 19 36  1  0  0  0  0
 20 28  2  0  0  0  0
 20 35  1  0  0  0  0
 21 32  1  0  0  0  0
 21 33  2  0  0  0  0
 21 37  1  0  0  0  0
 22 24  2  0  0  0  0
 22 42  1  0  0  0  0
 23 25  2  0  0  0  0
 23 43  1  0  0  0  0
 24 51  1  0  0  0  0
 25 44  1  0  0  0  0
 26 81  1  0  0  0  0
 27 82  1  0  0  0  0
 28 83  1  0  0  0  0
 29 31  2  0  0  0  0
 29 81  1  0  0  0  0
 30 84  1  0  0  0  0
 31 85  1  0  0  0  0
 32 66  2  0  0  0  0
 33 68  1  0  0  0  0
 33 71  1  0  0  0  0
 34 35  2  0  0  0  0
 36 38  1  0  0  0  0
 36 67  2  0  0  0  0
 37 72  1  0  0  0  0
 37 76  2  0  0  0  0
 38 69  1  0  0  0  0
 38 77  2  0  0  0  0
 39 52  1  0  0  0  0
 39 73  1  0  0  0  0
 39 78  2  0  0  0  0
 40 63  1  0  0  0  0
 40 70  1  0  0  0  0
 40 79  2  0  0  0  0
 41 64  1  0  0  0  0
 41 74  1  0  0  0  0
 41 80  2  0  0  0  0
 42 45  1  0  0  0  0
 43 52  1  0  0  0  0
 44 70  1  0  0  0  0
 45 47  1  0  0  0  0
 46 48  1  0  0  0  0
 46 49  1  0  0  0  0
 47 51  1  0  0  0  0
 48 53  1  0  0  0  0
 49 69  1  0  0  0  0
 50 53  1  0  0  0  0
 50 69  1  0  0  0  0
 51 73  1  0  0  0  0
 52 70  1  0  0  0  0
 53 68  1  0  0  0  0
 54 64  1  0  0  0  0
 55 65  1  0  0  0  0
 56 65  1  0  0  0  0
 57 65  1  0  0  0  0
 58 75  1  0  0  0  0
 59 60  1  0  0  0  0
 59 61  1  0  0  0  0
 60 62  1  0  0  0  0
 61 82  1  0  0  0  0
 62 83  1  0  0  0  0
 63 65  1  0  0  0  0
 63 74  1  0  0  0  0
 64 75  1  0  0  0  0
 66 68  1  0  0  0  0
M  CHG  1  75   1
M  ISO  4  36 100  38 100  61 101  82 101
M  END
> <Batch ID>
0120

> <Smiles>
C=Cc1cc([100C:0](=N)[100C:0](=O)N2CCCC(n3nc(-c4ccc(Oc5ccc(F)cc5F)cc4)c(C(N)=O)c3N)C2)ccc1OCCC[101CH2:1][101O:1]c1ccc2c(c1)CN(C(=O)C(NC(=O)C(C)NC)C(C)(C)C)C(C(=O)NC1CCCc3ccccc31)C2

> <Shape>
0.339

> <Color>
0.242

> <Negative vol penalty>
0.000

$$$$

  -OEChem-04052301543D

 83 91  0     1  0  0  0  0  0999 V2000
  -29.0992  -37.3957   20.8322 C   0  0  0  0  0  0  0  0  0  0  0  0
  -29.4093  -36.0562   20.6200 C   0  0  0  0  0  0  0  0  0  0  0  0
  -24.4566   -8.5626   21.2291 C   0  0  0  0  0  0  0  0  0  0  0  0
  -22.6747  -10.1854   21.3974 C   0  0  0  0  0  0  0  0  0  0  0  0
  -28.0869  -37.7425   21.7260 C   0  0  0  0  0  0  0  0  0  0  0  0
  -28.7081  -35.0628   21.3024 C   0  0  0  0  0  0  0  0  0  0  0  0
  -27.2075  -29.5100   19.1998 C   0  0  0  0  0  0  0  0  0  0  0  0
  -23.8738   -7.8164   22.2533 C   0  0  0  0  0  0  0  0  0  0  0  0
  -22.0918   -9.4392   22.4216 C   0  0  0  0  0  0  0  0  0  0  0  0
  -27.7876  -28.2539   19.3710 C   0  0  0  0  0  0  0  0  0  0  0  0
  -22.6619   -5.2975   24.5774 C   0  0  0  0  0  0  0  0  0  0  0  0
  -22.5731   -3.9163   24.4038 C   0  0  0  0  0  0  0  0  0  0  0  0
  -26.2431  -27.7919   21.1656 C   0  0  0  0  0  0  0  0  0  0  0  0
  -26.0229  -19.3430   19.7965 C   0  0  0  0  0  0  0  0  0  0  0  0
  -21.2258   -4.2514   22.4265 C   0  0  0  0  0  0  0  0  0  0  0  0
  -23.8571   -9.7472   20.8011 C   0  0  0  0  0  0  0  0  0  0  0  0
  -24.2191  -10.3990   18.3615 C   0  0  0  0  0  0  0  0  0  0  0  0
  -27.3664  -36.7525   22.4125 C   0  0  0  0  0  0  0  0  0  0  0  0
  -26.1462  -29.9215   20.0187 C   0  0  0  0  0  0  0  0  0  0  0  0
  -27.6861  -35.3968   22.2073 C   0  0  0  0  0  0  0  0  0  0  0  0
  -25.6496  -29.0528   21.0010 C   0  0  0  0  0  0  0  0  0  0  0  0
  -22.6914   -8.2547   22.8496 C   0  0  0  0  0  0  0  0  0  0  0  0
  -27.3074  -27.3958   20.3559 C   0  0  0  0  0  0  0  0  0  0  0  0
  -22.0326   -6.1557   23.6756 C   0  0  0  0  0  0  0  0  0  0  0  0
  -25.0614  -20.3939   19.8302 C   0  0  0  0  0  0  0  0  0  0  0  0
  -21.8551   -3.3933   23.3284 C   0  0  0  0  0  0  0  0  0  0  0  0
  -21.3146   -5.6326   22.6002 C   0  0  0  0  0  0  0  0  0  0  0  0
  -24.4589  -10.5188   19.7435 C   0  0  0  0  0  0  0  0  0  0  0  0
  -23.7741  -19.9143   19.9333 C   0  0  0  0  0  0  0  0  0  0  0  0
  -25.0291  -11.3490   17.7889 C   0  0  0  0  0  0  0  0  0  0  0  0
  -25.4339  -18.1001   19.8753 C   0  0  0  0  0  0  0  0  0  0  0  0
  -22.3228  -21.8162   19.3929 C   0  0  0  0  0  0  0  0  0  0  0  0
  -22.5585  -20.6313   19.9947 C   0  0  0  0  0  0  0  0  0  0  0  0
  -23.3425   -9.5087   17.6583 C   0  0  0  0  0  0  0  0  0  0  0  0
  -25.7067  -32.2784   22.1058 C   0  0  0  0  0  0  0  0  0  0  0  0
  -22.6647  -31.1528   22.1450 C   0  0  0  0  0  0  0  0  0  0  0  0
  -20.5377  -28.5338   21.6311 C   0  0  0  0  0  0  0  0  0  0  0  0
  -27.3567  -16.4745   19.7933 C   0  0  0  0  0  0  0  0  0  0  0  0
  -26.3128  -37.1778   23.4043 C   0  0  0  0  0  0  0  0  0  0  0  0
  -25.5138  -31.2692   19.8035 C   0  0  0  0  0  0  0  0  0  0  0  0
  -24.4990  -29.4389   21.8928 C   0  0  0  0  0  0  0  0  0  0  0  0
  -25.3644  -36.0511   23.8062 C   0  0  0  0  0  0  0  0  0  0  0  0
  -29.1500  -13.6813   18.5050 C   0  0  0  0  0  0  0  0  0  0  0  0
  -26.1487  -34.7841   24.1326 C   0  0  0  0  0  0  0  0  0  0  0  0
  -28.1268  -12.5439   18.5450 C   0  0  0  0  0  0  0  0  0  0  0  0
  -29.0049  -14.6170   19.7039 C   0  0  0  0  0  0  0  0  0  0  0  0
  -26.6299  -14.0125   19.9554 C   0  0  0  0  0  0  0  0  0  0  0  0
  -26.9313  -34.2894   22.9102 C   0  0  1  0  0  0  0  0  0  0  0  0
  -24.7753  -31.7861   21.0343 C   0  0  1  0  0  0  0  0  0  0  0  0
  -26.6945  -13.0807   18.7343 C   0  0  2  0  0  0  0  0  0  0  0  0
  -18.1127  -27.9064   21.7833 C   0  0  0  0  0  0  0  0  0  0  0  0
  -22.9067  -30.9637   25.1807 C   0  0  0  0  0  0  0  0  0  0  0  0
  -20.8885  -29.4821   25.1795 C   0  0  0  0  0  0  0  0  0  0  0  0
  -20.7090  -31.8318   24.3614 C   0  0  0  0  0  0  0  0  0  0  0  0
  -20.3886  -27.9450   18.7345 C   0  0  0  0  0  0  0  0  0  0  0  0
  -28.3132  -24.0335   19.4892 C   0  0  0  0  0  0  0  0  0  0  0  0
  -26.8576  -23.5907   19.5880 C   0  0  0  0  0  0  0  0  0  0  0  0
  -28.4330  -25.5471   19.3704 C   0  0  0  0  0  0  0  0  0  1  0  0
  -26.7348  -22.0754   19.6636 C   0  0  0  0  0  0  0  0  0  0  0  0
  -21.9182  -30.1172   22.9508 C   0  0  1  0  0  0  0  0  0  0  0  0
  -19.2188  -28.4387   20.8855 C   0  0  2  0  0  0  0  0  0  0  0  0
  -21.6286  -30.5919   24.4027 C   0  0  0  0  0  0  0  0  0  0  0  0
  -25.3515  -11.4698   20.0315 N   0  0  0  0  0  0  0  0  0  0  0  0
  -25.6797  -11.9562   18.8224 N   0  0  0  0  0  0  0  0  0  0  0  0
  -23.9183  -30.7694   21.6477 N   0  0  0  0  0  0  0  0  0  0  0  0
  -27.6233  -15.0891   19.8177 N   0  0  0  0  0  0  0  0  0  0  0  0
  -25.2411  -11.7159   16.5071 N   0  0  0  0  0  0  0  0  0  0  0  0
  -22.5818   -8.5953   18.4007 N   0  0  0  0  0  0  0  0  0  0  0  0
  -26.0039  -16.8028   19.8761 N   0  0  0  0  0  0  0  0  0  0  0  0
  -26.0483  -33.6119   21.9851 N   0  0  0  0  0  0  0  0  0  0  0  0
  -20.7242  -29.7842   22.1815 N   0  0  0  0  0  0  0  0  0  0  0  0
  -19.3512  -27.5285   19.7129 N   0  3  0  0  0  0  0  0  0  0  0  0
  -23.2491   -9.5116   16.4073 O   0  0  0  0  0  0  0  0  0  0  0  0
  -26.0860  -31.5060   22.9782 O   0  0  0  0  0  0  0  0  0  0  0  0
  -22.1511  -32.2585   21.9574 O   0  0  0  0  0  0  0  0  0  0  0  0
  -21.3223  -27.5919   21.7197 O   0  0  0  0  0  0  0  0  0  0  0  0
  -28.2596  -17.3072   19.6780 O   0  0  0  0  0  0  0  0  0  0  0  0
  -22.1223   -7.5266   23.8489 O   0  0  0  0  0  0  0  0  0  0  0  0
  -27.8722  -26.1694   20.5257 O   0  0  0  0  0  0  0  0  0  1  0  0
  -25.3605  -21.7302   19.7686 O   0  0  0  0  0  0  0  0  0  0  0  0
  -21.7713   -2.0670   23.1609 F   0  0  0  0  0  0  0  0  0  0  0  0
  -20.7088   -6.4521   21.7299 F   0  0  0  0  0  0  0  0  0  0  0  0
  -23.7284  -18.2034   19.9890 S   0  0  0  0  0  0  0  0  0  0  0  0
  1  2  1  0  0  0  0
  1  5  2  0  0  0  0
  2  6  2  0  0  0  0
  3  8  2  0  0  0  0
  3 16  1  0  0  0  0
  4  9  1  0  0  0  0
  4 16  2  0  0  0  0
  5 18  1  0  0  0  0
  6 20  1  0  0  0  0
  7 10  2  0  0  0  0
  7 19  1  0  0  0  0
  8 22  1  0  0  0  0
  9 22  2  0  0  0  0
 10 23  1  0  0  0  0
 11 12  2  0  0  0  0
 11 24  1  0  0  0  0
 12 26  1  0  0  0  0
 13 21  1  0  0  0  0
 13 23  2  0  0  0  0
 14 25  1  0  0  0  0
 14 31  2  0  0  0  0
 15 26  2  0  0  0  0
 15 27  1  0  0  0  0
 16 28  1  0  0  0  0
 17 28  1  0  0  0  0
 17 30  2  0  0  0  0
 17 34  1  0  0  0  0
 18 20  2  0  0  0  0
 18 39  1  0  0  0  0
 19 21  2  0  0  0  0
 19 40  1  0  0  0  0
 20 48  1  0  0  0  0
 21 41  1  0  0  0  0
 22 78  1  0  0  0  0
 23 79  1  0  0  0  0
 24 27  2  0  0  0  0
 24 78  1  0  0  0  0
 25 29  2  0  0  0  0
 25 80  1  0  0  0  0
 26 81  1  0  0  0  0
 27 82  1  0  0  0  0
 28 63  2  0  0  0  0
 29 33  1  0  0  0  0
 29 83  1  0  0  0  0
 30 64  1  0  0  0  0
 30 67  1  0  0  0  0
 31 69  1  0  0  0  0
 31 83  1  0  0  0  0
 32 33  2  0  0  0  0
 34 68  1  0  0  0  0
 34 73  2  0  0  0  0
 35 49  1  0  0  0  0
 35 70  1  0  0  0  0
 35 74  2  0  0  0  0
 36 60  1  0  0  0  0
 36 65  1  0  0  0  0
 36 75  2  0  0  0  0
 37 61  1  0  0  0  0
 37 71  1  0  0  0  0
 37 76  2  0  0  0  0
 38 66  1  0  0  0  0
 38 69  1  0  0  0  0
 38 77  2  0  0  0  0
 39 42  1  0  0  0  0
 40 49  1  0  0  0  0
 41 65  1  0  0  0  0
 42 44  1  0  0  0  0
 43 45  1  0  0  0  0
 43 46  1  0  0  0  0
 44 48  1  0  0  0  0
 45 50  1  0  0  0  0
 46 66  1  0  0  0  0
 47 50  1  0  0  0  0
 47 66  1  0  0  0  0
 48 70  1  0  0  0  0
 49 65  1  0  0  0  0
 50 64  1  0  0  0  0
 51 61  1  0  0  0  0
 52 62  1  0  0  0  0
 53 62  1  0  0  0  0
 54 62  1  0  0  0  0
 55 72  1  0  0  0  0
 56 57  1  0  0  0  0
 56 58  1  0  0  0  0
 57 59  1  0  0  0  0
 58 79  1  0  0  0  0
 59 80  1  0  0  0  0
 60 62  1  0  0  0  0
 60 71  1  0  0  0  0
 61 72  1  0  0  0  0
 63 64  1  0  0  0  0
M  CHG  1  72   1
M  ISO  4  38 100  58 101  69 100  79 101
M  END
> <Batch ID>
0120

> <Smiles>
C=Cc1sc([100NH:0][100C:0](=O)N2CCCC(n3nc(-c4ccc(Oc5ccc(F)cc5F)cc4)c(C(N)=O)c3N)C2)cc1OCCC[101CH2:1][101O:1]c1ccc2c(c1)CN(C(=O)C(NC(=O)C(C)NC)C(C)(C)C)C(C(=O)NC1CCCc3ccccc31)C2

> <Shape>
0.262

> <Color>
0.083

> <Negative vol penalty>
0.000

$$$$

  -OEChem-04052301543D

 86 94  0     1  0  0  0  0  0999 V2000
  -19.6869  -33.7910   20.3505 C   0  0  0  0  0  0  0  0  0  0  0  0
  -20.8785  -33.1838   19.9675 C   0  0  0  0  0  0  0  0  0  0  0  0
  -24.5810   -9.4172   20.0885 C   0  0  0  0  0  0  0  0  0  0  0  0
  -24.4930   -9.8848   22.4572 C   0  0  0  0  0  0  0  0  0  0  0  0
  -19.1376  -33.5178   21.6025 C   0  0  0  0  0  0  0  0  0  0  0  0
  -21.5221  -32.3037   20.8368 C   0  0  0  0  0  0  0  0  0  0  0  0
  -24.7092  -27.2999   19.3167 C   0  0  0  0  0  0  0  0  0  0  0  0
  -24.1904   -8.1009   20.3338 C   0  0  0  0  0  0  0  0  0  0  0  0
  -24.1023   -8.5684   22.7025 C   0  0  0  0  0  0  0  0  0  0  0  0
  -26.0760  -27.0668   19.1707 C   0  0  0  0  0  0  0  0  0  0  0  0
  -22.7324   -5.4287   23.9206 C   0  0  0  0  0  0  0  0  0  0  0  0
  -21.6821   -5.2190   24.8142 C   0  0  0  0  0  0  0  0  0  0  0  0
  -27.4334  -20.6330   23.9812 C   0  0  0  0  0  0  0  0  0  0  0  0
  -26.1658  -26.2171   21.4266 C   0  0  0  0  0  0  0  0  0  0  0  0
  -29.2961  -19.7285   22.1117 C   0  0  0  0  0  0  0  0  0  0  0  0
  -20.2192   -6.5224   23.4007 C   0  0  0  0  0  0  0  0  0  0  0  0
  -24.7324  -10.3092   21.1502 C   0  0  0  0  0  0  0  0  0  0  0  0
  -28.2966  -21.5375   23.3629 C   0  0  0  0  0  0  0  0  0  0  0  0
  -24.2986  -12.7725   20.6487 C   0  0  0  0  0  0  0  0  0  0  0  0
  -19.7697  -32.6265   22.4838 C   0  0  0  0  0  0  0  0  0  0  0  0
  -24.0615  -27.0030   20.5245 C   0  0  0  0  0  0  0  0  0  0  0  0
  -20.9814  -32.0193   22.1023 C   0  0  0  0  0  0  0  0  0  0  0  0
  -24.7902  -26.4449   21.5845 C   0  0  0  0  0  0  0  0  0  0  0  0
  -27.5016  -19.2762   23.6649 C   0  0  0  0  0  0  0  0  0  0  0  0
  -28.4329  -18.8239   22.7301 C   0  0  0  0  0  0  0  0  0  0  0  0
  -23.9510   -7.6765   21.6408 C   0  0  0  0  0  0  0  0  0  0  0  0
  -26.8051  -26.5280   20.2267 C   0  0  0  0  0  0  0  0  0  0  0  0
  -22.5261   -6.1854   22.7671 C   0  0  0  0  0  0  0  0  0  0  0  0
  -29.2279  -21.0853   22.4281 C   0  0  0  0  0  0  0  0  0  0  0  0
  -20.4255   -5.7658   24.5543 C   0  0  0  0  0  0  0  0  0  0  0  0
  -21.2695   -6.7322   22.5071 C   0  0  0  0  0  0  0  0  0  0  0  0
  -25.1365  -11.6690   20.8975 C   0  0  0  0  0  0  0  0  0  0  0  0
  -25.1617  -13.8264   20.4736 C   0  0  0  0  0  0  0  0  0  0  0  0
  -27.8551  -23.3887   24.9101 C   0  0  0  0  0  0  0  0  0  0  0  0
  -28.2078  -22.9491   23.7111 C   0  0  0  0  0  0  0  0  0  0  0  0
  -22.8679  -12.8390   20.5820 C   0  0  0  0  0  0  0  0  0  0  0  0
  -22.4931  -28.7021   22.7055 C   0  0  0  0  0  0  0  0  0  0  0  0
  -21.8785  -25.7805   23.9738 C   0  0  0  0  0  0  0  0  0  0  0  0
  -22.7937  -22.5078   24.2883 C   0  0  0  0  0  0  0  0  0  0  0  0
  -29.6528  -16.7479   21.9897 C   0  0  0  0  0  0  0  0  0  0  0  0
  -19.1626  -32.3988   23.8455 C   0  0  0  0  0  0  0  0  0  0  0  0
  -22.5813  -27.2355   20.6568 C   0  0  0  0  0  0  0  0  0  0  0  0
  -24.1381  -26.0897   22.8948 C   0  0  0  0  0  0  0  0  0  0  0  0
  -19.7119  -31.1661   24.5589 C   0  0  0  0  0  0  0  0  0  0  0  0
  -30.1918  -13.9064   19.9130 C   0  0  0  0  0  0  0  0  0  0  0  0
  -21.2340  -31.1300   24.4668 C   0  0  0  0  0  0  0  0  0  0  0  0
  -28.8557  -13.1618   19.9635 C   0  0  0  0  0  0  0  0  0  0  0  0
  -30.5369  -14.5439   21.2577 C   0  0  0  0  0  0  0  0  0  0  0  0
  -28.1545  -14.6605   21.8738 C   0  0  0  0  0  0  0  0  0  0  0  0
  -21.6965  -31.0398   23.0075 C   0  0  1  0  0  0  0  0  0  0  0  0
  -22.1255  -27.3743   22.1061 C   0  0  1  0  0  0  0  0  0  0  0  0
  -27.7328  -14.0563   20.5244 C   0  0  2  0  0  0  0  0  0  0  0  0
  -26.5639  -18.3297   24.3418 C   0  0  0  0  0  0  0  0  0  0  0  0
  -22.1170  -20.3732   25.4210 C   0  0  0  0  0  0  0  0  0  0  0  0
  -22.9960  -26.8291   26.6123 C   0  0  0  0  0  0  0  0  0  0  0  0
  -23.1803  -24.4585   27.3962 C   0  0  0  0  0  0  0  0  0  0  0  0
  -20.9455  -25.4151   26.8364 C   0  0  0  0  0  0  0  0  0  0  0  0
  -22.3966  -21.1253   21.7018 C   0  0  0  0  0  0  0  0  0  0  0  0
  -29.5798  -23.7891   19.6373 C   0  0  0  0  0  0  0  0  0  0  0  0
  -29.8415  -25.1013   18.8978 C   0  0  0  0  0  0  0  0  0  0  0  0
  -30.8097  -22.8869   19.7234 C   0  0  0  0  0  0  0  0  0  0  0  0
  -28.6120  -25.9914   18.7765 C   0  0  0  0  0  0  0  0  0  1  0  0
  -30.5118  -21.6087   20.4959 C   0  0  0  0  0  0  0  0  0  0  0  0
  -22.5678  -24.8818   24.9720 C   0  0  1  0  0  0  0  0  0  0  0  0
  -21.9956  -21.2224   24.1653 C   0  0  2  0  0  0  0  0  0  0  0  0
  -22.4354  -25.4045   26.4303 C   0  0  0  0  0  0  0  0  0  0  0  0
  -26.4324  -11.9918   20.8824 N   0  0  0  0  0  0  0  0  0  0  0  0
  -26.4154  -13.3101   20.6220 N   0  0  0  0  0  0  0  0  0  0  0  0
  -22.6899  -26.3415   22.9774 N   0  0  0  0  0  0  0  0  0  0  0  0
  -29.4291  -15.3803   21.7246 N   0  0  0  0  0  0  0  0  0  0  0  0
  -24.9631  -15.1352   20.2086 N   0  0  0  0  0  0  0  0  0  0  0  0
  -22.1341  -11.6625   20.7862 N   0  0  0  0  0  0  0  0  0  0  0  0
  -28.5184  -17.4495   22.3965 N   0  0  0  0  0  0  0  0  0  0  0  0
  -21.5450  -29.6886   22.5119 N   0  0  0  0  0  0  0  0  0  0  0  0
  -22.0205  -23.5455   24.7642 N   0  0  0  0  0  0  0  0  0  0  0  0
  -22.4808  -20.4203   23.0068 N   0  3  0  0  0  0  0  0  0  0  0  0
  -22.2589  -13.9068   20.3319 O   0  0  0  0  0  0  0  0  0  0  0  0
  -23.5574  -28.8224   23.3009 O   0  0  0  0  0  0  0  0  0  0  0  0
  -20.6637  -25.9717   24.0702 O   0  0  0  0  0  0  0  0  0  0  0  0
  -23.9850  -22.5828   23.9953 O   0  0  0  0  0  0  0  0  0  0  0  0
  -30.7627  -17.2651   21.8388 O   0  0  0  0  0  0  0  0  0  0  0  0
  -23.5696   -6.3921   21.8805 O   0  0  0  0  0  0  0  0  0  0  0  0
  -28.1394  -26.3001   20.0872 O   0  0  0  0  0  0  0  0  0  1  0  0
  -30.0897  -21.9526   21.8083 O   0  0  0  0  0  0  0  0  0  0  0  0
  -19.4166   -5.5630   25.4117 F   0  0  0  0  0  0  0  0  0  0  0  0
  -21.0649   -7.4590   21.4000 F   0  0  0  0  0  0  0  0  0  0  0  0
  1  2  1  0  0  0  0
  1  5  2  0  0  0  0
  2  6  2  0  0  0  0
  3  8  2  0  0  0  0
  3 17  1  0  0  0  0
  4  9  1  0  0  0  0
  4 17  2  0  0  0  0
  5 20  1  0  0  0  0
  6 22  1  0  0  0  0
  7 10  2  0  0  0  0
  7 21  1  0  0  0  0
  8 26  1  0  0  0  0
  9 26  2  0  0  0  0
 10 27  1  0  0  0  0
 11 12  2  0  0  0  0
 11 28  1  0  0  0  0
 12 30  1  0  0  0  0
 13 18  1  0  0  0  0
 13 24  2  0  0  0  0
 14 23  1  0  0  0  0
 14 27  2  0  0  0  0
 15 25  2  0  0  0  0
 15 29  1  0  0  0  0
 16 30  2  0  0  0  0
 16 31  1  0  0  0  0
 17 32  1  0  0  0  0
 18 29  2  0  0  0  0
 18 35  1  0  0  0  0
 19 32  1  0  0  0  0
 19 33  2  0  0  0  0
 19 36  1  0  0  0  0
 20 22  2  0  0  0  0
 20 41  1  0  0  0  0
 21 23  2  0  0  0  0
 21 42  1  0  0  0  0
 22 50  1  0  0  0  0
 23 43  1  0  0  0  0
 24 25  1  0  0  0  0
 24 53  1  0  0  0  0
 25 73  1  0  0  0  0
 26 82  1  0  0  0  0
 27 83  1  0  0  0  0
 28 31  2  0  0  0  0
 28 82  1  0  0  0  0
 29 84  1  0  0  0  0
 30 85  1  0  0  0  0
 31 86  1  0  0  0  0
 32 67  2  0  0  0  0
 33 68  1  0  0  0  0
 33 71  1  0  0  0  0
 34 35  2  0  0  0  0
 36 72  1  0  0  0  0
 36 77  2  0  0  0  0
 37 51  1  0  0  0  0
 37 74  1  0  0  0  0
 37 78  2  0  0  0  0
 38 64  1  0  0  0  0
 38 69  1  0  0  0  0
 38 79  2  0  0  0  0
 39 65  1  0  0  0  0
 39 75  1  0  0  0  0
 39 80  2  0  0  0  0
 40 70  1  0  0  0  0
 40 73  1  0  0  0  0
 40 81  2  0  0  0  0
 41 44  1  0  0  0  0
 42 51  1  0  0  0  0
 43 69  1  0  0  0  0
 44 46  1  0  0  0  0
 45 47  1  0  0  0  0
 45 48  1  0  0  0  0
 46 50  1  0  0  0  0
 47 52  1  0  0  0  0
 48 70  1  0  0  0  0
 49 52  1  0  0  0  0
 49 70  1  0  0  0  0
 50 74  1  0  0  0  0
 51 69  1  0  0  0  0
 52 68  1  0  0  0  0
 54 65  1  0  0  0  0
 55 66  1  0  0  0  0
 56 66  1  0  0  0  0
 57 66  1  0  0  0  0
 58 76  1  0  0  0  0
 59 60  1  0  0  0  0
 59 61  1  0  0  0  0
 60 62  1  0  0  0  0
 61 63  1  0  0  0  0
 62 83  1  0  0  0  0
 63 84  1  0  0  0  0
 64 66  1  0  0  0  0
 64 75  1  0  0  0  0
 65 76  1  0  0  0  0
 67 68  1  0  0  0  0
M  CHG  1  76   1
M  ISO  4  40 100  62 101  73 100  83 101
M  END
> <Batch ID>
0120

> <Smiles>
C=Cc1cc(C)c([100NH:0][100C:0](=O)N2CCCC(n3nc(-c4ccc(Oc5ccc(F)cc5F)cc4)c(C(N)=O)c3N)C2)cc1OCCCC[101CH2:1][101O:1]c1ccc2c(c1)CN(C(=O)C(NC(=O)C(C)NC)C(C)(C)C)C(C(=O)NC1CCCc3ccccc31)C2

> <Shape>
0.242

> <Color>
0.149

> <Negative vol penalty>
0.000

$$$$

  -OEChem-04052301543D

 85 93  0     1  0  0  0  0  0999 V2000
  -27.2715  -15.5826   13.4621 C   0  0  0  0  0  0  0  0  0  0  0  0
  -27.9644  -15.3030   14.6357 C   0  0  0  0  0  0  0  0  0  0  0  0
  -26.1068  -27.7471   18.9110 C   0  0  0  0  0  0  0  0  0  0  0  0
  -26.4517  -27.3711   21.2725 C   0  0  0  0  0  0  0  0  0  0  0  0
  -25.9424  -15.9993   13.5211 C   0  0  0  0  0  0  0  0  0  0  0  0
  -27.3287  -15.4412   15.8691 C   0  0  0  0  0  0  0  0  0  0  0  0
  -28.1917  -12.0006   20.8614 C   0  0  0  0  0  0  0  0  0  0  0  0
  -25.5817  -29.0091   19.1885 C   0  0  0  0  0  0  0  0  0  0  0  0
  -25.9267  -28.6333   21.5501 C   0  0  0  0  0  0  0  0  0  0  0  0
  -28.9569  -12.1912   22.0112 C   0  0  0  0  0  0  0  0  0  0  0  0
  -26.9783  -31.8434   21.4515 C   0  0  0  0  0  0  0  0  0  0  0  0
  -27.6602  -32.6392   22.3720 C   0  0  0  0  0  0  0  0  0  0  0  0
  -27.7193  -19.1026   23.6954 C   0  0  0  0  0  0  0  0  0  0  0  0
  -27.0124  -13.0433   23.1567 C   0  0  0  0  0  0  0  0  0  0  0  0
  -28.9876  -17.7060   25.2046 C   0  0  0  0  0  0  0  0  0  0  0  0
  -25.6956  -32.6972   23.7771 C   0  0  0  0  0  0  0  0  0  0  0  0
  -26.5418  -26.9280   19.9530 C   0  0  0  0  0  0  0  0  0  0  0  0
  -28.3846  -18.5334   22.6096 C   0  0  0  0  0  0  0  0  0  0  0  0
  -28.4307  -25.2989   19.4186 C   0  0  0  0  0  0  0  0  0  0  0  0
  -25.2871  -16.1334   14.7554 C   0  0  0  0  0  0  0  0  0  0  0  0
  -26.8313  -12.3406   20.8473 C   0  0  0  0  0  0  0  0  0  0  0  0
  -25.9899  -15.8614   15.9447 C   0  0  0  0  0  0  0  0  0  0  0  0
  -26.2316  -12.8536   22.0063 C   0  0  0  0  0  0  0  0  0  0  0  0
  -29.3513  -17.5505   22.8212 C   0  0  0  0  0  0  0  0  0  0  0  0
  -25.4917  -29.4523   20.5081 C   0  0  0  0  0  0  0  0  0  0  0  0
  -28.3680  -12.7153   23.1582 C   0  0  0  0  0  0  0  0  0  0  0  0
  -25.6550  -31.4746   21.6937 C   0  0  0  0  0  0  0  0  0  0  0  0
  -29.6529  -17.1367   24.1188 C   0  0  0  0  0  0  0  0  0  0  0  0
  -27.0189  -33.0661   23.5348 C   0  0  0  0  0  0  0  0  0  0  0  0
  -28.0209  -18.6890   24.9929 C   0  0  0  0  0  0  0  0  0  0  0  0
  -25.0137  -31.9015   22.8566 C   0  0  0  0  0  0  0  0  0  0  0  0
  -27.0837  -25.6240   19.6669 C   0  0  0  0  0  0  0  0  0  0  0  0
  -28.4228  -23.9422   19.2047 C   0  0  0  0  0  0  0  0  0  0  0  0
  -32.0123  -13.5345   26.0372 C   0  0  0  0  0  0  0  0  0  0  0  0
  -28.0487  -18.9857   21.2659 C   0  0  0  0  0  0  0  0  0  0  0  0
  -29.5859  -26.1475   19.3845 C   0  0  0  0  0  0  0  0  0  0  0  0
  -31.0269  -14.0013   25.2541 C   0  0  0  0  0  0  0  0  0  0  0  0
  -26.6742  -18.8525   20.7307 C   0  0  0  0  0  0  0  0  0  0  0  0
  -25.0506  -14.3990   19.2054 C   0  0  0  0  0  0  0  0  0  0  0  0
  -22.6131  -12.9391   20.7704 C   0  0  0  0  0  0  0  0  0  0  0  0
  -21.5753  -11.1311   23.4724 C   0  0  0  0  0  0  0  0  0  0  0  0
  -23.8640  -16.6324   14.7713 C   0  0  0  0  0  0  0  0  0  0  0  0
  -26.0135  -12.1039   19.6073 C   0  0  0  0  0  0  0  0  0  0  0  0
  -24.7702  -13.2157   22.0493 C   0  0  0  0  0  0  0  0  0  0  0  0
  -23.1494  -16.3931   16.0988 C   0  0  0  0  0  0  0  0  0  0  0  0
  -24.5897  -20.7313   18.4987 C   0  0  0  0  0  0  0  0  0  0  0  0
  -24.0394  -16.8073   17.2664 C   0  0  0  0  0  0  0  0  0  0  0  0
  -25.1398  -22.1525   18.6141 C   0  0  0  0  0  0  0  0  0  0  0  0
  -24.6831  -19.9869   19.8267 C   0  0  0  0  0  0  0  0  0  0  0  0
  -26.6188  -21.3732   20.5195 C   0  0  0  0  0  0  0  0  0  0  0  0
  -25.3273  -15.9755   17.3004 C   0  0  1  0  0  0  0  0  0  0  0  0
  -24.7561  -12.9658   19.5473 C   0  0  1  0  0  0  0  0  0  0  0  0
  -26.5667  -22.1472   19.1907 C   0  0  2  0  0  0  0  0  0  0  0  0
  -30.0701  -16.9350   21.6627 C   0  0  0  0  0  0  0  0  0  0  0  0
  -19.5181  -10.1199   24.4937 C   0  0  0  0  0  0  0  0  0  0  0  0
  -21.7134  -15.7054   21.6914 C   0  0  0  0  0  0  0  0  0  0  0  0
  -20.2909  -14.5896   23.4233 C   0  0  0  0  0  0  0  0  0  0  0  0
  -19.8554  -14.1802   21.0015 C   0  0  0  0  0  0  0  0  0  0  0  0
  -22.6992   -8.3978   23.3141 C   0  0  0  0  0  0  0  0  0  0  0  0
  -30.4991  -13.1891   24.1014 C   0  0  0  0  0  0  0  0  0  1  0  0
  -30.4185  -15.3555   25.4961 C   0  0  0  0  0  0  0  0  0  0  0  0
  -21.9005  -13.1602   22.0828 C   0  0  1  0  0  0  0  0  0  0  0  0
  -20.7119   -9.8872   23.5807 C   0  0  2  0  0  0  0  0  0  0  0  0
  -20.9681  -14.4039   22.0487 C   0  0  0  0  0  0  0  0  0  0  0  0
  -26.2785  -24.5595   19.6156 N   0  0  0  0  0  0  0  0  0  0  0  0
  -28.9160  -19.5299   20.4580 N   0  0  0  0  0  0  0  0  0  0  0  0
  -27.1221  -23.5523   19.3325 N   0  0  0  0  0  0  0  0  0  0  0  0
  -26.0417  -20.0321   20.3635 N   0  0  0  0  0  0  0  0  0  0  0  0
  -24.0142  -12.9718   20.8097 N   0  0  0  0  0  0  0  0  0  0  0  0
  -29.4016  -23.0567   18.9215 N   0  0  0  0  0  0  0  0  0  0  0  0
  -29.4160  -27.5175   19.6267 N   0  0  0  0  0  0  0  0  0  0  0  0
  -25.0662  -14.6620   17.8489 N   0  0  0  0  0  0  0  0  0  0  0  0
  -21.2168  -11.9091   22.3920 N   0  0  0  0  0  0  0  0  0  0  0  0
  -21.5067   -8.7509   24.1267 N   0  3  0  0  0  0  0  0  0  0  0  0
  -30.7324  -25.7066   19.1302 O   0  0  0  0  0  0  0  0  0  0  0  0
  -26.2406  -17.7095   20.6695 O   0  0  0  0  0  0  0  0  0  0  0  0
  -25.2475  -15.2067   20.1056 O   0  0  0  0  0  0  0  0  0  0  0  0
  -21.9510  -12.7374   19.7493 O   0  0  0  0  0  0  0  0  0  0  0  0
  -22.4751  -11.3887   24.2690 O   0  0  0  0  0  0  0  0  0  0  0  0
  -24.9796  -30.6838   20.7793 O   0  0  0  0  0  0  0  0  0  0  0  0
  -29.1127  -12.9030   24.2815 O   0  0  0  0  0  0  0  0  0  1  0  0
  -30.5996  -16.1723   24.3472 O   0  0  0  0  0  0  0  0  0  0  0  0
  -27.6743  -33.8290   24.4194 F   0  0  0  0  0  0  0  0  0  0  0  0
  -27.3818  -19.2354   26.0356 F   0  0  0  0  0  0  0  0  0  0  0  0
  -23.7430  -31.5494   23.0953 F   0  0  0  0  0  0  0  0  0  0  0  0
  1  2  1  0  0  0  0
  1  5  2  0  0  0  0
  2  6  2  0  0  0  0
  3  8  2  0  0  0  0
  3 17  1  0  0  0  0
  4  9  1  0  0  0  0
  4 17  2  0  0  0  0
  5 20  1  0  0  0  0
  6 22  1  0  0  0  0
  7 10  2  0  0  0  0
  7 21  1  0  0  0  0
  8 25  1  0  0  0  0
  9 25  2  0  0  0  0
 10 26  1  0  0  0  0
 11 12  2  0  0  0  0
 11 27  1  0  0  0  0
 12 29  1  0  0  0  0
 13 18  2  0  0  0  0
 13 30  1  0  0  0  0
 14 23  1  0  0  0  0
 14 26  2  0  0  0  0
 15 28  1  0  0  0  0
 15 30  2  0  0  0  0
 16 29  2  0  0  0  0
 16 31  1  0  0  0  0
 17 32  1  0  0  0  0
 18 24  1  0  0  0  0
 18 35  1  0  0  0  0
 19 32  1  0  0  0  0
 19 33  2  0  0  0  0
 19 36  1  0  0  0  0
 20 22  2  0  0  0  0
 20 42  1  0  0  0  0
 21 23  2  0  0  0  0
 21 43  1  0  0  0  0
 22 51  1  0  0  0  0
 23 44  1  0  0  0  0
 24 28  2  0  0  0  0
 24 54  1  0  0  0  0
 25 80  1  0  0  0  0
 26 81  1  0  0  0  0
 27 31  2  0  0  0  0
 27 80  1  0  0  0  0
 28 82  1  0  0  0  0
 29 83  1  0  0  0  0
 30 84  1  0  0  0  0
 31 85  1  0  0  0  0
 32 65  2  0  0  0  0
 33 67  1  0  0  0  0
 33 70  1  0  0  0  0
 34 37  2  0  0  0  0
 35 38  1  0  0  0  0
 35 66  2  0  0  0  0
 36 71  1  0  0  0  0
 36 75  2  0  0  0  0
 37 60  1  0  0  0  0
 37 61  1  0  0  0  0
 38 68  1  0  0  0  0
 38 76  2  0  0  0  0
 39 52  1  0  0  0  0
 39 72  1  0  0  0  0
 39 77  2  0  0  0  0
 40 62  1  0  0  0  0
 40 69  1  0  0  0  0
 40 78  2  0  0  0  0
 41 63  1  0  0  0  0
 41 73  1  0  0  0  0
 41 79  2  0  0  0  0
 42 45  1  0  0  0  0
 43 52  1  0  0  0  0
 44 69  1  0  0  0  0
 45 47  1  0  0  0  0
 46 48  1  0  0  0  0
 46 49  1  0  0  0  0
 47 51  1  0  0  0  0
 48 53  1  0  0  0  0
 49 68  1  0  0  0  0
 50 53  1  0  0  0  0
 50 68  1  0  0  0  0
 51 72  1  0  0  0  0
 52 69  1  0  0  0  0
 53 67  1  0  0  0  0
 55 63  1  0  0  0  0
 56 64  1  0  0  0  0
 57 64  1  0  0  0  0
 58 64  1  0  0  0  0
 59 74  1  0  0  0  0
 60 81  1  0  0  0  0
 61 82  1  0  0  0  0
 62 64  1  0  0  0  0
 62 73  1  0  0  0  0
 63 74  1  0  0  0  0
 65 67  1  0  0  0  0
M  CHG  1  74   1
M  ISO  4  35 100  38 100  60 101  81 101
M  END
> <Batch ID>
0120

> <Smiles>
C=C(COc1cc(F)cc([100C:0](=N)[100C:0](=O)N2CCCC(n3nc(-c4ccc(Oc5ccc(F)cc5F)cc4)c(C(N)=O)c3N)C2)c1C)[101CH2:1][101O:1]c1ccc2c(c1)CN(C(=O)C(NC(=O)C(C)NC)C(C)(C)C)C(C(=O)NC1CCCc3ccccc31)C2

> <Shape>
0.203

> <Color>
0.094

> <Negative vol penalty>
0.000

$$$$

  -OEChem-04052301543D

 89 97  0     1  0  0  0  0  0999 V2000
  -22.9699  -19.1797   12.3727 C   0  0  0  0  0  0  0  0  0  0  0  0
  -23.6709  -19.9579   13.2883 C   0  0  0  0  0  0  0  0  0  0  0  0
  -26.0961  -31.1661   22.6077 C   0  0  0  0  0  0  0  0  0  0  0  0
  -24.4781  -32.1388   24.1155 C   0  0  0  0  0  0  0  0  0  0  0  0
  -22.2171  -18.0928   12.8154 C   0  0  0  0  0  0  0  0  0  0  0  0
  -23.6187  -19.6504   14.6474 C   0  0  0  0  0  0  0  0  0  0  0  0
  -28.1718  -19.8313   16.8566 C   0  0  0  0  0  0  0  0  0  0  0  0
  -23.8101  -25.3289   20.6667 C   0  0  0  0  0  0  0  0  0  0  0  0
  -26.6400  -32.4295   22.3763 C   0  0  0  0  0  0  0  0  0  0  0  0
  -25.0221  -33.4022   23.8841 C   0  0  0  0  0  0  0  0  0  0  0  0
  -28.6784  -21.0921   17.1688 C   0  0  0  0  0  0  0  0  0  0  0  0
  -24.9784  -25.4965   21.4100 C   0  0  0  0  0  0  0  0  0  0  0  0
  -24.8762  -35.7752   21.4803 C   0  0  0  0  0  0  0  0  0  0  0  0
  -23.9921  -36.8290   21.2492 C   0  0  0  0  0  0  0  0  0  0  0  0
  -25.5843  -27.3861   20.0318 C   0  0  0  0  0  0  0  0  0  0  0  0
  -27.9878  -20.7955   19.4610 C   0  0  0  0  0  0  0  0  0  0  0  0
  -24.8674  -37.9869   23.1806 C   0  0  0  0  0  0  0  0  0  0  0  0
  -25.0151  -31.0207   23.4773 C   0  0  0  0  0  0  0  0  0  0  0  0
  -24.4160  -27.2185   19.2884 C   0  0  0  0  0  0  0  0  0  0  0  0
  -24.8297  -28.7973   24.7141 C   0  0  0  0  0  0  0  0  0  0  0  0
  -22.1633  -17.7661   14.1796 C   0  0  0  0  0  0  0  0  0  0  0  0
  -27.5586  -19.0463   17.8436 C   0  0  0  0  0  0  0  0  0  0  0  0
  -22.8633  -18.5590   15.1089 C   0  0  0  0  0  0  0  0  0  0  0  0
  -27.4765  -19.5240   19.1593 C   0  0  0  0  0  0  0  0  0  0  0  0
  -23.5289  -26.1899   19.6058 C   0  0  0  0  0  0  0  0  0  0  0  0
  -26.1030  -33.5476   23.0145 C   0  0  0  0  0  0  0  0  0  0  0  0
  -25.8655  -26.5251   21.0926 C   0  0  0  0  0  0  0  0  0  0  0  0
  -28.5839  -21.5756   18.4704 C   0  0  0  0  0  0  0  0  0  0  0  0
  -25.7559  -35.8272   22.5616 C   0  0  0  0  0  0  0  0  0  0  0  0
  -23.9877  -37.9348   22.0994 C   0  0  0  0  0  0  0  0  0  0  0  0
  -25.7515  -36.9330   23.4117 C   0  0  0  0  0  0  0  0  0  0  0  0
  -24.4524  -29.7160   23.7163 C   0  0  0  0  0  0  0  0  0  0  0  0
  -24.0001  -27.7199   24.5202 C   0  0  0  0  0  0  0  0  0  0  0  0
  -24.9441  -28.2556   17.1295 C   0  0  0  0  0  0  0  0  0  0  0  0
  -23.7201  -23.3569   17.0914 C   0  0  0  0  0  0  0  0  0  0  0  0
  -24.1561  -28.1379   18.1869 C   0  0  0  0  0  0  0  0  0  0  0  0
  -22.6407  -23.9785   17.5794 C   0  0  0  0  0  0  0  0  0  0  0  0
  -25.8396  -28.9079   25.7257 C   0  0  0  0  0  0  0  0  0  0  0  0
  -24.6460  -17.8453   18.2657 C   0  0  0  0  0  0  0  0  0  0  0  0
  -29.5608  -24.6122   20.3188 C   0  0  0  0  0  0  0  0  0  0  0  0
  -26.0403  -16.3838   20.8039 C   0  0  0  0  0  0  0  0  0  0  0  0
  -28.5502  -16.3636   23.1162 C   0  0  0  0  0  0  0  0  0  0  0  0
  -21.0305  -26.0491   19.4345 C   0  0  0  0  0  0  0  0  0  0  0  0
  -21.2980  -16.6103   14.6157 C   0  0  0  0  0  0  0  0  0  0  0  0
  -27.0411  -17.6773   17.4966 C   0  0  0  0  0  0  0  0  0  0  0  0
  -26.8457  -18.7121   20.2599 C   0  0  0  0  0  0  0  0  0  0  0  0
  -21.5966  -16.1264   16.0323 C   0  0  0  0  0  0  0  0  0  0  0  0
  -19.6809  -26.5434   22.8444 C   0  0  0  0  0  0  0  0  0  0  0  0
  -21.7022  -17.3095   16.9894 C   0  0  0  0  0  0  0  0  0  0  0  0
  -20.7498  -27.4079   23.5103 C   0  0  0  0  0  0  0  0  0  0  0  0
  -19.6248  -26.7730   21.3371 C   0  0  0  0  0  0  0  0  0  0  0  0
  -22.0112  -27.4410   21.3218 C   0  0  0  0  0  0  0  0  0  0  0  0
  -22.8514  -18.2424   16.5887 C   0  0  1  0  0  0  0  0  0  0  0  0
  -25.9765  -17.1770   18.4681 C   0  0  1  0  0  0  0  0  0  0  0  0
  -22.1152  -27.1984   22.8350 C   0  0  1  0  0  0  0  0  0  0  0  0
  -29.4046  -15.0629   25.0849 C   0  0  0  0  0  0  0  0  0  0  0  0
  -23.8219  -17.5577   22.5391 C   0  0  0  0  0  0  0  0  0  0  0  0
  -25.2202  -17.0449   24.5516 C   0  0  0  0  0  0  0  0  0  0  0  0
  -24.4286  -15.1926   23.0803 C   0  0  0  0  0  0  0  0  0  0  0  0
  -31.1214  -15.7888   21.7680 C   0  0  0  0  0  0  0  0  0  0  0  0
  -22.4238  -25.4533   17.5018 C   0  0  0  0  0  0  0  0  0  0  0  0
  -29.4944  -25.1759   21.7296 C   0  0  0  0  0  0  0  0  0  0  0  0
  -28.9463  -23.2389   20.1312 C   0  0  0  0  0  0  0  0  0  1  0  0
  -29.4080  -26.6979   21.7812 C   0  0  0  0  0  0  0  0  0  0  0  0
  -28.1339  -27.2377   21.1421 C   0  0  0  0  0  0  0  0  0  0  0  0
  -26.2533  -16.7364   22.2563 C   0  0  1  0  0  0  0  0  0  0  0  0
  -29.4845  -15.2603   23.5791 C   0  0  2  0  0  0  0  0  0  0  0  0
  -24.9412  -16.6493   23.0859 C   0  0  0  0  0  0  0  0  0  0  0  0
  -23.4605  -29.2618   22.9457 N   0  0  0  0  0  0  0  0  0  0  0  0
  -23.2075  -28.0460   23.4592 N   0  0  0  0  0  0  0  0  0  0  0  0
  -26.3488  -17.3824   19.8693 N   0  0  0  0  0  0  0  0  0  0  0  0
  -20.9427  -26.6292   20.7167 N   0  0  0  0  0  0  0  0  0  0  0  0
  -23.8786  -26.5350   25.1554 N   0  0  0  0  0  0  0  0  0  0  0  0
  -26.6012  -30.0830   25.7838 N   0  0  0  0  0  0  0  0  0  0  0  0
  -24.1222  -17.6833   16.9974 N   0  0  0  0  0  0  0  0  0  0  0  0
  -27.3219  -15.8663   22.7351 N   0  0  0  0  0  0  0  0  0  0  0  0
  -22.3128  -25.9909   18.8560 N   0  0  0  0  0  0  0  0  0  0  0  0
  -30.8932  -15.5910   23.2226 N   0  3  0  0  0  0  0  0  0  0  0  0
  -26.0712  -27.9852   26.5433 O   0  0  0  0  0  0  0  0  0  0  0  0
  -24.1321  -18.4610   19.1922 O   0  0  0  0  0  0  0  0  0  0  0  0
  -30.0988  -25.2124   19.3898 O   0  0  0  0  0  0  0  0  0  0  0  0
  -25.6226  -15.2612   20.5092 O   0  0  0  0  0  0  0  0  0  0  0  0
  -28.8761  -17.5485   23.0983 O   0  0  0  0  0  0  0  0  0  0  0  0
  -20.0283  -25.6600   18.8223 O   0  0  0  0  0  0  0  0  0  0  0  0
  -26.6336  -34.7805   22.7891 O   0  0  0  0  0  0  0  0  0  0  0  0
  -29.0770  -22.8062   18.7777 O   0  0  0  0  0  0  0  0  0  1  0  0
  -27.0133  -26.6893   21.8233 O   0  0  0  0  0  0  0  0  0  0  0  0
  -23.1397  -38.9474   21.8765 F   0  0  0  0  0  0  0  0  0  0  0  0
  -26.5952  -36.9891   24.4514 F   0  0  0  0  0  0  0  0  0  0  0  0
  1  2  1  0  0  0  0
  1  5  2  0  0  0  0
  2  6  2  0  0  0  0
  3  9  2  0  0  0  0
  3 18  1  0  0  0  0
  4 10  1  0  0  0  0
  4 18  2  0  0  0  0
  5 21  1  0  0  0  0
  6 23  1  0  0  0  0
  7 11  2  0  0  0  0
  7 22  1  0  0  0  0
  8 12  2  0  0  0  0
  8 25  1  0  0  0  0
  9 26  1  0  0  0  0
 10 26  2  0  0  0  0
 11 28  1  0  0  0  0
 12 27  1  0  0  0  0
 13 14  2  0  0  0  0
 13 29  1  0  0  0  0
 14 30  1  0  0  0  0
 15 19  1  0  0  0  0
 15 27  2  0  0  0  0
 16 24  1  0  0  0  0
 16 28  2  0  0  0  0
 17 30  2  0  0  0  0
 17 31  1  0  0  0  0
 18 32  1  0  0  0  0
 19 25  2  0  0  0  0
 19 36  1  0  0  0  0
 20 32  1  0  0  0  0
 20 33  2  0  0  0  0
 20 38  1  0  0  0  0
 21 23  2  0  0  0  0
 21 44  1  0  0  0  0
 22 24  2  0  0  0  0
 22 45  1  0  0  0  0
 23 53  1  0  0  0  0
 24 46  1  0  0  0  0
 25 77  1  0  0  0  0
 26 85  1  0  0  0  0
 27 87  1  0  0  0  0
 28 86  1  0  0  0  0
 29 31  2  0  0  0  0
 29 85  1  0  0  0  0
 30 88  1  0  0  0  0
 31 89  1  0  0  0  0
 32 69  2  0  0  0  0
 33 70  1  0  0  0  0
 33 73  1  0  0  0  0
 34 36  2  0  0  0  0
 35 37  2  0  0  0  0
 37 61  1  0  0  0  0
 38 74  1  0  0  0  0
 38 79  2  0  0  0  0
 39 54  1  0  0  0  0
 39 75  1  0  0  0  0
 39 80  2  0  0  0  0
 40 62  1  0  0  0  0
 40 63  1  0  0  0  0
 40 81  2  0  0  0  0
 41 66  1  0  0  0  0
 41 71  1  0  0  0  0
 41 82  2  0  0  0  0
 42 67  1  0  0  0  0
 42 76  1  0  0  0  0
 42 83  2  0  0  0  0
 43 72  1  0  0  0  0
 43 77  1  0  0  0  0
 43 84  2  0  0  0  0
 44 47  1  0  0  0  0
 45 54  1  0  0  0  0
 46 71  1  0  0  0  0
 47 49  1  0  0  0  0
 48 50  1  0  0  0  0
 48 51  1  0  0  0  0
 49 53  1  0  0  0  0
 50 55  1  0  0  0  0
 51 72  1  0  0  0  0
 52 55  1  0  0  0  0
 52 72  1  0  0  0  0
 53 75  1  0  0  0  0
 54 71  1  0  0  0  0
 55 70  1  0  0  0  0
 56 67  1  0  0  0  0
 57 68  1  0  0  0  0
 58 68  1  0  0  0  0
 59 68  1  0  0  0  0
 60 78  1  0  0  0  0
 61 77  1  0  0  0  0
 62 64  1  0  0  0  0
 63 86  1  0  0  0  0
 64 65  1  0  0  0  0
 65 87  1  0  0  0  0
 66 68  1  0  0  0  0
 66 76  1  0  0  0  0
 67 78  1  0  0  0  0
 69 70  1  0  0  0  0
M  CHG  1  78   1
M  ISO  4  43 100  63 101  77 100  86 101
M  END
> <Batch ID>
0120

> <Smiles>
C=CC[100N:0](c1ccc(OCCCC(=O)[101CH2:1][101O:1]c2ccc3c(c2)CN(C(=O)C(NC(=O)C(C)NC)C(C)(C)C)C(C(=O)NC2CCCc4ccccc42)C3)cc1C=C)[100C:0](=O)N1CCCC(n2nc(-c3ccc(Oc4ccc(F)cc4F)cc3)c(C(N)=O)c2N)C1

> <Shape>
0.205

> <Color>
0.079

> <Negative vol penalty>
0.000

$$$$

  -OEChem-04052301543D

 81 89  0     1  0  0  0  0  0999 V2000
  -23.2657  -30.5644   24.3613 C   0  0  0  0  0  0  0  0  0  0  0  0
  -24.3078  -29.7306   23.9686 C   0  0  0  0  0  0  0  0  0  0  0  0
  -23.0501   -9.8659   19.9223 C   0  0  0  0  0  0  0  0  0  0  0  0
  -23.8377   -9.8233   22.2060 C   0  0  0  0  0  0  0  0  0  0  0  0
  -22.0577  -30.5435   23.6653 C   0  0  0  0  0  0  0  0  0  0  0  0
  -24.1421  -28.8745   22.8804 C   0  0  0  0  0  0  0  0  0  0  0  0
  -28.4096  -27.2287   18.8079 C   0  0  0  0  0  0  0  0  0  0  0  0
  -22.3115   -8.7059   20.1554 C   0  0  0  0  0  0  0  0  0  0  0  0
  -23.0990   -8.6632   22.4390 C   0  0  0  0  0  0  0  0  0  0  0  0
  -29.2129  -26.0945   18.6975 C   0  0  0  0  0  0  0  0  0  0  0  0
  -19.8798   -7.8452   23.0624 C   0  0  0  0  0  0  0  0  0  0  0  0
  -19.1372   -7.7775   24.2411 C   0  0  0  0  0  0  0  0  0  0  0  0
  -27.6288  -25.1301   17.1549 C   0  0  0  0  0  0  0  0  0  0  0  0
  -20.3910   -5.8268   24.9191 C   0  0  0  0  0  0  0  0  0  0  0  0
  -31.2677  -19.3252   19.4366 C   0  0  0  0  0  0  0  0  0  0  0  0
  -23.8133  -10.4246   20.9476 C   0  0  0  0  0  0  0  0  0  0  0  0
  -29.9744  -19.6915   19.7285 C   0  0  0  0  0  0  0  0  0  0  0  0
  -24.1489  -12.9525   20.8800 C   0  0  0  0  0  0  0  0  0  0  0  0
  -21.8805  -29.6938   22.5621 C   0  0  0  0  0  0  0  0  0  0  0  0
  -27.2025  -27.3176   18.0999 C   0  0  0  0  0  0  0  0  0  0  0  0
  -22.9302  -28.8413   22.1699 C   0  0  0  0  0  0  0  0  0  0  0  0
  -26.8133  -26.2676   17.2561 C   0  0  0  0  0  0  0  0  0  0  0  0
  -29.5395  -18.8159   20.7520 C   0  0  0  0  0  0  0  0  0  0  0  0
  -22.3359   -8.1045   21.4137 C   0  0  0  0  0  0  0  0  0  0  0  0
  -28.8212  -25.0438   17.8732 C   0  0  0  0  0  0  0  0  0  0  0  0
  -20.8781   -6.9037   22.8119 C   0  0  0  0  0  0  0  0  0  0  0  0
  -19.3928   -6.7683   25.1695 C   0  0  0  0  0  0  0  0  0  0  0  0
  -21.1337   -5.8945   23.7403 C   0  0  0  0  0  0  0  0  0  0  0  0
  -24.5769  -11.6226   20.7073 C   0  0  0  0  0  0  0  0  0  0  0  0
  -30.5979  -17.9769   21.0123 C   0  0  0  0  0  0  0  0  0  0  0  0
  -25.2351  -13.7123   20.5204 C   0  0  0  0  0  0  0  0  0  0  0  0
  -29.2358  -20.7853   19.0756 C   0  0  0  0  0  0  0  0  0  0  0  0
  -29.7284  -21.5904   18.1214 C   0  0  0  0  0  0  0  0  0  0  0  0
  -22.8826  -13.4561   21.3256 C   0  0  0  0  0  0  0  0  0  0  0  0
  -24.1412  -27.5904   18.9109 C   0  0  0  0  0  0  0  0  0  0  0  0
  -23.7249  -27.9106   15.7098 C   0  0  0  0  0  0  0  0  0  0  0  0
  -24.8989  -27.3136   12.5615 C   0  0  0  0  0  0  0  0  0  0  0  0
  -30.7188  -14.7386   20.6655 C   0  0  0  0  0  0  0  0  0  0  0  0
  -20.5404  -29.6722   21.8703 C   0  0  0  0  0  0  0  0  0  0  0  0
  -26.3604  -28.5591   18.2092 C   0  0  0  0  0  0  0  0  0  0  0  0
  -25.5365  -26.3224   16.4590 C   0  0  0  0  0  0  0  0  0  0  0  0
  -20.5746  -29.0066   20.4970 C   0  0  0  0  0  0  0  0  0  0  0  0
  -29.5570  -12.4056   18.2399 C   0  0  0  0  0  0  0  0  0  0  0  0
  -21.3397  -27.6886   20.5614 C   0  0  0  0  0  0  0  0  0  0  0  0
  -28.1254  -12.0992   18.6834 C   0  0  0  0  0  0  0  0  0  0  0  0
  -30.4881  -12.6015   19.4343 C   0  0  0  0  0  0  0  0  0  0  0  0
  -28.6019  -13.2973   20.8597 C   0  0  0  0  0  0  0  0  0  0  0  0
  -22.7974  -27.9167   20.9793 C   0  0  1  0  0  0  0  0  0  0  0  0
  -24.8988  -28.3241   17.8407 C   0  0  1  0  0  0  0  0  0  0  0  0
  -27.6139  -13.1470   19.6902 C   0  0  2  0  0  0  0  0  0  0  0  0
  -28.2202  -18.7971   21.4138 C   0  0  0  0  0  0  0  0  0  0  0  0
  -24.3208  -27.6619   10.1445 C   0  0  0  0  0  0  0  0  0  0  0  0
  -21.6786  -25.6534   15.8765 C   0  0  0  0  0  0  0  0  0  0  0  0
  -21.8500  -25.4083   13.3908 C   0  0  0  0  0  0  0  0  0  0  0  0
  -21.0248  -27.5456   14.3776 C   0  0  0  0  0  0  0  0  0  0  0  0
  -27.3269  -28.9403   12.0951 C   0  0  0  0  0  0  0  0  0  0  0  0
  -30.7956  -16.8612   21.9493 C   0  0  0  0  0  0  0  0  0  0  0  0
  -28.9430  -22.6987   17.4967 C   0  0  0  0  0  0  0  0  0  1  0  0
  -23.4773  -26.9599   14.5636 C   0  0  1  0  0  0  0  0  0  0  0  0
  -25.0523  -28.2216   11.3547 C   0  0  2  0  0  0  0  0  0  0  0  0
  -22.0308  -26.3897   14.5685 C   0  0  0  0  0  0  0  0  0  0  0  0
  -25.8368  -11.5388   20.2718 N   0  0  0  0  0  0  0  0  0  0  0  0
  -26.2097  -12.8258   20.1677 N   0  0  0  0  0  0  0  0  0  0  0  0
  -24.7443  -27.5548   16.6043 N   0  0  0  0  0  0  0  0  0  0  0  0
  -29.9464  -13.6088   20.3496 N   0  0  0  0  0  0  0  0  0  0  0  0
  -25.4422  -15.0455   20.4747 N   0  0  0  0  0  0  0  0  0  0  0  0
  -21.8765  -12.5375   21.6546 N   0  0  0  0  0  0  0  0  0  0  0  0
  -23.5714  -28.4146   19.8624 N   0  0  0  0  0  0  0  0  0  0  0  0
  -23.8292  -27.6858   13.3480 N   0  0  0  0  0  0  0  0  0  0  0  0
  -30.1282  -15.6471   21.5353 N   0  0  0  0  0  0  0  0  0  0  0  0
  -26.4922  -28.3769   11.0030 N   0  3  0  0  0  0  0  0  0  0  0  0
  -22.6447  -14.6846   21.4133 O   0  0  0  0  0  0  0  0  0  0  0  0
  -24.0770  -26.3672   18.8751 O   0  0  0  0  0  0  0  0  0  0  0  0
  -23.0439  -28.9348   15.8040 O   0  0  0  0  0  0  0  0  0  0  0  0
  -25.6504  -26.3664   12.7823 O   0  0  0  0  0  0  0  0  0  0  0  0
  -31.8489  -14.9266   20.2023 O   0  0  0  0  0  0  0  0  0  0  0  0
  -31.6553  -18.2808   20.2146 O   0  0  0  0  0  0  0  0  0  0  0  0
  -21.6151   -6.9727   21.6415 O   0  0  0  0  0  0  0  0  0  0  0  0
  -29.6030  -23.9354   17.7641 O   0  0  0  0  0  0  0  0  0  1  0  0
  -18.6805   -6.7044   26.3021 F   0  0  0  0  0  0  0  0  0  0  0  0
  -22.0922   -4.9878   23.5057 F   0  0  0  0  0  0  0  0  0  0  0  0
  1  2  1  0  0  0  0
  1  5  2  0  0  0  0
  2  6  2  0  0  0  0
  3  8  2  0  0  0  0
  3 16  1  0  0  0  0
  4  9  1  0  0  0  0
  4 16  2  0  0  0  0
  5 19  1  0  0  0  0
  6 21  1  0  0  0  0
  7 10  2  0  0  0  0
  7 20  1  0  0  0  0
  8 24  1  0  0  0  0
  9 24  2  0  0  0  0
 10 25  1  0  0  0  0
 11 12  2  0  0  0  0
 11 26  1  0  0  0  0
 12 27  1  0  0  0  0
 13 22  1  0  0  0  0
 13 25  2  0  0  0  0
 14 27  2  0  0  0  0
 14 28  1  0  0  0  0
 15 17  2  0  0  0  0
 15 77  1  0  0  0  0
 16 29  1  0  0  0  0
 17 23  1  0  0  0  0
 17 32  1  0  0  0  0
 18 29  1  0  0  0  0
 18 31  2  0  0  0  0
 18 34  1  0  0  0  0
 19 21  2  0  0  0  0
 19 39  1  0  0  0  0
 20 22  2  0  0  0  0
 20 40  1  0  0  0  0
 21 48  1  0  0  0  0
 22 41  1  0  0  0  0
 23 30  2  0  0  0  0
 23 51  1  0  0  0  0
 24 78  1  0  0  0  0
 25 79  1  0  0  0  0
 26 28  2  0  0  0  0
 26 78  1  0  0  0  0
 27 80  1  0  0  0  0
 28 81  1  0  0  0  0
 29 62  2  0  0  0  0
 30 57  1  0  0  0  0
 30 77  1  0  0  0  0
 31 63  1  0  0  0  0
 31 66  1  0  0  0  0
 32 33  2  0  0  0  0
 33 58  1  0  0  0  0
 34 67  1  0  0  0  0
 34 72  2  0  0  0  0
 35 49  1  0  0  0  0
 35 68  1  0  0  0  0
 35 73  2  0  0  0  0
 36 59  1  0  0  0  0
 36 64  1  0  0  0  0
 36 74  2  0  0  0  0
 37 60  1  0  0  0  0
 37 69  1  0  0  0  0
 37 75  2  0  0  0  0
 38 65  1  0  0  0  0
 38 70  1  0  0  0  0
 38 76  2  0  0  0  0
 39 42  1  0  0  0  0
 40 49  1  0  0  0  0
 41 64  1  0  0  0  0
 42 44  1  0  0  0  0
 43 45  1  0  0  0  0
 43 46  1  0  0  0  0
 44 48  1  0  0  0  0
 45 50  1  0  0  0  0
 46 65  1  0  0  0  0
 47 50  1  0  0  0  0
 47 65  1  0  0  0  0
 48 68  1  0  0  0  0
 49 64  1  0  0  0  0
 50 63  1  0  0  0  0
 52 60  1  0  0  0  0
 53 61  1  0  0  0  0
 54 61  1  0  0  0  0
 55 61  1  0  0  0  0
 56 71  1  0  0  0  0
 57 70  1  0  0  0  0
 58 79  1  0  0  0  0
 59 61  1  0  0  0  0
 59 69  1  0  0  0  0
 60 71  1  0  0  0  0
 62 63  1  0  0  0  0
M  CHG  1  71   1
M  ISO  4  38 100  58 101  70 100  79 101
M  END
> <Batch ID>
0120

> <Smiles>
CNC(C)C(=O)NC(C(=O)N1Cc2cc([101O:1][101CH2:1]C=Cc3coc(C[100NH:0][100C:0](=O)N4CCCC(n5nc(-c6ccc(Oc7ccc(F)cc7F)cc6)c(C(N)=O)c5N)C4)c3C)ccc2CC1C(=O)NC1CCCc2ccccc21)C(C)(C)C

> <Shape>
0.286

> <Color>
0.200

> <Negative vol penalty>
0.000

$$$$

  -OEChem-04052301543D

 86 94  0     1  0  0  0  0  0999 V2000
  -20.3575   -8.9701   23.6553 C   0  0  0  0  0  0  0  0  0  0  0  0
  -21.1472  -10.0338   24.0800 C   0  0  0  0  0  0  0  0  0  0  0  0
  -26.8312  -28.9493   20.9259 C   0  0  0  0  0  0  0  0  0  0  0  0
  -25.5702  -27.4461   19.5161 C   0  0  0  0  0  0  0  0  0  0  0  0
  -20.7371   -8.2230   22.5411 C   0  0  0  0  0  0  0  0  0  0  0  0
  -22.3176  -10.3504   23.3912 C   0  0  0  0  0  0  0  0  0  0  0  0
  -22.8210  -15.3270   22.6006 C   0  0  0  0  0  0  0  0  0  0  0  0
  -25.9872  -29.9986   20.5620 C   0  0  0  0  0  0  0  0  0  0  0  0
  -24.7261  -28.4954   19.1523 C   0  0  0  0  0  0  0  0  0  0  0  0
  -23.2528  -16.1020   23.6761 C   0  0  0  0  0  0  0  0  0  0  0  0
  -23.9456  -32.9936   20.2849 C   0  0  0  0  0  0  0  0  0  0  0  0
  -23.4852  -33.8362   21.2966 C   0  0  0  0  0  0  0  0  0  0  0  0
  -32.1918  -20.4752   21.3596 C   0  0  0  0  0  0  0  0  0  0  0  0
  -25.4875  -16.1066   22.7676 C   0  0  0  0  0  0  0  0  0  0  0  0
  -31.1919  -19.8686   23.4736 C   0  0  0  0  0  0  0  0  0  0  0  0
  -22.4382  -31.9527   22.3889 C   0  0  0  0  0  0  0  0  0  0  0  0
  -26.6227  -27.6731   20.4029 C   0  0  0  0  0  0  0  0  0  0  0  0
  -30.9358  -20.4363   20.7543 C   0  0  0  0  0  0  0  0  0  0  0  0
  -29.8077  -20.1137   21.5086 C   0  0  0  0  0  0  0  0  0  0  0  0
  -27.3347  -25.7057   21.8623 C   0  0  0  0  0  0  0  0  0  0  0  0
  -21.9077   -8.5365   21.8325 C   0  0  0  0  0  0  0  0  0  0  0  0
  -23.7230  -14.9260   21.6046 C   0  0  0  0  0  0  0  0  0  0  0  0
  -22.7139   -9.6059   22.2672 C   0  0  0  0  0  0  0  0  0  0  0  0
  -25.0641  -15.3286   21.6792 C   0  0  0  0  0  0  0  0  0  0  0  0
  -24.9346  -29.7716   19.6753 C   0  0  0  0  0  0  0  0  0  0  0  0
  -24.5869  -16.4895   23.7612 C   0  0  0  0  0  0  0  0  0  0  0  0
  -23.6523  -31.6305   20.3251 C   0  0  0  0  0  0  0  0  0  0  0  0
  -29.9358  -19.8298   22.8683 C   0  0  0  0  0  0  0  0  0  0  0  0
  -22.7316  -33.3158   22.3486 C   0  0  0  0  0  0  0  0  0  0  0  0
  -32.3199  -20.1912   22.7192 C   0  0  0  0  0  0  0  0  0  0  0  0
  -22.8986  -31.1100   21.3771 C   0  0  0  0  0  0  0  0  0  0  0  0
  -27.4946  -26.5890   20.7779 C   0  0  0  0  0  0  0  0  0  0  0  0
  -28.4196  -24.8670   21.7848 C   0  0  0  0  0  0  0  0  0  0  0  0
  -27.7184  -18.9923   20.8821 C   0  0  0  0  0  0  0  0  0  0  0  0
  -28.4884  -20.0679   20.8846 C   0  0  0  0  0  0  0  0  0  0  0  0
  -26.4887  -19.0727   25.2858 C   0  0  0  0  0  0  0  0  0  0  0  0
  -25.5527  -18.4714   24.5423 C   0  0  0  0  0  0  0  0  0  1  0  0
  -30.8482  -20.7399   19.3303 C   0  0  0  0  0  0  0  0  0  0  0  0
  -26.2982  -25.6485   22.8513 C   0  0  0  0  0  0  0  0  0  0  0  0
  -31.8026  -21.6692   18.6831 C   0  0  0  0  0  0  0  0  0  0  0  0
  -24.7870  -12.1277   20.5365 C   0  0  0  0  0  0  0  0  0  0  0  0
  -26.2413  -13.9748   18.3014 C   0  0  0  0  0  0  0  0  0  0  0  0
  -28.0407  -16.9143   17.2343 C   0  0  0  0  0  0  0  0  0  0  0  0
  -22.3019   -7.6706   20.6623 C   0  0  0  0  0  0  0  0  0  0  0  0
  -23.2357  -14.1125   20.4371 C   0  0  0  0  0  0  0  0  0  0  0  0
  -26.0681  -14.9415   20.6254 C   0  0  0  0  0  0  0  0  0  0  0  0
  -23.3606   -8.3053   19.7642 C   0  0  0  0  0  0  0  0  0  0  0  0
  -32.6192  -25.1467   18.9945 C   0  0  0  0  0  0  0  0  0  0  0  0
  -24.4927   -8.8887   20.6037 C   0  0  0  0  0  0  0  0  0  0  0  0
  -31.3315  -25.7644   19.5386 C   0  0  0  0  0  0  0  0  0  0  0  0
  -32.3256  -23.9902   18.0443 C   0  0  0  0  0  0  0  0  0  0  0  0
  -30.1727  -23.5373   19.1884 C   0  0  0  0  0  0  0  0  0  0  0  0
  -23.9776   -9.9957   21.5315 C   0  0  1  0  0  0  0  0  0  0  0  0
  -24.3492  -13.3296   19.7482 C   0  0  1  0  0  0  0  0  0  0  0  0
  -30.4296  -24.6910   20.1735 C   0  0  2  0  0  0  0  0  0  0  0  0
  -29.0076  -18.2198   15.3217 C   0  0  0  0  0  0  0  0  0  0  0  0
  -28.8636  -12.6140   19.0639 C   0  0  0  0  0  0  0  0  0  0  0  0
  -30.0818  -14.4580   17.8875 C   0  0  0  0  0  0  0  0  0  0  0  0
  -28.5462  -12.9653   16.6083 C   0  0  0  0  0  0  0  0  0  0  0  0
  -25.6910  -18.7101   17.1205 C   0  0  0  0  0  0  0  0  0  0  0  0
  -27.0604  -20.4250   24.9676 C   0  0  0  0  0  0  0  0  0  0  0  0
  -28.5658  -20.3624   24.7378 C   0  0  0  0  0  0  0  0  0  0  0  0
  -27.5742  -14.6757   18.1963 C   0  0  1  0  0  0  0  0  0  0  0  0
  -27.7334  -17.7788   16.0249 C   0  0  2  0  0  0  0  0  0  0  0  0
  -28.7482  -13.6841   17.9600 C   0  0  0  0  0  0  0  0  0  0  0  0
  -28.5945  -26.3351   20.0639 N   0  0  0  0  0  0  0  0  0  0  0  0
  -29.9443  -20.2234   18.5461 N   0  0  0  0  0  0  0  0  0  0  0  0
  -29.1356  -25.2829   20.7011 N   0  0  0  0  0  0  0  0  0  0  0  0
  -31.4386  -23.0083   18.6650 N   0  0  0  0  0  0  0  0  0  0  0  0
  -25.5444  -14.1404   19.5067 N   0  0  0  0  0  0  0  0  0  0  0  0
  -28.8214  -23.8217   22.5388 N   0  0  0  0  0  0  0  0  0  0  0  0
  -25.2580  -26.5854   22.7840 N   0  0  0  0  0  0  0  0  0  0  0  0
  -23.7746  -11.2223   20.7908 N   0  0  0  0  0  0  0  0  0  0  0  0
  -27.4241  -15.6837   17.1523 N   0  0  0  0  0  0  0  0  0  0  0  0
  -26.9785  -18.9960   16.4367 N   0  3  0  0  0  0  0  0  0  0  0  0
  -26.3032  -24.8022   23.7772 O   0  0  0  0  0  0  0  0  0  0  0  0
  -32.8161  -21.1534   18.2303 O   0  0  0  0  0  0  0  0  0  0  0  0
  -25.9571  -12.0284   20.8869 O   0  0  0  0  0  0  0  0  0  0  0  0
  -25.8302  -13.3109   17.3465 O   0  0  0  0  0  0  0  0  0  0  0  0
  -28.7591  -17.2914   18.1574 O   0  0  0  0  0  0  0  0  0  0  0  0
  -24.1107  -30.7951   19.3203 O   0  0  0  0  0  0  0  0  0  0  0  0
  -25.0112  -17.2455   24.8102 O   0  0  0  0  0  0  0  0  0  1  0  0
  -28.8463  -19.5096   23.6354 O   0  0  0  0  0  0  0  0  0  0  0  0
  -22.2909  -34.1248   23.3209 F   0  0  0  0  0  0  0  0  0  0  0  0
  -33.5259  -20.2293   23.3009 F   0  0  0  0  0  0  0  0  0  0  0  0
  -22.6146  -29.8012   21.4218 F   0  0  0  0  0  0  0  0  0  0  0  0
  1  2  1  0  0  0  0
  1  5  2  0  0  0  0
  2  6  2  0  0  0  0
  3  8  2  0  0  0  0
  3 17  1  0  0  0  0
  4  9  1  0  0  0  0
  4 17  2  0  0  0  0
  5 21  1  0  0  0  0
  6 23  1  0  0  0  0
  7 10  2  0  0  0  0
  7 22  1  0  0  0  0
  8 25  1  0  0  0  0
  9 25  2  0  0  0  0
 10 26  1  0  0  0  0
 11 12  2  0  0  0  0
 11 27  1  0  0  0  0
 12 29  1  0  0  0  0
 13 18  1  0  0  0  0
 13 30  2  0  0  0  0
 14 24  1  0  0  0  0
 14 26  2  0  0  0  0
 15 28  2  0  0  0  0
 15 30  1  0  0  0  0
 16 29  2  0  0  0  0
 16 31  1  0  0  0  0
 17 32  1  0  0  0  0
 18 19  2  0  0  0  0
 18 38  1  0  0  0  0
 19 28  1  0  0  0  0
 19 35  1  0  0  0  0
 20 32  1  0  0  0  0
 20 33  2  0  0  0  0
 20 39  1  0  0  0  0
 21 23  2  0  0  0  0
 21 44  1  0  0  0  0
 22 24  2  0  0  0  0
 22 45  1  0  0  0  0
 23 53  1  0  0  0  0
 24 46  1  0  0  0  0
 25 81  1  0  0  0  0
 26 82  1  0  0  0  0
 27 31  2  0  0  0  0
 27 81  1  0  0  0  0
 28 83  1  0  0  0  0
 29 84  1  0  0  0  0
 30 85  1  0  0  0  0
 31 86  1  0  0  0  0
 32 66  2  0  0  0  0
 33 68  1  0  0  0  0
 33 71  1  0  0  0  0
 34 35  2  0  0  0  0
 36 37  2  0  0  0  0
 36 61  1  0  0  0  0
 37 82  1  0  0  0  0
 38 40  1  0  0  0  0
 38 67  2  0  0  0  0
 39 72  1  0  0  0  0
 39 76  2  0  0  0  0
 40 69  1  0  0  0  0
 40 77  2  0  0  0  0
 41 54  1  0  0  0  0
 41 73  1  0  0  0  0
 41 78  2  0  0  0  0
 42 63  1  0  0  0  0
 42 70  1  0  0  0  0
 42 79  2  0  0  0  0
 43 64  1  0  0  0  0
 43 74  1  0  0  0  0
 43 80  2  0  0  0  0
 44 47  1  0  0  0  0
 45 54  1  0  0  0  0
 46 70  1  0  0  0  0
 47 49  1  0  0  0  0
 48 50  1  0  0  0  0
 48 51  1  0  0  0  0
 49 53  1  0  0  0  0
 50 55  1  0  0  0  0
 51 69  1  0  0  0  0
 52 55  1  0  0  0  0
 52 69  1  0  0  0  0
 53 73  1  0  0  0  0
 54 70  1  0  0  0  0
 55 68  1  0  0  0  0
 56 64  1  0  0  0  0
 57 65  1  0  0  0  0
 58 65  1  0  0  0  0
 59 65  1  0  0  0  0
 60 75  1  0  0  0  0
 61 62  1  0  0  0  0
 62 83  1  0  0  0  0
 63 65  1  0  0  0  0
 63 74  1  0  0  0  0
 64 75  1  0  0  0  0
 66 68  1  0  0  0  0
M  CHG  1  75   1
M  ISO  4  37 101  38 100  40 100  82 101
M  END
> <Batch ID>
0120

> <Smiles>
C=Cc1c(OCCC=[101CH:1][101O:1]c2ccc3c(c2)CN(C(=O)C(NC(=O)C(C)NC)C(C)(C)C)C(C(=O)NC2CCCc4ccccc42)C3)cc(F)cc1[100C:0](=N)[100C:0](=O)N1CCCC(n2nc(-c3ccc(Oc4ccc(F)cc4F)cc3)c(C(N)=O)c2N)C1

> <Shape>
0.206

> <Color>
0.062

> <Negative vol penalty>
0.000

$$$$

  -OEChem-04052301543D

 82 90  0     1  0  0  0  0  0999 V2000
  -25.1344  -18.8946   18.9926 C   0  0  0  0  0  0  0  0  0  0  0  0
  -26.0692  -18.7335   20.0102 C   0  0  0  0  0  0  0  0  0  0  0  0
  -23.2812   -9.7987   19.9102 C   0  0  0  0  0  0  0  0  0  0  0  0
  -23.7177   -9.9401   22.2823 C   0  0  0  0  0  0  0  0  0  0  0  0
  -24.8509  -20.1690   18.5033 C   0  0  0  0  0  0  0  0  0  0  0  0
  -26.7220  -19.8468   20.5384 C   0  0  0  0  0  0  0  0  0  0  0  0
  -26.9285  -19.7587   25.5975 C   0  0  0  0  0  0  0  0  0  0  0  0
  -22.5474   -8.6303   20.1149 C   0  0  0  0  0  0  0  0  0  0  0  0
  -22.9838   -8.7717   22.4869 C   0  0  0  0  0  0  0  0  0  0  0  0
  -27.8853  -18.9297   26.1814 C   0  0  0  0  0  0  0  0  0  0  0  0
  -20.8604   -5.4121   19.9702 C   0  0  0  0  0  0  0  0  0  0  0  0
  -21.0852   -4.3430   19.1030 C   0  0  0  0  0  0  0  0  0  0  0  0
  -29.3204  -20.8380   26.5248 C   0  0  0  0  0  0  0  0  0  0  0  0
  -23.4036   -4.2814   19.7797 C   0  0  0  0  0  0  0  0  0  0  0  0
  -23.8664  -10.4536   20.9939 C   0  0  0  0  0  0  0  0  0  0  0  0
  -24.1404  -12.9819   20.7937 C   0  0  0  0  0  0  0  0  0  0  0  0
  -25.4935  -21.2994   19.0324 C   0  0  0  0  0  0  0  0  0  0  0  0
  -27.1654  -21.1343   25.4628 C   0  0  0  0  0  0  0  0  0  0  0  0
  -26.4478  -21.1374   20.0548 C   0  0  0  0  0  0  0  0  0  0  0  0
  -28.3639  -21.6828   25.9412 C   0  0  0  0  0  0  0  0  0  0  0  0
  -22.3986   -8.1168   21.4032 C   0  0  0  0  0  0  0  0  0  0  0  0
  -29.0827  -19.4688   26.6425 C   0  0  0  0  0  0  0  0  0  0  0  0
  -21.9073   -5.9159   20.7422 C   0  0  0  0  0  0  0  0  0  0  0  0
  -22.3567   -3.7776   19.0077 C   0  0  0  0  0  0  0  0  0  0  0  0
  -23.1789   -5.3505   20.6470 C   0  0  0  0  0  0  0  0  0  0  0  0
  -24.6251  -11.6603   20.7831 C   0  0  0  0  0  0  0  0  0  0  0  0
  -25.2476  -13.7557   20.5447 C   0  0  0  0  0  0  0  0  0  0  0  0
  -31.6854  -13.3452   24.9372 C   0  0  0  0  0  0  0  0  0  0  0  0
  -30.6004  -15.2096   23.9166 C   0  0  0  0  0  0  0  0  0  0  0  0
  -31.2976  -14.7434   24.9657 C   0  0  0  0  0  0  0  0  0  0  0  0
  -31.5265  -12.5627   23.8532 C   0  0  0  0  0  0  0  0  0  0  0  0
  -33.1174  -10.8896   24.5395 C   0  0  0  0  0  0  0  0  0  0  0  0
  -31.6002  -15.6208   26.0742 C   0  0  0  0  0  0  0  0  0  0  0  0
  -31.9678  -11.1842   23.9153 C   0  0  0  0  0  0  0  0  0  0  0  0
  -31.9560  -16.8974   25.9166 C   0  0  0  0  0  0  0  0  0  0  0  0
  -22.8085  -13.4668   21.0095 C   0  0  0  0  0  0  0  0  0  0  0  0
  -27.4126  -23.1380   23.0077 C   0  0  0  0  0  0  0  0  0  0  0  0
  -27.5615  -25.3756   25.3515 C   0  0  0  0  0  0  0  0  0  0  0  0
  -28.2806  -26.1218   28.6031 C   0  0  0  0  0  0  0  0  0  0  0  0
  -31.1242  -12.4327   21.4273 C   0  0  0  0  0  0  0  0  0  0  0  0
  -25.1888  -22.6519   18.4386 C   0  0  0  0  0  0  0  0  0  0  0  0
  -26.1119  -22.0192   24.8549 C   0  0  0  0  0  0  0  0  0  0  0  0
  -28.6583  -23.1563   25.8386 C   0  0  0  0  0  0  0  0  0  0  0  0
  -30.2102  -14.3581   22.7473 C   0  0  0  0  0  0  0  0  0  0  0  0
  -25.6494  -23.8175   19.3102 C   0  0  0  0  0  0  0  0  0  0  0  0
  -29.4963  -13.6385   18.3445 C   0  0  0  0  0  0  0  0  0  0  0  0
  -27.0740  -23.5849   19.8033 C   0  0  0  0  0  0  0  0  0  0  0  0
  -28.0220  -13.3274   18.6086 C   0  0  0  0  0  0  0  0  0  0  0  0
  -30.4243  -12.6627   19.0638 C   0  0  0  0  0  0  0  0  0  0  0  0
  -28.6979  -12.2209   20.7714 C   0  0  0  0  0  0  0  0  0  0  0  0
  -27.1586  -22.3230   20.6706 C   0  0  1  0  0  0  0  0  0  0  0  0
  -26.6745  -23.3254   24.3029 C   0  0  1  0  0  0  0  0  0  0  0  0
  -27.7377  -13.2247   20.1188 C   0  0  2  0  0  0  0  0  0  0  0  0
  -28.3417  -28.0432   30.2161 C   0  0  0  0  0  0  0  0  0  0  0  0
  -30.1446  -26.3689   24.0665 C   0  0  0  0  0  0  0  0  0  0  0  0
  -30.6422  -27.6041   26.1867 C   0  0  0  0  0  0  0  0  0  0  0  0
  -28.6103  -28.1783   24.8583 C   0  0  0  0  0  0  0  0  0  0  0  0
  -26.2705  -24.8553   30.3678 C   0  0  0  0  0  0  0  0  0  0  0  0
  -32.2763  -17.8122   27.0660 C   0  0  0  0  0  0  0  0  0  0  0  0
  -31.3841  -19.0479   27.0697 C   0  0  0  0  0  0  0  0  0  1  0  0
  -28.6709  -26.0091   26.1558 C   0  0  1  0  0  0  0  0  0  0  0  0
  -27.5091  -26.9027   29.6517 C   0  0  2  0  0  0  0  0  0  0  0  0
  -29.5126  -27.0120   25.3171 C   0  0  0  0  0  0  0  0  0  0  0  0
  -25.9379  -11.5944   20.5459 N   0  0  0  0  0  0  0  0  0  0  0  0
  -26.2875  -12.8844   20.4052 N   0  0  0  0  0  0  0  0  0  0  0  0
  -30.9098  -13.0509   22.6889 N   0  0  0  0  0  0  0  0  0  0  0  0
  -27.5996  -23.9792   25.2308 N   0  0  0  0  0  0  0  0  0  0  0  0
  -30.0923  -12.5751   20.4846 N   0  0  0  0  0  0  0  0  0  0  0  0
  -25.4232  -15.0895   20.4336 N   0  0  0  0  0  0  0  0  0  0  0  0
  -21.7895  -12.5356   21.2517 N   0  0  0  0  0  0  0  0  0  0  0  0
  -26.6466  -22.5870   21.9982 N   0  0  0  0  0  0  0  0  0  0  0  0
  -28.0382  -26.5970   27.3316 N   0  0  0  0  0  0  0  0  0  0  0  0
  -27.1133  -26.0084   30.7763 N   0  3  0  0  0  0  0  0  0  0  0  0
  -22.5273  -14.6887   20.9718 O   0  0  0  0  0  0  0  0  0  0  0  0
  -28.5896  -23.4702   22.9294 O   0  0  0  0  0  0  0  0  0  0  0  0
  -26.6892  -26.0925   24.8548 O   0  0  0  0  0  0  0  0  0  0  0  0
  -29.0267  -25.1865   28.8842 O   0  0  0  0  0  0  0  0  0  0  0  0
  -32.1791  -11.8523   21.1427 O   0  0  0  0  0  0  0  0  0  0  0  0
  -21.6824   -6.9768   21.6033 O   0  0  0  0  0  0  0  0  0  0  0  0
  -30.0253  -18.6561   27.2163 O   0  0  0  0  0  0  0  0  0  1  0  0
  -22.5720   -2.7500   18.1760 F   0  0  0  0  0  0  0  0  0  0  0  0
  -24.1883   -5.8295   21.3869 F   0  0  0  0  0  0  0  0  0  0  0  0
  1  2  1  0  0  0  0
  1  5  2  0  0  0  0
  2  6  2  0  0  0  0
  3  8  2  0  0  0  0
  3 15  1  0  0  0  0
  4  9  1  0  0  0  0
  4 15  2  0  0  0  0
  5 17  1  0  0  0  0
  6 19  1  0  0  0  0
  7 10  2  0  0  0  0
  7 18  1  0  0  0  0
  8 21  1  0  0  0  0
  9 21  2  0  0  0  0
 10 22  1  0  0  0  0
 11 12  2  0  0  0  0
 11 23  1  0  0  0  0
 12 24  1  0  0  0  0
 13 20  1  0  0  0  0
 13 22  2  0  0  0  0
 14 24  2  0  0  0  0
 14 25  1  0  0  0  0
 15 26  1  0  0  0  0
 16 26  1  0  0  0  0
 16 27  2  0  0  0  0
 16 36  1  0  0  0  0
 17 19  2  0  0  0  0
 17 41  1  0  0  0  0
 18 20  2  0  0  0  0
 18 42  1  0  0  0  0
 19 51  1  0  0  0  0
 20 43  1  0  0  0  0
 21 79  1  0  0  0  0
 22 80  1  0  0  0  0
 23 25  2  0  0  0  0
 23 79  1  0  0  0  0
 24 81  1  0  0  0  0
 25 82  1  0  0  0  0
 26 64  2  0  0  0  0
 27 65  1  0  0  0  0
 27 69  1  0  0  0  0
 28 30  1  0  0  0  0
 28 31  2  0  0  0  0
 29 30  2  0  0  0  0
 29 44  1  0  0  0  0
 30 33  1  0  0  0  0
 31 34  1  0  0  0  0
 31 66  1  0  0  0  0
 32 34  2  0  0  0  0
 33 35  2  0  0  0  0
 35 59  1  0  0  0  0
 36 70  1  0  0  0  0
 36 74  2  0  0  0  0
 37 52  1  0  0  0  0
 37 71  1  0  0  0  0
 37 75  2  0  0  0  0
 38 61  1  0  0  0  0
 38 67  1  0  0  0  0
 38 76  2  0  0  0  0
 39 62  1  0  0  0  0
 39 72  1  0  0  0  0
 39 77  2  0  0  0  0
 40 66  1  0  0  0  0
 40 68  1  0  0  0  0
 40 78  2  0  0  0  0
 41 45  1  0  0  0  0
 42 52  1  0  0  0  0
 43 67  1  0  0  0  0
 44 66  1  0  0  0  0
 45 47  1  0  0  0  0
 46 48  1  0  0  0  0
 46 49  1  0  0  0  0
 47 51  1  0  0  0  0
 48 53  1  0  0  0  0
 49 68  1  0  0  0  0
 50 53  1  0  0  0  0
 50 68  1  0  0  0  0
 51 71  1  0  0  0  0
 52 67  1  0  0  0  0
 53 65  1  0  0  0  0
 54 62  1  0  0  0  0
 55 63  1  0  0  0  0
 56 63  1  0  0  0  0
 57 63  1  0  0  0  0
 58 73  1  0  0  0  0
 59 60  1  0  0  0  0
 60 80  1  0  0  0  0
 61 63  1  0  0  0  0
 61 72  1  0  0  0  0
 62 73  1  0  0  0  0
 64 65  1  0  0  0  0
M  CHG  1  73   1
M  ISO  4  40 100  60 101  66 100  80 101
M  END
> <Batch ID>
0120

> <Smiles>
C=CC1=CC(C=CC[101CH2:1][101O:1]c2ccc3c(c2)CN(C(=O)C(NC(=O)C(C)NC)C(C)(C)C)C(C(=O)NC2CCCc4ccccc42)C3)=CC[100N:0]1[100C:0](=O)N1CCCC(n2nc(-c3ccc(Oc4ccc(F)cc4F)cc3)c(C(N)=O)c2N)C1

> <Shape>
0.136

> <Color>
0.181

> <Negative vol penalty>
0.000

$$$$

  -OEChem-04052301543D

 84 92  0     1  0  0  0  0  0999 V2000
  -28.0847  -37.8297   21.7797 C   0  0  0  0  0  0  0  0  0  0  0  0
  -28.5528  -36.5863   21.3671 C   0  0  0  0  0  0  0  0  0  0  0  0
  -24.1480   -9.3790   22.5212 C   0  0  0  0  0  0  0  0  0  0  0  0
  -25.0632   -8.2402   20.5969 C   0  0  0  0  0  0  0  0  0  0  0  0
  -27.1094  -37.9118   22.7726 C   0  0  0  0  0  0  0  0  0  0  0  0
  -28.0465  -35.4242   21.9481 C   0  0  0  0  0  0  0  0  0  0  0  0
  -27.1373  -30.0282   19.1981 C   0  0  0  0  0  0  0  0  0  0  0  0
  -22.9761   -8.6314   22.4062 C   0  0  0  0  0  0  0  0  0  0  0  0
  -23.8913   -7.4926   20.4820 C   0  0  0  0  0  0  0  0  0  0  0  0
  -27.8914  -28.8561   19.1597 C   0  0  0  0  0  0  0  0  0  0  0  0
  -21.9229   -5.5147   23.1872 C   0  0  0  0  0  0  0  0  0  0  0  0
  -21.3875   -4.9654   24.3522 C   0  0  0  0  0  0  0  0  0  0  0  0
  -26.5694  -27.9536   20.9644 C   0  0  0  0  0  0  0  0  0  0  0  0
  -19.3495   -6.2156   24.0050 C   0  0  0  0  0  0  0  0  0  0  0  0
  -29.1493  -21.5215   19.2478 C   0  0  0  0  0  0  0  0  0  0  0  0
  -25.1916   -9.1834   21.6165 C   0  0  0  0  0  0  0  0  0  0  0  0
  -29.2451  -22.0551   20.5119 C   0  0  0  0  0  0  0  0  0  0  0  0
  -27.5522   -9.6259   22.4763 C   0  0  0  0  0  0  0  0  0  0  0  0
  -26.5839  -36.7498   23.3592 C   0  0  0  0  0  0  0  0  0  0  0  0
  -26.0989  -30.1762   20.1289 C   0  0  0  0  0  0  0  0  0  0  0  0
  -27.0642  -35.4908   22.9508 C   0  0  0  0  0  0  0  0  0  0  0  0
  -25.8020  -29.1274   21.0109 C   0  0  0  0  0  0  0  0  0  0  0  0
  -28.8368  -21.0331   21.4019 C   0  0  0  0  0  0  0  0  0  0  0  0
  -22.8477   -7.6882   21.3867 C   0  0  0  0  0  0  0  0  0  0  0  0
  -27.6094  -27.8197   20.0449 C   0  0  0  0  0  0  0  0  0  0  0  0
  -21.1717   -6.4145   22.4311 C   0  0  0  0  0  0  0  0  0  0  0  0
  -20.1008   -5.3158   24.7611 C   0  0  0  0  0  0  0  0  0  0  0  0
  -19.8849   -6.7649   22.8400 C   0  0  0  0  0  0  0  0  0  0  0  0
  -26.4022   -9.9558   21.7344 C   0  0  0  0  0  0  0  0  0  0  0  0
  -28.5204  -19.9479   20.6182 C   0  0  0  0  0  0  0  0  0  0  0  0
  -28.4116  -10.6758   22.2627 C   0  0  0  0  0  0  0  0  0  0  0  0
  -29.6904  -23.4239   20.8214 C   0  0  0  0  0  0  0  0  0  0  0  0
  -28.0594  -18.6784   21.0407 C   0  0  0  0  0  0  0  0  0  0  0  0
  -27.7692  -17.6006   20.2407 C   0  0  0  0  0  0  0  0  0  0  0  0
  -30.0831  -24.3326   19.9149 C   0  0  0  0  0  0  0  0  0  0  0  0
  -27.8198   -8.4734   23.2862 C   0  0  0  0  0  0  0  0  0  0  0  0
  -27.3042  -16.3320   20.8367 C   0  0  0  0  0  0  0  0  0  0  0  0
  -25.5161  -32.1607   22.5426 C   0  0  0  0  0  0  0  0  0  0  0  0
  -22.6640  -30.6170   22.6118 C   0  0  0  0  0  0  0  0  0  0  0  0
  -20.8710  -27.8086   21.8736 C   0  0  0  0  0  0  0  0  0  0  0  0
  -25.5650  -36.8904   24.4622 C   0  0  0  0  0  0  0  0  0  0  0  0
  -25.2775  -31.4362   20.1396 C   0  0  0  0  0  0  0  0  0  0  0  0
  -24.6845  -29.2286   22.0156 C   0  0  0  0  0  0  0  0  0  0  0  0
  -24.8101  -35.5980   24.7625 C   0  0  0  0  0  0  0  0  0  0  0  0
  -29.5230  -14.0244   19.0523 C   0  0  0  0  0  0  0  0  0  0  0  0
  -25.7796  -34.4247   24.8636 C   0  0  0  0  0  0  0  0  0  0  0  0
  -29.0348  -12.6789   19.5823 C   0  0  0  0  0  0  0  0  0  0  0  0
  -28.3842  -15.0347   18.9218 C   0  0  0  0  0  0  0  0  0  0  0  0
  -27.1197  -13.8778   20.7114 C   0  0  0  0  0  0  0  0  0  0  0  0
  -26.5217  -34.2066   23.5395 C   0  0  1  0  0  0  0  0  0  0  0  0
  -24.5767  -31.6813   21.4724 C   0  0  1  0  0  0  0  0  0  0  0  0
  -28.2568  -12.8608   20.8952 C   0  0  1  0  0  0  0  0  0  0  0  0
  -18.5710  -26.8275   22.0854 C   0  0  0  0  0  0  0  0  0  0  0  0
  -23.1690  -30.0787   25.5724 C   0  0  0  0  0  0  0  0  0  0  0  0
  -21.3725  -28.3368   25.4906 C   0  0  0  0  0  0  0  0  0  0  0  0
  -20.8173  -30.7219   25.0153 C   0  0  0  0  0  0  0  0  0  0  0  0
  -20.5725  -27.5788   18.9381 C   0  0  0  0  0  0  0  0  0  0  0  0
  -27.3028  -21.3222   24.7036 C   0  0  0  0  0  0  0  0  0  0  0  0
  -28.7660  -21.1185   22.8759 C   0  0  0  0  0  0  0  0  0  0  0  0
  -30.5432  -25.7184   20.2765 C   0  0  0  0  0  0  0  0  0  0  0  0
  -29.7030  -26.7880   19.5887 C   0  0  0  0  0  0  0  0  0  1  0  0
  -22.1285  -29.3913   23.3117 C   0  0  1  0  0  0  0  0  0  0  0  0
  -19.5216  -27.6222   21.2036 C   0  0  2  0  0  0  0  0  0  0  0  0
  -21.8942  -29.6307   24.8300 C   0  0  0  0  0  0  0  0  0  0  0  0
  -26.5173  -11.1240   21.0972 N   0  0  0  0  0  0  0  0  0  0  0  0
  -27.7498  -11.5374   21.4382 N   0  0  0  0  0  0  0  0  0  0  0  0
  -27.6189  -15.1478   20.1725 N   0  0  0  0  0  0  0  0  0  0  0  0
  -23.9141  -30.4830   21.9913 N   0  0  0  0  0  0  0  0  0  0  0  0
  -29.6612  -10.9369   22.7016 N   0  0  0  0  0  0  0  0  0  0  0  0
  -26.8274   -7.4898   23.3972 N   0  0  0  0  0  0  0  0  0  0  0  0
  -25.6664  -33.5336   22.5856 N   0  0  0  0  0  0  0  0  0  0  0  0
  -20.9322  -28.9923   22.5781 N   0  0  0  0  0  0  0  0  0  0  0  0
  -19.6807  -26.8972   19.9113 N   0  3  0  0  0  0  0  0  0  0  0  0
  -28.9003   -8.3281   23.9066 O   0  0  0  0  0  0  0  0  0  0  0  0
  -26.6603  -16.3988   21.8853 O   0  0  0  0  0  0  0  0  0  0  0  0
  -26.0630  -31.3454   23.2760 O   0  0  0  0  0  0  0  0  0  0  0  0
  -21.9945  -31.6530   22.6095 O   0  0  0  0  0  0  0  0  0  0  0  0
  -21.7786  -26.9847   21.7841 O   0  0  0  0  0  0  0  0  0  0  0  0
  -28.7081  -20.2374   19.3038 O   0  0  0  0  0  0  0  0  0  0  0  0
  -21.7043   -6.9583   21.2743 O   0  0  0  0  0  0  0  0  0  0  0  0
  -28.3443  -26.6749   20.0099 O   0  0  0  0  0  0  0  0  0  1  0  0
  -27.4061  -21.2378   23.2907 O   0  0  0  0  0  0  0  0  0  0  0  0
  -19.5862   -4.7871   25.8790 F   0  0  0  0  0  0  0  0  0  0  0  0
  -19.1580   -7.6278   22.1171 F   0  0  0  0  0  0  0  0  0  0  0  0
  1  2  1  0  0  0  0
  1  5  2  0  0  0  0
  2  6  2  0  0  0  0
  3  8  2  0  0  0  0
  3 16  1  0  0  0  0
  4  9  1  0  0  0  0
  4 16  2  0  0  0  0
  5 19  1  0  0  0  0
  6 21  1  0  0  0  0
  7 10  2  0  0  0  0
  7 20  1  0  0  0  0
  8 24  1  0  0  0  0
  9 24  2  0  0  0  0
 10 25  1  0  0  0  0
 11 12  2  0  0  0  0
 11 26  1  0  0  0  0
 12 27  1  0  0  0  0
 13 22  1  0  0  0  0
 13 25  2  0  0  0  0
 14 27  2  0  0  0  0
 14 28  1  0  0  0  0
 15 17  2  0  0  0  0
 15 79  1  0  0  0  0
 16 29  1  0  0  0  0
 17 23  1  0  0  0  0
 17 32  1  0  0  0  0
 18 29  1  0  0  0  0
 18 31  2  0  0  0  0
 18 36  1  0  0  0  0
 19 21  2  0  0  0  0
 19 41  1  0  0  0  0
 20 22  2  0  0  0  0
 20 42  1  0  0  0  0
 21 50  1  0  0  0  0
 22 43  1  0  0  0  0
 23 30  2  0  0  0  0
 23 59  1  0  0  0  0
 24 80  1  0  0  0  0
 25 81  1  0  0  0  0
 26 28  2  0  0  0  0
 26 80  1  0  0  0  0
 27 83  1  0  0  0  0
 28 84  1  0  0  0  0
 29 65  2  0  0  0  0
 30 33  1  0  0  0  0
 30 79  1  0  0  0  0
 31 66  1  0  0  0  0
 31 69  1  0  0  0  0
 32 35  2  0  0  0  0
 33 34  2  0  0  0  0
 34 37  1  0  0  0  0
 35 60  1  0  0  0  0
 36 70  1  0  0  0  0
 36 74  2  0  0  0  0
 37 67  1  0  0  0  0
 37 75  2  0  0  0  0
 38 51  1  0  0  0  0
 38 71  1  0  0  0  0
 38 76  2  0  0  0  0
 39 62  1  0  0  0  0
 39 68  1  0  0  0  0
 39 77  2  0  0  0  0
 40 63  1  0  0  0  0
 40 72  1  0  0  0  0
 40 78  2  0  0  0  0
 41 44  1  0  0  0  0
 42 51  1  0  0  0  0
 43 68  1  0  0  0  0
 44 46  1  0  0  0  0
 45 47  1  0  0  0  0
 45 48  1  0  0  0  0
 46 50  1  0  0  0  0
 47 52  1  0  0  0  0
 48 67  1  0  0  0  0
 49 52  1  0  0  0  0
 49 67  1  0  0  0  0
 50 71  1  0  0  0  0
 51 68  1  0  0  0  0
 52 66  1  0  0  0  0
 53 63  1  0  0  0  0
 54 64  1  0  0  0  0
 55 64  1  0  0  0  0
 56 64  1  0  0  0  0
 57 73  1  0  0  0  0
 58 82  1  0  0  0  0
 59 82  1  0  0  0  0
 60 61  1  0  0  0  0
 61 81  1  0  0  0  0
 62 64  1  0  0  0  0
 62 72  1  0  0  0  0
 63 73  1  0  0  0  0
 65 66  1  0  0  0  0
M  CHG  1  73   1
M  ISO  4  34 100  37 100  61 101  81 101
M  END
> <Batch ID>
0120

> <Smiles>
CNC(C)C(=O)NC(C(=O)N1Cc2cc([101O:1][101CH2:1]CC=Cc3coc(C=[100CH:0][100C:0](=O)N4CCCC(n5nc(-c6ccc(Oc7ccc(F)cc7F)cc6)c(C(N)=O)c5N)C4)c3COC)ccc2CC1C(=O)NC1CCCc2ccccc21)C(C)(C)C

> <Shape>
0.329

> <Color>
0.106

> <Negative vol penalty>
0.000

$$$$

  -OEChem-04052301543D

 86 94  0     1  0  0  0  0  0999 V2000
  -17.3830  -27.6514   25.5580 C   0  0  0  0  0  0  0  0  0  0  0  0
  -18.1698  -26.5343   25.2964 C   0  0  0  0  0  0  0  0  0  0  0  0
  -22.7336  -10.3134   21.1562 C   0  0  0  0  0  0  0  0  0  0  0  0
  -24.5892   -8.8402   21.6289 C   0  0  0  0  0  0  0  0  0  0  0  0
  -17.4443  -28.7591   24.7135 C   0  0  0  0  0  0  0  0  0  0  0  0
  -19.0176  -26.5239   24.1893 C   0  0  0  0  0  0  0  0  0  0  0  0
  -24.5108  -23.8469   23.7844 C   0  0  0  0  0  0  0  0  0  0  0  0
  -21.8640   -9.2230   21.1712 C   0  0  0  0  0  0  0  0  0  0  0  0
  -23.7195   -7.7497   21.6439 C   0  0  0  0  0  0  0  0  0  0  0  0
  -24.9232  -22.6286   23.2463 C   0  0  0  0  0  0  0  0  0  0  0  0
  -21.4972   -6.3675   23.7820 C   0  0  0  0  0  0  0  0  0  0  0  0
  -21.6368   -5.4435   24.8174 C   0  0  0  0  0  0  0  0  0  0  0  0
  -30.6597  -16.4331   20.4692 C   0  0  0  0  0  0  0  0  0  0  0  0
  -25.5173  -23.7441   21.1916 C   0  0  0  0  0  0  0  0  0  0  0  0
  -30.3159  -17.2356   22.7219 C   0  0  0  0  0  0  0  0  0  0  0  0
  -22.0755   -3.7005   23.2029 C   0  0  0  0  0  0  0  0  0  0  0  0
  -24.0962  -10.1221   21.3850 C   0  0  0  0  0  0  0  0  0  0  0  0
  -30.8572  -15.1422   20.9592 C   0  0  0  0  0  0  0  0  0  0  0  0
  -25.3614  -12.0590   22.4599 C   0  0  0  0  0  0  0  0  0  0  0  0
  -18.3004  -28.7660   23.6011 C   0  0  0  0  0  0  0  0  0  0  0  0
  -24.5886  -25.0231   23.0250 C   0  0  0  0  0  0  0  0  0  0  0  0
  -19.0895  -27.6322   23.3284 C   0  0  0  0  0  0  0  0  0  0  0  0
  -25.1077  -24.9764   21.7233 C   0  0  0  0  0  0  0  0  0  0  0  0
  -30.5134  -15.9447   23.2120 C   0  0  0  0  0  0  0  0  0  0  0  0
  -30.7840  -14.8980   22.3306 C   0  0  0  0  0  0  0  0  0  0  0  0
  -22.3569   -7.9411   21.4151 C   0  0  0  0  0  0  0  0  0  0  0  0
  -25.4238  -22.5766   21.9487 C   0  0  0  0  0  0  0  0  0  0  0  0
  -21.6467   -5.9581   22.4569 C   0  0  0  0  0  0  0  0  0  0  0  0
  -30.3891  -17.4798   21.3505 C   0  0  0  0  0  0  0  0  0  0  0  0
  -21.9260   -4.1100   24.5279 C   0  0  0  0  0  0  0  0  0  0  0  0
  -21.9359   -4.6246   22.1674 C   0  0  0  0  0  0  0  0  0  0  0  0
  -24.9952  -11.2480   21.3690 C   0  0  0  0  0  0  0  0  0  0  0  0
  -26.2296  -12.9801   21.9268 C   0  0  0  0  0  0  0  0  0  0  0  0
  -31.1397  -14.0697   20.0140 C   0  0  0  0  0  0  0  0  0  0  0  0
  -24.9533  -11.9861   23.8324 C   0  0  0  0  0  0  0  0  0  0  0  0
  -30.6085  -14.1029   18.6320 C   0  0  0  0  0  0  0  0  0  0  0  0
  -22.4761  -27.1346   21.9372 C   0  0  0  0  0  0  0  0  0  0  0  0
  -25.1394  -28.7321   21.0006 C   0  0  0  0  0  0  0  0  0  0  0  0
  -28.4424  -28.6102   20.1507 C   0  0  0  0  0  0  0  0  0  0  0  0
  -18.2974  -29.9681   22.6902 C   0  0  0  0  0  0  0  0  0  0  0  0
  -24.1646  -26.3336   23.6294 C   0  0  0  0  0  0  0  0  0  0  0  0
  -25.2308  -26.2140   20.8737 C   0  0  0  0  0  0  0  0  0  0  0  0
  -19.4992  -30.0232   21.7505 C   0  0  0  0  0  0  0  0  0  0  0  0
  -27.3550  -14.0668   17.1254 C   0  0  0  0  0  0  0  0  0  0  0  0
  -19.7300  -28.6636   21.0987 C   0  0  0  0  0  0  0  0  0  0  0  0
  -26.4902  -13.3614   18.1696 C   0  0  0  0  0  0  0  0  0  0  0  0
  -28.7726  -13.5044   17.1024 C   0  0  0  0  0  0  0  0  0  0  0  0
  -28.5929  -12.8317   19.4823 C   0  0  0  0  0  0  0  0  0  0  0  0
  -20.0399  -27.5926   22.1515 C   0  0  1  0  0  0  0  0  0  0  0  0
  -23.8087  -27.3863   22.5842 C   0  0  1  0  0  0  0  0  0  0  0  0
  -27.1616  -13.3916   19.5541 C   0  0  2  0  0  0  0  0  0  0  0  0
  -30.4295  -15.7098   24.6848 C   0  0  0  0  0  0  0  0  0  0  0  0
  -32.3786  -13.3390   23.4767 C   0  0  0  0  0  0  0  0  0  0  0  0
  -30.3373  -30.0717   19.3951 C   0  0  0  0  0  0  0  0  0  0  0  0
  -23.9429  -28.8291   18.1954 C   0  0  0  0  0  0  0  0  0  0  0  0
  -26.2145  -29.4172   17.3224 C   0  0  0  0  0  0  0  0  0  0  0  0
  -25.0631  -30.9426   18.9255 C   0  0  0  0  0  0  0  0  0  0  0  0
  -30.0497  -27.9654   22.5506 C   0  0  0  0  0  0  0  0  0  0  0  0
  -30.9952  -13.5146   22.8602 C   0  0  0  0  0  0  0  0  0  0  0  0
  -27.6708  -20.1326   20.4984 C   0  0  0  0  0  0  0  0  0  0  0  0
  -28.8163  -20.1407   19.4921 C   0  0  0  0  0  0  0  0  0  0  0  0
  -26.8742  -21.4298   20.4530 C   0  0  0  0  0  0  0  0  0  1  0  0
  -29.6391  -18.8623   19.5667 C   0  0  0  0  0  0  0  0  0  0  0  0
  -25.9966  -28.7454   19.7580 C   0  0  1  0  0  0  0  0  0  0  0  0
  -29.6270  -29.4524   20.5887 C   0  0  2  0  0  0  0  0  0  0  0  0
  -25.3003  -29.4598   18.5654 C   0  0  0  0  0  0  0  0  0  0  0  0
  -25.5826  -11.6213   20.2290 N   0  0  0  0  0  0  0  0  0  0  0  0
  -31.8665  -13.0286   20.3121 N   0  0  0  0  0  0  0  0  0  0  0  0
  -26.3266  -12.6769   20.6006 N   0  0  0  0  0  0  0  0  0  0  0  0
  -29.3668  -13.5142   18.4376 N   0  0  0  0  0  0  0  0  0  0  0  0
  -24.7972  -27.4703   21.5071 N   0  0  0  0  0  0  0  0  0  0  0  0
  -26.9118  -14.0117   22.4678 N   0  0  0  0  0  0  0  0  0  0  0  0
  -24.0558  -10.9780   24.2100 N   0  0  0  0  0  0  0  0  0  0  0  0
  -21.4101  -27.7090   22.6028 N   0  0  0  0  0  0  0  0  0  0  0  0
  -27.2714  -29.3382   20.1478 N   0  0  0  0  0  0  0  0  0  0  0  0
  -30.6078  -28.6169   21.3377 N   0  3  0  0  0  0  0  0  0  0  0  0
  -25.3594  -12.8011   24.6951 O   0  0  0  0  0  0  0  0  0  0  0  0
  -31.3261  -14.6490   17.8042 O   0  0  0  0  0  0  0  0  0  0  0  0
  -22.4195  -26.4697   20.9094 O   0  0  0  0  0  0  0  0  0  0  0  0
  -24.7924  -29.8018   21.5074 O   0  0  0  0  0  0  0  0  0  0  0  0
  -28.5461  -27.4260   19.8384 O   0  0  0  0  0  0  0  0  0  0  0  0
  -21.5086   -6.8769   21.4301 O   0  0  0  0  0  0  0  0  0  0  0  0
  -25.8264  -21.3886   21.4209 O   0  0  0  0  0  0  0  0  0  1  0  0
  -30.1949  -18.7486   20.8695 O   0  0  0  0  0  0  0  0  0  0  0  0
  -22.0615   -3.2230   25.5225 F   0  0  0  0  0  0  0  0  0  0  0  0
  -22.0818   -4.2256   20.8964 F   0  0  0  0  0  0  0  0  0  0  0  0
  1  2  1  0  0  0  0
  1  5  2  0  0  0  0
  2  6  2  0  0  0  0
  3  8  2  0  0  0  0
  3 17  1  0  0  0  0
  4  9  1  0  0  0  0
  4 17  2  0  0  0  0
  5 20  1  0  0  0  0
  6 22  1  0  0  0  0
  7 10  2  0  0  0  0
  7 21  1  0  0  0  0
  8 26  1  0  0  0  0
  9 26  2  0  0  0  0
 10 27  1  0  0  0  0
 11 12  2  0  0  0  0
 11 28  1  0  0  0  0
 12 30  1  0  0  0  0
 13 18  1  0  0  0  0
 13 29  2  0  0  0  0
 14 23  1  0  0  0  0
 14 27  2  0  0  0  0
 15 24  2  0  0  0  0
 15 29  1  0  0  0  0
 16 30  2  0  0  0  0
 16 31  1  0  0  0  0
 17 32  1  0  0  0  0
 18 25  2  0  0  0  0
 18 34  1  0  0  0  0
 19 32  1  0  0  0  0
 19 33  2  0  0  0  0
 19 35  1  0  0  0  0
 20 22  2  0  0  0  0
 20 40  1  0  0  0  0
 21 23  2  0  0  0  0
 21 41  1  0  0  0  0
 22 49  1  0  0  0  0
 23 42  1  0  0  0  0
 24 25  1  0  0  0  0
 24 52  1  0  0  0  0
 25 59  1  0  0  0  0
 26 82  1  0  0  0  0
 27 83  1  0  0  0  0
 28 31  2  0  0  0  0
 28 82  1  0  0  0  0
 29 84  1  0  0  0  0
 30 85  1  0  0  0  0
 31 86  1  0  0  0  0
 32 67  2  0  0  0  0
 33 69  1  0  0  0  0
 33 72  1  0  0  0  0
 34 36  1  0  0  0  0
 34 68  2  0  0  0  0
 35 73  1  0  0  0  0
 35 77  2  0  0  0  0
 36 70  1  0  0  0  0
 36 78  2  0  0  0  0
 37 50  1  0  0  0  0
 37 74  1  0  0  0  0
 37 79  2  0  0  0  0
 38 64  1  0  0  0  0
 38 71  1  0  0  0  0
 38 80  2  0  0  0  0
 39 65  1  0  0  0  0
 39 75  1  0  0  0  0
 39 81  2  0  0  0  0
 40 43  1  0  0  0  0
 41 50  1  0  0  0  0
 42 71  1  0  0  0  0
 43 45  1  0  0  0  0
 44 46  1  0  0  0  0
 44 47  1  0  0  0  0
 45 49  1  0  0  0  0
 46 51  1  0  0  0  0
 47 70  1  0  0  0  0
 48 51  1  0  0  0  0
 48 70  1  0  0  0  0
 49 74  1  0  0  0  0
 50 71  1  0  0  0  0
 51 69  1  0  0  0  0
 53 59  1  0  0  0  0
 54 65  1  0  0  0  0
 55 66  1  0  0  0  0
 56 66  1  0  0  0  0
 57 66  1  0  0  0  0
 58 76  1  0  0  0  0
 60 61  1  0  0  0  0
 60 62  1  0  0  0  0
 61 63  1  0  0  0  0
 62 83  1  0  0  0  0
 63 84  1  0  0  0  0
 64 66  1  0  0  0  0
 64 75  1  0  0  0  0
 65 76  1  0  0  0  0
 67 69  1  0  0  0  0
M  CHG  1  76   1
M  ISO  4  34 100  36 100  62 101  83 101
M  END
> <Batch ID>
0120

> <Smiles>
CCc1c(C)cc(OCCC[101CH2:1][101O:1]c2ccc3c(c2)CN(C(=O)C(NC(=O)C(C)NC)C(C)(C)C)C(C(=O)NC2CCCc4ccccc42)C3)cc1[100C:0](=N)[100C:0](=O)N1CCCC(n2nc(-c3ccc(Oc4ccc(F)cc4F)cc3)c(C(N)=O)c2N)C1

> <Shape>
0.295

> <Color>
0.102

> <Negative vol penalty>
0.000

$$$$

  -OEChem-04052301543D

 86 94  0     1  0  0  0  0  0999 V2000
  -27.9245  -36.9480   23.6748 C   0  0  0  0  0  0  0  0  0  0  0  0
  -28.3151  -35.6294   23.4646 C   0  0  0  0  0  0  0  0  0  0  0  0
  -24.6730   -8.3770   20.3860 C   0  0  0  0  0  0  0  0  0  0  0  0
  -23.1118  -10.2094   20.1813 C   0  0  0  0  0  0  0  0  0  0  0  0
  -26.5985  -37.2388   23.9923 C   0  0  0  0  0  0  0  0  0  0  0  0
  -27.3799  -34.6007   23.5728 C   0  0  0  0  0  0  0  0  0  0  0  0
  -27.1838  -29.4418   20.2784 C   0  0  0  0  0  0  0  0  0  0  0  0
  -23.6725   -7.5879   20.9532 C   0  0  0  0  0  0  0  0  0  0  0  0
  -22.1112   -9.4203   20.7485 C   0  0  0  0  0  0  0  0  0  0  0  0
  -27.6181  -28.1435   20.5421 C   0  0  0  0  0  0  0  0  0  0  0  0
  -22.1812   -7.2428   23.9667 C   0  0  0  0  0  0  0  0  0  0  0  0
  -22.5087   -6.4974   25.0993 C   0  0  0  0  0  0  0  0  0  0  0  0
  -25.2454  -17.9631   17.0826 C   0  0  0  0  0  0  0  0  0  0  0  0
  -27.0022  -18.3923   19.2068 C   0  0  0  0  0  0  0  0  0  0  0  0
  -25.3934  -27.5523   21.2635 C   0  0  0  0  0  0  0  0  0  0  0  0
  -21.9517   -4.4629   23.9213 C   0  0  0  0  0  0  0  0  0  0  0  0
  -24.3927   -9.6878   20.0001 C   0  0  0  0  0  0  0  0  0  0  0  0
  -24.9717  -18.9549   18.0245 C   0  0  0  0  0  0  0  0  0  0  0  0
  -27.2758  -17.4005   18.2649 C   0  0  0  0  0  0  0  0  0  0  0  0
  -25.7438  -10.6221   18.0483 C   0  0  0  0  0  0  0  0  0  0  0  0
  -25.6445  -36.2141   24.0950 C   0  0  0  0  0  0  0  0  0  0  0  0
  -25.8514  -29.8087   20.5161 C   0  0  0  0  0  0  0  0  0  0  0  0
  -26.0401  -34.8780   23.8933 C   0  0  0  0  0  0  0  0  0  0  0  0
  -24.9441  -28.8552   20.9997 C   0  0  0  0  0  0  0  0  0  0  0  0
  -26.3974  -17.1859   17.2029 C   0  0  0  0  0  0  0  0  0  0  0  0
  -22.3916   -8.1095   21.1344 C   0  0  0  0  0  0  0  0  0  0  0  0
  -26.7235  -27.1993   21.0374 C   0  0  0  0  0  0  0  0  0  0  0  0
  -21.7389   -6.5982   22.8115 C   0  0  0  0  0  0  0  0  0  0  0  0
  -25.8501  -19.1695   19.0865 C   0  0  0  0  0  0  0  0  0  0  0  0
  -22.3940   -5.1074   25.0766 C   0  0  0  0  0  0  0  0  0  0  0  0
  -21.6242   -5.2083   22.7887 C   0  0  0  0  0  0  0  0  0  0  0  0
  -25.4260  -10.5037   19.4146 C   0  0  0  0  0  0  0  0  0  0  0  0
  -26.7903  -11.5111   18.0150 C   0  0  0  0  0  0  0  0  0  0  0  0
  -23.4869  -20.4802   16.8062 C   0  0  0  0  0  0  0  0  0  0  0  0
  -23.7609  -19.7517   17.8781 C   0  0  0  0  0  0  0  0  0  0  0  0
  -28.4853  -16.6025   18.4149 C   0  0  0  0  0  0  0  0  0  0  0  0
  -25.1465   -9.9855   16.9110 C   0  0  0  0  0  0  0  0  0  0  0  0
  -29.0601  -16.3203   19.7502 C   0  0  0  0  0  0  0  0  0  0  0  0
  -24.4081  -31.9123   22.4123 C   0  0  0  0  0  0  0  0  0  0  0  0
  -21.7593  -30.9635   20.7978 C   0  0  0  0  0  0  0  0  0  0  0  0
  -20.1973  -28.5516   18.9567 C   0  0  0  0  0  0  0  0  0  0  0  0
  -24.2330  -36.5730   24.4870 C   0  0  0  0  0  0  0  0  0  0  0  0
  -25.3923  -31.2061   20.2013 C   0  0  0  0  0  0  0  0  0  0  0  0
  -23.4983  -29.1931   21.2526 C   0  0  0  0  0  0  0  0  0  0  0  0
  -23.2237  -35.4607   24.2143 C   0  0  0  0  0  0  0  0  0  0  0  0
  -29.6494  -13.3893   21.7298 C   0  0  0  0  0  0  0  0  0  0  0  0
  -23.7586  -34.1211   24.7104 C   0  0  0  0  0  0  0  0  0  0  0  0
  -28.6024  -12.4008   21.2174 C   0  0  0  0  0  0  0  0  0  0  0  0
  -29.1249  -14.8213   21.7041 C   0  0  0  0  0  0  0  0  0  0  0  0
  -27.5802  -14.2703   19.8443 C   0  0  0  0  0  0  0  0  0  0  0  0
  -25.0496  -33.7370   23.9774 C   0  0  1  0  0  0  0  0  0  0  0  0
  -24.1353  -31.6086   20.9662 C   0  0  1  0  0  0  0  0  0  0  0  0
  -28.0834  -12.8163   19.8293 C   0  0  2  0  0  0  0  0  0  0  0  0
  -26.6672  -16.1298   16.1813 C   0  0  0  0  0  0  0  0  0  0  0  0
  -18.0227  -28.0479   17.8101 C   0  0  0  0  0  0  0  0  0  0  0  0
  -20.4689  -30.3896   23.5025 C   0  0  0  0  0  0  0  0  0  0  0  0
  -18.7339  -29.0354   22.3091 C   0  0  0  0  0  0  0  0  0  0  0  0
  -18.9549  -31.4742   21.8334 C   0  0  0  0  0  0  0  0  0  0  0  0
  -21.5088  -28.3325   16.3127 C   0  0  0  0  0  0  0  0  0  0  0  0
  -26.8816  -23.5897   20.7694 C   0  0  0  0  0  0  0  0  0  0  0  0
  -25.8876  -22.4476   20.5900 C   0  0  0  0  0  0  0  0  0  0  0  0
  -26.1833  -24.8863   21.1574 C   0  0  0  0  0  0  0  0  0  1  0  0
  -26.5800  -21.1619   20.1604 C   0  0  0  0  0  0  0  0  0  0  0  0
  -20.7243  -29.8805   20.9842 C   0  0  1  0  0  0  0  0  0  0  0  0
  -19.4217  -28.6232   17.6537 C   0  0  2  0  0  0  0  0  0  0  0  0
  -19.7482  -30.1888   22.1545 C   0  0  0  0  0  0  0  0  0  0  0  0
  -26.2075  -11.2571   20.1930 N   0  0  0  0  0  0  0  0  0  0  0  0
  -29.1323  -16.0895   17.4051 N   0  0  0  0  0  0  0  0  0  0  0  0
  -27.0267  -11.8573   19.3129 N   0  0  0  0  0  0  0  0  0  0  0  0
  -28.6072  -15.1709   20.3828 N   0  0  0  0  0  0  0  0  0  0  0  0
  -23.0993  -30.5742   20.9352 N   0  0  0  0  0  0  0  0  0  0  0  0
  -27.5222  -12.0224   17.0025 N   0  0  0  0  0  0  0  0  0  0  0  0
  -24.0808   -9.1004   17.1239 N   0  0  0  0  0  0  0  0  0  0  0  0
  -24.7486  -33.2291   22.6561 N   0  0  0  0  0  0  0  0  0  0  0  0
  -20.0718  -29.7124   19.6903 N   0  0  0  0  0  0  0  0  0  0  0  0
  -20.1281  -27.8580   16.5877 N   0  3  0  0  0  0  0  0  0  0  0  0
  -25.5566  -10.1828   15.7420 O   0  0  0  0  0  0  0  0  0  0  0  0
  -29.8776  -17.1361   20.1557 O   0  0  0  0  0  0  0  0  0  0  0  0
  -24.3149  -31.0184   23.2453 O   0  0  0  0  0  0  0  0  0  0  0  0
  -21.3928  -32.1111   20.5327 O   0  0  0  0  0  0  0  0  0  0  0  0
  -20.8463  -27.5633   19.2922 O   0  0  0  0  0  0  0  0  0  0  0  0
  -21.4149   -7.3396   21.6876 O   0  0  0  0  0  0  0  0  0  0  0  0
  -27.1449  -25.9315   21.2962 O   0  0  0  0  0  0  0  0  0  1  0  0
  -25.6047  -20.1374   20.0257 O   0  0  0  0  0  0  0  0  0  0  0  0
  -22.7100   -4.3916   26.1638 F   0  0  0  0  0  0  0  0  0  0  0  0
  -21.2010   -4.5834   21.6814 F   0  0  0  0  0  0  0  0  0  0  0  0
  1  2  1  0  0  0  0
  1  5  2  0  0  0  0
  2  6  2  0  0  0  0
  3  8  2  0  0  0  0
  3 17  1  0  0  0  0
  4  9  1  0  0  0  0
  4 17  2  0  0  0  0
  5 21  1  0  0  0  0
  6 23  1  0  0  0  0
  7 10  2  0  0  0  0
  7 22  1  0  0  0  0
  8 26  1  0  0  0  0
  9 26  2  0  0  0  0
 10 27  1  0  0  0  0
 11 12  2  0  0  0  0
 11 28  1  0  0  0  0
 12 30  1  0  0  0  0
 13 18  1  0  0  0  0
 13 25  2  0  0  0  0
 14 19  2  0  0  0  0
 14 29  1  0  0  0  0
 15 24  1  0  0  0  0
 15 27  2  0  0  0  0
 16 30  2  0  0  0  0
 16 31  1  0  0  0  0
 17 32  1  0  0  0  0
 18 29  2  0  0  0  0
 18 35  1  0  0  0  0
 19 25  1  0  0  0  0
 19 36  1  0  0  0  0
 20 32  1  0  0  0  0
 20 33  2  0  0  0  0
 20 37  1  0  0  0  0
 21 23  2  0  0  0  0
 21 42  1  0  0  0  0
 22 24  2  0  0  0  0
 22 43  1  0  0  0  0
 23 51  1  0  0  0  0
 24 44  1  0  0  0  0
 25 54  1  0  0  0  0
 26 82  1  0  0  0  0
 27 83  1  0  0  0  0
 28 31  2  0  0  0  0
 28 82  1  0  0  0  0
 29 84  1  0  0  0  0
 30 85  1  0  0  0  0
 31 86  1  0  0  0  0
 32 67  2  0  0  0  0
 33 69  1  0  0  0  0
 33 72  1  0  0  0  0
 34 35  2  0  0  0  0
 36 38  1  0  0  0  0
 36 68  2  0  0  0  0
 37 73  1  0  0  0  0
 37 77  2  0  0  0  0
 38 70  1  0  0  0  0
 38 78  2  0  0  0  0
 39 52  1  0  0  0  0
 39 74  1  0  0  0  0
 39 79  2  0  0  0  0
 40 64  1  0  0  0  0
 40 71  1  0  0  0  0
 40 80  2  0  0  0  0
 41 65  1  0  0  0  0
 41 75  1  0  0  0  0
 41 81  2  0  0  0  0
 42 45  1  0  0  0  0
 43 52  1  0  0  0  0
 44 71  1  0  0  0  0
 45 47  1  0  0  0  0
 46 48  1  0  0  0  0
 46 49  1  0  0  0  0
 47 51  1  0  0  0  0
 48 53  1  0  0  0  0
 49 70  1  0  0  0  0
 50 53  1  0  0  0  0
 50 70  1  0  0  0  0
 51 74  1  0  0  0  0
 52 71  1  0  0  0  0
 53 69  1  0  0  0  0
 55 65  1  0  0  0  0
 56 66  1  0  0  0  0
 57 66  1  0  0  0  0
 58 66  1  0  0  0  0
 59 76  1  0  0  0  0
 60 61  1  0  0  0  0
 60 62  1  0  0  0  0
 61 63  1  0  0  0  0
 62 83  1  0  0  0  0
 63 84  1  0  0  0  0
 64 66  1  0  0  0  0
 64 75  1  0  0  0  0
 65 76  1  0  0  0  0
 67 69  1  0  0  0  0
M  CHG  1  76   1
M  ISO  4  36 100  38 100  62 101  83 101
M  END
> <Batch ID>
0120

> <Smiles>
C=Cc1cc(C)c([100C:0](=N)[100C:0](=O)N2CCCC(n3nc(-c4ccc(Oc5ccc(F)cc5F)cc4)c(C(N)=O)c3N)C2)cc1OCCC[101CH2:1][101O:1]c1ccc2c(c1)CN(C(=O)C(NC(=O)C(C)NC)C(C)(C)C)C(C(=O)NC1CCCc3ccccc31)C2

> <Shape>
0.266

> <Color>
0.091

> <Negative vol penalty>
0.000

$$$$

  -OEChem-04052301543D

 87 95  0     1  0  0  0  0  0999 V2000
  -27.8830  -17.5795   37.7739 C   0  0  0  0  0  0  0  0  0  0  0  0
  -27.0557  -18.6886   37.6299 C   0  0  0  0  0  0  0  0  0  0  0  0
  -23.0012   -9.8948   19.9798 C   0  0  0  0  0  0  0  0  0  0  0  0
  -23.7263   -9.9447   22.2839 C   0  0  0  0  0  0  0  0  0  0  0  0
  -28.8233  -17.2801   36.7891 C   0  0  0  0  0  0  0  0  0  0  0  0
  -27.1691  -19.4998   36.5014 C   0  0  0  0  0  0  0  0  0  0  0  0
  -24.7213  -18.7565   28.8348 C   0  0  0  0  0  0  0  0  0  0  0  0
  -22.2344   -8.7604   20.2457 C   0  0  0  0  0  0  0  0  0  0  0  0
  -22.9594   -8.8103   22.5498 C   0  0  0  0  0  0  0  0  0  0  0  0
  -24.0744  -17.6520   28.2799 C   0  0  0  0  0  0  0  0  0  0  0  0
  -23.2029   -5.4715   22.0767 C   0  0  0  0  0  0  0  0  0  0  0  0
  -23.7901   -4.4539   22.8285 C   0  0  0  0  0  0  0  0  0  0  0  0
  -23.7318  -16.7295   30.4889 C   0  0  0  0  0  0  0  0  0  0  0  0
  -26.9680  -16.5353   23.3042 C   0  0  0  0  0  0  0  0  0  0  0  0
  -26.6888  -14.3675   22.2750 C   0  0  0  0  0  0  0  0  0  0  0  0
  -22.0662   -4.6966   24.5037 C   0  0  0  0  0  0  0  0  0  0  0  0
  -23.7472  -10.4869   20.9989 C   0  0  0  0  0  0  0  0  0  0  0  0
  -24.1332  -13.0025   20.8238 C   0  0  0  0  0  0  0  0  0  0  0  0
  -28.9417  -18.0824   35.6432 C   0  0  0  0  0  0  0  0  0  0  0  0
  -24.8624  -18.8592   30.2215 C   0  0  0  0  0  0  0  0  0  0  0  0
  -28.1128  -19.2116   35.5009 C   0  0  0  0  0  0  0  0  0  0  0  0
  -24.3678  -17.8395   31.0512 C   0  0  0  0  0  0  0  0  0  0  0  0
  -26.1821  -15.4117   23.0486 C   0  0  0  0  0  0  0  0  0  0  0  0
  -28.7675  -15.5705   22.0126 C   0  0  0  0  0  0  0  0  0  0  0  0
  -22.2134   -8.2182   21.5307 C   0  0  0  0  0  0  0  0  0  0  0  0
  -23.5812  -16.6409   29.1049 C   0  0  0  0  0  0  0  0  0  0  0  0
  -22.0473   -6.1018   22.5384 C   0  0  0  0  0  0  0  0  0  0  0  0
  -28.2607  -16.6148   22.7861 C   0  0  0  0  0  0  0  0  0  0  0  0
  -23.2218   -4.0664   24.0419 C   0  0  0  0  0  0  0  0  0  0  0  0
  -27.9815  -14.4468   21.7570 C   0  0  0  0  0  0  0  0  0  0  0  0
  -21.4790   -5.7143   23.7519 C   0  0  0  0  0  0  0  0  0  0  0  0
  -24.5400  -11.6584   20.7247 C   0  0  0  0  0  0  0  0  0  0  0  0
  -25.2431  -13.7249   20.4597 C   0  0  0  0  0  0  0  0  0  0  0  0
  -27.3049  -20.6944   22.7537 C   0  0  0  0  0  0  0  0  0  0  0  0
  -28.4116  -20.0169   23.0780 C   0  0  0  0  0  0  0  0  0  0  0  0
  -23.2676  -16.4604   26.3549 C   0  0  0  0  0  0  0  0  0  0  0  0
  -22.8166  -15.5235   27.1972 C   0  0  0  0  0  0  0  0  0  1  0  0
  -24.4912  -16.3438   24.2750 C   0  0  0  0  0  0  0  0  0  0  0  0
  -22.8653  -13.5491   21.2104 C   0  0  0  0  0  0  0  0  0  0  0  0
  -26.1216  -20.8706   33.1274 C   0  0  0  0  0  0  0  0  0  0  0  0
  -23.3952  -19.7293   33.9485 C   0  0  0  0  0  0  0  0  0  0  0  0
  -21.4545  -22.3648   32.9865 C   0  0  0  0  0  0  0  0  0  0  0  0
  -30.7228  -14.6845   20.6943 C   0  0  0  0  0  0  0  0  0  0  0  0
  -30.0052  -17.7460   34.6282 C   0  0  0  0  0  0  0  0  0  0  0  0
  -25.6063  -20.0010   30.8592 C   0  0  0  0  0  0  0  0  0  0  0  0
  -24.5730  -17.9755   32.5352 C   0  0  0  0  0  0  0  0  0  0  0  0
  -29.8061  -18.4415   33.2840 C   0  0  0  0  0  0  0  0  0  0  0  0
  -29.6041  -12.2328   18.3674 C   0  0  0  0  0  0  0  0  0  0  0  0
  -29.4905  -19.9197   33.4894 C   0  0  0  0  0  0  0  0  0  0  0  0
  -28.1534  -11.9753   18.7814 C   0  0  0  0  0  0  0  0  0  0  0  0
  -30.5046  -12.4755   19.5773 C   0  0  0  0  0  0  0  0  0  0  0  0
  -28.5893  -13.2644   20.9110 C   0  0  0  0  0  0  0  0  0  0  0  0
  -28.1887  -20.1014   34.2791 C   0  0  1  0  0  0  0  0  0  0  0  0
  -25.0164  -20.4223   32.2170 C   0  0  1  0  0  0  0  0  0  0  0  0
  -27.6317  -13.0787   19.7227 C   0  0  2  0  0  0  0  0  0  0  0  0
  -21.2423  -21.8598   30.5376 C   0  0  0  0  0  0  0  0  0  0  0  0
  -24.4963  -22.4132   36.1490 C   0  0  0  0  0  0  0  0  0  0  0  0
  -25.0066  -22.9772   33.7637 C   0  0  0  0  0  0  0  0  0  0  0  0
  -25.7043  -20.7724   34.6989 C   0  0  0  0  0  0  0  0  0  0  0  0
  -21.3861  -25.3482   31.0599 C   0  0  0  0  0  0  0  0  0  0  0  0
  -23.1115  -16.3774   24.8703 C   0  0  0  0  0  0  0  0  0  0  0  0
  -28.4107  -18.7378   23.8473 C   0  0  0  0  0  0  0  0  0  0  0  0
  -23.2567  -21.2032   34.2345 C   0  0  1  0  0  0  0  0  0  0  0  0
  -21.1266  -22.9268   31.6150 C   0  0  2  0  0  0  0  0  0  0  0  0
  -24.5891  -21.8403   34.7206 C   0  0  0  0  0  0  0  0  0  0  0  0
  -25.8093  -11.5317   20.3285 N   0  0  0  0  0  0  0  0  0  0  0  0
  -24.8797  -15.3314   23.5698 N   0  0  0  0  0  0  0  0  0  0  0  0
  -26.2096  -12.8055   20.1754 N   0  0  0  0  0  0  0  0  0  0  0  0
  -24.3092  -19.3611   32.9538 N   0  0  0  0  0  0  0  0  0  0  0  0
  -29.9498  -13.5363   20.4210 N   0  0  0  0  0  0  0  0  0  0  0  0
  -25.4769  -15.0506   20.3581 N   0  0  0  0  0  0  0  0  0  0  0  0
  -21.8333  -12.6651   21.5536 N   0  0  0  0  0  0  0  0  0  0  0  0
  -30.0788  -15.6396   21.4801 N   0  0  0  0  0  0  0  0  0  0  0  0
  -27.0430  -19.8839   33.4221 N   0  0  0  0  0  0  0  0  0  0  0  0
  -22.7142  -21.8052   33.0213 N   0  0  0  0  0  0  0  0  0  0  0  0
  -22.0570  -24.0404   31.2756 N   0  3  0  0  0  0  0  0  0  0  0  0
  -22.6489  -14.7844   21.2346 O   0  0  0  0  0  0  0  0  0  0  0  0
  -26.1392  -22.0271   33.5323 O   0  0  0  0  0  0  0  0  0  0  0  0
  -22.7086  -18.9245   34.5843 O   0  0  0  0  0  0  0  0  0  0  0  0
  -20.6729  -22.4202   33.9334 O   0  0  0  0  0  0  0  0  0  0  0  0
  -31.8615  -14.8233   20.2404 O   0  0  0  0  0  0  0  0  0  0  0  0
  -21.4651   -7.1114   21.7905 O   0  0  0  0  0  0  0  0  0  0  0  0
  -22.9468  -15.5676   28.5569 O   0  0  0  0  0  0  0  0  0  1  0  0
  -29.0119  -17.7216   23.0478 O   0  0  0  0  0  0  0  0  0  0  0  0
  -23.7850   -3.0881   24.7630 F   0  0  0  0  0  0  0  0  0  0  0  0
  -28.4578  -13.4366   21.0149 F   0  0  0  0  0  0  0  0  0  0  0  0
  -20.3683   -6.3153   24.2001 F   0  0  0  0  0  0  0  0  0  0  0  0
  1  2  1  0  0  0  0
  1  5  2  0  0  0  0
  2  6  2  0  0  0  0
  3  8  2  0  0  0  0
  3 17  1  0  0  0  0
  4  9  1  0  0  0  0
  4 17  2  0  0  0  0
  5 19  1  0  0  0  0
  6 21  1  0  0  0  0
  7 10  2  0  0  0  0
  7 20  1  0  0  0  0
  8 25  1  0  0  0  0
  9 25  2  0  0  0  0
 10 26  1  0  0  0  0
 11 12  2  0  0  0  0
 11 27  1  0  0  0  0
 12 29  1  0  0  0  0
 13 22  1  0  0  0  0
 13 26  2  0  0  0  0
 14 23  2  0  0  0  0
 14 28  1  0  0  0  0
 15 23  1  0  0  0  0
 15 30  2  0  0  0  0
 16 29  2  0  0  0  0
 16 31  1  0  0  0  0
 17 32  1  0  0  0  0
 18 32  1  0  0  0  0
 18 33  2  0  0  0  0
 18 39  1  0  0  0  0
 19 21  2  0  0  0  0
 19 44  1  0  0  0  0
 20 22  2  0  0  0  0
 20 45  1  0  0  0  0
 21 53  1  0  0  0  0
 22 46  1  0  0  0  0
 23 67  1  0  0  0  0
 24 28  2  0  0  0  0
 24 30  1  0  0  0  0
 24 73  1  0  0  0  0
 25 82  1  0  0  0  0
 26 83  1  0  0  0  0
 27 31  2  0  0  0  0
 27 82  1  0  0  0  0
 28 84  1  0  0  0  0
 29 85  1  0  0  0  0
 30 86  1  0  0  0  0
 31 87  1  0  0  0  0
 32 66  2  0  0  0  0
 33 68  1  0  0  0  0
 33 71  1  0  0  0  0
 34 35  2  0  0  0  0
 35 62  1  0  0  0  0
 36 37  2  0  0  0  0
 36 61  1  0  0  0  0
 37 83  1  0  0  0  0
 38 61  1  0  0  0  0
 38 67  2  0  0  0  0
 39 72  1  0  0  0  0
 39 77  2  0  0  0  0
 40 54  1  0  0  0  0
 40 74  1  0  0  0  0
 40 78  2  0  0  0  0
 41 63  1  0  0  0  0
 41 69  1  0  0  0  0
 41 79  2  0  0  0  0
 42 64  1  0  0  0  0
 42 75  1  0  0  0  0
 42 80  2  0  0  0  0
 43 70  1  0  0  0  0
 43 73  1  0  0  0  0
 43 81  2  0  0  0  0
 44 47  1  0  0  0  0
 45 54  1  0  0  0  0
 46 69  1  0  0  0  0
 47 49  1  0  0  0  0
 48 50  1  0  0  0  0
 48 51  1  0  0  0  0
 49 53  1  0  0  0  0
 50 55  1  0  0  0  0
 51 70  1  0  0  0  0
 52 55  1  0  0  0  0
 52 70  1  0  0  0  0
 53 74  1  0  0  0  0
 54 69  1  0  0  0  0
 55 68  1  0  0  0  0
 56 64  1  0  0  0  0
 57 65  1  0  0  0  0
 58 65  1  0  0  0  0
 59 65  1  0  0  0  0
 60 76  1  0  0  0  0
 62 84  1  0  0  0  0
 63 65  1  0  0  0  0
 63 75  1  0  0  0  0
 64 76  1  0  0  0  0
 66 68  1  0  0  0  0
M  CHG  1  76   1
M  ISO  4  37 101  43 100  73 100  83 101
M  END
> <Batch ID>
0120

> <Smiles>
C=CCOc1cc(NC=CC=[101CH:1][101O:1]c2ccc3c(c2)CN(C(=O)C(NC(=O)C(C)NC)C(C)(C)C)C(C(=O)NC2CCCc4ccccc42)C3)cc(F)c1[100NH:0][100C:0](=O)N1CCCC(n2nc(-c3ccc(Oc4ccc(F)cc4F)cc3)c(C(N)=O)c2N)C1

> <Shape>
0.172

> <Color>
0.193

> <Negative vol penalty>
0.000

$$$$

  -OEChem-04052301543D

 85 93  0     1  0  0  0  0  0999 V2000
  -31.8869  -15.4871   20.1434 C   0  0  0  0  0  0  0  0  0  0  0  0
  -30.8609  -16.4215   20.0446 C   0  0  0  0  0  0  0  0  0  0  0  0
  -28.8146  -26.4657   19.5403 C   0  0  0  0  0  0  0  0  0  0  0  0
  -26.6753  -25.4115   19.1544 C   0  0  0  0  0  0  0  0  0  0  0  0
  -31.5907  -14.1247   20.1335 C   0  0  0  0  0  0  0  0  0  0  0  0
  -29.5382  -15.9940   19.9348 C   0  0  0  0  0  0  0  0  0  0  0  0
  -24.5786  -18.7335   22.2593 C   0  0  0  0  0  0  0  0  0  0  0  0
  -29.4590  -25.2607   19.2604 C   0  0  0  0  0  0  0  0  0  0  0  0
  -27.3196  -24.2064   18.8744 C   0  0  0  0  0  0  0  0  0  0  0  0
  -23.6264  -19.5830   21.6977 C   0  0  0  0  0  0  0  0  0  0  0  0
  -28.3809  -20.7615   18.4093 C   0  0  0  0  0  0  0  0  0  0  0  0
  -27.8619  -19.6005   18.9822 C   0  0  0  0  0  0  0  0  0  0  0  0
  -18.5250  -25.9278   21.8836 C   0  0  0  0  0  0  0  0  0  0  0  0
  -20.1088  -26.2705   23.6755 C   0  0  0  0  0  0  0  0  0  0  0  0
  -22.1776  -17.6934   21.3108 C   0  0  0  0  0  0  0  0  0  0  0  0
  -18.9951  -28.1636   22.6692 C   0  0  0  0  0  0  0  0  0  0  0  0
  -28.2321  -20.5218   21.1848 C   0  0  0  0  0  0  0  0  0  0  0  0
  -27.4228  -26.5411   19.4874 C   0  0  0  0  0  0  0  0  0  0  0  0
  -19.4242  -25.4110   22.8163 C   0  0  0  0  0  0  0  0  0  0  0  0
  -26.4201  -28.8023   18.8635 C   0  0  0  0  0  0  0  0  0  0  0  0
  -30.2629  -13.6804   20.0333 C   0  0  0  0  0  0  0  0  0  0  0  0
  -24.3416  -17.3538   22.3411 C   0  0  0  0  0  0  0  0  0  0  0  0
  -29.2241  -14.6243   19.9223 C   0  0  0  0  0  0  0  0  0  0  0  0
  -23.1274  -16.8289   21.8762 C   0  0  0  0  0  0  0  0  0  0  0  0
  -18.3105  -27.3042   21.8100 C   0  0  0  0  0  0  0  0  0  0  0  0
  -19.8943  -27.6468   23.6020 C   0  0  0  0  0  0  0  0  0  0  0  0
  -28.7115  -24.1310   18.9274 C   0  0  0  0  0  0  0  0  0  0  0  0
  -22.4269  -19.0626   21.2207 C   0  0  0  0  0  0  0  0  0  0  0  0
  -28.8256  -21.8027   19.2242 C   0  0  0  0  0  0  0  0  0  0  0  0
  -27.7875  -19.4806   20.3699 C   0  0  0  0  0  0  0  0  0  0  0  0
  -28.7512  -21.6828   20.6119 C   0  0  0  0  0  0  0  0  0  0  0  0
  -26.7566  -27.7854   19.7770 C   0  0  0  0  0  0  0  0  0  0  0  0
  -25.8073  -29.7633   19.6298 C   0  0  0  0  0  0  0  0  0  0  0  0
  -19.6507  -23.9569   22.8934 C   0  0  0  0  0  0  0  0  0  0  0  0
  -19.3670  -23.0892   21.9120 C   0  0  0  0  0  0  0  0  0  0  0  0
  -26.6416  -28.8718   17.4486 C   0  0  0  0  0  0  0  0  0  0  0  0
  -19.6258  -21.6296   22.0934 C   0  0  0  0  0  0  0  0  0  0  0  0
  -25.7390  -14.7629   21.1418 C   0  0  0  0  0  0  0  0  0  0  0  0
  -23.6045  -13.2138   23.0305 C   0  0  0  0  0  0  0  0  0  0  0  0
  -20.6184  -13.2746   24.6815 C   0  0  0  0  0  0  0  0  0  0  0  0
  -22.8762  -29.5614   24.8470 C   0  0  0  0  0  0  0  0  0  0  0  0
  -29.9960  -12.1970   19.9791 C   0  0  0  0  0  0  0  0  0  0  0  0
  -25.3677  -16.4544   22.9740 C   0  0  0  0  0  0  0  0  0  0  0  0
  -22.8159  -15.3576   21.9592 C   0  0  0  0  0  0  0  0  0  0  0  0
  -28.5366  -11.8309   20.2369 C   0  0  0  0  0  0  0  0  0  0  0  0
  -25.7428  -31.5276   24.0766 C   0  0  0  0  0  0  0  0  0  0  0  0
  -27.6094  -12.7294   19.4246 C   0  0  0  0  0  0  0  0  0  0  0  0
  -26.2973  -30.8832   22.8049 C   0  0  0  0  0  0  0  0  0  0  0  0
  -25.1672  -30.4852   25.0327 C   0  0  0  0  0  0  0  0  0  0  0  0
  -24.7155  -28.9423   23.1647 C   0  0  0  0  0  0  0  0  0  0  0  0
  -27.7747  -14.2000   19.8266 C   0  0  1  0  0  0  0  0  0  0  0  0
  -25.2363  -14.9983   22.5381 C   0  0  1  0  0  0  0  0  0  0  0  0
  -25.2565  -29.9590   22.1449 C   0  0  2  0  0  0  0  0  0  0  0  0
  -17.3493  -27.8570   20.8126 C   0  0  0  0  0  0  0  0  0  0  0  0
  -19.1262  -11.8467   26.1070 C   0  0  0  0  0  0  0  0  0  0  0  0
  -22.7331  -11.6574   20.5550 C   0  0  0  0  0  0  0  0  0  0  0  0
  -20.6683  -10.9757   21.7960 C   0  0  0  0  0  0  0  0  0  0  0  0
  -22.9127  -10.2870   22.6393 C   0  0  0  0  0  0  0  0  0  0  0  0
  -20.7934  -15.1596   26.9564 C   0  0  0  0  0  0  0  0  0  0  0  0
  -20.6265  -28.5658   24.5206 C   0  0  0  0  0  0  0  0  0  0  0  0
  -19.2608  -20.7516   20.9062 C   0  0  0  0  0  0  0  0  0  0  0  0
  -20.1279  -19.5053   20.8026 C   0  0  0  0  0  0  0  0  0  1  0  0
  -22.1954  -12.7018   22.8542 C   0  0  1  0  0  0  0  0  0  0  0  0
  -20.2425  -12.8795   26.0983 C   0  0  2  0  0  0  0  0  0  0  0  0
  -22.1338  -11.4330   21.9576 C   0  0  0  0  0  0  0  0  0  0  0  0
  -26.3883  -28.0737   21.0281 N   0  0  0  0  0  0  0  0  0  0  0  0
  -25.8141  -29.2826   20.9062 N   0  0  0  0  0  0  0  0  0  0  0  0
  -23.8535  -14.5183   22.5807 N   0  0  0  0  0  0  0  0  0  0  0  0
  -24.1857  -29.6425   24.3453 N   0  0  0  0  0  0  0  0  0  0  0  0
  -25.2688  -30.9643   19.3297 N   0  0  0  0  0  0  0  0  0  0  0  0
  -27.2853  -27.7975   16.8195 N   0  0  0  0  0  0  0  0  0  0  0  0
  -27.0863  -14.4640   21.0719 N   0  0  0  0  0  0  0  0  0  0  0  0
  -21.6594  -12.5108   24.1975 N   0  0  0  0  0  0  0  0  0  0  0  0
  -22.0076  -28.7458   24.1322 N   0  0  0  0  0  0  0  0  0  0  0  0
  -19.7847  -14.0729   26.8646 N   0  3  0  0  0  0  0  0  0  0  0  0
  -26.2940  -29.8647   16.7653 O   0  0  0  0  0  0  0  0  0  0  0  0
  -20.1019  -21.1824   23.1333 O   0  0  0  0  0  0  0  0  0  0  0  0
  -24.9617  -14.8447   20.1980 O   0  0  0  0  0  0  0  0  0  0  0  0
  -24.4513  -12.4860   23.5547 O   0  0  0  0  0  0  0  0  0  0  0  0
  -20.0434  -14.1686   24.0645 O   0  0  0  0  0  0  0  0  0  0  0  0
  -22.5070  -30.1749   25.8541 O   0  0  0  0  0  0  0  0  0  0  0  0
  -29.3399  -22.9551   18.6539 O   0  0  0  0  0  0  0  0  0  0  0  0
  -21.4960  -19.8895   20.6715 O   0  0  0  0  0  0  0  0  0  1  0  0
  -27.2877  -18.3662   20.9198 F   0  0  0  0  0  0  0  0  0  0  0  0
  -29.1757  -22.6802   21.3998 F   0  0  0  0  0  0  0  0  0  0  0  0
  1  2  1  0  0  0  0
  1  5  2  0  0  0  0
  2  6  2  0  0  0  0
  3  8  2  0  0  0  0
  3 18  1  0  0  0  0
  4  9  1  0  0  0  0
  4 18  2  0  0  0  0
  5 21  1  0  0  0  0
  6 23  1  0  0  0  0
  7 10  2  0  0  0  0
  7 22  1  0  0  0  0
  8 27  1  0  0  0  0
  9 27  2  0  0  0  0
 10 28  1  0  0  0  0
 11 12  2  0  0  0  0
 11 29  1  0  0  0  0
 12 30  1  0  0  0  0
 13 19  1  0  0  0  0
 13 25  2  0  0  0  0
 14 19  2  0  0  0  0
 14 26  1  0  0  0  0
 15 24  1  0  0  0  0
 15 28  2  0  0  0  0
 16 25  1  0  0  0  0
 16 26  2  0  0  0  0
 17 30  2  0  0  0  0
 17 31  1  0  0  0  0
 18 32  1  0  0  0  0
 19 34  1  0  0  0  0
 20 32  1  0  0  0  0
 20 33  2  0  0  0  0
 20 36  1  0  0  0  0
 21 23  2  0  0  0  0
 21 42  1  0  0  0  0
 22 24  2  0  0  0  0
 22 43  1  0  0  0  0
 23 51  1  0  0  0  0
 24 44  1  0  0  0  0
 25 54  1  0  0  0  0
 26 60  1  0  0  0  0
 27 82  1  0  0  0  0
 28 83  1  0  0  0  0
 29 31  2  0  0  0  0
 29 82  1  0  0  0  0
 30 84  1  0  0  0  0
 31 85  1  0  0  0  0
 32 66  2  0  0  0  0
 33 67  1  0  0  0  0
 33 70  1  0  0  0  0
 34 35  2  0  0  0  0
 35 37  1  0  0  0  0
 36 71  1  0  0  0  0
 36 76  2  0  0  0  0
 37 61  1  0  0  0  0
 37 77  2  0  0  0  0
 38 52  1  0  0  0  0
 38 72  1  0  0  0  0
 38 78  2  0  0  0  0
 39 63  1  0  0  0  0
 39 68  1  0  0  0  0
 39 79  2  0  0  0  0
 40 64  1  0  0  0  0
 40 73  1  0  0  0  0
 40 80  2  0  0  0  0
 41 69  1  0  0  0  0
 41 74  1  0  0  0  0
 41 81  2  0  0  0  0
 42 45  1  0  0  0  0
 43 52  1  0  0  0  0
 44 68  1  0  0  0  0
 45 47  1  0  0  0  0
 46 48  1  0  0  0  0
 46 49  1  0  0  0  0
 47 51  1  0  0  0  0
 48 53  1  0  0  0  0
 49 69  1  0  0  0  0
 50 53  1  0  0  0  0
 50 69  1  0  0  0  0
 51 72  1  0  0  0  0
 52 68  1  0  0  0  0
 53 67  1  0  0  0  0
 55 64  1  0  0  0  0
 56 65  1  0  0  0  0
 57 65  1  0  0  0  0
 58 65  1  0  0  0  0
 59 75  1  0  0  0  0
 60 74  1  0  0  0  0
 61 62  1  0  0  0  0
 62 83  1  0  0  0  0
 63 65  1  0  0  0  0
 63 73  1  0  0  0  0
 64 75  1  0  0  0  0
 66 67  1  0  0  0  0
M  CHG  1  75   1
M  ISO  4  41 100  62 101  74 100  83 101
M  END
> <Batch ID>
0120

> <Smiles>
CNC(C)C(=O)NC(C(=O)N1Cc2cc([101O:1][101CH2:1]CC(=O)C=Cc3cc(C)cc(C[100NH:0][100C:0](=O)N4CCCC(n5nc(-c6ccc(Oc7ccc(F)cc7F)cc6)c(C(N)=O)c5N)C4)c3)ccc2CC1C(=O)NC1CCCc2ccccc21)C(C)(C)C

> <Shape>
0.254

> <Color>
0.069

> <Negative vol penalty>
0.000

$$$$

  -OEChem-04052301543D

 86 94  0     1  0  0  0  0  0999 V2000
  -27.0560  -33.1134   13.2005 C   0  0  0  0  0  0  0  0  0  0  0  0
  -27.0198  -31.8527   13.7876 C   0  0  0  0  0  0  0  0  0  0  0  0
  -24.3156   -9.5202   22.1679 C   0  0  0  0  0  0  0  0  0  0  0  0
  -23.9089   -9.2911   19.7974 C   0  0  0  0  0  0  0  0  0  0  0  0
  -27.4989  -34.2115   13.9367 C   0  0  0  0  0  0  0  0  0  0  0  0
  -27.4275  -31.6892   15.1110 C   0  0  0  0  0  0  0  0  0  0  0  0
  -25.1098  -27.7856   19.2215 C   0  0  0  0  0  0  0  0  0  0  0  0
  -23.2003   -8.7266   22.4360 C   0  0  0  0  0  0  0  0  0  0  0  0
  -22.7936   -8.4974   20.0655 C   0  0  0  0  0  0  0  0  0  0  0  0
  -25.5266  -26.5302   19.6618 C   0  0  0  0  0  0  0  0  0  0  0  0
  -22.4256   -5.4353   22.4304 C   0  0  0  0  0  0  0  0  0  0  0  0
  -22.5584   -4.4345   23.3928 C   0  0  0  0  0  0  0  0  0  0  0  0
  -29.8535  -20.7647   20.6843 C   0  0  0  0  0  0  0  0  0  0  0  0
  -32.1311  -20.2839   21.3309 C   0  0  0  0  0  0  0  0  0  0  0  0
  -26.6360  -27.5633   21.5383 C   0  0  0  0  0  0  0  0  0  0  0  0
  -20.8041   -5.4592   24.7003 C   0  0  0  0  0  0  0  0  0  0  0  0
  -24.6698   -9.8025   20.8486 C   0  0  0  0  0  0  0  0  0  0  0  0
  -30.8267  -19.8520   21.0911 C   0  0  0  0  0  0  0  0  0  0  0  0
  -30.1848  -22.1093   20.5170 C   0  0  0  0  0  0  0  0  0  0  0  0
  -31.4893  -22.5412   20.7567 C   0  0  0  0  0  0  0  0  0  0  0  0
  -27.1482  -10.1903   20.3850 C   0  0  0  0  0  0  0  0  0  0  0  0
  -27.9030  -34.0630   15.2728 C   0  0  0  0  0  0  0  0  0  0  0  0
  -25.4627  -28.9423   19.9315 C   0  0  0  0  0  0  0  0  0  0  0  0
  -27.8774  -32.7861   15.8654 C   0  0  0  0  0  0  0  0  0  0  0  0
  -26.2202  -28.8320   21.1064 C   0  0  0  0  0  0  0  0  0  0  0  0
  -22.4393   -8.2152   21.3848 C   0  0  0  0  0  0  0  0  0  0  0  0
  -26.2923  -26.4191   20.8188 C   0  0  0  0  0  0  0  0  0  0  0  0
  -21.4822   -6.4481   22.6029 C   0  0  0  0  0  0  0  0  0  0  0  0
  -32.4625  -21.6286   21.1637 C   0  0  0  0  0  0  0  0  0  0  0  0
  -21.7476   -4.4464   24.5278 C   0  0  0  0  0  0  0  0  0  0  0  0
  -20.6714   -6.4601   23.7378 C   0  0  0  0  0  0  0  0  0  0  0  0
  -25.8215  -10.6227   20.5711 C   0  0  0  0  0  0  0  0  0  0  0  0
  -27.8558  -11.3440   20.1513 C   0  0  0  0  0  0  0  0  0  0  0  0
  -31.8133  -24.8337   21.5660 C   0  0  0  0  0  0  0  0  0  0  0  0
  -30.4821  -18.4496   21.2641 C   0  0  0  0  0  0  0  0  0  0  0  0
  -29.1232  -23.0335   20.0846 C   0  0  0  0  0  0  0  0  0  0  0  0
  -31.8568  -23.9456   20.5875 C   0  0  0  0  0  0  0  0  0  0  0  0
  -29.2340  -17.9656   21.4398 C   0  0  0  0  0  0  0  0  0  0  0  0
  -27.9746  -23.2553   20.7425 C   0  0  0  0  0  0  0  0  0  0  0  0
  -27.6923   -8.8642   20.4203 C   0  0  0  0  0  0  0  0  0  0  0  0
  -29.0448  -16.5090   21.5918 C   0  0  0  0  0  0  0  0  0  0  0  0
  -27.1565  -31.5499   19.2720 C   0  0  0  0  0  0  0  0  0  0  0  0
  -26.1044  -32.4981   22.1903 C   0  0  0  0  0  0  0  0  0  0  0  0
  -24.9291  -31.6212   25.2719 C   0  0  0  0  0  0  0  0  0  0  0  0
  -28.4188  -35.2712   16.0138 C   0  0  0  0  0  0  0  0  0  0  0  0
  -24.9826  -30.2868   19.4581 C   0  0  0  0  0  0  0  0  0  0  0  0
  -26.6085  -30.0413   21.9159 C   0  0  0  0  0  0  0  0  0  0  0  0
  -28.4790  -35.0779   17.5268 C   0  0  0  0  0  0  0  0  0  0  0  0
  -26.2949  -16.0467   19.2135 C   0  0  0  0  0  0  0  0  0  0  0  0
  -29.1159  -33.7346   17.8685 C   0  0  0  0  0  0  0  0  0  0  0  0
  -26.0085  -14.5569   19.3818 C   0  0  0  0  0  0  0  0  0  0  0  0
  -26.7332  -16.6963   20.5251 C   0  0  0  0  0  0  0  0  0  0  0  0
  -27.6063  -14.5243   21.3378 C   0  0  0  0  0  0  0  0  0  0  0  0
  -28.2880  -32.5727   17.3062 C   0  0  1  0  0  0  0  0  0  0  0  0
  -25.8338  -31.4418   19.9766 C   0  0  1  0  0  0  0  0  0  0  0  0
  -27.2090  -13.8405   20.0203 C   0  0  1  0  0  0  0  0  0  0  0  0
  -35.2875  -22.8611   23.0332 C   0  0  0  0  0  0  0  0  0  0  0  0
  -24.1934  -32.6149   27.4556 C   0  0  0  0  0  0  0  0  0  0  0  0
  -29.0184  -33.0118   22.9353 C   0  0  0  0  0  0  0  0  0  0  0  0
  -28.3203  -33.0733   25.3389 C   0  0  0  0  0  0  0  0  0  0  0  0
  -27.4141  -34.7556   23.7353 C   0  0  0  0  0  0  0  0  0  0  0  0
  -22.2053  -30.4961   24.9992 C   0  0  0  0  0  0  0  0  0  0  0  0
  -26.9182  -24.1949   20.2560 C   0  0  0  0  0  0  0  0  0  1  0  0
  -34.2511  -21.8026   22.7213 C   0  0  0  0  0  0  0  0  0  0  0  0
  -26.6113  -32.3616   23.6057 C   0  0  1  0  0  0  0  0  0  0  0  0
  -23.7516  -32.1308   26.0833 C   0  0  2  0  0  0  0  0  0  0  0  0
  -27.8355  -33.2778   23.8877 C   0  0  0  0  0  0  0  0  0  0  0  0
  -25.6914  -11.9478   20.4648 N   0  0  0  0  0  0  0  0  0  0  0  0
  -26.9454  -12.3579   20.2096 N   0  0  0  0  0  0  0  0  0  0  0  0
  -27.8441  -15.9593   21.1460 N   0  0  0  0  0  0  0  0  0  0  0  0
  -26.1204  -31.3343   21.4086 N   0  0  0  0  0  0  0  0  0  0  0  0
  -29.1617  -11.5800   19.9037 N   0  0  0  0  0  0  0  0  0  0  0  0
  -26.8251   -7.7927   20.6734 N   0  0  0  0  0  0  0  0  0  0  0  0
  -27.1254  -32.3334   18.1342 N   0  0  0  0  0  0  0  0  0  0  0  0
  -25.4663  -32.6099   24.4750 N   0  0  0  0  0  0  0  0  0  0  0  0
  -22.7434  -31.0491   26.2687 N   0  3  0  0  0  0  0  0  0  0  0  0
  -28.9142   -8.6379   20.2492 O   0  0  0  0  0  0  0  0  0  0  0  0
  -29.9610  -15.8676   22.1094 O   0  0  0  0  0  0  0  0  0  0  0  0
  -28.1333  -30.9669   19.7278 O   0  0  0  0  0  0  0  0  0  0  0  0
  -25.7023  -33.5953   21.7951 O   0  0  0  0  0  0  0  0  0  0  0  0
  -25.3342  -30.4629   25.3410 O   0  0  0  0  0  0  0  0  0  0  0  0
  -21.3510   -7.4405   21.6460 O   0  0  0  0  0  0  0  0  0  0  0  0
  -26.7010  -25.1950   21.2504 O   0  0  0  0  0  0  0  0  0  1  0  0
  -33.7462  -22.0205   21.4062 O   0  0  0  0  0  0  0  0  0  0  0  0
  -21.8742   -3.4845   25.4513 F   0  0  0  0  0  0  0  0  0  0  0  0
  -19.7624   -7.4298   23.9085 F   0  0  0  0  0  0  0  0  0  0  0  0
  1  2  1  0  0  0  0
  1  5  2  0  0  0  0
  2  6  2  0  0  0  0
  3  8  2  0  0  0  0
  3 17  1  0  0  0  0
  4  9  1  0  0  0  0
  4 17  2  0  0  0  0
  5 22  1  0  0  0  0
  6 24  1  0  0  0  0
  7 10  2  0  0  0  0
  7 23  1  0  0  0  0
  8 26  1  0  0  0  0
  9 26  2  0  0  0  0
 10 27  1  0  0  0  0
 11 12  2  0  0  0  0
 11 28  1  0  0  0  0
 12 30  1  0  0  0  0
 13 18  1  0  0  0  0
 13 19  2  0  0  0  0
 14 18  2  0  0  0  0
 14 29  1  0  0  0  0
 15 25  1  0  0  0  0
 15 27  2  0  0  0  0
 16 30  2  0  0  0  0
 16 31  1  0  0  0  0
 17 32  1  0  0  0  0
 18 35  1  0  0  0  0
 19 20  1  0  0  0  0
 19 36  1  0  0  0  0
 20 29  2  0  0  0  0
 20 37  1  0  0  0  0
 21 32  1  0  0  0  0
 21 33  2  0  0  0  0
 21 40  1  0  0  0  0
 22 24  2  0  0  0  0
 22 45  1  0  0  0  0
 23 25  2  0  0  0  0
 23 46  1  0  0  0  0
 24 54  1  0  0  0  0
 25 47  1  0  0  0  0
 26 82  1  0  0  0  0
 27 83  1  0  0  0  0
 28 31  2  0  0  0  0
 28 82  1  0  0  0  0
 29 84  1  0  0  0  0
 30 85  1  0  0  0  0
 31 86  1  0  0  0  0
 32 68  2  0  0  0  0
 33 69  1  0  0  0  0
 33 72  1  0  0  0  0
 34 37  2  0  0  0  0
 35 38  2  0  0  0  0
 36 39  2  0  0  0  0
 38 41  1  0  0  0  0
 39 63  1  0  0  0  0
 40 73  1  0  0  0  0
 40 77  2  0  0  0  0
 41 70  1  0  0  0  0
 41 78  2  0  0  0  0
 42 55  1  0  0  0  0
 42 74  1  0  0  0  0
 42 79  2  0  0  0  0
 43 65  1  0  0  0  0
 43 71  1  0  0  0  0
 43 80  2  0  0  0  0
 44 66  1  0  0  0  0
 44 75  1  0  0  0  0
 44 81  2  0  0  0  0
 45 48  1  0  0  0  0
 46 55  1  0  0  0  0
 47 71  1  0  0  0  0
 48 50  1  0  0  0  0
 49 51  1  0  0  0  0
 49 52  1  0  0  0  0
 50 54  1  0  0  0  0
 51 56  1  0  0  0  0
 52 70  1  0  0  0  0
 53 56  1  0  0  0  0
 53 70  1  0  0  0  0
 54 74  1  0  0  0  0
 55 71  1  0  0  0  0
 56 69  1  0  0  0  0
 57 64  1  0  0  0  0
 58 66  1  0  0  0  0
 59 67  1  0  0  0  0
 60 67  1  0  0  0  0
 61 67  1  0  0  0  0
 62 76  1  0  0  0  0
 63 83  1  0  0  0  0
 64 84  1  0  0  0  0
 65 67  1  0  0  0  0
 65 75  1  0  0  0  0
 66 76  1  0  0  0  0
 68 69  1  0  0  0  0
M  CHG  1  76   1
M  ISO  4  38 100  41 100  63 101  83 101
M  END
> <Batch ID>
0120

> <Smiles>
C=Cc1c(C=C[101CH2:1][101O:1]c2ccc3c(c2)CN(C(=O)C(NC(=O)C(C)NC)C(C)(C)C)C(C(=O)NC2CCCc4ccccc42)C3)cc(C=[100CH:0][100C:0](=O)N2CCCC(n3nc(-c4ccc(Oc5ccc(F)cc5F)cc4)c(C(N)=O)c3N)C2)cc1OCC

> <Shape>
0.259

> <Color>
0.088

> <Negative vol penalty>
0.000

$$$$

  -OEChem-04052301543D

 85 93  0     1  0  0  0  0  0999 V2000
  -24.8296  -31.9162   26.3671 C   0  0  0  0  0  0  0  0  0  0  0  0
  -25.2346  -30.6859   26.8748 C   0  0  0  0  0  0  0  0  0  0  0  0
  -23.2022   -9.8126   20.1108 C   0  0  0  0  0  0  0  0  0  0  0  0
  -23.8859  -10.0584   22.4149 C   0  0  0  0  0  0  0  0  0  0  0  0
  -24.4004  -32.0160   25.0444 C   0  0  0  0  0  0  0  0  0  0  0  0
  -25.2094  -29.5544   26.0603 C   0  0  0  0  0  0  0  0  0  0  0  0
  -29.1402  -24.8591   26.1590 C   0  0  0  0  0  0  0  0  0  0  0  0
  -22.4984   -8.6550   20.4430 C   0  0  0  0  0  0  0  0  0  0  0  0
  -23.1821   -8.9008   22.7472 C   0  0  0  0  0  0  0  0  0  0  0  0
  -29.0761  -23.5943   26.7420 C   0  0  0  0  0  0  0  0  0  0  0  0
  -19.9714   -8.0198   23.3266 C   0  0  0  0  0  0  0  0  0  0  0  0
  -19.1789   -8.0519   24.4740 C   0  0  0  0  0  0  0  0  0  0  0  0
  -30.2498  -16.3672   23.7811 C   0  0  0  0  0  0  0  0  0  0  0  0
  -31.5132  -18.4205   23.6241 C   0  0  0  0  0  0  0  0  0  0  0  0
  -28.3118  -22.6741   24.6471 C   0  0  0  0  0  0  0  0  0  0  0  0
  -31.7452  -16.7260   21.9177 C   0  0  0  0  0  0  0  0  0  0  0  0
  -20.4740   -6.2444   25.4191 C   0  0  0  0  0  0  0  0  0  0  0  0
  -23.8960  -10.5142   21.0967 C   0  0  0  0  0  0  0  0  0  0  0  0
  -30.5937  -17.6165   24.2976 C   0  0  0  0  0  0  0  0  0  0  0  0
  -24.1378  -13.0310   20.7574 C   0  0  0  0  0  0  0  0  0  0  0  0
  -24.3791  -30.8870   24.2104 C   0  0  0  0  0  0  0  0  0  0  0  0
  -28.7795  -25.0432   24.8165 C   0  0  0  0  0  0  0  0  0  0  0  0
  -24.7782  -29.6389   24.7255 C   0  0  0  0  0  0  0  0  0  0  0  0
  -28.3747  -23.9419   24.0488 C   0  0  0  0  0  0  0  0  0  0  0  0
  -30.8257  -15.9219   22.5912 C   0  0  0  0  0  0  0  0  0  0  0  0
  -22.4884   -8.1992   21.7613 C   0  0  0  0  0  0  0  0  0  0  0  0
  -28.6591  -22.5020   25.9868 C   0  0  0  0  0  0  0  0  0  0  0  0
  -21.0152   -7.0999   23.2254 C   0  0  0  0  0  0  0  0  0  0  0  0
  -32.0890  -17.9753   22.4342 C   0  0  0  0  0  0  0  0  0  0  0  0
  -19.4302   -7.1643   25.5203 C   0  0  0  0  0  0  0  0  0  0  0  0
  -21.2665   -6.2123   24.2716 C   0  0  0  0  0  0  0  0  0  0  0  0
  -24.6236  -11.7097   20.7540 C   0  0  0  0  0  0  0  0  0  0  0  0
  -25.2096  -13.7919   20.3590 C   0  0  0  0  0  0  0  0  0  0  0  0
  -29.9858  -18.0878   25.5530 C   0  0  0  0  0  0  0  0  0  0  0  0
  -30.4863  -19.0538   26.3392 C   0  0  0  0  0  0  0  0  0  0  0  0
  -22.8343  -13.5262   21.0909 C   0  0  0  0  0  0  0  0  0  0  0  0
  -26.5417  -26.7194   23.3045 C   0  0  0  0  0  0  0  0  0  0  0  0
  -28.1117  -25.6923   20.6583 C   0  0  0  0  0  0  0  0  0  0  0  0
  -30.1622  -23.3716   19.2241 C   0  0  0  0  0  0  0  0  0  0  0  0
  -30.9539  -14.0611   20.8979 C   0  0  0  0  0  0  0  0  0  0  0  0
  -23.8623  -31.0351   22.8012 C   0  0  0  0  0  0  0  0  0  0  0  0
  -28.8798  -26.4093   24.1951 C   0  0  0  0  0  0  0  0  0  0  0  0
  -27.9962  -24.0828   22.5978 C   0  0  0  0  0  0  0  0  0  0  0  0
  -24.2209  -29.8606   21.8944 C   0  0  0  0  0  0  0  0  0  0  0  0
  -29.4132  -12.8808   17.9129 C   0  0  0  0  0  0  0  0  0  0  0  0
  -23.9380  -28.5371   22.5981 C   0  0  0  0  0  0  0  0  0  0  0  0
  -27.9731  -12.5872   18.3399 C   0  0  0  0  0  0  0  0  0  0  0  0
  -30.4133  -12.5333   19.0142 C   0  0  0  0  0  0  0  0  0  0  0  0
  -28.6921  -12.8456   20.7489 C   0  0  0  0  0  0  0  0  0  0  0  0
  -24.7887  -28.3935   23.8659 C   0  0  1  0  0  0  0  0  0  0  0  0
  -27.9970  -26.5708   22.9614 C   0  0  1  0  0  0  0  0  0  0  0  0
  -27.6433  -13.2404   19.6964 C   0  0  2  0  0  0  0  0  0  0  0  0
  -36.0243  -20.7796   22.6655 C   0  0  0  0  0  0  0  0  0  0  0  0
  -31.2378  -22.7772   17.0361 C   0  0  0  0  0  0  0  0  0  0  0  0
  -25.4367  -24.6444   19.6306 C   0  0  0  0  0  0  0  0  0  0  0  0
  -26.6964  -23.2663   17.9627 C   0  0  0  0  0  0  0  0  0  0  0  0
  -26.8574  -25.7548   17.8977 C   0  0  0  0  0  0  0  0  0  0  0  0
  -32.8833  -23.6323   20.3584 C   0  0  0  0  0  0  0  0  0  0  0  0
  -29.8381  -19.4964   27.6225 C   0  0  0  0  0  0  0  0  0  0  0  0
  -35.1147  -19.8608   21.8698 C   0  0  0  0  0  0  0  0  0  0  0  0
  -29.5167  -20.9862   27.6062 C   0  0  0  0  0  0  0  0  0  1  0  0
  -33.7819  -19.6402   22.5686 C   0  0  0  0  0  0  0  0  0  0  0  0
  -28.0107  -24.4863   19.7559 C   0  0  1  0  0  0  0  0  0  0  0  0
  -31.3973  -23.5193   18.3540 C   0  0  2  0  0  0  0  0  0  0  0  0
  -26.7555  -24.5353   18.8396 C   0  0  0  0  0  0  0  0  0  0  0  0
  -25.9043  -11.6322   20.3827 N   0  0  0  0  0  0  0  0  0  0  0  0
  -26.2323  -12.9143   20.1491 N   0  0  0  0  0  0  0  0  0  0  0  0
  -28.1046  -25.4399   22.0375 N   0  0  0  0  0  0  0  0  0  0  0  0
  -30.0393  -13.1906   20.2683 N   0  0  0  0  0  0  0  0  0  0  0  0
  -25.3676  -15.1194   20.1713 N   0  0  0  0  0  0  0  0  0  0  0  0
  -21.8500  -12.6075   21.4802 N   0  0  0  0  0  0  0  0  0  0  0  0
  -30.4757  -14.6532   22.0664 N   0  0  0  0  0  0  0  0  0  0  0  0
  -26.1460  -28.0249   23.5247 N   0  0  0  0  0  0  0  0  0  0  0  0
  -29.2756  -24.4102   19.0330 N   0  0  0  0  0  0  0  0  0  0  0  0
  -32.5941  -22.9768   19.0570 N   0  3  0  0  0  0  0  0  0  0  0  0
  -22.5460  -14.7455   21.0292 O   0  0  0  0  0  0  0  0  0  0  0  0
  -25.8301  -25.7234   23.3635 O   0  0  0  0  0  0  0  0  0  0  0  0
  -28.2012  -26.8162   20.1579 O   0  0  0  0  0  0  0  0  0  0  0  0
  -29.9985  -22.4272   19.9934 O   0  0  0  0  0  0  0  0  0  0  0  0
  -32.0686  -14.2873   20.4200 O   0  0  0  0  0  0  0  0  0  0  0  0
  -21.8015   -7.0698   22.0859 O   0  0  0  0  0  0  0  0  0  0  0  0
  -28.5950  -21.2665   26.5535 O   0  0  0  0  0  0  0  0  0  1  0  0
  -32.9860  -18.7601   21.7765 O   0  0  0  0  0  0  0  0  0  0  0  0
  -18.6701   -7.1962   26.6227 F   0  0  0  0  0  0  0  0  0  0  0  0
  -22.2685   -5.3272   24.1806 F   0  0  0  0  0  0  0  0  0  0  0  0
  1  2  1  0  0  0  0
  1  5  2  0  0  0  0
  2  6  2  0  0  0  0
  3  8  2  0  0  0  0
  3 18  1  0  0  0  0
  4  9  1  0  0  0  0
  4 18  2  0  0  0  0
  5 21  1  0  0  0  0
  6 23  1  0  0  0  0
  7 10  2  0  0  0  0
  7 22  1  0  0  0  0
  8 26  1  0  0  0  0
  9 26  2  0  0  0  0
 10 27  1  0  0  0  0
 11 12  2  0  0  0  0
 11 28  1  0  0  0  0
 12 30  1  0  0  0  0
 13 19  1  0  0  0  0
 13 25  2  0  0  0  0
 14 19  2  0  0  0  0
 14 29  1  0  0  0  0
 15 24  1  0  0  0  0
 15 27  2  0  0  0  0
 16 25  1  0  0  0  0
 16 29  2  0  0  0  0
 17 30  2  0  0  0  0
 17 31  1  0  0  0  0
 18 32  1  0  0  0  0
 19 34  1  0  0  0  0
 20 32  1  0  0  0  0
 20 33  2  0  0  0  0
 20 36  1  0  0  0  0
 21 23  2  0  0  0  0
 21 41  1  0  0  0  0
 22 24  2  0  0  0  0
 22 42  1  0  0  0  0
 23 50  1  0  0  0  0
 24 43  1  0  0  0  0
 25 72  1  0  0  0  0
 26 81  1  0  0  0  0
 27 82  1  0  0  0  0
 28 31  2  0  0  0  0
 28 81  1  0  0  0  0
 29 83  1  0  0  0  0
 30 84  1  0  0  0  0
 31 85  1  0  0  0  0
 32 66  2  0  0  0  0
 33 67  1  0  0  0  0
 33 70  1  0  0  0  0
 34 35  2  0  0  0  0
 35 59  1  0  0  0  0
 36 71  1  0  0  0  0
 36 76  2  0  0  0  0
 37 51  1  0  0  0  0
 37 73  1  0  0  0  0
 37 77  2  0  0  0  0
 38 63  1  0  0  0  0
 38 68  1  0  0  0  0
 38 78  2  0  0  0  0
 39 64  1  0  0  0  0
 39 74  1  0  0  0  0
 39 79  2  0  0  0  0
 40 69  1  0  0  0  0
 40 72  1  0  0  0  0
 40 80  2  0  0  0  0
 41 44  1  0  0  0  0
 42 51  1  0  0  0  0
 43 68  1  0  0  0  0
 44 46  1  0  0  0  0
 45 47  1  0  0  0  0
 45 48  1  0  0  0  0
 46 50  1  0  0  0  0
 47 52  1  0  0  0  0
 48 69  1  0  0  0  0
 49 52  1  0  0  0  0
 49 69  1  0  0  0  0
 50 73  1  0  0  0  0
 51 68  1  0  0  0  0
 52 67  1  0  0  0  0
 53 60  1  0  0  0  0
 54 64  1  0  0  0  0
 55 65  1  0  0  0  0
 56 65  1  0  0  0  0
 57 65  1  0  0  0  0
 58 75  1  0  0  0  0
 59 61  1  0  0  0  0
 60 62  1  0  0  0  0
 61 82  1  0  0  0  0
 62 83  1  0  0  0  0
 63 65  1  0  0  0  0
 63 74  1  0  0  0  0
 64 75  1  0  0  0  0
 66 67  1  0  0  0  0
M  CHG  1  75   1
M  ISO  4  40 100  61 101  72 100  82 101
M  END
> <Batch ID>
0120

> <Smiles>
CCCOc1cc(C=CC[101CH2:1][101O:1]c2ccc3c(c2)CN(C(=O)C(NC(=O)C(C)NC)C(C)(C)C)C(C(=O)NC2CCCc4ccccc42)C3)cc([100NH:0][100C:0](=O)N2CCCC(n3nc(-c4ccc(Oc5ccc(F)cc5F)cc4)c(C(N)=O)c3N)C2)c1

> <Shape>
0.262

> <Color>
0.205

> <Negative vol penalty>
0.000

$$$$

  -OEChem-04052301543D

 83 91  0     1  0  0  0  0  0999 V2000
  -19.2810  -23.6300   23.6399 C   0  0  0  0  0  0  0  0  0  0  0  0
  -20.4844  -23.7420   22.9509 C   0  0  0  0  0  0  0  0  0  0  0  0
  -24.6950   -8.9195   21.3284 C   0  0  0  0  0  0  0  0  0  0  0  0
  -23.2676  -10.3472   20.0014 C   0  0  0  0  0  0  0  0  0  0  0  0
  -29.0631  -19.8670   15.9738 C   0  0  0  0  0  0  0  0  0  0  0  0
  -18.4779  -24.7545   23.8251 C   0  0  0  0  0  0  0  0  0  0  0  0
  -20.8849  -24.9785   22.4458 C   0  0  0  0  0  0  0  0  0  0  0  0
  -25.7676  -25.9617   23.3609 C   0  0  0  0  0  0  0  0  0  0  0  0
  -29.0329  -18.5225   15.6037 C   0  0  0  0  0  0  0  0  0  0  0  0
  -23.5996   -8.1143   21.6405 C   0  0  0  0  0  0  0  0  0  0  0  0
  -22.1722   -9.5421   20.3134 C   0  0  0  0  0  0  0  0  0  0  0  0
  -26.7074  -25.3325   22.5457 C   0  0  0  0  0  0  0  0  0  0  0  0
  -20.9657   -8.2038   23.7569 C   0  0  0  0  0  0  0  0  0  0  0  0
  -20.8115   -7.8071   25.0851 C   0  0  0  0  0  0  0  0  0  0  0  0
  -28.8439  -19.2332   18.2948 C   0  0  0  0  0  0  0  0  0  0  0  0
  -26.9258  -27.3538   21.2474 C   0  0  0  0  0  0  0  0  0  0  0  0
  -20.9565   -5.4917   24.4104 C   0  0  0  0  0  0  0  0  0  0  0  0
  -24.5290  -10.0360   20.5089 C   0  0  0  0  0  0  0  0  0  0  0  0
  -28.9686  -20.2224   17.3193 C   0  0  0  0  0  0  0  0  0  0  0  0
  -26.5353  -10.7272   19.0931 C   0  0  0  0  0  0  0  0  0  0  0  0
  -18.8733  -26.0073   23.3305 C   0  0  0  0  0  0  0  0  0  0  0  0
  -25.3911  -27.2906   23.1183 C   0  0  0  0  0  0  0  0  0  0  0  0
  -20.0856  -26.1206   22.6235 C   0  0  0  0  0  0  0  0  0  0  0  0
  -25.9829  -27.9985   22.0625 C   0  0  0  0  0  0  0  0  0  0  0  0
  -28.9082  -17.5333   16.5792 C   0  0  0  0  0  0  0  0  0  0  0  0
  -28.8137  -17.8886   17.9248 C   0  0  0  0  0  0  0  0  0  0  0  0
  -22.3382   -8.4256   21.1330 C   0  0  0  0  0  0  0  0  0  0  0  0
  -27.2846  -26.0276   21.4870 C   0  0  0  0  0  0  0  0  0  0  0  0
  -21.1153   -7.2445   22.7553 C   0  0  0  0  0  0  0  0  0  0  0  0
  -20.8069   -6.4511   25.4120 C   0  0  0  0  0  0  0  0  0  0  0  0
  -21.1107   -5.8885   23.0821 C   0  0  0  0  0  0  0  0  0  0  0  0
  -25.6601  -10.8684   20.1866 C   0  0  0  0  0  0  0  0  0  0  0  0
  -27.4320  -11.7578   19.2357 C   0  0  0  0  0  0  0  0  0  0  0  0
  -29.0012  -21.6432   17.7086 C   0  0  0  0  0  0  0  0  0  0  0  0
  -28.5481  -22.1234   18.8751 C   0  0  0  0  0  0  0  0  0  0  0  0
  -26.5375   -9.7519   18.0422 C   0  0  0  0  0  0  0  0  0  0  0  0
  -28.6181  -23.5843   19.1692 C   0  0  0  0  0  0  0  0  0  0  0  0
  -22.6698  -28.7485   22.3615 C   0  0  0  0  0  0  0  0  0  0  0  0
  -24.4487  -31.4311   22.7638 C   0  0  0  0  0  0  0  0  0  0  0  0
  -27.5374  -32.8822   22.7908 C   0  0  0  0  0  0  0  0  0  0  0  0
  -28.5838  -17.0992   20.3061 C   0  0  0  0  0  0  0  0  0  0  0  0
  -17.9492  -27.1850   23.5143 C   0  0  0  0  0  0  0  0  0  0  0  0
  -24.3956  -27.9635   24.0232 C   0  0  0  0  0  0  0  0  0  0  0  0
  -25.6280  -29.4332   21.7723 C   0  0  0  0  0  0  0  0  0  0  0  0
  -18.6246  -28.5326   23.2732 C   0  0  0  0  0  0  0  0  0  0  0  0
  -28.2202  -14.9267   23.1034 C   0  0  0  0  0  0  0  0  0  0  0  0
  -19.4481  -28.4949   21.9897 C   0  0  0  0  0  0  0  0  0  0  0  0
  -27.5937  -13.6656   22.5040 C   0  0  0  0  0  0  0  0  0  0  0  0
  -27.6869  -16.1952   22.4399 C   0  0  0  0  0  0  0  0  0  0  0  0
  -27.1608  -14.9578   20.3756 C   0  0  0  0  0  0  0  0  0  0  0  0
  -20.5662  -27.4495   22.0821 C   0  0  1  0  0  0  0  0  0  0  0  0
  -23.7060  -29.1572   23.3699 C   0  0  1  0  0  0  0  0  0  0  0  0
  -27.7152  -13.6516   20.9675 C   0  0  2  0  0  0  0  0  0  0  0  0
  -28.8773  -16.1010   16.1538 C   0  0  0  0  0  0  0  0  0  0  0  0
  -28.6700  -35.0982   23.1130 C   0  0  0  0  0  0  0  0  0  0  0  0
  -23.5587  -32.2889   19.9741 C   0  0  0  0  0  0  0  0  0  0  0  0
  -25.4163  -33.9674   19.9735 C   0  0  0  0  0  0  0  0  0  0  0  0
  -23.5937  -34.1273   21.6692 C   0  0  0  0  0  0  0  0  0  0  0  0
  -29.0657  -31.8927   25.1240 C   0  0  0  0  0  0  0  0  0  0  0  0
  -28.0753  -24.0045   20.5188 C   0  0  0  0  0  0  0  0  0  1  0  0
  -25.3135  -32.2847   21.8680 C   0  0  1  0  0  0  0  0  0  0  0  0
  -28.2027  -33.8166   23.7851 C   0  0  2  0  0  0  0  0  0  0  0  0
  -24.4760  -33.1394   20.8752 C   0  0  0  0  0  0  0  0  0  0  0  0
  -25.9727  -11.9066   20.9666 N   0  0  0  0  0  0  0  0  0  0  0  0
  -27.0544  -12.4272   20.3624 N   0  0  0  0  0  0  0  0  0  0  0  0
  -24.6449  -30.0453   22.6815 N   0  0  0  0  0  0  0  0  0  0  0  0
  -27.8389  -16.1123   20.9856 N   0  0  0  0  0  0  0  0  0  0  0  0
  -28.4989  -12.1475   18.5061 N   0  0  0  0  0  0  0  0  0  0  0  0
  -25.5448   -8.7625   18.0469 N   0  0  0  0  0  0  0  0  0  0  0  0
  -28.6871  -16.8980   18.9300 N   0  0  0  0  0  0  0  0  0  0  0  0
  -21.6647  -27.9534   22.8782 N   0  0  0  0  0  0  0  0  0  0  0  0
  -26.1714  -33.0657   22.7525 N   0  0  0  0  0  0  0  0  0  0  0  0
  -29.3839  -33.1547   24.4076 N   0  3  0  0  0  0  0  0  0  0  0  0
  -27.4041   -9.7477   17.1353 O   0  0  0  0  0  0  0  0  0  0  0  0
  -29.0856  -24.3893   18.3682 O   0  0  0  0  0  0  0  0  0  0  0  0
  -22.7737  -29.1277   21.2008 O   0  0  0  0  0  0  0  0  0  0  0  0
  -23.6342  -31.9743   23.5142 O   0  0  0  0  0  0  0  0  0  0  0  0
  -28.1670  -32.0732   22.1128 O   0  0  0  0  0  0  0  0  0  0  0  0
  -29.1156  -18.0378   20.9046 O   0  0  0  0  0  0  0  0  0  0  0  0
  -21.2691   -7.6400   21.4371 O   0  0  0  0  0  0  0  0  0  0  0  0
  -28.2017  -25.4156   20.6894 O   0  0  0  0  0  0  0  0  0  1  0  0
  -20.6603   -6.0703   26.6878 F   0  0  0  0  0  0  0  0  0  0  0  0
  -21.2552   -4.9623   22.1244 F   0  0  0  0  0  0  0  0  0  0  0  0
  1  2  1  0  0  0  0
  1  6  2  0  0  0  0
  2  7  2  0  0  0  0
  3 10  2  0  0  0  0
  3 18  1  0  0  0  0
  4 11  1  0  0  0  0
  4 18  2  0  0  0  0
  5  9  2  0  0  0  0
  5 19  1  0  0  0  0
  6 21  1  0  0  0  0
  7 23  1  0  0  0  0
  8 12  2  0  0  0  0
  8 22  1  0  0  0  0
  9 25  1  0  0  0  0
 10 27  1  0  0  0  0
 11 27  2  0  0  0  0
 12 28  1  0  0  0  0
 13 14  2  0  0  0  0
 13 29  1  0  0  0  0
 14 30  1  0  0  0  0
 15 19  2  0  0  0  0
 15 26  1  0  0  0  0
 16 24  1  0  0  0  0
 16 28  2  0  0  0  0
 17 30  2  0  0  0  0
 17 31  1  0  0  0  0
 18 32  1  0  0  0  0
 19 34  1  0  0  0  0
 20 32  1  0  0  0  0
 20 33  2  0  0  0  0
 20 36  1  0  0  0  0
 21 23  2  0  0  0  0
 21 42  1  0  0  0  0
 22 24  2  0  0  0  0
 22 43  1  0  0  0  0
 23 51  1  0  0  0  0
 24 44  1  0  0  0  0
 25 26  2  0  0  0  0
 25 54  1  0  0  0  0
 26 70  1  0  0  0  0
 27 80  1  0  0  0  0
 28 81  1  0  0  0  0
 29 31  2  0  0  0  0
 29 80  1  0  0  0  0
 30 82  1  0  0  0  0
 31 83  1  0  0  0  0
 32 64  2  0  0  0  0
 33 65  1  0  0  0  0
 33 68  1  0  0  0  0
 34 35  2  0  0  0  0
 35 37  1  0  0  0  0
 36 69  1  0  0  0  0
 36 74  2  0  0  0  0
 37 60  1  0  0  0  0
 37 75  2  0  0  0  0
 38 52  1  0  0  0  0
 38 71  1  0  0  0  0
 38 76  2  0  0  0  0
 39 61  1  0  0  0  0
 39 66  1  0  0  0  0
 39 77  2  0  0  0  0
 40 62  1  0  0  0  0
 40 72  1  0  0  0  0
 40 78  2  0  0  0  0
 41 67  1  0  0  0  0
 41 70  1  0  0  0  0
 41 79  2  0  0  0  0
 42 45  1  0  0  0  0
 43 52  1  0  0  0  0
 44 66  1  0  0  0  0
 45 47  1  0  0  0  0
 46 48  1  0  0  0  0
 46 49  1  0  0  0  0
 47 51  1  0  0  0  0
 48 53  1  0  0  0  0
 49 67  1  0  0  0  0
 50 53  1  0  0  0  0
 50 67  1  0  0  0  0
 51 71  1  0  0  0  0
 52 66  1  0  0  0  0
 53 65  1  0  0  0  0
 55 62  1  0  0  0  0
 56 63  1  0  0  0  0
 57 63  1  0  0  0  0
 58 63  1  0  0  0  0
 59 73  1  0  0  0  0
 60 81  1  0  0  0  0
 61 63  1  0  0  0  0
 61 72  1  0  0  0  0
 62 73  1  0  0  0  0
 64 65  1  0  0  0  0
M  CHG  1  73   1
M  ISO  4  41 100  60 101  70 100  81 101
M  END
> <Batch ID>
0120

> <Smiles>
CNC(C)C(=O)NC(C(=O)N1Cc2cc([101O:1][101CH2:1]C(=O)C=Cc3ccc(C)c([100NH:0][100C:0](=O)N4CCCC(n5nc(-c6ccc(Oc7ccc(F)cc7F)cc6)c(C(N)=O)c5N)C4)c3)ccc2CC1C(=O)NC1CCCc2ccccc21)C(C)(C)C

> <Shape>
0.273

> <Color>
0.087

> <Negative vol penalty>
0.000

$$$$

  -OEChem-04052301543D

 82 90  0     1  0  0  0  0  0999 V2000
  -28.0849  -37.8296   21.7806 C   0  0  0  0  0  0  0  0  0  0  0  0
  -28.5530  -36.5862   21.3681 C   0  0  0  0  0  0  0  0  0  0  0  0
  -24.1481   -9.3788   22.5207 C   0  0  0  0  0  0  0  0  0  0  0  0
  -25.0635   -8.2401   20.5965 C   0  0  0  0  0  0  0  0  0  0  0  0
  -27.1095  -37.9117   22.7735 C   0  0  0  0  0  0  0  0  0  0  0  0
  -28.0467  -35.4241   21.9490 C   0  0  0  0  0  0  0  0  0  0  0  0
  -27.1377  -30.0281   19.1987 C   0  0  0  0  0  0  0  0  0  0  0  0
  -22.9762   -8.6312   22.4056 C   0  0  0  0  0  0  0  0  0  0  0  0
  -23.8916   -7.4925   20.4814 C   0  0  0  0  0  0  0  0  0  0  0  0
  -27.8918  -28.8561   19.1603 C   0  0  0  0  0  0  0  0  0  0  0  0
  -21.9230   -5.5145   23.1864 C   0  0  0  0  0  0  0  0  0  0  0  0
  -21.3875   -4.9652   24.3513 C   0  0  0  0  0  0  0  0  0  0  0  0
  -26.5697  -27.9535   20.9649 C   0  0  0  0  0  0  0  0  0  0  0  0
  -19.3495   -6.2154   24.0039 C   0  0  0  0  0  0  0  0  0  0  0  0
  -29.1497  -21.5215   19.2483 C   0  0  0  0  0  0  0  0  0  0  0  0
  -25.1918   -9.1833   21.6161 C   0  0  0  0  0  0  0  0  0  0  0  0
  -29.2454  -22.0550   20.5124 C   0  0  0  0  0  0  0  0  0  0  0  0
  -27.5524   -9.6257   22.4762 C   0  0  0  0  0  0  0  0  0  0  0  0
  -26.5839  -36.7496   23.3600 C   0  0  0  0  0  0  0  0  0  0  0  0
  -26.0993  -30.1762   20.1294 C   0  0  0  0  0  0  0  0  0  0  0  0
  -27.0642  -35.4907   22.9515 C   0  0  0  0  0  0  0  0  0  0  0  0
  -25.8022  -29.1274   21.0113 C   0  0  0  0  0  0  0  0  0  0  0  0
  -28.8370  -21.0330   21.4023 C   0  0  0  0  0  0  0  0  0  0  0  0
  -22.8479   -7.6881   21.3860 C   0  0  0  0  0  0  0  0  0  0  0  0
  -27.6097  -27.8197   20.0454 C   0  0  0  0  0  0  0  0  0  0  0  0
  -21.1718   -6.4143   22.4303 C   0  0  0  0  0  0  0  0  0  0  0  0
  -20.1007   -5.3156   24.7601 C   0  0  0  0  0  0  0  0  0  0  0  0
  -19.8850   -6.7647   22.8390 C   0  0  0  0  0  0  0  0  0  0  0  0
  -26.4024   -9.9557   21.7342 C   0  0  0  0  0  0  0  0  0  0  0  0
  -28.5207  -19.9479   20.6185 C   0  0  0  0  0  0  0  0  0  0  0  0
  -28.4117  -10.6757   22.2627 C   0  0  0  0  0  0  0  0  0  0  0  0
  -29.6906  -23.4239   20.8220 C   0  0  0  0  0  0  0  0  0  0  0  0
  -28.0596  -18.6783   21.0409 C   0  0  0  0  0  0  0  0  0  0  0  0
  -27.7696  -17.6006   20.2409 C   0  0  0  0  0  0  0  0  0  0  0  0
  -30.0834  -24.3326   19.9156 C   0  0  0  0  0  0  0  0  0  0  0  0
  -27.8198   -8.4732   23.2860 C   0  0  0  0  0  0  0  0  0  0  0  0
  -27.3045  -16.3320   20.8368 C   0  0  0  0  0  0  0  0  0  0  0  0
  -25.5162  -32.1605   22.5431 C   0  0  0  0  0  0  0  0  0  0  0  0
  -22.6641  -30.6168   22.6120 C   0  0  0  0  0  0  0  0  0  0  0  0
  -20.8712  -27.8085   21.8735 C   0  0  0  0  0  0  0  0  0  0  0  0
  -25.5649  -36.8902   24.4629 C   0  0  0  0  0  0  0  0  0  0  0  0
  -25.2779  -31.4362   20.1401 C   0  0  0  0  0  0  0  0  0  0  0  0
  -24.6847  -29.2285   22.0160 C   0  0  0  0  0  0  0  0  0  0  0  0
  -24.8100  -35.5978   24.7631 C   0  0  0  0  0  0  0  0  0  0  0  0
  -29.5234  -14.0244   19.0526 C   0  0  0  0  0  0  0  0  0  0  0  0
  -25.7795  -34.4244   24.8642 C   0  0  0  0  0  0  0  0  0  0  0  0
  -29.0352  -12.6788   19.5824 C   0  0  0  0  0  0  0  0  0  0  0  0
  -28.3847  -15.0347   18.9219 C   0  0  0  0  0  0  0  0  0  0  0  0
  -27.1200  -13.8778   20.7114 C   0  0  0  0  0  0  0  0  0  0  0  0
  -26.5217  -34.2064   23.5402 C   0  0  1  0  0  0  0  0  0  0  0  0
  -24.5769  -31.6812   21.4728 C   0  0  1  0  0  0  0  0  0  0  0  0
  -28.2571  -12.8607   20.8953 C   0  0  1  0  0  0  0  0  0  0  0  0
  -28.7661  -21.1184   22.8763 C   0  0  0  0  0  0  0  0  0  0  0  0
  -18.5712  -26.8274   22.0850 C   0  0  0  0  0  0  0  0  0  0  0  0
  -23.1688  -30.0785   25.5727 C   0  0  0  0  0  0  0  0  0  0  0  0
  -21.3723  -28.3366   25.4906 C   0  0  0  0  0  0  0  0  0  0  0  0
  -20.8171  -30.7217   25.0153 C   0  0  0  0  0  0  0  0  0  0  0  0
  -20.5730  -27.5788   18.9379 C   0  0  0  0  0  0  0  0  0  0  0  0
  -30.5435  -25.7183   20.2772 C   0  0  0  0  0  0  0  0  0  0  0  0
  -29.7034  -26.7879   19.5894 C   0  0  0  0  0  0  0  0  0  1  0  0
  -22.1285  -29.3911   23.3118 C   0  0  1  0  0  0  0  0  0  0  0  0
  -19.5219  -27.6221   21.2033 C   0  0  2  0  0  0  0  0  0  0  0  0
  -21.8941  -29.6305   24.8301 C   0  0  0  0  0  0  0  0  0  0  0  0
  -26.5176  -11.1239   21.0970 N   0  0  0  0  0  0  0  0  0  0  0  0
  -27.7500  -11.5373   21.4381 N   0  0  0  0  0  0  0  0  0  0  0  0
  -27.6193  -15.1478   20.1726 N   0  0  0  0  0  0  0  0  0  0  0  0
  -23.9143  -30.4829   21.9916 N   0  0  0  0  0  0  0  0  0  0  0  0
  -29.6613  -10.9367   22.7018 N   0  0  0  0  0  0  0  0  0  0  0  0
  -26.8275   -7.4897   23.3969 N   0  0  0  0  0  0  0  0  0  0  0  0
  -25.6665  -33.5335   22.5862 N   0  0  0  0  0  0  0  0  0  0  0  0
  -20.9323  -28.9921   22.5781 N   0  0  0  0  0  0  0  0  0  0  0  0
  -19.6811  -26.8972   19.9110 N   0  3  0  0  0  0  0  0  0  0  0  0
  -28.9003   -8.3279   23.9065 O   0  0  0  0  0  0  0  0  0  0  0  0
  -26.6605  -16.3987   21.8854 O   0  0  0  0  0  0  0  0  0  0  0  0
  -26.0630  -31.3452   23.2766 O   0  0  0  0  0  0  0  0  0  0  0  0
  -21.9946  -31.6529   22.6096 O   0  0  0  0  0  0  0  0  0  0  0  0
  -21.7788  -26.9846   21.7841 O   0  0  0  0  0  0  0  0  0  0  0  0
  -28.7085  -20.2374   19.3042 O   0  0  0  0  0  0  0  0  0  0  0  0
  -21.7046   -6.9582   21.2736 O   0  0  0  0  0  0  0  0  0  0  0  0
  -28.3446  -26.6749   20.0105 O   0  0  0  0  0  0  0  0  0  1  0  0
  -19.5860   -4.7868   25.8780 F   0  0  0  0  0  0  0  0  0  0  0  0
  -19.1581   -7.6277   22.1161 F   0  0  0  0  0  0  0  0  0  0  0  0
  1  2  1  0  0  0  0
  1  5  2  0  0  0  0
  2  6  2  0  0  0  0
  3  8  2  0  0  0  0
  3 16  1  0  0  0  0
  4  9  1  0  0  0  0
  4 16  2  0  0  0  0
  5 19  1  0  0  0  0
  6 21  1  0  0  0  0
  7 10  2  0  0  0  0
  7 20  1  0  0  0  0
  8 24  1  0  0  0  0
  9 24  2  0  0  0  0
 10 25  1  0  0  0  0
 11 12  2  0  0  0  0
 11 26  1  0  0  0  0
 12 27  1  0  0  0  0
 13 22  1  0  0  0  0
 13 25  2  0  0  0  0
 14 27  2  0  0  0  0
 14 28  1  0  0  0  0
 15 17  2  0  0  0  0
 15 78  1  0  0  0  0
 16 29  1  0  0  0  0
 17 23  1  0  0  0  0
 17 32  1  0  0  0  0
 18 29  1  0  0  0  0
 18 31  2  0  0  0  0
 18 36  1  0  0  0  0
 19 21  2  0  0  0  0
 19 41  1  0  0  0  0
 20 22  2  0  0  0  0
 20 42  1  0  0  0  0
 21 50  1  0  0  0  0
 22 43  1  0  0  0  0
 23 30  2  0  0  0  0
 23 53  1  0  0  0  0
 24 79  1  0  0  0  0
 25 80  1  0  0  0  0
 26 28  2  0  0  0  0
 26 79  1  0  0  0  0
 27 81  1  0  0  0  0
 28 82  1  0  0  0  0
 29 64  2  0  0  0  0
 30 33  1  0  0  0  0
 30 78  1  0  0  0  0
 31 65  1  0  0  0  0
 31 68  1  0  0  0  0
 32 35  2  0  0  0  0
 33 34  2  0  0  0  0
 34 37  1  0  0  0  0
 35 59  1  0  0  0  0
 36 69  1  0  0  0  0
 36 73  2  0  0  0  0
 37 66  1  0  0  0  0
 37 74  2  0  0  0  0
 38 51  1  0  0  0  0
 38 70  1  0  0  0  0
 38 75  2  0  0  0  0
 39 61  1  0  0  0  0
 39 67  1  0  0  0  0
 39 76  2  0  0  0  0
 40 62  1  0  0  0  0
 40 71  1  0  0  0  0
 40 77  2  0  0  0  0
 41 44  1  0  0  0  0
 42 51  1  0  0  0  0
 43 67  1  0  0  0  0
 44 46  1  0  0  0  0
 45 47  1  0  0  0  0
 45 48  1  0  0  0  0
 46 50  1  0  0  0  0
 47 52  1  0  0  0  0
 48 66  1  0  0  0  0
 49 52  1  0  0  0  0
 49 66  1  0  0  0  0
 50 70  1  0  0  0  0
 51 67  1  0  0  0  0
 52 65  1  0  0  0  0
 54 62  1  0  0  0  0
 55 63  1  0  0  0  0
 56 63  1  0  0  0  0
 57 63  1  0  0  0  0
 58 72  1  0  0  0  0
 59 60  1  0  0  0  0
 60 80  1  0  0  0  0
 61 63  1  0  0  0  0
 61 71  1  0  0  0  0
 62 72  1  0  0  0  0
 64 65  1  0  0  0  0
M  CHG  1  72   1
M  ISO  4  34 100  37 100  60 101  80 101
M  END
> <Batch ID>
0120

> <Smiles>
CNC(C)C(=O)NC(C(=O)N1Cc2cc([101O:1][101CH2:1]CC=Cc3coc(C=[100CH:0][100C:0](=O)N4CCCC(n5nc(-c6ccc(Oc7ccc(F)cc7F)cc6)c(C(N)=O)c5N)C4)c3C)ccc2CC1C(=O)NC1CCCc2ccccc21)C(C)(C)C

> <Shape>
0.331

> <Color>
0.108

> <Negative vol penalty>
0.000

$$$$

  -OEChem-04052301543D

 87 95  0     1  0  0  0  0  0999 V2000
  -26.0703  -23.8593   12.7306 C   0  0  0  0  0  0  0  0  0  0  0  0
  -26.6963  -24.1179   13.9458 C   0  0  0  0  0  0  0  0  0  0  0  0
  -27.4602  -10.9872   20.5301 C   0  0  0  0  0  0  0  0  0  0  0  0
  -26.8968  -11.9648   18.3937 C   0  0  0  0  0  0  0  0  0  0  0  0
  -25.0893  -24.7281   12.2543 C   0  0  0  0  0  0  0  0  0  0  0  0
  -26.3425  -25.2461   14.6849 C   0  0  0  0  0  0  0  0  0  0  0  0
  -25.7521  -24.2343   19.6116 C   0  0  0  0  0  0  0  0  0  0  0  0
  -28.3800  -19.9472   16.8769 C   0  0  0  0  0  0  0  0  0  0  0  0
  -26.4165  -10.0729   20.3870 C   0  0  0  0  0  0  0  0  0  0  0  0
  -25.8531  -11.0505   18.2506 C   0  0  0  0  0  0  0  0  0  0  0  0
  -26.9094  -24.1041   20.3780 C   0  0  0  0  0  0  0  0  0  0  0  0
  -23.6738   -7.7128   20.7485 C   0  0  0  0  0  0  0  0  0  0  0  0
  -28.7366  -20.8197   15.8487 C   0  0  0  0  0  0  0  0  0  0  0  0
  -22.8496   -7.4893   21.8514 C   0  0  0  0  0  0  0  0  0  0  0  0
  -26.6213  -26.3590   21.1853 C   0  0  0  0  0  0  0  0  0  0  0  0
  -29.5390  -21.3481   18.4678 C   0  0  0  0  0  0  0  0  0  0  0  0
  -22.2308   -9.8247   21.8622 C   0  0  0  0  0  0  0  0  0  0  0  0
  -27.7003  -11.9332   19.5335 C   0  0  0  0  0  0  0  0  0  0  0  0
  -30.1109  -12.7205   19.2570 C   0  0  0  0  0  0  0  0  0  0  0  0
  -24.7164  -25.8624   12.9927 C   0  0  0  0  0  0  0  0  0  0  0  0
  -25.0255  -25.4337   19.6179 C   0  0  0  0  0  0  0  0  0  0  0  0
  -25.3565  -26.1316   14.2175 C   0  0  0  0  0  0  0  0  0  0  0  0
  -25.4537  -26.5010   20.4201 C   0  0  0  0  0  0  0  0  0  0  0  0
  -29.8957  -22.2206   17.4397 C   0  0  0  0  0  0  0  0  0  0  0  0
  -28.7812  -20.2114   18.1864 C   0  0  0  0  0  0  0  0  0  0  0  0
  -25.6130  -10.1046   19.2472 C   0  0  0  0  0  0  0  0  0  0  0  0
  -27.3458  -25.1675   21.1628 C   0  0  0  0  0  0  0  0  0  0  0  0
  -23.7766   -8.9923   20.2025 C   0  0  0  0  0  0  0  0  0  0  0  0
  -22.1281   -8.5452   22.4082 C   0  0  0  0  0  0  0  0  0  0  0  0
  -29.4945  -21.9564   16.1301 C   0  0  0  0  0  0  0  0  0  0  0  0
  -23.0551  -10.0482   20.7594 C   0  0  0  0  0  0  0  0  0  0  0  0
  -28.7778  -12.8783   19.6810 C   0  0  0  0  0  0  0  0  0  0  0  0
  -30.7297  -13.8894   19.6277 C   0  0  0  0  0  0  0  0  0  0  0  0
  -30.2416  -26.7430   16.3279 C   0  0  0  0  0  0  0  0  0  0  0  0
  -30.7520  -26.8168   17.5637 C   0  0  0  0  0  0  0  0  0  0  0  0
  -31.2379  -26.0842   19.8160 C   0  0  0  0  0  0  0  0  0  0  0  0
  -30.7342  -11.6163   18.5878 C   0  0  0  0  0  0  0  0  0  0  0  0
  -30.6492  -25.8206   18.6295 C   0  0  0  0  0  0  0  0  0  0  0  0
  -24.2528  -27.5997   17.4236 C   0  0  0  0  0  0  0  0  0  0  0  0
  -22.4941  -28.8541   19.8435 C   0  0  0  0  0  0  0  0  0  0  0  0
  -22.0037  -29.1721   23.2058 C   0  0  0  0  0  0  0  0  0  0  0  0
  -28.7338  -19.4397   20.5841 C   0  0  0  0  0  0  0  0  0  0  0  0
  -23.6843  -26.7978   12.4145 C   0  0  0  0  0  0  0  0  0  0  0  0
  -23.7644  -25.5489   18.8063 C   0  0  0  0  0  0  0  0  0  0  0  0
  -24.6982  -27.8027   20.4776 C   0  0  0  0  0  0  0  0  0  0  0  0
  -23.1017  -27.7694   13.4377 C   0  0  0  0  0  0  0  0  0  0  0  0
  -30.4894  -17.3800   22.8976 C   0  0  0  0  0  0  0  0  0  0  0  0
  -24.2142  -28.3984   14.2704 C   0  0  0  0  0  0  0  0  0  0  0  0
  -30.3763  -15.9784   22.2935 C   0  0  0  0  0  0  0  0  0  0  0  0
  -29.2161  -18.1956   22.6804 C   0  0  0  0  0  0  0  0  0  0  0  0
  -28.6451  -16.8711   20.6832 C   0  0  0  0  0  0  0  0  0  0  0  0
  -24.9826  -27.3318   15.0600 C   0  0  1  0  0  0  0  0  0  0  0  0
  -23.3866  -26.9930   18.4910 C   0  0  1  0  0  0  0  0  0  0  0  0
  -29.9276  -16.0343   20.8201 C   0  0  2  0  0  0  0  0  0  0  0  0
  -20.5082  -30.2919   24.8812 C   0  0  0  0  0  0  0  0  0  0  0  0
  -23.9092  -31.5080   19.3292 C   0  0  0  0  0  0  0  0  0  0  0  0
  -23.1096  -32.2887   21.5696 C   0  0  0  0  0  0  0  0  0  0  0  0
  -21.4594  -31.7045   19.7924 C   0  0  0  0  0  0  0  0  0  0  0  0
  -21.1118  -26.5780   24.3167 C   0  0  0  0  0  0  0  0  0  0  0  0
  -30.7139  -23.4494   17.7463 C   0  0  0  0  0  0  0  0  0  0  0  0
  -31.2832  -25.1956   21.0298 C   0  0  0  0  0  0  0  0  0  0  0  0
  -29.8564  -24.5531   18.3770 C   0  0  0  0  0  0  0  0  0  0  0  0
  -30.7023  -25.8550   22.2812 C   0  0  0  0  0  0  0  0  0  0  0  0
  -29.2311  -26.2303   22.1487 C   0  0  0  0  0  0  0  0  0  1  0  0
  -22.7492  -29.8583   20.9414 C   0  0  1  0  0  0  0  0  0  0  0  0
  -20.7553  -29.0367   24.0589 C   0  0  2  0  0  0  0  0  0  0  0  0
  -22.8224  -31.3161   20.4058 C   0  0  0  0  0  0  0  0  0  0  0  0
  -28.5617  -14.0546   20.2757 N   0  0  0  0  0  0  0  0  0  0  0  0
  -29.7673  -14.6465   20.2281 N   0  0  0  0  0  0  0  0  0  0  0  0
  -23.4748  -27.8687   19.6613 N   0  0  0  0  0  0  0  0  0  0  0  0
  -28.8545  -18.2078   21.2613 N   0  0  0  0  0  0  0  0  0  0  0  0
  -31.9978  -14.3330   19.4955 N   0  0  0  0  0  0  0  0  0  0  0  0
  -29.9529  -10.4938   18.2810 N   0  0  0  0  0  0  0  0  0  0  0  0
  -28.4179  -19.3252   19.2307 N   0  0  0  0  0  0  0  0  0  0  0  0
  -24.2243  -26.9188   16.2215 N   0  0  0  0  0  0  0  0  0  0  0  0
  -21.7107  -29.6411   21.9427 N   0  0  0  0  0  0  0  0  0  0  0  0
  -20.8883  -27.8823   24.9920 N   0  3  0  0  0  0  0  0  0  0  0  0
  -31.9517  -11.6179   18.2859 O   0  0  0  0  0  0  0  0  0  0  0  0
  -24.8980  -28.6116   17.6718 O   0  0  0  0  0  0  0  0  0  0  0  0
  -21.4594  -28.9365   19.1770 O   0  0  0  0  0  0  0  0  0  0  0  0
  -23.1268  -28.8935   23.6198 O   0  0  0  0  0  0  0  0  0  0  0  0
  -28.9252  -20.5160   21.1558 O   0  0  0  0  0  0  0  0  0  0  0  0
  -24.5947   -9.2124   19.1071 O   0  0  0  0  0  0  0  0  0  0  0  0
  -28.4755  -25.0432   21.9113 O   0  0  0  0  0  0  0  0  0  1  0  0
  -21.3354   -8.3301   23.4664 F   0  0  0  0  0  0  0  0  0  0  0  0
  -29.8333  -22.7882   15.1353 F   0  0  0  0  0  0  0  0  0  0  0  0
  -23.1488  -11.2793   20.2385 F   0  0  0  0  0  0  0  0  0  0  0  0
  1  2  1  0  0  0  0
  1  5  2  0  0  0  0
  2  6  2  0  0  0  0
  3  9  2  0  0  0  0
  3 18  1  0  0  0  0
  4 10  1  0  0  0  0
  4 18  2  0  0  0  0
  5 20  1  0  0  0  0
  6 22  1  0  0  0  0
  7 11  2  0  0  0  0
  7 21  1  0  0  0  0
  8 13  2  0  0  0  0
  8 25  1  0  0  0  0
  9 26  1  0  0  0  0
 10 26  2  0  0  0  0
 11 27  1  0  0  0  0
 12 14  2  0  0  0  0
 12 28  1  0  0  0  0
 13 30  1  0  0  0  0
 14 29  1  0  0  0  0
 15 23  1  0  0  0  0
 15 27  2  0  0  0  0
 16 24  1  0  0  0  0
 16 25  2  0  0  0  0
 17 29  2  0  0  0  0
 17 31  1  0  0  0  0
 18 32  1  0  0  0  0
 19 32  1  0  0  0  0
 19 33  2  0  0  0  0
 19 37  1  0  0  0  0
 20 22  2  0  0  0  0
 20 43  1  0  0  0  0
 21 23  2  0  0  0  0
 21 44  1  0  0  0  0
 22 52  1  0  0  0  0
 23 45  1  0  0  0  0
 24 30  2  0  0  0  0
 24 60  1  0  0  0  0
 25 74  1  0  0  0  0
 26 83  1  0  0  0  0
 27 84  1  0  0  0  0
 28 31  2  0  0  0  0
 28 83  1  0  0  0  0
 29 85  1  0  0  0  0
 30 86  1  0  0  0  0
 31 87  1  0  0  0  0
 32 68  2  0  0  0  0
 33 69  1  0  0  0  0
 33 72  1  0  0  0  0
 34 35  2  0  0  0  0
 35 38  1  0  0  0  0
 36 38  2  0  0  0  0
 36 61  1  0  0  0  0
 37 73  1  0  0  0  0
 37 78  2  0  0  0  0
 38 62  1  0  0  0  0
 39 53  1  0  0  0  0
 39 75  1  0  0  0  0
 39 79  2  0  0  0  0
 40 65  1  0  0  0  0
 40 70  1  0  0  0  0
 40 80  2  0  0  0  0
 41 66  1  0  0  0  0
 41 76  1  0  0  0  0
 41 81  2  0  0  0  0
 42 71  1  0  0  0  0
 42 74  1  0  0  0  0
 42 82  2  0  0  0  0
 43 46  1  0  0  0  0
 44 53  1  0  0  0  0
 45 70  1  0  0  0  0
 46 48  1  0  0  0  0
 47 49  1  0  0  0  0
 47 50  1  0  0  0  0
 48 52  1  0  0  0  0
 49 54  1  0  0  0  0
 50 71  1  0  0  0  0
 51 54  1  0  0  0  0
 51 71  1  0  0  0  0
 52 75  1  0  0  0  0
 53 70  1  0  0  0  0
 54 69  1  0  0  0  0
 55 66  1  0  0  0  0
 56 67  1  0  0  0  0
 57 67  1  0  0  0  0
 58 67  1  0  0  0  0
 59 77  1  0  0  0  0
 60 62  1  0  0  0  0
 61 63  1  0  0  0  0
 63 64  1  0  0  0  0
 64 84  1  0  0  0  0
 65 67  1  0  0  0  0
 65 76  1  0  0  0  0
 66 77  1  0  0  0  0
 68 69  1  0  0  0  0
M  CHG  1  77   1
M  ISO  4  42 100  64 101  74 100  84 101
M  END
> <Batch ID>
0120

> <Smiles>
C=CC(=CCC[101CH2:1][101O:1]c1ccc2c(c1)CN(C(=O)C(NC(=O)C(C)NC)C(C)(C)C)C(C(=O)NC1CCCc3ccccc31)C2)CCc1cc([100NH:0][100C:0](=O)N2CCCC(n3nc(-c4ccc(Oc5ccc(F)cc5F)cc4)c(C(N)=O)c3N)C2)ccc1F

> <Shape>
0.258

> <Color>
0.065

> <Negative vol penalty>
0.000

$$$$

  -OEChem-04052301543D

 84 92  0     1  0  0  0  0  0999 V2000
  -26.3282  -39.8449   21.9337 C   0  0  0  0  0  0  0  0  0  0  0  0
  -27.1292  -38.7435   21.6494 C   0  0  0  0  0  0  0  0  0  0  0  0
  -24.1938   -9.3312   22.2693 C   0  0  0  0  0  0  0  0  0  0  0  0
  -24.2102   -8.8772   19.8964 C   0  0  0  0  0  0  0  0  0  0  0  0
  -28.8849  -20.9328   20.6345 C   0  0  0  0  0  0  0  0  0  0  0  0
  -29.1177  -22.2873   20.3966 C   0  0  0  0  0  0  0  0  0  0  0  0
  -25.2457  -39.7124   22.8023 C   0  0  0  0  0  0  0  0  0  0  0  0
  -26.8488  -37.5092   22.2344 C   0  0  0  0  0  0  0  0  0  0  0  0
  -27.6141  -31.9811   19.7126 C   0  0  0  0  0  0  0  0  0  0  0  0
  -23.1240   -8.4509   22.4303 C   0  0  0  0  0  0  0  0  0  0  0  0
  -23.1404   -7.9968   20.0574 C   0  0  0  0  0  0  0  0  0  0  0  0
  -28.6265  -31.0295   19.8279 C   0  0  0  0  0  0  0  0  0  0  0  0
  -22.6551   -5.1071   22.6107 C   0  0  0  0  0  0  0  0  0  0  0  0
  -22.7134   -4.2035   23.6716 C   0  0  0  0  0  0  0  0  0  0  0  0
  -31.0564  -20.7425   21.6764 C   0  0  0  0  0  0  0  0  0  0  0  0
  -27.3457  -29.8803   21.5185 C   0  0  0  0  0  0  0  0  0  0  0  0
  -20.6819   -5.1419   24.5824 C   0  0  0  0  0  0  0  0  0  0  0  0
  -24.7369   -9.5445   21.0022 C   0  0  0  0  0  0  0  0  0  0  0  0
  -29.8542  -20.1604   21.2744 C   0  0  0  0  0  0  0  0  0  0  0  0
  -30.3199  -22.8695   20.7985 C   0  0  0  0  0  0  0  0  0  0  0  0
  -27.2138  -10.1469   20.9032 C   0  0  0  0  0  0  0  0  0  0  0  0
  -24.9461  -38.4736   23.3907 C   0  0  0  0  0  0  0  0  0  0  0  0
  -26.4627  -31.8953   20.5085 C   0  0  0  0  0  0  0  0  0  0  0  0
  -25.7620  -37.3604   23.1127 C   0  0  0  0  0  0  0  0  0  0  0  0
  -26.3190  -30.8306   21.4095 C   0  0  0  0  0  0  0  0  0  0  0  0
  -31.2892  -22.0971   21.4384 C   0  0  0  0  0  0  0  0  0  0  0  0
  -22.5973   -7.7836   21.3244 C   0  0  0  0  0  0  0  0  0  0  0  0
  -28.4937  -29.9806   20.7329 C   0  0  0  0  0  0  0  0  0  0  0  0
  -21.6103   -6.0282   22.5356 C   0  0  0  0  0  0  0  0  0  0  0  0
  -21.7267   -4.2208   24.6575 C   0  0  0  0  0  0  0  0  0  0  0  0
  -20.6237   -6.0456   23.5215 C   0  0  0  0  0  0  0  0  0  0  0  0
  -25.8417  -10.4543   20.8351 C   0  0  0  0  0  0  0  0  0  0  0  0
  -27.8457  -11.3454   20.6775 C   0  0  0  0  0  0  0  0  0  0  0  0
  -29.6109  -18.7479   21.5213 C   0  0  0  0  0  0  0  0  0  0  0  0
  -30.5357  -24.3029   20.5331 C   0  0  0  0  0  0  0  0  0  0  0  0
  -28.3988  -18.1537   21.5414 C   0  0  0  0  0  0  0  0  0  0  0  0
  -29.7493  -25.2880   20.9887 C   0  0  0  0  0  0  0  0  0  0  0  0
  -27.8594   -8.8905   21.1486 C   0  0  0  0  0  0  0  0  0  0  0  0
  -30.0498  -26.7105   20.6543 C   0  0  0  0  0  0  0  0  0  0  0  0
  -28.3164  -16.7016   21.7974 C   0  0  0  0  0  0  0  0  0  0  0  0
  -25.1234  -33.7420   22.7220 C   0  0  0  0  0  0  0  0  0  0  0  0
  -22.7404  -31.5477   22.5533 C   0  0  0  0  0  0  0  0  0  0  0  0
  -21.7818  -28.3656   21.7773 C   0  0  0  0  0  0  0  0  0  0  0  0
  -23.7937  -38.3902   24.3602 C   0  0  0  0  0  0  0  0  0  0  0  0
  -25.3678  -32.9148   20.3531 C   0  0  0  0  0  0  0  0  0  0  0  0
  -25.0936  -30.6820   22.2725 C   0  0  0  0  0  0  0  0  0  0  0  0
  -23.3403  -36.9609   24.6459 C   0  0  0  0  0  0  0  0  0  0  0  0
  -26.0537  -15.7755   19.0672 C   0  0  0  0  0  0  0  0  0  0  0  0
  -24.5430  -36.0649   24.9242 C   0  0  0  0  0  0  0  0  0  0  0  0
  -25.8760  -14.2819   19.3269 C   0  0  0  0  0  0  0  0  0  0  0  0
  -26.2078  -16.5671   20.3649 C   0  0  0  0  0  0  0  0  0  0  0  0
  -27.1215  -14.5662   21.5059 C   0  0  0  0  0  0  0  0  0  0  0  0
  -25.4751  -35.9991   23.7083 C   0  0  1  0  0  0  0  0  0  0  0  0
  -24.4679  -33.0171   21.5807 C   0  0  1  0  0  0  0  0  0  0  0  0
  -27.0117  -13.7445   20.2120 C   0  0  1  0  0  0  0  0  0  0  0  0
  -32.5893  -22.6871   21.8821 C   0  0  0  0  0  0  0  0  0  0  0  0
  -19.7772  -26.8559   21.7809 C   0  0  0  0  0  0  0  0  0  0  0  0
  -22.9864  -31.2323   25.5782 C   0  0  0  0  0  0  0  0  0  0  0  0
  -21.6861  -29.1009   25.3917 C   0  0  0  0  0  0  0  0  0  0  0  0
  -20.6375  -31.2624   24.7201 C   0  0  0  0  0  0  0  0  0  0  0  0
  -21.9160  -27.9882   18.8450 C   0  0  0  0  0  0  0  0  0  0  0  0
  -29.0896  -27.7318   21.2267 C   0  0  0  0  0  0  0  0  0  1  0  0
  -22.4322  -30.2479   23.2566 C   0  0  1  0  0  0  0  0  0  0  0  0
  -20.6113  -27.8349   20.9693 C   0  0  2  0  0  0  0  0  0  0  0  0
  -21.9596  -30.4645   24.7219 C   0  0  0  0  0  0  0  0  0  0  0  0
  -25.6145  -11.7466   20.5858 N   0  0  0  0  0  0  0  0  0  0  0  0
  -26.8523  -12.2620   20.4953 N   0  0  0  0  0  0  0  0  0  0  0  0
  -27.2603  -15.9986   21.2204 N   0  0  0  0  0  0  0  0  0  0  0  0
  -24.0535  -31.7076   22.0884 N   0  0  0  0  0  0  0  0  0  0  0  0
  -29.1486  -11.6939   20.6191 N   0  0  0  0  0  0  0  0  0  0  0  0
  -27.0603   -7.7588   21.3603 N   0  0  0  0  0  0  0  0  0  0  0  0
  -24.9326  -35.1105   22.7031 N   0  0  0  0  0  0  0  0  0  0  0  0
  -21.4682  -29.5471   22.4152 N   0  0  0  0  0  0  0  0  0  0  0  0
  -21.1000  -27.1357   19.7474 N   0  3  0  0  0  0  0  0  0  0  0  0
  -29.1079   -8.7779   21.1954 O   0  0  0  0  0  0  0  0  0  0  0  0
  -31.0124  -27.0284   19.9612 O   0  0  0  0  0  0  0  0  0  0  0  0
  -29.1864  -16.1999   22.5117 O   0  0  0  0  0  0  0  0  0  0  0  0
  -25.7543  -33.1067   23.5587 O   0  0  0  0  0  0  0  0  0  0  0  0
  -21.8471  -32.3870   22.4151 O   0  0  0  0  0  0  0  0  0  0  0  0
  -22.8647  -27.7877   21.8396 O   0  0  0  0  0  0  0  0  0  0  0  0
  -21.5535   -6.9242   21.4813 O   0  0  0  0  0  0  0  0  0  0  0  0
  -29.4808  -29.0508   20.8479 O   0  0  0  0  0  0  0  0  0  1  0  0
  -21.7819   -3.3520   25.6754 F   0  0  0  0  0  0  0  0  0  0  0  0
  -19.6169   -6.9274   23.4541 F   0  0  0  0  0  0  0  0  0  0  0  0
  1  2  1  0  0  0  0
  1  7  2  0  0  0  0
  2  8  2  0  0  0  0
  3 10  2  0  0  0  0
  3 18  1  0  0  0  0
  4 11  1  0  0  0  0
  4 18  2  0  0  0  0
  5  6  2  0  0  0  0
  5 19  1  0  0  0  0
  6 20  1  0  0  0  0
  7 22  1  0  0  0  0
  8 24  1  0  0  0  0
  9 12  2  0  0  0  0
  9 23  1  0  0  0  0
 10 27  1  0  0  0  0
 11 27  2  0  0  0  0
 12 28  1  0  0  0  0
 13 14  2  0  0  0  0
 13 29  1  0  0  0  0
 14 30  1  0  0  0  0
 15 19  2  0  0  0  0
 15 26  1  0  0  0  0
 16 25  1  0  0  0  0
 16 28  2  0  0  0  0
 17 30  2  0  0  0  0
 17 31  1  0  0  0  0
 18 32  1  0  0  0  0
 19 34  1  0  0  0  0
 20 26  2  0  0  0  0
 20 35  1  0  0  0  0
 21 32  1  0  0  0  0
 21 33  2  0  0  0  0
 21 38  1  0  0  0  0
 22 24  2  0  0  0  0
 22 44  1  0  0  0  0
 23 25  2  0  0  0  0
 23 45  1  0  0  0  0
 24 53  1  0  0  0  0
 25 46  1  0  0  0  0
 26 56  1  0  0  0  0
 27 81  1  0  0  0  0
 28 82  1  0  0  0  0
 29 31  2  0  0  0  0
 29 81  1  0  0  0  0
 30 83  1  0  0  0  0
 31 84  1  0  0  0  0
 32 66  2  0  0  0  0
 33 67  1  0  0  0  0
 33 70  1  0  0  0  0
 34 36  2  0  0  0  0
 35 37  2  0  0  0  0
 36 40  1  0  0  0  0
 37 39  1  0  0  0  0
 38 71  1  0  0  0  0
 38 75  2  0  0  0  0
 39 62  1  0  0  0  0
 39 76  2  0  0  0  0
 40 68  1  0  0  0  0
 40 77  2  0  0  0  0
 41 54  1  0  0  0  0
 41 72  1  0  0  0  0
 41 78  2  0  0  0  0
 42 63  1  0  0  0  0
 42 69  1  0  0  0  0
 42 79  2  0  0  0  0
 43 64  1  0  0  0  0
 43 73  1  0  0  0  0
 43 80  2  0  0  0  0
 44 47  1  0  0  0  0
 45 54  1  0  0  0  0
 46 69  1  0  0  0  0
 47 49  1  0  0  0  0
 48 50  1  0  0  0  0
 48 51  1  0  0  0  0
 49 53  1  0  0  0  0
 50 55  1  0  0  0  0
 51 68  1  0  0  0  0
 52 55  1  0  0  0  0
 52 68  1  0  0  0  0
 53 72  1  0  0  0  0
 54 69  1  0  0  0  0
 55 67  1  0  0  0  0
 57 64  1  0  0  0  0
 58 65  1  0  0  0  0
 59 65  1  0  0  0  0
 60 65  1  0  0  0  0
 61 74  1  0  0  0  0
 62 82  1  0  0  0  0
 63 65  1  0  0  0  0
 63 73  1  0  0  0  0
 64 74  1  0  0  0  0
 66 67  1  0  0  0  0
M  CHG  1  74   1
M  ISO  4  36 100  40 100  62 101  82 101
M  END
> <Batch ID>
0120

> <Smiles>
CNC(C)C(=O)NC(C(=O)N1Cc2cc([101O:1][101CH2:1]C(=O)C=Cc3ccc(C=[100CH:0][100C:0](=O)N4CCCC(n5nc(-c6ccc(Oc7ccc(F)cc7F)cc6)c(C(N)=O)c5N)C4)cc3C)ccc2CC1C(=O)NC1CCCc2ccccc21)C(C)(C)C

> <Shape>
0.306

> <Color>
0.092

> <Negative vol penalty>
0.000

$$$$

  -OEChem-04052301543D

 85 93  0     1  0  0  0  0  0999 V2000
  -16.9430  -32.2124   18.9684 C   0  0  0  0  0  0  0  0  0  0  0  0
  -18.1145  -32.0781   18.2303 C   0  0  0  0  0  0  0  0  0  0  0  0
  -22.7589  -10.5077   21.2779 C   0  0  0  0  0  0  0  0  0  0  0  0
  -23.9136   -9.5616   23.1775 C   0  0  0  0  0  0  0  0  0  0  0  0
  -16.9900  -32.7377   20.2591 C   0  0  0  0  0  0  0  0  0  0  0  0
  -19.3337  -32.4700   18.7820 C   0  0  0  0  0  0  0  0  0  0  0  0
  -24.7562  -27.7828   19.5021 C   0  0  0  0  0  0  0  0  0  0  0  0
  -22.3202   -9.2355   20.9109 C   0  0  0  0  0  0  0  0  0  0  0  0
  -23.4749   -8.2894   22.8106 C   0  0  0  0  0  0  0  0  0  0  0  0
  -25.9104  -26.9997   19.4796 C   0  0  0  0  0  0  0  0  0  0  0  0
  -20.6403   -6.4662   23.0588 C   0  0  0  0  0  0  0  0  0  0  0  0
  -20.1370   -5.6409   24.0644 C   0  0  0  0  0  0  0  0  0  0  0  0
  -30.9267  -20.2497   21.2405 C   0  0  0  0  0  0  0  0  0  0  0  0
  -31.8267  -22.3220   20.3843 C   0  0  0  0  0  0  0  0  0  0  0  0
  -27.1498  -28.7767   20.5540 C   0  0  0  0  0  0  0  0  0  0  0  0
  -21.8554   -4.0111   23.5868 C   0  0  0  0  0  0  0  0  0  0  0  0
  -23.5557  -10.6708   22.4111 C   0  0  0  0  0  0  0  0  0  0  0  0
  -29.6489  -20.6386   20.8385 C   0  0  0  0  0  0  0  0  0  0  0  0
  -30.5489  -22.7108   19.9823 C   0  0  0  0  0  0  0  0  0  0  0  0
  -23.3572  -12.8967   23.6414 C   0  0  0  0  0  0  0  0  0  0  0  0
  -18.2116  -33.1273   20.8305 C   0  0  0  0  0  0  0  0  0  0  0  0
  -24.7907  -29.0615   20.0653 C   0  0  0  0  0  0  0  0  0  0  0  0
  -19.3969  -33.0023   20.0811 C   0  0  0  0  0  0  0  0  0  0  0  0
  -25.9938  -29.5609   20.5906 C   0  0  0  0  0  0  0  0  0  0  0  0
  -29.4600  -21.8691   20.2094 C   0  0  0  0  0  0  0  0  0  0  0  0
  -22.6782   -8.1263   21.6773 C   0  0  0  0  0  0  0  0  0  0  0  0
  -27.1044  -27.4956   20.0040 C   0  0  0  0  0  0  0  0  0  0  0  0
  -21.7511   -6.0640   22.3172 C   0  0  0  0  0  0  0  0  0  0  0  0
  -20.7446   -4.4134   24.3284 C   0  0  0  0  0  0  0  0  0  0  0  0
  -32.0156  -21.0914   21.0134 C   0  0  0  0  0  0  0  0  0  0  0  0
  -22.3587   -4.8364   22.5812 C   0  0  0  0  0  0  0  0  0  0  0  0
  -24.0096  -11.9846   22.7904 C   0  0  0  0  0  0  0  0  0  0  0  0
  -24.1907  -13.9877   23.6791 C   0  0  0  0  0  0  0  0  0  0  0  0
  -28.5349  -19.7337   21.0921 C   0  0  0  0  0  0  0  0  0  0  0  0
  -30.3870  -24.0170   19.3223 C   0  0  0  0  0  0  0  0  0  0  0  0
  -28.4348  -18.4708   20.6304 C   0  0  0  0  0  0  0  0  0  0  0  0
  -30.6811  -25.2042   19.8751 C   0  0  0  0  0  0  0  0  0  0  0  0
  -22.1093  -12.7691   24.3358 C   0  0  0  0  0  0  0  0  0  0  0  0
  -27.2434  -17.6731   20.9839 C   0  0  0  0  0  0  0  0  0  0  0  0
  -22.8983  -32.1833   20.9310 C   0  0  0  0  0  0  0  0  0  0  0  0
  -24.7682  -31.5918   23.2898 C   0  0  0  0  0  0  0  0  0  0  0  0
  -26.6591  -30.3587   25.8474 C   0  0  0  0  0  0  0  0  0  0  0  0
  -18.2064  -33.7338   22.2114 C   0  0  0  0  0  0  0  0  0  0  0  0
  -23.5866  -29.9637   20.0557 C   0  0  0  0  0  0  0  0  0  0  0  0
  -25.9922  -30.9553   21.1551 C   0  0  0  0  0  0  0  0  0  0  0  0
  -19.5862  -33.7768   22.8630 C   0  0  0  0  0  0  0  0  0  0  0  0
  -28.9218  -14.5914   22.0412 C   0  0  0  0  0  0  0  0  0  0  0  0
  -20.6246  -34.3075   21.8797 C   0  0  0  0  0  0  0  0  0  0  0  0
  -27.7247  -13.6979   22.3548 C   0  0  0  0  0  0  0  0  0  0  0  0
  -28.6387  -15.5383   20.8759 C   0  0  0  0  0  0  0  0  0  0  0  0
  -26.2129  -15.4694   21.3770 C   0  0  0  0  0  0  0  0  0  0  0  0
  -20.7418  -33.3932   20.6542 C   0  0  1  0  0  0  0  0  0  0  0  0
  -23.4918  -30.8570   21.3055 C   0  0  1  0  0  0  0  0  0  0  0  0
  -26.4592  -14.5413   22.5767 C   0  0  1  0  0  0  0  0  0  0  0  0
  -27.4775  -23.3151   20.7244 C   0  0  0  0  0  0  0  0  0  0  0  0
  -27.3572  -30.8671   28.2036 C   0  0  0  0  0  0  0  0  0  0  0  0
  -26.7074  -33.7066   22.2551 C   0  0  0  0  0  0  0  0  0  0  0  0
  -27.9844  -33.4817   24.3968 C   0  0  0  0  0  0  0  0  0  0  0  0
  -25.6172  -34.2676   24.4348 C   0  0  0  0  0  0  0  0  0  0  0  0
  -25.4224  -27.8733   26.8732 C   0  0  0  0  0  0  0  0  0  0  0  0
  -28.0867  -22.2879   19.7783 C   0  0  0  0  0  0  0  0  0  0  0  0
  -30.4881  -26.5179   19.1682 C   0  0  0  0  0  0  0  0  0  0  0  0
  -29.4783  -27.4025   19.8898 C   0  0  0  0  0  0  0  0  0  1  0  0
  -26.1089  -31.8388   23.9340 C   0  0  1  0  0  0  0  0  0  0  0  0
  -26.3499  -30.1492   27.3188 C   0  0  2  0  0  0  0  0  0  0  0  0
  -26.5999  -33.3010   23.7386 C   0  0  0  0  0  0  0  0  0  0  0  0
  -25.1682  -12.4553   22.3212 N   0  0  0  0  0  0  0  0  0  0  0  0
  -25.2503  -13.6751   22.8793 N   0  0  0  0  0  0  0  0  0  0  0  0
  -27.3927  -16.2911   21.0845 N   0  0  0  0  0  0  0  0  0  0  0  0
  -24.7760  -31.1725   21.9539 N   0  0  0  0  0  0  0  0  0  0  0  0
  -24.1133  -15.1744   24.3180 N   0  0  0  0  0  0  0  0  0  0  0  0
  -21.3801  -11.5815   24.1867 N   0  0  0  0  0  0  0  0  0  0  0  0
  -21.5175  -32.2144   20.9755 N   0  0  0  0  0  0  0  0  0  0  0  0
  -25.9716  -31.4359   25.3295 N   0  0  0  0  0  0  0  0  0  0  0  0
  -26.3815  -28.6973   27.6531 N   0  3  0  0  0  0  0  0  0  0  0  0
  -21.6465  -13.6876   25.0538 O   0  0  0  0  0  0  0  0  0  0  0  0
  -26.1859  -18.2798   21.1641 O   0  0  0  0  0  0  0  0  0  0  0  0
  -23.6377  -33.1115   20.6255 O   0  0  0  0  0  0  0  0  0  0  0  0
  -23.7402  -31.7704   23.9491 O   0  0  0  0  0  0  0  0  0  0  0  0
  -27.4358  -29.6410   25.2212 O   0  0  0  0  0  0  0  0  0  0  0  0
  -22.2501   -6.8848   21.3197 O   0  0  0  0  0  0  0  0  0  0  0  0
  -28.2264  -26.7240   19.9829 O   0  0  0  0  0  0  0  0  0  1  0  0
  -20.2621   -3.6216   25.2951 F   0  0  0  0  0  0  0  0  0  0  0  0
  -33.2426  -20.7182   21.4000 F   0  0  0  0  0  0  0  0  0  0  0  0
  -23.4268   -4.4451   21.8728 F   0  0  0  0  0  0  0  0  0  0  0  0
  1  2  1  0  0  0  0
  1  5  2  0  0  0  0
  2  6  2  0  0  0  0
  3  8  2  0  0  0  0
  3 17  1  0  0  0  0
  4  9  1  0  0  0  0
  4 17  2  0  0  0  0
  5 21  1  0  0  0  0
  6 23  1  0  0  0  0
  7 10  2  0  0  0  0
  7 22  1  0  0  0  0
  8 26  1  0  0  0  0
  9 26  2  0  0  0  0
 10 27  1  0  0  0  0
 11 12  2  0  0  0  0
 11 28  1  0  0  0  0
 12 29  1  0  0  0  0
 13 18  1  0  0  0  0
 13 30  2  0  0  0  0
 14 19  2  0  0  0  0
 14 30  1  0  0  0  0
 15 24  1  0  0  0  0
 15 27  2  0  0  0  0
 16 29  2  0  0  0  0
 16 31  1  0  0  0  0
 17 32  1  0  0  0  0
 18 25  2  0  0  0  0
 18 34  1  0  0  0  0
 19 25  1  0  0  0  0
 19 35  1  0  0  0  0
 20 32  1  0  0  0  0
 20 33  2  0  0  0  0
 20 38  1  0  0  0  0
 21 23  2  0  0  0  0
 21 43  1  0  0  0  0
 22 24  2  0  0  0  0
 22 44  1  0  0  0  0
 23 52  1  0  0  0  0
 24 45  1  0  0  0  0
 25 61  1  0  0  0  0
 26 81  1  0  0  0  0
 27 82  1  0  0  0  0
 28 31  2  0  0  0  0
 28 81  1  0  0  0  0
 29 83  1  0  0  0  0
 30 84  1  0  0  0  0
 31 85  1  0  0  0  0
 32 67  2  0  0  0  0
 33 68  1  0  0  0  0
 33 71  1  0  0  0  0
 34 36  2  0  0  0  0
 35 37  2  0  0  0  0
 36 39  1  0  0  0  0
 37 62  1  0  0  0  0
 38 72  1  0  0  0  0
 38 76  2  0  0  0  0
 39 69  1  0  0  0  0
 39 77  2  0  0  0  0
 40 53  1  0  0  0  0
 40 73  1  0  0  0  0
 40 78  2  0  0  0  0
 41 64  1  0  0  0  0
 41 70  1  0  0  0  0
 41 79  2  0  0  0  0
 42 65  1  0  0  0  0
 42 74  1  0  0  0  0
 42 80  2  0  0  0  0
 43 46  1  0  0  0  0
 44 53  1  0  0  0  0
 45 70  1  0  0  0  0
 46 48  1  0  0  0  0
 47 49  1  0  0  0  0
 47 50  1  0  0  0  0
 48 52  1  0  0  0  0
 49 54  1  0  0  0  0
 50 69  1  0  0  0  0
 51 54  1  0  0  0  0
 51 69  1  0  0  0  0
 52 73  1  0  0  0  0
 53 70  1  0  0  0  0
 54 68  1  0  0  0  0
 55 61  1  0  0  0  0
 56 65  1  0  0  0  0
 57 66  1  0  0  0  0
 58 66  1  0  0  0  0
 59 66  1  0  0  0  0
 60 75  1  0  0  0  0
 62 63  1  0  0  0  0
 63 82  1  0  0  0  0
 64 66  1  0  0  0  0
 64 74  1  0  0  0  0
 65 75  1  0  0  0  0
 67 68  1  0  0  0  0
M  CHG  1  75   1
M  ISO  4  36 100  39 100  63 101  82 101
M  END
> <Batch ID>
0120

> <Smiles>
CCc1c(C=CC[101CH2:1][101O:1]c2ccc3c(c2)CN(C(=O)C(NC(=O)C(C)NC)C(C)(C)C)C(C(=O)NC2CCCc4ccccc42)C3)cc(F)cc1C=[100CH:0][100C:0](=O)N1CCCC(n2nc(-c3ccc(Oc4ccc(F)cc4F)cc3)c(C(N)=O)c2N)C1

> <Shape>
0.288

> <Color>
0.118

> <Negative vol penalty>
0.000

$$$$

  -OEChem-04052301543D

 83 91  0     1  0  0  0  0  0999 V2000
  -24.9027  -22.9041   19.5068 C   0  0  0  0  0  0  0  0  0  0  0  0
  -26.0237  -22.6932   20.3033 C   0  0  0  0  0  0  0  0  0  0  0  0
  -23.0745   -9.8760   19.9384 C   0  0  0  0  0  0  0  0  0  0  0  0
  -23.8356   -9.8776   22.2314 C   0  0  0  0  0  0  0  0  0  0  0  0
  -24.6213  -24.1820   19.0256 C   0  0  0  0  0  0  0  0  0  0  0  0
  -26.8646  -23.7601   20.6181 C   0  0  0  0  0  0  0  0  0  0  0  0
  -28.1790  -23.8203   25.5083 C   0  0  0  0  0  0  0  0  0  0  0  0
  -22.3309   -8.7221   20.1861 C   0  0  0  0  0  0  0  0  0  0  0  0
  -23.0920   -8.7238   22.4791 C   0  0  0  0  0  0  0  0  0  0  0  0
  -29.1716  -22.9283   25.9118 C   0  0  0  0  0  0  0  0  0  0  0  0
  -19.3836   -7.9217   21.6371 C   0  0  0  0  0  0  0  0  0  0  0  0
  -18.0764   -7.8765   21.1525 C   0  0  0  0  0  0  0  0  0  0  0  0
  -30.7958  -24.7103   25.8348 C   0  0  0  0  0  0  0  0  0  0  0  0
  -29.8783  -17.4592   23.1503 C   0  0  0  0  0  0  0  0  0  0  0  0
  -32.0622  -16.6128   22.5577 C   0  0  0  0  0  0  0  0  0  0  0  0
  -18.6356   -5.9366   19.8253 C   0  0  0  0  0  0  0  0  0  0  0  0
  -23.8269  -10.4537   20.9611 C   0  0  0  0  0  0  0  0  0  0  0  0
  -31.8520  -18.3597   24.2134 C   0  0  0  0  0  0  0  0  0  0  0  0
  -24.1684  -12.9792   20.8468 C   0  0  0  0  0  0  0  0  0  0  0  0
  -25.4538  -25.2670   19.3427 C   0  0  0  0  0  0  0  0  0  0  0  0
  -28.4900  -25.1638   25.2540 C   0  0  0  0  0  0  0  0  0  0  0  0
  -26.5948  -25.0536   20.1396 C   0  0  0  0  0  0  0  0  0  0  0  0
  -29.8048  -25.6179   25.4307 C   0  0  0  0  0  0  0  0  0  0  0  0
  -30.4661  -18.3416   24.0566 C   0  0  0  0  0  0  0  0  0  0  0  0
  -32.6501  -17.4953   23.4639 C   0  0  0  0  0  0  0  0  0  0  0  0
  -30.6763  -16.5947   22.4009 C   0  0  0  0  0  0  0  0  0  0  0  0
  -22.3396   -8.1461   21.4564 C   0  0  0  0  0  0  0  0  0  0  0  0
  -30.4808  -23.3726   26.0724 C   0  0  0  0  0  0  0  0  0  0  0  0
  -20.3168   -6.9745   21.2158 C   0  0  0  0  0  0  0  0  0  0  0  0
  -17.7024   -6.8839   20.2466 C   0  0  0  0  0  0  0  0  0  0  0  0
  -19.9428   -5.9819   20.3099 C   0  0  0  0  0  0  0  0  0  0  0  0
  -24.5957  -11.6453   20.7058 C   0  0  0  0  0  0  0  0  0  0  0  0
  -25.2602  -13.7296   20.4848 C   0  0  0  0  0  0  0  0  0  0  0  0
  -32.4736  -19.2929   25.1676 C   0  0  0  0  0  0  0  0  0  0  0  0
  -32.8980  -20.5316   24.8726 C   0  0  0  0  0  0  0  0  0  0  0  0
  -22.8980  -13.4938   21.2677 C   0  0  0  0  0  0  0  0  0  0  0  0
  -28.3474  -27.0554   22.7035 C   0  0  0  0  0  0  0  0  0  0  0  0
  -29.1913  -29.3464   24.8393 C   0  0  0  0  0  0  0  0  0  0  0  0
  -30.6705  -30.1316   27.8129 C   0  0  0  0  0  0  0  0  0  0  0  0
  -30.7264  -14.7755   20.6589 C   0  0  0  0  0  0  0  0  0  0  0  0
  -25.1350  -26.6211   18.7603 C   0  0  0  0  0  0  0  0  0  0  0  0
  -27.4027  -26.1193   24.8452 C   0  0  0  0  0  0  0  0  0  0  0  0
  -30.1867  -27.0548   25.1902 C   0  0  0  0  0  0  0  0  0  0  0  0
  -25.8694  -27.7686   19.4489 C   0  0  0  0  0  0  0  0  0  0  0  0
  -29.6110  -12.3672   18.2856 C   0  0  0  0  0  0  0  0  0  0  0  0
  -27.3444  -27.4253   19.6311 C   0  0  0  0  0  0  0  0  0  0  0  0
  -28.1716  -12.0744   18.7152 C   0  0  0  0  0  0  0  0  0  0  0  0
  -30.5267  -12.5933   19.4872 C   0  0  0  0  0  0  0  0  0  0  0  0
  -28.6204  -13.3142   20.8713 C   0  0  0  0  0  0  0  0  0  0  0  0
  -27.5172  -26.1902   20.5234 C   0  0  1  0  0  0  0  0  0  0  0  0
  -27.9321  -27.3509   24.1170 C   0  0  1  0  0  0  0  0  0  0  0  0
  -27.6470  -13.1436   19.6936 C   0  0  2  0  0  0  0  0  0  0  0  0
  -29.5764  -19.2510   24.8425 C   0  0  0  0  0  0  0  0  0  0  0  0
  -34.1389  -17.4838   23.6029 C   0  0  0  0  0  0  0  0  0  0  0  0
  -31.2417  -32.0917   29.2720 C   0  0  0  0  0  0  0  0  0  0  0  0
  -31.4967  -30.0609   22.9726 C   0  0  0  0  0  0  0  0  0  0  0  0
  -32.5494  -31.3154   24.8664 C   0  0  0  0  0  0  0  0  0  0  0  0
  -30.3266  -32.0258   23.9848 C   0  0  0  0  0  0  0  0  0  0  0  0
  -29.0061  -29.1094   30.0364 C   0  0  0  0  0  0  0  0  0  0  0  0
  -33.5402  -21.4486   25.8773 C   0  0  0  0  0  0  0  0  0  0  0  0
  -32.7785  -22.7623   26.0081 C   0  0  0  0  0  0  0  0  0  1  0  0
  -30.4985  -29.9039   25.3485 C   0  0  1  0  0  0  0  0  0  0  0  0
  -30.2158  -31.0126   28.9625 C   0  0  2  0  0  0  0  0  0  0  0  0
  -31.2113  -30.7989   24.2958 C   0  0  0  0  0  0  0  0  0  0  0  0
  -25.8603  -11.5506   20.2865 N   0  0  0  0  0  0  0  0  0  0  0  0
  -26.2370  -12.8345   20.1610 N   0  0  0  0  0  0  0  0  0  0  0  0
  -29.0893  -27.9491   24.7858 N   0  0  0  0  0  0  0  0  0  0  0  0
  -29.9681  -13.6219   20.3674 N   0  0  0  0  0  0  0  0  0  0  0  0
  -25.4704  -15.0613   20.4148 N   0  0  0  0  0  0  0  0  0  0  0  0
  -21.8864  -12.5837   21.6034 N   0  0  0  0  0  0  0  0  0  0  0  0
  -30.0793  -15.6986   21.4799 N   0  0  0  0  0  0  0  0  0  0  0  0
  -27.3350  -26.5426   21.9151 N   0  0  0  0  0  0  0  0  0  0  0  0
  -30.1914  -30.5845   26.6019 N   0  0  0  0  0  0  0  0  0  0  0  0
  -30.0085  -30.1950   30.1911 N   0  3  0  0  0  0  0  0  0  0  0  0
  -22.6617  -14.7243   21.3281 O   0  0  0  0  0  0  0  0  0  0  0  0
  -29.5006  -27.2778   22.3536 O   0  0  0  0  0  0  0  0  0  0  0  0
  -28.2912  -30.1221   24.5081 O   0  0  0  0  0  0  0  0  0  0  0  0
  -31.3826  -29.1428   27.9728 O   0  0  0  0  0  0  0  0  0  0  0  0
  -31.8552  -14.9455   20.1911 O   0  0  0  0  0  0  0  0  0  0  0  0
  -21.6140   -7.0203   21.6985 O   0  0  0  0  0  0  0  0  0  0  0  0
  -31.4517  -22.5039   26.4655 O   0  0  0  0  0  0  0  0  0  1  0  0
  -16.4467   -6.8397   19.7825 F   0  0  0  0  0  0  0  0  0  0  0  0
  -20.8346   -5.0684   19.9025 F   0  0  0  0  0  0  0  0  0  0  0  0
  1  2  1  0  0  0  0
  1  5  2  0  0  0  0
  2  6  2  0  0  0  0
  3  8  2  0  0  0  0
  3 17  1  0  0  0  0
  4  9  1  0  0  0  0
  4 17  2  0  0  0  0
  5 20  1  0  0  0  0
  6 22  1  0  0  0  0
  7 10  2  0  0  0  0
  7 21  1  0  0  0  0
  8 27  1  0  0  0  0
  9 27  2  0  0  0  0
 10 28  1  0  0  0  0
 11 12  2  0  0  0  0
 11 29  1  0  0  0  0
 12 30  1  0  0  0  0
 13 23  1  0  0  0  0
 13 28  2  0  0  0  0
 14 24  2  0  0  0  0
 14 26  1  0  0  0  0
 15 25  1  0  0  0  0
 15 26  2  0  0  0  0
 16 30  2  0  0  0  0
 16 31  1  0  0  0  0
 17 32  1  0  0  0  0
 18 24  1  0  0  0  0
 18 25  2  0  0  0  0
 18 34  1  0  0  0  0
 19 32  1  0  0  0  0
 19 33  2  0  0  0  0
 19 36  1  0  0  0  0
 20 22  2  0  0  0  0
 20 41  1  0  0  0  0
 21 23  2  0  0  0  0
 21 42  1  0  0  0  0
 22 50  1  0  0  0  0
 23 43  1  0  0  0  0
 24 53  1  0  0  0  0
 25 54  1  0  0  0  0
 26 71  1  0  0  0  0
 27 80  1  0  0  0  0
 28 81  1  0  0  0  0
 29 31  2  0  0  0  0
 29 80  1  0  0  0  0
 30 82  1  0  0  0  0
 31 83  1  0  0  0  0
 32 65  2  0  0  0  0
 33 66  1  0  0  0  0
 33 69  1  0  0  0  0
 34 35  2  0  0  0  0
 35 60  1  0  0  0  0
 36 70  1  0  0  0  0
 36 75  2  0  0  0  0
 37 51  1  0  0  0  0
 37 72  1  0  0  0  0
 37 76  2  0  0  0  0
 38 62  1  0  0  0  0
 38 67  1  0  0  0  0
 38 77  2  0  0  0  0
 39 63  1  0  0  0  0
 39 73  1  0  0  0  0
 39 78  2  0  0  0  0
 40 68  1  0  0  0  0
 40 71  1  0  0  0  0
 40 79  2  0  0  0  0
 41 44  1  0  0  0  0
 42 51  1  0  0  0  0
 43 67  1  0  0  0  0
 44 46  1  0  0  0  0
 45 47  1  0  0  0  0
 45 48  1  0  0  0  0
 46 50  1  0  0  0  0
 47 52  1  0  0  0  0
 48 68  1  0  0  0  0
 49 52  1  0  0  0  0
 49 68  1  0  0  0  0
 50 72  1  0  0  0  0
 51 67  1  0  0  0  0
 52 66  1  0  0  0  0
 55 63  1  0  0  0  0
 56 64  1  0  0  0  0
 57 64  1  0  0  0  0
 58 64  1  0  0  0  0
 59 74  1  0  0  0  0
 60 61  1  0  0  0  0
 61 81  1  0  0  0  0
 62 64  1  0  0  0  0
 62 73  1  0  0  0  0
 63 74  1  0  0  0  0
 65 66  1  0  0  0  0
M  CHG  1  74   1
M  ISO  4  40 100  61 101  71 100  81 101
M  END
> <Batch ID>
0120

> <Smiles>
CNC(C)C(=O)NC(C(=O)N1Cc2cc([101O:1][101CH2:1]CC=Cc3c(C)cc([100NH:0][100C:0](=O)N4CCCC(n5nc(-c6ccc(Oc7ccc(F)cc7F)cc6)c(C(N)=O)c5N)C4)cc3C)ccc2CC1C(=O)NC1CCCc2ccccc21)C(C)(C)C

> <Shape>
0.186

> <Color>
0.201

> <Negative vol penalty>
0.000

$$$$

  -OEChem-04052301543D

 85 93  0     1  0  0  0  0  0999 V2000
  -27.2177  -36.3345   25.5516 C   0  0  0  0  0  0  0  0  0  0  0  0
  -27.7977  -35.2110   24.9713 C   0  0  0  0  0  0  0  0  0  0  0  0
  -24.2802   -9.4582   21.9581 C   0  0  0  0  0  0  0  0  0  0  0  0
  -22.9317   -9.9636   20.0183 C   0  0  0  0  0  0  0  0  0  0  0  0
  -25.8828  -36.3002   25.9525 C   0  0  0  0  0  0  0  0  0  0  0  0
  -27.0432  -34.0519   24.7927 C   0  0  0  0  0  0  0  0  0  0  0  0
  -27.4709  -30.0568   20.1708 C   0  0  0  0  0  0  0  0  0  0  0  0
  -23.5129   -8.3175   22.1943 C   0  0  0  0  0  0  0  0  0  0  0  0
  -22.1644   -8.8229   20.2544 C   0  0  0  0  0  0  0  0  0  0  0  0
  -28.1179  -28.8278   20.0502 C   0  0  0  0  0  0  0  0  0  0  0  0
  -20.5015   -7.5761   23.5383 C   0  0  0  0  0  0  0  0  0  0  0  0
  -20.0895   -7.3330   24.8485 C   0  0  0  0  0  0  0  0  0  0  0  0
  -26.8354  -20.0400   18.1970 C   0  0  0  0  0  0  0  0  0  0  0  0
  -26.0585  -27.6968   20.5972 C   0  0  0  0  0  0  0  0  0  0  0  0
  -26.8375  -19.4763   15.4648 C   0  0  0  0  0  0  0  0  0  0  0  0
  -21.2694   -5.2247   24.8283 C   0  0  0  0  0  0  0  0  0  0  0  0
  -23.9895  -10.2813   20.8701 C   0  0  0  0  0  0  0  0  0  0  0  0
  -27.4275  -20.9306   17.3016 C   0  0  0  0  0  0  0  0  0  0  0  0
  -25.9460  -11.5541   19.8407 C   0  0  0  0  0  0  0  0  0  0  0  0
  -25.1089  -35.1433   25.7698 C   0  0  0  0  0  0  0  0  0  0  0  0
  -26.1133  -30.1156   20.5167 C   0  0  0  0  0  0  0  0  0  0  0  0
  -25.6971  -34.0016   25.1927 C   0  0  0  0  0  0  0  0  0  0  0  0
  -25.3960  -28.9278   20.7190 C   0  0  0  0  0  0  0  0  0  0  0  0
  -27.4285  -20.6488   15.9355 C   0  0  0  0  0  0  0  0  0  0  0  0
  -26.2454  -18.5856   16.3602 C   0  0  0  0  0  0  0  0  0  0  0  0
  -26.2443  -18.8674   17.7263 C   0  0  0  0  0  0  0  0  0  0  0  0
  -22.4550   -7.9999   21.3425 C   0  0  0  0  0  0  0  0  0  0  0  0
  -27.4125  -27.6476   20.2662 C   0  0  0  0  0  0  0  0  0  0  0  0
  -21.2974   -6.6435   22.8730 C   0  0  0  0  0  0  0  0  0  0  0  0
  -20.4735   -6.1573   25.4936 C   0  0  0  0  0  0  0  0  0  0  0  0
  -21.6814   -5.4679   23.5180 C   0  0  0  0  0  0  0  0  0  0  0  0
  -24.7814  -11.4600   20.6259 C   0  0  0  0  0  0  0  0  0  0  0  0
  -26.3134  -12.8747   19.9283 C   0  0  0  0  0  0  0  0  0  0  0  0
  -28.0443  -22.1604   17.8296 C   0  0  0  0  0  0  0  0  0  0  0  0
  -27.3849  -23.1152   18.5004 C   0  0  0  0  0  0  0  0  0  0  0  0
  -26.6341  -10.5387   19.0983 C   0  0  0  0  0  0  0  0  0  0  0  0
  -28.1018  -24.3301   18.9858 C   0  0  0  0  0  0  0  0  0  0  0  0
  -24.4686  -31.3367   22.9473 C   0  0  0  0  0  0  0  0  0  0  0  0
  -21.9136  -30.4473   21.1576 C   0  0  0  0  0  0  0  0  0  0  0  0
  -20.6466  -28.4181   18.7237 C   0  0  0  0  0  0  0  0  0  0  0  0
  -25.0484  -18.2968   19.8688 C   0  0  0  0  0  0  0  0  0  0  0  0
  -23.6834  -35.1383   26.2622 C   0  0  0  0  0  0  0  0  0  0  0  0
  -25.4234  -31.4484   20.6167 C   0  0  0  0  0  0  0  0  0  0  0  0
  -23.9320  -28.9359   21.0726 C   0  0  0  0  0  0  0  0  0  0  0  0
  -22.8472  -33.9939   25.6955 C   0  0  0  0  0  0  0  0  0  0  0  0
  -24.6313  -16.5680   22.9534 C   0  0  0  0  0  0  0  0  0  0  0  0
  -23.6132  -32.6778   25.7849 C   0  0  0  0  0  0  0  0  0  0  0  0
  -24.7289  -15.0927   22.5583 C   0  0  0  0  0  0  0  0  0  0  0  0
  -23.9141  -17.3944   21.8873 C   0  0  0  0  0  0  0  0  0  0  0  0
  -24.5550  -15.7864   20.1343 C   0  0  0  0  0  0  0  0  0  0  0  0
  -24.9044  -32.7338   24.9595 C   0  0  1  0  0  0  0  0  0  0  0  0
  -24.1646  -31.4066   21.4775 C   0  0  1  0  0  0  0  0  0  0  0  0
  -25.3269  -14.9256   21.1476 C   0  0  2  0  0  0  0  0  0  0  0  0
  -25.6190  -17.3377   15.8280 C   0  0  0  0  0  0  0  0  0  0  0  0
  -27.1779  -22.7956   14.6647 C   0  0  0  0  0  0  0  0  0  0  0  0
  -18.5160  -27.8983   17.5040 C   0  0  0  0  0  0  0  0  0  0  0  0
  -20.8862  -28.9362   23.6012 C   0  0  0  0  0  0  0  0  0  0  0  0
  -19.3198  -27.6984   22.0905 C   0  0  0  0  0  0  0  0  0  0  0  0
  -19.1277  -30.1744   22.3249 C   0  0  0  0  0  0  0  0  0  0  0  0
  -21.8228  -29.1656   16.1128 C   0  0  0  0  0  0  0  0  0  0  0  0
  -28.0544  -21.5800   14.9474 C   0  0  0  0  0  0  0  0  0  0  0  0
  -27.2496  -25.3364   19.7299 C   0  0  0  0  0  0  0  0  0  1  0  0
  -21.0738  -29.1984   21.0395 C   0  0  1  0  0  0  0  0  0  0  0  0
  -19.7961  -28.7193   17.5029 C   0  0  2  0  0  0  0  0  0  0  0  0
  -20.1299  -29.0014   22.2593 C   0  0  0  0  0  0  0  0  0  0  0  0
  -24.4322  -12.6277   21.1723 N   0  0  0  0  0  0  0  0  0  0  0  0
  -25.3830  -13.4680   20.7298 N   0  0  0  0  0  0  0  0  0  0  0  0
  -23.3036  -30.2641   21.1648 N   0  0  0  0  0  0  0  0  0  0  0  0
  -24.5379  -17.1891   20.5782 N   0  0  0  0  0  0  0  0  0  0  0  0
  -27.3384  -13.5745   19.3972 N   0  0  0  0  0  0  0  0  0  0  0  0
  -26.1210   -9.2346   19.1162 N   0  0  0  0  0  0  0  0  0  0  0  0
  -25.6475  -17.9753   18.6513 N   0  0  0  0  0  0  0  0  0  0  0  0
  -24.6117  -32.5711   23.5516 N   0  0  0  0  0  0  0  0  0  0  0  0
  -20.3827  -29.2909   19.7580 N   0  0  0  0  0  0  0  0  0  0  0  0
  -20.5517  -28.4101   16.2561 N   0  3  0  0  0  0  0  0  0  0  0  0
  -27.6824  -10.7771   18.4521 O   0  0  0  0  0  0  0  0  0  0  0  0
  -29.3028  -24.4993   18.7933 O   0  0  0  0  0  0  0  0  0  0  0  0
  -24.5648  -30.2437   23.4931 O   0  0  0  0  0  0  0  0  0  0  0  0
  -21.3569  -31.5455   21.2333 O   0  0  0  0  0  0  0  0  0  0  0  0
  -21.4608  -27.4980   18.7577 O   0  0  0  0  0  0  0  0  0  0  0  0
  -24.9848  -19.4426   20.3215 O   0  0  0  0  0  0  0  0  0  0  0  0
  -21.7063   -6.8868   21.5725 O   0  0  0  0  0  0  0  0  0  0  0  0
  -28.0417  -26.4466   20.1498 O   0  0  0  0  0  0  0  0  0  1  0  0
  -20.0790   -5.9247   26.7523 F   0  0  0  0  0  0  0  0  0  0  0  0
  -22.4469   -4.5688   22.8845 F   0  0  0  0  0  0  0  0  0  0  0  0
  1  2  1  0  0  0  0
  1  5  2  0  0  0  0
  2  6  2  0  0  0  0
  3  8  2  0  0  0  0
  3 17  1  0  0  0  0
  4  9  1  0  0  0  0
  4 17  2  0  0  0  0
  5 20  1  0  0  0  0
  6 22  1  0  0  0  0
  7 10  2  0  0  0  0
  7 21  1  0  0  0  0
  8 27  1  0  0  0  0
  9 27  2  0  0  0  0
 10 28  1  0  0  0  0
 11 12  2  0  0  0  0
 11 29  1  0  0  0  0
 12 30  1  0  0  0  0
 13 18  1  0  0  0  0
 13 26  2  0  0  0  0
 14 23  1  0  0  0  0
 14 28  2  0  0  0  0
 15 24  1  0  0  0  0
 15 25  2  0  0  0  0
 16 30  2  0  0  0  0
 16 31  1  0  0  0  0
 17 32  1  0  0  0  0
 18 24  2  0  0  0  0
 18 34  1  0  0  0  0
 19 32  1  0  0  0  0
 19 33  2  0  0  0  0
 19 36  1  0  0  0  0
 20 22  2  0  0  0  0
 20 42  1  0  0  0  0
 21 23  2  0  0  0  0
 21 43  1  0  0  0  0
 22 51  1  0  0  0  0
 23 44  1  0  0  0  0
 24 61  1  0  0  0  0
 25 26  1  0  0  0  0
 25 54  1  0  0  0  0
 26 72  1  0  0  0  0
 27 82  1  0  0  0  0
 28 83  1  0  0  0  0
 29 31  2  0  0  0  0
 29 82  1  0  0  0  0
 30 84  1  0  0  0  0
 31 85  1  0  0  0  0
 32 66  2  0  0  0  0
 33 67  1  0  0  0  0
 33 70  1  0  0  0  0
 34 35  2  0  0  0  0
 35 37  1  0  0  0  0
 36 71  1  0  0  0  0
 36 76  2  0  0  0  0
 37 62  1  0  0  0  0
 37 77  2  0  0  0  0
 38 52  1  0  0  0  0
 38 73  1  0  0  0  0
 38 78  2  0  0  0  0
 39 63  1  0  0  0  0
 39 68  1  0  0  0  0
 39 79  2  0  0  0  0
 40 64  1  0  0  0  0
 40 74  1  0  0  0  0
 40 80  2  0  0  0  0
 41 69  1  0  0  0  0
 41 72  1  0  0  0  0
 41 81  2  0  0  0  0
 42 45  1  0  0  0  0
 43 52  1  0  0  0  0
 44 68  1  0  0  0  0
 45 47  1  0  0  0  0
 46 48  1  0  0  0  0
 46 49  1  0  0  0  0
 47 51  1  0  0  0  0
 48 53  1  0  0  0  0
 49 69  1  0  0  0  0
 50 53  1  0  0  0  0
 50 69  1  0  0  0  0
 51 73  1  0  0  0  0
 52 68  1  0  0  0  0
 53 67  1  0  0  0  0
 55 61  1  0  0  0  0
 56 64  1  0  0  0  0
 57 65  1  0  0  0  0
 58 65  1  0  0  0  0
 59 65  1  0  0  0  0
 60 75  1  0  0  0  0
 62 83  1  0  0  0  0
 63 65  1  0  0  0  0
 63 74  1  0  0  0  0
 64 75  1  0  0  0  0
 66 67  1  0  0  0  0
M  CHG  1  75   1
M  ISO  4  41 100  62 101  72 100  83 101
M  END
> <Batch ID>
0120

> <Smiles>
CCc1cc(C)c([100NH:0][100C:0](=O)N2CCCC(n3nc(-c4ccc(Oc5ccc(F)cc5F)cc4)c(C(N)=O)c3N)C2)cc1C=CC(=O)[101CH2:1][101O:1]c1ccc2c(c1)CN(C(=O)C(NC(=O)C(C)NC)C(C)(C)C)C(C(=O)NC1CCCc3ccccc31)C2

> <Shape>
0.282

> <Color>
0.106

> <Negative vol penalty>
0.000

$$$$

  -OEChem-04052301543D

 86 94  0     1  0  0  0  0  0999 V2000
  -32.1474  -13.9327   21.5035 C   0  0  0  0  0  0  0  0  0  0  0  0
  -31.2890  -14.9187   21.9768 C   0  0  0  0  0  0  0  0  0  0  0  0
  -19.5372  -28.4785   22.4584 C   0  0  0  0  0  0  0  0  0  0  0  0
  -28.5160  -25.3930   18.3260 C   0  0  0  0  0  0  0  0  0  0  0  0
  -27.2033  -24.0061   19.8060 C   0  0  0  0  0  0  0  0  0  0  0  0
  -20.7367  -29.0323   22.9058 C   0  0  0  0  0  0  0  0  0  0  0  0
  -31.6699  -12.9600   20.6277 C   0  0  0  0  0  0  0  0  0  0  0  0
  -29.9502  -14.9253   21.5839 C   0  0  0  0  0  0  0  0  0  0  0  0
  -25.4922  -18.9047   22.7747 C   0  0  0  0  0  0  0  0  0  0  0  0
  -19.3827  -27.0929   22.4133 C   0  0  0  0  0  0  0  0  0  0  0  0
  -29.5965  -24.5227   18.4687 C   0  0  0  0  0  0  0  0  0  0  0  0
  -28.2839  -23.1357   19.9487 C   0  0  0  0  0  0  0  0  0  0  0  0
  -24.9512  -20.0492   22.1906 C   0  0  0  0  0  0  0  0  0  0  0  0
  -30.5788  -20.3551   20.4176 C   0  0  0  0  0  0  0  0  0  0  0  0
  -30.3249  -18.9860   20.3358 C   0  0  0  0  0  0  0  0  0  0  0  0
  -23.2313  -18.7050   21.1639 C   0  0  0  0  0  0  0  0  0  0  0  0
  -29.4761  -19.2774   18.0927 C   0  0  0  0  0  0  0  0  0  0  0  0
  -27.3193  -25.1348   18.9947 C   0  0  0  0  0  0  0  0  0  0  0  0
  -21.7817  -28.2005   23.3080 C   0  0  0  0  0  0  0  0  0  0  0  0
  -25.1810  -25.9697   17.8820 C   0  0  0  0  0  0  0  0  0  0  0  0
  -30.3274  -12.9628   20.2146 C   0  0  0  0  0  0  0  0  0  0  0  0
  -24.9121  -17.6481   22.5487 C   0  0  0  0  0  0  0  0  0  0  0  0
  -29.4435  -13.9380   20.7195 C   0  0  0  0  0  0  0  0  0  0  0  0
  -23.7652  -17.5464   21.7484 C   0  0  0  0  0  0  0  0  0  0  0  0
  -21.6272  -26.8149   23.2629 C   0  0  0  0  0  0  0  0  0  0  0  0
  -29.4805  -23.3940   19.2801 C   0  0  0  0  0  0  0  0  0  0  0  0
  -23.8223  -19.9491   21.3827 C   0  0  0  0  0  0  0  0  0  0  0  0
  -20.4277  -26.2611   22.8155 C   0  0  0  0  0  0  0  0  0  0  0  0
  -30.2813  -21.1854   19.3369 C   0  0  0  0  0  0  0  0  0  0  0  0
  -29.7736  -18.4472   19.1734 C   0  0  0  0  0  0  0  0  0  0  0  0
  -29.7300  -20.6466   18.1745 C   0  0  0  0  0  0  0  0  0  0  0  0
  -26.2029  -26.0338   18.8481 C   0  0  0  0  0  0  0  0  0  0  0  0
  -24.3703  -27.0408   18.1681 C   0  0  0  0  0  0  0  0  0  0  0  0
  -21.3969  -22.4796   20.6055 C   0  0  0  0  0  0  0  0  0  0  0  0
  -20.4740  -22.9303   21.4678 C   0  0  0  0  0  0  0  0  0  0  0  0
  -23.0226  -28.8076   23.7708 C   0  0  0  0  0  0  0  0  0  0  0  0
  -24.9823  -25.0262   16.8209 C   0  0  0  0  0  0  0  0  0  0  0  0
  -23.4770  -30.1189   23.2538 C   0  0  0  0  0  0  0  0  0  0  0  0
  -25.8902  -14.9331   21.2161 C   0  0  0  0  0  0  0  0  0  0  0  0
  -23.0347  -13.8315   22.2908 C   0  0  0  0  0  0  0  0  0  0  0  0
  -19.8362  -14.5307   23.2539 C   0  0  0  0  0  0  0  0  0  0  0  0
  -29.8618  -11.8817   19.2714 C   0  0  0  0  0  0  0  0  0  0  0  0
  -25.4919  -16.4267   23.2077 C   0  0  0  0  0  0  0  0  0  0  0  0
  -23.0928  -16.2236   21.4908 C   0  0  0  0  0  0  0  0  0  0  0  0
  -28.5532  -12.2287   18.5689 C   0  0  0  0  0  0  0  0  0  0  0  0
  -24.4671  -31.4232   20.0639 C   0  0  0  0  0  0  0  0  0  0  0  0
  -27.5248  -12.6972   19.5874 C   0  0  0  0  0  0  0  0  0  0  0  0
  -24.9676  -30.1873   19.3170 C   0  0  0  0  0  0  0  0  0  0  0  0
  -24.7784  -31.3387   21.5547 C   0  0  0  0  0  0  0  0  0  0  0  0
  -24.7512  -28.8608   21.4663 C   0  0  0  0  0  0  0  0  0  0  0  0
  -27.9906  -13.9831   20.2820 C   0  0  1  0  0  0  0  0  0  0  0  0
  -25.1232  -15.1303   22.4930 C   0  0  1  0  0  0  0  0  0  0  0  0
  -24.4303  -28.8972   19.9619 C   0  0  2  0  0  0  0  0  0  0  0  0
  -23.6184  -24.3849   25.5069 C   0  0  0  0  0  0  0  0  0  0  0  0
  -17.7289  -13.4196   24.0426 C   0  0  0  0  0  0  0  0  0  0  0  0
  -22.4662  -12.8940   19.4434 C   0  0  0  0  0  0  0  0  0  0  0  0
  -20.0524  -12.6766   20.0713 C   0  0  0  0  0  0  0  0  0  0  0  0
  -21.7705  -11.2873   21.2291 C   0  0  0  0  0  0  0  0  0  0  0  0
  -19.8843  -16.0012   25.8218 C   0  0  0  0  0  0  0  0  0  0  0  0
  -22.7429  -25.9153   23.6914 C   0  0  0  0  0  0  0  0  0  0  0  0
  -21.8852  -21.0683   20.5760 C   0  0  0  0  0  0  0  0  0  1  0  0
  -19.9769  -24.3388   21.4899 C   0  0  0  0  0  0  0  0  0  0  0  0
  -22.4995  -25.3248   25.0868 C   0  0  0  0  0  0  0  0  0  0  0  0
  -21.6354  -13.7621   21.7286 C   0  0  1  0  0  0  0  0  0  0  0  0
  -19.0285  -14.0895   24.4611 C   0  0  2  0  0  0  0  0  0  0  0  0
  -21.4947  -12.6798   20.6212 C   0  0  0  0  0  0  0  0  0  0  0  0
  -26.0571  -27.0643   19.6852 N   0  0  0  0  0  0  0  0  0  0  0  0
  -23.8030  -28.2516   24.6557 N   0  0  0  0  0  0  0  0  0  0  0  0
  -24.9342  -27.6576   19.2460 N   0  0  0  0  0  0  0  0  0  0  0  0
  -24.2869  -30.0870   22.1272 N   0  0  0  0  0  0  0  0  0  0  0  0
  -23.7009  -15.0574   22.1524 N   0  0  0  0  0  0  0  0  0  0  0  0
  -23.2373  -27.5059   17.6002 N   0  0  0  0  0  0  0  0  0  0  0  0
  -25.9100  -23.9868   16.6685 N   0  0  0  0  0  0  0  0  0  0  0  0
  -27.0957  -14.2777   21.3793 N   0  0  0  0  0  0  0  0  0  0  0  0
  -20.7464  -13.5691   22.8691 N   0  0  0  0  0  0  0  0  0  0  0  0
  -18.6976  -15.2618   25.3196 N   0  3  0  0  0  0  0  0  0  0  0  0
  -24.0197  -25.1120   16.0210 O   0  0  0  0  0  0  0  0  0  0  0  0
  -23.0875  -31.0961   23.8795 O   0  0  0  0  0  0  0  0  0  0  0  0
  -25.4222  -15.3438   20.1606 O   0  0  0  0  0  0  0  0  0  0  0  0
  -23.5162  -12.8369   22.8392 O   0  0  0  0  0  0  0  0  0  0  0  0
  -19.6733  -15.6181   22.7047 O   0  0  0  0  0  0  0  0  0  0  0  0
  -30.5347  -22.5444   19.4194 O   0  0  0  0  0  0  0  0  0  0  0  0
  -23.2927  -21.0646   20.8108 O   0  0  0  0  0  0  0  0  0  1  0  0
  -20.2569  -24.9019   22.7638 O   0  0  0  0  0  0  0  0  0  0  0  0
  -29.5313  -17.1322   19.0944 F   0  0  0  0  0  0  0  0  0  0  0  0
  -29.4432  -21.4390   17.1326 F   0  0  0  0  0  0  0  0  0  0  0  0
  1  2  1  0  0  0  0
  1  7  2  0  0  0  0
  2  8  2  0  0  0  0
  3  6  2  0  0  0  0
  3 10  1  0  0  0  0
  4 11  2  0  0  0  0
  4 18  1  0  0  0  0
  5 12  1  0  0  0  0
  5 18  2  0  0  0  0
  6 19  1  0  0  0  0
  7 21  1  0  0  0  0
  8 23  1  0  0  0  0
  9 13  2  0  0  0  0
  9 22  1  0  0  0  0
 10 28  2  0  0  0  0
 11 26  1  0  0  0  0
 12 26  2  0  0  0  0
 13 27  1  0  0  0  0
 14 15  2  0  0  0  0
 14 29  1  0  0  0  0
 15 30  1  0  0  0  0
 16 24  1  0  0  0  0
 16 27  2  0  0  0  0
 17 30  2  0  0  0  0
 17 31  1  0  0  0  0
 18 32  1  0  0  0  0
 19 25  2  0  0  0  0
 19 36  1  0  0  0  0
 20 32  1  0  0  0  0
 20 33  2  0  0  0  0
 20 37  1  0  0  0  0
 21 23  2  0  0  0  0
 21 42  1  0  0  0  0
 22 24  2  0  0  0  0
 22 43  1  0  0  0  0
 23 51  1  0  0  0  0
 24 44  1  0  0  0  0
 25 28  1  0  0  0  0
 25 60  1  0  0  0  0
 26 82  1  0  0  0  0
 27 83  1  0  0  0  0
 28 84  1  0  0  0  0
 29 31  2  0  0  0  0
 29 82  1  0  0  0  0
 30 85  1  0  0  0  0
 31 86  1  0  0  0  0
 32 67  2  0  0  0  0
 33 69  1  0  0  0  0
 33 72  1  0  0  0  0
 34 35  2  0  0  0  0
 34 61  1  0  0  0  0
 35 62  1  0  0  0  0
 36 38  1  0  0  0  0
 36 68  2  0  0  0  0
 37 73  1  0  0  0  0
 37 77  2  0  0  0  0
 38 70  1  0  0  0  0
 38 78  2  0  0  0  0
 39 52  1  0  0  0  0
 39 74  1  0  0  0  0
 39 79  2  0  0  0  0
 40 64  1  0  0  0  0
 40 71  1  0  0  0  0
 40 80  2  0  0  0  0
 41 65  1  0  0  0  0
 41 75  1  0  0  0  0
 41 81  2  0  0  0  0
 42 45  1  0  0  0  0
 43 52  1  0  0  0  0
 44 71  1  0  0  0  0
 45 47  1  0  0  0  0
 46 48  1  0  0  0  0
 46 49  1  0  0  0  0
 47 51  1  0  0  0  0
 48 53  1  0  0  0  0
 49 70  1  0  0  0  0
 50 53  1  0  0  0  0
 50 70  1  0  0  0  0
 51 74  1  0  0  0  0
 52 71  1  0  0  0  0
 53 69  1  0  0  0  0
 54 63  1  0  0  0  0
 55 65  1  0  0  0  0
 56 66  1  0  0  0  0
 57 66  1  0  0  0  0
 58 66  1  0  0  0  0
 59 76  1  0  0  0  0
 60 63  1  0  0  0  0
 61 83  1  0  0  0  0
 62 84  1  0  0  0  0
 64 66  1  0  0  0  0
 64 75  1  0  0  0  0
 65 76  1  0  0  0  0
 67 69  1  0  0  0  0
M  CHG  1  76   1
M  ISO  4  36 100  38 100  61 101  83 101
M  END
> <Batch ID>
0120

> <Smiles>
CCCc1c(OCC=C[101CH2:1][101O:1]c2ccc3c(c2)CN(C(=O)C(NC(=O)C(C)NC)C(C)(C)C)C(C(=O)NC2CCCc4ccccc42)C3)cccc1[100C:0](=N)[100C:0](=O)N1CCCC(n2nc(-c3ccc(Oc4ccc(F)cc4F)cc3)c(C(N)=O)c2N)C1

> <Shape>
0.251

> <Color>
0.065

> <Negative vol penalty>
0.000

$$$$

  -OEChem-04052301543D

 82 90  0     1  0  0  0  0  0999 V2000
  -27.5080  -37.7192   20.3732 C   0  0  0  0  0  0  0  0  0  0  0  0
  -27.9995  -36.4549   20.0642 C   0  0  0  0  0  0  0  0  0  0  0  0
  -24.2557   -8.7376   21.2607 C   0  0  0  0  0  0  0  0  0  0  0  0
  -22.9551  -10.5644   20.3616 C   0  0  0  0  0  0  0  0  0  0  0  0
  -26.6317  -37.8823   21.4453 C   0  0  0  0  0  0  0  0  0  0  0  0
  -27.6158  -35.3531   20.8279 C   0  0  0  0  0  0  0  0  0  0  0  0
  -26.7327  -29.6267   18.8444 C   0  0  0  0  0  0  0  0  0  0  0  0
  -23.1053   -8.2048   21.8422 C   0  0  0  0  0  0  0  0  0  0  0  0
  -21.8047  -10.0315   20.9432 C   0  0  0  0  0  0  0  0  0  0  0  0
  -27.5413  -28.4911   18.8667 C   0  0  0  0  0  0  0  0  0  0  0  0
  -21.1989   -8.7821   24.5730 C   0  0  0  0  0  0  0  0  0  0  0  0
  -21.2863   -8.3394   25.8928 C   0  0  0  0  0  0  0  0  0  0  0  0
  -26.4530  -27.7634   20.8929 C   0  0  0  0  0  0  0  0  0  0  0  0
  -20.6611   -6.1146   25.1880 C   0  0  0  0  0  0  0  0  0  0  0  0
  -26.8689  -20.0121   21.4046 C   0  0  0  0  0  0  0  0  0  0  0  0
  -24.1806   -9.9174   20.5204 C   0  0  0  0  0  0  0  0  0  0  0  0
  -27.7810  -20.2460   20.4019 C   0  0  0  0  0  0  0  0  0  0  0  0
  -25.8759  -10.1976   18.6349 C   0  0  0  0  0  0  0  0  0  0  0  0
  -26.2295  -36.7804   22.2165 C   0  0  0  0  0  0  0  0  0  0  0  0
  -25.7841  -29.8449   19.8538 C   0  0  0  0  0  0  0  0  0  0  0  0
  -26.7343  -35.5018   21.9121 C   0  0  0  0  0  0  0  0  0  0  0  0
  -25.6318  -28.9013   20.8797 C   0  0  0  0  0  0  0  0  0  0  0  0
  -28.1919  -18.9730   19.9395 C   0  0  0  0  0  0  0  0  0  0  0  0
  -21.8798   -8.8517   21.6835 C   0  0  0  0  0  0  0  0  0  0  0  0
  -27.4035  -27.5607   19.8926 C   0  0  0  0  0  0  0  0  0  0  0  0
  -20.8425   -7.8911   23.5606 C   0  0  0  0  0  0  0  0  0  0  0  0
  -21.0174   -7.0057   26.2003 C   0  0  0  0  0  0  0  0  0  0  0  0
  -20.5737   -6.5574   23.8681 C   0  0  0  0  0  0  0  0  0  0  0  0
  -25.3688  -10.4686   19.9198 C   0  0  0  0  0  0  0  0  0  0  0  0
  -27.5018  -18.0519   20.6928 C   0  0  0  0  0  0  0  0  0  0  0  0
  -27.0123  -10.9638   18.5456 C   0  0  0  0  0  0  0  0  0  0  0  0
  -28.2099  -21.5780   19.9398 C   0  0  0  0  0  0  0  0  0  0  0  0
  -27.7464  -22.7379   20.4259 C   0  0  0  0  0  0  0  0  0  0  0  0
  -25.3654   -9.3308   17.6132 C   0  0  0  0  0  0  0  0  0  0  0  0
  -28.2395  -24.0363   19.8813 C   0  0  0  0  0  0  0  0  0  0  0  0
  -25.3349  -32.0854   22.0634 C   0  0  0  0  0  0  0  0  0  0  0  0
  -28.6936  -15.9923   21.3739 C   0  0  0  0  0  0  0  0  0  0  0  0
  -22.5904  -30.4450   22.6103 C   0  0  0  0  0  0  0  0  0  0  0  0
  -20.8872  -27.4952   22.3994 C   0  0  0  0  0  0  0  0  0  0  0  0
  -25.3175  -37.0133   23.3950 C   0  0  0  0  0  0  0  0  0  0  0  0
  -24.9012  -31.0615   19.8008 C   0  0  0  0  0  0  0  0  0  0  0  0
  -24.6144  -29.0788   21.9759 C   0  0  0  0  0  0  0  0  0  0  0  0
  -24.6663  -35.7375   23.9227 C   0  0  0  0  0  0  0  0  0  0  0  0
  -30.4656  -12.8811   21.2321 C   0  0  0  0  0  0  0  0  0  0  0  0
  -25.7026  -34.6268   24.0605 C   0  0  0  0  0  0  0  0  0  0  0  0
  -29.3988  -11.8802   20.7902 C   0  0  0  0  0  0  0  0  0  0  0  0
  -29.8785  -13.9603   22.1363 C   0  0  0  0  0  0  0  0  0  0  0  0
  -27.6498  -13.6891   21.0965 C   0  0  0  0  0  0  0  0  0  0  0  0
  -26.3220  -34.2784   22.7017 C   0  0  1  0  0  0  0  0  0  0  0  0
  -24.3223  -31.4394   21.1607 C   0  0  1  0  0  0  0  0  0  0  0  0
  -28.1948  -12.5993   20.1564 C   0  0  2  0  0  0  0  0  0  0  0  0
  -29.1631  -18.6802   18.8672 C   0  0  0  0  0  0  0  0  0  0  0  0
  -18.6751  -26.4531   22.9633 C   0  0  0  0  0  0  0  0  0  0  0  0
  -23.4114  -30.2966   25.5453 C   0  0  0  0  0  0  0  0  0  0  0  0
  -21.7118  -28.4848   25.8569 C   0  0  0  0  0  0  0  0  0  0  0  0
  -20.9852  -30.7682   25.1632 C   0  0  0  0  0  0  0  0  0  0  0  0
  -20.3152  -26.8938   19.5586 C   0  0  0  0  0  0  0  0  0  0  0  0
  -27.4730  -16.5820   20.7133 C   0  0  0  0  0  0  0  0  0  0  0  0
  -27.6416  -25.2767   20.5110 C   0  0  0  0  0  0  0  0  0  1  0  0
  -22.1928  -29.2936   23.5020 C   0  0  1  0  0  0  0  0  0  0  0  0
  -19.4907  -27.1719   21.8999 C   0  0  2  0  0  0  0  0  0  0  0  0
  -22.0959  -29.7081   24.9974 C   0  0  0  0  0  0  0  0  0  0  0  0
  -26.1213  -11.3389   20.5982 N   0  0  0  0  0  0  0  0  0  0  0  0
  -27.1130  -11.6213   19.7363 N   0  0  0  0  0  0  0  0  0  0  0  0
  -23.7791  -30.2876   21.8836 N   0  0  0  0  0  0  0  0  0  0  0  0
  -28.7235  -14.6041   21.5080 N   0  0  0  0  0  0  0  0  0  0  0  0
  -27.9253  -11.1325   17.5656 N   0  0  0  0  0  0  0  0  0  0  0  0
  -24.1869   -8.6171   17.8700 N   0  0  0  0  0  0  0  0  0  0  0  0
  -25.4147  -33.4583   21.9280 N   0  0  0  0  0  0  0  0  0  0  0  0
  -20.9535  -28.7581   22.9489 N   0  0  0  0  0  0  0  0  0  0  0  0
  -19.5610  -26.3007   20.6928 N   0  3  0  0  0  0  0  0  0  0  0  0
  -25.9464   -9.1806   16.5117 O   0  0  0  0  0  0  0  0  0  0  0  0
  -29.0746  -24.0917   18.9827 O   0  0  0  0  0  0  0  0  0  0  0  0
  -25.9941  -31.3900   22.8273 O   0  0  0  0  0  0  0  0  0  0  0  0
  -29.5939  -16.7444   21.7561 O   0  0  0  0  0  0  0  0  0  0  0  0
  -21.8692  -31.4442   22.5550 O   0  0  0  0  0  0  0  0  0  0  0  0
  -21.8246  -26.7049   22.3142 O   0  0  0  0  0  0  0  0  0  0  0  0
  -26.6932  -18.6772   21.5882 O   0  0  0  0  0  0  0  0  0  0  0  0
  -20.7570   -8.3319   22.2507 O   0  0  0  0  0  0  0  0  0  0  0  0
  -28.1919  -26.4518   19.9172 O   0  0  0  0  0  0  0  0  0  1  0  0
  -21.1029   -6.5803   27.4676 F   0  0  0  0  0  0  0  0  0  0  0  0
  -20.2320   -5.6964   22.8997 F   0  0  0  0  0  0  0  0  0  0  0  0
  1  2  1  0  0  0  0
  1  5  2  0  0  0  0
  2  6  2  0  0  0  0
  3  8  2  0  0  0  0
  3 16  1  0  0  0  0
  4  9  1  0  0  0  0
  4 16  2  0  0  0  0
  5 19  1  0  0  0  0
  6 21  1  0  0  0  0
  7 10  2  0  0  0  0
  7 20  1  0  0  0  0
  8 24  1  0  0  0  0
  9 24  2  0  0  0  0
 10 25  1  0  0  0  0
 11 12  2  0  0  0  0
 11 26  1  0  0  0  0
 12 27  1  0  0  0  0
 13 22  1  0  0  0  0
 13 25  2  0  0  0  0
 14 27  2  0  0  0  0
 14 28  1  0  0  0  0
 15 17  2  0  0  0  0
 15 78  1  0  0  0  0
 16 29  1  0  0  0  0
 17 23  1  0  0  0  0
 17 32  1  0  0  0  0
 18 29  1  0  0  0  0
 18 31  2  0  0  0  0
 18 34  1  0  0  0  0
 19 21  2  0  0  0  0
 19 40  1  0  0  0  0
 20 22  2  0  0  0  0
 20 41  1  0  0  0  0
 21 49  1  0  0  0  0
 22 42  1  0  0  0  0
 23 30  2  0  0  0  0
 23 52  1  0  0  0  0
 24 79  1  0  0  0  0
 25 80  1  0  0  0  0
 26 28  2  0  0  0  0
 26 79  1  0  0  0  0
 27 81  1  0  0  0  0
 28 82  1  0  0  0  0
 29 63  2  0  0  0  0
 30 58  1  0  0  0  0
 30 78  1  0  0  0  0
 31 64  1  0  0  0  0
 31 67  1  0  0  0  0
 32 33  2  0  0  0  0
 33 35  1  0  0  0  0
 34 68  1  0  0  0  0
 34 72  2  0  0  0  0
 35 59  1  0  0  0  0
 35 73  2  0  0  0  0
 36 50  1  0  0  0  0
 36 69  1  0  0  0  0
 36 74  2  0  0  0  0
 37 58  1  0  0  0  0
 37 66  1  0  0  0  0
 37 75  2  0  0  0  0
 38 60  1  0  0  0  0
 38 65  1  0  0  0  0
 38 76  2  0  0  0  0
 39 61  1  0  0  0  0
 39 70  1  0  0  0  0
 39 77  2  0  0  0  0
 40 43  1  0  0  0  0
 41 50  1  0  0  0  0
 42 65  1  0  0  0  0
 43 45  1  0  0  0  0
 44 46  1  0  0  0  0
 44 47  1  0  0  0  0
 45 49  1  0  0  0  0
 46 51  1  0  0  0  0
 47 66  1  0  0  0  0
 48 51  1  0  0  0  0
 48 66  1  0  0  0  0
 49 69  1  0  0  0  0
 50 65  1  0  0  0  0
 51 64  1  0  0  0  0
 53 61  1  0  0  0  0
 54 62  1  0  0  0  0
 55 62  1  0  0  0  0
 56 62  1  0  0  0  0
 57 71  1  0  0  0  0
 59 80  1  0  0  0  0
 60 62  1  0  0  0  0
 60 70  1  0  0  0  0
 61 71  1  0  0  0  0
 63 64  1  0  0  0  0
M  CHG  1  71   1
M  ISO  4  37 100  58 100  59 101  80 101
M  END
> <Batch ID>
0120

> <Smiles>
CNC(C)C(=O)NC(C(=O)N1Cc2cc([101O:1][101CH2:1]C(=O)C=Cc3coc([100CH2:0][100C:0](=O)N4CCCC(n5nc(-c6ccc(Oc7ccc(F)cc7F)cc6)c(C(N)=O)c5N)C4)c3C)ccc2CC1C(=O)NC1CCCc2ccccc21)C(C)(C)C

> <Shape>
0.322

> <Color>
0.102

> <Negative vol penalty>
0.000

$$$$

  -OEChem-04052301543D

 85 93  0     1  0  0  0  0  0999 V2000
  -23.4623   -7.4260   22.6635 C   0  0  0  0  0  0  0  0  0  0  0  0
  -24.1395   -8.2920   21.8109 C   0  0  0  0  0  0  0  0  0  0  0  0
  -24.8716  -31.5078   21.0024 C   0  0  0  0  0  0  0  0  0  0  0  0
  -24.9202  -30.2248   23.0490 C   0  0  0  0  0  0  0  0  0  0  0  0
  -27.8071  -19.1204   20.6848 C   0  0  0  0  0  0  0  0  0  0  0  0
  -22.1472   -7.7023   23.0351 C   0  0  0  0  0  0  0  0  0  0  0  0
  -23.5015   -9.4342   21.3285 C   0  0  0  0  0  0  0  0  0  0  0  0
  -26.4442  -13.5488   21.5634 C   0  0  0  0  0  0  0  0  0  0  0  0
  -27.1468  -20.2326   20.1626 C   0  0  0  0  0  0  0  0  0  0  0  0
  -24.2406  -32.5550   21.6737 C   0  0  0  0  0  0  0  0  0  0  0  0
  -24.2891  -31.2720   23.7204 C   0  0  0  0  0  0  0  0  0  0  0  0
  -27.4227  -13.6888   20.5802 C   0  0  0  0  0  0  0  0  0  0  0  0
  -22.9419  -35.7091   22.9307 C   0  0  0  0  0  0  0  0  0  0  0  0
  -23.4085  -37.0029   22.6986 C   0  0  0  0  0  0  0  0  0  0  0  0
  -25.9979  -15.2292   19.3902 C   0  0  0  0  0  0  0  0  0  0  0  0
  -28.9780  -21.6465   20.8588 C   0  0  0  0  0  0  0  0  0  0  0  0
  -25.5880  -36.3648   23.5231 C   0  0  0  0  0  0  0  0  0  0  0  0
  -25.2114  -30.3427   21.6900 C   0  0  0  0  0  0  0  0  0  0  0  0
  -29.0528  -19.2712   21.2941 C   0  0  0  0  0  0  0  0  0  0  0  0
  -27.2477  -29.0625   20.8402 C   0  0  0  0  0  0  0  0  0  0  0  0
  -21.4960   -8.8535   22.5646 C   0  0  0  0  0  0  0  0  0  0  0  0
  -25.2288  -14.2407   21.4617 C   0  0  0  0  0  0  0  0  0  0  0  0
  -22.1760   -9.7254   21.6930 C   0  0  0  0  0  0  0  0  0  0  0  0
  -25.0067  -15.0983   20.3747 C   0  0  0  0  0  0  0  0  0  0  0  0
  -29.6382  -20.5343   21.3811 C   0  0  0  0  0  0  0  0  0  0  0  0
  -27.7323  -21.4956   20.2496 C   0  0  0  0  0  0  0  0  0  0  0  0
  -23.9493  -32.4371   23.0328 C   0  0  0  0  0  0  0  0  0  0  0  0
  -27.1985  -14.5269   19.4919 C   0  0  0  0  0  0  0  0  0  0  0  0
  -23.7983  -34.7431   23.4591 C   0  0  0  0  0  0  0  0  0  0  0  0
  -24.7315  -37.3308   22.9948 C   0  0  0  0  0  0  0  0  0  0  0  0
  -25.1213  -35.0710   23.7553 C   0  0  0  0  0  0  0  0  0  0  0  0
  -25.8628  -29.2604   20.9969 C   0  0  0  0  0  0  0  0  0  0  0  0
  -27.3486  -27.9025   20.1117 C   0  0  0  0  0  0  0  0  0  0  0  0
  -30.0468  -16.9769   20.8752 C   0  0  0  0  0  0  0  0  0  0  0  0
  -30.3112  -17.2535   19.5912 C   0  0  0  0  0  0  0  0  0  0  0  0
  -29.7346  -18.0664   21.8436 C   0  0  0  0  0  0  0  0  0  0  0  0
  -28.3449  -29.8562   21.3112 C   0  0  0  0  0  0  0  0  0  0  0  0
  -22.1769  -13.3887   21.2100 C   0  0  0  0  0  0  0  0  0  0  0  0
  -21.6663  -16.5783   21.5060 C   0  0  0  0  0  0  0  0  0  0  0  0
  -22.8767  -19.7505   21.1608 C   0  0  0  0  0  0  0  0  0  0  0  0
  -25.8200  -22.6482   19.0829 C   0  0  0  0  0  0  0  0  0  0  0  0
  -20.0580   -9.0853   22.9561 C   0  0  0  0  0  0  0  0  0  0  0  0
  -24.1943  -14.0996   22.5444 C   0  0  0  0  0  0  0  0  0  0  0  0
  -23.7269  -15.8790   20.2292 C   0  0  0  0  0  0  0  0  0  0  0  0
  -19.5794  -10.5120   22.6999 C   0  0  0  0  0  0  0  0  0  0  0  0
  -23.8116  -25.2272   17.6715 C   0  0  0  0  0  0  0  0  0  0  0  0
  -19.9992  -10.9741   21.3081 C   0  0  0  0  0  0  0  0  0  0  0  0
  -24.2802  -26.4901   18.3979 C   0  0  0  0  0  0  0  0  0  0  0  0
  -23.8003  -24.0119   18.5969 C   0  0  0  0  0  0  0  0  0  0  0  0
  -25.5303  -25.0215   20.0311 C   0  0  0  0  0  0  0  0  0  0  0  0
  -21.5262  -10.9875   21.1685 C   0  0  1  0  0  0  0  0  0  0  0  0
  -22.7866  -14.4547   22.0757 C   0  0  1  0  0  0  0  0  0  0  0  0
  -25.6204  -26.2588   19.1230 C   0  0  2  0  0  0  0  0  0  0  0  0
  -30.9707  -20.7238   22.0296 C   0  0  0  0  0  0  0  0  0  0  0  0
  -22.2133  -22.1539   21.4456 C   0  0  0  0  0  0  0  0  0  0  0  0
  -20.0252  -16.4272   18.9381 C   0  0  0  0  0  0  0  0  0  0  0  0
  -20.1983  -18.9187   18.7633 C   0  0  0  0  0  0  0  0  0  0  0  0
  -19.0448  -17.8845   20.7185 C   0  0  0  0  0  0  0  0  0  0  0  0
  -24.9943  -20.2170   23.1749 C   0  0  0  0  0  0  0  0  0  0  0  0
  -30.6406  -16.2003   18.5721 C   0  0  0  0  0  0  0  0  0  0  0  0
  -29.6477  -16.1684   17.4093 C   0  0  0  0  0  0  0  0  0  0  0  0
  -28.2100  -15.9171   17.8487 C   0  0  0  0  0  0  0  0  0  1  0  0
  -21.5629  -17.7382   20.5452 C   0  0  1  0  0  0  0  0  0  0  0  0
  -22.8597  -20.9429   22.1001 C   0  0  2  0  0  0  0  0  0  0  0  0
  -20.2312  -17.7261   19.7427 C   0  0  0  0  0  0  0  0  0  0  0  0
  -25.1360  -28.3029   20.4145 N   0  0  0  0  0  0  0  0  0  0  0  0
  -30.0698  -18.0372   23.0941 N   0  0  0  0  0  0  0  0  0  0  0  0
  -26.0678  -27.4923   19.8847 N   0  0  0  0  0  0  0  0  0  0  0  0
  -22.7436  -15.7025   21.3106 N   0  0  0  0  0  0  0  0  0  0  0  0
  -25.1037  -23.8529   19.2455 N   0  0  0  0  0  0  0  0  0  0  0  0
  -28.4071  -27.2037   19.6493 N   0  0  0  0  0  0  0  0  0  0  0  0
  -28.0635  -31.0169   22.0447 N   0  0  0  0  0  0  0  0  0  0  0  0
  -27.0608  -22.6249   19.7188 N   0  0  0  0  0  0  0  0  0  0  0  0
  -22.0832  -12.1529   21.8211 N   0  0  0  0  0  0  0  0  0  0  0  0
  -21.7718  -18.9449   21.3381 N   0  0  0  0  0  0  0  0  0  0  0  0
  -24.2486  -21.3089   22.4977 N   0  3  0  0  0  0  0  0  0  0  0  0
  -29.5392  -29.5541   21.0743 O   0  0  0  0  0  0  0  0  0  0  0  0
  -21.8166  -13.6671   20.0722 O   0  0  0  0  0  0  0  0  0  0  0  0
  -20.8264  -16.4580   22.4014 O   0  0  0  0  0  0  0  0  0  0  0  0
  -23.7779  -19.5554   20.3482 O   0  0  0  0  0  0  0  0  0  0  0  0
  -25.3780  -21.7168   18.4053 O   0  0  0  0  0  0  0  0  0  0  0  0
  -23.3338  -33.4588   23.6883 O   0  0  0  0  0  0  0  0  0  0  0  0
  -28.1516  -14.6648   18.5304 O   0  0  0  0  0  0  0  0  0  1  0  0
  -25.1799  -38.5729   22.7703 F   0  0  0  0  0  0  0  0  0  0  0  0
  -25.9491  -34.1469   24.2620 F   0  0  0  0  0  0  0  0  0  0  0  0
  1  2  1  0  0  0  0
  1  6  2  0  0  0  0
  2  7  2  0  0  0  0
  3 10  2  0  0  0  0
  3 18  1  0  0  0  0
  4 11  1  0  0  0  0
  4 18  2  0  0  0  0
  5  9  2  0  0  0  0
  5 19  1  0  0  0  0
  6 21  1  0  0  0  0
  7 23  1  0  0  0  0
  8 12  2  0  0  0  0
  8 22  1  0  0  0  0
  9 26  1  0  0  0  0
 10 27  1  0  0  0  0
 11 27  2  0  0  0  0
 12 28  1  0  0  0  0
 13 14  2  0  0  0  0
 13 29  1  0  0  0  0
 14 30  1  0  0  0  0
 15 24  1  0  0  0  0
 15 28  2  0  0  0  0
 16 25  1  0  0  0  0
 16 26  2  0  0  0  0
 17 30  2  0  0  0  0
 17 31  1  0  0  0  0
 18 32  1  0  0  0  0
 19 25  2  0  0  0  0
 19 36  1  0  0  0  0
 20 32  1  0  0  0  0
 20 33  2  0  0  0  0
 20 37  1  0  0  0  0
 21 23  2  0  0  0  0
 21 42  1  0  0  0  0
 22 24  2  0  0  0  0
 22 43  1  0  0  0  0
 23 51  1  0  0  0  0
 24 44  1  0  0  0  0
 25 54  1  0  0  0  0
 26 73  1  0  0  0  0
 27 82  1  0  0  0  0
 28 83  1  0  0  0  0
 29 31  2  0  0  0  0
 29 82  1  0  0  0  0
 30 84  1  0  0  0  0
 31 85  1  0  0  0  0
 32 66  2  0  0  0  0
 33 68  1  0  0  0  0
 33 71  1  0  0  0  0
 34 35  2  0  0  0  0
 34 36  1  0  0  0  0
 35 60  1  0  0  0  0
 36 67  2  0  0  0  0
 37 72  1  0  0  0  0
 37 77  2  0  0  0  0
 38 52  1  0  0  0  0
 38 74  1  0  0  0  0
 38 78  2  0  0  0  0
 39 63  1  0  0  0  0
 39 69  1  0  0  0  0
 39 79  2  0  0  0  0
 40 64  1  0  0  0  0
 40 75  1  0  0  0  0
 40 80  2  0  0  0  0
 41 70  1  0  0  0  0
 41 73  1  0  0  0  0
 41 81  2  0  0  0  0
 42 45  1  0  0  0  0
 43 52  1  0  0  0  0
 44 69  1  0  0  0  0
 45 47  1  0  0  0  0
 46 48  1  0  0  0  0
 46 49  1  0  0  0  0
 47 51  1  0  0  0  0
 48 53  1  0  0  0  0
 49 70  1  0  0  0  0
 50 53  1  0  0  0  0
 50 70  1  0  0  0  0
 51 74  1  0  0  0  0
 52 69  1  0  0  0  0
 53 68  1  0  0  0  0
 55 64  1  0  0  0  0
 56 65  1  0  0  0  0
 57 65  1  0  0  0  0
 58 65  1  0  0  0  0
 59 76  1  0  0  0  0
 60 61  1  0  0  0  0
 61 62  1  0  0  0  0
 62 83  1  0  0  0  0
 63 65  1  0  0  0  0
 63 75  1  0  0  0  0
 64 76  1  0  0  0  0
 66 68  1  0  0  0  0
M  CHG  1  76   1
M  ISO  4  41 100  62 101  73 100  83 101
M  END
> <Batch ID>
0120

> <Smiles>
CNC(C)C(=O)NC(C(=O)N1Cc2cc([101O:1][101CH2:1]CCC=CC(=N)c3ccc([100NH:0][100C:0](=O)N4CCCC(n5nc(-c6ccc(Oc7ccc(F)cc7F)cc6)c(C(N)=O)c5N)C4)cc3C)ccc2CC1C(=O)NC1CCCc2ccccc21)C(C)(C)C

> <Shape>
0.257

> <Color>
0.053

> <Negative vol penalty>
0.000

$$$$

  -OEChem-04052301543D

 85 93  0     1  0  0  0  0  0999 V2000
  -36.1682  -32.7315   29.7443 C   0  0  0  0  0  0  0  0  0  0  0  0
  -36.0388  -31.5643   28.9984 C   0  0  0  0  0  0  0  0  0  0  0  0
  -22.9998   -9.8938   19.9806 C   0  0  0  0  0  0  0  0  0  0  0  0
  -23.7249   -9.9443   22.2846 C   0  0  0  0  0  0  0  0  0  0  0  0
  -35.4485  -33.8703   29.3850 C   0  0  0  0  0  0  0  0  0  0  0  0
  -35.1887  -31.5350   27.8934 C   0  0  0  0  0  0  0  0  0  0  0  0
  -36.0191  -28.4110   22.6917 C   0  0  0  0  0  0  0  0  0  0  0  0
  -22.2329   -8.7595   20.2467 C   0  0  0  0  0  0  0  0  0  0  0  0
  -22.9580   -8.8099   22.5508 C   0  0  0  0  0  0  0  0  0  0  0  0
  -35.5199  -27.1897   22.2412 C   0  0  0  0  0  0  0  0  0  0  0  0
  -23.2015   -5.4710   22.0785 C   0  0  0  0  0  0  0  0  0  0  0  0
  -23.7887   -4.4536   22.8304 C   0  0  0  0  0  0  0  0  0  0  0  0
  -30.2998  -19.1934   22.5585 C   0  0  0  0  0  0  0  0  0  0  0  0
  -33.7710  -28.3500   21.0519 C   0  0  0  0  0  0  0  0  0  0  0  0
  -31.9701  -17.0021   22.1219 C   0  0  0  0  0  0  0  0  0  0  0  0
  -22.0648   -4.6967   24.5056 C   0  0  0  0  0  0  0  0  0  0  0  0
  -23.7458  -10.4862   20.9995 C   0  0  0  0  0  0  0  0  0  0  0  0
  -29.7607  -17.9796   22.1326 C   0  0  0  0  0  0  0  0  0  0  0  0
  -24.1318  -13.0017   20.8238 C   0  0  0  0  0  0  0  0  0  0  0  0
  -34.5966  -33.8578   28.2694 C   0  0  0  0  0  0  0  0  0  0  0  0
  -35.3904  -29.6124   22.3340 C   0  0  0  0  0  0  0  0  0  0  0  0
  -34.4560  -32.6743   27.5197 C   0  0  0  0  0  0  0  0  0  0  0  0
  -34.2657  -29.5854   21.4971 C   0  0  0  0  0  0  0  0  0  0  0  0
  -32.5092  -18.2160   22.5479 C   0  0  0  0  0  0  0  0  0  0  0  0
  -30.5958  -16.8839   21.9143 C   0  0  0  0  0  0  0  0  0  0  0  0
  -22.2120   -8.2175   21.5318 C   0  0  0  0  0  0  0  0  0  0  0  0
  -34.3940  -27.1589   21.4235 C   0  0  0  0  0  0  0  0  0  0  0  0
  -22.0459   -6.1014   22.5401 C   0  0  0  0  0  0  0  0  0  0  0  0
  -31.6741  -19.3117   22.7661 C   0  0  0  0  0  0  0  0  0  0  0  0
  -23.2204   -4.0664   24.0440 C   0  0  0  0  0  0  0  0  0  0  0  0
  -21.4776   -5.7142   23.7537 C   0  0  0  0  0  0  0  0  0  0  0  0
  -24.5386  -11.6576   20.7251 C   0  0  0  0  0  0  0  0  0  0  0  0
  -25.2417  -13.7240   20.4596 C   0  0  0  0  0  0  0  0  0  0  0  0
  -27.6627  -18.6251   21.0385 C   0  0  0  0  0  0  0  0  0  0  0  0
  -28.3197  -17.8946   21.9258 C   0  0  0  0  0  0  0  0  0  0  0  0
  -22.8640  -13.5484   21.2104 C   0  0  0  0  0  0  0  0  0  0  0  0
  -33.9493  -31.9522   23.9316 C   0  0  0  0  0  0  0  0  0  0  0  0
  -33.8437  -33.3553   21.0088 C   0  0  0  0  0  0  0  0  0  0  0  0
  -33.8639  -32.9874   17.6160 C   0  0  0  0  0  0  0  0  0  0  0  0
  -30.7215  -14.6836   20.6939 C   0  0  0  0  0  0  0  0  0  0  0  0
  -33.8031  -35.0994   27.9480 C   0  0  0  0  0  0  0  0  0  0  0  0
  -35.9571  -30.9232   22.8065 C   0  0  0  0  0  0  0  0  0  0  0  0
  -33.5662  -30.8483   21.0678 C   0  0  0  0  0  0  0  0  0  0  0  0
  -33.2098  -35.0960   26.5414 C   0  0  0  0  0  0  0  0  0  0  0  0
  -29.6026  -12.2313   18.3676 C   0  0  0  0  0  0  0  0  0  0  0  0
  -32.5444  -33.7556   26.2459 C   0  0  0  0  0  0  0  0  0  0  0  0
  -28.1519  -11.9740   18.7816 C   0  0  0  0  0  0  0  0  0  0  0  0
  -30.5032  -12.4744   19.5774 C   0  0  0  0  0  0  0  0  0  0  0  0
  -28.5880  -13.2636   20.9110 C   0  0  0  0  0  0  0  0  0  0  0  0
  -33.5628  -32.6104   26.2998 C   0  0  1  0  0  0  0  0  0  0  0  0
  -34.9329  -32.0538   22.8003 C   0  0  1  0  0  0  0  0  0  0  0  0
  -27.6303  -13.0776   19.7227 C   0  0  2  0  0  0  0  0  0  0  0  0
  -33.9824  -18.3266   22.7641 C   0  0  0  0  0  0  0  0  0  0  0  0
  -33.7259  -34.3133   15.4899 C   0  0  0  0  0  0  0  0  0  0  0  0
  -30.8395  -33.6965   21.4195 C   0  0  0  0  0  0  0  0  0  0  0  0
  -30.6230  -34.1263   18.9625 C   0  0  0  0  0  0  0  0  0  0  0  0
  -31.9807  -35.6647   20.3812 C   0  0  0  0  0  0  0  0  0  0  0  0
  -36.5441  -32.0855   16.7431 C   0  0  0  0  0  0  0  0  0  0  0  0
  -32.9698  -23.8332   21.6146 C   0  0  0  0  0  0  0  0  0  0  0  0
  -33.1253  -22.6114   22.5134 C   0  0  0  0  0  0  0  0  0  0  0  0
  -34.0979  -24.8339   21.8270 C   0  0  0  0  0  0  0  0  0  1  0  0
  -31.9754  -21.6306   22.3328 C   0  0  0  0  0  0  0  0  0  0  0  0
  -32.8670  -33.3555   19.8577 C   0  0  1  0  0  0  0  0  0  0  0  0
  -34.6500  -33.6998   16.5302 C   0  0  2  0  0  0  0  0  0  0  0  0
  -31.5893  -34.1867   20.1647 C   0  0  0  0  0  0  0  0  0  0  0  0
  -25.8078  -11.5308   20.3289 N   0  0  0  0  0  0  0  0  0  0  0  0
  -26.2082  -12.8045   20.1755 N   0  0  0  0  0  0  0  0  0  0  0  0
  -34.1545  -32.1046   21.5610 N   0  0  0  0  0  0  0  0  0  0  0  0
  -29.9484  -13.5353   20.4208 N   0  0  0  0  0  0  0  0  0  0  0  0
  -25.4756  -15.0497   20.3577 N   0  0  0  0  0  0  0  0  0  0  0  0
  -21.8319  -12.6645   21.5538 N   0  0  0  0  0  0  0  0  0  0  0  0
  -30.0774  -15.6389   21.4795 N   0  0  0  0  0  0  0  0  0  0  0  0
  -34.3578  -32.5838   25.0907 N   0  0  0  0  0  0  0  0  0  0  0  0
  -33.6121  -33.8143   18.6903 N   0  0  0  0  0  0  0  0  0  0  0  0
  -35.5645  -32.7453   15.8420 N   0  3  0  0  0  0  0  0  0  0  0  0
  -22.6476  -14.7837   21.2343 O   0  0  0  0  0  0  0  0  0  0  0  0
  -32.8969  -31.3469   23.7647 O   0  0  0  0  0  0  0  0  0  0  0  0
  -34.3189  -34.4247   21.3989 O   0  0  0  0  0  0  0  0  0  0  0  0
  -33.5056  -31.8157   17.5191 O   0  0  0  0  0  0  0  0  0  0  0  0
  -31.8602  -14.8223   20.2399 O   0  0  0  0  0  0  0  0  0  0  0  0
  -21.4637   -7.1108   21.7920 O   0  0  0  0  0  0  0  0  0  0  0  0
  -33.9044  -25.9681   20.9829 O   0  0  0  0  0  0  0  0  0  1  0  0
  -32.1870  -20.5124   23.1836 O   0  0  0  0  0  0  0  0  0  0  0  0
  -23.7836   -3.0882   24.7653 F   0  0  0  0  0  0  0  0  0  0  0  0
  -20.3669   -6.3153   24.2017 F   0  0  0  0  0  0  0  0  0  0  0  0
  1  2  1  0  0  0  0
  1  5  2  0  0  0  0
  2  6  2  0  0  0  0
  3  8  2  0  0  0  0
  3 17  1  0  0  0  0
  4  9  1  0  0  0  0
  4 17  2  0  0  0  0
  5 20  1  0  0  0  0
  6 22  1  0  0  0  0
  7 10  2  0  0  0  0
  7 21  1  0  0  0  0
  8 26  1  0  0  0  0
  9 26  2  0  0  0  0
 10 27  1  0  0  0  0
 11 12  2  0  0  0  0
 11 28  1  0  0  0  0
 12 30  1  0  0  0  0
 13 18  1  0  0  0  0
 13 29  2  0  0  0  0
 14 23  1  0  0  0  0
 14 27  2  0  0  0  0
 15 24  2  0  0  0  0
 15 25  1  0  0  0  0
 16 30  2  0  0  0  0
 16 31  1  0  0  0  0
 17 32  1  0  0  0  0
 18 25  2  0  0  0  0
 18 35  1  0  0  0  0
 19 32  1  0  0  0  0
 19 33  2  0  0  0  0
 19 36  1  0  0  0  0
 20 22  2  0  0  0  0
 20 41  1  0  0  0  0
 21 23  2  0  0  0  0
 21 42  1  0  0  0  0
 22 50  1  0  0  0  0
 23 43  1  0  0  0  0
 24 29  1  0  0  0  0
 24 53  1  0  0  0  0
 25 72  1  0  0  0  0
 26 81  1  0  0  0  0
 27 82  1  0  0  0  0
 28 31  2  0  0  0  0
 28 81  1  0  0  0  0
 29 83  1  0  0  0  0
 30 84  1  0  0  0  0
 31 85  1  0  0  0  0
 32 66  2  0  0  0  0
 33 67  1  0  0  0  0
 33 70  1  0  0  0  0
 34 35  2  0  0  0  0
 36 71  1  0  0  0  0
 36 76  2  0  0  0  0
 37 51  1  0  0  0  0
 37 73  1  0  0  0  0
 37 77  2  0  0  0  0
 38 63  1  0  0  0  0
 38 68  1  0  0  0  0
 38 78  2  0  0  0  0
 39 64  1  0  0  0  0
 39 74  1  0  0  0  0
 39 79  2  0  0  0  0
 40 69  1  0  0  0  0
 40 72  1  0  0  0  0
 40 80  2  0  0  0  0
 41 44  1  0  0  0  0
 42 51  1  0  0  0  0
 43 68  1  0  0  0  0
 44 46  1  0  0  0  0
 45 47  1  0  0  0  0
 45 48  1  0  0  0  0
 46 50  1  0  0  0  0
 47 52  1  0  0  0  0
 48 69  1  0  0  0  0
 49 52  1  0  0  0  0
 49 69  1  0  0  0  0
 50 73  1  0  0  0  0
 51 68  1  0  0  0  0
 52 67  1  0  0  0  0
 54 64  1  0  0  0  0
 55 65  1  0  0  0  0
 56 65  1  0  0  0  0
 57 65  1  0  0  0  0
 58 75  1  0  0  0  0
 59 60  1  0  0  0  0
 59 61  1  0  0  0  0
 60 62  1  0  0  0  0
 61 82  1  0  0  0  0
 62 83  1  0  0  0  0
 63 65  1  0  0  0  0
 63 74  1  0  0  0  0
 64 75  1  0  0  0  0
 66 67  1  0  0  0  0
M  CHG  1  75   1
M  ISO  4  40 100  61 101  72 100  82 101
M  END
> <Batch ID>
0120

> <Smiles>
C=Cc1cc(OCCC[101CH2:1][101O:1]c2ccc3c(c2)CN(C(=O)C(NC(=O)C(C)NC)C(C)(C)C)C(C(=O)NC2CCCc4ccccc42)C3)c(C)cc1[100NH:0][100C:0](=O)N1CCCC(n2nc(-c3ccc(Oc4ccc(F)cc4F)cc3)c(C(N)=O)c2N)C1

> <Shape>
0.184

> <Color>
0.198

> <Negative vol penalty>
0.000

$$$$

  -OEChem-04052301543D

 85 93  0     1  0  0  0  0  0999 V2000
  -28.3479  -37.0020   22.3566 C   0  0  0  0  0  0  0  0  0  0  0  0
  -28.7256  -35.7603   21.8555 C   0  0  0  0  0  0  0  0  0  0  0  0
  -23.0950   -9.9525   21.5587 C   0  0  0  0  0  0  0  0  0  0  0  0
  -23.8131  -10.9979   23.6151 C   0  0  0  0  0  0  0  0  0  0  0  0
  -27.3846  -37.0832   23.3612 C   0  0  0  0  0  0  0  0  0  0  0  0
  -28.1410  -34.5991   22.3596 C   0  0  0  0  0  0  0  0  0  0  0  0
  -26.8434  -29.4832   19.2531 C   0  0  0  0  0  0  0  0  0  0  0  0
  -22.3638   -9.0165   22.2899 C   0  0  0  0  0  0  0  0  0  0  0  0
  -23.0818  -10.0618   24.3463 C   0  0  0  0  0  0  0  0  0  0  0  0
  -27.5128  -28.2668   19.1276 C   0  0  0  0  0  0  0  0  0  0  0  0
  -22.9794   -6.1892   24.0368 C   0  0  0  0  0  0  0  0  0  0  0  0
  -23.0784   -4.8507   23.6570 C   0  0  0  0  0  0  0  0  0  0  0  0
  -29.7501  -18.3247   21.1033 C   0  0  0  0  0  0  0  0  0  0  0  0
  -26.1375  -27.3363   20.8774 C   0  0  0  0  0  0  0  0  0  0  0  0
  -20.6984   -4.7915   23.2453 C   0  0  0  0  0  0  0  0  0  0  0  0
  -31.9213  -17.3620   20.9771 C   0  0  0  0  0  0  0  0  0  0  0  0
  -23.8198  -10.9432   22.2213 C   0  0  0  0  0  0  0  0  0  0  0  0
  -30.3353  -19.5148   21.5208 C   0  0  0  0  0  0  0  0  0  0  0  0
  -24.1266  -13.1564   20.9902 C   0  0  0  0  0  0  0  0  0  0  0  0
  -26.7808  -35.9230   23.8711 C   0  0  0  0  0  0  0  0  0  0  0  0
  -25.8216  -29.6389   20.2008 C   0  0  0  0  0  0  0  0  0  0  0  0
  -27.1696  -34.6648   23.3729 C   0  0  0  0  0  0  0  0  0  0  0  0
  -25.4548  -28.5550   21.0111 C   0  0  0  0  0  0  0  0  0  0  0  0
  -30.5512  -17.2230   20.8242 C   0  0  0  0  0  0  0  0  0  0  0  0
  -22.3571   -9.0711   23.6837 C   0  0  0  0  0  0  0  0  0  0  0  0
  -27.1619  -27.1939   19.9418 C   0  0  0  0  0  0  0  0  0  0  0  0
  -21.7399   -6.8289   24.0209 C   0  0  0  0  0  0  0  0  0  0  0  0
  -21.9379   -4.1518   23.2613 C   0  0  0  0  0  0  0  0  0  0  0  0
  -20.5995   -6.1301   23.6251 C   0  0  0  0  0  0  0  0  0  0  0  0
  -24.5758  -11.9101   21.4666 C   0  0  0  0  0  0  0  0  0  0  0  0
  -31.7151  -19.5512   21.6427 C   0  0  0  0  0  0  0  0  0  0  0  0
  -25.2140  -13.6881   20.3412 C   0  0  0  0  0  0  0  0  0  0  0  0
  -29.4853  -20.6803   21.8159 C   0  0  0  0  0  0  0  0  0  0  0  0
  -28.6844  -21.2976   20.9330 C   0  0  0  0  0  0  0  0  0  0  0  0
  -22.8413  -13.7778   21.1226 C   0  0  0  0  0  0  0  0  0  0  0  0
  -25.3892  -31.4875   22.7502 C   0  0  0  0  0  0  0  0  0  0  0  0
  -28.2043  -23.6893   20.4190 C   0  0  0  0  0  0  0  0  0  0  0  0
  -22.4358  -30.1462   22.7378 C   0  0  0  0  0  0  0  0  0  0  0  0
  -20.4466  -27.5281   21.8238 C   0  0  0  0  0  0  0  0  0  0  0  0
  -30.6602  -14.8176   20.0836 C   0  0  0  0  0  0  0  0  0  0  0  0
  -25.7785  -36.0580   24.9900 C   0  0  0  0  0  0  0  0  0  0  0  0
  -25.0910  -30.9496   20.3052 C   0  0  0  0  0  0  0  0  0  0  0  0
  -24.3511  -28.6643   22.0301 C   0  0  0  0  0  0  0  0  0  0  0  0
  -24.9356  -34.8039   25.2072 C   0  0  0  0  0  0  0  0  0  0  0  0
  -29.6244  -11.5778   19.0310 C   0  0  0  0  0  0  0  0  0  0  0  0
  -25.8204  -33.5614   25.2190 C   0  0  0  0  0  0  0  0  0  0  0  0
  -28.1817  -11.4780   19.5316 C   0  0  0  0  0  0  0  0  0  0  0  0
  -30.5142  -12.3379   20.0130 C   0  0  0  0  0  0  0  0  0  0  0  0
  -28.5721  -13.5618   20.9072 C   0  0  0  0  0  0  0  0  0  0  0  0
  -26.5403  -33.3841   23.8766 C   0  0  1  0  0  0  0  0  0  0  0  0
  -24.4143  -31.1503   21.6577 C   0  0  1  0  0  0  0  0  0  0  0  0
  -27.6234  -12.8608   19.9212 C   0  0  2  0  0  0  0  0  0  0  0  0
  -32.5016  -21.8356   20.9726 C   0  0  0  0  0  0  0  0  0  0  0  0
  -18.0840  -26.6982   21.9877 C   0  0  0  0  0  0  0  0  0  0  0  0
  -22.9128  -29.3704   25.6499 C   0  0  0  0  0  0  0  0  0  0  0  0
  -20.9978  -27.7684   25.4641 C   0  0  0  0  0  0  0  0  0  0  0  0
  -20.6102  -30.2136   25.1588 C   0  0  0  0  0  0  0  0  0  0  0  0
  -20.1214  -27.5235   18.8822 C   0  0  0  0  0  0  0  0  0  0  0  0
  -32.4093  -20.7984   22.0869 C   0  0  0  0  0  0  0  0  0  0  0  0
  -27.8410  -22.4866   21.2785 C   0  0  0  0  0  0  0  0  0  0  0  0
  -27.4031  -24.9487   20.6881 C   0  0  0  0  0  0  0  0  0  1  0  0
  -21.8179  -28.9155   23.3564 C   0  0  1  0  0  0  0  0  0  0  0  0
  -19.0848  -27.4834   21.1543 C   0  0  2  0  0  0  0  0  0  0  0  0
  -21.6068  -29.0652   24.8896 C   0  0  0  0  0  0  0  0  0  0  0  0
  -32.5260  -18.5018   21.3805 N   0  0  0  0  0  0  0  0  0  0  0  0
  -25.8493  -11.6647   21.1473 N   0  0  0  0  0  0  0  0  0  0  0  0
  -26.2096  -12.7639   20.4633 N   0  0  0  0  0  0  0  0  0  0  0  0
  -23.6709  -29.9683   22.0987 N   0  0  0  0  0  0  0  0  0  0  0  0
  -29.9243  -13.6398   20.3326 N   0  0  0  0  0  0  0  0  0  0  0  0
  -25.4061  -14.8513   19.6837 N   0  0  0  0  0  0  0  0  0  0  0  0
  -21.8369  -13.0933   21.8204 N   0  0  0  0  0  0  0  0  0  0  0  0
  -29.9846  -15.9966   20.3969 N   0  0  0  0  0  0  0  0  0  0  0  0
  -25.6360  -32.8403   22.8862 N   0  0  0  0  0  0  0  0  0  0  0  0
  -20.5937  -28.6530   22.6075 N   0  0  0  0  0  0  0  0  0  0  0  0
  -19.1875  -26.8403   19.8139 N   0  3  0  0  0  0  0  0  0  0  0  0
  -22.5860  -14.8994   20.6224 O   0  0  0  0  0  0  0  0  0  0  0  0
  -25.8801  -30.5871   23.4211 O   0  0  0  0  0  0  0  0  0  0  0  0
  -29.0953  -23.6608   19.5709 O   0  0  0  0  0  0  0  0  0  0  0  0
  -21.8408  -31.2242   22.8125 O   0  0  0  0  0  0  0  0  0  0  0  0
  -21.2935  -26.6509   21.6701 O   0  0  0  0  0  0  0  0  0  0  0  0
  -31.7950  -14.7839   19.6008 O   0  0  0  0  0  0  0  0  0  0  0  0
  -21.6435   -8.1580   24.3974 O   0  0  0  0  0  0  0  0  0  0  0  0
  -27.8142  -26.0056   19.8219 O   0  0  0  0  0  0  0  0  0  1  0  0
  -22.0333   -2.8669   22.8952 F   0  0  0  0  0  0  0  0  0  0  0  0
  -19.4062   -6.7396   23.6067 F   0  0  0  0  0  0  0  0  0  0  0  0
  1  2  1  0  0  0  0
  1  5  2  0  0  0  0
  2  6  2  0  0  0  0
  3  8  2  0  0  0  0
  3 17  1  0  0  0  0
  4  9  1  0  0  0  0
  4 17  2  0  0  0  0
  5 20  1  0  0  0  0
  6 22  1  0  0  0  0
  7 10  2  0  0  0  0
  7 21  1  0  0  0  0
  8 25  1  0  0  0  0
  9 25  2  0  0  0  0
 10 26  1  0  0  0  0
 11 12  2  0  0  0  0
 11 27  1  0  0  0  0
 12 28  1  0  0  0  0
 13 18  1  0  0  0  0
 13 24  2  0  0  0  0
 14 23  1  0  0  0  0
 14 26  2  0  0  0  0
 15 28  2  0  0  0  0
 15 29  1  0  0  0  0
 16 24  1  0  0  0  0
 16 65  2  0  0  0  0
 17 30  1  0  0  0  0
 18 31  2  0  0  0  0
 18 33  1  0  0  0  0
 19 30  1  0  0  0  0
 19 32  2  0  0  0  0
 19 35  1  0  0  0  0
 20 22  2  0  0  0  0
 20 41  1  0  0  0  0
 21 23  2  0  0  0  0
 21 42  1  0  0  0  0
 22 50  1  0  0  0  0
 23 43  1  0  0  0  0
 24 72  1  0  0  0  0
 25 82  1  0  0  0  0
 26 83  1  0  0  0  0
 27 29  2  0  0  0  0
 27 82  1  0  0  0  0
 28 84  1  0  0  0  0
 29 85  1  0  0  0  0
 30 66  2  0  0  0  0
 31 59  1  0  0  0  0
 31 65  1  0  0  0  0
 32 67  1  0  0  0  0
 32 70  1  0  0  0  0
 33 34  2  0  0  0  0
 34 60  1  0  0  0  0
 35 71  1  0  0  0  0
 35 76  2  0  0  0  0
 36 51  1  0  0  0  0
 36 73  1  0  0  0  0
 36 77  2  0  0  0  0
 37 60  1  0  0  0  0
 37 61  1  0  0  0  0
 37 78  2  0  0  0  0
 38 62  1  0  0  0  0
 38 68  1  0  0  0  0
 38 79  2  0  0  0  0
 39 63  1  0  0  0  0
 39 74  1  0  0  0  0
 39 80  2  0  0  0  0
 40 69  1  0  0  0  0
 40 72  1  0  0  0  0
 40 81  2  0  0  0  0
 41 44  1  0  0  0  0
 42 51  1  0  0  0  0
 43 68  1  0  0  0  0
 44 46  1  0  0  0  0
 45 47  1  0  0  0  0
 45 48  1  0  0  0  0
 46 50  1  0  0  0  0
 47 52  1  0  0  0  0
 48 69  1  0  0  0  0
 49 52  1  0  0  0  0
 49 69  1  0  0  0  0
 50 73  1  0  0  0  0
 51 68  1  0  0  0  0
 52 67  1  0  0  0  0
 53 59  1  0  0  0  0
 54 63  1  0  0  0  0
 55 64  1  0  0  0  0
 56 64  1  0  0  0  0
 57 64  1  0  0  0  0
 58 75  1  0  0  0  0
 61 83  1  0  0  0  0
 62 64  1  0  0  0  0
 62 74  1  0  0  0  0
 63 75  1  0  0  0  0
 66 67  1  0  0  0  0
M  CHG  1  75   1
M  ISO  4  40 100  61 101  72 100  83 101
M  END
> <Batch ID>
0120

> <Smiles>
CCc1ncc([100NH:0][100C:0](=O)N2CCCC(n3nc(-c4ccc(Oc5ccc(F)cc5F)cc4)c(C(N)=O)c3N)C2)cc1C=CCC(=O)[101CH2:1][101O:1]c1ccc2c(c1)CN(C(=O)C(NC(=O)C(C)NC)C(C)(C)C)C(C(=O)NC1CCCc3ccccc31)C2

> <Shape>
0.381

> <Color>
0.208

> <Negative vol penalty>
0.000

$$$$

  -OEChem-04052301542D

  0  0  0     0  0  0  0  0  0999 V2000
M  END
$$$$
