
  -OEChem-04052301573D

 85 93  0     1  0  0  0  0  0999 V2000
  -17.1254  -30.6873   23.3375 C   0  0  0  0  0  0  0  0  0  0  0  0
  -18.4025  -31.1424   23.0256 C   0  0  0  0  0  0  0  0  0  0  0  0
  -25.6661   -8.9748   22.1707 C   0  0  0  0  0  0  0  0  0  0  0  0
  -23.3055   -9.4846   22.0994 C   0  0  0  0  0  0  0  0  0  0  0  0
  -16.9019  -29.3261   23.5406 C   0  0  0  0  0  0  0  0  0  0  0  0
  -19.4572  -30.2366   22.9176 C   0  0  0  0  0  0  0  0  0  0  0  0
  -25.5462  -29.1632   19.2999 C   0  0  0  0  0  0  0  0  0  0  0  0
  -25.4045   -7.8784   22.9923 C   0  0  0  0  0  0  0  0  0  0  0  0
  -23.0439   -8.3882   22.9209 C   0  0  0  0  0  0  0  0  0  0  0  0
  -26.8964  -28.8940   19.5195 C   0  0  0  0  0  0  0  0  0  0  0  0
  -22.7859   -5.0349   22.5897 C   0  0  0  0  0  0  0  0  0  0  0  0
  -21.7230   -4.2028   22.2385 C   0  0  0  0  0  0  0  0  0  0  0  0
  -26.3765  -26.5569   19.8136 C   0  0  0  0  0  0  0  0  0  0  0  0
  -20.6525   -4.6783   24.3515 C   0  0  0  0  0  0  0  0  0  0  0  0
  -29.6303  -22.2686   20.2705 C   0  0  0  0  0  0  0  0  0  0  0  0
  -24.6166   -9.7780   21.7242 C   0  0  0  0  0  0  0  0  0  0  0  0
  -29.7830  -22.4757   18.9193 C   0  0  0  0  0  0  0  0  0  0  0  0
  -24.9322  -10.9279   19.4691 C   0  0  0  0  0  0  0  0  0  0  0  0
  -17.9524  -28.4021   23.4256 C   0  0  0  0  0  0  0  0  0  0  0  0
  -24.5980  -28.1311   19.3463 C   0  0  0  0  0  0  0  0  0  0  0  0
  -19.2478  -28.8619   23.1206 C   0  0  0  0  0  0  0  0  0  0  0  0
  -25.0152  -26.8151   19.5916 C   0  0  0  0  0  0  0  0  0  0  0  0
  -29.5370  -21.2271   18.3000 C   0  0  0  0  0  0  0  0  0  0  0  0
  -24.0934   -7.5851   23.3674 C   0  0  0  0  0  0  0  0  0  0  0  0
  -27.3114  -27.5912   19.7793 C   0  0  0  0  0  0  0  0  0  0  0  0
  -22.7822   -5.6887   23.8219 C   0  0  0  0  0  0  0  0  0  0  0  0
  -20.6563   -4.0245   23.1193 C   0  0  0  0  0  0  0  0  0  0  0  0
  -21.7154   -5.5104   24.7028 C   0  0  0  0  0  0  0  0  0  0  0  0
  -24.8862  -10.9111   20.8760 C   0  0  0  0  0  0  0  0  0  0  0  0
  -29.2517  -20.3459   19.3170 C   0  0  0  0  0  0  0  0  0  0  0  0
  -25.2226  -12.2320   19.1506 C   0  0  0  0  0  0  0  0  0  0  0  0
  -30.1337  -23.7631   18.2939 C   0  0  0  0  0  0  0  0  0  0  0  0
  -28.9367  -18.9704   19.2093 C   0  0  0  0  0  0  0  0  0  0  0  0
  -30.3280  -24.9073   18.9645 C   0  0  0  0  0  0  0  0  0  0  0  0
  -28.6339  -18.1129   20.2383 C   0  0  0  0  0  0  0  0  0  0  0  0
  -24.7303   -9.8602   18.5337 C   0  0  0  0  0  0  0  0  0  0  0  0
  -30.6714  -26.1640   18.2343 C   0  0  0  0  0  0  0  0  0  0  0  0
  -28.3153  -16.6977   19.9617 C   0  0  0  0  0  0  0  0  0  0  0  0
  -22.0607  -27.4957   21.1524 C   0  0  0  0  0  0  0  0  0  0  0  0
  -21.6618  -25.0572   19.0508 C   0  0  0  0  0  0  0  0  0  0  0  0
  -23.0648  -22.9307   16.7800 C   0  0  0  0  0  0  0  0  0  0  0  0
  -17.6718  -26.9460   23.7005 C   0  0  0  0  0  0  0  0  0  0  0  0
  -23.1487  -28.4338   19.0806 C   0  0  0  0  0  0  0  0  0  0  0  0
  -24.0396  -25.6684   19.6320 C   0  0  0  0  0  0  0  0  0  0  0  0
  -18.7678  -26.0092   23.1990 C   0  0  0  0  0  0  0  0  0  0  0  0
  -25.2816  -16.3953   21.9956 C   0  0  0  0  0  0  0  0  0  0  0  0
  -20.1431  -26.5346   23.5980 C   0  0  0  0  0  0  0  0  0  0  0  0
  -24.9437  -14.9195   21.8014 C   0  0  0  0  0  0  0  0  0  0  0  0
  -26.7897  -16.6398   22.0076 C   0  0  0  0  0  0  0  0  0  0  0  0
  -27.1524  -14.6246   20.6119 C   0  0  0  0  0  0  0  0  0  0  0  0
  -20.4126  -27.9075   22.9703 C   0  0  1  0  0  0  0  0  0  0  0  0
  -22.2035  -27.3861   19.6607 C   0  0  1  0  0  0  0  0  0  0  0  0
  -25.6397  -14.3619   20.5497 C   0  0  1  0  0  0  0  0  0  0  0  0
  -28.3368  -21.4320   16.1082 C   0  0  0  0  0  0  0  0  0  0  0  0
  -22.4938  -21.0223   15.2538 C   0  0  0  0  0  0  0  0  0  0  0  0
  -21.5610  -23.1729   21.4486 C   0  0  0  0  0  0  0  0  0  0  0  0
  -21.9473  -21.2635   19.8760 C   0  0  0  0  0  0  0  0  0  0  0  0
  -19.8963  -22.6657   19.6524 C   0  0  0  0  0  0  0  0  0  0  0  0
  -23.8762  -24.4571   14.3777 C   0  0  0  0  0  0  0  0  0  0  0  0
  -29.5792  -20.9331   16.8520 C   0  0  0  0  0  0  0  0  0  0  0  0
  -30.8662  -27.3926   19.1097 C   0  0  0  0  0  0  0  0  0  0  0  0
  -29.5764  -28.1671   19.3387 C   0  0  0  0  0  0  0  0  0  1  0  0
  -22.1341  -23.6255   18.9721 C   0  0  1  0  0  0  0  0  0  0  0  0
  -22.6404  -22.5309   15.3784 C   0  0  2  0  0  0  0  0  0  0  0  0
  -21.4031  -22.7036   19.9885 C   0  0  0  0  0  0  0  0  0  0  0  0
  -25.1283  -12.1093   21.4142 N   0  0  0  0  0  0  0  0  0  0  0  0
  -25.3291  -12.8913   20.3398 N   0  0  0  0  0  0  0  0  0  0  0  0
  -27.4406  -16.0466   20.8297 N   0  0  0  0  0  0  0  0  0  0  0  0
  -22.6327  -26.0162   19.3723 N   0  0  0  0  0  0  0  0  0  0  0  0
  -25.3947  -12.8676   17.9721 N   0  0  0  0  0  0  0  0  0  0  0  0
  -24.4401   -8.5823   19.0309 N   0  0  0  0  0  0  0  0  0  0  0  0
  -20.7731  -27.7638   21.5761 N   0  0  0  0  0  0  0  0  0  0  0  0
  -21.9792  -23.2205   17.5792 N   0  0  0  0  0  0  0  0  0  0  0  0
  -23.6489  -22.9890   14.3813 N   0  3  0  0  0  0  0  0  0  0  0  0
  -24.8213  -10.0306   17.2943 O   0  0  0  0  0  0  0  0  0  0  0  0
  -30.7868  -26.1899   17.0120 O   0  0  0  0  0  0  0  0  0  0  0  0
  -28.8477  -16.1763   18.9802 O   0  0  0  0  0  0  0  0  0  0  0  0
  -23.0455  -27.3465   21.8662 O   0  0  0  0  0  0  0  0  0  0  0  0
  -20.4764  -25.3160   18.8279 O   0  0  0  0  0  0  0  0  0  0  0  0
  -24.2415  -22.9775   17.1318 O   0  0  0  0  0  0  0  0  0  0  0  0
  -29.3065  -20.9729   20.5213 O   0  0  0  0  0  0  0  0  0  0  0  0
  -23.8378   -6.5151   24.1689 O   0  0  0  0  0  0  0  0  0  0  0  0
  -28.6286  -27.3258   19.9948 O   0  0  0  0  0  0  0  0  0  1  0  0
  -19.6349   -3.2266   22.7812 F   0  0  0  0  0  0  0  0  0  0  0  0
  -21.7057   -6.1367   25.8875 F   0  0  0  0  0  0  0  0  0  0  0  0
  1  2  1  0  0  0  0
  1  5  2  0  0  0  0
  2  6  2  0  0  0  0
  3  8  2  0  0  0  0
  3 16  1  0  0  0  0
  4  9  1  0  0  0  0
  4 16  2  0  0  0  0
  5 19  1  0  0  0  0
  6 21  1  0  0  0  0
  7 10  2  0  0  0  0
  7 20  1  0  0  0  0
  8 24  1  0  0  0  0
  9 24  2  0  0  0  0
 10 25  1  0  0  0  0
 11 12  2  0  0  0  0
 11 26  1  0  0  0  0
 12 27  1  0  0  0  0
 13 22  1  0  0  0  0
 13 25  2  0  0  0  0
 14 27  2  0  0  0  0
 14 28  1  0  0  0  0
 15 17  2  0  0  0  0
 15 81  1  0  0  0  0
 16 29  1  0  0  0  0
 17 23  1  0  0  0  0
 17 32  1  0  0  0  0
 18 29  1  0  0  0  0
 18 31  2  0  0  0  0
 18 36  1  0  0  0  0
 19 21  2  0  0  0  0
 19 42  1  0  0  0  0
 20 22  2  0  0  0  0
 20 43  1  0  0  0  0
 21 51  1  0  0  0  0
 22 44  1  0  0  0  0
 23 30  2  0  0  0  0
 23 60  1  0  0  0  0
 24 82  1  0  0  0  0
 25 83  1  0  0  0  0
 26 28  2  0  0  0  0
 26 82  1  0  0  0  0
 27 84  1  0  0  0  0
 28 85  1  0  0  0  0
 29 66  2  0  0  0  0
 30 33  1  0  0  0  0
 30 81  1  0  0  0  0
 31 67  1  0  0  0  0
 31 70  1  0  0  0  0
 32 34  2  0  0  0  0
 33 35  2  0  0  0  0
 34 37  1  0  0  0  0
 35 38  1  0  0  0  0
 36 71  1  0  0  0  0
 36 75  2  0  0  0  0
 37 61  1  0  0  0  0
 37 76  2  0  0  0  0
 38 68  1  0  0  0  0
 38 77  2  0  0  0  0
 39 52  1  0  0  0  0
 39 72  1  0  0  0  0
 39 78  2  0  0  0  0
 40 63  1  0  0  0  0
 40 69  1  0  0  0  0
 40 79  2  0  0  0  0
 41 64  1  0  0  0  0
 41 73  1  0  0  0  0
 41 80  2  0  0  0  0
 42 45  1  0  0  0  0
 43 52  1  0  0  0  0
 44 69  1  0  0  0  0
 45 47  1  0  0  0  0
 46 48  1  0  0  0  0
 46 49  1  0  0  0  0
 47 51  1  0  0  0  0
 48 53  1  0  0  0  0
 49 68  1  0  0  0  0
 50 53  1  0  0  0  0
 50 68  1  0  0  0  0
 51 72  1  0  0  0  0
 52 69  1  0  0  0  0
 53 67  1  0  0  0  0
 54 60  1  0  0  0  0
 55 64  1  0  0  0  0
 56 65  1  0  0  0  0
 57 65  1  0  0  0  0
 58 65  1  0  0  0  0
 59 74  1  0  0  0  0
 61 62  1  0  0  0  0
 62 83  1  0  0  0  0
 63 65  1  0  0  0  0
 63 73  1  0  0  0  0
 64 74  1  0  0  0  0
 66 67  1  0  0  0  0
M  CHG  1  74   1
M  ISO  4  35 100  38 100  62 101  83 101
M  END
> <Batch ID>
0121

> <Smiles>
CCc1c(C=CC(=O)C[101CH2:1][101O:1]c2ccc3c(c2)CN(C(=O)C(NC(=O)C(C)NC)C(C)(C)C)C(C(=O)NC2CCCc4ccccc42)C3)coc1C=[100CH:0][100C:0](=O)N1CCCC(n2nc(-c3ccc(Oc4ccc(F)cc4F)cc3)c(C(N)=O)c2N)C1

> <Shape>
0.277

> <Color>
0.090

> <Negative vol penalty>
0.000

$$$$

  -OEChem-04052301573D

 85 93  0     1  0  0  0  0  0999 V2000
  -30.9757  -32.7956   24.1680 C   0  0  0  0  0  0  0  0  0  0  0  0
  -30.2146  -31.7357   23.6853 C   0  0  0  0  0  0  0  0  0  0  0  0
  -24.8263   -8.9761   21.1011 C   0  0  0  0  0  0  0  0  0  0  0  0
  -23.0931  -10.4108   20.2208 C   0  0  0  0  0  0  0  0  0  0  0  0
  -30.4396  -33.6596   25.1219 C   0  0  0  0  0  0  0  0  0  0  0  0
  -28.9173  -31.5387   24.1572 C   0  0  0  0  0  0  0  0  0  0  0  0
  -25.6280  -30.5411   20.4383 C   0  0  0  0  0  0  0  0  0  0  0  0
  -23.8724   -7.9998   21.3883 C   0  0  0  0  0  0  0  0  0  0  0  0
  -22.1392   -9.4345   20.5080 C   0  0  0  0  0  0  0  0  0  0  0  0
  -25.6278  -29.2475   19.9185 C   0  0  0  0  0  0  0  0  0  0  0  0
  -21.5513   -7.4115   23.7738 C   0  0  0  0  0  0  0  0  0  0  0  0
  -21.6187   -6.7871   25.0192 C   0  0  0  0  0  0  0  0  0  0  0  0
  -28.9705  -19.4856   16.7648 C   0  0  0  0  0  0  0  0  0  0  0  0
  -23.6994  -28.7131   21.2657 C   0  0  0  0  0  0  0  0  0  0  0  0
  -28.0567  -20.0240   19.3450 C   0  0  0  0  0  0  0  0  0  0  0  0
  -21.9120   -4.6497   23.9318 C   0  0  0  0  0  0  0  0  0  0  0  0
  -24.4367  -10.1816   20.5174 C   0  0  0  0  0  0  0  0  0  0  0  0
  -28.5248  -18.4439   17.5783 C   0  0  0  0  0  0  0  0  0  0  0  0
  -26.1520  -11.3409   19.0270 C   0  0  0  0  0  0  0  0  0  0  0  0
  -29.1316  -33.4788   25.5986 C   0  0  0  0  0  0  0  0  0  0  0  0
  -24.6690  -30.9279   21.3854 C   0  0  0  0  0  0  0  0  0  0  0  0
  -28.3637  -32.4003   25.1194 C   0  0  0  0  0  0  0  0  0  0  0  0
  -23.6881  -30.0130   21.7941 C   0  0  0  0  0  0  0  0  0  0  0  0
  -28.9593  -20.7965   17.2414 C   0  0  0  0  0  0  0  0  0  0  0  0
  -28.0679  -18.7131   18.8684 C   0  0  0  0  0  0  0  0  0  0  0  0
  -22.5288   -8.2290   21.0917 C   0  0  0  0  0  0  0  0  0  0  0  0
  -24.6651  -28.3323   20.3343 C   0  0  0  0  0  0  0  0  0  0  0  0
  -21.6641   -6.6550   22.6073 C   0  0  0  0  0  0  0  0  0  0  0  0
  -28.5024  -21.0657   18.5315 C   0  0  0  0  0  0  0  0  0  0  0  0
  -21.7991   -5.4062   25.0983 C   0  0  0  0  0  0  0  0  0  0  0  0
  -21.8445   -5.2741   22.6863 C   0  0  0  0  0  0  0  0  0  0  0  0
  -25.4216  -11.1907   20.2210 C   0  0  0  0  0  0  0  0  0  0  0  0
  -26.9477  -12.4386   19.2470 C   0  0  0  0  0  0  0  0  0  0  0  0
  -27.9133  -16.7175   15.9470 C   0  0  0  0  0  0  0  0  0  0  0  0
  -28.5526  -17.0867   17.0461 C   0  0  0  0  0  0  0  0  0  0  0  0
  -26.1146  -10.5582   17.8263 C   0  0  0  0  0  0  0  0  0  0  0  0
  -24.7704  -31.9251   24.4019 C   0  0  0  0  0  0  0  0  0  0  0  0
  -21.5893  -32.3727   23.9517 C   0  0  0  0  0  0  0  0  0  0  0  0
  -18.7623  -31.5444   22.2286 C   0  0  0  0  0  0  0  0  0  0  0  0
  -27.6710  -17.6354   21.1106 C   0  0  0  0  0  0  0  0  0  0  0  0
  -28.6122  -34.4106   26.6647 C   0  0  0  0  0  0  0  0  0  0  0  0
  -24.6666  -32.3351   21.9165 C   0  0  0  0  0  0  0  0  0  0  0  0
  -22.6243  -30.3846   22.7934 C   0  0  0  0  0  0  0  0  0  0  0  0
  -27.0964  -34.3546   26.8367 C   0  0  0  0  0  0  0  0  0  0  0  0
  -27.9138  -15.0072   23.5003 C   0  0  0  0  0  0  0  0  0  0  0  0
  -26.6185  -32.9071   26.8923 C   0  0  0  0  0  0  0  0  0  0  0  0
  -27.3472  -13.7924   22.7620 C   0  0  0  0  0  0  0  0  0  0  0  0
  -27.1674  -16.2900   23.1382 C   0  0  0  0  0  0  0  0  0  0  0  0
  -26.5006  -15.3500   20.9608 C   0  0  0  0  0  0  0  0  0  0  0  0
  -26.9438  -32.1684   25.5884 C   0  0  1  0  0  0  0  0  0  0  0  0
  -23.9563  -32.4654   23.2603 C   0  0  1  0  0  0  0  0  0  0  0  0
  -27.2622  -14.0448   21.2439 C   0  0  2  0  0  0  0  0  0  0  0  0
  -29.4392  -21.8997   16.3569 C   0  0  0  0  0  0  0  0  0  0  0  0
  -16.3069  -32.0497   22.1125 C   0  0  0  0  0  0  0  0  0  0  0  0
  -21.1249  -30.6768   26.4454 C   0  0  0  0  0  0  0  0  0  0  0  0
  -18.7346  -30.4255   25.7444 C   0  0  0  0  0  0  0  0  0  0  0  0
  -19.6495  -32.6878   26.2617 C   0  0  0  0  0  0  0  0  0  0  0  0
  -18.9802  -32.5394   19.4499 C   0  0  0  0  0  0  0  0  0  0  0  0
  -25.8972  -25.0066   19.5944 C   0  0  0  0  0  0  0  0  0  0  0  0
  -27.2332  -24.3801   19.2106 C   0  0  0  0  0  0  0  0  0  0  0  0
  -25.9230  -26.5218   19.4424 C   0  0  0  0  0  0  0  0  0  1  0  0
  -27.2220  -22.8702   19.4032 C   0  0  0  0  0  0  0  0  0  0  0  0
  -20.3542  -31.5233   24.1312 C   0  0  1  0  0  0  0  0  0  0  0  0
  -17.6885  -32.4017   21.5832 C   0  0  2  0  0  0  0  0  0  0  0  0
  -19.9869  -31.3205   25.6283 C   0  0  0  0  0  0  0  0  0  0  0  0
  -25.7263  -12.1187   21.1321 N   0  0  0  0  0  0  0  0  0  0  0  0
  -26.6571  -12.8624   20.5104 N   0  0  0  0  0  0  0  0  0  0  0  0
  -22.6677  -31.7704   23.2883 N   0  0  0  0  0  0  0  0  0  0  0  0
  -27.1307  -16.4652   21.6846 N   0  0  0  0  0  0  0  0  0  0  0  0
  -27.8607  -13.0729   18.4812 N   0  0  0  0  0  0  0  0  0  0  0  0
  -25.2398   -9.4647   17.7685 N   0  0  0  0  0  0  0  0  0  0  0  0
  -27.6091  -17.6761   19.7181 N   0  0  0  0  0  0  0  0  0  0  0  0
  -26.0019  -32.5336   24.5521 N   0  0  0  0  0  0  0  0  0  0  0  0
  -19.3051  -32.1558   23.3389 N   0  0  0  0  0  0  0  0  0  0  0  0
  -17.6892  -32.2075   20.1056 N   0  3  0  0  0  0  0  0  0  0  0  0
  -26.8474  -10.8109   16.8400 O   0  0  0  0  0  0  0  0  0  0  0  0
  -24.3143  -31.0240   25.0959 O   0  0  0  0  0  0  0  0  0  0  0  0
  -21.5943  -33.5302   24.3778 O   0  0  0  0  0  0  0  0  0  0  0  0
  -19.0845  -30.4410   21.7936 O   0  0  0  0  0  0  0  0  0  0  0  0
  -28.1777  -18.5229   21.8017 O   0  0  0  0  0  0  0  0  0  0  0  0
  -21.5977   -7.2765   21.3716 O   0  0  0  0  0  0  0  0  0  0  0  0
  -24.6630  -27.0688   19.8291 O   0  0  0  0  0  0  0  0  0  1  0  0
  -28.4853  -22.3480   19.0155 O   0  0  0  0  0  0  0  0  0  0  0  0
  -21.8654   -4.8070   26.2944 F   0  0  0  0  0  0  0  0  0  0  0  0
  -21.9547   -4.5422   21.5692 F   0  0  0  0  0  0  0  0  0  0  0  0
  1  2  1  0  0  0  0
  1  5  2  0  0  0  0
  2  6  2  0  0  0  0
  3  8  2  0  0  0  0
  3 17  1  0  0  0  0
  4  9  1  0  0  0  0
  4 17  2  0  0  0  0
  5 20  1  0  0  0  0
  6 22  1  0  0  0  0
  7 10  2  0  0  0  0
  7 21  1  0  0  0  0
  8 26  1  0  0  0  0
  9 26  2  0  0  0  0
 10 27  1  0  0  0  0
 11 12  2  0  0  0  0
 11 28  1  0  0  0  0
 12 30  1  0  0  0  0
 13 18  1  0  0  0  0
 13 24  2  0  0  0  0
 14 23  1  0  0  0  0
 14 27  2  0  0  0  0
 15 25  1  0  0  0  0
 15 29  2  0  0  0  0
 16 30  2  0  0  0  0
 16 31  1  0  0  0  0
 17 32  1  0  0  0  0
 18 25  2  0  0  0  0
 18 35  1  0  0  0  0
 19 32  1  0  0  0  0
 19 33  2  0  0  0  0
 19 36  1  0  0  0  0
 20 22  2  0  0  0  0
 20 41  1  0  0  0  0
 21 23  2  0  0  0  0
 21 42  1  0  0  0  0
 22 50  1  0  0  0  0
 23 43  1  0  0  0  0
 24 29  1  0  0  0  0
 24 53  1  0  0  0  0
 25 72  1  0  0  0  0
 26 81  1  0  0  0  0
 27 82  1  0  0  0  0
 28 31  2  0  0  0  0
 28 81  1  0  0  0  0
 29 83  1  0  0  0  0
 30 84  1  0  0  0  0
 31 85  1  0  0  0  0
 32 66  2  0  0  0  0
 33 67  1  0  0  0  0
 33 70  1  0  0  0  0
 34 35  2  0  0  0  0
 36 71  1  0  0  0  0
 36 76  2  0  0  0  0
 37 51  1  0  0  0  0
 37 73  1  0  0  0  0
 37 77  2  0  0  0  0
 38 63  1  0  0  0  0
 38 68  1  0  0  0  0
 38 78  2  0  0  0  0
 39 64  1  0  0  0  0
 39 74  1  0  0  0  0
 39 79  2  0  0  0  0
 40 69  1  0  0  0  0
 40 72  1  0  0  0  0
 40 80  2  0  0  0  0
 41 44  1  0  0  0  0
 42 51  1  0  0  0  0
 43 68  1  0  0  0  0
 44 46  1  0  0  0  0
 45 47  1  0  0  0  0
 45 48  1  0  0  0  0
 46 50  1  0  0  0  0
 47 52  1  0  0  0  0
 48 69  1  0  0  0  0
 49 52  1  0  0  0  0
 49 69  1  0  0  0  0
 50 73  1  0  0  0  0
 51 68  1  0  0  0  0
 52 67  1  0  0  0  0
 54 64  1  0  0  0  0
 55 65  1  0  0  0  0
 56 65  1  0  0  0  0
 57 65  1  0  0  0  0
 58 75  1  0  0  0  0
 59 60  1  0  0  0  0
 59 61  1  0  0  0  0
 60 62  1  0  0  0  0
 61 82  1  0  0  0  0
 62 83  1  0  0  0  0
 63 65  1  0  0  0  0
 63 74  1  0  0  0  0
 64 75  1  0  0  0  0
 66 67  1  0  0  0  0
M  CHG  1  75   1
M  ISO  4  40 100  61 101  72 100  82 101
M  END
> <Batch ID>
0121

> <Smiles>
C=Cc1cc(C)c(OCCC[101CH2:1][101O:1]c2ccc3c(c2)CN(C(=O)C(NC(=O)C(C)NC)C(C)(C)C)C(C(=O)NC2CCCc4ccccc42)C3)cc1[100NH:0][100C:0](=O)N1CCCC(n2nc(-c3ccc(Oc4ccc(F)cc4F)cc3)c(C(N)=O)c2N)C1

> <Shape>
0.273

> <Color>
0.084

> <Negative vol penalty>
0.000

$$$$

  -OEChem-04052301573D

 89 97  0     1  0  0  0  0  0999 V2000
  -30.1942  -29.5804   26.3218 C   0  0  0  0  0  0  0  0  0  0  0  0
  -30.7573  -28.4411   26.8877 C   0  0  0  0  0  0  0  0  0  0  0  0
  -23.2883   -9.7905   19.9119 C   0  0  0  0  0  0  0  0  0  0  0  0
  -23.7126   -9.9408   22.2856 C   0  0  0  0  0  0  0  0  0  0  0  0
  -29.2214  -29.4571   25.3306 C   0  0  0  0  0  0  0  0  0  0  0  0
  -30.3471  -27.1777   26.4635 C   0  0  0  0  0  0  0  0  0  0  0  0
  -35.0621  -22.4786   23.7103 C   0  0  0  0  0  0  0  0  0  0  0  0
  -22.5558   -8.6213   20.1169 C   0  0  0  0  0  0  0  0  0  0  0  0
  -22.9801   -8.7716   22.4906 C   0  0  0  0  0  0  0  0  0  0  0  0
  -35.9379  -21.4479   23.3687 C   0  0  0  0  0  0  0  0  0  0  0  0
  -19.4593   -7.7760   21.1800 C   0  0  0  0  0  0  0  0  0  0  0  0
  -18.2373   -7.6524   20.5189 C   0  0  0  0  0  0  0  0  0  0  0  0
  -33.8655  -16.0012   16.5812 C   0  0  0  0  0  0  0  0  0  0  0  0
  -33.1254  -16.0494   14.2819 C   0  0  0  0  0  0  0  0  0  0  0  0
  -34.0643  -19.9660   22.9924 C   0  0  0  0  0  0  0  0  0  0  0  0
  -19.0452   -5.6717   19.3959 C   0  0  0  0  0  0  0  0  0  0  0  0
  -23.8668  -10.4502   20.9963 C   0  0  0  0  0  0  0  0  0  0  0  0
  -32.8475  -15.8693   15.6368 C   0  0  0  0  0  0  0  0  0  0  0  0
  -35.1616  -16.3134   16.1705 C   0  0  0  0  0  0  0  0  0  0  0  0
  -24.1367  -12.9784   20.7888 C   0  0  0  0  0  0  0  0  0  0  0  0
  -28.8061  -28.1915   24.8872 C   0  0  0  0  0  0  0  0  0  0  0  0
  -33.6818  -22.2611   23.6794 C   0  0  0  0  0  0  0  0  0  0  0  0
  -29.3669  -27.0373   25.4664 C   0  0  0  0  0  0  0  0  0  0  0  0
  -33.1817  -20.9983   23.3216 C   0  0  0  0  0  0  0  0  0  0  0  0
  -34.4215  -16.3615   13.8712 C   0  0  0  0  0  0  0  0  0  0  0  0
  -35.4395  -16.4935   14.8156 C   0  0  0  0  0  0  0  0  0  0  0  0
  -22.4016   -8.1119   21.4062 C   0  0  0  0  0  0  0  0  0  0  0  0
  -35.4402  -20.1947   23.0109 C   0  0  0  0  0  0  0  0  0  0  0  0
  -20.4743   -6.8475   20.9489 C   0  0  0  0  0  0  0  0  0  0  0  0
  -18.0302   -6.6002   19.6269 C   0  0  0  0  0  0  0  0  0  0  0  0
  -20.2673   -5.7953   20.0569 C   0  0  0  0  0  0  0  0  0  0  0  0
  -24.6241  -11.6577   20.7851 C   0  0  0  0  0  0  0  0  0  0  0  0
  -25.2435  -13.7536   20.5427 C   0  0  0  0  0  0  0  0  0  0  0  0
  -31.4957  -15.5439   16.0640 C   0  0  0  0  0  0  0  0  0  0  0  0
  -36.2134  -16.4453   17.1940 C   0  0  0  0  0  0  0  0  0  0  0  0
  -31.1615  -14.9815   17.2449 C   0  0  0  0  0  0  0  0  0  0  0  0
  -36.1786  -17.3150   18.2137 C   0  0  0  0  0  0  0  0  0  0  0  0
  -22.8027  -13.4614   20.9962 C   0  0  0  0  0  0  0  0  0  0  0  0
  -29.7376  -14.7208   17.5372 C   0  0  0  0  0  0  0  0  0  0  0  0
  -37.2948  -17.3443   19.1859 C   0  0  0  0  0  0  0  0  0  0  0  0
  -30.2480  -23.6874   24.1799 C   0  0  0  0  0  0  0  0  0  0  0  0
  -30.1217  -21.9176   21.6775 C   0  0  0  0  0  0  0  0  0  0  0  0
  -30.5066  -20.2183   18.7446 C   0  0  0  0  0  0  0  0  0  0  0  0
  -27.7174  -28.1081   23.8467 C   0  0  0  0  0  0  0  0  0  0  0  0
  -32.7032  -23.3242   24.0991 C   0  0  0  0  0  0  0  0  0  0  0  0
  -31.6906  -20.8000   23.3358 C   0  0  0  0  0  0  0  0  0  0  0  0
  -27.6083  -26.7354   23.1880 C   0  0  0  0  0  0  0  0  0  0  0  0
  -30.1497  -12.5885   20.4894 C   0  0  0  0  0  0  0  0  0  0  0  0
  -27.6419  -25.6333   24.2421 C   0  0  0  0  0  0  0  0  0  0  0  0
  -28.6985  -12.2285   20.7965 C   0  0  0  0  0  0  0  0  0  0  0  0
  -30.3990  -12.7276   18.9884 C   0  0  0  0  0  0  0  0  0  0  0  0
  -28.0219  -13.3251   18.6239 C   0  0  0  0  0  0  0  0  0  0  0  0
  -28.9661  -25.6495   25.0152 C   0  0  1  0  0  0  0  0  0  0  0  0
  -31.3916  -23.2886   23.2942 C   0  0  1  0  0  0  0  0  0  0  0  0
  -27.7376  -13.2263   20.1309 C   0  0  1  0  0  0  0  0  0  0  0  0
  -33.8287  -17.6506   11.8039 C   0  0  0  0  0  0  0  0  0  0  0  0
  -37.5443  -15.6236   13.7670 C   0  0  0  0  0  0  0  0  0  0  0  0
  -29.2229  -19.4513   16.7294 C   0  0  0  0  0  0  0  0  0  0  0  0
  -28.8487  -19.6979   23.3377 C   0  0  0  0  0  0  0  0  0  0  0  0
  -28.3936  -18.4630   21.2079 C   0  0  0  0  0  0  0  0  0  0  0  0
  -27.3489  -20.6937   21.6018 C   0  0  0  0  0  0  0  0  0  0  0  0
  -32.2141  -21.7955   16.9128 C   0  0  0  0  0  0  0  0  0  0  0  0
  -34.6912  -16.5500   12.4139 C   0  0  0  0  0  0  0  0  0  0  0  0
  -36.8266  -16.8293   14.3624 C   0  0  0  0  0  0  0  0  0  0  0  0
  -37.5379  -19.5772   22.0750 C   0  0  0  0  0  0  0  0  0  1  0  0
  -37.9941  -18.4783   21.1349 C   0  0  0  0  0  0  0  0  0  0  0  0
  -29.8241  -20.5545   21.1059 C   0  0  1  0  0  0  0  0  0  0  0  0
  -30.0873  -20.5520   17.3243 C   0  0  2  0  0  0  0  0  0  0  0  0
  -28.6303  -19.8601   21.8201 C   0  0  0  0  0  0  0  0  0  0  0  0
  -25.9382  -11.5937   20.5547 N   0  0  0  0  0  0  0  0  0  0  0  0
  -26.2859  -12.8839   20.4113 N   0  0  0  0  0  0  0  0  0  0  0  0
  -29.4307  -13.6418   18.3644 N   0  0  0  0  0  0  0  0  0  0  0  0
  -31.0224  -21.9717   22.7481 N   0  0  0  0  0  0  0  0  0  0  0  0
  -25.4171  -15.0874   20.4279 N   0  0  0  0  0  0  0  0  0  0  0  0
  -21.7844  -12.5289   21.2366 N   0  0  0  0  0  0  0  0  0  0  0  0
  -30.0199  -25.0495   24.2253 N   0  0  0  0  0  0  0  0  0  0  0  0
  -29.6333  -20.7457   19.6722 N   0  0  0  0  0  0  0  0  0  0  0  0
  -31.2870  -20.7276   16.4578 N   0  3  0  0  0  0  0  0  0  0  0  0
  -22.5193  -14.6826   20.9529 O   0  0  0  0  0  0  0  0  0  0  0  0
  -28.9054  -15.4725   17.0264 O   0  0  0  0  0  0  0  0  0  0  0  0
  -38.2830  -16.6283   19.1517 O   0  0  0  0  0  0  0  0  0  0  0  0
  -29.6169  -22.8235   24.7776 O   0  0  0  0  0  0  0  0  0  0  0  0
  -29.5676  -22.9086   21.1935 O   0  0  0  0  0  0  0  0  0  0  0  0
  -31.5066  -19.5529   19.0050 O   0  0  0  0  0  0  0  0  0  0  0  0
  -21.6867   -6.9712   21.6066 O   0  0  0  0  0  0  0  0  0  0  0  0
  -36.3007  -19.1942   22.6741 O   0  0  0  0  0  0  0  0  0  1  0  0
  -37.0196  -18.3067   20.1131 O   0  0  0  0  0  0  0  0  0  0  0  0
  -16.8561   -6.4807   18.9933 F   0  0  0  0  0  0  0  0  0  0  0  0
  -21.2382   -4.8996   19.8318 F   0  0  0  0  0  0  0  0  0  0  0  0
  1  2  1  0  0  0  0
  1  5  2  0  0  0  0
  2  6  2  0  0  0  0
  3  8  2  0  0  0  0
  3 17  1  0  0  0  0
  4  9  1  0  0  0  0
  4 17  2  0  0  0  0
  5 21  1  0  0  0  0
  6 23  1  0  0  0  0
  7 10  2  0  0  0  0
  7 22  1  0  0  0  0
  8 27  1  0  0  0  0
  9 27  2  0  0  0  0
 10 28  1  0  0  0  0
 11 12  2  0  0  0  0
 11 29  1  0  0  0  0
 12 30  1  0  0  0  0
 13 18  1  0  0  0  0
 13 19  2  0  0  0  0
 14 18  2  0  0  0  0
 14 25  1  0  0  0  0
 15 24  1  0  0  0  0
 15 28  2  0  0  0  0
 16 30  2  0  0  0  0
 16 31  1  0  0  0  0
 17 32  1  0  0  0  0
 18 34  1  0  0  0  0
 19 26  1  0  0  0  0
 19 35  1  0  0  0  0
 20 32  1  0  0  0  0
 20 33  2  0  0  0  0
 20 38  1  0  0  0  0
 21 23  2  0  0  0  0
 21 44  1  0  0  0  0
 22 24  2  0  0  0  0
 22 45  1  0  0  0  0
 23 53  1  0  0  0  0
 24 46  1  0  0  0  0
 25 26  2  0  0  0  0
 25 63  1  0  0  0  0
 26 64  1  0  0  0  0
 27 85  1  0  0  0  0
 28 86  1  0  0  0  0
 29 31  2  0  0  0  0
 29 85  1  0  0  0  0
 30 88  1  0  0  0  0
 31 89  1  0  0  0  0
 32 70  2  0  0  0  0
 33 71  1  0  0  0  0
 33 74  1  0  0  0  0
 34 36  2  0  0  0  0
 35 37  2  0  0  0  0
 36 39  1  0  0  0  0
 37 40  1  0  0  0  0
 38 75  1  0  0  0  0
 38 79  2  0  0  0  0
 39 72  1  0  0  0  0
 39 80  2  0  0  0  0
 40 81  2  0  0  0  0
 40 87  1  0  0  0  0
 41 54  1  0  0  0  0
 41 76  1  0  0  0  0
 41 82  2  0  0  0  0
 42 67  1  0  0  0  0
 42 73  1  0  0  0  0
 42 83  2  0  0  0  0
 43 68  1  0  0  0  0
 43 77  1  0  0  0  0
 43 84  2  0  0  0  0
 44 47  1  0  0  0  0
 45 54  1  0  0  0  0
 46 73  1  0  0  0  0
 47 49  1  0  0  0  0
 48 50  1  0  0  0  0
 48 51  1  0  0  0  0
 49 53  1  0  0  0  0
 50 55  1  0  0  0  0
 51 72  1  0  0  0  0
 52 55  1  0  0  0  0
 52 72  1  0  0  0  0
 53 76  1  0  0  0  0
 54 73  1  0  0  0  0
 55 71  1  0  0  0  0
 56 63  1  0  0  0  0
 57 64  1  0  0  0  0
 58 68  1  0  0  0  0
 59 69  1  0  0  0  0
 60 69  1  0  0  0  0
 61 69  1  0  0  0  0
 62 78  1  0  0  0  0
 65 66  1  0  0  0  0
 65 86  1  0  0  0  0
 66 87  1  0  0  0  0
 67 69  1  0  0  0  0
 67 77  1  0  0  0  0
 68 78  1  0  0  0  0
 70 71  1  0  0  0  0
M  CHG  1  78   1
M  ISO  4  36 100  39 100  65 101  86 101
M  END
> <Batch ID>
0121

> <Smiles>
CCc1cc(C=[100CH:0][100C:0](=O)N2CCCC(n3nc(-c4ccc(Oc5ccc(F)cc5F)cc4)c(C(N)=O)c3N)C2)cc(C=CC(=O)OC[101CH2:1][101O:1]c2ccc3c(c2)CN(C(=O)C(NC(=O)C(C)NC)C(C)(C)C)C(C(=O)NC2CCCc4ccccc42)C3)c1CC

> <Shape>
0.149

> <Color>
0.173

> <Negative vol penalty>
0.000

$$$$

  -OEChem-04052301573D

 82 91  0     1  0  0  0  0  0999 V2000
  -35.1223  -29.4358   22.2775 C   0  0  0  0  0  0  0  0  0  0  0  0
  -34.3009  -28.3309   22.0780 C   0  0  0  0  0  0  0  0  0  0  0  0
  -23.2434   -9.7937   21.0914 C   0  0  0  0  0  0  0  0  0  0  0  0
  -24.1623  -10.5080   23.2086 C   0  0  0  0  0  0  0  0  0  0  0  0
  -34.5649  -30.6608   22.6417 C   0  0  0  0  0  0  0  0  0  0  0  0
  -32.9214  -28.4501   22.2436 C   0  0  0  0  0  0  0  0  0  0  0  0
  -28.2788  -18.7960   18.1064 C   0  0  0  0  0  0  0  0  0  0  0  0
  -30.3171  -26.2113   18.5221 C   0  0  0  0  0  0  0  0  0  0  0  0
  -28.6001  -20.1530   18.0360 C   0  0  0  0  0  0  0  0  0  0  0  0
  -22.5976   -8.7344   21.7291 C   0  0  0  0  0  0  0  0  0  0  0  0
  -23.5165   -9.4488   23.8463 C   0  0  0  0  0  0  0  0  0  0  0  0
  -30.1963  -24.8234   18.5751 C   0  0  0  0  0  0  0  0  0  0  0  0
  -19.8197   -8.2748   23.6012 C   0  0  0  0  0  0  0  0  0  0  0  0
  -18.4876   -8.0318   23.2665 C   0  0  0  0  0  0  0  0  0  0  0  0
  -30.4795  -19.8338   19.5488 C   0  0  0  0  0  0  0  0  0  0  0  0
  -27.9753  -25.0577   19.4871 C   0  0  0  0  0  0  0  0  0  0  0  0
  -19.0801   -5.8114   22.5207 C   0  0  0  0  0  0  0  0  0  0  0  0
  -24.0258  -10.6805   21.8312 C   0  0  0  0  0  0  0  0  0  0  0  0
  -24.1892  -13.0706   20.9547 C   0  0  0  0  0  0  0  0  0  0  0  0
  -33.1771  -30.7974   22.8025 C   0  0  0  0  0  0  0  0  0  0  0  0
  -29.2704  -27.0342   18.9620 C   0  0  0  0  0  0  0  0  0  0  0  0
  -29.0665  -17.9774   18.8970 C   0  0  0  0  0  0  0  0  0  0  0  0
  -32.3450  -29.6777   22.6117 C   0  0  0  0  0  0  0  0  0  0  0  0
  -30.1516  -18.4892   19.6173 C   0  0  0  0  0  0  0  0  0  0  0  0
  -28.0844  -26.4557   19.4361 C   0  0  0  0  0  0  0  0  0  0  0  0
  -29.6928  -20.6681   18.7514 C   0  0  0  0  0  0  0  0  0  0  0  0
  -22.7342   -8.5620   23.1065 C   0  0  0  0  0  0  0  0  0  0  0  0
  -29.0264  -24.2463   19.0604 C   0  0  0  0  0  0  0  0  0  0  0  0
  -20.7820   -7.2861   23.3956 C   0  0  0  0  0  0  0  0  0  0  0  0
  -18.1178   -6.8001   22.7263 C   0  0  0  0  0  0  0  0  0  0  0  0
  -20.4122   -6.0544   22.8554 C   0  0  0  0  0  0  0  0  0  0  0  0
  -24.6935  -11.7745   21.1730 C   0  0  0  0  0  0  0  0  0  0  0  0
  -25.2004  -13.7260   20.2957 C   0  0  0  0  0  0  0  0  0  0  0  0
  -31.7932  -17.5834   22.6837 C   0  0  0  0  0  0  0  0  0  0  0  0
  -30.7376  -17.5571   21.8631 C   0  0  0  0  0  0  0  0  0  0  0  0
  -22.9202  -13.6319   21.3156 C   0  0  0  0  0  0  0  0  0  0  0  0
  -28.9399  -29.2100   21.2556 C   0  0  0  0  0  0  0  0  0  0  0  0
  -26.0389  -29.6576   19.8749 C   0  0  0  0  0  0  0  0  0  0  0  0
  -23.5121  -28.3867   17.9652 C   0  0  0  0  0  0  0  0  0  0  0  0
  -30.6998  -14.9126   20.0584 C   0  0  0  0  0  0  0  0  0  0  0  0
  -32.6250  -32.1300   23.2432 C   0  0  0  0  0  0  0  0  0  0  0  0
  -29.4061  -28.5296   18.8732 C   0  0  0  0  0  0  0  0  0  0  0  0
  -28.9212  -16.5114   19.1435 C   0  0  0  0  0  0  0  0  0  0  0  0
  -26.9235  -27.2949   19.9016 C   0  0  0  0  0  0  0  0  0  0  0  0
  -31.1191  -32.2651   23.0330 C   0  0  0  0  0  0  0  0  0  0  0  0
  -29.4725  -11.9840   18.2194 C   0  0  0  0  0  0  0  0  0  0  0  0
  -30.3963  -31.0186   23.5337 C   0  0  0  0  0  0  0  0  0  0  0  0
  -28.0945  -11.7513   18.8426 C   0  0  0  0  0  0  0  0  0  0  0  0
  -30.4532  -12.6045   19.2123 C   0  0  0  0  0  0  0  0  0  0  0  0
  -28.5932  -13.5875   20.4955 C   0  0  0  0  0  0  0  0  0  0  0  0
  -30.8344  -17.3941   20.3814 C   0  0  1  0  0  0  0  0  0  0  0  0
  -30.8418  -29.7734   22.7576 C   0  0  1  0  0  0  0  0  0  0  0  0
  -28.4758  -29.2717   19.8279 C   0  0  1  0  0  0  0  0  0  0  0  0
  -27.5589  -13.0346   19.5061 C   0  0  2  0  0  0  0  0  0  0  0  0
  -21.2546  -28.9748   17.0405 C   0  0  0  0  0  0  0  0  0  0  0  0
  -24.8003  -29.2239   22.6295 C   0  0  0  0  0  0  0  0  0  0  0  0
  -22.5909  -28.8760   21.5043 C   0  0  0  0  0  0  0  0  0  0  0  0
  -23.7623  -31.0687   21.2976 C   0  0  0  0  0  0  0  0  0  0  0  0
  -24.4485  -28.0853   15.1739 C   0  0  0  0  0  0  0  0  0  0  0  0
  -30.0164  -22.1219   18.6571 C   0  0  0  0  0  0  0  0  0  1  0  0
  -24.6648  -29.0595   20.0564 C   0  0  1  0  0  0  0  0  0  0  0  0
  -22.7536  -28.9647   16.7841 C   0  0  2  0  0  0  0  0  0  0  0  0
  -23.9770  -29.5409   21.3651 C   0  0  0  0  0  0  0  0  0  0  0  0
  -25.9290  -11.6141   20.6914 N   0  0  0  0  0  0  0  0  0  0  0  0
  -26.2095  -12.8179   20.1640 N   0  0  0  0  0  0  0  0  0  0  0  0
  -27.1070  -28.7523   19.8010 N   0  0  0  0  0  0  0  0  0  0  0  0
  -30.0998  -16.1752   19.9703 N   0  0  0  0  0  0  0  0  0  0  0  0
  -29.8818  -13.8006   19.8293 N   0  0  0  0  0  0  0  0  0  0  0  0
  -25.3159  -14.9847   19.8216 N   0  0  0  0  0  0  0  0  0  0  0  0
  -21.9977  -12.8198   21.9892 N   0  0  0  0  0  0  0  0  0  0  0  0
  -30.2032  -29.7314   21.4596 N   0  0  0  0  0  0  0  0  0  0  0  0
  -23.9204  -29.3705   18.8409 N   0  0  0  0  0  0  0  0  0  0  0  0
  -23.0151  -28.1606   15.5569 N   0  3  0  0  0  0  0  0  0  0  0  0
  -22.6072  -14.8136   21.0341 O   0  0  0  0  0  0  0  0  0  0  0  0
  -28.2055  -28.7265   22.1092 O   0  0  0  0  0  0  0  0  0  0  0  0
  -26.1594  -30.8826   19.7942 O   0  0  0  0  0  0  0  0  0  0  0  0
  -23.7184  -27.1826   18.0996 O   0  0  0  0  0  0  0  0  0  0  0  0
  -31.9101  -14.7870   20.2833 O   0  0  0  0  0  0  0  0  0  0  0  0
  -22.1040   -7.5287   23.7291 O   0  0  0  0  0  0  0  0  0  0  0  0
  -28.9053  -22.8824   19.1143 O   0  0  0  0  0  0  0  0  0  1  0  0
  -16.8382   -6.5663   22.4064 F   0  0  0  0  0  0  0  0  0  0  0  0
  -21.3320   -5.1004   22.6567 F   0  0  0  0  0  0  0  0  0  0  0  0
  1  2  1  0  0  0  0
  1  5  2  0  0  0  0
  2  6  2  0  0  0  0
  3 10  2  0  0  0  0
  3 18  1  0  0  0  0
  4 11  1  0  0  0  0
  4 18  2  0  0  0  0
  5 20  1  0  0  0  0
  6 23  1  0  0  0  0
  7  9  2  0  0  0  0
  7 22  1  0  0  0  0
  8 12  2  0  0  0  0
  8 21  1  0  0  0  0
  9 26  1  0  0  0  0
 10 27  1  0  0  0  0
 11 27  2  0  0  0  0
 12 28  1  0  0  0  0
 13 14  2  0  0  0  0
 13 29  1  0  0  0  0
 14 30  1  0  0  0  0
 15 24  1  0  0  0  0
 15 26  2  0  0  0  0
 16 25  1  0  0  0  0
 16 28  2  0  0  0  0
 17 30  2  0  0  0  0
 17 31  1  0  0  0  0
 18 32  1  0  0  0  0
 19 32  1  0  0  0  0
 19 33  2  0  0  0  0
 19 36  1  0  0  0  0
 20 23  2  0  0  0  0
 20 41  1  0  0  0  0
 21 25  2  0  0  0  0
 21 42  1  0  0  0  0
 22 24  2  0  0  0  0
 22 43  1  0  0  0  0
 23 52  1  0  0  0  0
 24 51  1  0  0  0  0
 25 44  1  0  0  0  0
 26 60  1  0  0  0  0
 27 79  1  0  0  0  0
 28 80  1  0  0  0  0
 29 31  2  0  0  0  0
 29 79  1  0  0  0  0
 30 81  1  0  0  0  0
 31 82  1  0  0  0  0
 32 64  2  0  0  0  0
 33 65  1  0  0  0  0
 33 69  1  0  0  0  0
 34 35  2  0  0  0  0
 35 51  1  0  0  0  0
 36 70  1  0  0  0  0
 36 74  2  0  0  0  0
 37 53  1  0  0  0  0
 37 71  1  0  0  0  0
 37 75  2  0  0  0  0
 38 61  1  0  0  0  0
 38 66  1  0  0  0  0
 38 76  2  0  0  0  0
 39 62  1  0  0  0  0
 39 72  1  0  0  0  0
 39 77  2  0  0  0  0
 40 67  1  0  0  0  0
 40 68  1  0  0  0  0
 40 78  2  0  0  0  0
 41 45  1  0  0  0  0
 42 53  1  0  0  0  0
 43 67  1  0  0  0  0
 44 66  1  0  0  0  0
 45 47  1  0  0  0  0
 46 48  1  0  0  0  0
 46 49  1  0  0  0  0
 47 52  1  0  0  0  0
 48 54  1  0  0  0  0
 49 68  1  0  0  0  0
 50 54  1  0  0  0  0
 50 68  1  0  0  0  0
 51 67  1  0  0  0  0
 52 71  1  0  0  0  0
 53 66  1  0  0  0  0
 54 65  1  0  0  0  0
 55 62  1  0  0  0  0
 56 63  1  0  0  0  0
 57 63  1  0  0  0  0
 58 63  1  0  0  0  0
 59 73  1  0  0  0  0
 60 80  1  0  0  0  0
 61 63  1  0  0  0  0
 61 72  1  0  0  0  0
 62 73  1  0  0  0  0
 64 65  1  0  0  0  0
M  CHG  1  73   1
M  ISO  4  40 100  60 101  67 100  80 101
M  END
> <Batch ID>
0121

> <Smiles>
C=CC1c2cc([101CH2:1][101O:1]c3ccc4c(c3)CN(C(=O)C(NC(=O)C(C)NC)C(C)(C)C)C(C(=O)NC3CCCc5ccccc53)C4)ccc2C[100N:0]1[100C:0](=O)N1CCCC(n2nc(-c3ccc(Oc4ccc(F)cc4F)cc3)c(C(N)=O)c2N)C1

> <Shape>
0.297

> <Color>
0.172

> <Negative vol penalty>
0.000

$$$$

  -OEChem-04052301573D

 85 93  0     1  0  0  0  0  0999 V2000
  -23.8902  -29.1096   29.3381 C   0  0  0  0  0  0  0  0  0  0  0  0
  -24.7141  -28.5848   28.3477 C   0  0  0  0  0  0  0  0  0  0  0  0
  -23.4613   -9.1732   20.3668 C   0  0  0  0  0  0  0  0  0  0  0  0
  -23.1174  -11.0725   21.8199 C   0  0  0  0  0  0  0  0  0  0  0  0
  -22.5648  -29.4276   29.0446 C   0  0  0  0  0  0  0  0  0  0  0  0
  -24.2128  -28.3766   27.0632 C   0  0  0  0  0  0  0  0  0  0  0  0
  -27.2533  -28.9822   21.7817 C   0  0  0  0  0  0  0  0  0  0  0  0
  -22.5336   -8.4395   21.1063 C   0  0  0  0  0  0  0  0  0  0  0  0
  -22.1896  -10.3388   22.5593 C   0  0  0  0  0  0  0  0  0  0  0  0
  -27.8726  -28.0554   20.9443 C   0  0  0  0  0  0  0  0  0  0  0  0
  -22.4568   -6.7533   24.0346 C   0  0  0  0  0  0  0  0  0  0  0  0
  -22.7915   -5.4428   24.3754 C   0  0  0  0  0  0  0  0  0  0  0  0
  -29.8023  -19.4053   18.2807 C   0  0  0  0  0  0  0  0  0  0  0  0
  -25.8850  -27.9687   19.5801 C   0  0  0  0  0  0  0  0  0  0  0  0
  -31.0171  -19.1431   20.3525 C   0  0  0  0  0  0  0  0  0  0  0  0
  -20.8586   -4.6360   23.1712 C   0  0  0  0  0  0  0  0  0  0  0  0
  -23.7532  -10.4897   20.7237 C   0  0  0  0  0  0  0  0  0  0  0  0
  -29.5468  -18.0343   18.2569 C   0  0  0  0  0  0  0  0  0  0  0  0
  -24.4551  -12.0595   18.8394 C   0  0  0  0  0  0  0  0  0  0  0  0
  -22.0497  -29.2323   27.7534 C   0  0  0  0  0  0  0  0  0  0  0  0
  -25.9390  -29.4017   21.5303 C   0  0  0  0  0  0  0  0  0  0  0  0
  -22.8789  -28.6910   26.7525 C   0  0  0  0  0  0  0  0  0  0  0  0
  -25.2521  -28.9028   20.4143 C   0  0  0  0  0  0  0  0  0  0  0  0
  -30.0263  -17.2177   19.2810 C   0  0  0  0  0  0  0  0  0  0  0  0
  -21.8978   -9.0223   22.2025 C   0  0  0  0  0  0  0  0  0  0  0  0
  -27.1875  -27.5463   19.8450 C   0  0  0  0  0  0  0  0  0  0  0  0
  -21.3229   -7.0052   23.2622 C   0  0  0  0  0  0  0  0  0  0  0  0
  -30.5375  -19.9597   19.3284 C   0  0  0  0  0  0  0  0  0  0  0  0
  -21.9924   -4.3841   23.9437 C   0  0  0  0  0  0  0  0  0  0  0  0
  -30.7615  -17.7720   20.3288 C   0  0  0  0  0  0  0  0  0  0  0  0
  -20.5238   -5.9465   22.8305 C   0  0  0  0  0  0  0  0  0  0  0  0
  -24.7118  -11.2479   19.9606 C   0  0  0  0  0  0  0  0  0  0  0  0
  -25.6862  -12.5547   18.4848 C   0  0  0  0  0  0  0  0  0  0  0  0
  -27.5491  -17.8891   16.8414 C   0  0  0  0  0  0  0  0  0  0  0  0
  -28.7747  -17.4913   17.1455 C   0  0  0  0  0  0  0  0  0  0  0  0
  -23.2147  -12.3407   18.1775 C   0  0  0  0  0  0  0  0  0  0  0  0
  -23.1858  -29.2197   23.1084 C   0  0  0  0  0  0  0  0  0  0  0  0
  -22.1155  -31.0760   20.6730 C   0  0  0  0  0  0  0  0  0  0  0  0
  -22.4881  -32.1184   17.4448 C   0  0  0  0  0  0  0  0  0  0  0  0
  -30.5927  -14.8230   19.8205 C   0  0  0  0  0  0  0  0  0  0  0  0
  -20.5973  -29.5468   27.4959 C   0  0  0  0  0  0  0  0  0  0  0  0
  -25.2945  -30.4222   22.4279 C   0  0  0  0  0  0  0  0  0  0  0  0
  -23.8468  -29.3362   20.0891 C   0  0  0  0  0  0  0  0  0  0  0  0
  -20.2492  -29.6463   26.0130 C   0  0  0  0  0  0  0  0  0  0  0  0
  -30.3262  -11.2803   20.0559 C   0  0  0  0  0  0  0  0  0  0  0  0
  -20.8484  -28.4730   25.2441 C   0  0  0  0  0  0  0  0  0  0  0  0
  -28.8206  -11.0228   19.9598 C   0  0  0  0  0  0  0  0  0  0  0  0
  -30.6346  -12.5560   20.8375 C   0  0  0  0  0  0  0  0  0  0  0  0
  -28.4321  -13.5010   20.2674 C   0  0  0  0  0  0  0  0  0  0  0  0
  -22.3788  -28.4740   25.3408 C   0  0  1  0  0  0  0  0  0  0  0  0
  -23.7703  -30.3908   22.3705 C   0  0  1  0  0  0  0  0  0  0  0  0
  -28.0695  -12.2614   19.4333 C   0  0  2  0  0  0  0  0  0  0  0  0
  -21.4372  -33.6111   15.7230 C   0  0  0  0  0  0  0  0  0  0  0  0
  -19.9040  -29.0183   20.2425 C   0  0  0  0  0  0  0  0  0  0  0  0
  -19.4934  -30.0335   17.9911 C   0  0  0  0  0  0  0  0  0  0  0  0
  -19.1645  -31.3998   20.0521 C   0  0  0  0  0  0  0  0  0  0  0  0
  -24.9287  -33.7782   17.2255 C   0  0  0  0  0  0  0  0  0  0  0  0
  -28.7990  -24.4537   18.8631 C   0  0  0  0  0  0  0  0  0  0  0  0
  -29.8105  -23.4893   19.4729 C   0  0  0  0  0  0  0  0  0  0  0  0
  -28.7600  -25.7769   19.6161 C   0  0  0  0  0  0  0  0  0  1  0  0
  -29.8195  -22.1512   18.7474 C   0  0  0  0  0  0  0  0  0  0  0  0
  -21.5108  -30.8137   19.3148 C   0  0  1  0  0  0  0  0  0  0  0  0
  -22.4782  -33.5048   16.8265 C   0  0  2  0  0  0  0  0  0  0  0  0
  -20.0440  -30.3065   19.4071 C   0  0  0  0  0  0  0  0  0  0  0  0
  -26.0045  -11.2259   20.2961 N   0  0  0  0  0  0  0  0  0  0  0  0
  -26.5710  -12.0298   19.3802 N   0  0  0  0  0  0  0  0  0  0  0  0
  -23.2574  -30.3313   21.0002 N   0  0  0  0  0  0  0  0  0  0  0  0
  -29.8914  -13.6879   20.2795 N   0  0  0  0  0  0  0  0  0  0  0  0
  -26.0873  -13.3835   17.4976 N   0  0  0  0  0  0  0  0  0  0  0  0
  -22.0443  -11.7493   18.6723 N   0  0  0  0  0  0  0  0  0  0  0  0
  -29.7829  -15.8218   19.2808 N   0  0  0  0  0  0  0  0  0  0  0  0
  -22.9411  -29.4631   24.4464 N   0  0  0  0  0  0  0  0  0  0  0  0
  -21.6697  -32.0472   18.5522 N   0  0  0  0  0  0  0  0  0  0  0  0
  -23.8132  -33.8223   16.2453 N   0  3  0  0  0  0  0  0  0  0  0  0
  -23.1486  -13.0810   17.1670 O   0  0  0  0  0  0  0  0  0  0  0  0
  -22.9711  -28.1733   22.5079 O   0  0  0  0  0  0  0  0  0  0  0  0
  -21.5979  -31.9160   21.4134 O   0  0  0  0  0  0  0  0  0  0  0  0
  -23.1524  -31.1904   16.9887 O   0  0  0  0  0  0  0  0  0  0  0  0
  -31.8232  -14.8916   19.8753 O   0  0  0  0  0  0  0  0  0  0  0  0
  -20.9923   -8.3067   22.9241 O   0  0  0  0  0  0  0  0  0  0  0  0
  -27.7895  -26.6411   19.0265 O   0  0  0  0  0  0  0  0  0  1  0  0
  -30.7893  -21.3069   19.3522 O   0  0  0  0  0  0  0  0  0  0  0  0
  -22.3149   -3.1256   24.2697 F   0  0  0  0  0  0  0  0  0  0  0  0
  -31.2295  -16.9981   21.3188 F   0  0  0  0  0  0  0  0  0  0  0  0
  -19.4340   -6.1822   22.0872 F   0  0  0  0  0  0  0  0  0  0  0  0
  1  2  1  0  0  0  0
  1  5  2  0  0  0  0
  2  6  2  0  0  0  0
  3  8  2  0  0  0  0
  3 17  1  0  0  0  0
  4  9  1  0  0  0  0
  4 17  2  0  0  0  0
  5 20  1  0  0  0  0
  6 22  1  0  0  0  0
  7 10  2  0  0  0  0
  7 21  1  0  0  0  0
  8 25  1  0  0  0  0
  9 25  2  0  0  0  0
 10 26  1  0  0  0  0
 11 12  2  0  0  0  0
 11 27  1  0  0  0  0
 12 29  1  0  0  0  0
 13 18  1  0  0  0  0
 13 28  2  0  0  0  0
 14 23  1  0  0  0  0
 14 26  2  0  0  0  0
 15 28  1  0  0  0  0
 15 30  2  0  0  0  0
 16 29  2  0  0  0  0
 16 31  1  0  0  0  0
 17 32  1  0  0  0  0
 18 24  2  0  0  0  0
 18 35  1  0  0  0  0
 19 32  1  0  0  0  0
 19 33  2  0  0  0  0
 19 36  1  0  0  0  0
 20 22  2  0  0  0  0
 20 41  1  0  0  0  0
 21 23  2  0  0  0  0
 21 42  1  0  0  0  0
 22 50  1  0  0  0  0
 23 43  1  0  0  0  0
 24 30  1  0  0  0  0
 24 71  1  0  0  0  0
 25 80  1  0  0  0  0
 26 81  1  0  0  0  0
 27 31  2  0  0  0  0
 27 80  1  0  0  0  0
 28 82  1  0  0  0  0
 29 83  1  0  0  0  0
 30 84  1  0  0  0  0
 31 85  1  0  0  0  0
 32 65  2  0  0  0  0
 33 66  1  0  0  0  0
 33 69  1  0  0  0  0
 34 35  2  0  0  0  0
 36 70  1  0  0  0  0
 36 75  2  0  0  0  0
 37 51  1  0  0  0  0
 37 72  1  0  0  0  0
 37 76  2  0  0  0  0
 38 62  1  0  0  0  0
 38 67  1  0  0  0  0
 38 77  2  0  0  0  0
 39 63  1  0  0  0  0
 39 73  1  0  0  0  0
 39 78  2  0  0  0  0
 40 68  1  0  0  0  0
 40 71  1  0  0  0  0
 40 79  2  0  0  0  0
 41 44  1  0  0  0  0
 42 51  1  0  0  0  0
 43 67  1  0  0  0  0
 44 46  1  0  0  0  0
 45 47  1  0  0  0  0
 45 48  1  0  0  0  0
 46 50  1  0  0  0  0
 47 52  1  0  0  0  0
 48 68  1  0  0  0  0
 49 52  1  0  0  0  0
 49 68  1  0  0  0  0
 50 72  1  0  0  0  0
 51 67  1  0  0  0  0
 52 66  1  0  0  0  0
 53 63  1  0  0  0  0
 54 64  1  0  0  0  0
 55 64  1  0  0  0  0
 56 64  1  0  0  0  0
 57 74  1  0  0  0  0
 58 59  1  0  0  0  0
 58 60  1  0  0  0  0
 59 61  1  0  0  0  0
 60 81  1  0  0  0  0
 61 82  1  0  0  0  0
 62 64  1  0  0  0  0
 62 73  1  0  0  0  0
 63 74  1  0  0  0  0
 65 66  1  0  0  0  0
M  CHG  1  74   1
M  ISO  4  40 100  60 101  71 100  81 101
M  END
> <Batch ID>
0121

> <Smiles>
C=Cc1cc(OCCC[101CH2:1][101O:1]c2ccc3c(c2)CN(C(=O)C(NC(=O)C(C)NC)C(C)(C)C)C(C(=O)NC2CCCc4ccccc42)C3)cc(F)c1[100NH:0][100C:0](=O)N1CCCC(n2nc(-c3ccc(Oc4ccc(F)cc4F)cc3)c(C(N)=O)c2N)C1

> <Shape>
0.257

> <Color>
0.113

> <Negative vol penalty>
0.000

$$$$

  -OEChem-04052301573D

 87 95  0     1  0  0  0  0  0999 V2000
  -24.6946  -29.2846   16.6071 C   0  0  0  0  0  0  0  0  0  0  0  0
  -24.5425  -27.9050   16.7018 C   0  0  0  0  0  0  0  0  0  0  0  0
  -29.4140  -19.1956   18.4528 C   0  0  0  0  0  0  0  0  0  0  0  0
  -28.5989  -18.9619   20.7151 C   0  0  0  0  0  0  0  0  0  0  0  0
  -25.2513  -29.9979   17.6678 C   0  0  0  0  0  0  0  0  0  0  0  0
  -24.9481  -27.2377   17.8571 C   0  0  0  0  0  0  0  0  0  0  0  0
  -22.3099  -22.3252   20.3894 C   0  0  0  0  0  0  0  0  0  0  0  0
  -28.9637  -20.5155   18.4269 C   0  0  0  0  0  0  0  0  0  0  0  0
  -28.1486  -20.2818   20.6892 C   0  0  0  0  0  0  0  0  0  0  0  0
  -22.6075  -20.9645   20.3282 C   0  0  0  0  0  0  0  0  0  0  0  0
  -28.8003  -23.7134   21.2802 C   0  0  0  0  0  0  0  0  0  0  0  0
  -29.6820  -24.7081   21.7027 C   0  0  0  0  0  0  0  0  0  0  0  0
  -23.8349  -21.1460   22.3970 C   0  0  0  0  0  0  0  0  0  0  0  0
  -23.8885   -7.3363   20.8135 C   0  0  0  0  0  0  0  0  0  0  0  0
  -22.7613   -9.3037   21.6478 C   0  0  0  0  0  0  0  0  0  0  0  0
  -30.4995  -24.9440   19.4415 C   0  0  0  0  0  0  0  0  0  0  0  0
  -29.2316  -18.4188   19.5969 C   0  0  0  0  0  0  0  0  0  0  0  0
  -30.9625  -16.5964   20.0333 C   0  0  0  0  0  0  0  0  0  0  0  0
  -25.6551  -29.3402   18.8405 C   0  0  0  0  0  0  0  0  0  0  0  0
  -22.7826  -23.1100   21.4510 C   0  0  0  0  0  0  0  0  0  0  0  0
  -25.5120  -27.9427   18.9340 C   0  0  0  0  0  0  0  0  0  0  0  0
  -23.5398  -22.5158   22.4707 C   0  0  0  0  0  0  0  0  0  0  0  0
  -22.8629   -7.9152   21.5609 C   0  0  0  0  0  0  0  0  0  0  0  0
  -24.8126   -8.1459   20.1529 C   0  0  0  0  0  0  0  0  0  0  0  0
  -24.7111   -9.5344   20.2398 C   0  0  0  0  0  0  0  0  0  0  0  0
  -28.3310  -21.0586   19.5451 C   0  0  0  0  0  0  0  0  0  0  0  0
  -23.3725  -20.3753   21.3306 C   0  0  0  0  0  0  0  0  0  0  0  0
  -28.7682  -23.3338   19.9383 C   0  0  0  0  0  0  0  0  0  0  0  0
  -23.6854  -10.1133   20.9872 C   0  0  0  0  0  0  0  0  0  0  0  0
  -30.5316  -25.3235   20.7834 C   0  0  0  0  0  0  0  0  0  0  0  0
  -29.6178  -23.9492   19.0190 C   0  0  0  0  0  0  0  0  0  0  0  0
  -29.6960  -17.0551   19.6241 C   0  0  0  0  0  0  0  0  0  0  0  0
  -30.9028  -15.2337   19.8719 C   0  0  0  0  0  0  0  0  0  0  0  0
  -21.8650  -14.4637   21.2974 C   0  0  0  0  0  0  0  0  0  0  0  0
  -22.1886  -13.3465   20.6298 C   0  0  0  0  0  0  0  0  0  0  0  0
  -32.0919  -17.3360   20.5161 C   0  0  0  0  0  0  0  0  0  0  0  0
  -24.7148  -25.6220   21.6966 C   0  0  0  0  0  0  0  0  0  0  0  0
  -23.7955  -25.5339   24.8061 C   0  0  0  0  0  0  0  0  0  0  0  0
  -22.5772  -23.7038   27.4164 C   0  0  0  0  0  0  0  0  0  0  0  0
  -26.0882  -11.6323   19.9455 C   0  0  0  0  0  0  0  0  0  0  0  0
  -26.2952  -30.1476   19.9419 C   0  0  0  0  0  0  0  0  0  0  0  0
  -22.4304  -24.5709   21.5164 C   0  0  0  0  0  0  0  0  0  0  0  0
  -24.0540  -23.3104   23.6423 C   0  0  0  0  0  0  0  0  0  0  0  0
  -26.3544  -29.4140   21.2793 C   0  0  0  0  0  0  0  0  0  0  0  0
  -28.2631  -12.4756   16.8988 C   0  0  0  0  0  0  0  0  0  0  0  0
  -26.8612  -27.9885   21.0842 C   0  0  0  0  0  0  0  0  0  0  0  0
  -29.4110  -13.1990   17.5991 C   0  0  0  0  0  0  0  0  0  0  0  0
  -27.5163  -11.5346   17.8356 C   0  0  0  0  0  0  0  0  0  0  0  0
  -27.5636  -13.5384   19.3319 C   0  0  0  0  0  0  0  0  0  0  0  0
  -25.9171  -27.1863   20.1805 C   0  0  1  0  0  0  0  0  0  0  0  0
  -23.3965  -25.3806   22.3758 C   0  0  1  0  0  0  0  0  0  0  0  0
  -29.0715  -13.6115   19.0451 C   0  0  2  0  0  0  0  0  0  0  0  0
  -21.8752   -7.0505   22.2688 C   0  0  0  0  0  0  0  0  0  0  0  0
  -25.6292   -7.5422   17.8605 C   0  0  0  0  0  0  0  0  0  0  0  0
  -21.9684  -23.8971   29.8432 C   0  0  0  0  0  0  0  0  0  0  0  0
  -26.7544  -25.4877   25.5496 C   0  0  0  0  0  0  0  0  0  0  0  0
  -26.0946  -24.7330   27.8438 C   0  0  0  0  0  0  0  0  0  0  0  0
  -25.3377  -26.9542   26.9976 C   0  0  0  0  0  0  0  0  0  0  0  0
  -19.7536  -22.9949   26.8840 C   0  0  0  0  0  0  0  0  0  0  0  0
  -25.9009   -7.4968   19.3608 C   0  0  0  0  0  0  0  0  0  0  0  0
  -21.7884  -15.8224   20.6631 C   0  0  0  0  0  0  0  0  0  0  0  0
  -22.2559  -11.9942   21.2601 C   0  0  0  0  0  0  0  0  0  0  0  0
  -22.7586  -16.8261   21.2878 C   0  0  0  0  0  0  0  0  0  0  0  0
  -22.7137  -18.2002   20.6297 C   0  0  0  0  0  0  0  0  0  1  0  0
  -24.3036  -24.8497   26.0522 C   0  0  1  0  0  0  0  0  0  0  0  0
  -21.4650  -23.9842   28.4108 C   0  0  2  0  0  0  0  0  0  0  0  0
  -25.6147  -25.4913   26.5879 C   0  0  0  0  0  0  0  0  0  0  0  0
  -28.8907  -16.0643   19.2321 N   0  0  0  0  0  0  0  0  0  0  0  0
  -29.6530  -14.9694   19.3941 N   0  0  0  0  0  0  0  0  0  0  0  0
  -23.6884  -24.7364   23.6580 N   0  0  0  0  0  0  0  0  0  0  0  0
  -27.0353  -12.1973   19.0566 N   0  0  0  0  0  0  0  0  0  0  0  0
  -31.7980  -14.2479   20.0933 N   0  0  0  0  0  0  0  0  0  0  0  0
  -31.9832  -18.7294   20.6201 N   0  0  0  0  0  0  0  0  0  0  0  0
  -25.6478  -10.3605   19.5697 N   0  0  0  0  0  0  0  0  0  0  0  0
  -24.7467  -26.7645   20.9199 N   0  0  0  0  0  0  0  0  0  0  0  0
  -23.1989  -24.8638   27.0050 N   0  0  0  0  0  0  0  0  0  0  0  0
  -20.3583  -23.0007   28.2410 N   0  3  0  0  0  0  0  0  0  0  0  0
  -33.1713  -16.7792   20.8301 O   0  0  0  0  0  0  0  0  0  0  0  0
  -25.6355  -24.8311   21.8658 O   0  0  0  0  0  0  0  0  0  0  0  0
  -23.4977  -26.7301   24.8517 O   0  0  0  0  0  0  0  0  0  0  0  0
  -22.8681  -22.5690   27.0448 O   0  0  0  0  0  0  0  0  0  0  0  0
  -25.7150  -12.2276   20.9586 O   0  0  0  0  0  0  0  0  0  0  0  0
  -27.8917  -22.3466   19.5202 O   0  0  0  0  0  0  0  0  0  0  0  0
  -23.5672  -11.4753   21.0875 O   0  0  0  0  0  0  0  0  0  0  0  0
  -23.6649  -19.0475   21.2729 O   0  0  0  0  0  0  0  0  0  1  0  0
  -31.3772  -26.2798   21.1890 F   0  0  0  0  0  0  0  0  0  0  0  0
  -29.5907  -23.5896   17.7283 F   0  0  0  0  0  0  0  0  0  0  0  0
  1  2  1  0  0  0  0
  1  5  2  0  0  0  0
  2  6  2  0  0  0  0
  3  8  2  0  0  0  0
  3 17  1  0  0  0  0
  4  9  1  0  0  0  0
  4 17  2  0  0  0  0
  5 19  1  0  0  0  0
  6 21  1  0  0  0  0
  7 10  2  0  0  0  0
  7 20  1  0  0  0  0
  8 26  1  0  0  0  0
  9 26  2  0  0  0  0
 10 27  1  0  0  0  0
 11 12  2  0  0  0  0
 11 28  1  0  0  0  0
 12 30  1  0  0  0  0
 13 22  1  0  0  0  0
 13 27  2  0  0  0  0
 14 23  2  0  0  0  0
 14 24  1  0  0  0  0
 15 23  1  0  0  0  0
 15 29  2  0  0  0  0
 16 30  2  0  0  0  0
 16 31  1  0  0  0  0
 17 32  1  0  0  0  0
 18 32  1  0  0  0  0
 18 33  2  0  0  0  0
 18 36  1  0  0  0  0
 19 21  2  0  0  0  0
 19 41  1  0  0  0  0
 20 22  2  0  0  0  0
 20 42  1  0  0  0  0
 21 50  1  0  0  0  0
 22 43  1  0  0  0  0
 23 53  1  0  0  0  0
 24 25  2  0  0  0  0
 24 60  1  0  0  0  0
 25 29  1  0  0  0  0
 25 74  1  0  0  0  0
 26 83  1  0  0  0  0
 27 85  1  0  0  0  0
 28 31  2  0  0  0  0
 28 83  1  0  0  0  0
 29 84  1  0  0  0  0
 30 86  1  0  0  0  0
 31 87  1  0  0  0  0
 32 68  2  0  0  0  0
 33 69  1  0  0  0  0
 33 72  1  0  0  0  0
 34 35  2  0  0  0  0
 34 61  1  0  0  0  0
 35 62  1  0  0  0  0
 36 73  1  0  0  0  0
 36 78  2  0  0  0  0
 37 51  1  0  0  0  0
 37 75  1  0  0  0  0
 37 79  2  0  0  0  0
 38 65  1  0  0  0  0
 38 70  1  0  0  0  0
 38 80  2  0  0  0  0
 39 66  1  0  0  0  0
 39 76  1  0  0  0  0
 39 81  2  0  0  0  0
 40 71  1  0  0  0  0
 40 74  1  0  0  0  0
 40 82  2  0  0  0  0
 41 44  1  0  0  0  0
 42 51  1  0  0  0  0
 43 70  1  0  0  0  0
 44 46  1  0  0  0  0
 45 47  1  0  0  0  0
 45 48  1  0  0  0  0
 46 50  1  0  0  0  0
 47 52  1  0  0  0  0
 48 71  1  0  0  0  0
 49 52  1  0  0  0  0
 49 71  1  0  0  0  0
 50 75  1  0  0  0  0
 51 70  1  0  0  0  0
 52 69  1  0  0  0  0
 54 60  1  0  0  0  0
 55 66  1  0  0  0  0
 56 67  1  0  0  0  0
 57 67  1  0  0  0  0
 58 67  1  0  0  0  0
 59 77  1  0  0  0  0
 61 63  1  0  0  0  0
 62 84  1  0  0  0  0
 63 64  1  0  0  0  0
 64 85  1  0  0  0  0
 65 67  1  0  0  0  0
 65 76  1  0  0  0  0
 66 77  1  0  0  0  0
 68 69  1  0  0  0  0
M  CHG  1  77   1
M  ISO  4  40 100  64 101  74 100  85 101
M  END
> <Batch ID>
0121

> <Smiles>
CCc1cc(C)cc(OCC=CCC[101CH2:1][101O:1]c2ccc3c(c2)CN(C(=O)C(NC(=O)C(C)NC)C(C)(C)C)C(C(=O)NC2CCCc4ccccc42)C3)c1[100NH:0][100C:0](=O)N1CCCC(n2nc(-c3ccc(Oc4ccc(F)cc4F)cc3)c(C(N)=O)c2N)C1

> <Shape>
0.213

> <Color>
0.056

> <Negative vol penalty>
0.000

$$$$

  -OEChem-04052301573D

 84 92  0     1  0  0  0  0  0999 V2000
  -19.6012  -33.9511   21.3134 C   0  0  0  0  0  0  0  0  0  0  0  0
  -20.8990  -33.5548   21.0064 C   0  0  0  0  0  0  0  0  0  0  0  0
  -24.2136   -9.5588   22.0618 C   0  0  0  0  0  0  0  0  0  0  0  0
  -23.4754   -9.4348   19.7647 C   0  0  0  0  0  0  0  0  0  0  0  0
  -18.8610  -33.2395   22.2567 C   0  0  0  0  0  0  0  0  0  0  0  0
  -21.4577  -32.4474   21.6434 C   0  0  0  0  0  0  0  0  0  0  0  0
  -25.3668  -28.3969   19.2312 C   0  0  0  0  0  0  0  0  0  0  0  0
  -23.1819   -8.6996   22.4398 C   0  0  0  0  0  0  0  0  0  0  0  0
  -22.4437   -8.5755   20.1427 C   0  0  0  0  0  0  0  0  0  0  0  0
  -26.7536  -28.2736   19.3043 C   0  0  0  0  0  0  0  0  0  0  0  0
  -22.5470   -5.3796   22.3519 C   0  0  0  0  0  0  0  0  0  0  0  0
  -22.8586   -4.3374   23.2250 C   0  0  0  0  0  0  0  0  0  0  0  0
  -29.2211  -21.1604   21.2639 C   0  0  0  0  0  0  0  0  0  0  0  0
  -31.1876  -20.6735   19.9475 C   0  0  0  0  0  0  0  0  0  0  0  0
  -26.5118  -26.6915   21.1092 C   0  0  0  0  0  0  0  0  0  0  0  0
  -21.2739   -5.2068   24.8282 C   0  0  0  0  0  0  0  0  0  0  0  0
  -24.3603   -9.9265   20.7242 C   0  0  0  0  0  0  0  0  0  0  0  0
  -30.0798  -20.2339   20.6722 C   0  0  0  0  0  0  0  0  0  0  0  0
  -30.5781  -22.9659   20.4061 C   0  0  0  0  0  0  0  0  0  0  0  0
  -26.7272  -10.4567   19.9340 C   0  0  0  0  0  0  0  0  0  0  0  0
  -19.4076  -32.1170   22.8985 C   0  0  0  0  0  0  0  0  0  0  0  0
  -24.5410  -27.6755   20.1054 C   0  0  0  0  0  0  0  0  0  0  0  0
  -20.7246  -31.7209   22.5971 C   0  0  0  0  0  0  0  0  0  0  0  0
  -25.1147  -26.8055   21.0435 C   0  0  0  0  0  0  0  0  0  0  0  0
  -29.4703  -22.5264   21.1307 C   0  0  0  0  0  0  0  0  0  0  0  0
  -31.4368  -22.0395   19.8144 C   0  0  0  0  0  0  0  0  0  0  0  0
  -22.2970   -8.2079   21.4802 C   0  0  0  0  0  0  0  0  0  0  0  0
  -27.3264  -27.4230   20.2453 C   0  0  0  0  0  0  0  0  0  0  0  0
  -21.5990   -6.3355   22.7169 C   0  0  0  0  0  0  0  0  0  0  0  0
  -22.2220   -4.2510   24.4631 C   0  0  0  0  0  0  0  0  0  0  0  0
  -20.9624   -6.2491   23.9550 C   0  0  0  0  0  0  0  0  0  0  0  0
  -25.4255  -10.8145   20.3332 C   0  0  0  0  0  0  0  0  0  0  0  0
  -27.3464  -11.6538   19.6695 C   0  0  0  0  0  0  0  0  0  0  0  0
  -29.8204  -18.8093   20.8101 C   0  0  0  0  0  0  0  0  0  0  0  0
  -30.8397  -24.4080   20.2650 C   0  0  0  0  0  0  0  0  0  0  0  0
  -28.6316  -18.2575   21.1339 C   0  0  0  0  0  0  0  0  0  0  0  0
  -30.3874  -25.1815   19.2657 C   0  0  0  0  0  0  0  0  0  0  0  0
  -27.3232   -9.1583   19.8130 C   0  0  0  0  0  0  0  0  0  0  0  0
  -28.5251  -16.7875   21.2256 C   0  0  0  0  0  0  0  0  0  0  0  0
  -22.4309  -28.4527   22.3519 C   0  0  0  0  0  0  0  0  0  0  0  0
  -21.8955  -25.2538   22.4064 C   0  0  0  0  0  0  0  0  0  0  0  0
  -23.0676  -22.1092   21.7864 C   0  0  0  0  0  0  0  0  0  0  0  0
  -18.5859  -31.4079   23.9457 C   0  0  0  0  0  0  0  0  0  0  0  0
  -23.0460  -27.7993   19.9959 C   0  0  0  0  0  0  0  0  0  0  0  0
  -24.2717  -25.9934   21.9913 C   0  0  0  0  0  0  0  0  0  0  0  0
  -19.1174  -30.0218   24.3013 C   0  0  0  0  0  0  0  0  0  0  0  0
  -25.4787  -16.3186   19.2428 C   0  0  0  0  0  0  0  0  0  0  0  0
  -20.6259  -30.0690   24.5225 C   0  0  0  0  0  0  0  0  0  0  0  0
  -25.2797  -14.8100   19.3626 C   0  0  0  0  0  0  0  0  0  0  0  0
  -26.0771  -16.9190   20.5140 C   0  0  0  0  0  0  0  0  0  0  0  0
  -27.1454  -14.7519   21.0643 C   0  0  0  0  0  0  0  0  0  0  0  0
  -21.3567  -30.5101   23.2486 C   0  0  1  0  0  0  0  0  0  0  0  0
  -22.3186  -27.4075   21.2784 C   0  0  1  0  0  0  0  0  0  0  0  0
  -26.5881  -14.1197   19.7794 C   0  0  1  0  0  0  0  0  0  0  0  0
  -28.5265  -23.4877   21.7796 C   0  0  0  0  0  0  0  0  0  0  0  0
  -32.6344  -22.4709   19.0293 C   0  0  0  0  0  0  0  0  0  0  0  0
  -22.4158  -19.6927   21.9680 C   0  0  0  0  0  0  0  0  0  0  0  0
  -22.3929  -25.3482   25.4154 C   0  0  0  0  0  0  0  0  0  0  0  0
  -22.6713  -22.8604   25.3770 C   0  0  0  0  0  0  0  0  0  0  0  0
  -20.4923  -23.8801   24.7177 C   0  0  0  0  0  0  0  0  0  0  0  0
  -23.2990  -21.7072   18.8635 C   0  0  0  0  0  0  0  0  0  0  0  0
  -30.6896  -26.6508   19.1535 C   0  0  0  0  0  0  0  0  0  0  0  0
  -29.4154  -27.4860   19.1104 C   0  0  0  0  0  0  0  0  0  1  0  0
  -22.4770  -24.0853   23.1650 C   0  0  1  0  0  0  0  0  0  0  0  0
  -22.4420  -20.9232   21.0747 C   0  0  2  0  0  0  0  0  0  0  0  0
  -22.0246  -24.0602   24.6523 C   0  0  0  0  0  0  0  0  0  0  0  0
  -25.2284  -12.1355   20.3247 N   0  0  0  0  0  0  0  0  0  0  0  0
  -26.4145  -12.6183   19.9170 N   0  0  0  0  0  0  0  0  0  0  0  0
  -27.2952  -16.2048   20.9249 N   0  0  0  0  0  0  0  0  0  0  0  0
  -22.8151  -26.1538   21.8494 N   0  0  0  0  0  0  0  0  0  0  0  0
  -28.5919  -11.9649   19.2517 N   0  0  0  0  0  0  0  0  0  0  0  0
  -26.5457   -8.0346   20.1244 N   0  0  0  0  0  0  0  0  0  0  0  0
  -21.4389  -29.4136   22.3077 N   0  0  0  0  0  0  0  0  0  0  0  0
  -22.1174  -22.8894   22.4108 N   0  0  0  0  0  0  0  0  0  0  0  0
  -23.2125  -20.5932   19.8425 N   0  3  0  0  0  0  0  0  0  0  0  0
  -28.5152   -9.0003   19.4557 O   0  0  0  0  0  0  0  0  0  0  0  0
  -29.5318  -16.1646   21.5681 O   0  0  0  0  0  0  0  0  0  0  0  0
  -23.3489  -28.3911   23.1614 O   0  0  0  0  0  0  0  0  0  0  0  0
  -20.6707  -25.3602   22.3055 O   0  0  0  0  0  0  0  0  0  0  0  0
  -24.2783  -22.3202   21.7914 O   0  0  0  0  0  0  0  0  0  0  0  0
  -21.2903   -7.3692   21.8487 O   0  0  0  0  0  0  0  0  0  0  0  0
  -28.6798  -27.3013   20.3191 O   0  0  0  0  0  0  0  0  0  1  0  0
  -22.5201   -3.2492   25.3008 F   0  0  0  0  0  0  0  0  0  0  0  0
  -20.0499   -7.1638   24.3108 F   0  0  0  0  0  0  0  0  0  0  0  0
  1  2  1  0  0  0  0
  1  5  2  0  0  0  0
  2  6  2  0  0  0  0
  3  8  2  0  0  0  0
  3 17  1  0  0  0  0
  4  9  1  0  0  0  0
  4 17  2  0  0  0  0
  5 21  1  0  0  0  0
  6 23  1  0  0  0  0
  7 10  2  0  0  0  0
  7 22  1  0  0  0  0
  8 27  1  0  0  0  0
  9 27  2  0  0  0  0
 10 28  1  0  0  0  0
 11 12  2  0  0  0  0
 11 29  1  0  0  0  0
 12 30  1  0  0  0  0
 13 18  1  0  0  0  0
 13 25  2  0  0  0  0
 14 18  2  0  0  0  0
 14 26  1  0  0  0  0
 15 24  1  0  0  0  0
 15 28  2  0  0  0  0
 16 30  2  0  0  0  0
 16 31  1  0  0  0  0
 17 32  1  0  0  0  0
 18 34  1  0  0  0  0
 19 25  1  0  0  0  0
 19 26  2  0  0  0  0
 19 35  1  0  0  0  0
 20 32  1  0  0  0  0
 20 33  2  0  0  0  0
 20 38  1  0  0  0  0
 21 23  2  0  0  0  0
 21 43  1  0  0  0  0
 22 24  2  0  0  0  0
 22 44  1  0  0  0  0
 23 52  1  0  0  0  0
 24 45  1  0  0  0  0
 25 55  1  0  0  0  0
 26 56  1  0  0  0  0
 27 81  1  0  0  0  0
 28 82  1  0  0  0  0
 29 31  2  0  0  0  0
 29 81  1  0  0  0  0
 30 83  1  0  0  0  0
 31 84  1  0  0  0  0
 32 67  2  0  0  0  0
 33 68  1  0  0  0  0
 33 71  1  0  0  0  0
 34 36  2  0  0  0  0
 35 37  2  0  0  0  0
 36 39  1  0  0  0  0
 37 62  1  0  0  0  0
 38 72  1  0  0  0  0
 38 76  2  0  0  0  0
 39 69  1  0  0  0  0
 39 77  2  0  0  0  0
 40 53  1  0  0  0  0
 40 73  1  0  0  0  0
 40 78  2  0  0  0  0
 41 64  1  0  0  0  0
 41 70  1  0  0  0  0
 41 79  2  0  0  0  0
 42 65  1  0  0  0  0
 42 74  1  0  0  0  0
 42 80  2  0  0  0  0
 43 46  1  0  0  0  0
 44 53  1  0  0  0  0
 45 70  1  0  0  0  0
 46 48  1  0  0  0  0
 47 49  1  0  0  0  0
 47 50  1  0  0  0  0
 48 52  1  0  0  0  0
 49 54  1  0  0  0  0
 50 69  1  0  0  0  0
 51 54  1  0  0  0  0
 51 69  1  0  0  0  0
 52 73  1  0  0  0  0
 53 70  1  0  0  0  0
 54 68  1  0  0  0  0
 57 65  1  0  0  0  0
 58 66  1  0  0  0  0
 59 66  1  0  0  0  0
 60 66  1  0  0  0  0
 61 75  1  0  0  0  0
 62 63  1  0  0  0  0
 63 82  1  0  0  0  0
 64 66  1  0  0  0  0
 64 74  1  0  0  0  0
 65 75  1  0  0  0  0
 67 68  1  0  0  0  0
M  CHG  1  75   1
M  ISO  4  36 100  39 100  63 101  82 101
M  END
> <Batch ID>
0121

> <Smiles>
CNC(C)C(=O)NC(C(=O)N1Cc2cc([101O:1][101CH2:1]CC=Cc3c(C)cc(C=[100CH:0][100C:0](=O)N4CCCC(n5nc(-c6ccc(Oc7ccc(F)cc7F)cc6)c(C(N)=O)c5N)C4)cc3C)ccc2CC1C(=O)NC1CCCc2ccccc21)C(C)(C)C

> <Shape>
0.262

> <Color>
0.128

> <Negative vol penalty>
0.000

$$$$

  -OEChem-04052301573D

 84 92  0     1  0  0  0  0  0999 V2000
  -25.3516  -21.9449   16.1511 C   0  0  0  0  0  0  0  0  0  0  0  0
  -25.7312  -20.6230   15.9479 C   0  0  0  0  0  0  0  0  0  0  0  0
  -25.4167  -27.5077   19.8048 C   0  0  0  0  0  0  0  0  0  0  0  0
  -27.2929  -28.9626   20.2520 C   0  0  0  0  0  0  0  0  0  0  0  0
  -24.9688  -22.3688   17.4219 C   0  0  0  0  0  0  0  0  0  0  0  0
  -25.7166  -19.7215   17.0128 C   0  0  0  0  0  0  0  0  0  0  0  0
  -27.4731  -13.8937   17.2939 C   0  0  0  0  0  0  0  0  0  0  0  0
  -30.7284  -15.6802   23.4049 C   0  0  0  0  0  0  0  0  0  0  0  0
  -24.5612  -28.4218   20.4198 C   0  0  0  0  0  0  0  0  0  0  0  0
  -26.4375  -29.8767   20.8669 C   0  0  0  0  0  0  0  0  0  0  0  0
  -28.6293  -13.1815   17.6095 C   0  0  0  0  0  0  0  0  0  0  0  0
  -31.4341  -14.8418   22.5419 C   0  0  0  0  0  0  0  0  0  0  0  0
  -24.8856  -30.2183   23.8512 C   0  0  0  0  0  0  0  0  0  0  0  0
  -25.2916  -30.7694   25.0665 C   0  0  0  0  0  0  0  0  0  0  0  0
  -30.9009  -16.2993   20.6902 C   0  0  0  0  0  0  0  0  0  0  0  0
  -27.8079  -12.8541   19.8539 C   0  0  0  0  0  0  0  0  0  0  0  0
  -25.2081  -32.9788   24.0924 C   0  0  0  0  0  0  0  0  0  0  0  0
  -26.7826  -27.7780   19.7209 C   0  0  0  0  0  0  0  0  0  0  0  0
  -30.1952  -17.1376   21.5533 C   0  0  0  0  0  0  0  0  0  0  0  0
  -28.0268  -26.7880   17.7261 C   0  0  0  0  0  0  0  0  0  0  0  0
  -24.9618  -21.4744   18.5050 C   0  0  0  0  0  0  0  0  0  0  0  0
  -26.4788  -14.1012   18.2608 C   0  0  0  0  0  0  0  0  0  0  0  0
  -25.3104  -20.1243   18.2979 C   0  0  0  0  0  0  0  0  0  0  0  0
  -26.6388  -13.5671   19.5473 C   0  0  0  0  0  0  0  0  0  0  0  0
  -30.1089  -16.8280   22.9106 C   0  0  0  0  0  0  0  0  0  0  0  0
  -25.0716  -29.6063   20.9508 C   0  0  0  0  0  0  0  0  0  0  0  0
  -31.5204  -15.1514   21.1846 C   0  0  0  0  0  0  0  0  0  0  0  0
  -28.7982  -12.6640   18.8904 C   0  0  0  0  0  0  0  0  0  0  0  0
  -24.6409  -31.0473   22.7564 C   0  0  0  0  0  0  0  0  0  0  0  0
  -25.4528  -32.1497   25.1871 C   0  0  0  0  0  0  0  0  0  0  0  0
  -24.8021  -32.4276   22.8770 C   0  0  0  0  0  0  0  0  0  0  0  0
  -27.6668  -26.8339   19.0862 C   0  0  0  0  0  0  0  0  0  0  0  0
  -28.8810  -25.7165   17.6329 C   0  0  0  0  0  0  0  0  0  0  0  0
  -29.5597  -18.3294   21.0068 C   0  0  0  0  0  0  0  0  0  0  0  0
  -30.1963  -19.3264   20.3592 C   0  0  0  0  0  0  0  0  0  0  0  0
  -27.6251  -27.6381   16.6436 C   0  0  0  0  0  0  0  0  0  0  0  0
  -29.4080  -20.4680   19.8532 C   0  0  0  0  0  0  0  0  0  0  0  0
  -25.2020  -16.6579   19.6526 C   0  0  0  0  0  0  0  0  0  0  0  0
  -23.1981  -14.4650   20.9556 C   0  0  0  0  0  0  0  0  0  0  0  0
  -22.6527  -11.2240   21.8751 C   0  0  0  0  0  0  0  0  0  0  0  0
  -24.5312  -21.9846   19.8576 C   0  0  0  0  0  0  0  0  0  0  0  0
  -25.2253  -14.8487   17.8968 C   0  0  0  0  0  0  0  0  0  0  0  0
  -25.5920  -13.7446   20.6155 C   0  0  0  0  0  0  0  0  0  0  0  0
  -24.9708  -21.0779   21.0025 C   0  0  0  0  0  0  0  0  0  0  0  0
  -31.6757  -23.1850   20.8056 C   0  0  0  0  0  0  0  0  0  0  0  0
  -24.5961  -19.6355   20.6966 C   0  0  0  0  0  0  0  0  0  0  0  0
  -30.8725  -24.4059   20.3653 C   0  0  0  0  0  0  0  0  0  0  0  0
  -30.7743  -22.0587   21.3090 C   0  0  0  0  0  0  0  0  0  0  0  0
  -28.9140  -22.8820   19.8941 C   0  0  0  0  0  0  0  0  0  0  0  0
  -25.3317  -19.1333   19.4477 C   0  0  1  0  0  0  0  0  0  0  0  0
  -24.5099  -15.4407   19.1073 C   0  0  1  0  0  0  0  0  0  0  0  0
  -29.7983  -24.0099   19.3399 C   0  0  1  0  0  0  0  0  0  0  0  0
  -30.1452  -18.9589   24.2315 C   0  0  0  0  0  0  0  0  0  0  0  0
  -21.3937   -9.2223   22.7150 C   0  0  0  0  0  0  0  0  0  0  0  0
  -23.9305  -15.6047   23.6896 C   0  0  0  0  0  0  0  0  0  0  0  0
  -22.9712  -13.5394   24.7301 C   0  0  0  0  0  0  0  0  0  0  0  0
  -21.5066  -15.0603   23.4016 C   0  0  0  0  0  0  0  0  0  0  0  0
  -21.6697  -10.5596   19.1637 C   0  0  0  0  0  0  0  0  0  0  0  0
  -29.3612  -17.7033   23.8645 C   0  0  0  0  0  0  0  0  0  0  0  0
  -32.3262  -12.1078   19.4065 C   0  0  0  0  0  0  0  0  0  0  0  0
  -32.2479  -12.9458   20.6731 C   0  0  0  0  0  0  0  0  0  0  0  0
  -31.1204  -12.3244   18.5057 C   0  0  0  0  0  0  0  0  0  1  0  0
  -23.2059  -13.6196   22.2063 C   0  0  1  0  0  0  0  0  0  0  0  0
  -21.4756  -10.2947   21.6398 C   0  0  2  0  0  0  0  0  0  0  0  0
  -22.9243  -14.4541   23.4876 C   0  0  0  0  0  0  0  0  0  0  0  0
  -28.2449  -25.8682   19.8055 N   0  0  0  0  0  0  0  0  0  0  0  0
  -28.9767  -25.2054   18.8937 N   0  0  0  0  0  0  0  0  0  0  0  0
  -29.7194  -21.7379   20.3358 N   0  0  0  0  0  0  0  0  0  0  0  0
  -24.3869  -14.4883   20.2127 N   0  0  0  0  0  0  0  0  0  0  0  0
  -29.5519  -25.1710   16.5962 N   0  0  0  0  0  0  0  0  0  0  0  0
  -26.7421  -28.6923   16.9142 N   0  0  0  0  0  0  0  0  0  0  0  0
  -24.7961  -17.8438   19.0710 N   0  0  0  0  0  0  0  0  0  0  0  0
  -22.2525  -12.5398   21.9750 N   0  0  0  0  0  0  0  0  0  0  0  0
  -21.6023   -9.6235   20.3153 N   0  3  0  0  0  0  0  0  0  0  0  0
  -28.0240  -27.4578   15.4681 O   0  0  0  0  0  0  0  0  0  0  0  0
  -28.5174  -20.2265   19.0364 O   0  0  0  0  0  0  0  0  0  0  0  0
  -26.0410  -16.5306   20.5366 O   0  0  0  0  0  0  0  0  0  0  0  0
  -22.1726  -15.0763   20.6454 O   0  0  0  0  0  0  0  0  0  0  0  0
  -23.8108  -10.8225   21.9652 O   0  0  0  0  0  0  0  0  0  0  0  0
  -24.2372  -30.4987   21.5508 O   0  0  0  0  0  0  0  0  0  0  0  0
  -32.2123  -14.3261   20.3368 O   0  0  0  0  0  0  0  0  0  0  0  0
  -29.9261  -11.9690   19.2012 O   0  0  0  0  0  0  0  0  0  1  0  0
  -25.8412  -32.6790   26.3547 F   0  0  0  0  0  0  0  0  0  0  0  0
  -24.5674  -33.2292   21.8292 F   0  0  0  0  0  0  0  0  0  0  0  0
  1  2  1  0  0  0  0
  1  5  2  0  0  0  0
  2  6  2  0  0  0  0
  3  9  2  0  0  0  0
  3 18  1  0  0  0  0
  4 10  1  0  0  0  0
  4 18  2  0  0  0  0
  5 21  1  0  0  0  0
  6 23  1  0  0  0  0
  7 11  2  0  0  0  0
  7 22  1  0  0  0  0
  8 12  2  0  0  0  0
  8 25  1  0  0  0  0
  9 26  1  0  0  0  0
 10 26  2  0  0  0  0
 11 28  1  0  0  0  0
 12 27  1  0  0  0  0
 13 14  2  0  0  0  0
 13 29  1  0  0  0  0
 14 30  1  0  0  0  0
 15 19  1  0  0  0  0
 15 27  2  0  0  0  0
 16 24  1  0  0  0  0
 16 28  2  0  0  0  0
 17 30  2  0  0  0  0
 17 31  1  0  0  0  0
 18 32  1  0  0  0  0
 19 25  2  0  0  0  0
 19 34  1  0  0  0  0
 20 32  1  0  0  0  0
 20 33  2  0  0  0  0
 20 36  1  0  0  0  0
 21 23  2  0  0  0  0
 21 41  1  0  0  0  0
 22 24  2  0  0  0  0
 22 42  1  0  0  0  0
 23 50  1  0  0  0  0
 24 43  1  0  0  0  0
 25 59  1  0  0  0  0
 26 80  1  0  0  0  0
 27 81  1  0  0  0  0
 28 82  1  0  0  0  0
 29 31  2  0  0  0  0
 29 80  1  0  0  0  0
 30 83  1  0  0  0  0
 31 84  1  0  0  0  0
 32 66  2  0  0  0  0
 33 67  1  0  0  0  0
 33 70  1  0  0  0  0
 34 35  2  0  0  0  0
 35 37  1  0  0  0  0
 36 71  1  0  0  0  0
 36 75  2  0  0  0  0
 37 68  1  0  0  0  0
 37 76  2  0  0  0  0
 38 51  1  0  0  0  0
 38 72  1  0  0  0  0
 38 77  2  0  0  0  0
 39 63  1  0  0  0  0
 39 69  1  0  0  0  0
 39 78  2  0  0  0  0
 40 64  1  0  0  0  0
 40 73  1  0  0  0  0
 40 79  2  0  0  0  0
 41 44  1  0  0  0  0
 42 51  1  0  0  0  0
 43 69  1  0  0  0  0
 44 46  1  0  0  0  0
 45 47  1  0  0  0  0
 45 48  1  0  0  0  0
 46 50  1  0  0  0  0
 47 52  1  0  0  0  0
 48 68  1  0  0  0  0
 49 52  1  0  0  0  0
 49 68  1  0  0  0  0
 50 72  1  0  0  0  0
 51 69  1  0  0  0  0
 52 67  1  0  0  0  0
 53 59  1  0  0  0  0
 54 64  1  0  0  0  0
 55 65  1  0  0  0  0
 56 65  1  0  0  0  0
 57 65  1  0  0  0  0
 58 74  1  0  0  0  0
 60 61  1  0  0  0  0
 60 62  1  0  0  0  0
 61 81  1  0  0  0  0
 62 82  1  0  0  0  0
 63 65  1  0  0  0  0
 63 73  1  0  0  0  0
 64 74  1  0  0  0  0
 66 67  1  0  0  0  0
M  CHG  1  74   1
M  ISO  4  35 100  37 100  62 101  82 101
M  END
> <Batch ID>
0121

> <Smiles>
CCc1ccc(OCC[101CH2:1][101O:1]c2ccc3c(c2)CN(C(=O)C(NC(=O)C(C)NC)C(C)(C)C)C(C(=O)NC2CCCc4ccccc42)C3)cc1C=[100CH:0][100C:0](=O)N1CCCC(n2nc(-c3ccc(Oc4ccc(F)cc4F)cc3)c(C(N)=O)c2N)C1

> <Shape>
0.294

> <Color>
0.076

> <Negative vol penalty>
0.000

$$$$

  -OEChem-04052301573D

 85 93  0     1  0  0  0  0  0999 V2000
  -26.0368  -21.9412   23.9299 C   0  0  0  0  0  0  0  0  0  0  0  0
  -25.6804  -22.7786   22.8777 C   0  0  0  0  0  0  0  0  0  0  0  0
  -25.7630  -14.0052   22.3470 C   0  0  0  0  0  0  0  0  0  0  0  0
  -25.8205  -13.1943   20.0719 C   0  0  0  0  0  0  0  0  0  0  0  0
  -25.8139  -22.3438   25.2460 C   0  0  0  0  0  0  0  0  0  0  0  0
  -25.0998  -24.0188   23.1410 C   0  0  0  0  0  0  0  0  0  0  0  0
  -27.0913  -27.7319   20.3318 C   0  0  0  0  0  0  0  0  0  0  0  0
  -25.4179  -12.7294   22.7930 C   0  0  0  0  0  0  0  0  0  0  0  0
  -25.4754  -11.9185   20.5179 C   0  0  0  0  0  0  0  0  0  0  0  0
  -26.6692  -27.8238   19.0062 C   0  0  0  0  0  0  0  0  0  0  0  0
  -22.6772  -10.2951   21.5006 C   0  0  0  0  0  0  0  0  0  0  0  0
  -21.6905   -9.6068   20.7949 C   0  0  0  0  0  0  0  0  0  0  0  0
  -21.6142  -25.1249   19.1507 C   0  0  0  0  0  0  0  0  0  0  0  0
  -25.1562  -29.6004   19.6176 C   0  0  0  0  0  0  0  0  0  0  0  0
  -20.0531  -26.9006   19.6476 C   0  0  0  0  0  0  0  0  0  0  0  0
  -23.2676   -7.8416   20.3114 C   0  0  0  0  0  0  0  0  0  0  0  0
  -25.9643  -14.2376   20.9864 C   0  0  0  0  0  0  0  0  0  0  0  0
  -21.3610  -24.5534   20.3976 C   0  0  0  0  0  0  0  0  0  0  0  0
  -27.6173  -16.0804   20.3705 C   0  0  0  0  0  0  0  0  0  0  0  0
  -25.2391  -23.5936   25.5258 C   0  0  0  0  0  0  0  0  0  0  0  0
  -26.5402  -28.5675   21.3138 C   0  0  0  0  0  0  0  0  0  0  0  0
  -24.8678  -24.4380   24.4620 C   0  0  0  0  0  0  0  0  0  0  0  0
  -25.5749  -29.5188   20.9544 C   0  0  0  0  0  0  0  0  0  0  0  0
  -19.7998  -26.3290   20.8946 C   0  0  0  0  0  0  0  0  0  0  0  0
  -20.4538  -25.1554   21.2696 C   0  0  0  0  0  0  0  0  0  0  0  0
  -25.2741  -11.6861   21.8785 C   0  0  0  0  0  0  0  0  0  0  0  0
  -25.6994  -28.7562   18.6494 C   0  0  0  0  0  0  0  0  0  0  0  0
  -23.9592   -9.7568   21.6117 C   0  0  0  0  0  0  0  0  0  0  0  0
  -20.9602  -26.2986   18.7757 C   0  0  0  0  0  0  0  0  0  0  0  0
  -21.9856   -8.3800   20.2003 C   0  0  0  0  0  0  0  0  0  0  0  0
  -24.2544   -8.5300   21.0171 C   0  0  0  0  0  0  0  0  0  0  0  0
  -26.3203  -15.5554   20.5250 C   0  0  0  0  0  0  0  0  0  0  0  0
  -27.4176  -17.3585   19.9090 C   0  0  0  0  0  0  0  0  0  0  0  0
  -22.0609  -23.3266   20.7572 C   0  0  0  0  0  0  0  0  0  0  0  0
  -22.0034  -22.1662   20.0728 C   0  0  0  0  0  0  0  0  0  0  0  0
  -28.8889  -15.4675   20.6215 C   0  0  0  0  0  0  0  0  0  0  0  0
  -22.7811  -21.0096   20.5609 C   0  0  0  0  0  0  0  0  0  0  0  0
  -24.8614  -28.1003   23.9722 C   0  0  0  0  0  0  0  0  0  0  0  0
  -25.2649  -31.2995   24.3251 C   0  0  0  0  0  0  0  0  0  0  0  0
  -25.8622  -34.3234   22.8600 C   0  0  0  0  0  0  0  0  0  0  0  0
  -24.9742  -23.9653   26.9633 C   0  0  0  0  0  0  0  0  0  0  0  0
  -27.0257  -28.4741   22.7344 C   0  0  0  0  0  0  0  0  0  0  0  0
  -24.9665  -30.4530   21.9672 C   0  0  0  0  0  0  0  0  0  0  0  0
  -24.6982  -25.4528   27.1668 C   0  0  0  0  0  0  0  0  0  0  0  0
  -24.3437  -20.0073   17.4010 C   0  0  0  0  0  0  0  0  0  0  0  0
  -23.7019  -25.9580   26.1281 C   0  0  0  0  0  0  0  0  0  0  0  0
  -25.1121  -18.7621   17.8353 C   0  0  0  0  0  0  0  0  0  0  0  0
  -23.0300  -20.1641   18.1652 C   0  0  0  0  0  0  0  0  0  0  0  0
  -23.9659  -18.9026   20.0818 C   0  0  0  0  0  0  0  0  0  0  0  0
  -24.2584  -25.8012   24.7079 C   0  0  1  0  0  0  0  0  0  0  0  0
  -26.0244  -29.0243   23.7454 C   0  0  1  0  0  0  0  0  0  0  0  0
  -25.3134  -18.7506   19.3590 C   0  0  1  0  0  0  0  0  0  0  0  0
  -18.8224  -26.9937   21.8081 C   0  0  0  0  0  0  0  0  0  0  0  0
  -20.1728  -24.5505   22.6101 C   0  0  0  0  0  0  0  0  0  0  0  0
  -26.0972  -36.7625   23.4014 C   0  0  0  0  0  0  0  0  0  0  0  0
  -22.2369  -31.5218   24.6275 C   0  0  0  0  0  0  0  0  0  0  0  0
  -22.4458  -33.9817   24.2109 C   0  0  0  0  0  0  0  0  0  0  0  0
  -23.5503  -32.9569   26.1990 C   0  0  0  0  0  0  0  0  0  0  0  0
  -28.6467  -34.3960   21.8599 C   0  0  0  0  0  0  0  0  0  0  0  0
  -24.2436  -27.7006   15.5043 C   0  0  0  0  0  0  0  0  0  0  0  0
  -22.8535  -27.8442   16.1141 C   0  0  0  0  0  0  0  0  0  0  0  0
  -25.3249  -27.6537   16.5758 C   0  0  0  0  0  0  0  0  0  1  0  0
  -22.5048  -26.6594   17.0037 C   0  0  0  0  0  0  0  0  0  0  0  0
  -24.4992  -32.5275   23.8953 C   0  0  1  0  0  0  0  0  0  0  0  0
  -26.8265  -35.4412   23.2138 C   0  0  2  0  0  0  0  0  0  0  0  0
  -23.1929  -32.7282   24.7142 C   0  0  0  0  0  0  0  0  0  0  0  0
  -25.3671  -16.4287   20.1891 N   0  0  0  0  0  0  0  0  0  0  0  0
  -26.0658  -17.5154   19.8190 N   0  0  0  0  0  0  0  0  0  0  0  0
  -23.2409  -20.0912   19.6188 N   0  0  0  0  0  0  0  0  0  0  0  0
  -25.4694  -30.3187   23.3443 N   0  0  0  0  0  0  0  0  0  0  0  0
  -28.2682  -18.3523   19.5755 N   0  0  0  0  0  0  0  0  0  0  0  0
  -28.9131  -14.1479   21.0932 N   0  0  0  0  0  0  0  0  0  0  0  0
  -25.2202  -26.8446   24.4238 N   0  0  0  0  0  0  0  0  0  0  0  0
  -25.4355  -33.6431   23.9809 N   0  0  0  0  0  0  0  0  0  0  0  0
  -27.8394  -35.6125   22.1342 N   0  3  0  0  0  0  0  0  0  0  0  0
  -29.9712  -16.0777   20.4487 O   0  0  0  0  0  0  0  0  0  0  0  0
  -22.9722  -20.9246   21.7754 O   0  0  0  0  0  0  0  0  0  0  0  0
  -23.7227  -28.4977   23.7550 O   0  0  0  0  0  0  0  0  0  0  0  0
  -25.6729  -31.2169   25.4863 O   0  0  0  0  0  0  0  0  0  0  0  0
  -25.5187  -34.0806   21.7052 O   0  0  0  0  0  0  0  0  0  0  0  0
  -24.9376  -10.4410   22.3133 O   0  0  0  0  0  0  0  0  0  0  0  0
  -25.2851  -28.8475   17.3564 O   0  0  0  0  0  0  0  0  0  1  0  0
  -21.2088  -26.8608   17.5505 O   0  0  0  0  0  0  0  0  0  0  0  0
  -21.0375   -7.7184   19.5239 F   0  0  0  0  0  0  0  0  0  0  0  0
  -25.4839   -8.0072   21.1214 F   0  0  0  0  0  0  0  0  0  0  0  0
  1  2  1  0  0  0  0
  1  5  2  0  0  0  0
  2  6  2  0  0  0  0
  3  8  2  0  0  0  0
  3 17  1  0  0  0  0
  4  9  1  0  0  0  0
  4 17  2  0  0  0  0
  5 20  1  0  0  0  0
  6 22  1  0  0  0  0
  7 10  2  0  0  0  0
  7 21  1  0  0  0  0
  8 26  1  0  0  0  0
  9 26  2  0  0  0  0
 10 27  1  0  0  0  0
 11 12  2  0  0  0  0
 11 28  1  0  0  0  0
 12 30  1  0  0  0  0
 13 18  1  0  0  0  0
 13 29  2  0  0  0  0
 14 23  1  0  0  0  0
 14 27  2  0  0  0  0
 15 24  2  0  0  0  0
 15 29  1  0  0  0  0
 16 30  2  0  0  0  0
 16 31  1  0  0  0  0
 17 32  1  0  0  0  0
 18 25  2  0  0  0  0
 18 34  1  0  0  0  0
 19 32  1  0  0  0  0
 19 33  2  0  0  0  0
 19 36  1  0  0  0  0
 20 22  2  0  0  0  0
 20 41  1  0  0  0  0
 21 23  2  0  0  0  0
 21 42  1  0  0  0  0
 22 50  1  0  0  0  0
 23 43  1  0  0  0  0
 24 25  1  0  0  0  0
 24 53  1  0  0  0  0
 25 54  1  0  0  0  0
 26 81  1  0  0  0  0
 27 82  1  0  0  0  0
 28 31  2  0  0  0  0
 28 81  1  0  0  0  0
 29 83  1  0  0  0  0
 30 84  1  0  0  0  0
 31 85  1  0  0  0  0
 32 67  2  0  0  0  0
 33 68  1  0  0  0  0
 33 71  1  0  0  0  0
 34 35  2  0  0  0  0
 35 37  1  0  0  0  0
 36 72  1  0  0  0  0
 36 76  2  0  0  0  0
 37 69  1  0  0  0  0
 37 77  2  0  0  0  0
 38 51  1  0  0  0  0
 38 73  1  0  0  0  0
 38 78  2  0  0  0  0
 39 64  1  0  0  0  0
 39 70  1  0  0  0  0
 39 79  2  0  0  0  0
 40 65  1  0  0  0  0
 40 74  1  0  0  0  0
 40 80  2  0  0  0  0
 41 44  1  0  0  0  0
 42 51  1  0  0  0  0
 43 70  1  0  0  0  0
 44 46  1  0  0  0  0
 45 47  1  0  0  0  0
 45 48  1  0  0  0  0
 46 50  1  0  0  0  0
 47 52  1  0  0  0  0
 48 69  1  0  0  0  0
 49 52  1  0  0  0  0
 49 69  1  0  0  0  0
 50 73  1  0  0  0  0
 51 70  1  0  0  0  0
 52 68  1  0  0  0  0
 55 65  1  0  0  0  0
 56 66  1  0  0  0  0
 57 66  1  0  0  0  0
 58 66  1  0  0  0  0
 59 75  1  0  0  0  0
 60 61  1  0  0  0  0
 60 62  1  0  0  0  0
 61 63  1  0  0  0  0
 62 82  1  0  0  0  0
 63 83  1  0  0  0  0
 64 66  1  0  0  0  0
 64 74  1  0  0  0  0
 65 75  1  0  0  0  0
 67 68  1  0  0  0  0
M  CHG  1  75   1
M  ISO  4  35 100  37 100  62 101  82 101
M  END
> <Batch ID>
0121

> <Smiles>
CNC(C)C(=O)NC(C(=O)N1Cc2cc([101O:1][101CH2:1]CCCOc3cc(C)c(C)c(C=[100CH:0][100C:0](=O)N4CCCC(n5nc(-c6ccc(Oc7ccc(F)cc7F)cc6)c(C(N)=O)c5N)C4)c3)ccc2CC1C(=O)NC1CCCc2ccccc21)C(C)(C)C

> <Shape>
0.201

> <Color>
0.081

> <Negative vol penalty>
0.000

$$$$

  -OEChem-04052301573D

 85 93  0     1  0  0  0  0  0999 V2000
  -28.8723  -32.8461   26.3976 C   0  0  0  0  0  0  0  0  0  0  0  0
  -28.7742  -31.6751   25.6530 C   0  0  0  0  0  0  0  0  0  0  0  0
  -23.3364  -10.4709   22.0050 C   0  0  0  0  0  0  0  0  0  0  0  0
  -22.9883  -12.8559   21.8393 C   0  0  0  0  0  0  0  0  0  0  0  0
  -27.7165  -33.5162   26.7963 C   0  0  0  0  0  0  0  0  0  0  0  0
  -27.5201  -31.1729   25.3075 C   0  0  0  0  0  0  0  0  0  0  0  0
  -27.2845  -29.6956   20.4694 C   0  0  0  0  0  0  0  0  0  0  0  0
  -22.4032  -10.4066   23.0397 C   0  0  0  0  0  0  0  0  0  0  0  0
  -22.0550  -12.7916   22.8739 C   0  0  0  0  0  0  0  0  0  0  0  0
  -27.8570  -28.4650   20.1508 C   0  0  0  0  0  0  0  0  0  0  0  0
  -19.0372  -10.3915   23.3608 C   0  0  0  0  0  0  0  0  0  0  0  0
  -18.0913   -9.3674   23.3178 C   0  0  0  0  0  0  0  0  0  0  0  0
  -30.6620  -19.5700   21.1395 C   0  0  0  0  0  0  0  0  0  0  0  0
  -31.3261  -17.2592   20.9025 C   0  0  0  0  0  0  0  0  0  0  0  0
  -29.1152  -17.9566   20.2222 C   0  0  0  0  0  0  0  0  0  0  0  0
  -25.6706  -27.4463   20.1827 C   0  0  0  0  0  0  0  0  0  0  0  0
  -18.8977   -8.5335   25.4371 C   0  0  0  0  0  0  0  0  0  0  0  0
  -23.6291  -11.6956   21.4049 C   0  0  0  0  0  0  0  0  0  0  0  0
  -31.6203  -18.5673   21.2873 C   0  0  0  0  0  0  0  0  0  0  0  0
  -29.4095  -19.2647   20.6070 C   0  0  0  0  0  0  0  0  0  0  0  0
  -24.3446  -11.6308   18.9571 C   0  0  0  0  0  0  0  0  0  0  0  0
  -26.4478  -33.0273   26.4472 C   0  0  0  0  0  0  0  0  0  0  0  0
  -25.8995  -29.8088   20.6581 C   0  0  0  0  0  0  0  0  0  0  0  0
  -26.3462  -31.8364   25.7030 C   0  0  0  0  0  0  0  0  0  0  0  0
  -25.0826  -28.6801   20.5011 C   0  0  0  0  0  0  0  0  0  0  0  0
  -30.0735  -16.9539   20.3700 C   0  0  0  0  0  0  0  0  0  0  0  0
  -21.7624  -11.5669   23.4741 C   0  0  0  0  0  0  0  0  0  0  0  0
  -27.0504  -27.3395   20.0103 C   0  0  0  0  0  0  0  0  0  0  0  0
  -19.9135  -10.4867   24.4419 C   0  0  0  0  0  0  0  0  0  0  0  0
  -18.0215   -8.4384   24.3559 C   0  0  0  0  0  0  0  0  0  0  0  0
  -19.8437   -9.5577   25.4801 C   0  0  0  0  0  0  0  0  0  0  0  0
  -24.5934  -11.7628   20.3364 C   0  0  0  0  0  0  0  0  0  0  0  0
  -25.5786  -11.7710   18.3706 C   0  0  0  0  0  0  0  0  0  0  0  0
  -34.0443  -18.2604   21.4999 C   0  0  0  0  0  0  0  0  0  0  0  0
  -32.9263  -18.8847   21.8437 C   0  0  0  0  0  0  0  0  0  0  0  0
  -28.3972  -20.3226   20.4522 C   0  0  0  0  0  0  0  0  0  0  0  0
  -28.3955  -21.4942   21.1071 C   0  0  0  0  0  0  0  0  0  0  0  0
  -23.1085  -11.4020   18.2677 C   0  0  0  0  0  0  0  0  0  0  0  0
  -24.0269  -30.6300   23.0917 C   0  0  0  0  0  0  0  0  0  0  0  0
  -27.9357  -23.8440   20.4128 C   0  0  0  0  0  0  0  0  0  0  0  0
  -21.6840  -30.3972   20.8604 C   0  0  0  0  0  0  0  0  0  0  0  0
  -20.6244  -29.0717   17.8995 C   0  0  0  0  0  0  0  0  0  0  0  0
  -30.6125  -14.5129   20.0581 C   0  0  0  0  0  0  0  0  0  0  0  0
  -25.2260  -33.7607   26.9413 C   0  0  0  0  0  0  0  0  0  0  0  0
  -25.2944  -31.1489   20.9751 C   0  0  0  0  0  0  0  0  0  0  0  0
  -23.5881  -28.7526   20.6732 C   0  0  0  0  0  0  0  0  0  0  0  0
  -23.9430  -33.3654   26.2146 C   0  0  0  0  0  0  0  0  0  0  0  0
  -30.2366  -11.0695   19.2341 C   0  0  0  0  0  0  0  0  0  0  0  0
  -23.8390  -31.8477   26.1024 C   0  0  0  0  0  0  0  0  0  0  0  0
  -28.7237  -10.8460   19.2918 C   0  0  0  0  0  0  0  0  0  0  0  0
  -30.7077  -12.0429   20.3132 C   0  0  0  0  0  0  0  0  0  0  0  0
  -28.4867  -13.1056   20.3986 C   0  0  0  0  0  0  0  0  0  0  0  0
  -25.0043  -31.2736   25.2875 C   0  0  1  0  0  0  0  0  0  0  0  0
  -23.9306  -31.0439   21.6505 C   0  0  1  0  0  0  0  0  0  0  0  0
  -27.9561  -12.1825   19.2895 C   0  0  2  0  0  0  0  0  0  0  0  0
  -18.6487  -29.0345   16.3527 C   0  0  0  0  0  0  0  0  0  0  0  0
  -20.2345  -28.5012   22.7614 C   0  0  0  0  0  0  0  0  0  0  0  0
  -18.8073  -27.7746   20.8370 C   0  0  0  0  0  0  0  0  0  0  0  0
  -18.7535  -30.1487   21.6009 C   0  0  0  0  0  0  0  0  0  0  0  0
  -22.1919  -30.2476   15.6815 C   0  0  0  0  0  0  0  0  0  0  0  0
  -27.3384  -22.5394   20.9211 C   0  0  0  0  0  0  0  0  0  0  0  0
  -26.9451  -24.9702   20.1871 C   0  0  0  0  0  0  0  0  0  1  0  0
  -20.7853  -29.2899   20.3654 C   0  0  1  0  0  0  0  0  0  0  0  0
  -19.9698  -29.7094   16.6873 C   0  0  2  0  0  0  0  0  0  0  0  0
  -19.6735  -28.9265   21.3898 C   0  0  0  0  0  0  0  0  0  0  0  0
  -25.8842  -11.9707   20.6099 N   0  0  0  0  0  0  0  0  0  0  0  0
  -26.4574  -11.9703   19.3945 N   0  0  0  0  0  0  0  0  0  0  0  0
  -23.0446  -30.0840   20.9889 N   0  0  0  0  0  0  0  0  0  0  0  0
  -29.9389  -13.2877   20.2475 N   0  0  0  0  0  0  0  0  0  0  0  0
  -25.9869  -11.7419   17.0842 N   0  0  0  0  0  0  0  0  0  0  0  0
  -21.9342  -11.2824   19.0233 N   0  0  0  0  0  0  0  0  0  0  0  0
  -29.7751  -15.6251   19.9789 N   0  0  0  0  0  0  0  0  0  0  0  0
  -24.7832  -31.4830   23.8727 N   0  0  0  0  0  0  0  0  0  0  0  0
  -20.2823  -29.7224   19.0660 N   0  0  0  0  0  0  0  0  0  0  0  0
  -20.8648  -29.6048   15.5003 N   0  3  0  0  0  0  0  0  0  0  0  0
  -23.0495  -11.2901   17.0196 O   0  0  0  0  0  0  0  0  0  0  0  0
  -23.4561  -29.6129   23.4677 O   0  0  0  0  0  0  0  0  0  0  0  0
  -29.1398  -23.9940   20.2093 O   0  0  0  0  0  0  0  0  0  0  0  0
  -21.1980  -31.5017   21.1165 O   0  0  0  0  0  0  0  0  0  0  0  0
  -21.3622  -28.0920   17.8199 O   0  0  0  0  0  0  0  0  0  0  0  0
  -31.8398  -14.5680   19.9452 O   0  0  0  0  0  0  0  0  0  0  0  0
  -20.8515  -11.5045   24.4835 O   0  0  0  0  0  0  0  0  0  0  0  0
  -27.6067  -26.1370   19.7000 O   0  0  0  0  0  0  0  0  0  1  0  0
  -17.1120   -7.4558   24.3152 F   0  0  0  0  0  0  0  0  0  0  0  0
  -20.6820   -9.6447   26.5219 F   0  0  0  0  0  0  0  0  0  0  0  0
  1  2  1  0  0  0  0
  1  5  2  0  0  0  0
  2  6  2  0  0  0  0
  3  8  2  0  0  0  0
  3 18  1  0  0  0  0
  4  9  1  0  0  0  0
  4 18  2  0  0  0  0
  5 22  1  0  0  0  0
  6 24  1  0  0  0  0
  7 10  2  0  0  0  0
  7 23  1  0  0  0  0
  8 27  1  0  0  0  0
  9 27  2  0  0  0  0
 10 28  1  0  0  0  0
 11 12  2  0  0  0  0
 11 29  1  0  0  0  0
 12 30  1  0  0  0  0
 13 19  1  0  0  0  0
 13 20  2  0  0  0  0
 14 19  2  0  0  0  0
 14 26  1  0  0  0  0
 15 20  1  0  0  0  0
 15 26  2  0  0  0  0
 16 25  1  0  0  0  0
 16 28  2  0  0  0  0
 17 30  2  0  0  0  0
 17 31  1  0  0  0  0
 18 32  1  0  0  0  0
 19 35  1  0  0  0  0
 20 36  1  0  0  0  0
 21 32  1  0  0  0  0
 21 33  2  0  0  0  0
 21 38  1  0  0  0  0
 22 24  2  0  0  0  0
 22 44  1  0  0  0  0
 23 25  2  0  0  0  0
 23 45  1  0  0  0  0
 24 53  1  0  0  0  0
 25 46  1  0  0  0  0
 26 72  1  0  0  0  0
 27 82  1  0  0  0  0
 28 83  1  0  0  0  0
 29 31  2  0  0  0  0
 29 82  1  0  0  0  0
 30 84  1  0  0  0  0
 31 85  1  0  0  0  0
 32 66  2  0  0  0  0
 33 67  1  0  0  0  0
 33 70  1  0  0  0  0
 34 35  2  0  0  0  0
 36 37  2  0  0  0  0
 37 61  1  0  0  0  0
 38 71  1  0  0  0  0
 38 76  2  0  0  0  0
 39 54  1  0  0  0  0
 39 73  1  0  0  0  0
 39 77  2  0  0  0  0
 40 61  1  0  0  0  0
 40 62  1  0  0  0  0
 40 78  2  0  0  0  0
 41 63  1  0  0  0  0
 41 68  1  0  0  0  0
 41 79  2  0  0  0  0
 42 64  1  0  0  0  0
 42 74  1  0  0  0  0
 42 80  2  0  0  0  0
 43 69  1  0  0  0  0
 43 72  1  0  0  0  0
 43 81  2  0  0  0  0
 44 47  1  0  0  0  0
 45 54  1  0  0  0  0
 46 68  1  0  0  0  0
 47 49  1  0  0  0  0
 48 50  1  0  0  0  0
 48 51  1  0  0  0  0
 49 53  1  0  0  0  0
 50 55  1  0  0  0  0
 51 69  1  0  0  0  0
 52 55  1  0  0  0  0
 52 69  1  0  0  0  0
 53 73  1  0  0  0  0
 54 68  1  0  0  0  0
 55 67  1  0  0  0  0
 56 64  1  0  0  0  0
 57 65  1  0  0  0  0
 58 65  1  0  0  0  0
 59 65  1  0  0  0  0
 60 75  1  0  0  0  0
 62 83  1  0  0  0  0
 63 65  1  0  0  0  0
 63 74  1  0  0  0  0
 64 75  1  0  0  0  0
 66 67  1  0  0  0  0
M  CHG  1  75   1
M  ISO  4  43 100  62 101  72 100  83 101
M  END
> <Batch ID>
0121

> <Smiles>
C=Cc1cc(C=CCC(=O)[101CH2:1][101O:1]c2ccc3c(c2)CN(C(=O)C(NC(=O)C(C)NC)C(C)(C)C)C(C(=O)NC2CCCc4ccccc42)C3)cc([100NH:0][100C:0](=O)N2CCCC(n3nc(-c4ccc(Oc5ccc(F)cc5F)cc4)c(C(N)=O)c3N)C2)c1

> <Shape>
0.294

> <Color>
0.101

> <Negative vol penalty>
0.000

$$$$

  -OEChem-04052301573D

 84 93  0     1  0  0  0  0  0999 V2000
  -28.7564  -36.7153   22.6024 C   0  0  0  0  0  0  0  0  0  0  0  0
  -28.9744  -35.3583   22.3866 C   0  0  0  0  0  0  0  0  0  0  0  0
  -24.3489   -9.1548   22.1657 C   0  0  0  0  0  0  0  0  0  0  0  0
  -24.5689   -8.3114   19.9124 C   0  0  0  0  0  0  0  0  0  0  0  0
  -27.6619  -37.1327   23.3586 C   0  0  0  0  0  0  0  0  0  0  0  0
  -28.0986  -34.4179   22.9279 C   0  0  0  0  0  0  0  0  0  0  0  0
  -26.8471  -30.7967   19.6164 C   0  0  0  0  0  0  0  0  0  0  0  0
  -23.1832   -8.4070   22.3318 C   0  0  0  0  0  0  0  0  0  0  0  0
  -23.4033   -7.5635   20.0786 C   0  0  0  0  0  0  0  0  0  0  0  0
  -27.7822  -29.7870   19.3935 C   0  0  0  0  0  0  0  0  0  0  0  0
  -20.3472   -6.4400   23.4734 C   0  0  0  0  0  0  0  0  0  0  0  0
  -20.1980   -5.7274   24.6631 C   0  0  0  0  0  0  0  0  0  0  0  0
  -27.9751  -20.5932   19.2117 C   0  0  0  0  0  0  0  0  0  0  0  0
  -28.4391  -21.9403   19.2287 C   0  0  0  0  0  0  0  0  0  0  0  0
  -26.5590  -28.3342   20.8810 C   0  0  0  0  0  0  0  0  0  0  0  0
  -22.2064   -4.4792   24.1673 C   0  0  0  0  0  0  0  0  0  0  0  0
  -25.0417   -9.1071   20.9559 C   0  0  0  0  0  0  0  0  0  0  0  0
  -27.5639   -9.4736   21.0641 C   0  0  0  0  0  0  0  0  0  0  0  0
  -26.7669  -36.1974   23.9014 C   0  0  0  0  0  0  0  0  0  0  0  0
  -25.7651  -30.5862   20.4832 C   0  0  0  0  0  0  0  0  0  0  0  0
  -26.9919  -34.8232   23.6932 C   0  0  0  0  0  0  0  0  0  0  0  0
  -25.6102  -29.3421   21.1111 C   0  0  0  0  0  0  0  0  0  0  0  0
  -22.7104   -7.6113   21.2883 C   0  0  0  0  0  0  0  0  0  0  0  0
  -27.6399  -28.5564   20.0281 C   0  0  0  0  0  0  0  0  0  0  0  0
  -21.4260   -6.1723   22.6305 C   0  0  0  0  0  0  0  0  0  0  0  0
  -21.1276   -4.7470   25.0100 C   0  0  0  0  0  0  0  0  0  0  0  0
  -22.3556   -5.1919   22.9775 C   0  0  0  0  0  0  0  0  0  0  0  0
  -26.2456   -9.8798   20.7835 C   0  0  0  0  0  0  0  0  0  0  0  0
  -28.1491  -19.9707   20.4282 C   0  0  0  0  0  0  0  0  0  0  0  0
  -28.3359  -10.5599   20.7319 C   0  0  0  0  0  0  0  0  0  0  0  0
  -28.9498  -22.2961   20.4577 C   0  0  0  0  0  0  0  0  0  0  0  0
  -29.6935  -25.8307   20.9672 C   0  0  0  0  0  0  0  0  0  0  0  0
  -27.8165  -18.6496   20.7970 C   0  0  0  0  0  0  0  0  0  0  0  0
  -29.2454  -27.0887   20.8877 C   0  0  0  0  0  0  0  0  0  1  0  0
  -27.2566  -17.6834   19.9937 C   0  0  0  0  0  0  0  0  0  0  0  0
  -28.0475   -8.2259   21.5789 C   0  0  0  0  0  0  0  0  0  0  0  0
  -26.9750  -16.3357   20.5275 C   0  0  0  0  0  0  0  0  0  0  0  0
  -24.7801  -31.9042   23.2028 C   0  0  0  0  0  0  0  0  0  0  0  0
  -22.2156  -29.9681   22.7585 C   0  0  0  0  0  0  0  0  0  0  0  0
  -20.9302  -27.1415   21.3426 C   0  0  0  0  0  0  0  0  0  0  0  0
  -25.6246  -36.6943   24.7516 C   0  0  0  0  0  0  0  0  0  0  0  0
  -24.7504  -31.6766   20.6922 C   0  0  0  0  0  0  0  0  0  0  0  0
  -24.4550  -29.0586   22.0352 C   0  0  0  0  0  0  0  0  0  0  0  0
  -30.4555  -25.2631   22.1220 C   0  0  0  0  0  0  0  0  0  0  0  0
  -24.5333  -35.6507   24.9759 C   0  0  0  0  0  0  0  0  0  0  0  0
  -28.4442  -14.3415   17.8262 C   0  0  0  0  0  0  0  0  0  0  0  0
  -25.1486  -34.3093   25.3618 C   0  0  0  0  0  0  0  0  0  0  0  0
  -28.1175  -12.9261   18.2950 C   0  0  0  0  0  0  0  0  0  0  0  0
  -29.9993  -23.8077   22.1455 C   0  0  0  0  0  0  0  0  0  0  0  0
  -27.3500  -15.3372   18.2083 C   0  0  0  0  0  0  0  0  0  0  0  0
  -26.6972  -13.9191   20.1327 C   0  0  0  0  0  0  0  0  0  0  0  0
  -26.0503  -33.7738   24.2430 C   0  0  1  0  0  0  0  0  0  0  0  0
  -29.3999  -24.7362   19.9734 C   0  0  1  0  0  0  0  0  0  0  0  0
  -23.9708  -31.5256   21.9948 C   0  0  1  0  0  0  0  0  0  0  0  0
  -27.8068  -12.9093   19.8001 C   0  0  1  0  0  0  0  0  0  0  0  0
  -30.4614  -24.7127   18.8748 C   0  0  0  0  0  0  0  0  0  0  0  0
  -18.8137  -25.8020   21.1902 C   0  0  0  0  0  0  0  0  0  0  0  0
  -22.6925  -28.8987   25.5761 C   0  0  0  0  0  0  0  0  0  0  0  0
  -21.2066  -26.9626   25.0176 C   0  0  0  0  0  0  0  0  0  0  0  0
  -20.2896  -29.2824   24.9987 C   0  0  0  0  0  0  0  0  0  0  0  0
  -20.7806  -27.4951   18.4081 C   0  0  0  0  0  0  0  0  0  0  0  0
  -21.8608  -28.5557   23.1560 C   0  0  1  0  0  0  0  0  0  0  0  0
  -19.6544  -26.8993   20.5564 C   0  0  2  0  0  0  0  0  0  0  0  0
  -21.5353  -28.4305   24.6712 C   0  0  0  0  0  0  0  0  0  0  0  0
  -26.1800  -11.1269   20.3097 N   0  0  0  0  0  0  0  0  0  0  0  0
  -27.4669  -11.5137   20.2901 N   0  0  0  0  0  0  0  0  0  0  0  0
  -29.4789  -23.5279   20.8042 N   0  0  3  0  0  0  0  0  0  0  0  0
  -27.0296  -15.2611   19.6416 N   0  0  0  0  0  0  0  0  0  0  0  0
  -23.4928  -30.1587   22.2123 N   0  0  0  0  0  0  0  0  0  0  0  0
  -29.6666  -10.7828   20.7777 N   0  0  0  0  0  0  0  0  0  0  0  0
  -27.1184   -7.2168   21.8667 N   0  0  0  0  0  0  0  0  0  0  0  0
  -25.2515  -33.2029   23.1798 N   0  0  0  0  0  0  0  0  0  0  0  0
  -20.7728  -28.1448   22.2752 N   0  0  0  0  0  0  0  0  0  0  0  0
  -19.9762  -26.4965   19.1581 N   0  3  0  0  0  0  0  0  0  0  0  0
  -29.2658   -8.0179   21.7932 O   0  0  0  0  0  0  0  0  0  0  0  0
  -26.7035  -16.2440   21.7260 O   0  0  0  0  0  0  0  0  0  0  0  0
  -24.9622  -31.0795   24.0907 O   0  0  0  0  0  0  0  0  0  0  0  0
  -21.3874  -30.8679   22.9198 O   0  0  0  0  0  0  0  0  0  0  0  0
  -21.9621  -26.5019   21.1513 O   0  0  0  0  0  0  0  0  0  0  0  0
  -21.5732   -6.8813   21.4501 O   0  0  0  0  0  0  0  0  0  0  0  0
  -28.5515  -27.5693   19.8128 O   0  0  0  0  0  0  0  0  0  1  0  0
  -20.9850   -4.0637   26.1533 F   0  0  0  0  0  0  0  0  0  0  0  0
  -23.3946   -4.9311   22.1724 F   0  0  0  0  0  0  0  0  0  0  0  0
  -28.8690  -21.0089   21.5841 S   0  0  0  0  0  0  0  0  0  0  0  0
  1  2  1  0  0  0  0
  1  5  2  0  0  0  0
  2  6  2  0  0  0  0
  3  8  2  0  0  0  0
  3 17  1  0  0  0  0
  4  9  1  0  0  0  0
  4 17  2  0  0  0  0
  5 19  1  0  0  0  0
  6 21  1  0  0  0  0
  7 10  2  0  0  0  0
  7 20  1  0  0  0  0
  8 23  1  0  0  0  0
  9 23  2  0  0  0  0
 10 24  1  0  0  0  0
 11 12  2  0  0  0  0
 11 25  1  0  0  0  0
 12 26  1  0  0  0  0
 13 14  1  0  0  0  0
 13 29  2  0  0  0  0
 14 31  2  0  0  0  0
 15 22  1  0  0  0  0
 15 24  2  0  0  0  0
 16 26  2  0  0  0  0
 16 27  1  0  0  0  0
 17 28  1  0  0  0  0
 18 28  1  0  0  0  0
 18 30  2  0  0  0  0
 18 36  1  0  0  0  0
 19 21  2  0  0  0  0
 19 41  1  0  0  0  0
 20 22  2  0  0  0  0
 20 42  1  0  0  0  0
 21 52  1  0  0  0  0
 22 43  1  0  0  0  0
 23 80  1  0  0  0  0
 24 81  1  0  0  0  0
 25 27  2  0  0  0  0
 25 80  1  0  0  0  0
 26 82  1  0  0  0  0
 27 83  1  0  0  0  0
 28 65  2  0  0  0  0
 29 33  1  0  0  0  0
 29 84  1  0  0  0  0
 30 66  1  0  0  0  0
 30 70  1  0  0  0  0
 31 67  1  0  0  0  0
 31 84  1  0  0  0  0
 32 34  2  0  0  0  0
 32 44  1  0  0  0  0
 32 53  1  0  0  0  0
 33 35  2  0  0  0  0
 34 81  1  0  0  0  0
 35 37  1  0  0  0  0
 36 71  1  0  0  0  0
 36 75  2  0  0  0  0
 37 68  1  0  0  0  0
 37 76  2  0  0  0  0
 38 54  1  0  0  0  0
 38 72  1  0  0  0  0
 38 77  2  0  0  0  0
 39 62  1  0  0  0  0
 39 69  1  0  0  0  0
 39 78  2  0  0  0  0
 40 63  1  0  0  0  0
 40 73  1  0  0  0  0
 40 79  2  0  0  0  0
 41 45  1  0  0  0  0
 42 54  1  0  0  0  0
 43 69  1  0  0  0  0
 44 49  1  0  0  0  0
 45 47  1  0  0  0  0
 46 48  1  0  0  0  0
 46 50  1  0  0  0  0
 47 52  1  0  0  0  0
 48 55  1  0  0  0  0
 49 67  1  0  0  0  0
 50 68  1  0  0  0  0
 51 55  1  0  0  0  0
 51 68  1  0  0  0  0
 52 72  1  0  0  0  0
 53 56  1  0  0  0  0
 53 67  1  0  0  0  0
 54 69  1  0  0  0  0
 55 66  1  0  0  0  0
 57 63  1  0  0  0  0
 58 64  1  0  0  0  0
 59 64  1  0  0  0  0
 60 64  1  0  0  0  0
 61 74  1  0  0  0  0
 62 64  1  0  0  0  0
 62 73  1  0  0  0  0
 63 74  1  0  0  0  0
 65 66  1  0  0  0  0
M  CHG  1  74   1
M  ISO  4  34 101  35 100  37 100  81 101
M  END
> <Batch ID>
0121

> <Smiles>
CNC(C)C(=O)NC(C(=O)N1Cc2cc([101O:1][101CH:1]=C3CCN(c4ccc(C=[100CH:0][100C:0](=O)N5CCCC(n6nc(-c7ccc(Oc8ccc(F)cc8F)cc7)c(C(N)=O)c6N)C5)s4)C3C)ccc2CC1C(=O)NC1CCCc2ccccc21)C(C)(C)C

> <Shape>
0.345

> <Color>
0.091

> <Negative vol penalty>
0.000

$$$$

  -OEChem-04052301573D

 85 93  0     1  0  0  0  0  0999 V2000
  -16.2624  -27.4991   25.9342 C   0  0  0  0  0  0  0  0  0  0  0  0
  -17.4144  -26.7206   25.8876 C   0  0  0  0  0  0  0  0  0  0  0  0
  -24.7326   -8.4696   20.6386 C   0  0  0  0  0  0  0  0  0  0  0  0
  -23.0856  -10.1892   20.2293 C   0  0  0  0  0  0  0  0  0  0  0  0
  -16.1635  -28.6438   25.1443 C   0  0  0  0  0  0  0  0  0  0  0  0
  -18.4679  -27.0857   25.0501 C   0  0  0  0  0  0  0  0  0  0  0  0
  -24.4516  -26.3465   26.1247 C   0  0  0  0  0  0  0  0  0  0  0  0
  -23.7244   -7.6056   21.0658 C   0  0  0  0  0  0  0  0  0  0  0  0
  -22.0773   -9.3251   20.6566 C   0  0  0  0  0  0  0  0  0  0  0  0
  -25.3666  -25.3797   25.7103 C   0  0  0  0  0  0  0  0  0  0  0  0
  -21.8733   -7.1231   23.8524 C   0  0  0  0  0  0  0  0  0  0  0  0
  -22.0994   -6.3905   25.0176 C   0  0  0  0  0  0  0  0  0  0  0  0
  -26.0548  -26.8162   23.8987 C   0  0  0  0  0  0  0  0  0  0  0  0
  -28.1017  -20.4635   17.1201 C   0  0  0  0  0  0  0  0  0  0  0  0
  -28.5565  -19.2361   19.1507 C   0  0  0  0  0  0  0  0  0  0  0  0
  -21.8513   -4.3346   23.7730 C   0  0  0  0  0  0  0  0  0  0  0  0
  -24.4132   -9.7614   20.2204 C   0  0  0  0  0  0  0  0  0  0  0  0
  -25.9421  -10.8100   18.4681 C   0  0  0  0  0  0  0  0  0  0  0  0
  -17.2202  -29.0284   24.3039 C   0  0  0  0  0  0  0  0  0  0  0  0
  -24.3234  -27.5530   25.4215 C   0  0  0  0  0  0  0  0  0  0  0  0
  -18.3825  -28.2358   24.2472 C   0  0  0  0  0  0  0  0  0  0  0  0
  -25.1392  -27.7977   24.3077 C   0  0  0  0  0  0  0  0  0  0  0  0
  -27.8551  -19.2649   16.4508 C   0  0  0  0  0  0  0  0  0  0  0  0
  -27.9592  -18.0518   17.1314 C   0  0  0  0  0  0  0  0  0  0  0  0
  -28.3099  -18.0374   18.4814 C   0  0  0  0  0  0  0  0  0  0  0  0
  -22.3968   -8.0333   21.0748 C   0  0  0  0  0  0  0  0  0  0  0  0
  -26.1663  -25.6132   24.5954 C   0  0  0  0  0  0  0  0  0  0  0  0
  -21.6362   -6.4616   22.6475 C   0  0  0  0  0  0  0  0  0  0  0  0
  -28.4524  -20.4491   18.4701 C   0  0  0  0  0  0  0  0  0  0  0  0
  -22.0884   -4.9962   24.9779 C   0  0  0  0  0  0  0  0  0  0  0  0
  -21.6252   -5.0673   22.6078 C   0  0  0  0  0  0  0  0  0  0  0  0
  -25.4543  -10.6546   19.7795 C   0  0  0  0  0  0  0  0  0  0  0  0
  -26.9174  -11.7711   18.5762 C   0  0  0  0  0  0  0  0  0  0  0  0
  -25.5488  -10.1452   17.2602 C   0  0  0  0  0  0  0  0  0  0  0  0
  -21.9770  -28.9760   23.8174 C   0  0  0  0  0  0  0  0  0  0  0  0
  -24.1037  -31.4192   23.6433 C   0  0  0  0  0  0  0  0  0  0  0  0
  -27.3607  -32.4357   23.7145 C   0  0  0  0  0  0  0  0  0  0  0  0
  -28.7534  -16.6487   20.5360 C   0  0  0  0  0  0  0  0  0  0  0  0
  -17.0482  -30.2478   23.4333 C   0  0  0  0  0  0  0  0  0  0  0  0
  -23.3505  -28.5968   25.8972 C   0  0  0  0  0  0  0  0  0  0  0  0
  -25.0546  -29.0850   23.5303 C   0  0  0  0  0  0  0  0  0  0  0  0
  -18.3593  -30.7715   22.8527 C   0  0  0  0  0  0  0  0  0  0  0  0
  -29.0882  -13.8156   22.6664 C   0  0  0  0  0  0  0  0  0  0  0  0
  -19.1850  -29.6243   22.2790 C   0  0  0  0  0  0  0  0  0  0  0  0
  -28.2128  -12.7535   21.9973 C   0  0  0  0  0  0  0  0  0  0  0  0
  -28.4794  -15.2114   22.5444 C   0  0  0  0  0  0  0  0  0  0  0  0
  -27.2561  -14.5576   20.5084 C   0  0  0  0  0  0  0  0  0  0  0  0
  -19.5565  -28.6126   23.3698 C   0  0  1  0  0  0  0  0  0  0  0  0
  -22.9413  -29.5759   24.8012 C   0  0  1  0  0  0  0  0  0  0  0  0
  -27.8603  -13.1445   20.5487 C   0  0  2  0  0  0  0  0  0  0  0  0
  -27.4806  -19.3086   15.0054 C   0  0  0  0  0  0  0  0  0  0  0  0
  -28.9763  -16.0314   16.0498 C   0  0  0  0  0  0  0  0  0  0  0  0
  -28.7885  -34.4889   23.5067 C   0  0  0  0  0  0  0  0  0  0  0  0
  -23.6919  -31.3966   20.6200 C   0  0  0  0  0  0  0  0  0  0  0  0
  -25.7817  -32.7569   20.3953 C   0  0  0  0  0  0  0  0  0  0  0  0
  -23.8242  -33.6772   21.6379 C   0  0  0  0  0  0  0  0  0  0  0  0
  -28.4301  -32.1107   26.4549 C   0  0  0  0  0  0  0  0  0  0  0  0
  -27.6912  -16.7688   16.4091 C   0  0  0  0  0  0  0  0  0  0  0  0
  -27.6871  -23.1842   22.3921 C   0  0  0  0  0  0  0  0  0  0  0  0
  -28.0296  -23.0809   20.9099 C   0  0  0  0  0  0  0  0  0  0  0  0
  -27.3548  -24.6153   22.7934 C   0  0  0  0  0  0  0  0  0  1  0  0
  -28.4035  -21.6586   20.5172 C   0  0  0  0  0  0  0  0  0  0  0  0
  -25.1919  -31.8225   22.6778 C   0  0  1  0  0  0  0  0  0  0  0  0
  -28.0473  -33.5653   24.4608 C   0  0  2  0  0  0  0  0  0  0  0  0
  -24.6229  -32.3881   21.3460 C   0  0  0  0  0  0  0  0  0  0  0  0
  -26.0691  -11.4529   20.6563 N   0  0  0  0  0  0  0  0  0  0  0  0
  -26.9533  -12.1191   19.8945 N   0  0  0  0  0  0  0  0  0  0  0  0
  -24.0837  -30.0719   24.0311 N   0  0  0  0  0  0  0  0  0  0  0  0
  -28.1754  -15.5144   21.1442 N   0  0  0  0  0  0  0  0  0  0  0  0
  -27.7393  -12.3439   17.6713 N   0  0  0  0  0  0  0  0  0  0  0  0
  -24.5303   -9.1847   17.3275 N   0  0  0  0  0  0  0  0  0  0  0  0
  -28.4177  -16.8168   19.1930 N   0  0  0  0  0  0  0  0  0  0  0  0
  -20.6494  -29.1154   24.1744 N   0  0  0  0  0  0  0  0  0  0  0  0
  -26.0554  -32.7501   23.4005 N   0  0  0  0  0  0  0  0  0  0  0  0
  -29.0271  -33.0181   25.4414 N   0  3  0  0  0  0  0  0  0  0  0  0
  -26.0958  -10.3837   16.1569 O   0  0  0  0  0  0  0  0  0  0  0  0
  -22.4056  -28.4285   22.8084 O   0  0  0  0  0  0  0  0  0  0  0  0
  -23.3053  -32.2697   24.0442 O   0  0  0  0  0  0  0  0  0  0  0  0
  -27.9269  -31.3814   23.4345 O   0  0  0  0  0  0  0  0  0  0  0  0
  -29.5134  -17.3995   21.1530 O   0  0  0  0  0  0  0  0  0  0  0  0
  -21.4127   -7.1904   21.4914 O   0  0  0  0  0  0  0  0  0  0  0  0
  -27.0598  -24.6709   24.1884 O   0  0  0  0  0  0  0  0  0  1  0  0
  -28.6958  -21.6274   19.1270 O   0  0  0  0  0  0  0  0  0  0  0  0
  -22.3070   -4.2928   26.0966 F   0  0  0  0  0  0  0  0  0  0  0  0
  -21.3991   -4.4261   21.4530 F   0  0  0  0  0  0  0  0  0  0  0  0
  1  2  1  0  0  0  0
  1  5  2  0  0  0  0
  2  6  2  0  0  0  0
  3  8  2  0  0  0  0
  3 17  1  0  0  0  0
  4  9  1  0  0  0  0
  4 17  2  0  0  0  0
  5 19  1  0  0  0  0
  6 21  1  0  0  0  0
  7 10  2  0  0  0  0
  7 20  1  0  0  0  0
  8 26  1  0  0  0  0
  9 26  2  0  0  0  0
 10 27  1  0  0  0  0
 11 12  2  0  0  0  0
 11 28  1  0  0  0  0
 12 30  1  0  0  0  0
 13 22  1  0  0  0  0
 13 27  2  0  0  0  0
 14 23  2  0  0  0  0
 14 29  1  0  0  0  0
 15 25  1  0  0  0  0
 15 29  2  0  0  0  0
 16 30  2  0  0  0  0
 16 31  1  0  0  0  0
 17 32  1  0  0  0  0
 18 32  1  0  0  0  0
 18 33  2  0  0  0  0
 18 34  1  0  0  0  0
 19 21  2  0  0  0  0
 19 39  1  0  0  0  0
 20 22  2  0  0  0  0
 20 40  1  0  0  0  0
 21 48  1  0  0  0  0
 22 41  1  0  0  0  0
 23 24  1  0  0  0  0
 23 51  1  0  0  0  0
 24 25  2  0  0  0  0
 24 58  1  0  0  0  0
 25 72  1  0  0  0  0
 26 81  1  0  0  0  0
 27 82  1  0  0  0  0
 28 31  2  0  0  0  0
 28 81  1  0  0  0  0
 29 83  1  0  0  0  0
 30 84  1  0  0  0  0
 31 85  1  0  0  0  0
 32 66  2  0  0  0  0
 33 67  1  0  0  0  0
 33 70  1  0  0  0  0
 34 71  1  0  0  0  0
 34 76  2  0  0  0  0
 35 49  1  0  0  0  0
 35 73  1  0  0  0  0
 35 77  2  0  0  0  0
 36 63  1  0  0  0  0
 36 68  1  0  0  0  0
 36 78  2  0  0  0  0
 37 64  1  0  0  0  0
 37 74  1  0  0  0  0
 37 79  2  0  0  0  0
 38 69  1  0  0  0  0
 38 72  1  0  0  0  0
 38 80  2  0  0  0  0
 39 42  1  0  0  0  0
 40 49  1  0  0  0  0
 41 68  1  0  0  0  0
 42 44  1  0  0  0  0
 43 45  1  0  0  0  0
 43 46  1  0  0  0  0
 44 48  1  0  0  0  0
 45 50  1  0  0  0  0
 46 69  1  0  0  0  0
 47 50  1  0  0  0  0
 47 69  1  0  0  0  0
 48 73  1  0  0  0  0
 49 68  1  0  0  0  0
 50 67  1  0  0  0  0
 52 58  1  0  0  0  0
 53 64  1  0  0  0  0
 54 65  1  0  0  0  0
 55 65  1  0  0  0  0
 56 65  1  0  0  0  0
 57 75  1  0  0  0  0
 59 60  1  0  0  0  0
 59 61  1  0  0  0  0
 60 62  1  0  0  0  0
 61 82  1  0  0  0  0
 62 83  1  0  0  0  0
 63 65  1  0  0  0  0
 63 74  1  0  0  0  0
 64 75  1  0  0  0  0
 66 67  1  0  0  0  0
M  CHG  1  75   1
M  ISO  4  38 100  61 101  72 100  82 101
M  END
> <Batch ID>
0121

> <Smiles>
CCc1c(C)cc(OCCC[101CH2:1][101O:1]c2ccc3c(c2)CN(C(=O)C(NC(=O)C(C)NC)C(C)(C)C)C(C(=O)NC2CCCc4ccccc42)C3)cc1[100NH:0][100C:0](=O)N1CCCC(n2nc(-c3ccc(Oc4ccc(F)cc4F)cc3)c(C(N)=O)c2N)C1

> <Shape>
0.268

> <Color>
0.109

> <Negative vol penalty>
0.000

$$$$

  -OEChem-04052301573D

 88 96  0     1  0  0  0  0  0999 V2000
  -19.2943  -33.6740   22.3030 C   0  0  0  0  0  0  0  0  0  0  0  0
  -20.6041  -33.4189   21.9097 C   0  0  0  0  0  0  0  0  0  0  0  0
  -23.0779  -10.2271   20.3152 C   0  0  0  0  0  0  0  0  0  0  0  0
  -23.2795  -10.1831   22.7224 C   0  0  0  0  0  0  0  0  0  0  0  0
  -18.6265  -32.7694   23.1275 C   0  0  0  0  0  0  0  0  0  0  0  0
  -21.2473  -32.2594   22.3415 C   0  0  0  0  0  0  0  0  0  0  0  0
  -25.3222  -28.9267   19.2120 C   0  0  0  0  0  0  0  0  0  0  0  0
  -23.0411   -8.8330   20.2927 C   0  0  0  0  0  0  0  0  0  0  0  0
  -23.2425   -8.7888   22.6999 C   0  0  0  0  0  0  0  0  0  0  0  0
  -26.7155  -28.8828   19.2374 C   0  0  0  0  0  0  0  0  0  0  0  0
  -22.8386   -5.2271   23.3074 C   0  0  0  0  0  0  0  0  0  0  0  0
  -22.0256   -4.5840   24.2407 C   0  0  0  0  0  0  0  0  0  0  0  0
  -29.2391  -20.9337   18.3400 C   0  0  0  0  0  0  0  0  0  0  0  0
  -31.0280  -19.3604   18.7421 C   0  0  0  0  0  0  0  0  0  0  0  0
  -31.5292  -21.7004   18.4098 C   0  0  0  0  0  0  0  0  0  0  0  0
  -26.6228  -27.0107   20.7559 C   0  0  0  0  0  0  0  0  0  0  0  0
  -20.0928   -5.7191   23.3390 C   0  0  0  0  0  0  0  0  0  0  0  0
  -23.1972  -10.9022   21.5300 C   0  0  0  0  0  0  0  0  0  0  0  0
  -29.6683  -19.6293   18.5847 C   0  0  0  0  0  0  0  0  0  0  0  0
  -30.1695  -21.9693   18.2524 C   0  0  0  0  0  0  0  0  0  0  0  0
  -22.1409  -13.2205   21.6617 C   0  0  0  0  0  0  0  0  0  0  0  0
  -19.2585  -31.5936   23.5617 C   0  0  0  0  0  0  0  0  0  0  0  0
  -24.5676  -28.0183   19.9682 C   0  0  0  0  0  0  0  0  0  0  0  0
  -20.5878  -31.3389   23.1736 C   0  0  0  0  0  0  0  0  0  0  0  0
  -25.2201  -27.0435   20.7364 C   0  0  0  0  0  0  0  0  0  0  0  0
  -31.9584  -20.3960   18.6546 C   0  0  0  0  0  0  0  0  0  0  0  0
  -23.1233   -8.1138   21.4851 C   0  0  0  0  0  0  0  0  0  0  0  0
  -27.3660  -27.9265   20.0116 C   0  0  0  0  0  0  0  0  0  0  0  0
  -22.2788   -6.1163   22.3900 C   0  0  0  0  0  0  0  0  0  0  0  0
  -20.6527   -4.8300   24.2565 C   0  0  0  0  0  0  0  0  0  0  0  0
  -20.9058   -6.3623   22.4058 C   0  0  0  0  0  0  0  0  0  0  0  0
  -23.2359  -12.3423   21.5538 C   0  0  0  0  0  0  0  0  0  0  0  0
  -22.7023  -14.4738   21.6385 C   0  0  0  0  0  0  0  0  0  0  0  0
  -31.7946  -26.3486   20.3006 C   0  0  0  0  0  0  0  0  0  0  0  0
  -28.6981  -18.5494   18.6766 C   0  0  0  0  0  0  0  0  0  0  0  0
  -29.7168  -23.3456   17.9947 C   0  0  0  0  0  0  0  0  0  0  0  0
  -28.9101  -17.3544   19.2678 C   0  0  0  0  0  0  0  0  0  0  0  0
  -30.4896  -24.3346   17.5195 C   0  0  0  0  0  0  0  0  0  0  0  0
  -20.7415  -12.9294   21.7731 C   0  0  0  0  0  0  0  0  0  0  0  0
  -30.6780  -26.5659   19.5870 C   0  0  0  0  0  0  0  0  0  0  0  0
  -27.8177  -16.3610   19.2880 C   0  0  0  0  0  0  0  0  0  0  0  0
  -22.4809  -28.2739   22.3524 C   0  0  0  0  0  0  0  0  0  0  0  0
  -22.1419  -25.0826   21.8801 C   0  0  0  0  0  0  0  0  0  0  0  0
  -23.4198  -21.7812   21.1834 C   0  0  0  0  0  0  0  0  0  0  0  0
  -18.5123  -30.6688   24.4905 C   0  0  0  0  0  0  0  0  0  0  0  0
  -23.0652  -28.0618   19.9091 C   0  0  0  0  0  0  0  0  0  0  0  0
  -24.4558  -26.0327   21.5503 C   0  0  0  0  0  0  0  0  0  0  0  0
  -19.1369  -29.2802   24.5988 C   0  0  0  0  0  0  0  0  0  0  0  0
  -26.7068  -16.8152   22.7509 C   0  0  0  0  0  0  0  0  0  0  0  0
  -20.6456  -29.3873   24.7965 C   0  0  0  0  0  0  0  0  0  0  0  0
  -25.6139  -15.7543   22.8502 C   0  0  0  0  0  0  0  0  0  0  0  0
  -27.8515  -16.3733   21.8404 C   0  0  0  0  0  0  0  0  0  0  0  0
  -26.3112  -14.8986   20.5783 C   0  0  0  0  0  0  0  0  0  0  0  0
  -21.3108  -30.0801   23.6011 C   0  0  1  0  0  0  0  0  0  0  0  0
  -22.4006  -27.4163   21.1212 C   0  0  1  0  0  0  0  0  0  0  0  0
  -25.1273  -15.3415   21.4520 C   0  0  1  0  0  0  0  0  0  0  0  0
  -35.3314  -19.8951   20.4650 C   0  0  0  0  0  0  0  0  0  0  0  0
  -22.2218  -19.5948   20.8973 C   0  0  0  0  0  0  0  0  0  0  0  0
  -22.7204  -24.7079   24.8525 C   0  0  0  0  0  0  0  0  0  0  0  0
  -23.1477  -22.2843   24.3926 C   0  0  0  0  0  0  0  0  0  0  0  0
  -20.8926  -23.2564   23.9544 C   0  0  0  0  0  0  0  0  0  0  0  0
  -24.6376  -21.3292   18.5241 C   0  0  0  0  0  0  0  0  0  0  0  0
  -33.4121  -20.1089   18.8236 C   0  0  0  0  0  0  0  0  0  0  0  0
  -29.9859  -25.7289   17.2683 C   0  0  0  0  0  0  0  0  0  0  0  0
  -30.7383  -26.7840   18.0896 C   0  0  0  0  0  0  0  0  0  0  0  0
  -29.3297  -26.6069   20.2535 C   0  0  0  0  0  0  0  0  0  1  0  0
  -33.8567  -20.2216   20.2898 C   0  0  0  0  0  0  0  0  0  0  0  0
  -22.8150  -23.8443   22.4212 C   0  0  1  0  0  0  0  0  0  0  0  0
  -22.8586  -20.7806   20.1893 C   0  0  2  0  0  0  0  0  0  0  0  0
  -22.4086  -23.5434   23.8915 C   0  0  0  0  0  0  0  0  0  0  0  0
  -24.4045  -12.9834   21.4682 N   0  0  0  0  0  0  0  0  0  0  0  0
  -24.0471  -14.2778   21.5223 N   0  0  0  0  0  0  0  0  0  0  0  0
  -27.3555  -15.9280   20.5295 N   0  0  0  0  0  0  0  0  0  0  0  0
  -22.9886  -26.1200   21.4646 N   0  0  0  0  0  0  0  0  0  0  0  0
  -22.1720  -15.7134   21.7063 N   0  0  0  0  0  0  0  0  0  0  0  0
  -20.3368  -11.5876   21.7817 N   0  0  0  0  0  0  0  0  0  0  0  0
  -21.4316  -29.1626   22.4884 N   0  0  0  0  0  0  0  0  0  0  0  0
  -22.5066  -22.7696   21.4841 N   0  0  0  0  0  0  0  0  0  0  0  0
  -23.9406  -20.2713   19.3000 N   0  3  0  0  0  0  0  0  0  0  0  0
  -19.8741  -13.8327   21.8459 O   0  0  0  0  0  0  0  0  0  0  0  0
  -27.3837  -15.9709   18.2025 O   0  0  0  0  0  0  0  0  0  0  0  0
  -23.4241  -28.1381   23.1228 O   0  0  0  0  0  0  0  0  0  0  0  0
  -20.9105  -25.1248   21.8214 O   0  0  0  0  0  0  0  0  0  0  0  0
  -24.5536  -21.6927   21.6496 O   0  0  0  0  0  0  0  0  0  0  0  0
  -23.0872   -6.7534   21.4636 O   0  0  0  0  0  0  0  0  0  0  0  0
  -28.7258  -27.8819   20.0387 O   0  0  0  0  0  0  0  0  0  1  0  0
  -19.8718   -4.2112   25.1517 F   0  0  0  0  0  0  0  0  0  0  0  0
  -20.3621   -7.2145   21.5261 F   0  0  0  0  0  0  0  0  0  0  0  0
  1  2  1  0  0  0  0
  1  5  2  0  0  0  0
  2  6  2  0  0  0  0
  3  8  2  0  0  0  0
  3 18  1  0  0  0  0
  4  9  1  0  0  0  0
  4 18  2  0  0  0  0
  5 22  1  0  0  0  0
  6 24  1  0  0  0  0
  7 10  2  0  0  0  0
  7 23  1  0  0  0  0
  8 27  1  0  0  0  0
  9 27  2  0  0  0  0
 10 28  1  0  0  0  0
 11 12  2  0  0  0  0
 11 29  1  0  0  0  0
 12 30  1  0  0  0  0
 13 19  2  0  0  0  0
 13 20  1  0  0  0  0
 14 19  1  0  0  0  0
 14 26  2  0  0  0  0
 15 20  2  0  0  0  0
 15 26  1  0  0  0  0
 16 25  1  0  0  0  0
 16 28  2  0  0  0  0
 17 30  2  0  0  0  0
 17 31  1  0  0  0  0
 18 32  1  0  0  0  0
 19 35  1  0  0  0  0
 20 36  1  0  0  0  0
 21 32  1  0  0  0  0
 21 33  2  0  0  0  0
 21 39  1  0  0  0  0
 22 24  2  0  0  0  0
 22 45  1  0  0  0  0
 23 25  2  0  0  0  0
 23 46  1  0  0  0  0
 24 54  1  0  0  0  0
 25 47  1  0  0  0  0
 26 63  1  0  0  0  0
 27 85  1  0  0  0  0
 28 86  1  0  0  0  0
 29 31  2  0  0  0  0
 29 85  1  0  0  0  0
 30 87  1  0  0  0  0
 31 88  1  0  0  0  0
 32 71  2  0  0  0  0
 33 72  1  0  0  0  0
 33 75  1  0  0  0  0
 34 40  2  0  0  0  0
 35 37  2  0  0  0  0
 36 38  2  0  0  0  0
 37 41  1  0  0  0  0
 38 64  1  0  0  0  0
 39 76  1  0  0  0  0
 39 80  2  0  0  0  0
 40 65  1  0  0  0  0
 40 66  1  0  0  0  0
 41 73  1  0  0  0  0
 41 81  2  0  0  0  0
 42 55  1  0  0  0  0
 42 77  1  0  0  0  0
 42 82  2  0  0  0  0
 43 68  1  0  0  0  0
 43 74  1  0  0  0  0
 43 83  2  0  0  0  0
 44 69  1  0  0  0  0
 44 78  1  0  0  0  0
 44 84  2  0  0  0  0
 45 48  1  0  0  0  0
 46 55  1  0  0  0  0
 47 74  1  0  0  0  0
 48 50  1  0  0  0  0
 49 51  1  0  0  0  0
 49 52  1  0  0  0  0
 50 54  1  0  0  0  0
 51 56  1  0  0  0  0
 52 73  1  0  0  0  0
 53 56  1  0  0  0  0
 53 73  1  0  0  0  0
 54 77  1  0  0  0  0
 55 74  1  0  0  0  0
 56 72  1  0  0  0  0
 57 67  1  0  0  0  0
 58 69  1  0  0  0  0
 59 70  1  0  0  0  0
 60 70  1  0  0  0  0
 61 70  1  0  0  0  0
 62 79  1  0  0  0  0
 63 67  1  0  0  0  0
 64 65  1  0  0  0  0
 66 86  1  0  0  0  0
 68 70  1  0  0  0  0
 68 78  1  0  0  0  0
 69 79  1  0  0  0  0
 71 72  1  0  0  0  0
M  CHG  1  79   1
M  ISO  4  37 100  41 100  66 101  86 101
M  END
> <Batch ID>
0121

> <Smiles>
C=C(CCC=Cc1cc(C=[100CH:0][100C:0](=O)N2CCCC(n3nc(-c4ccc(Oc5ccc(F)cc5F)cc4)c(C(N)=O)c3N)C2)cc(CCC)c1)[101CH2:1][101O:1]c1ccc2c(c1)CN(C(=O)C(NC(=O)C(C)NC)C(C)(C)C)C(C(=O)NC1CCCc3ccccc31)C2

> <Shape>
0.248

> <Color>
0.090

> <Negative vol penalty>
0.000

$$$$

  -OEChem-04052301573D

 83 91  0     1  0  0  0  0  0999 V2000
  -25.1445  -25.7224   31.8356 C   0  0  0  0  0  0  0  0  0  0  0  0
  -25.8766  -24.6071   32.2298 C   0  0  0  0  0  0  0  0  0  0  0  0
  -23.1899   -9.8193   19.9320 C   0  0  0  0  0  0  0  0  0  0  0  0
  -23.5701   -9.9992   22.3111 C   0  0  0  0  0  0  0  0  0  0  0  0
  -24.4764  -25.7194   30.6119 C   0  0  0  0  0  0  0  0  0  0  0  0
  -25.9403  -23.4876   31.4008 C   0  0  0  0  0  0  0  0  0  0  0  0
  -30.7046  -19.7082   30.6776 C   0  0  0  0  0  0  0  0  0  0  0  0
  -22.4240   -8.6724   20.1410 C   0  0  0  0  0  0  0  0  0  0  0  0
  -22.8041   -8.8523   22.5202 C   0  0  0  0  0  0  0  0  0  0  0  0
  -31.0057  -18.4628   31.2271 C   0  0  0  0  0  0  0  0  0  0  0  0
  -23.2057   -5.5058   22.2550 C   0  0  0  0  0  0  0  0  0  0  0  0
  -23.7049   -4.5444   23.1336 C   0  0  0  0  0  0  0  0  0  0  0  0
  -32.7718  -11.8457   26.3584 C   0  0  0  0  0  0  0  0  0  0  0  0
  -30.7001  -12.5149   25.3111 C   0  0  0  0  0  0  0  0  0  0  0  0
  -30.0876  -17.3857   29.2736 C   0  0  0  0  0  0  0  0  0  0  0  0
  -32.6604  -12.1070   23.9592 C   0  0  0  0  0  0  0  0  0  0  0  0
  -21.7494   -4.8037   24.5285 C   0  0  0  0  0  0  0  0  0  0  0  0
  -23.7630  -10.4827   21.0170 C   0  0  0  0  0  0  0  0  0  0  0  0
  -31.4278  -12.2047   26.4599 C   0  0  0  0  0  0  0  0  0  0  0  0
  -24.1010  -12.9994   20.7735 C   0  0  0  0  0  0  0  0  0  0  0  0
  -24.5398  -24.6030   29.7632 C   0  0  0  0  0  0  0  0  0  0  0  0
  -30.0818  -19.8017   29.4247 C   0  0  0  0  0  0  0  0  0  0  0  0
  -25.2713  -23.4692   30.1652 C   0  0  0  0  0  0  0  0  0  0  0  0
  -29.7820  -18.6336   28.7093 C   0  0  0  0  0  0  0  0  0  0  0  0
  -33.3882  -11.7969   25.1080 C   0  0  0  0  0  0  0  0  0  0  0  0
  -31.3164  -12.4660   24.0607 C   0  0  0  0  0  0  0  0  0  0  0  0
  -22.2311   -8.1890   21.4351 C   0  0  0  0  0  0  0  0  0  0  0  0
  -30.6946  -17.3012   30.5263 C   0  0  0  0  0  0  0  0  0  0  0  0
  -21.9783   -6.1163   22.5132 C   0  0  0  0  0  0  0  0  0  0  0  0
  -22.9768   -4.1933   24.2704 C   0  0  0  0  0  0  0  0  0  0  0  0
  -21.2502   -5.7651   23.6499 C   0  0  0  0  0  0  0  0  0  0  0  0
  -24.5547  -11.6671   20.8016 C   0  0  0  0  0  0  0  0  0  0  0  0
  -25.2318  -13.7424   20.5375 C   0  0  0  0  0  0  0  0  0  0  0  0
  -30.7769  -12.2570   27.7797 C   0  0  0  0  0  0  0  0  0  0  0  0
  -31.4165  -12.3593   28.9553 C   0  0  0  0  0  0  0  0  0  0  0  0
  -22.7758  -13.5190   20.9455 C   0  0  0  0  0  0  0  0  0  0  0  0
  -27.3158  -20.9650   28.3759 C   0  0  0  0  0  0  0  0  0  0  0  0
  -28.5688  -20.2612   25.4678 C   0  0  0  0  0  0  0  0  0  0  0  0
  -30.7644  -18.4022   23.6320 C   0  0  0  0  0  0  0  0  0  0  0  0
  -31.0373  -12.7827   21.5771 C   0  0  0  0  0  0  0  0  0  0  0  0
  -23.7622  -24.6283   28.4711 C   0  0  0  0  0  0  0  0  0  0  0  0
  -29.7878  -21.1534   28.8340 C   0  0  0  0  0  0  0  0  0  0  0  0
  -29.1316  -18.6802   27.3516 C   0  0  0  0  0  0  0  0  0  0  0  0
  -24.1875  -23.5453   27.4829 C   0  0  0  0  0  0  0  0  0  0  0  0
  -29.5222  -13.4647   18.4280 C   0  0  0  0  0  0  0  0  0  0  0  0
  -24.3116  -22.1983   28.1879 C   0  0  0  0  0  0  0  0  0  0  0  0
  -28.0344  -13.2083   18.6784 C   0  0  0  0  0  0  0  0  0  0  0  0
  -30.4042  -12.4797   19.1933 C   0  0  0  0  0  0  0  0  0  0  0  0
  -28.6457  -12.1375   20.8845 C   0  0  0  0  0  0  0  0  0  0  0  0
  -25.3845  -22.2452   29.2825 C   0  0  1  0  0  0  0  0  0  0  0  0
  -28.6863  -21.1177   27.7791 C   0  0  1  0  0  0  0  0  0  0  0  0
  -27.7191  -13.1459   20.1858 C   0  0  2  0  0  0  0  0  0  0  0  0
  -34.8254  -11.4136   24.9989 C   0  0  0  0  0  0  0  0  0  0  0  0
  -31.5339  -18.0237   21.2736 C   0  0  0  0  0  0  0  0  0  0  0  0
  -26.0268  -18.6735   24.8958 C   0  0  0  0  0  0  0  0  0  0  0  0
  -27.2265  -17.5709   22.9949 C   0  0  0  0  0  0  0  0  0  0  0  0
  -26.8594  -20.0381   22.9725 C   0  0  0  0  0  0  0  0  0  0  0  0
  -33.5312  -19.2304   24.2787 C   0  0  0  0  0  0  0  0  0  0  0  0
  -30.7085  -12.4138   30.2794 C   0  0  0  0  0  0  0  0  0  0  0  0
  -31.0656  -13.6857   31.0463 C   0  0  0  0  0  0  0  0  0  0  0  0
  -30.6404  -14.9356   30.2881 C   0  0  0  0  0  0  0  0  0  1  0  0
  -28.5590  -19.0524   24.5636 C   0  0  1  0  0  0  0  0  0  0  0  0
  -31.7687  -18.7945   22.5633 C   0  0  2  0  0  0  0  0  0  0  0  0
  -27.1784  -18.8324   23.8831 C   0  0  0  0  0  0  0  0  0  0  0  0
  -25.8711  -11.5663   20.5994 N   0  0  0  0  0  0  0  0  0  0  0  0
  -26.2543  -12.8448   20.4419 N   0  0  0  0  0  0  0  0  0  0  0  0
  -28.8582  -20.0253   26.8192 N   0  0  0  0  0  0  0  0  0  0  0  0
  -30.0515  -12.4778   20.6148 N   0  0  0  0  0  0  0  0  0  0  0  0
  -25.4414  -15.0693   20.4044 N   0  0  0  0  0  0  0  0  0  0  0  0
  -21.7295  -12.6165   21.1802 N   0  0  0  0  0  0  0  0  0  0  0  0
  -30.5776  -12.7821   22.8936 N   0  0  0  0  0  0  0  0  0  0  0  0
  -26.7061  -22.1623   28.6985 N   0  0  0  0  0  0  0  0  0  0  0  0
  -29.6641  -19.2332   23.6284 N   0  0  0  0  0  0  0  0  0  0  0  0
  -33.1566  -18.5176   23.0303 N   0  3  0  0  0  0  0  0  0  0  0  0
  -22.5243  -14.7460   20.8763 O   0  0  0  0  0  0  0  0  0  0  0  0
  -26.8457  -19.8440   28.5307 O   0  0  0  0  0  0  0  0  0  0  0  0
  -28.3356  -21.3748   24.9911 O   0  0  0  0  0  0  0  0  0  0  0  0
  -30.9369  -17.4513   24.3913 O   0  0  0  0  0  0  0  0  0  0  0  0
  -32.1971  -13.0531   21.2549 O   0  0  0  0  0  0  0  0  0  0  0  0
  -21.4836   -7.0700   21.6395 O   0  0  0  0  0  0  0  0  0  0  0  0
  -30.9868  -16.0842   31.0606 O   0  0  0  0  0  0  0  0  0  1  0  0
  -23.4557   -3.2689   25.1132 F   0  0  0  0  0  0  0  0  0  0  0  0
  -20.0699   -6.3473   23.9027 F   0  0  0  0  0  0  0  0  0  0  0  0
  1  2  1  0  0  0  0
  1  5  2  0  0  0  0
  2  6  2  0  0  0  0
  3  8  2  0  0  0  0
  3 18  1  0  0  0  0
  4  9  1  0  0  0  0
  4 18  2  0  0  0  0
  5 21  1  0  0  0  0
  6 23  1  0  0  0  0
  7 10  2  0  0  0  0
  7 22  1  0  0  0  0
  8 27  1  0  0  0  0
  9 27  2  0  0  0  0
 10 28  1  0  0  0  0
 11 12  2  0  0  0  0
 11 29  1  0  0  0  0
 12 30  1  0  0  0  0
 13 19  1  0  0  0  0
 13 25  2  0  0  0  0
 14 19  2  0  0  0  0
 14 26  1  0  0  0  0
 15 24  1  0  0  0  0
 15 28  2  0  0  0  0
 16 25  1  0  0  0  0
 16 26  2  0  0  0  0
 17 30  2  0  0  0  0
 17 31  1  0  0  0  0
 18 32  1  0  0  0  0
 19 34  1  0  0  0  0
 20 32  1  0  0  0  0
 20 33  2  0  0  0  0
 20 36  1  0  0  0  0
 21 23  2  0  0  0  0
 21 41  1  0  0  0  0
 22 24  2  0  0  0  0
 22 42  1  0  0  0  0
 23 50  1  0  0  0  0
 24 43  1  0  0  0  0
 25 53  1  0  0  0  0
 26 71  1  0  0  0  0
 27 80  1  0  0  0  0
 28 81  1  0  0  0  0
 29 31  2  0  0  0  0
 29 80  1  0  0  0  0
 30 82  1  0  0  0  0
 31 83  1  0  0  0  0
 32 65  2  0  0  0  0
 33 66  1  0  0  0  0
 33 69  1  0  0  0  0
 34 35  2  0  0  0  0
 35 59  1  0  0  0  0
 36 70  1  0  0  0  0
 36 75  2  0  0  0  0
 37 51  1  0  0  0  0
 37 72  1  0  0  0  0
 37 76  2  0  0  0  0
 38 62  1  0  0  0  0
 38 67  1  0  0  0  0
 38 77  2  0  0  0  0
 39 63  1  0  0  0  0
 39 73  1  0  0  0  0
 39 78  2  0  0  0  0
 40 68  1  0  0  0  0
 40 71  1  0  0  0  0
 40 79  2  0  0  0  0
 41 44  1  0  0  0  0
 42 51  1  0  0  0  0
 43 67  1  0  0  0  0
 44 46  1  0  0  0  0
 45 47  1  0  0  0  0
 45 48  1  0  0  0  0
 46 50  1  0  0  0  0
 47 52  1  0  0  0  0
 48 68  1  0  0  0  0
 49 52  1  0  0  0  0
 49 68  1  0  0  0  0
 50 72  1  0  0  0  0
 51 67  1  0  0  0  0
 52 66  1  0  0  0  0
 54 63  1  0  0  0  0
 55 64  1  0  0  0  0
 56 64  1  0  0  0  0
 57 64  1  0  0  0  0
 58 74  1  0  0  0  0
 59 60  1  0  0  0  0
 60 61  1  0  0  0  0
 61 81  1  0  0  0  0
 62 64  1  0  0  0  0
 62 73  1  0  0  0  0
 63 74  1  0  0  0  0
 65 66  1  0  0  0  0
M  CHG  1  74   1
M  ISO  4  40 100  61 101  71 100  81 101
M  END
> <Batch ID>
0121

> <Smiles>
CNC(C)C(=O)NC(C(=O)N1Cc2cc([101O:1][101CH2:1]CCC=Cc3cc(C)cc([100NH:0][100C:0](=O)N4CCCC(n5nc(-c6ccc(Oc7ccc(F)cc7F)cc6)c(C(N)=O)c5N)C4)c3)ccc2CC1C(=O)NC1CCCc2ccccc21)C(C)(C)C

> <Shape>
0.149

> <Color>
0.190

> <Negative vol penalty>
0.000

$$$$

  -OEChem-04052301573D

 87 95  0     1  0  0  0  0  0999 V2000
  -28.9714  -19.1558   15.1506 C   0  0  0  0  0  0  0  0  0  0  0  0
  -29.3938  -18.3044   16.1665 C   0  0  0  0  0  0  0  0  0  0  0  0
  -23.0194  -28.6019   21.8497 C   0  0  0  0  0  0  0  0  0  0  0  0
  -25.1276  -28.4324   23.0175 C   0  0  0  0  0  0  0  0  0  0  0  0
  -28.8286  -17.3205   22.8717 C   0  0  0  0  0  0  0  0  0  0  0  0
  -27.7184  -19.7624   15.2269 C   0  0  0  0  0  0  0  0  0  0  0  0
  -28.5638  -18.0600   17.2600 C   0  0  0  0  0  0  0  0  0  0  0  0
  -28.3756  -13.1530   18.4976 C   0  0  0  0  0  0  0  0  0  0  0  0
  -27.6849  -18.1188   22.8850 C   0  0  0  0  0  0  0  0  0  0  0  0
  -22.8412  -29.8885   22.3581 C   0  0  0  0  0  0  0  0  0  0  0  0
  -24.9494  -29.7190   23.5259 C   0  0  0  0  0  0  0  0  0  0  0  0
  -29.4556  -12.6343   19.2106 C   0  0  0  0  0  0  0  0  0  0  0  0
  -25.2996  -32.8977   22.4333 C   0  0  0  0  0  0  0  0  0  0  0  0
  -26.3913  -33.7650   22.3949 C   0  0  0  0  0  0  0  0  0  0  0  0
  -29.7864  -18.7213   21.1520 C   0  0  0  0  0  0  0  0  0  0  0  0
  -28.1870  -12.8182   21.2541 C   0  0  0  0  0  0  0  0  0  0  0  0
  -26.3165  -33.9655   24.8015 C   0  0  0  0  0  0  0  0  0  0  0  0
  -24.1626  -27.8738   22.1794 C   0  0  0  0  0  0  0  0  0  0  0  0
  -29.8794  -17.6218   22.0052 C   0  0  0  0  0  0  0  0  0  0  0  0
  -28.6426  -19.5196   21.1652 C   0  0  0  0  0  0  0  0  0  0  0  0
  -24.9845  -26.1859   20.4523 C   0  0  0  0  0  0  0  0  0  0  0  0
  -26.8686  -19.5177   16.3172 C   0  0  0  0  0  0  0  0  0  0  0  0
  -27.1951  -13.5190   19.1601 C   0  0  0  0  0  0  0  0  0  0  0  0
  -27.2988  -18.6649   17.3517 C   0  0  0  0  0  0  0  0  0  0  0  0
  -27.0926  -13.3389   20.5469 C   0  0  0  0  0  0  0  0  0  0  0  0
  -27.5919  -19.2183   22.0318 C   0  0  0  0  0  0  0  0  0  0  0  0
  -23.8062  -30.4471   23.1961 C   0  0  0  0  0  0  0  0  0  0  0  0
  -29.3625  -12.4695   20.5894 C   0  0  0  0  0  0  0  0  0  0  0  0
  -24.7162  -32.5644   23.6557 C   0  0  0  0  0  0  0  0  0  0  0  0
  -26.8998  -34.2989   23.5790 C   0  0  0  0  0  0  0  0  0  0  0  0
  -25.2247  -33.0983   24.8398 C   0  0  0  0  0  0  0  0  0  0  0  0
  -24.3469  -26.5445   21.6550 C   0  0  0  0  0  0  0  0  0  0  0  0
  -24.8973  -24.8158   20.4126 C   0  0  0  0  0  0  0  0  0  0  0  0
  -31.0871  -16.7780   21.9913 C   0  0  0  0  0  0  0  0  0  0  0  0
  -31.1410  -15.5224   22.4576 C   0  0  0  0  0  0  0  0  0  0  0  0
  -28.5763  -20.6618   20.2614 C   0  0  0  0  0  0  0  0  0  0  0  0
  -25.6007  -27.0171   19.4597 C   0  0  0  0  0  0  0  0  0  0  0  0
  -32.4185  -14.7517   22.4071 C   0  0  0  0  0  0  0  0  0  0  0  0
  -25.5940  -16.2365   19.5539 C   0  0  0  0  0  0  0  0  0  0  0  0
  -23.4121  -14.2928   20.9622 C   0  0  0  0  0  0  0  0  0  0  0  0
  -22.7609  -11.3541   22.5707 C   0  0  0  0  0  0  0  0  0  0  0  0
  -25.2985  -19.8362   22.8714 C   0  0  0  0  0  0  0  0  0  0  0  0
  -25.5424  -20.2333   16.3789 C   0  0  0  0  0  0  0  0  0  0  0  0
  -26.0296  -14.0521   18.3730 C   0  0  0  0  0  0  0  0  0  0  0  0
  -25.8400  -13.6973   21.3026 C   0  0  0  0  0  0  0  0  0  0  0  0
  -24.5701  -19.6281   17.3881 C   0  0  0  0  0  0  0  0  0  0  0  0
  -22.2321  -21.6006   23.2728 C   0  0  0  0  0  0  0  0  0  0  0  0
  -25.2741  -19.3632   18.7151 C   0  0  0  0  0  0  0  0  0  0  0  0
  -22.5614  -23.0146   22.7888 C   0  0  0  0  0  0  0  0  0  0  0  0
  -23.4065  -20.9683   24.0176 C   0  0  0  0  0  0  0  0  0  0  0  0
  -25.0105  -22.3912   22.8046 C   0  0  0  0  0  0  0  0  0  0  0  0
  -26.4168  -18.3554   18.5418 C   0  0  1  0  0  0  0  0  0  0  0  0
  -25.0612  -14.8718   19.2202 C   0  0  1  0  0  0  0  0  0  0  0  0
  -23.8805  -23.0447   21.9922 C   0  0  2  0  0  0  0  0  0  0  0  0
  -29.8687  -21.3299   19.8982 C   0  0  0  0  0  0  0  0  0  0  0  0
  -20.8902  -10.0629   23.6338 C   0  0  0  0  0  0  0  0  0  0  0  0
  -23.5243  -16.1352   23.3918 C   0  0  0  0  0  0  0  0  0  0  0  0
  -22.4157  -14.3294   24.7253 C   0  0  0  0  0  0  0  0  0  0  0  0
  -21.2292  -15.3503   22.7830 C   0  0  0  0  0  0  0  0  0  0  0  0
  -23.0793   -9.1057   20.6728 C   0  0  0  0  0  0  0  0  0  0  0  0
  -32.3565  -13.3392   22.9649 C   0  0  0  0  0  0  0  0  0  0  0  0
  -32.7058  -12.2671   21.9363 C   0  0  0  0  0  0  0  0  0  0  0  0
  -31.7208  -12.2247   20.7739 C   0  0  0  0  0  0  0  0  0  1  0  0
  -23.1757  -13.7915   22.3664 C   0  0  1  0  0  0  0  0  0  0  0  0
  -21.6821  -10.3074   22.3587 C   0  0  2  0  0  0  0  0  0  0  0  0
  -22.6107  -14.8966   23.3029 C   0  0  0  0  0  0  0  0  0  0  0  0
  -23.8883  -25.4874   22.3305 N   0  0  0  0  0  0  0  0  0  0  0  0
  -24.2381  -24.4512   21.5495 N   0  0  0  0  0  0  0  0  0  0  0  0
  -24.7300  -14.2207   20.4893 N   0  0  0  0  0  0  0  0  0  0  0  0
  -24.6204  -21.0290   23.2005 N   0  0  0  0  0  0  0  0  0  0  0  0
  -25.3209  -23.8994   19.5164 N   0  0  0  0  0  0  0  0  0  0  0  0
  -25.6020  -28.4046   19.6573 N   0  0  0  0  0  0  0  0  0  0  0  0
  -26.4207  -20.0152   22.0631 N   0  0  0  0  0  0  0  0  0  0  0  0
  -25.8936  -17.0093   18.4482 N   0  0  0  0  0  0  0  0  0  0  0  0
  -22.3181  -12.6179   22.2419 N   0  0  0  0  0  0  0  0  0  0  0  0
  -22.2901   -9.0167   21.9283 N   0  3  0  0  0  0  0  0  0  0  0  0
  -27.5395  -21.1184   19.7807 O   0  0  0  0  0  0  0  0  0  0  0  0
  -26.1199  -26.5445   18.4201 O   0  0  0  0  0  0  0  0  0  0  0  0
  -33.4548  -15.2463   21.9710 O   0  0  0  0  0  0  0  0  0  0  0  0
  -25.7223  -16.5647   20.7276 O   0  0  0  0  0  0  0  0  0  0  0  0
  -22.4611  -14.7256   20.3065 O   0  0  0  0  0  0  0  0  0  0  0  0
  -23.8830  -11.0788   22.9898 O   0  0  0  0  0  0  0  0  0  0  0  0
  -24.8967  -18.7344   23.2543 O   0  0  0  0  0  0  0  0  0  0  0  0
  -23.6328  -31.7027   23.6922 O   0  0  0  0  0  0  0  0  0  0  0  0
  -30.4154  -11.9641   21.2878 O   0  0  0  0  0  0  0  0  0  1  0  0
  -27.9492  -35.1305   23.5422 F   0  0  0  0  0  0  0  0  0  0  0  0
  -24.6693  -32.7808   26.0173 F   0  0  0  0  0  0  0  0  0  0  0  0
  1  2  1  0  0  0  0
  1  6  2  0  0  0  0
  2  7  2  0  0  0  0
  3 10  2  0  0  0  0
  3 18  1  0  0  0  0
  4 11  1  0  0  0  0
  4 18  2  0  0  0  0
  5  9  2  0  0  0  0
  5 19  1  0  0  0  0
  6 22  1  0  0  0  0
  7 24  1  0  0  0  0
  8 12  2  0  0  0  0
  8 23  1  0  0  0  0
  9 26  1  0  0  0  0
 10 27  1  0  0  0  0
 11 27  2  0  0  0  0
 12 28  1  0  0  0  0
 13 14  2  0  0  0  0
 13 29  1  0  0  0  0
 14 30  1  0  0  0  0
 15 19  2  0  0  0  0
 15 20  1  0  0  0  0
 16 25  1  0  0  0  0
 16 28  2  0  0  0  0
 17 30  2  0  0  0  0
 17 31  1  0  0  0  0
 18 32  1  0  0  0  0
 19 34  1  0  0  0  0
 20 26  2  0  0  0  0
 20 36  1  0  0  0  0
 21 32  1  0  0  0  0
 21 33  2  0  0  0  0
 21 37  1  0  0  0  0
 22 24  2  0  0  0  0
 22 43  1  0  0  0  0
 23 25  2  0  0  0  0
 23 44  1  0  0  0  0
 24 52  1  0  0  0  0
 25 45  1  0  0  0  0
 26 73  1  0  0  0  0
 27 84  1  0  0  0  0
 28 85  1  0  0  0  0
 29 31  2  0  0  0  0
 29 84  1  0  0  0  0
 30 86  1  0  0  0  0
 31 87  1  0  0  0  0
 32 67  2  0  0  0  0
 33 68  1  0  0  0  0
 33 71  1  0  0  0  0
 34 35  2  0  0  0  0
 35 38  1  0  0  0  0
 36 55  1  0  0  0  0
 36 77  2  0  0  0  0
 37 72  1  0  0  0  0
 37 78  2  0  0  0  0
 38 61  1  0  0  0  0
 38 79  2  0  0  0  0
 39 53  1  0  0  0  0
 39 74  1  0  0  0  0
 39 80  2  0  0  0  0
 40 64  1  0  0  0  0
 40 69  1  0  0  0  0
 40 81  2  0  0  0  0
 41 65  1  0  0  0  0
 41 75  1  0  0  0  0
 41 82  2  0  0  0  0
 42 70  1  0  0  0  0
 42 73  1  0  0  0  0
 42 83  2  0  0  0  0
 43 46  1  0  0  0  0
 44 53  1  0  0  0  0
 45 69  1  0  0  0  0
 46 48  1  0  0  0  0
 47 49  1  0  0  0  0
 47 50  1  0  0  0  0
 48 52  1  0  0  0  0
 49 54  1  0  0  0  0
 50 70  1  0  0  0  0
 51 54  1  0  0  0  0
 51 70  1  0  0  0  0
 52 74  1  0  0  0  0
 53 69  1  0  0  0  0
 54 68  1  0  0  0  0
 56 65  1  0  0  0  0
 57 66  1  0  0  0  0
 58 66  1  0  0  0  0
 59 66  1  0  0  0  0
 60 76  1  0  0  0  0
 61 62  1  0  0  0  0
 62 63  1  0  0  0  0
 63 85  1  0  0  0  0
 64 66  1  0  0  0  0
 64 75  1  0  0  0  0
 65 76  1  0  0  0  0
 67 68  1  0  0  0  0
M  CHG  1  76   1
M  ISO  4  42 100  63 101  73 100  85 101
M  END
> <Batch ID>
0121

> <Smiles>
CNC(C)C(=O)NC(C(=O)N1Cc2cc([101O:1][101CH2:1]CCC(=O)C=Cc3ccc([100NH:0][100C:0](=O)N4CCCC(n5nc(-c6ccc(Oc7ccc(F)cc7F)cc6)c(C(N)=O)c5N)C4)c(C(C)=O)c3)ccc2CC1C(=O)NC1CCCc2ccccc21)C(C)(C)C

> <Shape>
0.231

> <Color>
0.061

> <Negative vol penalty>
0.000

$$$$

  -OEChem-04052301573D

 84 92  0     1  0  0  0  0  0999 V2000
  -29.3172  -11.6531   19.2875 C   0  0  0  0  0  0  0  0  0  0  0  0
  -29.2819  -13.0326   19.1110 C   0  0  0  0  0  0  0  0  0  0  0  0
  -20.1095  -28.2360   23.4601 C   0  0  0  0  0  0  0  0  0  0  0  0
  -21.3843  -26.6058   22.2134 C   0  0  0  0  0  0  0  0  0  0  0  0
  -29.1490  -25.9671   20.1119 C   0  0  0  0  0  0  0  0  0  0  0  0
  -28.1675  -10.9729   19.6867 C   0  0  0  0  0  0  0  0  0  0  0  0
  -28.0964  -13.7326   19.3326 C   0  0  0  0  0  0  0  0  0  0  0  0
  -28.8155  -17.9749   22.0030 C   0  0  0  0  0  0  0  0  0  0  0  0
  -29.1369  -27.2997   20.5237 C   0  0  0  0  0  0  0  0  0  0  0  0
  -18.9381  -27.7854   22.8516 C   0  0  0  0  0  0  0  0  0  0  0  0
  -20.2129  -26.1551   21.6049 C   0  0  0  0  0  0  0  0  0  0  0  0
  -29.3302  -19.0768   21.3214 C   0  0  0  0  0  0  0  0  0  0  0  0
  -17.5117  -24.3334   19.9915 C   0  0  0  0  0  0  0  0  0  0  0  0
  -17.3162  -22.9553   19.9002 C   0  0  0  0  0  0  0  0  0  0  0  0
  -27.1086  -20.0010   21.1501 C   0  0  0  0  0  0  0  0  0  0  0  0
  -29.2468  -28.0131   18.2180 C   0  0  0  0  0  0  0  0  0  0  0  0
  -17.4042  -22.7833   22.3085 C   0  0  0  0  0  0  0  0  0  0  0  0
  -21.3326  -27.6463   23.1410 C   0  0  0  0  0  0  0  0  0  0  0  0
  -29.2101  -25.6574   18.7532 C   0  0  0  0  0  0  0  0  0  0  0  0
  -23.1144  -27.6420   24.9667 C   0  0  0  0  0  0  0  0  0  0  0  0
  -26.9698  -11.6662   19.9227 C   0  0  0  0  0  0  0  0  0  0  0  0
  -27.4397  -17.8724   22.2542 C   0  0  0  0  0  0  0  0  0  0  0  0
  -26.9292  -13.0609   19.7341 C   0  0  0  0  0  0  0  0  0  0  0  0
  -26.5793  -18.8980   21.8373 C   0  0  0  0  0  0  0  0  0  0  0  0
  -29.1858  -28.3227   19.5767 C   0  0  0  0  0  0  0  0  0  0  0  0
  -29.2590  -26.6804   17.8063 C   0  0  0  0  0  0  0  0  0  0  0  0
  -18.9897  -26.7449   21.9240 C   0  0  0  0  0  0  0  0  0  0  0  0
  -28.4764  -20.0887   20.8922 C   0  0  0  0  0  0  0  0  0  0  0  0
  -17.6535  -24.9364   21.2413 C   0  0  0  0  0  0  0  0  0  0  0  0
  -17.2624  -22.1803   21.0587 C   0  0  0  0  0  0  0  0  0  0  0  0
  -17.5998  -24.1614   22.3997 C   0  0  0  0  0  0  0  0  0  0  0  0
  -22.5431  -28.1117   23.7688 C   0  0  0  0  0  0  0  0  0  0  0  0
  -24.2466  -28.4025   25.1284 C   0  0  0  0  0  0  0  0  0  0  0  0
  -29.2216  -24.2411   18.3509 C   0  0  0  0  0  0  0  0  0  0  0  0
  -30.1626  -23.3477   18.6942 C   0  0  0  0  0  0  0  0  0  0  0  0
  -22.6620  -26.6105   25.8538 C   0  0  0  0  0  0  0  0  0  0  0  0
  -25.1529  -15.8292   21.4175 C   0  0  0  0  0  0  0  0  0  0  0  0
  -23.3574  -17.6116   23.4476 C   0  0  0  0  0  0  0  0  0  0  0  0
  -22.8707  -20.5995   25.0232 C   0  0  0  0  0  0  0  0  0  0  0  0
  -27.7618  -31.3514   21.2815 C   0  0  0  0  0  0  0  0  0  0  0  0
  -25.7405  -10.8815   20.3073 C   0  0  0  0  0  0  0  0  0  0  0  0
  -26.9037  -16.6902   23.0142 C   0  0  0  0  0  0  0  0  0  0  0  0
  -25.0971  -18.8455   22.0999 C   0  0  0  0  0  0  0  0  0  0  0  0
  -24.6221  -11.7457   20.8840 C   0  0  0  0  0  0  0  0  0  0  0  0
  -26.0427  -32.7128   24.0865 C   0  0  0  0  0  0  0  0  0  0  0  0
  -24.4080  -12.9864   20.0228 C   0  0  0  0  0  0  0  0  0  0  0  0
  -25.0024  -31.6456   24.4312 C   0  0  0  0  0  0  0  0  0  0  0  0
  -26.2543  -32.8284   22.5786 C   0  0  0  0  0  0  0  0  0  0  0  0
  -25.5410  -30.4931   22.2448 C   0  0  0  0  0  0  0  0  0  0  0  0
  -25.6687  -13.8586   19.9887 C   0  0  1  0  0  0  0  0  0  0  0  0
  -25.4195  -16.4417   22.7634 C   0  0  1  0  0  0  0  0  0  0  0  0
  -25.3341  -30.3008   23.7569 C   0  0  2  0  0  0  0  0  0  0  0  0
  -27.9816  -26.5911   15.6506 C   0  0  0  0  0  0  0  0  0  0  0  0
  -21.2961  -21.7667   26.5903 C   0  0  0  0  0  0  0  0  0  0  0  0
  -21.3527  -17.9559   21.1731 C   0  0  0  0  0  0  0  0  0  0  0  0
  -20.3321  -19.8505   22.4526 C   0  0  0  0  0  0  0  0  0  0  0  0
  -20.3253  -17.5498   23.4168 C   0  0  0  0  0  0  0  0  0  0  0  0
  -24.9951  -21.0001   27.0445 C   0  0  0  0  0  0  0  0  0  0  0  0
  -29.3254  -26.3859   16.3421 C   0  0  0  0  0  0  0  0  0  0  0  0
  -29.1712  -29.7477   20.0164 C   0  0  0  0  0  0  0  0  0  0  0  0
  -30.1421  -21.9107   18.2498 C   0  0  0  0  0  0  0  0  0  0  0  0
  -30.1460  -20.9543   19.4366 C   0  0  0  0  0  0  0  0  0  1  0  0
  -22.4950  -18.8433   23.3118 C   0  0  1  0  0  0  0  0  0  0  0  0
  -22.5648  -20.9366   26.4714 C   0  0  2  0  0  0  0  0  0  0  0  0
  -21.1539  -18.5502   22.5818 C   0  0  0  0  0  0  0  0  0  0  0  0
  -23.2538  -29.0946   23.2093 N   0  0  0  0  0  0  0  0  0  0  0  0
  -24.2831  -29.2487   24.0595 N   0  0  0  0  0  0  0  0  0  0  0  0
  -24.6203  -17.6662   22.8412 N   0  0  0  0  0  0  0  0  0  0  0  0
  -26.5669  -31.5191   22.0007 N   0  0  0  0  0  0  0  0  0  0  0  0
  -25.2045  -28.4232   26.0794 N   0  0  0  0  0  0  0  0  0  0  0  0
  -21.4791  -25.9285   25.5374 N   0  0  0  0  0  0  0  0  0  0  0  0
  -25.7898  -14.6200   21.2135 N   0  0  0  0  0  0  0  0  0  0  0  0
  -22.3371  -19.3815   24.6585 N   0  0  0  0  0  0  0  0  0  0  0  0
  -27.9839  -30.0776   20.7729 N   0  0  0  0  0  0  0  0  0  0  0  0
  -23.6893  -21.7080   27.0723 N   0  3  0  0  0  0  0  0  0  0  0  0
  -23.2794  -26.3138   26.9046 O   0  0  0  0  0  0  0  0  0  0  0  0
  -24.4223  -16.4100   20.6234 O   0  0  0  0  0  0  0  0  0  0  0  0
  -22.9290  -16.6397   24.0749 O   0  0  0  0  0  0  0  0  0  0  0  0
  -23.5152  -21.3441   24.2878 O   0  0  0  0  0  0  0  0  0  0  0  0
  -28.5732  -32.2675   21.1103 O   0  0  0  0  0  0  0  0  0  0  0  0
  -17.8468  -26.3048   21.3303 O   0  0  0  0  0  0  0  0  0  0  0  0
  -28.9761  -21.1650   20.2261 O   0  0  0  0  0  0  0  0  0  1  0  0
  -17.0731  -20.8572   20.9709 F   0  0  0  0  0  0  0  0  0  0  0  0
  -17.7342  -24.7352   23.6033 F   0  0  0  0  0  0  0  0  0  0  0  0
  1  2  1  0  0  0  0
  1  6  2  0  0  0  0
  2  7  2  0  0  0  0
  3 10  2  0  0  0  0
  3 18  1  0  0  0  0
  4 11  1  0  0  0  0
  4 18  2  0  0  0  0
  5  9  2  0  0  0  0
  5 19  1  0  0  0  0
  6 21  1  0  0  0  0
  7 23  1  0  0  0  0
  8 12  2  0  0  0  0
  8 22  1  0  0  0  0
  9 25  1  0  0  0  0
 10 27  1  0  0  0  0
 11 27  2  0  0  0  0
 12 28  1  0  0  0  0
 13 14  2  0  0  0  0
 13 29  1  0  0  0  0
 14 30  1  0  0  0  0
 15 24  1  0  0  0  0
 15 28  2  0  0  0  0
 16 25  2  0  0  0  0
 16 26  1  0  0  0  0
 17 30  2  0  0  0  0
 17 31  1  0  0  0  0
 18 32  1  0  0  0  0
 19 26  2  0  0  0  0
 19 34  1  0  0  0  0
 20 32  1  0  0  0  0
 20 33  2  0  0  0  0
 20 36  1  0  0  0  0
 21 23  2  0  0  0  0
 21 41  1  0  0  0  0
 22 24  2  0  0  0  0
 22 42  1  0  0  0  0
 23 50  1  0  0  0  0
 24 43  1  0  0  0  0
 25 60  1  0  0  0  0
 26 59  1  0  0  0  0
 27 81  1  0  0  0  0
 28 82  1  0  0  0  0
 29 31  2  0  0  0  0
 29 81  1  0  0  0  0
 30 83  1  0  0  0  0
 31 84  1  0  0  0  0
 32 66  2  0  0  0  0
 33 67  1  0  0  0  0
 33 70  1  0  0  0  0
 34 35  2  0  0  0  0
 35 61  1  0  0  0  0
 36 71  1  0  0  0  0
 36 76  2  0  0  0  0
 37 51  1  0  0  0  0
 37 72  1  0  0  0  0
 37 77  2  0  0  0  0
 38 63  1  0  0  0  0
 38 68  1  0  0  0  0
 38 78  2  0  0  0  0
 39 64  1  0  0  0  0
 39 73  1  0  0  0  0
 39 79  2  0  0  0  0
 40 69  1  0  0  0  0
 40 74  1  0  0  0  0
 40 80  2  0  0  0  0
 41 44  1  0  0  0  0
 42 51  1  0  0  0  0
 43 68  1  0  0  0  0
 44 46  1  0  0  0  0
 45 47  1  0  0  0  0
 45 48  1  0  0  0  0
 46 50  1  0  0  0  0
 47 52  1  0  0  0  0
 48 69  1  0  0  0  0
 49 52  1  0  0  0  0
 49 69  1  0  0  0  0
 50 72  1  0  0  0  0
 51 68  1  0  0  0  0
 52 67  1  0  0  0  0
 53 59  1  0  0  0  0
 54 64  1  0  0  0  0
 55 65  1  0  0  0  0
 56 65  1  0  0  0  0
 57 65  1  0  0  0  0
 58 75  1  0  0  0  0
 60 74  1  0  0  0  0
 61 62  1  0  0  0  0
 62 82  1  0  0  0  0
 63 65  1  0  0  0  0
 63 73  1  0  0  0  0
 64 75  1  0  0  0  0
 66 67  1  0  0  0  0
M  CHG  1  75   1
M  ISO  4  40 100  62 101  74 100  82 101
M  END
> <Batch ID>
0121

> <Smiles>
CCc1cc(C[100NH:0][100C:0](=O)N2CCCC(n3nc(-c4ccc(Oc5ccc(F)cc5F)cc4)c(C(N)=O)c3N)C2)ccc1C=CC[101CH2:1][101O:1]c1ccc2c(c1)CN(C(=O)C(NC(=O)C(C)NC)C(C)(C)C)C(C(=O)NC1CCCc3ccccc31)C2

> <Shape>
0.233

> <Color>
0.060

> <Negative vol penalty>
0.000

$$$$

  -OEChem-04052301573D

 87 95  0     1  0  0  0  0  0999 V2000
  -30.6251  -34.3701   24.8659 C   0  0  0  0  0  0  0  0  0  0  0  0
  -30.5301  -33.1923   24.1317 C   0  0  0  0  0  0  0  0  0  0  0  0
  -23.1028   -9.4509   20.7711 C   0  0  0  0  0  0  0  0  0  0  0  0
  -22.7315  -11.7321   21.4750 C   0  0  0  0  0  0  0  0  0  0  0  0
  -29.3348  -17.2612   20.1977 C   0  0  0  0  0  0  0  0  0  0  0  0
  -29.5541  -34.7862   25.6558 C   0  0  0  0  0  0  0  0  0  0  0  0
  -29.3644  -32.4292   24.1877 C   0  0  0  0  0  0  0  0  0  0  0  0
  -26.8784  -29.1658   19.6407 C   0  0  0  0  0  0  0  0  0  0  0  0
  -22.0229   -9.0349   21.5496 C   0  0  0  0  0  0  0  0  0  0  0  0
  -21.6515  -11.3160   22.2536 C   0  0  0  0  0  0  0  0  0  0  0  0
  -29.2880  -18.6308   20.4574 C   0  0  0  0  0  0  0  0  0  0  0  0
  -26.9294  -27.8092   19.3231 C   0  0  0  0  0  0  0  0  0  0  0  0
  -19.5856   -7.3219   23.6351 C   0  0  0  0  0  0  0  0  0  0  0  0
  -19.7518   -6.1815   24.4207 C   0  0  0  0  0  0  0  0  0  0  0  0
  -24.8343  -27.4683   20.4692 C   0  0  0  0  0  0  0  0  0  0  0  0
  -21.5668   -7.2571   25.5981 C   0  0  0  0  0  0  0  0  0  0  0  0
  -23.4572  -10.7995   20.7338 C   0  0  0  0  0  0  0  0  0  0  0  0
  -29.9478  -16.7922   19.0358 C   0  0  0  0  0  0  0  0  0  0  0  0
  -30.4672  -19.0625   18.3934 C   0  0  0  0  0  0  0  0  0  0  0  0
  -24.5428  -11.6406   18.5840 C   0  0  0  0  0  0  0  0  0  0  0  0
  -28.3711  -34.0328   25.7140 C   0  0  0  0  0  0  0  0  0  0  0  0
  -25.8086  -29.6827   20.3855 C   0  0  0  0  0  0  0  0  0  0  0  0
  -28.2771  -32.8349   24.9801 C   0  0  0  0  0  0  0  0  0  0  0  0
  -24.7708  -28.8323   20.7927 C   0  0  0  0  0  0  0  0  0  0  0  0
  -30.5140  -17.6929   18.1337 C   0  0  0  0  0  0  0  0  0  0  0  0
  -21.2972   -9.9674   22.2909 C   0  0  0  0  0  0  0  0  0  0  0  0
  -25.9087  -26.9597   19.7398 C   0  0  0  0  0  0  0  0  0  0  0  0
  -29.8542  -19.5315   19.5553 C   0  0  0  0  0  0  0  0  0  0  0  0
  -20.4100   -8.4300   23.8308 C   0  0  0  0  0  0  0  0  0  0  0  0
  -20.7424   -6.1490   25.4023 C   0  0  0  0  0  0  0  0  0  0  0  0
  -21.4005   -8.3975   24.8124 C   0  0  0  0  0  0  0  0  0  0  0  0
  -24.5730  -11.2299   19.9302 C   0  0  0  0  0  0  0  0  0  0  0  0
  -25.8491  -11.9453   18.2886 C   0  0  0  0  0  0  0  0  0  0  0  0
  -32.3207  -20.3955   17.4972 C   0  0  0  0  0  0  0  0  0  0  0  0
  -31.0549  -20.0130   17.4540 C   0  0  0  0  0  0  0  0  0  0  0  0
  -29.9806  -15.3557   18.7943 C   0  0  0  0  0  0  0  0  0  0  0  0
  -23.4332  -11.7381   17.6813 C   0  0  0  0  0  0  0  0  0  0  0  0
  -30.6448  -14.4314   19.7418 C   0  0  0  0  0  0  0  0  0  0  0  0
  -25.5268  -31.1183   23.2075 C   0  0  0  0  0  0  0  0  0  0  0  0
  -22.4382  -31.4726   22.2815 C   0  0  0  0  0  0  0  0  0  0  0  0
  -19.8509  -30.3784   20.3437 C   0  0  0  0  0  0  0  0  0  0  0  0
  -27.2578  -34.4982   26.6188 C   0  0  0  0  0  0  0  0  0  0  0  0
  -25.7549  -31.1533   20.6970 C   0  0  0  0  0  0  0  0  0  0  0  0
  -23.5901  -29.3412   21.5772 C   0  0  0  0  0  0  0  0  0  0  0  0
  -25.9175  -33.8269   26.3304 C   0  0  0  0  0  0  0  0  0  0  0  0
  -30.1085  -11.0653   20.8546 C   0  0  0  0  0  0  0  0  0  0  0  0
  -26.0975  -32.3200   26.1760 C   0  0  0  0  0  0  0  0  0  0  0  0
  -28.6099  -10.8565   20.6386 C   0  0  0  0  0  0  0  0  0  0  0  0
  -30.4194  -12.5030   21.2580 C   0  0  0  0  0  0  0  0  0  0  0  0
  -28.3971  -13.3195   20.0781 C   0  0  0  0  0  0  0  0  0  0  0  0
  -27.0198  -31.9927   24.9955 C   0  0  1  0  0  0  0  0  0  0  0  0
  -24.8765  -31.4773   21.9014 C   0  0  1  0  0  0  0  0  0  0  0  0
  -28.0470  -11.8859   19.6424 C   0  0  2  0  0  0  0  0  0  0  0  0
  -30.2882  -17.3645   15.6583 C   0  0  0  0  0  0  0  0  0  0  0  0
  -17.4387  -30.8443   19.8320 C   0  0  0  0  0  0  0  0  0  0  0  0
  -21.6290  -30.1635   24.9162 C   0  0  0  0  0  0  0  0  0  0  0  0
  -19.3481  -29.7948   23.9520 C   0  0  0  0  0  0  0  0  0  0  0  0
  -20.2167  -32.1149   24.2438 C   0  0  0  0  0  0  0  0  0  0  0  0
  -20.4440  -30.9504   17.5012 C   0  0  0  0  0  0  0  0  0  0  0  0
  -31.1681  -17.1771   16.8882 C   0  0  0  0  0  0  0  0  0  0  0  0
  -27.1837  -23.5693   19.6699 C   0  0  0  0  0  0  0  0  0  0  0  0
  -28.5502  -22.9016   19.5624 C   0  0  0  0  0  0  0  0  0  0  0  0
  -27.2489  -25.0451   19.2996 C   0  0  0  0  0  0  0  0  0  1  0  0
  -28.4942  -21.4371   19.9736 C   0  0  0  0  0  0  0  0  0  0  0  0
  -21.1793  -30.6511   22.4210 C   0  0  1  0  0  0  0  0  0  0  0  0
  -18.8822  -31.1229   19.4427 C   0  0  2  0  0  0  0  0  0  0  0  0
  -20.6164  -30.6708   23.8701 C   0  0  0  0  0  0  0  0  0  0  0  0
  -25.8012  -11.2688   20.4537 N   0  0  0  0  0  0  0  0  0  0  0  0
  -29.4370  -14.7948   17.7498 N   0  0  0  0  0  0  0  0  0  0  0  0
  -26.5549  -11.7074   19.4311 N   0  0  0  0  0  0  0  0  0  0  0  0
  -29.8404  -13.4545   20.3118 N   0  0  0  0  0  0  0  0  0  0  0  0
  -23.5864  -30.7856   21.8624 N   0  0  0  0  0  0  0  0  0  0  0  0
  -26.4514  -12.3907   17.1655 N   0  0  0  0  0  0  0  0  0  0  0  0
  -22.1593  -11.3860   18.1479 N   0  0  0  0  0  0  0  0  0  0  0  0
  -26.3055  -32.1259   23.7439 N   0  0  0  0  0  0  0  0  0  0  0  0
  -20.2514  -31.1518   21.4126 N   0  0  0  0  0  0  0  0  0  0  0  0
  -19.0740  -30.7111   18.0234 N   0  3  0  0  0  0  0  0  0  0  0  0
  -23.5698  -12.1103   16.4912 O   0  0  0  0  0  0  0  0  0  0  0  0
  -31.8391  -14.6296   19.9222 O   0  0  0  0  0  0  0  0  0  0  0  0
  -25.3350  -30.0097   23.6934 O   0  0  0  0  0  0  0  0  0  0  0  0
  -22.4024  -32.6807   22.5281 O   0  0  0  0  0  0  0  0  0  0  0  0
  -20.2129  -29.2247   20.1234 O   0  0  0  0  0  0  0  0  0  0  0  0
  -20.2432   -9.5618   23.0505 O   0  0  0  0  0  0  0  0  0  0  0  0
  -25.9564  -25.6351   19.4317 O   0  0  0  0  0  0  0  0  0  1  0  0
  -29.7905  -20.8714   19.8372 O   0  0  0  0  0  0  0  0  0  0  0  0
  -20.9008   -5.0543   26.1577 F   0  0  0  0  0  0  0  0  0  0  0  0
  -22.1948   -9.4594   25.0059 F   0  0  0  0  0  0  0  0  0  0  0  0
  1  2  1  0  0  0  0
  1  6  2  0  0  0  0
  2  7  2  0  0  0  0
  3  9  2  0  0  0  0
  3 17  1  0  0  0  0
  4 10  1  0  0  0  0
  4 17  2  0  0  0  0
  5 11  1  0  0  0  0
  5 18  2  0  0  0  0
  6 21  1  0  0  0  0
  7 23  1  0  0  0  0
  8 12  2  0  0  0  0
  8 22  1  0  0  0  0
  9 26  1  0  0  0  0
 10 26  2  0  0  0  0
 11 28  2  0  0  0  0
 12 27  1  0  0  0  0
 13 14  2  0  0  0  0
 13 29  1  0  0  0  0
 14 30  1  0  0  0  0
 15 24  1  0  0  0  0
 15 27  2  0  0  0  0
 16 30  2  0  0  0  0
 16 31  1  0  0  0  0
 17 32  1  0  0  0  0
 18 25  1  0  0  0  0
 18 36  1  0  0  0  0
 19 25  2  0  0  0  0
 19 28  1  0  0  0  0
 19 35  1  0  0  0  0
 20 32  1  0  0  0  0
 20 33  2  0  0  0  0
 20 37  1  0  0  0  0
 21 23  2  0  0  0  0
 21 42  1  0  0  0  0
 22 24  2  0  0  0  0
 22 43  1  0  0  0  0
 23 51  1  0  0  0  0
 24 44  1  0  0  0  0
 25 60  1  0  0  0  0
 26 83  1  0  0  0  0
 27 84  1  0  0  0  0
 28 85  1  0  0  0  0
 29 31  2  0  0  0  0
 29 83  1  0  0  0  0
 30 86  1  0  0  0  0
 31 87  1  0  0  0  0
 32 68  2  0  0  0  0
 33 70  1  0  0  0  0
 33 73  1  0  0  0  0
 34 35  2  0  0  0  0
 36 38  1  0  0  0  0
 36 69  2  0  0  0  0
 37 74  1  0  0  0  0
 37 78  2  0  0  0  0
 38 71  1  0  0  0  0
 38 79  2  0  0  0  0
 39 52  1  0  0  0  0
 39 75  1  0  0  0  0
 39 80  2  0  0  0  0
 40 65  1  0  0  0  0
 40 72  1  0  0  0  0
 40 81  2  0  0  0  0
 41 66  1  0  0  0  0
 41 76  1  0  0  0  0
 41 82  2  0  0  0  0
 42 45  1  0  0  0  0
 43 52  1  0  0  0  0
 44 72  1  0  0  0  0
 45 47  1  0  0  0  0
 46 48  1  0  0  0  0
 46 49  1  0  0  0  0
 47 51  1  0  0  0  0
 48 53  1  0  0  0  0
 49 71  1  0  0  0  0
 50 53  1  0  0  0  0
 50 71  1  0  0  0  0
 51 75  1  0  0  0  0
 52 72  1  0  0  0  0
 53 70  1  0  0  0  0
 54 60  1  0  0  0  0
 55 66  1  0  0  0  0
 56 67  1  0  0  0  0
 57 67  1  0  0  0  0
 58 67  1  0  0  0  0
 59 77  1  0  0  0  0
 61 62  1  0  0  0  0
 61 63  1  0  0  0  0
 62 64  1  0  0  0  0
 63 84  1  0  0  0  0
 64 85  1  0  0  0  0
 65 67  1  0  0  0  0
 65 76  1  0  0  0  0
 66 77  1  0  0  0  0
 68 70  1  0  0  0  0
M  CHG  1  77   1
M  ISO  4  36 100  38 100  63 101  84 101
M  END
> <Batch ID>
0121

> <Smiles>
C=Cc1c(OCCC[101CH2:1][101O:1]c2ccc3c(c2)CN(C(=O)C(NC(=O)C(C)NC)C(C)(C)C)C(C(=O)NC2CCCc4ccccc42)C3)ccc([100C:0](=N)[100C:0](=O)N2CCCC(n3nc(-c4ccc(Oc5ccc(F)cc5F)cc4)c(C(N)=O)c3N)C2)c1CC

> <Shape>
0.279

> <Color>
0.093

> <Negative vol penalty>
0.000

$$$$

  -OEChem-04052301573D

 87 95  0     1  0  0  0  0  0999 V2000
  -18.3662  -29.6518   26.4655 C   0  0  0  0  0  0  0  0  0  0  0  0
  -19.7079  -29.2884   26.5229 C   0  0  0  0  0  0  0  0  0  0  0  0
  -23.5957   -9.7153   22.1749 C   0  0  0  0  0  0  0  0  0  0  0  0
  -24.1282   -8.6073   20.0950 C   0  0  0  0  0  0  0  0  0  0  0  0
  -17.6794  -29.5891   25.2538 C   0  0  0  0  0  0  0  0  0  0  0  0
  -20.3633  -28.8611   25.3687 C   0  0  0  0  0  0  0  0  0  0  0  0
  -26.8041  -28.9850   22.2355 C   0  0  0  0  0  0  0  0  0  0  0  0
  -22.2724   -9.2885   22.0634 C   0  0  0  0  0  0  0  0  0  0  0  0
  -22.8049   -8.1805   19.9836 C   0  0  0  0  0  0  0  0  0  0  0  0
  -27.7387  -28.1252   21.6601 C   0  0  0  0  0  0  0  0  0  0  0  0
  -20.5164   -6.4503   22.6054 C   0  0  0  0  0  0  0  0  0  0  0  0
  -19.9076   -5.9219   23.7437 C   0  0  0  0  0  0  0  0  0  0  0  0
  -32.3951  -20.3595   21.0763 C   0  0  0  0  0  0  0  0  0  0  0  0
  -29.7279  -20.0826   20.3067 C   0  0  0  0  0  0  0  0  0  0  0  0
  -26.4725  -28.1326   19.6069 C   0  0  0  0  0  0  0  0  0  0  0  0
  -18.2276   -7.6556   23.6499 C   0  0  0  0  0  0  0  0  0  0  0  0
  -24.5236   -9.3747   21.1907 C   0  0  0  0  0  0  0  0  0  0  0  0
  -31.7677  -21.3763   20.3566 C   0  0  0  0  0  0  0  0  0  0  0  0
  -30.3553  -19.0657   21.0264 C   0  0  0  0  0  0  0  0  0  0  0  0
  -26.9518   -9.1399   21.9365 C   0  0  0  0  0  0  0  0  0  0  0  0
  -18.3293  -29.1700   24.0822 C   0  0  0  0  0  0  0  0  0  0  0  0
  -25.6890  -29.4171   21.5031 C   0  0  0  0  0  0  0  0  0  0  0  0
  -19.6842  -28.7914   24.1404 C   0  0  0  0  0  0  0  0  0  0  0  0
  -25.5266  -28.9999   20.1744 C   0  0  0  0  0  0  0  0  0  0  0  0
  -31.6888  -19.2041   21.4112 C   0  0  0  0  0  0  0  0  0  0  0  0
  -30.4342  -21.2379   19.9718 C   0  0  0  0  0  0  0  0  0  0  0  0
  -21.8770   -8.5211   20.9678 C   0  0  0  0  0  0  0  0  0  0  0  0
  -27.5714  -27.6965   20.3466 C   0  0  0  0  0  0  0  0  0  0  0  0
  -19.9808   -7.5814   21.9893 C   0  0  0  0  0  0  0  0  0  0  0  0
  -18.7632   -6.5245   24.2659 C   0  0  0  0  0  0  0  0  0  0  0  0
  -18.8364   -8.1840   22.5116 C   0  0  0  0  0  0  0  0  0  0  0  0
  -25.8905   -9.8157   21.3050 C   0  0  0  0  0  0  0  0  0  0  0  0
  -28.0340   -9.9693   21.7707 C   0  0  0  0  0  0  0  0  0  0  0  0
  -33.1074  -23.3508   20.9241 C   0  0  0  0  0  0  0  0  0  0  0  0
  -32.5319  -22.5708   20.0214 C   0  0  0  0  0  0  0  0  0  0  0  0
  -29.5910  -17.8717   21.3626 C   0  0  0  0  0  0  0  0  0  0  0  0
  -29.0360  -17.0238   20.4727 C   0  0  0  0  0  0  0  0  0  0  0  0
  -29.5826  -24.7575   19.8642 C   0  0  0  0  0  0  0  0  0  0  0  0
  -26.9588   -7.8755   22.6123 C   0  0  0  0  0  0  0  0  0  0  0  0
  -29.2392  -23.4669   20.0543 C   0  0  0  0  0  0  0  0  0  0  0  0
  -28.2968  -15.8469   20.9718 C   0  0  0  0  0  0  0  0  0  0  0  0
  -22.5412  -29.1084   21.8188 C   0  0  0  0  0  0  0  0  0  0  0  0
  -22.4805  -31.1362   19.2877 C   0  0  0  0  0  0  0  0  0  0  0  0
  -24.0862  -32.4167   16.5621 C   0  0  0  0  0  0  0  0  0  0  0  0
  -17.5328  -29.0734   22.8051 C   0  0  0  0  0  0  0  0  0  0  0  0
  -24.7041  -30.3659   22.1294 C   0  0  0  0  0  0  0  0  0  0  0  0
  -24.3575  -29.4510   19.3388 C   0  0  0  0  0  0  0  0  0  0  0  0
  -18.3998  -28.9673   21.5531 C   0  0  0  0  0  0  0  0  0  0  0  0
  -29.8100  -13.2829   18.8346 C   0  0  0  0  0  0  0  0  0  0  0  0
  -19.5068  -27.9377   21.7560 C   0  0  0  0  0  0  0  0  0  0  0  0
  -29.0268  -12.0445   19.2621 C   0  0  0  0  0  0  0  0  0  0  0  0
  -28.9503  -14.5454   18.8754 C   0  0  0  0  0  0  0  0  0  0  0  0
  -27.5100  -13.5379   20.6220 C   0  0  0  0  0  0  0  0  0  0  0  0
  -20.4364  -28.3463   22.9050 C   0  0  1  0  0  0  0  0  0  0  0  0
  -23.3339  -30.3331   21.4594 C   0  0  1  0  0  0  0  0  0  0  0  0
  -28.3685  -12.2634   20.6336 C   0  0  1  0  0  0  0  0  0  0  0  0
  -32.3925  -18.1349   22.1834 C   0  0  0  0  0  0  0  0  0  0  0  0
  -26.8347  -23.1372   20.7850 C   0  0  0  0  0  0  0  0  0  0  0  0
  -23.7682  -34.0291   14.6657 C   0  0  0  0  0  0  0  0  0  0  0  0
  -20.6995  -29.1080   17.8651 C   0  0  0  0  0  0  0  0  0  0  0  0
  -21.1964  -30.2859   15.7124 C   0  0  0  0  0  0  0  0  0  0  0  0
  -20.0202  -31.4942   17.5507 C   0  0  0  0  0  0  0  0  0  0  0  0
  -26.3517  -34.0972   17.4579 C   0  0  0  0  0  0  0  0  0  0  0  0
  -29.7225  -22.3183   19.1920 C   0  0  0  0  0  0  0  0  0  0  0  0
  -29.1611  -25.9548   20.6555 C   0  0  0  0  0  0  0  0  0  1  0  0
  -28.3012  -23.1094   21.1939 C   0  0  0  0  0  0  0  0  0  0  0  0
  -22.4829  -30.9732   17.7869 C   0  0  1  0  0  0  0  0  0  0  0  0
  -24.2798  -33.8451   16.0859 C   0  0  2  0  0  0  0  0  0  0  0  0
  -21.1209  -30.4551   17.2449 C   0  0  0  0  0  0  0  0  0  0  0  0
  -26.2646  -10.9844   20.7776 N   0  0  0  0  0  0  0  0  0  0  0  0
  -27.5730  -11.0496   21.0774 N   0  0  0  0  0  0  0  0  0  0  0  0
  -28.2850  -14.7017   20.1776 N   0  0  0  0  0  0  0  0  0  0  0  0
  -23.4183  -30.3735   19.9980 N   0  0  0  0  0  0  0  0  0  0  0  0
  -29.3254   -9.8727   22.1520 N   0  0  0  0  0  0  0  0  0  0  0  0
  -25.7603   -7.1533   22.6910 N   0  0  0  0  0  0  0  0  0  0  0  0
  -21.3532  -29.3785   22.4708 N   0  0  0  0  0  0  0  0  0  0  0  0
  -22.8941  -32.2605   17.2371 N   0  0  0  0  0  0  0  0  0  0  0  0
  -25.7245  -34.2098   16.1160 N   0  3  0  0  0  0  0  0  0  0  0  0
  -27.9935   -7.4078   23.1454 O   0  0  0  0  0  0  0  0  0  0  0  0
  -27.7299  -15.9514   22.0610 O   0  0  0  0  0  0  0  0  0  0  0  0
  -22.9745  -28.0004   21.5249 O   0  0  0  0  0  0  0  0  0  0  0  0
  -21.6810  -31.9171   19.8099 O   0  0  0  0  0  0  0  0  0  0  0  0
  -24.9085  -31.5275   16.3526 O   0  0  0  0  0  0  0  0  0  0  0  0
  -20.5859   -8.1043   20.8588 O   0  0  0  0  0  0  0  0  0  0  0  0
  -28.4818  -26.8568   19.7828 O   0  0  0  0  0  0  0  0  0  1  0  0
  -18.1778   -6.0160   25.3582 F   0  0  0  0  0  0  0  0  0  0  0  0
  -18.3165   -9.2701   21.9235 F   0  0  0  0  0  0  0  0  0  0  0  0
  1  2  1  0  0  0  0
  1  5  2  0  0  0  0
  2  6  2  0  0  0  0
  3  8  2  0  0  0  0
  3 17  1  0  0  0  0
  4  9  1  0  0  0  0
  4 17  2  0  0  0  0
  5 21  1  0  0  0  0
  6 23  1  0  0  0  0
  7 10  2  0  0  0  0
  7 22  1  0  0  0  0
  8 27  1  0  0  0  0
  9 27  2  0  0  0  0
 10 28  1  0  0  0  0
 11 12  2  0  0  0  0
 11 29  1  0  0  0  0
 12 30  1  0  0  0  0
 13 18  1  0  0  0  0
 13 25  2  0  0  0  0
 14 19  2  0  0  0  0
 14 26  1  0  0  0  0
 15 24  1  0  0  0  0
 15 28  2  0  0  0  0
 16 30  2  0  0  0  0
 16 31  1  0  0  0  0
 17 32  1  0  0  0  0
 18 26  2  0  0  0  0
 18 35  1  0  0  0  0
 19 25  1  0  0  0  0
 19 36  1  0  0  0  0
 20 32  1  0  0  0  0
 20 33  2  0  0  0  0
 20 39  1  0  0  0  0
 21 23  2  0  0  0  0
 21 45  1  0  0  0  0
 22 24  2  0  0  0  0
 22 46  1  0  0  0  0
 23 54  1  0  0  0  0
 24 47  1  0  0  0  0
 25 57  1  0  0  0  0
 26 64  1  0  0  0  0
 27 84  1  0  0  0  0
 28 85  1  0  0  0  0
 29 31  2  0  0  0  0
 29 84  1  0  0  0  0
 30 86  1  0  0  0  0
 31 87  1  0  0  0  0
 32 70  2  0  0  0  0
 33 71  1  0  0  0  0
 33 74  1  0  0  0  0
 34 35  2  0  0  0  0
 36 37  2  0  0  0  0
 37 41  1  0  0  0  0
 38 40  2  0  0  0  0
 38 65  1  0  0  0  0
 39 75  1  0  0  0  0
 39 79  2  0  0  0  0
 40 64  1  0  0  0  0
 40 66  1  0  0  0  0
 41 72  1  0  0  0  0
 41 80  2  0  0  0  0
 42 55  1  0  0  0  0
 42 76  1  0  0  0  0
 42 81  2  0  0  0  0
 43 67  1  0  0  0  0
 43 73  1  0  0  0  0
 43 82  2  0  0  0  0
 44 68  1  0  0  0  0
 44 77  1  0  0  0  0
 44 83  2  0  0  0  0
 45 48  1  0  0  0  0
 46 55  1  0  0  0  0
 47 73  1  0  0  0  0
 48 50  1  0  0  0  0
 49 51  1  0  0  0  0
 49 52  1  0  0  0  0
 50 54  1  0  0  0  0
 51 56  1  0  0  0  0
 52 72  1  0  0  0  0
 53 56  1  0  0  0  0
 53 72  1  0  0  0  0
 54 76  1  0  0  0  0
 55 73  1  0  0  0  0
 56 71  1  0  0  0  0
 58 66  1  0  0  0  0
 59 68  1  0  0  0  0
 60 69  1  0  0  0  0
 61 69  1  0  0  0  0
 62 69  1  0  0  0  0
 63 78  1  0  0  0  0
 65 85  1  0  0  0  0
 67 69  1  0  0  0  0
 67 77  1  0  0  0  0
 68 78  1  0  0  0  0
 70 71  1  0  0  0  0
M  CHG  1  78   1
M  ISO  4  37 100  41 100  65 101  85 101
M  END
> <Batch ID>
0121

> <Smiles>
C=Cc1cc(C)c(C=[100CH:0][100C:0](=O)N2CCCC(n3nc(-c4ccc(Oc5ccc(F)cc5F)cc4)c(C(N)=O)c3N)C2)cc1CC(=C[101CH2:1][101O:1]c1ccc2c(c1)CN(C(=O)C(NC(=O)C(C)NC)C(C)(C)C)C(C(=O)NC1CCCc3ccccc31)C2)CC

> <Shape>
0.246

> <Color>
0.112

> <Negative vol penalty>
0.000

$$$$

  -OEChem-04052301573D

 86 94  0     1  0  0  0  0  0999 V2000
  -27.0061  -34.8002   25.4324 C   0  0  0  0  0  0  0  0  0  0  0  0
  -27.3851  -33.5780   24.8863 C   0  0  0  0  0  0  0  0  0  0  0  0
  -27.1038  -10.9376   23.9892 C   0  0  0  0  0  0  0  0  0  0  0  0
  -26.2946  -12.6437   25.4964 C   0  0  0  0  0  0  0  0  0  0  0  0
  -25.6809  -35.0129   25.8097 C   0  0  0  0  0  0  0  0  0  0  0  0
  -26.4391  -32.5674   24.7183 C   0  0  0  0  0  0  0  0  0  0  0  0
  -26.7867  -30.3133   20.1969 C   0  0  0  0  0  0  0  0  0  0  0  0
  -27.1650  -10.0314   25.0479 C   0  0  0  0  0  0  0  0  0  0  0  0
  -26.3557  -11.7375   26.5550 C   0  0  0  0  0  0  0  0  0  0  0  0
  -27.8060  -29.3771   20.0289 C   0  0  0  0  0  0  0  0  0  0  0  0
  -29.2341   -9.3600   27.6348 C   0  0  0  0  0  0  0  0  0  0  0  0
  -30.3779   -8.5693   27.7448 C   0  0  0  0  0  0  0  0  0  0  0  0
  -27.3338  -21.5054   19.0805 C   0  0  0  0  0  0  0  0  0  0  0  0
  -26.2194  -27.5948   20.3828 C   0  0  0  0  0  0  0  0  0  0  0  0
  -25.1887  -20.5995   19.7247 C   0  0  0  0  0  0  0  0  0  0  0  0
  -29.0231   -6.5802   27.5324 C   0  0  0  0  0  0  0  0  0  0  0  0
  -26.6686  -12.2437   24.2135 C   0  0  0  0  0  0  0  0  0  0  0  0
  -26.6943  -22.5801   18.4626 C   0  0  0  0  0  0  0  0  0  0  0  0
  -25.5125  -13.4172   22.2657 C   0  0  0  0  0  0  0  0  0  0  0  0
  -24.7162  -34.0078   25.6373 C   0  0  0  0  0  0  0  0  0  0  0  0
  -25.4758  -29.8969   20.4704 C   0  0  0  0  0  0  0  0  0  0  0  0
  -25.1000  -32.7664   25.0949 C   0  0  0  0  0  0  0  0  0  0  0  0
  -25.1847  -28.5276   20.5514 C   0  0  0  0  0  0  0  0  0  0  0  0
  -24.5492  -21.6742   19.1069 C   0  0  0  0  0  0  0  0  0  0  0  0
  -25.3021  -22.6645   18.4758 C   0  0  0  0  0  0  0  0  0  0  0  0
  -26.5809  -20.5150   19.7115 C   0  0  0  0  0  0  0  0  0  0  0  0
  -26.7909  -10.4313   26.3307 C   0  0  0  0  0  0  0  0  0  0  0  0
  -27.5230  -28.0178   20.1247 C   0  0  0  0  0  0  0  0  0  0  0  0
  -27.9848   -8.7608   27.4737 C   0  0  0  0  0  0  0  0  0  0  0  0
  -30.2724   -7.1793   27.6935 C   0  0  0  0  0  0  0  0  0  0  0  0
  -27.8793   -7.3709   27.4225 C   0  0  0  0  0  0  0  0  0  0  0  0
  -26.6057  -13.1804   23.1204 C   0  0  0  0  0  0  0  0  0  0  0  0
  -25.9554  -14.3902   21.4033 C   0  0  0  0  0  0  0  0  0  0  0  0
  -27.5198  -23.6083   17.8046 C   0  0  0  0  0  0  0  0  0  0  0  0
  -28.4252  -24.3731   18.4307 C   0  0  0  0  0  0  0  0  0  0  0  0
  -24.2129  -12.8119   22.2524 C   0  0  0  0  0  0  0  0  0  0  0  0
  -29.2058  -25.3964   17.6731 C   0  0  0  0  0  0  0  0  0  0  0  0
  -23.4487  -30.3093   22.8838 C   0  0  0  0  0  0  0  0  0  0  0  0
  -21.3845  -28.7855   20.8991 C   0  0  0  0  0  0  0  0  0  0  0  0
  -20.9308  -26.6620   18.2662 C   0  0  0  0  0  0  0  0  0  0  0  0
  -28.6025  -19.1889   20.4192 C   0  0  0  0  0  0  0  0  0  0  0  0
  -23.3057  -34.2676   26.1039 C   0  0  0  0  0  0  0  0  0  0  0  0
  -24.3824  -30.9185   20.6226 C   0  0  0  0  0  0  0  0  0  0  0  0
  -23.7900  -28.0282   20.8231 C   0  0  0  0  0  0  0  0  0  0  0  0
  -22.2873  -33.2766   25.5461 C   0  0  0  0  0  0  0  0  0  0  0  0
  -30.6009  -16.2505   20.6417 C   0  0  0  0  0  0  0  0  0  0  0  0
  -22.8057  -31.8480   25.6769 C   0  0  0  0  0  0  0  0  0  0  0  0
  -29.6498  -15.2094   21.2361 C   0  0  0  0  0  0  0  0  0  0  0  0
  -30.3649  -17.6384   21.2348 C   0  0  0  0  0  0  0  0  0  0  0  0
  -28.0259  -17.0729   21.7629 C   0  0  0  0  0  0  0  0  0  0  0  0
  -24.0977  -31.6543   24.8740 C   0  0  1  0  0  0  0  0  0  0  0  0
  -23.1827  -30.3972   21.4076 C   0  0  1  0  0  0  0  0  0  0  0  0
  -28.1821  -15.6720   21.1490 C   0  0  2  0  0  0  0  0  0  0  0  0
  -23.0571  -21.7401   19.1361 C   0  0  0  0  0  0  0  0  0  0  0  0
  -24.0013  -23.4241   16.4714 C   0  0  0  0  0  0  0  0  0  0  0  0
  -19.1281  -25.5778   16.8980 C   0  0  0  0  0  0  0  0  0  0  0  0
  -20.8404  -26.8256   23.1735 C   0  0  0  0  0  0  0  0  0  0  0  0
  -19.8155  -25.2734   21.4976 C   0  0  0  0  0  0  0  0  0  0  0  0
  -18.8109  -27.5229   21.8892 C   0  0  0  0  0  0  0  0  0  0  0  0
  -21.8721  -27.9653   15.7814 C   0  0  0  0  0  0  0  0  0  0  0  0
  -24.6043  -23.8135   17.8160 C   0  0  0  0  0  0  0  0  0  0  0  0
  -30.2005  -26.1982   18.4984 C   0  0  0  0  0  0  0  0  0  0  0  0
  -29.5935  -27.4590   19.0966 C   0  0  0  0  0  0  0  0  0  1  0  0
  -21.0074  -27.3451   20.6499 C   0  0  1  0  0  0  0  0  0  0  0  0
  -20.0654  -26.7688   17.0236 C   0  0  2  0  0  0  0  0  0  0  0  0
  -20.1453  -26.7509   21.7993 C   0  0  0  0  0  0  0  0  0  0  0  0
  -27.6636  -13.9415   22.8276 N   0  0  0  0  0  0  0  0  0  0  0  0
  -27.2372  -14.6661   21.7791 N   0  0  0  0  0  0  0  0  0  0  0  0
  -22.7564  -29.0662   20.9707 N   0  0  0  0  0  0  0  0  0  0  0  0
  -28.9539  -18.0116   21.1129 N   0  0  0  0  0  0  0  0  0  0  0  0
  -25.3696  -15.0281   20.3678 N   0  0  0  0  0  0  0  0  0  0  0  0
  -23.9239  -11.8289   23.2088 N   0  0  0  0  0  0  0  0  0  0  0  0
  -27.2302  -19.4236   20.3399 N   0  0  0  0  0  0  0  0  0  0  0  0
  -23.8006  -31.5128   23.4647 N   0  0  0  0  0  0  0  0  0  0  0  0
  -20.3631  -27.3123   19.3414 N   0  0  0  0  0  0  0  0  0  0  0  0
  -20.9175  -26.8271   15.8024 N   0  3  0  0  0  0  0  0  0  0  0  0
  -23.3395  -13.1214   21.4069 O   0  0  0  0  0  0  0  0  0  0  0  0
  -29.0470  -25.5677   16.4675 O   0  0  0  0  0  0  0  0  0  0  0  0
  -23.3412  -29.2299   23.4539 O   0  0  0  0  0  0  0  0  0  0  0  0
  -20.4949  -29.6316   21.0184 O   0  0  0  0  0  0  0  0  0  0  0  0
  -22.0014  -26.0586   18.2825 O   0  0  0  0  0  0  0  0  0  0  0  0
  -29.4548  -19.9198   19.9079 O   0  0  0  0  0  0  0  0  0  0  0  0
  -26.8503   -9.5473   27.3640 O   0  0  0  0  0  0  0  0  0  0  0  0
  -28.5163  -27.1019   19.9617 O   0  0  0  0  0  0  0  0  0  1  0  0
  -31.3710   -6.4202   27.7976 F   0  0  0  0  0  0  0  0  0  0  0  0
  -26.6820   -6.7896   27.2667 F   0  0  0  0  0  0  0  0  0  0  0  0
  1  2  1  0  0  0  0
  1  5  2  0  0  0  0
  2  6  2  0  0  0  0
  3  8  2  0  0  0  0
  3 17  1  0  0  0  0
  4  9  1  0  0  0  0
  4 17  2  0  0  0  0
  5 20  1  0  0  0  0
  6 22  1  0  0  0  0
  7 10  2  0  0  0  0
  7 21  1  0  0  0  0
  8 27  1  0  0  0  0
  9 27  2  0  0  0  0
 10 28  1  0  0  0  0
 11 12  2  0  0  0  0
 11 29  1  0  0  0  0
 12 30  1  0  0  0  0
 13 18  1  0  0  0  0
 13 26  2  0  0  0  0
 14 23  1  0  0  0  0
 14 28  2  0  0  0  0
 15 24  2  0  0  0  0
 15 26  1  0  0  0  0
 16 30  2  0  0  0  0
 16 31  1  0  0  0  0
 17 32  1  0  0  0  0
 18 25  2  0  0  0  0
 18 34  1  0  0  0  0
 19 32  1  0  0  0  0
 19 33  2  0  0  0  0
 19 36  1  0  0  0  0
 20 22  2  0  0  0  0
 20 42  1  0  0  0  0
 21 23  2  0  0  0  0
 21 43  1  0  0  0  0
 22 51  1  0  0  0  0
 23 44  1  0  0  0  0
 24 25  1  0  0  0  0
 24 54  1  0  0  0  0
 25 61  1  0  0  0  0
 26 73  1  0  0  0  0
 27 83  1  0  0  0  0
 28 84  1  0  0  0  0
 29 31  2  0  0  0  0
 29 83  1  0  0  0  0
 30 85  1  0  0  0  0
 31 86  1  0  0  0  0
 32 67  2  0  0  0  0
 33 68  1  0  0  0  0
 33 71  1  0  0  0  0
 34 35  2  0  0  0  0
 35 37  1  0  0  0  0
 36 72  1  0  0  0  0
 36 77  2  0  0  0  0
 37 62  1  0  0  0  0
 37 78  2  0  0  0  0
 38 52  1  0  0  0  0
 38 74  1  0  0  0  0
 38 79  2  0  0  0  0
 39 64  1  0  0  0  0
 39 69  1  0  0  0  0
 39 80  2  0  0  0  0
 40 65  1  0  0  0  0
 40 75  1  0  0  0  0
 40 81  2  0  0  0  0
 41 70  1  0  0  0  0
 41 73  1  0  0  0  0
 41 82  2  0  0  0  0
 42 45  1  0  0  0  0
 43 52  1  0  0  0  0
 44 69  1  0  0  0  0
 45 47  1  0  0  0  0
 46 48  1  0  0  0  0
 46 49  1  0  0  0  0
 47 51  1  0  0  0  0
 48 53  1  0  0  0  0
 49 70  1  0  0  0  0
 50 53  1  0  0  0  0
 50 70  1  0  0  0  0
 51 74  1  0  0  0  0
 52 69  1  0  0  0  0
 53 68  1  0  0  0  0
 55 61  1  0  0  0  0
 56 65  1  0  0  0  0
 57 66  1  0  0  0  0
 58 66  1  0  0  0  0
 59 66  1  0  0  0  0
 60 76  1  0  0  0  0
 62 63  1  0  0  0  0
 63 84  1  0  0  0  0
 64 66  1  0  0  0  0
 64 75  1  0  0  0  0
 65 76  1  0  0  0  0
 67 68  1  0  0  0  0
M  CHG  1  76   1
M  ISO  4  41 100  63 101  73 100  84 101
M  END
> <Batch ID>
0121

> <Smiles>
CCc1c(C)cc([100NH:0][100C:0](=O)N2CCCC(n3nc(-c4ccc(Oc5ccc(F)cc5F)cc4)c(C(N)=O)c3N)C2)cc1C=CC(=O)C[101CH2:1][101O:1]c1ccc2c(c1)CN(C(=O)C(NC(=O)C(C)NC)C(C)(C)C)C(C(=O)NC1CCCc3ccccc31)C2

> <Shape>
0.231

> <Color>
0.106

> <Negative vol penalty>
0.000

$$$$

  -OEChem-04052301573D

 88 96  0     1  0  0  0  0  0999 V2000
  -27.3733  -33.3481   26.6732 C   0  0  0  0  0  0  0  0  0  0  0  0
  -27.6653  -32.2369   25.8888 C   0  0  0  0  0  0  0  0  0  0  0  0
  -22.8239  -12.7535   23.3647 C   0  0  0  0  0  0  0  0  0  0  0  0
  -22.2244  -14.5572   21.8732 C   0  0  0  0  0  0  0  0  0  0  0  0
  -26.0552  -33.6118   27.0433 C   0  0  0  0  0  0  0  0  0  0  0  0
  -26.6394  -31.3879   25.4750 C   0  0  0  0  0  0  0  0  0  0  0  0
  -27.0206  -30.1184   20.5875 C   0  0  0  0  0  0  0  0  0  0  0  0
  -21.7340  -13.0639   24.1780 C   0  0  0  0  0  0  0  0  0  0  0  0
  -21.1345  -14.8675   22.6865 C   0  0  0  0  0  0  0  0  0  0  0  0
  -27.9554  -29.1389   20.2551 C   0  0  0  0  0  0  0  0  0  0  0  0
  -20.9608  -15.3568   26.5380 C   0  0  0  0  0  0  0  0  0  0  0  0
  -21.1724  -15.3974   27.9161 C   0  0  0  0  0  0  0  0  0  0  0  0
  -27.8769  -19.1217   18.2154 C   0  0  0  0  0  0  0  0  0  0  0  0
  -26.1918  -27.4957   20.1626 C   0  0  0  0  0  0  0  0  0  0  0  0
  -29.9967  -19.3542   19.3509 C   0  0  0  0  0  0  0  0  0  0  0  0
  -19.5302  -13.6515   28.2196 C   0  0  0  0  0  0  0  0  0  0  0  0
  -23.0691  -13.5002   22.2123 C   0  0  0  0  0  0  0  0  0  0  0  0
  -27.9352  -20.4616   17.8321 C   0  0  0  0  0  0  0  0  0  0  0  0
  -29.0243  -21.2478   18.2082 C   0  0  0  0  0  0  0  0  0  0  0  0
  -24.2172  -12.2879   20.2836 C   0  0  0  0  0  0  0  0  0  0  0  0
  -25.0114  -32.7710   26.6258 C   0  0  0  0  0  0  0  0  0  0  0  0
  -25.6636  -29.7911   20.7209 C   0  0  0  0  0  0  0  0  0  0  0  0
  -25.3062  -31.6398   25.8410 C   0  0  0  0  0  0  0  0  0  0  0  0
  -25.2414  -28.4733   20.4943 C   0  0  0  0  0  0  0  0  0  0  0  0
  -30.0550  -20.6941   18.9676 C   0  0  0  0  0  0  0  0  0  0  0  0
  -28.9076  -18.5680   18.9748 C   0  0  0  0  0  0  0  0  0  0  0  0
  -20.8893  -14.1209   23.8389 C   0  0  0  0  0  0  0  0  0  0  0  0
  -27.5415  -27.8267   20.0455 C   0  0  0  0  0  0  0  0  0  0  0  0
  -20.0339  -14.4635   26.0007 C   0  0  0  0  0  0  0  0  0  0  0  0
  -20.4571  -14.5447   28.7569 C   0  0  0  0  0  0  0  0  0  0  0  0
  -19.3187  -13.6109   26.8415 C   0  0  0  0  0  0  0  0  0  0  0  0
  -24.1951  -13.1805   21.3720 C   0  0  0  0  0  0  0  0  0  0  0  0
  -25.5105  -12.3389   19.8240 C   0  0  0  0  0  0  0  0  0  0  0  0
  -30.2978  -24.7704   15.0290 C   0  0  0  0  0  0  0  0  0  0  0  0
  -29.0900  -22.6638   17.8050 C   0  0  0  0  0  0  0  0  0  0  0  0
  -29.6348  -23.1048   16.6588 C   0  0  0  0  0  0  0  0  0  0  0  0
  -26.8352  -20.9981   17.0382 C   0  0  0  0  0  0  0  0  0  0  0  0
  -23.1629  -11.4847   19.7367 C   0  0  0  0  0  0  0  0  0  0  0  0
  -29.7176  -24.4920   16.2102 C   0  0  0  0  0  0  0  0  0  0  0  0
  -23.5553  -29.8903   23.0976 C   0  0  0  0  0  0  0  0  0  0  0  0
  -21.4689  -29.0426   20.7630 C   0  0  0  0  0  0  0  0  0  0  0  0
  -20.9626  -27.5830   17.7199 C   0  0  0  0  0  0  0  0  0  0  0  0
  -29.7864  -16.5025   20.1184 C   0  0  0  0  0  0  0  0  0  0  0  0
  -23.6081  -33.0704   27.0904 C   0  0  0  0  0  0  0  0  0  0  0  0
  -24.6640  -30.8646   21.0537 C   0  0  0  0  0  0  0  0  0  0  0  0
  -23.7933  -28.0744   20.6052 C   0  0  0  0  0  0  0  0  0  0  0  0
  -22.5334  -32.3305   26.2981 C   0  0  0  0  0  0  0  0  0  0  0  0
  -29.9863  -13.1563   21.3186 C   0  0  0  0  0  0  0  0  0  0  0  0
  -22.9077  -30.8608   26.1342 C   0  0  0  0  0  0  0  0  0  0  0  0
  -28.5263  -12.6995   21.3637 C   0  0  0  0  0  0  0  0  0  0  0  0
  -30.1331  -14.6257   21.7098 C   0  0  0  0  0  0  0  0  0  0  0  0
  -27.8209  -15.0995   21.0038 C   0  0  0  0  0  0  0  0  0  0  0  0
  -24.2178  -30.7092   25.3518 C   0  0  1  0  0  0  0  0  0  0  0  0
  -23.3796  -30.3157   21.6673 C   0  0  1  0  0  0  0  0  0  0  0  0
  -27.6152  -13.6435   20.5548 C   0  0  2  0  0  0  0  0  0  0  0  0
  -31.2395  -21.5028   19.3909 C   0  0  0  0  0  0  0  0  0  0  0  0
  -26.5672  -20.3566   15.7101 C   0  0  0  0  0  0  0  0  0  0  0  0
  -19.1437  -27.0050   16.0906 C   0  0  0  0  0  0  0  0  0  0  0  0
  -20.6201  -26.7126   22.5408 C   0  0  0  0  0  0  0  0  0  0  0  0
  -19.5474  -25.6646   20.5360 C   0  0  0  0  0  0  0  0  0  0  0  0
  -18.7380  -27.8716   21.3708 C   0  0  0  0  0  0  0  0  0  0  0  0
  -22.1561  -29.2785   15.6081 C   0  0  0  0  0  0  0  0  0  0  0  0
  -29.1919  -25.6188   17.0749 C   0  0  0  0  0  0  0  0  0  0  0  0
  -30.1674  -26.1530   18.1382 C   0  0  0  0  0  0  0  0  0  0  0  0
  -29.6036  -27.2876   18.9904 C   0  0  0  0  0  0  0  0  0  1  0  0
  -20.9726  -27.7344   20.1961 C   0  0  1  0  0  0  0  0  0  0  0  0
  -20.1802  -28.0392   16.5017 C   0  0  2  0  0  0  0  0  0  0  0  0
  -19.9971  -27.0026   21.1606 C   0  0  0  0  0  0  0  0  0  0  0  0
  -25.3803  -13.7561   21.5910 N   0  0  0  0  0  0  0  0  0  0  0  0
  -26.1593  -13.2240   20.6338 N   0  0  0  0  0  0  0  0  0  0  0  0
  -22.8550  -29.1586   20.9391 N   0  0  0  0  0  0  0  0  0  0  0  0
  -29.2434  -15.4603   20.8993 N   0  0  0  0  0  0  0  0  0  0  0  0
  -26.1448  -11.7123   18.8103 N   0  0  0  0  0  0  0  0  0  0  0  0
  -21.8949  -11.5528   20.3298 N   0  0  0  0  0  0  0  0  0  0  0  0
  -28.8482  -17.2070   19.3647 N   0  0  0  0  0  0  0  0  0  0  0  0
  -23.9861  -30.9006   23.9361 N   0  0  0  0  0  0  0  0  0  0  0  0
  -20.4005  -28.0461   18.8907 N   0  0  0  0  0  0  0  0  0  0  0  0
  -21.0995  -28.2664   15.3509 N   0  3  0  0  0  0  0  0  0  0  0  0
  -26.1180  -21.9383   17.3774 O   0  0  0  0  0  0  0  0  0  0  0  0
  -23.3442  -10.7167   18.7616 O   0  0  0  0  0  0  0  0  0  0  0  0
  -23.3162  -28.7317   23.4171 O   0  0  0  0  0  0  0  0  0  0  0  0
  -20.6572  -29.9315   21.0327 O   0  0  0  0  0  0  0  0  0  0  0  0
  -21.9695  -26.8827   17.6410 O   0  0  0  0  0  0  0  0  0  0  0  0
  -30.9980  -16.7341   20.0973 O   0  0  0  0  0  0  0  0  0  0  0  0
  -19.8256  -14.4239   24.6322 O   0  0  0  0  0  0  0  0  0  0  0  0
  -28.4520  -26.8686   19.7216 O   0  0  0  0  0  0  0  0  0  1  0  0
  -20.6614  -14.5828   30.0801 F   0  0  0  0  0  0  0  0  0  0  0  0
  -18.4277  -12.7498   26.3310 F   0  0  0  0  0  0  0  0  0  0  0  0
  1  2  1  0  0  0  0
  1  5  2  0  0  0  0
  2  6  2  0  0  0  0
  3  8  2  0  0  0  0
  3 17  1  0  0  0  0
  4  9  1  0  0  0  0
  4 17  2  0  0  0  0
  5 21  1  0  0  0  0
  6 23  1  0  0  0  0
  7 10  2  0  0  0  0
  7 22  1  0  0  0  0
  8 27  1  0  0  0  0
  9 27  2  0  0  0  0
 10 28  1  0  0  0  0
 11 12  2  0  0  0  0
 11 29  1  0  0  0  0
 12 30  1  0  0  0  0
 13 18  1  0  0  0  0
 13 26  2  0  0  0  0
 14 24  1  0  0  0  0
 14 28  2  0  0  0  0
 15 25  2  0  0  0  0
 15 26  1  0  0  0  0
 16 30  2  0  0  0  0
 16 31  1  0  0  0  0
 17 32  1  0  0  0  0
 18 19  2  0  0  0  0
 18 37  1  0  0  0  0
 19 25  1  0  0  0  0
 19 35  1  0  0  0  0
 20 32  1  0  0  0  0
 20 33  2  0  0  0  0
 20 38  1  0  0  0  0
 21 23  2  0  0  0  0
 21 44  1  0  0  0  0
 22 24  2  0  0  0  0
 22 45  1  0  0  0  0
 23 53  1  0  0  0  0
 24 46  1  0  0  0  0
 25 56  1  0  0  0  0
 26 75  1  0  0  0  0
 27 85  1  0  0  0  0
 28 86  1  0  0  0  0
 29 31  2  0  0  0  0
 29 85  1  0  0  0  0
 30 87  1  0  0  0  0
 31 88  1  0  0  0  0
 32 69  2  0  0  0  0
 33 70  1  0  0  0  0
 33 73  1  0  0  0  0
 34 39  2  0  0  0  0
 35 36  2  0  0  0  0
 36 39  1  0  0  0  0
 37 57  1  0  0  0  0
 37 79  2  0  0  0  0
 38 74  1  0  0  0  0
 38 80  2  0  0  0  0
 39 63  1  0  0  0  0
 40 54  1  0  0  0  0
 40 76  1  0  0  0  0
 40 81  2  0  0  0  0
 41 66  1  0  0  0  0
 41 71  1  0  0  0  0
 41 82  2  0  0  0  0
 42 67  1  0  0  0  0
 42 77  1  0  0  0  0
 42 83  2  0  0  0  0
 43 72  1  0  0  0  0
 43 75  1  0  0  0  0
 43 84  2  0  0  0  0
 44 47  1  0  0  0  0
 45 54  1  0  0  0  0
 46 71  1  0  0  0  0
 47 49  1  0  0  0  0
 48 50  1  0  0  0  0
 48 51  1  0  0  0  0
 49 53  1  0  0  0  0
 50 55  1  0  0  0  0
 51 72  1  0  0  0  0
 52 55  1  0  0  0  0
 52 72  1  0  0  0  0
 53 76  1  0  0  0  0
 54 71  1  0  0  0  0
 55 70  1  0  0  0  0
 58 67  1  0  0  0  0
 59 68  1  0  0  0  0
 60 68  1  0  0  0  0
 61 68  1  0  0  0  0
 62 78  1  0  0  0  0
 63 64  1  0  0  0  0
 64 65  1  0  0  0  0
 65 86  1  0  0  0  0
 66 68  1  0  0  0  0
 66 77  1  0  0  0  0
 67 78  1  0  0  0  0
 69 70  1  0  0  0  0
M  CHG  1  78   1
M  ISO  4  43 100  65 101  75 100  86 101
M  END
> <Batch ID>
0121

> <Smiles>
C=C(C=Cc1c(C)cc([100NH:0][100C:0](=O)N2CCCC(n3nc(-c4ccc(Oc5ccc(F)cc5F)cc4)c(C(N)=O)c3N)C2)cc1C(C)=O)CC[101CH2:1][101O:1]c1ccc2c(c1)CN(C(=O)C(NC(=O)C(C)NC)C(C)(C)C)C(C(=O)NC1CCCc3ccccc31)C2

> <Shape>
0.284

> <Color>
0.078

> <Negative vol penalty>
0.000

$$$$

  -OEChem-04052301573D

 84 92  0     1  0  0  0  0  0999 V2000
  -20.5028  -25.2273   25.3608 C   0  0  0  0  0  0  0  0  0  0  0  0
  -21.5373  -25.0997   24.4394 C   0  0  0  0  0  0  0  0  0  0  0  0
  -24.6361   -9.2858   21.0309 C   0  0  0  0  0  0  0  0  0  0  0  0
  -23.0593  -11.0234   20.4549 C   0  0  0  0  0  0  0  0  0  0  0  0
  -28.4449  -20.5199   15.8455 C   0  0  0  0  0  0  0  0  0  0  0  0
  -19.4787  -26.1460   25.1345 C   0  0  0  0  0  0  0  0  0  0  0  0
  -21.5478  -25.8900   23.2906 C   0  0  0  0  0  0  0  0  0  0  0  0
  -26.1124  -27.8614   22.3301 C   0  0  0  0  0  0  0  0  0  0  0  0
  -28.1140  -19.2583   15.3511 C   0  0  0  0  0  0  0  0  0  0  0  0
  -23.6052   -8.5397   21.6020 C   0  0  0  0  0  0  0  0  0  0  0  0
  -22.0284  -10.2772   21.0260 C   0  0  0  0  0  0  0  0  0  0  0  0
  -27.0605  -27.0193   21.7507 C   0  0  0  0  0  0  0  0  0  0  0  0
  -21.0975   -6.5352   20.5407 C   0  0  0  0  0  0  0  0  0  0  0  0
  -21.0413   -5.1736   20.2435 C   0  0  0  0  0  0  0  0  0  0  0  0
  -28.9146  -19.5494   18.0076 C   0  0  0  0  0  0  0  0  0  0  0  0
  -26.5955  -27.9909   19.5922 C   0  0  0  0  0  0  0  0  0  0  0  0
  -21.2707   -4.6518   22.5914 C   0  0  0  0  0  0  0  0  0  0  0  0
  -24.3631  -10.5277   20.4573 C   0  0  0  0  0  0  0  0  0  0  0  0
  -28.8453  -20.6654   17.1737 C   0  0  0  0  0  0  0  0  0  0  0  0
  -25.8689  -11.2569   18.5315 C   0  0  0  0  0  0  0  0  0  0  0  0
  -19.4817  -26.9548   23.9871 C   0  0  0  0  0  0  0  0  0  0  0  0
  -25.3897  -28.7685   21.5419 C   0  0  0  0  0  0  0  0  0  0  0  0
  -20.5220  -26.8194   23.0481 C   0  0  0  0  0  0  0  0  0  0  0  0
  -25.6406  -28.8452   20.1644 C   0  0  0  0  0  0  0  0  0  0  0  0
  -28.1833  -18.1422   16.1849 C   0  0  0  0  0  0  0  0  0  0  0  0
  -28.5837  -18.2878   17.5132 C   0  0  0  0  0  0  0  0  0  0  0  0
  -22.3014   -9.0354   21.5996 C   0  0  0  0  0  0  0  0  0  0  0  0
  -27.3002  -27.0820   20.3811 C   0  0  0  0  0  0  0  0  0  0  0  0
  -21.2404   -6.9552   21.8631 C   0  0  0  0  0  0  0  0  0  0  0  0
  -21.1279   -4.2318   21.2689 C   0  0  0  0  0  0  0  0  0  0  0  0
  -21.3270   -6.0135   22.8885 C   0  0  0  0  0  0  0  0  0  0  0  0
  -25.4277  -11.2992   19.8677 C   0  0  0  0  0  0  0  0  0  0  0  0
  -26.8933  -12.1702   18.4791 C   0  0  0  0  0  0  0  0  0  0  0  0
  -28.6396  -24.1631   18.7833 C   0  0  0  0  0  0  0  0  0  0  0  0
  -27.8083  -25.0415   19.3569 C   0  0  0  0  0  0  0  0  0  1  0  0
  -29.1961  -22.0029   17.6959 C   0  0  0  0  0  0  0  0  0  0  0  0
  -25.3950  -10.4630   17.4357 C   0  0  0  0  0  0  0  0  0  0  0  0
  -28.2862  -22.8349   18.2658 C   0  0  0  0  0  0  0  0  0  0  0  0
  -22.3161  -29.1815   20.8447 C   0  0  0  0  0  0  0  0  0  0  0  0
  -23.4130  -31.8479   19.3584 C   0  0  0  0  0  0  0  0  0  0  0  0
  -26.0213  -33.4708   17.8717 C   0  0  0  0  0  0  0  0  0  0  0  0
  -29.0422  -17.1557   19.7165 C   0  0  0  0  0  0  0  0  0  0  0  0
  -18.3282  -27.9001   23.7624 C   0  0  0  0  0  0  0  0  0  0  0  0
  -24.3894  -29.6886   22.1863 C   0  0  0  0  0  0  0  0  0  0  0  0
  -24.9060  -29.8157   19.2774 C   0  0  0  0  0  0  0  0  0  0  0  0
  -18.6103  -28.9648   22.7054 C   0  0  0  0  0  0  0  0  0  0  0  0
  -29.3251  -14.6090   22.1886 C   0  0  0  0  0  0  0  0  0  0  0  0
  -19.2375  -28.3339   21.4663 C   0  0  0  0  0  0  0  0  0  0  0  0
  -28.3726  -13.5174   21.6953 C   0  0  0  0  0  0  0  0  0  0  0  0
  -28.7803  -16.0077   21.9048 C   0  0  0  0  0  0  0  0  0  0  0  0
  -27.4451  -15.1617   20.0151 C   0  0  0  0  0  0  0  0  0  0  0  0
  -20.5815  -27.6764   21.8022 C   0  0  1  0  0  0  0  0  0  0  0  0
  -23.3445  -30.2151   21.2074 C   0  0  1  0  0  0  0  0  0  0  0  0
  -27.9810  -13.7355   20.2206 C   0  0  2  0  0  0  0  0  0  0  0  0
  -27.8217  -16.8032   15.6287 C   0  0  0  0  0  0  0  0  0  0  0  0
  -30.6560  -22.3407   17.5247 C   0  0  0  0  0  0  0  0  0  0  0  0
  -26.8290  -22.4447   18.3963 C   0  0  0  0  0  0  0  0  0  0  0  0
  -26.6028  -35.6226   16.7190 C   0  0  0  0  0  0  0  0  0  0  0  0
  -21.9723  -30.8884   16.8457 C   0  0  0  0  0  0  0  0  0  0  0  0
  -23.3392  -32.5173   15.5242 C   0  0  0  0  0  0  0  0  0  0  0  0
  -21.7784  -33.3425   17.2865 C   0  0  0  0  0  0  0  0  0  0  0  0
  -28.0458  -34.1552   19.9191 C   0  0  0  0  0  0  0  0  0  0  0  0
  -23.9113  -32.1697   17.9702 C   0  0  1  0  0  0  0  0  0  0  0  0
  -26.5618  -34.8787   18.0448 C   0  0  2  0  0  0  0  0  0  0  0  0
  -22.7629  -32.2097   16.9228 C   0  0  0  0  0  0  0  0  0  0  0  0
  -26.1156  -12.1704   20.6105 N   0  0  0  0  0  0  0  0  0  0  0  0
  -26.9995  -12.6839   19.7381 N   0  0  0  0  0  0  0  0  0  0  0  0
  -23.9333  -30.6899   19.9535 N   0  0  0  0  0  0  0  0  0  0  0  0
  -28.4349  -16.1423   20.4879 N   0  0  0  0  0  0  0  0  0  0  0  0
  -27.7046  -12.5761   17.4793 N   0  0  0  0  0  0  0  0  0  0  0  0
  -24.3346   -9.5752   17.6632 N   0  0  0  0  0  0  0  0  0  0  0  0
  -28.6608  -17.1658   18.3752 N   0  0  0  0  0  0  0  0  0  0  0  0
  -21.6178  -28.6790   21.9261 N   0  0  0  0  0  0  0  0  0  0  0  0
  -24.6599  -33.4167   18.0841 N   0  0  0  0  0  0  0  0  0  0  0  0
  -27.9427  -34.8383   18.6039 N   0  3  0  0  0  0  0  0  0  0  0  0
  -25.9078  -10.5267   16.2927 O   0  0  0  0  0  0  0  0  0  0  0  0
  -22.1661  -28.8644   19.6705 O   0  0  0  0  0  0  0  0  0  0  0  0
  -22.5978  -32.6003   19.8978 O   0  0  0  0  0  0  0  0  0  0  0  0
  -26.7346  -32.5153   17.5741 O   0  0  0  0  0  0  0  0  0  0  0  0
  -29.8622  -17.9384   20.2032 O   0  0  0  0  0  0  0  0  0  0  0  0
  -21.2952   -8.3074   22.1566 O   0  0  0  0  0  0  0  0  0  0  0  0
  -28.2246  -26.2607   19.8129 O   0  0  0  0  0  0  0  0  0  1  0  0
  -21.0724   -2.9243   20.9835 F   0  0  0  0  0  0  0  0  0  0  0  0
  -21.4631   -6.4109   24.1610 F   0  0  0  0  0  0  0  0  0  0  0  0
  1  2  1  0  0  0  0
  1  6  2  0  0  0  0
  2  7  2  0  0  0  0
  3 10  2  0  0  0  0
  3 18  1  0  0  0  0
  4 11  1  0  0  0  0
  4 18  2  0  0  0  0
  5  9  2  0  0  0  0
  5 19  1  0  0  0  0
  6 21  1  0  0  0  0
  7 23  1  0  0  0  0
  8 12  2  0  0  0  0
  8 22  1  0  0  0  0
  9 25  1  0  0  0  0
 10 27  1  0  0  0  0
 11 27  2  0  0  0  0
 12 28  1  0  0  0  0
 13 14  2  0  0  0  0
 13 29  1  0  0  0  0
 14 30  1  0  0  0  0
 15 19  2  0  0  0  0
 15 26  1  0  0  0  0
 16 24  1  0  0  0  0
 16 28  2  0  0  0  0
 17 30  2  0  0  0  0
 17 31  1  0  0  0  0
 18 32  1  0  0  0  0
 19 36  1  0  0  0  0
 20 32  1  0  0  0  0
 20 33  2  0  0  0  0
 20 37  1  0  0  0  0
 21 23  2  0  0  0  0
 21 43  1  0  0  0  0
 22 24  2  0  0  0  0
 22 44  1  0  0  0  0
 23 52  1  0  0  0  0
 24 45  1  0  0  0  0
 25 26  2  0  0  0  0
 25 55  1  0  0  0  0
 26 72  1  0  0  0  0
 27 81  1  0  0  0  0
 28 82  1  0  0  0  0
 29 31  2  0  0  0  0
 29 81  1  0  0  0  0
 30 83  1  0  0  0  0
 31 84  1  0  0  0  0
 32 66  2  0  0  0  0
 33 67  1  0  0  0  0
 33 70  1  0  0  0  0
 34 35  2  0  0  0  0
 34 38  1  0  0  0  0
 35 82  1  0  0  0  0
 36 38  2  0  0  0  0
 36 56  1  0  0  0  0
 37 71  1  0  0  0  0
 37 76  2  0  0  0  0
 38 57  1  0  0  0  0
 39 53  1  0  0  0  0
 39 73  1  0  0  0  0
 39 77  2  0  0  0  0
 40 63  1  0  0  0  0
 40 68  1  0  0  0  0
 40 78  2  0  0  0  0
 41 64  1  0  0  0  0
 41 74  1  0  0  0  0
 41 79  2  0  0  0  0
 42 69  1  0  0  0  0
 42 72  1  0  0  0  0
 42 80  2  0  0  0  0
 43 46  1  0  0  0  0
 44 53  1  0  0  0  0
 45 68  1  0  0  0  0
 46 48  1  0  0  0  0
 47 49  1  0  0  0  0
 47 50  1  0  0  0  0
 48 52  1  0  0  0  0
 49 54  1  0  0  0  0
 50 69  1  0  0  0  0
 51 54  1  0  0  0  0
 51 69  1  0  0  0  0
 52 73  1  0  0  0  0
 53 68  1  0  0  0  0
 54 67  1  0  0  0  0
 58 64  1  0  0  0  0
 59 65  1  0  0  0  0
 60 65  1  0  0  0  0
 61 65  1  0  0  0  0
 62 75  1  0  0  0  0
 63 65  1  0  0  0  0
 63 74  1  0  0  0  0
 64 75  1  0  0  0  0
 66 67  1  0  0  0  0
M  CHG  1  75   1
M  ISO  4  35 101  42 100  72 100  82 101
M  END
> <Batch ID>
0121

> <Smiles>
CNC(C)C(=O)NC(C(=O)N1Cc2cc([101O:1][101CH:1]=CC(C)=C(C)c3ccc(C)c([100NH:0][100C:0](=O)N4CCCC(n5nc(-c6ccc(Oc7ccc(F)cc7F)cc6)c(C(N)=O)c5N)C4)c3)ccc2CC1C(=O)NC1CCCc2ccccc21)C(C)(C)C

> <Shape>
0.252

> <Color>
0.112

> <Negative vol penalty>
0.000

$$$$

  -OEChem-04052301573D

 84 92  0     1  0  0  0  0  0999 V2000
  -19.7076  -12.2846   18.3983 C   0  0  0  0  0  0  0  0  0  0  0  0
  -20.4100  -13.4756   18.5512 C   0  0  0  0  0  0  0  0  0  0  0  0
  -23.0004   -9.8944   19.9813 C   0  0  0  0  0  0  0  0  0  0  0  0
  -23.7306   -9.9433   22.2838 C   0  0  0  0  0  0  0  0  0  0  0  0
  -18.4428  -12.2929   17.8117 C   0  0  0  0  0  0  0  0  0  0  0  0
  -19.8484  -14.6757   18.1166 C   0  0  0  0  0  0  0  0  0  0  0  0
  -20.4012  -18.4131   21.4887 C   0  0  0  0  0  0  0  0  0  0  0  0
  -22.2355   -8.7588   20.2480 C   0  0  0  0  0  0  0  0  0  0  0  0
  -22.9657   -8.8078   22.5505 C   0  0  0  0  0  0  0  0  0  0  0  0
  -21.6496  -19.0302   21.5563 C   0  0  0  0  0  0  0  0  0  0  0  0
  -23.2122   -5.4696   22.0741 C   0  0  0  0  0  0  0  0  0  0  0  0
  -23.8024   -4.4521   22.8237 C   0  0  0  0  0  0  0  0  0  0  0  0
  -29.3460  -18.6170   20.9136 C   0  0  0  0  0  0  0  0  0  0  0  0
  -30.1127  -20.0222   19.1041 C   0  0  0  0  0  0  0  0  0  0  0  0
  -20.8121  -20.8571   20.2221 C   0  0  0  0  0  0  0  0  0  0  0  0
  -31.5677  -18.3204   20.0117 C   0  0  0  0  0  0  0  0  0  0  0  0
  -22.0819   -4.6914   24.5030 C   0  0  0  0  0  0  0  0  0  0  0  0
  -23.7479  -10.4866   20.9992 C   0  0  0  0  0  0  0  0  0  0  0  0
  -29.1166  -19.6527   20.0079 C   0  0  0  0  0  0  0  0  0  0  0  0
  -24.1304  -13.0028   20.8253 C   0  0  0  0  0  0  0  0  0  0  0  0
  -17.8613  -13.4949   17.3784 C   0  0  0  0  0  0  0  0  0  0  0  0
  -19.3503  -19.0091   20.7769 C   0  0  0  0  0  0  0  0  0  0  0  0
  -18.5752  -14.6999   17.5224 C   0  0  0  0  0  0  0  0  0  0  0  0
  -19.5507  -20.2468   20.1491 C   0  0  0  0  0  0  0  0  0  0  0  0
  -30.5716  -17.9509   20.9156 C   0  0  0  0  0  0  0  0  0  0  0  0
  -22.2181   -8.2155   21.5326 C   0  0  0  0  0  0  0  0  0  0  0  0
  -21.8561  -20.2509   20.9205 C   0  0  0  0  0  0  0  0  0  0  0  0
  -22.0569   -6.0981   22.5390 C   0  0  0  0  0  0  0  0  0  0  0  0
  -23.2373   -4.0630   24.0382 C   0  0  0  0  0  0  0  0  0  0  0  0
  -31.3382  -19.3560   19.1060 C   0  0  0  0  0  0  0  0  0  0  0  0
  -21.4918   -5.7090   23.7534 C   0  0  0  0  0  0  0  0  0  0  0  0
  -24.5387  -11.6593   20.7242 C   0  0  0  0  0  0  0  0  0  0  0  0
  -25.2387  -13.7269   20.4593 C   0  0  0  0  0  0  0  0  0  0  0  0
  -27.8225  -20.3575   20.0061 C   0  0  0  0  0  0  0  0  0  0  0  0
  -26.6899  -19.8705   20.5320 C   0  0  0  0  0  0  0  0  0  0  0  0
  -22.8628  -13.5475   21.2153 C   0  0  0  0  0  0  0  0  0  0  0  0
  -25.4266  -20.6615   20.4696 C   0  0  0  0  0  0  0  0  0  0  0  0
  -17.6028  -18.1894   18.2514 C   0  0  0  0  0  0  0  0  0  0  0  0
  -15.9562  -20.8804   19.0059 C   0  0  0  0  0  0  0  0  0  0  0  0
  -15.9395  -23.9369   20.5238 C   0  0  0  0  0  0  0  0  0  0  0  0
  -30.7347  -14.6665   20.6969 C   0  0  0  0  0  0  0  0  0  0  0  0
  -16.5115  -13.4478   16.7072 C   0  0  0  0  0  0  0  0  0  0  0  0
  -18.0020  -18.3436   20.7359 C   0  0  0  0  0  0  0  0  0  0  0  0
  -18.4492  -20.9381   19.3892 C   0  0  0  0  0  0  0  0  0  0  0  0
  -15.8297  -14.8105   16.6141 C   0  0  0  0  0  0  0  0  0  0  0  0
  -29.5912  -12.2445   18.3510 C   0  0  0  0  0  0  0  0  0  0  0  0
  -16.8120  -15.8660   16.1163 C   0  0  0  0  0  0  0  0  0  0  0  0
  -28.1439  -11.9829   18.7715 C   0  0  0  0  0  0  0  0  0  0  0  0
  -30.4960  -12.4793   19.5586 C   0  0  0  0  0  0  0  0  0  0  0  0
  -28.5881  -13.2714   20.9025 C   0  0  0  0  0  0  0  0  0  0  0  0
  -17.9891  -16.0252   17.0861 C   0  0  1  0  0  0  0  0  0  0  0  0
  -17.1505  -18.7911   19.5518 C   0  0  1  0  0  0  0  0  0  0  0  0
  -27.6266  -13.0842   19.7164 C   0  0  2  0  0  0  0  0  0  0  0  0
  -14.4613  -25.9216   20.9401 C   0  0  0  0  0  0  0  0  0  0  0  0
  -16.3788  -21.7961   16.1261 C   0  0  0  0  0  0  0  0  0  0  0  0
  -15.7487  -24.1106   16.8432 C   0  0  0  0  0  0  0  0  0  0  0  0
  -14.0966  -22.2521   17.0416 C   0  0  0  0  0  0  0  0  0  0  0  0
  -16.0848  -23.5759   23.4577 C   0  0  0  0  0  0  0  0  0  0  0  0
  -30.8179  -16.8441   21.8844 C   0  0  0  0  0  0  0  0  0  0  0  0
  -24.2150  -20.0058   21.0977 C   0  0  0  0  0  0  0  0  0  1  0  0
  -16.0614  -22.3388   18.6303 C   0  0  1  0  0  0  0  0  0  0  0  0
  -14.9488  -24.5839   21.4747 C   0  0  2  0  0  0  0  0  0  0  0  0
  -15.5929  -22.6107   17.1729 C   0  0  0  0  0  0  0  0  0  0  0  0
  -25.8072  -11.5345   20.3251 N   0  0  0  0  0  0  0  0  0  0  0  0
  -26.2056  -12.8088   20.1721 N   0  0  0  0  0  0  0  0  0  0  0  0
  -17.1507  -20.2444   19.3726 N   0  0  0  0  0  0  0  0  0  0  0  0
  -29.9501  -13.5365   20.4131 N   0  0  0  0  0  0  0  0  0  0  0  0
  -25.4706  -15.0529   20.3583 N   0  0  0  0  0  0  0  0  0  0  0  0
  -21.8326  -12.6619   21.5600 N   0  0  0  0  0  0  0  0  0  0  0  0
  -17.5932  -16.8076   18.2374 N   0  0  0  0  0  0  0  0  0  0  0  0
  -15.3165  -23.0763   19.6449 N   0  0  0  0  0  0  0  0  0  0  0  0
  -30.1392  -15.6238   21.5091 N   0  0  0  0  0  0  0  0  0  0  0  0
  -15.5806  -24.8116   22.8051 N   0  3  0  0  0  0  0  0  0  0  0  0
  -22.6449  -14.7826   21.2409 O   0  0  0  0  0  0  0  0  0  0  0  0
  -25.3763  -21.7701   19.9435 O   0  0  0  0  0  0  0  0  0  0  0  0
  -17.9345  -18.9242   17.3285 O   0  0  0  0  0  0  0  0  0  0  0  0
  -14.8537  -20.3278   18.9818 O   0  0  0  0  0  0  0  0  0  0  0  0
  -17.1450  -24.1742   20.5550 O   0  0  0  0  0  0  0  0  0  0  0  0
  -31.8790  -14.8141   20.2544 O   0  0  0  0  0  0  0  0  0  0  0  0
  -21.4717   -7.1076   21.7932 O   0  0  0  0  0  0  0  0  0  0  0  0
  -23.0738  -20.8550   20.9844 O   0  0  0  0  0  0  0  0  0  1  0  0
  -23.8032   -3.0848   24.7572 F   0  0  0  0  0  0  0  0  0  0  0  0
  -32.2955  -19.7120   18.2391 F   0  0  0  0  0  0  0  0  0  0  0  0
  -20.3813   -6.3082   24.2046 F   0  0  0  0  0  0  0  0  0  0  0  0
  1  2  1  0  0  0  0
  1  5  2  0  0  0  0
  2  6  2  0  0  0  0
  3  8  2  0  0  0  0
  3 18  1  0  0  0  0
  4  9  1  0  0  0  0
  4 18  2  0  0  0  0
  5 21  1  0  0  0  0
  6 23  1  0  0  0  0
  7 10  2  0  0  0  0
  7 22  1  0  0  0  0
  8 26  1  0  0  0  0
  9 26  2  0  0  0  0
 10 27  1  0  0  0  0
 11 12  2  0  0  0  0
 11 28  1  0  0  0  0
 12 29  1  0  0  0  0
 13 19  2  0  0  0  0
 13 25  1  0  0  0  0
 14 19  1  0  0  0  0
 14 30  2  0  0  0  0
 15 24  1  0  0  0  0
 15 27  2  0  0  0  0
 16 25  2  0  0  0  0
 16 30  1  0  0  0  0
 17 29  2  0  0  0  0
 17 31  1  0  0  0  0
 18 32  1  0  0  0  0
 19 34  1  0  0  0  0
 20 32  1  0  0  0  0
 20 33  2  0  0  0  0
 20 36  1  0  0  0  0
 21 23  2  0  0  0  0
 21 42  1  0  0  0  0
 22 24  2  0  0  0  0
 22 43  1  0  0  0  0
 23 51  1  0  0  0  0
 24 44  1  0  0  0  0
 25 59  1  0  0  0  0
 26 80  1  0  0  0  0
 27 81  1  0  0  0  0
 28 31  2  0  0  0  0
 28 80  1  0  0  0  0
 29 82  1  0  0  0  0
 30 83  1  0  0  0  0
 31 84  1  0  0  0  0
 32 64  2  0  0  0  0
 33 65  1  0  0  0  0
 33 68  1  0  0  0  0
 34 35  2  0  0  0  0
 35 37  1  0  0  0  0
 36 69  1  0  0  0  0
 36 74  2  0  0  0  0
 37 60  1  0  0  0  0
 37 75  2  0  0  0  0
 38 52  1  0  0  0  0
 38 70  1  0  0  0  0
 38 76  2  0  0  0  0
 39 61  1  0  0  0  0
 39 66  1  0  0  0  0
 39 77  2  0  0  0  0
 40 62  1  0  0  0  0
 40 71  1  0  0  0  0
 40 78  2  0  0  0  0
 41 67  1  0  0  0  0
 41 72  1  0  0  0  0
 41 79  2  0  0  0  0
 42 45  1  0  0  0  0
 43 52  1  0  0  0  0
 44 66  1  0  0  0  0
 45 47  1  0  0  0  0
 46 48  1  0  0  0  0
 46 49  1  0  0  0  0
 47 51  1  0  0  0  0
 48 53  1  0  0  0  0
 49 67  1  0  0  0  0
 50 53  1  0  0  0  0
 50 67  1  0  0  0  0
 51 70  1  0  0  0  0
 52 66  1  0  0  0  0
 53 65  1  0  0  0  0
 54 62  1  0  0  0  0
 55 63  1  0  0  0  0
 56 63  1  0  0  0  0
 57 63  1  0  0  0  0
 58 73  1  0  0  0  0
 59 72  1  0  0  0  0
 60 81  1  0  0  0  0
 61 63  1  0  0  0  0
 61 71  1  0  0  0  0
 62 73  1  0  0  0  0
 64 65  1  0  0  0  0
M  CHG  1  73   1
M  ISO  4  41 100  60 101  72 100  81 101
M  END
> <Batch ID>
0121

> <Smiles>
CNC(C)C(=O)NC(C(=O)N1Cc2cc([101O:1][101CH2:1]C(=O)C=Cc3cc(F)cc(C[100NH:0][100C:0](=O)N4CCCC(n5nc(-c6ccc(Oc7ccc(F)cc7F)cc6)c(C(N)=O)c5N)C4)c3)ccc2CC1C(=O)NC1CCCc2ccccc21)C(C)(C)C

> <Shape>
0.200

> <Color>
0.202

> <Negative vol penalty>
0.000

$$$$

  -OEChem-04052301573D

 84 92  0     1  0  0  0  0  0999 V2000
  -18.4275  -25.6976   19.6017 C   0  0  0  0  0  0  0  0  0  0  0  0
  -19.4149  -26.5165   19.0633 C   0  0  0  0  0  0  0  0  0  0  0  0
  -24.9582  -14.6713   22.2738 C   0  0  0  0  0  0  0  0  0  0  0  0
  -24.3919  -15.6252   20.1275 C   0  0  0  0  0  0  0  0  0  0  0  0
  -29.0396  -26.3397   19.2148 C   0  0  0  0  0  0  0  0  0  0  0  0
  -30.3430  -24.5643   18.2216 C   0  0  0  0  0  0  0  0  0  0  0  0
  -18.2319  -25.6583   20.9816 C   0  0  0  0  0  0  0  0  0  0  0  0
  -20.2067  -27.2974   19.9045 C   0  0  0  0  0  0  0  0  0  0  0  0
  -25.1163  -27.1104   18.6772 C   0  0  0  0  0  0  0  0  0  0  0  0
  -28.5046  -25.4343   20.1311 C   0  0  0  0  0  0  0  0  0  0  0  0
  -29.8081  -23.6589   19.1380 C   0  0  0  0  0  0  0  0  0  0  0  0
  -24.0251  -13.6551   22.0683 C   0  0  0  0  0  0  0  0  0  0  0  0
  -23.4589  -14.6089   19.9220 C   0  0  0  0  0  0  0  0  0  0  0  0
  -25.5300  -27.8767   17.5884 C   0  0  0  0  0  0  0  0  0  0  0  0
  -23.8354  -10.7621   20.3282 C   0  0  0  0  0  0  0  0  0  0  0  0
  -24.2232   -9.4560   20.6268 C   0  0  0  0  0  0  0  0  0  0  0  0
  -26.3521  -29.5683   19.0990 C   0  0  0  0  0  0  0  0  0  0  0  0
  -22.4388   -9.2967   22.2478 C   0  0  0  0  0  0  0  0  0  0  0  0
  -25.1416  -15.6564   21.3034 C   0  0  0  0  0  0  0  0  0  0  0  0
  -29.9588  -25.9047   18.2600 C   0  0  0  0  0  0  0  0  0  0  0  0
  -27.4651  -16.6987   21.1526 C   0  0  0  0  0  0  0  0  0  0  0  0
  -19.0282  -26.4318   21.8408 C   0  0  0  0  0  0  0  0  0  0  0  0
  -25.3078  -27.5731   19.9870 C   0  0  0  0  0  0  0  0  0  0  0  0
  -20.0208  -27.2694   21.2971 C   0  0  0  0  0  0  0  0  0  0  0  0
  -25.9422  -28.8049   20.2027 C   0  0  0  0  0  0  0  0  0  0  0  0
  -28.8889  -24.0940   20.0928 C   0  0  0  0  0  0  0  0  0  0  0  0
  -23.2755  -13.6239   20.8924 C   0  0  0  0  0  0  0  0  0  0  0  0
  -26.1454  -29.1071   17.7991 C   0  0  0  0  0  0  0  0  0  0  0  0
  -22.7493  -11.3356   20.9895 C   0  0  0  0  0  0  0  0  0  0  0  0
  -23.5249   -8.7232   21.5865 C   0  0  0  0  0  0  0  0  0  0  0  0
  -22.0510  -10.6029   21.9493 C   0  0  0  0  0  0  0  0  0  0  0  0
  -26.1049  -16.7068   21.5153 C   0  0  0  0  0  0  0  0  0  0  0  0
  -27.9388  -17.9188   21.5690 C   0  0  0  0  0  0  0  0  0  0  0  0
  -29.5606  -27.5668   16.3875 C   0  0  0  0  0  0  0  0  0  0  0  0
  -29.8186  -28.7944   15.9166 C   0  0  0  0  0  0  0  0  0  0  0  0
  -30.5299  -26.8714   17.2813 C   0  0  0  0  0  0  0  0  0  0  0  0
  -28.2318  -15.6794   20.4977 C   0  0  0  0  0  0  0  0  0  0  0  0
  -23.3855  -28.3187   22.4062 C   0  0  0  0  0  0  0  0  0  0  0  0
  -26.1820  -28.6480   24.0167 C   0  0  0  0  0  0  0  0  0  0  0  0
  -29.5421  -29.2332   23.8980 C   0  0  0  0  0  0  0  0  0  0  0  0
  -27.4225  -23.4432   22.0351 C   0  0  0  0  0  0  0  0  0  0  0  0
  -18.7481  -26.3918   23.3223 C   0  0  0  0  0  0  0  0  0  0  0  0
  -24.8799  -26.7225   21.1514 C   0  0  0  0  0  0  0  0  0  0  0  0
  -26.1895  -29.3374   21.5897 C   0  0  0  0  0  0  0  0  0  0  0  0
  -19.8789  -26.9664   24.1716 C   0  0  0  0  0  0  0  0  0  0  0  0
  -25.8122  -21.4497   24.5070 C   0  0  0  0  0  0  0  0  0  0  0  0
  -20.3576  -28.2950   23.5950 C   0  0  0  0  0  0  0  0  0  0  0  0
  -25.8567  -20.0374   23.9192 C   0  0  0  0  0  0  0  0  0  0  0  0
  -25.5892  -22.5068   23.4269 C   0  0  0  0  0  0  0  0  0  0  0  0
  -26.5724  -21.0374   21.7113 C   0  0  0  0  0  0  0  0  0  0  0  0
  -20.9164  -28.1124   22.1787 C   0  0  1  0  0  0  0  0  0  0  0  0
  -24.6615  -27.5257   22.4298 C   0  0  1  0  0  0  0  0  0  0  0  0
  -26.8600  -19.9438   22.7529 C   0  0  2  0  0  0  0  0  0  0  0  0
  -31.8979  -29.4552   24.7336 C   0  0  0  0  0  0  0  0  0  0  0  0
  -25.2528  -31.4448   24.8072 C   0  0  0  0  0  0  0  0  0  0  0  0
  -27.6156  -31.9741   25.4438 C   0  0  0  0  0  0  0  0  0  0  0  0
  -26.3802  -30.1643   26.6358 C   0  0  0  0  0  0  0  0  0  0  0  0
  -30.0868  -26.3551   23.4746 C   0  0  0  0  0  0  0  0  0  0  0  0
  -28.8855  -29.5410   15.0066 C   0  0  0  0  0  0  0  0  0  0  0  0
  -28.4075  -30.8655   15.6034 C   0  0  0  0  0  0  0  0  0  0  0  0
  -27.6827  -30.7023   16.9343 C   0  0  0  0  0  0  0  0  0  1  0  0
  -27.1496  -29.7814   24.2581 C   0  0  1  0  0  0  0  0  0  0  0  0
  -30.7124  -28.5203   24.5513 C   0  0  2  0  0  0  0  0  0  0  0  0
  -26.5933  -30.8323   25.2599 C   0  0  0  0  0  0  0  0  0  0  0  0
  -25.7382  -17.8420   22.1160 N   0  0  0  0  0  0  0  0  0  0  0  0
  -31.8038  -27.1043   17.2833 N   0  0  0  0  0  0  0  0  0  0  0  0
  -26.8750  -18.5585   22.1341 N   0  0  0  0  0  0  0  0  0  0  0  0
  -25.7473  -28.4717   22.6954 N   0  0  0  0  0  0  0  0  0  0  0  0
  -26.5786  -22.3593   22.3573 N   0  0  0  0  0  0  0  0  0  0  0  0
  -29.1573  -18.4961   21.5032 N   0  0  0  0  0  0  0  0  0  0  0  0
  -27.5890  -14.4869   20.1382 N   0  0  0  0  0  0  0  0  0  0  0  0
  -28.3450  -23.1751   21.0243 N   0  0  0  0  0  0  0  0  0  0  0  0
  -22.2497  -27.5518   22.2298 N   0  0  0  0  0  0  0  0  0  0  0  0
  -28.4046  -29.1649   24.6743 N   0  0  0  0  0  0  0  0  0  0  0  0
  -31.1482  -27.3663   23.7150 N   0  3  0  0  0  0  0  0  0  0  0  0
  -29.4548  -15.8152   20.2538 O   0  0  0  0  0  0  0  0  0  0  0  0
  -23.4282  -29.5361   22.5397 O   0  0  0  0  0  0  0  0  0  0  0  0
  -25.8305  -27.9407   24.9642 O   0  0  0  0  0  0  0  0  0  0  0  0
  -29.6293  -29.7975   22.8097 O   0  0  0  0  0  0  0  0  0  0  0  0
  -27.3516  -24.5206   22.6320 O   0  0  0  0  0  0  0  0  0  0  0  0
  -22.3651  -12.6322   20.6915 O   0  0  0  0  0  0  0  0  0  0  0  0
  -26.5496  -29.8573   16.7381 O   0  0  0  0  0  0  0  0  0  1  0  0
  -23.8965   -7.4684   21.8720 F   0  0  0  0  0  0  0  0  0  0  0  0
  -21.0061  -11.1480   22.5870 F   0  0  0  0  0  0  0  0  0  0  0  0
  1  2  1  0  0  0  0
  1  7  2  0  0  0  0
  2  8  2  0  0  0  0
  3 12  2  0  0  0  0
  3 19  1  0  0  0  0
  4 13  1  0  0  0  0
  4 19  2  0  0  0  0
  5 10  2  0  0  0  0
  5 20  1  0  0  0  0
  6 11  1  0  0  0  0
  6 20  2  0  0  0  0
  7 22  1  0  0  0  0
  8 24  1  0  0  0  0
  9 14  2  0  0  0  0
  9 23  1  0  0  0  0
 10 26  1  0  0  0  0
 11 26  2  0  0  0  0
 12 27  1  0  0  0  0
 13 27  2  0  0  0  0
 14 28  1  0  0  0  0
 15 16  2  0  0  0  0
 15 29  1  0  0  0  0
 16 30  1  0  0  0  0
 17 25  1  0  0  0  0
 17 28  2  0  0  0  0
 18 30  2  0  0  0  0
 18 31  1  0  0  0  0
 19 32  1  0  0  0  0
 20 36  1  0  0  0  0
 21 32  1  0  0  0  0
 21 33  2  0  0  0  0
 21 37  1  0  0  0  0
 22 24  2  0  0  0  0
 22 42  1  0  0  0  0
 23 25  2  0  0  0  0
 23 43  1  0  0  0  0
 24 51  1  0  0  0  0
 25 44  1  0  0  0  0
 26 72  1  0  0  0  0
 27 81  1  0  0  0  0
 28 82  1  0  0  0  0
 29 31  2  0  0  0  0
 29 81  1  0  0  0  0
 30 83  1  0  0  0  0
 31 84  1  0  0  0  0
 32 65  2  0  0  0  0
 33 67  1  0  0  0  0
 33 70  1  0  0  0  0
 34 35  2  0  0  0  0
 34 36  1  0  0  0  0
 35 59  1  0  0  0  0
 36 66  2  0  0  0  0
 37 71  1  0  0  0  0
 37 76  2  0  0  0  0
 38 52  1  0  0  0  0
 38 73  1  0  0  0  0
 38 77  2  0  0  0  0
 39 62  1  0  0  0  0
 39 68  1  0  0  0  0
 39 78  2  0  0  0  0
 40 63  1  0  0  0  0
 40 74  1  0  0  0  0
 40 79  2  0  0  0  0
 41 69  1  0  0  0  0
 41 72  1  0  0  0  0
 41 80  2  0  0  0  0
 42 45  1  0  0  0  0
 43 52  1  0  0  0  0
 44 68  1  0  0  0  0
 45 47  1  0  0  0  0
 46 48  1  0  0  0  0
 46 49  1  0  0  0  0
 47 51  1  0  0  0  0
 48 53  1  0  0  0  0
 49 69  1  0  0  0  0
 50 53  1  0  0  0  0
 50 69  1  0  0  0  0
 51 73  1  0  0  0  0
 52 68  1  0  0  0  0
 53 67  1  0  0  0  0
 54 63  1  0  0  0  0
 55 64  1  0  0  0  0
 56 64  1  0  0  0  0
 57 64  1  0  0  0  0
 58 75  1  0  0  0  0
 59 60  1  0  0  0  0
 60 61  1  0  0  0  0
 61 82  1  0  0  0  0
 62 64  1  0  0  0  0
 62 74  1  0  0  0  0
 63 75  1  0  0  0  0
 65 67  1  0  0  0  0
M  CHG  1  75   1
M  ISO  4  41 100  61 101  72 100  82 101
M  END
> <Batch ID>
0121

> <Smiles>
CNC(C)C(=O)NC(C(=O)N1Cc2cc([101O:1][101CH2:1]CCC=CC(=N)c3ccc([100NH:0][100C:0](=O)N4CCCC(n5nc(-c6ccc(Oc7ccc(F)cc7F)cc6)c(C(N)=O)c5N)C4)cc3)ccc2CC1C(=O)NC1CCCc2ccccc21)C(C)(C)C

> <Shape>
0.247

> <Color>
0.053

> <Negative vol penalty>
0.000

$$$$

  -OEChem-04052301573D

 86 94  0     1  0  0  0  0  0999 V2000
  -27.3224  -36.9728   24.2666 C   0  0  0  0  0  0  0  0  0  0  0  0
  -27.8977  -35.8598   23.6620 C   0  0  0  0  0  0  0  0  0  0  0  0
  -25.2933   -7.1072   22.8166 C   0  0  0  0  0  0  0  0  0  0  0  0
  -23.2819   -7.4040   24.1217 C   0  0  0  0  0  0  0  0  0  0  0  0
  -25.5038  -20.0998   18.5544 C   0  0  0  0  0  0  0  0  0  0  0  0
  -25.4076  -18.7352   18.8267 C   0  0  0  0  0  0  0  0  0  0  0  0
  -26.1649  -36.8294   25.0306 C   0  0  0  0  0  0  0  0  0  0  0  0
  -27.3164  -34.6024   23.8220 C   0  0  0  0  0  0  0  0  0  0  0  0
  -27.1280  -30.0818   19.6947 C   0  0  0  0  0  0  0  0  0  0  0  0
  -25.7778   -6.2091   23.7674 C   0  0  0  0  0  0  0  0  0  0  0  0
  -23.7664   -6.5058   25.0726 C   0  0  0  0  0  0  0  0  0  0  0  0
  -27.9059  -28.9381   19.5200 C   0  0  0  0  0  0  0  0  0  0  0  0
  -25.3025   -2.9670   24.6014 C   0  0  0  0  0  0  0  0  0  0  0  0
  -25.8759   -1.7819   24.1407 C   0  0  0  0  0  0  0  0  0  0  0  0
  -27.9136  -19.9277   18.5428 C   0  0  0  0  0  0  0  0  0  0  0  0
  -26.2721  -27.6480   20.7389 C   0  0  0  0  0  0  0  0  0  0  0  0
  -27.9599   -2.3747   25.2096 C   0  0  0  0  0  0  0  0  0  0  0  0
  -24.0453   -7.7047   22.9937 C   0  0  0  0  0  0  0  0  0  0  0  0
  -26.7568  -20.6961   18.4124 C   0  0  0  0  0  0  0  0  0  0  0  0
  -26.5644  -17.9668   18.9571 C   0  0  0  0  0  0  0  0  0  0  0  0
  -22.7647   -8.3334   20.8789 C   0  0  0  0  0  0  0  0  0  0  0  0
  -25.5637  -35.5711   25.1920 C   0  0  0  0  0  0  0  0  0  0  0  0
  -25.9196  -30.0193   20.4033 C   0  0  0  0  0  0  0  0  0  0  0  0
  -26.1506  -34.4418   24.5899 C   0  0  0  0  0  0  0  0  0  0  0  0
  -25.4794  -28.7918   20.9189 C   0  0  0  0  0  0  0  0  0  0  0  0
  -27.8175  -18.5631   18.8151 C   0  0  0  0  0  0  0  0  0  0  0  0
  -25.0144   -5.9084   24.8955 C   0  0  0  0  0  0  0  0  0  0  0  0
  -27.4795  -27.7215   20.0447 C   0  0  0  0  0  0  0  0  0  0  0  0
  -26.0578   -3.8561   25.3661 C   0  0  0  0  0  0  0  0  0  0  0  0
  -27.2046   -1.4857   24.4449 C   0  0  0  0  0  0  0  0  0  0  0  0
  -27.3865   -3.5599   25.6703 C   0  0  0  0  0  0  0  0  0  0  0  0
  -23.5445   -8.6330   22.0121 C   0  0  0  0  0  0  0  0  0  0  0  0
  -22.5525   -9.5496   20.2769 C   0  0  0  0  0  0  0  0  0  0  0  0
  -26.8574  -22.1380   18.1256 C   0  0  0  0  0  0  0  0  0  0  0  0
  -26.4311  -16.5441   19.2412 C   0  0  0  0  0  0  0  0  0  0  0  0
  -27.9506  -22.8828   18.3421 C   0  0  0  0  0  0  0  0  0  0  0  0
  -25.8112  -16.0175   20.3170 C   0  0  0  0  0  0  0  0  0  0  0  0
  -22.2759   -7.0690   20.4122 C   0  0  0  0  0  0  0  0  0  0  0  0
  -27.9474  -24.3424   18.0258 C   0  0  0  0  0  0  0  0  0  0  0  0
  -25.7504  -14.5489   20.4593 C   0  0  0  0  0  0  0  0  0  0  0  0
  -24.8080  -31.3558   23.0645 C   0  0  0  0  0  0  0  0  0  0  0  0
  -22.0437  -29.9128   22.1708 C   0  0  0  0  0  0  0  0  0  0  0  0
  -20.5136  -27.4200   20.4125 C   0  0  0  0  0  0  0  0  0  0  0  0
  -24.3398  -35.4581   26.0660 C   0  0  0  0  0  0  0  0  0  0  0  0
  -25.0789  -31.2567   20.5599 C   0  0  0  0  0  0  0  0  0  0  0  0
  -24.1799  -28.6674   21.6700 C   0  0  0  0  0  0  0  0  0  0  0  0
  -23.5753  -34.1504   25.8774 C   0  0  0  0  0  0  0  0  0  0  0  0
  -22.1875  -14.2060   21.2464 C   0  0  0  0  0  0  0  0  0  0  0  0
  -24.5361  -32.9655   25.8782 C   0  0  0  0  0  0  0  0  0  0  0  0
  -22.0807  -12.7005   21.4745 C   0  0  0  0  0  0  0  0  0  0  0  0
  -23.5343  -14.7601   21.7085 C   0  0  0  0  0  0  0  0  0  0  0  0
  -24.5984  -12.5538   21.3341 C   0  0  0  0  0  0  0  0  0  0  0  0
  -25.5357  -33.0651   24.7196 C   0  0  1  0  0  0  0  0  0  0  0  0
  -24.1172  -31.1800   21.7418 C   0  0  1  0  0  0  0  0  0  0  0  0
  -23.2694  -11.9672   20.8332 C   0  0  1  0  0  0  0  0  0  0  0  0
  -29.4187  -17.4702   20.4051 C   0  0  0  0  0  0  0  0  0  0  0  0
  -18.2458  -26.4730   19.9051 C   0  0  0  0  0  0  0  0  0  0  0  0
  -21.9554  -28.6443   24.9444 C   0  0  0  0  0  0  0  0  0  0  0  0
  -20.2605  -27.0213   24.0718 C   0  0  0  0  0  0  0  0  0  0  0  0
  -19.7479  -29.4624   24.1007 C   0  0  0  0  0  0  0  0  0  0  0  0
  -20.8198  -27.9336   17.5140 C   0  0  0  0  0  0  0  0  0  0  0  0
  -29.0783  -17.7709   18.9492 C   0  0  0  0  0  0  0  0  0  0  0  0
  -29.2487  -25.0741   18.3170 C   0  0  0  0  0  0  0  0  0  0  0  0
  -29.0361  -26.5325   18.6960 C   0  0  0  0  0  0  0  0  0  1  0  0
  -21.4115  -28.5651   22.4217 C   0  0  1  0  0  0  0  0  0  0  0  0
  -19.3327  -27.4385   19.4588 C   0  0  2  0  0  0  0  0  0  0  0  0
  -20.8693  -28.4257   23.8722 C   0  0  0  0  0  0  0  0  0  0  0  0
  -23.8098   -9.9371   22.1254 N   0  0  0  0  0  0  0  0  0  0  0  0
  -23.1934  -10.4678   21.0556 N   0  0  0  0  0  0  0  0  0  0  0  0
  -24.6548  -14.0053   21.1276 N   0  0  0  0  0  0  0  0  0  0  0  0
  -23.3964  -29.9068   21.8023 N   0  0  0  0  0  0  0  0  0  0  0  0
  -21.8822   -9.9124   19.1627 N   0  0  0  0  0  0  0  0  0  0  0  0
  -22.5862   -5.9189   21.1506 N   0  0  0  0  0  0  0  0  0  0  0  0
  -24.9090  -32.6710   23.4761 N   0  0  0  0  0  0  0  0  0  0  0  0
  -20.3992  -28.3898   21.3860 N   0  0  0  0  0  0  0  0  0  0  0  0
  -19.7689  -27.0535   18.0868 N   0  3  0  0  0  0  0  0  0  0  0  0
  -21.5981   -6.9601   19.3623 O   0  0  0  0  0  0  0  0  0  0  0  0
  -26.9569  -24.9006   17.5620 O   0  0  0  0  0  0  0  0  0  0  0  0
  -26.6774  -13.8925   19.9813 O   0  0  0  0  0  0  0  0  0  0  0  0
  -25.2176  -30.3709   23.6678 O   0  0  0  0  0  0  0  0  0  0  0  0
  -21.3604  -30.9329   22.2901 O   0  0  0  0  0  0  0  0  0  0  0  0
  -21.4427  -26.6224   20.3069 O   0  0  0  0  0  0  0  0  0  0  0  0
  -25.4868   -5.0319   25.8234 O   0  0  0  0  0  0  0  0  0  0  0  0
  -28.2372  -26.6038   19.8762 O   0  0  0  0  0  0  0  0  0  1  0  0
  -27.7547   -0.3468   24.0037 F   0  0  0  0  0  0  0  0  0  0  0  0
  -28.1168   -4.4095   26.4055 F   0  0  0  0  0  0  0  0  0  0  0  0
  1  2  1  0  0  0  0
  1  7  2  0  0  0  0
  2  8  2  0  0  0  0
  3 10  2  0  0  0  0
  3 18  1  0  0  0  0
  4 11  1  0  0  0  0
  4 18  2  0  0  0  0
  5  6  2  0  0  0  0
  5 19  1  0  0  0  0
  6 20  1  0  0  0  0
  7 22  1  0  0  0  0
  8 24  1  0  0  0  0
  9 12  2  0  0  0  0
  9 23  1  0  0  0  0
 10 27  1  0  0  0  0
 11 27  2  0  0  0  0
 12 28  1  0  0  0  0
 13 14  2  0  0  0  0
 13 29  1  0  0  0  0
 14 30  1  0  0  0  0
 15 19  2  0  0  0  0
 15 26  1  0  0  0  0
 16 25  1  0  0  0  0
 16 28  2  0  0  0  0
 17 30  2  0  0  0  0
 17 31  1  0  0  0  0
 18 32  1  0  0  0  0
 19 34  1  0  0  0  0
 20 26  2  0  0  0  0
 20 35  1  0  0  0  0
 21 32  1  0  0  0  0
 21 33  2  0  0  0  0
 21 38  1  0  0  0  0
 22 24  2  0  0  0  0
 22 44  1  0  0  0  0
 23 25  2  0  0  0  0
 23 45  1  0  0  0  0
 24 53  1  0  0  0  0
 25 46  1  0  0  0  0
 26 62  1  0  0  0  0
 27 83  1  0  0  0  0
 28 84  1  0  0  0  0
 29 31  2  0  0  0  0
 29 83  1  0  0  0  0
 30 85  1  0  0  0  0
 31 86  1  0  0  0  0
 32 68  2  0  0  0  0
 33 69  1  0  0  0  0
 33 72  1  0  0  0  0
 34 36  2  0  0  0  0
 35 37  2  0  0  0  0
 36 39  1  0  0  0  0
 37 40  1  0  0  0  0
 38 73  1  0  0  0  0
 38 77  2  0  0  0  0
 39 63  1  0  0  0  0
 39 78  2  0  0  0  0
 40 70  1  0  0  0  0
 40 79  2  0  0  0  0
 41 54  1  0  0  0  0
 41 74  1  0  0  0  0
 41 80  2  0  0  0  0
 42 65  1  0  0  0  0
 42 71  1  0  0  0  0
 42 81  2  0  0  0  0
 43 66  1  0  0  0  0
 43 75  1  0  0  0  0
 43 82  2  0  0  0  0
 44 47  1  0  0  0  0
 45 54  1  0  0  0  0
 46 71  1  0  0  0  0
 47 49  1  0  0  0  0
 48 50  1  0  0  0  0
 48 51  1  0  0  0  0
 49 53  1  0  0  0  0
 50 55  1  0  0  0  0
 51 70  1  0  0  0  0
 52 55  1  0  0  0  0
 52 70  1  0  0  0  0
 53 74  1  0  0  0  0
 54 71  1  0  0  0  0
 55 69  1  0  0  0  0
 56 62  1  0  0  0  0
 57 66  1  0  0  0  0
 58 67  1  0  0  0  0
 59 67  1  0  0  0  0
 60 67  1  0  0  0  0
 61 76  1  0  0  0  0
 63 64  1  0  0  0  0
 64 84  1  0  0  0  0
 65 67  1  0  0  0  0
 65 75  1  0  0  0  0
 66 76  1  0  0  0  0
 68 69  1  0  0  0  0
M  CHG  1  76   1
M  ISO  4  37 100  40 100  64 101  84 101
M  END
> <Batch ID>
0121

> <Smiles>
CCc1cc(C=CC(=O)C[101CH2:1][101O:1]c2ccc3c(c2)CN(C(=O)C(NC(=O)C(C)NC)C(C)(C)C)C(C(=O)NC2CCCc4ccccc42)C3)ccc1C=[100CH:0][100C:0](=O)N1CCCC(n2nc(-c3ccc(Oc4ccc(F)cc4F)cc3)c(C(N)=O)c2N)C1

> <Shape>
0.301

> <Color>
0.068

> <Negative vol penalty>
0.000

$$$$

  -OEChem-04052301573D

 87 96  0     1  0  0  0  0  0999 V2000
  -30.5578  -32.2102   25.1609 C   0  0  0  0  0  0  0  0  0  0  0  0
  -30.1516  -31.0557   24.4994 C   0  0  0  0  0  0  0  0  0  0  0  0
  -23.1392   -9.8547   21.5463 C   0  0  0  0  0  0  0  0  0  0  0  0
  -23.7329  -10.9913   23.5940 C   0  0  0  0  0  0  0  0  0  0  0  0
  -29.6265  -32.9744   25.8628 C   0  0  0  0  0  0  0  0  0  0  0  0
  -28.8139  -30.6641   24.5403 C   0  0  0  0  0  0  0  0  0  0  0  0
  -27.0676  -29.2378   20.0059 C   0  0  0  0  0  0  0  0  0  0  0  0
  -32.2284  -18.7741   21.4740 C   0  0  0  0  0  0  0  0  0  0  0  0
  -31.7311  -17.5343   21.0723 C   0  0  0  0  0  0  0  0  0  0  0  0
  -22.4109   -8.9168   22.2781 C   0  0  0  0  0  0  0  0  0  0  0  0
  -23.0046  -10.0534   24.3257 C   0  0  0  0  0  0  0  0  0  0  0  0
  -27.4192  -27.9645   19.5599 C   0  0  0  0  0  0  0  0  0  0  0  0
  -23.0507   -6.1716   24.1433 C   0  0  0  0  0  0  0  0  0  0  0  0
  -23.2123   -4.8260   23.8133 C   0  0  0  0  0  0  0  0  0  0  0  0
  -29.4884  -18.4329   21.0756 C   0  0  0  0  0  0  0  0  0  0  0  0
  -25.2585  -27.1359   20.2412 C   0  0  0  0  0  0  0  0  0  0  0  0
  -20.8554   -4.6672   23.3066 C   0  0  0  0  0  0  0  0  0  0  0  0
  -23.8003  -10.8920   22.2043 C   0  0  0  0  0  0  0  0  0  0  0  0
  -29.9857  -19.6726   21.4773 C   0  0  0  0  0  0  0  0  0  0  0  0
  -24.0812  -13.0739   20.9128 C   0  0  0  0  0  0  0  0  0  0  0  0
  -28.2750  -32.5972   25.9043 C   0  0  0  0  0  0  0  0  0  0  0  0
  -25.8108  -29.4677   20.5838 C   0  0  0  0  0  0  0  0  0  0  0  0
  -27.8639  -31.4233   25.2445 C   0  0  0  0  0  0  0  0  0  0  0  0
  -24.8925  -28.4135   20.6914 C   0  0  0  0  0  0  0  0  0  0  0  0
  -31.3557  -19.8432   21.6765 C   0  0  0  0  0  0  0  0  0  0  0  0
  -30.3611  -17.3637   20.8731 C   0  0  0  0  0  0  0  0  0  0  0  0
  -22.3436   -9.0161   23.6678 C   0  0  0  0  0  0  0  0  0  0  0  0
  -26.5157  -26.9127   19.6802 C   0  0  0  0  0  0  0  0  0  0  0  0
  -21.7914   -6.7650   24.0549 C   0  0  0  0  0  0  0  0  0  0  0  0
  -22.1147   -4.0738   23.3950 C   0  0  0  0  0  0  0  0  0  0  0  0
  -20.6938   -6.0128   23.6366 C   0  0  0  0  0  0  0  0  0  0  0  0
  -24.5532  -11.8608   21.4490 C   0  0  0  0  0  0  0  0  0  0  0  0
  -25.1758  -13.6235   20.2913 C   0  0  0  0  0  0  0  0  0  0  0  0
  -27.7192  -22.7107   20.9149 C   0  0  0  0  0  0  0  0  0  0  0  0
  -27.1882  -23.3658   19.8511 C   0  0  0  0  0  0  0  0  0  0  0  0
  -28.6702  -21.5964   20.7118 C   0  0  0  0  0  0  0  0  0  0  0  0
  -29.0668  -20.7480   21.6771 C   0  0  0  0  0  0  0  0  0  0  0  0
  -22.7706  -13.6522   20.9713 C   0  0  0  0  0  0  0  0  0  0  0  0
  -24.7968  -30.4328   23.4376 C   0  0  0  0  0  0  0  0  0  0  0  0
  -21.8980  -30.4124   21.9820 C   0  0  0  0  0  0  0  0  0  0  0  0
  -19.9212  -29.1976   19.4794 C   0  0  0  0  0  0  0  0  0  0  0  0
  -30.5852  -14.9412   20.2193 C   0  0  0  0  0  0  0  0  0  0  0  0
  -27.3136  -33.4295   26.7152 C   0  0  0  0  0  0  0  0  0  0  0  0
  -25.4368  -30.8528   21.0355 C   0  0  0  0  0  0  0  0  0  0  0  0
  -23.5230  -28.6124   21.2859 C   0  0  0  0  0  0  0  0  0  0  0  0
  -27.4691  -22.9533   18.4170 C   0  0  0  0  0  0  0  0  0  0  0  0
  -29.2262  -21.4256   19.3161 C   0  0  0  0  0  0  0  0  0  0  0  0
  -25.8471  -33.1489   26.3975 C   0  0  0  0  0  0  0  0  0  0  0  0
  -28.1228  -21.5829   18.2837 C   0  0  0  0  0  0  0  0  0  0  0  0
  -29.7086  -11.6336   19.2351 C   0  0  0  0  0  0  0  0  0  0  0  0
  -25.5892  -31.6463   26.3499 C   0  0  0  0  0  0  0  0  0  0  0  0
  -28.2504  -11.4977   19.6792 C   0  0  0  0  0  0  0  0  0  0  0  0
  -30.5290  -12.4569   20.2265 C   0  0  0  0  0  0  0  0  0  0  0  0
  -28.5094  -13.6376   20.9985 C   0  0  0  0  0  0  0  0  0  0  0  0
  -26.4172  -30.9791   25.2450 C   0  0  1  0  0  0  0  0  0  0  0  0
  -24.3227  -30.8610   22.0776 C   0  0  1  0  0  0  0  0  0  0  0  0
  -27.6282  -12.8711   19.9986 C   0  0  2  0  0  0  0  0  0  0  0  0
  -31.9237  -21.1574   22.1071 C   0  0  0  0  0  0  0  0  0  0  0  0
  -27.4061  -23.0639   22.3513 C   0  0  0  0  0  0  0  0  0  0  0  0
  -17.5867  -29.3372   18.5693 C   0  0  0  0  0  0  0  0  0  0  0  0
  -20.9075  -28.6369   24.2573 C   0  0  0  0  0  0  0  0  0  0  0  0
  -18.9296  -28.0448   22.8411 C   0  0  0  0  0  0  0  0  0  0  0  0
  -19.2966  -30.4107   23.5412 C   0  0  0  0  0  0  0  0  0  0  0  0
  -20.8726  -30.2472   16.8808 C   0  0  0  0  0  0  0  0  0  0  0  0
  -26.2695  -24.5601   19.9264 C   0  0  0  0  0  0  0  0  0  1  0  0
  -20.8056  -29.3883   21.7893 C   0  0  1  0  0  0  0  0  0  0  0  0
  -18.9995  -29.8951   18.4953 C   0  0  2  0  0  0  0  0  0  0  0  0
  -20.0113  -29.1157   23.0977 C   0  0  0  0  0  0  0  0  0  0  0  0
  -25.8469  -11.6516   21.1906 N   0  0  0  0  0  0  0  0  0  0  0  0
  -26.1970  -12.7405   20.4852 N   0  0  0  0  0  0  0  0  0  0  0  0
  -23.2066  -29.9835   21.7187 N   0  0  0  0  0  0  0  0  0  0  0  0
  -29.8811  -13.7461   20.4775 N   0  0  0  0  0  0  0  0  0  0  0  0
  -25.3547  -14.7711   19.6033 N   0  0  0  0  0  0  0  0  0  0  0  0
  -21.7621  -12.9545   21.6500 N   0  0  0  0  0  0  0  0  0  0  0  0
  -29.8562  -16.1044   20.4645 N   0  0  0  0  0  0  0  0  0  0  0  0
  -25.8147  -31.2141   23.9503 N   0  0  0  0  0  0  0  0  0  0  0  0
  -19.9863  -29.8690   20.6820 N   0  0  0  0  0  0  0  0  0  0  0  0
  -19.5012  -29.7209   17.1028 N   0  3  0  0  0  0  0  0  0  0  0  0
  -22.4975  -14.7471   20.4234 O   0  0  0  0  0  0  0  0  0  0  0  0
  -24.2766  -29.4661   23.9821 O   0  0  0  0  0  0  0  0  0  0  0  0
  -21.6003  -31.5529   22.3458 O   0  0  0  0  0  0  0  0  0  0  0  0
  -20.5203  -28.1590   19.2096 O   0  0  0  0  0  0  0  0  0  0  0  0
  -31.7398  -14.9332   19.7848 O   0  0  0  0  0  0  0  0  0  0  0  0
  -21.6328   -8.1012   24.3821 O   0  0  0  0  0  0  0  0  0  0  0  0
  -26.8566  -25.6687   19.2463 O   0  0  0  0  0  0  0  0  0  1  0  0
  -22.2703   -2.7821   23.0767 F   0  0  0  0  0  0  0  0  0  0  0  0
  -19.4818   -6.5777   23.5486 F   0  0  0  0  0  0  0  0  0  0  0  0
  1  2  1  0  0  0  0
  1  5  2  0  0  0  0
  2  6  2  0  0  0  0
  3 10  2  0  0  0  0
  3 18  1  0  0  0  0
  4 11  1  0  0  0  0
  4 18  2  0  0  0  0
  5 21  1  0  0  0  0
  6 23  1  0  0  0  0
  7 12  2  0  0  0  0
  7 22  1  0  0  0  0
  8  9  2  0  0  0  0
  8 25  1  0  0  0  0
  9 26  1  0  0  0  0
 10 27  1  0  0  0  0
 11 27  2  0  0  0  0
 12 28  1  0  0  0  0
 13 14  2  0  0  0  0
 13 29  1  0  0  0  0
 14 30  1  0  0  0  0
 15 19  1  0  0  0  0
 15 26  2  0  0  0  0
 16 24  1  0  0  0  0
 16 28  2  0  0  0  0
 17 30  2  0  0  0  0
 17 31  1  0  0  0  0
 18 32  1  0  0  0  0
 19 25  2  0  0  0  0
 19 37  1  0  0  0  0
 20 32  1  0  0  0  0
 20 33  2  0  0  0  0
 20 38  1  0  0  0  0
 21 23  2  0  0  0  0
 21 43  1  0  0  0  0
 22 24  2  0  0  0  0
 22 44  1  0  0  0  0
 23 55  1  0  0  0  0
 24 45  1  0  0  0  0
 25 58  1  0  0  0  0
 26 75  1  0  0  0  0
 27 84  1  0  0  0  0
 28 85  1  0  0  0  0
 29 31  2  0  0  0  0
 29 84  1  0  0  0  0
 30 86  1  0  0  0  0
 31 87  1  0  0  0  0
 32 69  2  0  0  0  0
 33 70  1  0  0  0  0
 33 73  1  0  0  0  0
 34 35  2  0  0  0  0
 34 36  1  0  0  0  0
 34 59  1  0  0  0  0
 35 46  1  0  0  0  0
 35 65  1  0  0  0  0
 36 37  2  0  0  0  0
 36 47  1  0  0  0  0
 38 74  1  0  0  0  0
 38 79  2  0  0  0  0
 39 56  1  0  0  0  0
 39 76  1  0  0  0  0
 39 80  2  0  0  0  0
 40 66  1  0  0  0  0
 40 71  1  0  0  0  0
 40 81  2  0  0  0  0
 41 67  1  0  0  0  0
 41 77  1  0  0  0  0
 41 82  2  0  0  0  0
 42 72  1  0  0  0  0
 42 75  1  0  0  0  0
 42 83  2  0  0  0  0
 43 48  1  0  0  0  0
 44 56  1  0  0  0  0
 45 71  1  0  0  0  0
 46 49  1  0  0  0  0
 47 49  1  0  0  0  0
 48 51  1  0  0  0  0
 50 52  1  0  0  0  0
 50 53  1  0  0  0  0
 51 55  1  0  0  0  0
 52 57  1  0  0  0  0
 53 72  1  0  0  0  0
 54 57  1  0  0  0  0
 54 72  1  0  0  0  0
 55 76  1  0  0  0  0
 56 71  1  0  0  0  0
 57 70  1  0  0  0  0
 60 67  1  0  0  0  0
 61 68  1  0  0  0  0
 62 68  1  0  0  0  0
 63 68  1  0  0  0  0
 64 78  1  0  0  0  0
 65 85  1  0  0  0  0
 66 68  1  0  0  0  0
 66 77  1  0  0  0  0
 67 78  1  0  0  0  0
 69 70  1  0  0  0  0
M  CHG  1  78   1
M  ISO  4  42 100  65 101  75 100  85 101
M  END
> <Batch ID>
0121

> <Smiles>
CNC(C)C(=O)NC(C(=O)N1Cc2cc([101O:1][101CH2:1]C3=C(C)C(=Cc4cc([100NH:0][100C:0](=O)N5CCCC(n6nc(-c7ccc(Oc8ccc(F)cc8F)cc7)c(C(N)=O)c6N)C5)ccc4C)CCC3)ccc2CC1C(=O)NC1CCCc2ccccc21)C(C)(C)C

> <Shape>
0.366

> <Color>
0.188

> <Negative vol penalty>
0.000

$$$$

  -OEChem-04052301573D

 83 91  0     1  0  0  0  0  0999 V2000
  -25.8720  -37.7341   21.3612 C   0  0  0  0  0  0  0  0  0  0  0  0
  -26.6103  -36.5933   21.0631 C   0  0  0  0  0  0  0  0  0  0  0  0
  -24.3915   -9.3788   22.0963 C   0  0  0  0  0  0  0  0  0  0  0  0
  -24.2906   -8.7586   19.7635 C   0  0  0  0  0  0  0  0  0  0  0  0
  -28.3310  -21.2029   21.9428 C   0  0  0  0  0  0  0  0  0  0  0  0
  -28.6197  -22.5390   21.6654 C   0  0  0  0  0  0  0  0  0  0  0  0
  -24.8154  -37.6620   22.2680 C   0  0  0  0  0  0  0  0  0  0  0  0
  -26.2931  -35.3799   21.6725 C   0  0  0  0  0  0  0  0  0  0  0  0
  -26.7113  -29.7953   19.1938 C   0  0  0  0  0  0  0  0  0  0  0  0
  -23.2525   -8.6143   22.3488 C   0  0  0  0  0  0  0  0  0  0  0  0
  -23.1516   -7.9940   20.0160 C   0  0  0  0  0  0  0  0  0  0  0  0
  -27.6817  -28.7985   19.2860 C   0  0  0  0  0  0  0  0  0  0  0  0
  -22.4905   -5.3491   22.7858 C   0  0  0  0  0  0  0  0  0  0  0  0
  -22.5012   -4.5212   23.9083 C   0  0  0  0  0  0  0  0  0  0  0  0
  -28.0049  -20.7839   19.5859 C   0  0  0  0  0  0  0  0  0  0  0  0
  -26.4084  -27.7289   21.0335 C   0  0  0  0  0  0  0  0  0  0  0  0
  -20.5928   -5.7049   24.7995 C   0  0  0  0  0  0  0  0  0  0  0  0
  -24.9105   -9.4510   20.8036 C   0  0  0  0  0  0  0  0  0  0  0  0
  -28.0236  -20.3253   20.9031 C   0  0  0  0  0  0  0  0  0  0  0  0
  -28.6010  -22.9976   20.3482 C   0  0  0  0  0  0  0  0  0  0  0  0
  -27.4271   -9.8141   20.5974 C   0  0  0  0  0  0  0  0  0  0  0  0
  -24.4790  -36.4450   22.8815 C   0  0  0  0  0  0  0  0  0  0  0  0
  -25.5857  -29.7723   20.0298 C   0  0  0  0  0  0  0  0  0  0  0  0
  -25.2319  -35.2917   22.5893 C   0  0  0  0  0  0  0  0  0  0  0  0
  -25.4239  -28.7252   20.9482 C   0  0  0  0  0  0  0  0  0  0  0  0
  -28.2936  -22.1201   19.3084 C   0  0  0  0  0  0  0  0  0  0  0  0
  -22.6325   -7.9219   21.3087 C   0  0  0  0  0  0  0  0  0  0  0  0
  -27.5317  -27.7666   20.2079 C   0  0  0  0  0  0  0  0  0  0  0  0
  -21.5310   -6.3550   22.6702 C   0  0  0  0  0  0  0  0  0  0  0  0
  -21.5523   -4.6990   24.9152 C   0  0  0  0  0  0  0  0  0  0  0  0
  -20.5821   -6.5328   23.6770 C   0  0  0  0  0  0  0  0  0  0  0  0
  -26.0868  -10.2410   20.5420 C   0  0  0  0  0  0  0  0  0  0  0  0
  -28.1568  -10.9303   20.2682 C   0  0  0  0  0  0  0  0  0  0  0  0
  -27.7229  -18.9322   21.1936 C   0  0  0  0  0  0  0  0  0  0  0  0
  -27.0569  -18.0880   20.3773 C   0  0  0  0  0  0  0  0  0  0  0  0
  -28.9142  -24.4309   20.0805 C   0  0  0  0  0  0  0  0  0  0  0  0
  -27.9646   -8.5241   20.9176 C   0  0  0  0  0  0  0  0  0  0  0  0
  -26.8381  -16.6938   20.8122 C   0  0  0  0  0  0  0  0  0  0  0  0
  -24.4119  -31.7034   22.2652 C   0  0  0  0  0  0  0  0  0  0  0  0
  -21.9247  -29.6219   22.2052 C   0  0  0  0  0  0  0  0  0  0  0  0
  -20.7922  -26.4804   21.5016 C   0  0  0  0  0  0  0  0  0  0  0  0
  -23.3585  -36.4262   23.8909 C   0  0  0  0  0  0  0  0  0  0  0  0
  -24.5348  -30.8405   19.8995 C   0  0  0  0  0  0  0  0  0  0  0  0
  -24.2237  -28.6436   21.8545 C   0  0  0  0  0  0  0  0  0  0  0  0
  -22.8491  -35.0229   24.2095 C   0  0  0  0  0  0  0  0  0  0  0  0
  -27.9013  -14.9762   17.7542 C   0  0  0  0  0  0  0  0  0  0  0  0
  -24.0177  -34.0743   24.4573 C   0  0  0  0  0  0  0  0  0  0  0  0
  -27.6282  -13.5209   18.1248 C   0  0  0  0  0  0  0  0  0  0  0  0
  -26.8801  -15.9263   18.3780 C   0  0  0  0  0  0  0  0  0  0  0  0
  -26.4846  -14.3259   20.2281 C   0  0  0  0  0  0  0  0  0  0  0  0
  -24.9027  -33.9518   23.2111 C   0  0  1  0  0  0  0  0  0  0  0  0
  -23.6840  -30.9980   21.1560 C   0  0  1  0  0  0  0  0  0  0  0  0
  -27.5277  -13.3571   19.6496 C   0  0  1  0  0  0  0  0  0  0  0  0
  -29.5121  -22.1581   17.1174 C   0  0  0  0  0  0  0  0  0  0  0  0
  -18.7207  -25.0669   21.5925 C   0  0  0  0  0  0  0  0  0  0  0  0
  -22.2610  -29.3275   25.2235 C   0  0  0  0  0  0  0  0  0  0  0  0
  -20.8569  -27.2578   25.1079 C   0  0  0  0  0  0  0  0  0  0  0  0
  -19.8876  -29.4590   24.4462 C   0  0  0  0  0  0  0  0  0  0  0  0
  -20.8064  -26.0660   18.5713 C   0  0  0  0  0  0  0  0  0  0  0  0
  -28.2675  -22.5857   17.8889 C   0  0  0  0  0  0  0  0  0  0  0  0
  -28.0389  -25.4977   20.7084 C   0  0  0  0  0  0  0  0  0  1  0  0
  -21.5809  -28.3457   22.9345 C   0  0  1  0  0  0  0  0  0  0  0  0
  -19.5708  -25.9969   20.7409 C   0  0  2  0  0  0  0  0  0  0  0  0
  -21.1703  -28.5998   24.4124 C   0  0  0  0  0  0  0  0  0  0  0  0
  -25.9690  -11.5279   20.2045 N   0  0  0  0  0  0  0  0  0  0  0  0
  -27.2447  -11.9194   20.0448 N   0  0  0  0  0  0  0  0  0  0  0  0
  -26.7594  -15.7104   19.8277 N   0  0  0  0  0  0  0  0  0  0  0  0
  -23.2268  -29.7150   21.6936 N   0  0  0  0  0  0  0  0  0  0  0  0
  -29.4832  -11.1523   20.1511 N   0  0  0  0  0  0  0  0  0  0  0  0
  -27.0740   -7.4886   21.2321 N   0  0  0  0  0  0  0  0  0  0  0  0
  -24.2846  -33.0791   22.2360 N   0  0  0  0  0  0  0  0  0  0  0  0
  -20.5565  -27.6821   22.1354 N   0  0  0  0  0  0  0  0  0  0  0  0
  -19.9835  -25.2625   19.5115 N   0  3  0  0  0  0  0  0  0  0  0  0
  -29.8688  -24.7195   19.3625 O   0  0  0  0  0  0  0  0  0  0  0  0
  -29.1987   -8.3006   20.9406 O   0  0  0  0  0  0  0  0  0  0  0  0
  -26.7334  -16.4854   22.0223 O   0  0  0  0  0  0  0  0  0  0  0  0
  -25.0412  -31.0480   23.0874 O   0  0  0  0  0  0  0  0  0  0  0  0
  -21.0673  -30.5009   22.0874 O   0  0  0  0  0  0  0  0  0  0  0  0
  -21.8485  -25.8529   21.5338 O   0  0  0  0  0  0  0  0  0  0  0  0
  -21.5212   -7.1756   21.5548 O   0  0  0  0  0  0  0  0  0  0  0  0
  -28.4777  -26.7927   20.3003 O   0  0  0  0  0  0  0  0  0  1  0  0
  -21.5618   -3.9029   25.9923 F   0  0  0  0  0  0  0  0  0  0  0  0
  -19.6572   -7.4966   23.5709 F   0  0  0  0  0  0  0  0  0  0  0  0
  1  2  1  0  0  0  0
  1  7  2  0  0  0  0
  2  8  2  0  0  0  0
  3 10  2  0  0  0  0
  3 18  1  0  0  0  0
  4 11  1  0  0  0  0
  4 18  2  0  0  0  0
  5  6  2  0  0  0  0
  5 19  1  0  0  0  0
  6 20  1  0  0  0  0
  7 22  1  0  0  0  0
  8 24  1  0  0  0  0
  9 12  2  0  0  0  0
  9 23  1  0  0  0  0
 10 27  1  0  0  0  0
 11 27  2  0  0  0  0
 12 28  1  0  0  0  0
 13 14  2  0  0  0  0
 13 29  1  0  0  0  0
 14 30  1  0  0  0  0
 15 19  2  0  0  0  0
 15 26  1  0  0  0  0
 16 25  1  0  0  0  0
 16 28  2  0  0  0  0
 17 30  2  0  0  0  0
 17 31  1  0  0  0  0
 18 32  1  0  0  0  0
 19 34  1  0  0  0  0
 20 26  2  0  0  0  0
 20 36  1  0  0  0  0
 21 32  1  0  0  0  0
 21 33  2  0  0  0  0
 21 37  1  0  0  0  0
 22 24  2  0  0  0  0
 22 42  1  0  0  0  0
 23 25  2  0  0  0  0
 23 43  1  0  0  0  0
 24 51  1  0  0  0  0
 25 44  1  0  0  0  0
 26 60  1  0  0  0  0
 27 80  1  0  0  0  0
 28 81  1  0  0  0  0
 29 31  2  0  0  0  0
 29 80  1  0  0  0  0
 30 82  1  0  0  0  0
 31 83  1  0  0  0  0
 32 65  2  0  0  0  0
 33 66  1  0  0  0  0
 33 69  1  0  0  0  0
 34 35  2  0  0  0  0
 35 38  1  0  0  0  0
 36 61  1  0  0  0  0
 36 74  2  0  0  0  0
 37 70  1  0  0  0  0
 37 75  2  0  0  0  0
 38 67  1  0  0  0  0
 38 76  2  0  0  0  0
 39 52  1  0  0  0  0
 39 71  1  0  0  0  0
 39 77  2  0  0  0  0
 40 62  1  0  0  0  0
 40 68  1  0  0  0  0
 40 78  2  0  0  0  0
 41 63  1  0  0  0  0
 41 72  1  0  0  0  0
 41 79  2  0  0  0  0
 42 45  1  0  0  0  0
 43 52  1  0  0  0  0
 44 68  1  0  0  0  0
 45 47  1  0  0  0  0
 46 48  1  0  0  0  0
 46 49  1  0  0  0  0
 47 51  1  0  0  0  0
 48 53  1  0  0  0  0
 49 67  1  0  0  0  0
 50 53  1  0  0  0  0
 50 67  1  0  0  0  0
 51 71  1  0  0  0  0
 52 68  1  0  0  0  0
 53 66  1  0  0  0  0
 54 60  1  0  0  0  0
 55 63  1  0  0  0  0
 56 64  1  0  0  0  0
 57 64  1  0  0  0  0
 58 64  1  0  0  0  0
 59 73  1  0  0  0  0
 61 81  1  0  0  0  0
 62 64  1  0  0  0  0
 62 72  1  0  0  0  0
 63 73  1  0  0  0  0
 65 66  1  0  0  0  0
M  CHG  1  73   1
M  ISO  4  35 100  38 100  61 101  81 101
M  END
> <Batch ID>
0121

> <Smiles>
CCc1cc(C=[100CH:0][100C:0](=O)N2CCCC(n3nc(-c4ccc(Oc5ccc(F)cc5F)cc4)c(C(N)=O)c3N)C2)ccc1C(=O)[101CH2:1][101O:1]c1ccc2c(c1)CN(C(=O)C(NC(=O)C(C)NC)C(C)(C)C)C(C(=O)NC1CCCc3ccccc31)C2

> <Shape>
0.329

> <Color>
0.118

> <Negative vol penalty>
0.000

$$$$

  -OEChem-04052301573D

 87 95  0     1  0  0  0  0  0999 V2000
  -27.5820  -34.8390   23.3160 C   0  0  0  0  0  0  0  0  0  0  0  0
  -27.7954  -33.4891   23.0562 C   0  0  0  0  0  0  0  0  0  0  0  0
  -23.7511   -9.9075   20.4272 C   0  0  0  0  0  0  0  0  0  0  0  0
  -23.9474   -9.6425   22.8206 C   0  0  0  0  0  0  0  0  0  0  0  0
  -30.0088  -15.5154   17.0867 C   0  0  0  0  0  0  0  0  0  0  0  0
  -30.6100  -14.3516   17.5662 C   0  0  0  0  0  0  0  0  0  0  0  0
  -26.3446  -35.2688   23.7937 C   0  0  0  0  0  0  0  0  0  0  0  0
  -26.7717  -32.5679   23.2749 C   0  0  0  0  0  0  0  0  0  0  0  0
  -26.2929  -29.2566   19.4734 C   0  0  0  0  0  0  0  0  0  0  0  0
  -22.7134   -8.9757   20.4091 C   0  0  0  0  0  0  0  0  0  0  0  0
  -22.9096   -8.7107   22.8025 C   0  0  0  0  0  0  0  0  0  0  0  0
  -27.2131  -28.2106   19.4204 C   0  0  0  0  0  0  0  0  0  0  0  0
  -22.5064   -5.4457   22.0227 C   0  0  0  0  0  0  0  0  0  0  0  0
  -22.6751   -4.2734   22.7594 C   0  0  0  0  0  0  0  0  0  0  0  0
  -30.2319  -16.5293   19.2682 C   0  0  0  0  0  0  0  0  0  0  0  0
  -25.5856  -26.7363   20.4188 C   0  0  0  0  0  0  0  0  0  0  0  0
  -20.7239   -4.8196   24.0754 C   0  0  0  0  0  0  0  0  0  0  0  0
  -24.3682  -10.2409   21.6329 C   0  0  0  0  0  0  0  0  0  0  0  0
  -29.8198  -16.6043   17.9378 C   0  0  0  0  0  0  0  0  0  0  0  0
  -31.0221  -14.2767   18.8967 C   0  0  0  0  0  0  0  0  0  0  0  0
  -25.3294  -12.5968   21.8159 C   0  0  0  0  0  0  0  0  0  0  0  0
  -25.3022  -34.3536   24.0092 C   0  0  0  0  0  0  0  0  0  0  0  0
  -25.0136  -29.0527   20.0104 C   0  0  0  0  0  0  0  0  0  0  0  0
  -25.5196  -32.9856   23.7572 C   0  0  0  0  0  0  0  0  0  0  0  0
  -24.6501  -27.7807   20.4751 C   0  0  0  0  0  0  0  0  0  0  0  0
  -30.8331  -15.3656   19.7477 C   0  0  0  0  0  0  0  0  0  0  0  0
  -22.2926   -8.3773   21.5967 C   0  0  0  0  0  0  0  0  0  0  0  0
  -26.8605  -26.9509   19.8958 C   0  0  0  0  0  0  0  0  0  0  0  0
  -21.4465   -6.3050   22.3123 C   0  0  0  0  0  0  0  0  0  0  0  0
  -21.7839   -3.9603   23.7858 C   0  0  0  0  0  0  0  0  0  0  0  0
  -20.5552   -5.9919   23.3386 C   0  0  0  0  0  0  0  0  0  0  0  0
  -25.4406  -11.2030   21.6522 C   0  0  0  0  0  0  0  0  0  0  0  0
  -26.6237  -13.0533   21.7611 C   0  0  0  0  0  0  0  0  0  0  0  0
  -29.1837  -17.8329   17.4296 C   0  0  0  0  0  0  0  0  0  0  0  0
  -29.2886  -19.0400   18.0047 C   0  0  0  0  0  0  0  0  0  0  0  0
  -28.2370  -23.7579   19.0131 C   0  0  0  0  0  0  0  0  0  0  0  0
  -28.7998  -21.4850   18.1592 C   0  0  0  0  0  0  0  0  0  0  0  0
  -27.4251  -24.8164   19.1241 C   0  0  0  0  0  0  0  0  0  1  0  0
  -31.6549  -13.0405   19.3743 C   0  0  0  0  0  0  0  0  0  0  0  0
  -24.1607  -13.4065   22.0009 C   0  0  0  0  0  0  0  0  0  0  0  0
  -27.9645  -22.5400   18.2562 C   0  0  0  0  0  0  0  0  0  0  0  0
  -28.5871  -20.2115   17.4054 C   0  0  0  0  0  0  0  0  0  0  0  0
  -23.4012  -30.2415   22.4783 C   0  0  0  0  0  0  0  0  0  0  0  0
  -20.9694  -28.4943   21.2311 C   0  0  0  0  0  0  0  0  0  0  0  0
  -19.9909  -25.8495   19.3089 C   0  0  0  0  0  0  0  0  0  0  0  0
  -23.9971  -34.8591   24.5713 C   0  0  0  0  0  0  0  0  0  0  0  0
  -24.0235  -30.1847   20.0359 C   0  0  0  0  0  0  0  0  0  0  0  0
  -23.2825  -27.5046   21.0424 C   0  0  0  0  0  0  0  0  0  0  0  0
  -22.8450  -33.8690   24.4209 C   0  0  0  0  0  0  0  0  0  0  0  0
  -31.0184  -10.5522   21.8532 C   0  0  0  0  0  0  0  0  0  0  0  0
  -23.2838  -32.4709   24.8444 C   0  0  0  0  0  0  0  0  0  0  0  0
  -29.4988  -10.5981   22.0235 C   0  0  0  0  0  0  0  0  0  0  0  0
  -31.4311  -10.8052   20.4054 C   0  0  0  0  0  0  0  0  0  0  0  0
  -29.3677  -12.0998   19.9917 C   0  0  0  0  0  0  0  0  0  0  0  0
  -24.4260  -31.9591   23.9584 C   0  0  1  0  0  0  0  0  0  0  0  0
  -22.9236  -29.9931   21.0755 C   0  0  1  0  0  0  0  0  0  0  0  0
  -28.9120  -11.9000   21.4465 C   0  0  1  0  0  0  0  0  0  0  0  0
  -26.6538  -22.4828   17.5026 C   0  0  0  0  0  0  0  0  0  0  0  0
  -32.5632  -16.0794   21.4161 C   0  0  0  0  0  0  0  0  0  0  0  0
  -17.9377  -24.6504   18.5065 C   0  0  0  0  0  0  0  0  0  0  0  0
  -20.6463  -27.2124   23.9810 C   0  0  0  0  0  0  0  0  0  0  0  0
  -19.2843  -25.4091   22.9034 C   0  0  0  0  0  0  0  0  0  0  0  0
  -18.4967  -27.7750   22.8332 C   0  0  0  0  0  0  0  0  0  0  0  0
  -20.6320  -26.4070   16.4739 C   0  0  0  0  0  0  0  0  0  0  0  0
  -31.2666  -15.3123   21.1765 C   0  0  0  0  0  0  0  0  0  0  0  0
  -20.4671  -27.0818   21.4087 C   0  0  1  0  0  0  0  0  0  0  0  0
  -18.9581  -25.7362   18.2022 C   0  0  2  0  0  0  0  0  0  0  0  0
  -19.7501  -26.8749   22.7727 C   0  0  0  0  0  0  0  0  0  0  0  0
  -26.7056  -10.8005   21.5044 N   0  0  0  0  0  0  0  0  0  0  0  0
  -27.4011  -11.9482   21.5749 N   0  0  0  0  0  0  0  0  0  0  0  0
  -30.8339  -12.0431   19.9059 N   0  0  0  0  0  0  0  0  0  0  0  0
  -22.3517  -28.6453   21.0516 N   0  0  0  0  0  0  0  0  0  0  0  0
  -27.1612  -14.2881   21.8545 N   0  0  0  0  0  0  0  0  0  0  0  0
  -22.9094  -12.7760   22.0329 N   0  0  0  0  0  0  0  0  0  0  0  0
  -23.9129  -31.5088   22.6823 N   0  0  0  0  0  0  0  0  0  0  0  0
  -19.6335  -26.7957   20.2461 N   0  0  0  0  0  0  0  0  0  0  0  0
  -19.6199  -25.4096   16.9075 N   0  3  0  0  0  0  0  0  0  0  0  0
  -32.8800  -12.9848   19.2780 O   0  0  0  0  0  0  0  0  0  0  0  0
  -24.2229  -14.6539   22.1174 O   0  0  0  0  0  0  0  0  0  0  0  0
  -27.9271  -20.1270   16.3789 O   0  0  0  0  0  0  0  0  0  0  0  0
  -23.3108  -29.3500   23.3142 O   0  0  0  0  0  0  0  0  0  0  0  0
  -20.1641  -29.4286   21.2437 O   0  0  0  0  0  0  0  0  0  0  0  0
  -21.0107  -25.1644   19.3410 O   0  0  0  0  0  0  0  0  0  0  0  0
  -21.2798   -7.4681   21.5794 O   0  0  0  0  0  0  0  0  0  0  0  0
  -27.7570  -25.9284   19.8459 O   0  0  0  0  0  0  0  0  0  1  0  0
  -21.9451   -2.8337   24.4922 F   0  0  0  0  0  0  0  0  0  0  0  0
  -19.5344   -6.8130   23.6208 F   0  0  0  0  0  0  0  0  0  0  0  0
  1  2  1  0  0  0  0
  1  7  2  0  0  0  0
  2  8  2  0  0  0  0
  3 10  2  0  0  0  0
  3 18  1  0  0  0  0
  4 11  1  0  0  0  0
  4 18  2  0  0  0  0
  5  6  2  0  0  0  0
  5 19  1  0  0  0  0
  6 20  1  0  0  0  0
  7 22  1  0  0  0  0
  8 24  1  0  0  0  0
  9 12  2  0  0  0  0
  9 23  1  0  0  0  0
 10 27  1  0  0  0  0
 11 27  2  0  0  0  0
 12 28  1  0  0  0  0
 13 14  2  0  0  0  0
 13 29  1  0  0  0  0
 14 30  1  0  0  0  0
 15 19  2  0  0  0  0
 15 26  1  0  0  0  0
 16 25  1  0  0  0  0
 16 28  2  0  0  0  0
 17 30  2  0  0  0  0
 17 31  1  0  0  0  0
 18 32  1  0  0  0  0
 19 34  1  0  0  0  0
 20 26  2  0  0  0  0
 20 39  1  0  0  0  0
 21 32  1  0  0  0  0
 21 33  2  0  0  0  0
 21 40  1  0  0  0  0
 22 24  2  0  0  0  0
 22 46  1  0  0  0  0
 23 25  2  0  0  0  0
 23 47  1  0  0  0  0
 24 55  1  0  0  0  0
 25 48  1  0  0  0  0
 26 65  1  0  0  0  0
 27 84  1  0  0  0  0
 28 85  1  0  0  0  0
 29 31  2  0  0  0  0
 29 84  1  0  0  0  0
 30 86  1  0  0  0  0
 31 87  1  0  0  0  0
 32 69  2  0  0  0  0
 33 70  1  0  0  0  0
 33 73  1  0  0  0  0
 34 35  2  0  0  0  0
 35 42  1  0  0  0  0
 36 38  2  0  0  0  0
 36 41  1  0  0  0  0
 37 41  2  0  0  0  0
 37 42  1  0  0  0  0
 38 85  1  0  0  0  0
 39 71  1  0  0  0  0
 39 78  2  0  0  0  0
 40 74  1  0  0  0  0
 40 79  2  0  0  0  0
 41 58  1  0  0  0  0
 42 80  2  0  0  0  0
 43 56  1  0  0  0  0
 43 75  1  0  0  0  0
 43 81  2  0  0  0  0
 44 66  1  0  0  0  0
 44 72  1  0  0  0  0
 44 82  2  0  0  0  0
 45 67  1  0  0  0  0
 45 76  1  0  0  0  0
 45 83  2  0  0  0  0
 46 49  1  0  0  0  0
 47 56  1  0  0  0  0
 48 72  1  0  0  0  0
 49 51  1  0  0  0  0
 50 52  1  0  0  0  0
 50 53  1  0  0  0  0
 51 55  1  0  0  0  0
 52 57  1  0  0  0  0
 53 71  1  0  0  0  0
 54 57  1  0  0  0  0
 54 71  1  0  0  0  0
 55 75  1  0  0  0  0
 56 72  1  0  0  0  0
 57 70  1  0  0  0  0
 59 65  1  0  0  0  0
 60 67  1  0  0  0  0
 61 68  1  0  0  0  0
 62 68  1  0  0  0  0
 63 68  1  0  0  0  0
 64 77  1  0  0  0  0
 66 68  1  0  0  0  0
 66 76  1  0  0  0  0
 67 77  1  0  0  0  0
 69 70  1  0  0  0  0
M  CHG  1  77   1
M  ISO  4  20 100  38 101  39 100  85 101
M  END
> <Batch ID>
0121

> <Smiles>
CCc1cc(C=CC(=O)C=C(C)C=[101CH:1][101O:1]c2ccc3c(c2)CN(C(=O)C(NC(=O)C(C)NC)C(C)(C)C)C(C(=O)NC2CCCc4ccccc42)C3)cc[100c:0]1[100C:0](=O)N1CCCC(n2nc(-c3ccc(Oc4ccc(F)cc4F)cc3)c(C(N)=O)c2N)C1

> <Shape>
0.324

> <Color>
0.096

> <Negative vol penalty>
0.000

$$$$

  -OEChem-04052301573D

 84 92  0     1  0  0  0  0  0999 V2000
  -28.3437  -36.3557   22.8231 C   0  0  0  0  0  0  0  0  0  0  0  0
  -28.6168  -34.9953   22.7229 C   0  0  0  0  0  0  0  0  0  0  0  0
  -24.0476   -9.7938   22.2611 C   0  0  0  0  0  0  0  0  0  0  0  0
  -24.6320  -11.4297   23.9403 C   0  0  0  0  0  0  0  0  0  0  0  0
  -30.7039  -20.1463   19.0051 C   0  0  0  0  0  0  0  0  0  0  0  0
  -27.0902  -36.7837   23.2582 C   0  0  0  0  0  0  0  0  0  0  0  0
  -27.6368  -34.0620   23.0589 C   0  0  0  0  0  0  0  0  0  0  0  0
  -27.2925  -30.3050   19.6808 C   0  0  0  0  0  0  0  0  0  0  0  0
  -30.4426  -18.7787   18.9216 C   0  0  0  0  0  0  0  0  0  0  0  0
  -23.6689   -8.9005   23.2632 C   0  0  0  0  0  0  0  0  0  0  0  0
  -24.2533  -10.5363   24.9424 C   0  0  0  0  0  0  0  0  0  0  0  0
  -28.2588  -29.3020   19.7433 C   0  0  0  0  0  0  0  0  0  0  0  0
  -21.0123   -8.4213   25.2993 C   0  0  0  0  0  0  0  0  0  0  0  0
  -19.8105   -7.7330   25.1338 C   0  0  0  0  0  0  0  0  0  0  0  0
  -28.3414  -20.5821   19.2613 C   0  0  0  0  0  0  0  0  0  0  0  0
  -26.7037  -27.8857   20.9246 C   0  0  0  0  0  0  0  0  0  0  0  0
  -21.0035   -5.6332   25.2034 C   0  0  0  0  0  0  0  0  0  0  0  0
  -24.5292  -11.0584   22.5997 C   0  0  0  0  0  0  0  0  0  0  0  0
  -29.6533  -21.0480   19.1750 C   0  0  0  0  0  0  0  0  0  0  0  0
  -24.1071  -12.9329   20.9217 C   0  0  0  0  0  0  0  0  0  0  0  0
  -26.0911  -35.8552   23.5904 C   0  0  0  0  0  0  0  0  0  0  0  0
  -26.0260  -30.1096   20.2502 C   0  0  0  0  0  0  0  0  0  0  0  0
  -26.3691  -34.4779   23.5001 C   0  0  0  0  0  0  0  0  0  0  0  0
  -25.7222  -28.8869   20.8657 C   0  0  0  0  0  0  0  0  0  0  0  0
  -28.0800  -19.2145   19.1777 C   0  0  0  0  0  0  0  0  0  0  0  0
  -29.1306  -18.3128   19.0079 C   0  0  0  0  0  0  0  0  0  0  0  0
  -23.7717   -9.2717   24.6038 C   0  0  0  0  0  0  0  0  0  0  0  0
  -27.9655  -28.0932   20.3678 C   0  0  0  0  0  0  0  0  0  0  0  0
  -22.2098   -7.7156   25.4168 C   0  0  0  0  0  0  0  0  0  0  0  0
  -19.8060   -6.3389   25.0859 C   0  0  0  0  0  0  0  0  0  0  0  0
  -22.2053   -6.3216   25.3689 C   0  0  0  0  0  0  0  0  0  0  0  0
  -24.9211  -11.9815   21.5650 C   0  0  0  0  0  0  0  0  0  0  0  0
  -24.9450  -13.5530   20.0272 C   0  0  0  0  0  0  0  0  0  0  0  0
  -29.9301  -22.4927   19.2632 C   0  0  0  0  0  0  0  0  0  0  0  0
  -29.0946  -23.3967   19.7933 C   0  0  0  0  0  0  0  0  0  0  0  0
  -22.7179  -13.2298   21.1153 C   0  0  0  0  0  0  0  0  0  0  0  0
  -29.4660  -24.8412   19.8258 C   0  0  0  0  0  0  0  0  0  0  0  0
  -24.3716  -31.5102   22.5752 C   0  0  0  0  0  0  0  0  0  0  0  0
  -22.0162  -29.5210   21.5666 C   0  0  0  0  0  0  0  0  0  0  0  0
  -21.1503  -26.6260   19.9804 C   0  0  0  0  0  0  0  0  0  0  0  0
  -29.8280  -15.9055   18.7525 C   0  0  0  0  0  0  0  0  0  0  0  0
  -24.7668  -36.3654   24.1011 C   0  0  0  0  0  0  0  0  0  0  0  0
  -24.9857  -31.1915   20.1509 C   0  0  0  0  0  0  0  0  0  0  0  0
  -24.3708  -28.6197   21.4746 C   0  0  0  0  0  0  0  0  0  0  0  0
  -23.6600  -35.3143   24.0798 C   0  0  0  0  0  0  0  0  0  0  0  0
  -29.6299  -12.3576   18.5289 C   0  0  0  0  0  0  0  0  0  0  0  0
  -24.1633  -33.9972   24.6617 C   0  0  0  0  0  0  0  0  0  0  0  0
  -28.3202  -12.0217   19.2460 C   0  0  0  0  0  0  0  0  0  0  0  0
  -30.3611  -13.5198   19.1985 C   0  0  0  0  0  0  0  0  0  0  0  0
  -28.2458  -14.3965   20.1072 C   0  0  0  0  0  0  0  0  0  0  0  0
  -25.3238  -33.4351   23.8317 C   0  0  1  0  0  0  0  0  0  0  0  0
  -23.8999  -31.0761   21.2163 C   0  0  1  0  0  0  0  0  0  0  0  0
  -27.4415  -13.2745   19.4306 C   0  0  2  0  0  0  0  0  0  0  0  0
  -26.0879  -18.3682   17.9121 C   0  0  0  0  0  0  0  0  0  0  0  0
  -19.1501  -25.2502   19.3451 C   0  0  0  0  0  0  0  0  0  0  0  0
  -21.7627  -28.5615   24.4519 C   0  0  0  0  0  0  0  0  0  0  0  0
  -20.4792  -26.5844   23.6083 C   0  0  0  0  0  0  0  0  0  0  0  0
  -19.5852  -28.8879   23.2660 C   0  0  0  0  0  0  0  0  0  0  0  0
  -21.7538  -26.8709   17.0934 C   0  0  0  0  0  0  0  0  0  0  0  0
  -26.6652  -18.7432   19.2733 C   0  0  0  0  0  0  0  0  0  0  0  0
  -28.4405  -25.7643   20.4493 C   0  0  0  0  0  0  0  0  0  1  0  0
  -21.5790  -28.1187   21.9150 C   0  0  1  0  0  0  0  0  0  0  0  0
  -20.1191  -26.3364   18.9047 C   0  0  2  0  0  0  0  0  0  0  0  0
  -20.8777  -28.0436   23.3006 C   0  0  0  0  0  0  0  0  0  0  0  0
  -26.1795  -11.9923   21.1172 N   0  0  0  0  0  0  0  0  0  0  0  0
  -26.1624  -12.9581   20.1829 N   0  0  0  0  0  0  0  0  0  0  0  0
  -23.3895  -29.7109   21.3574 N   0  0  0  0  0  0  0  0  0  0  0  0
  -29.4681  -14.6724   19.3361 N   0  0  0  0  0  0  0  0  0  0  0  0
  -24.7518  -14.5435   19.1306 N   0  0  0  0  0  0  0  0  0  0  0  0
  -22.0057  -12.4978   22.0752 N   0  0  0  0  0  0  0  0  0  0  0  0
  -28.8859  -16.9198   18.9209 N   0  0  0  0  0  0  0  0  0  0  0  0
  -24.8263  -32.8142   22.6228 N   0  0  0  0  0  0  0  0  0  0  0  0
  -20.7544  -27.6599   20.8023 N   0  0  0  0  0  0  0  0  0  0  0  0
  -20.7897  -25.8881   17.6516 N   0  3  0  0  0  0  0  0  0  0  0  0
  -22.1216  -14.1067   20.4452 O   0  0  0  0  0  0  0  0  0  0  0  0
  -30.5330  -25.2507   19.3764 O   0  0  0  0  0  0  0  0  0  0  0  0
  -24.3251  -30.7210   23.5115 O   0  0  0  0  0  0  0  0  0  0  0  0
  -21.1695  -30.4135   21.4762 O   0  0  0  0  0  0  0  0  0  0  0  0
  -22.2002  -25.9955   20.0837 O   0  0  0  0  0  0  0  0  0  0  0  0
  -30.8809  -16.0436   18.1245 O   0  0  0  0  0  0  0  0  0  0  0  0
  -23.4020   -8.4004   25.5818 O   0  0  0  0  0  0  0  0  0  0  0  0
  -28.9071  -27.1128   20.4308 O   0  0  0  0  0  0  0  0  0  1  0  0
  -18.6516   -5.6780   24.9285 F   0  0  0  0  0  0  0  0  0  0  0  0
  -23.3524   -5.6381   25.4824 F   0  0  0  0  0  0  0  0  0  0  0  0
  1  2  1  0  0  0  0
  1  6  2  0  0  0  0
  2  7  2  0  0  0  0
  3 10  2  0  0  0  0
  3 18  1  0  0  0  0
  4 11  1  0  0  0  0
  4 18  2  0  0  0  0
  5  9  2  0  0  0  0
  5 19  1  0  0  0  0
  6 21  1  0  0  0  0
  7 23  1  0  0  0  0
  8 12  2  0  0  0  0
  8 22  1  0  0  0  0
  9 26  1  0  0  0  0
 10 27  1  0  0  0  0
 11 27  2  0  0  0  0
 12 28  1  0  0  0  0
 13 14  2  0  0  0  0
 13 29  1  0  0  0  0
 14 30  1  0  0  0  0
 15 19  2  0  0  0  0
 15 25  1  0  0  0  0
 16 24  1  0  0  0  0
 16 28  2  0  0  0  0
 17 30  2  0  0  0  0
 17 31  1  0  0  0  0
 18 32  1  0  0  0  0
 19 34  1  0  0  0  0
 20 32  1  0  0  0  0
 20 33  2  0  0  0  0
 20 36  1  0  0  0  0
 21 23  2  0  0  0  0
 21 42  1  0  0  0  0
 22 24  2  0  0  0  0
 22 43  1  0  0  0  0
 23 51  1  0  0  0  0
 24 44  1  0  0  0  0
 25 26  2  0  0  0  0
 25 60  1  0  0  0  0
 26 71  1  0  0  0  0
 27 81  1  0  0  0  0
 28 82  1  0  0  0  0
 29 31  2  0  0  0  0
 29 81  1  0  0  0  0
 30 83  1  0  0  0  0
 31 84  1  0  0  0  0
 32 65  2  0  0  0  0
 33 66  1  0  0  0  0
 33 69  1  0  0  0  0
 34 35  2  0  0  0  0
 35 37  1  0  0  0  0
 36 70  1  0  0  0  0
 36 75  2  0  0  0  0
 37 61  1  0  0  0  0
 37 76  2  0  0  0  0
 38 52  1  0  0  0  0
 38 72  1  0  0  0  0
 38 77  2  0  0  0  0
 39 62  1  0  0  0  0
 39 67  1  0  0  0  0
 39 78  2  0  0  0  0
 40 63  1  0  0  0  0
 40 73  1  0  0  0  0
 40 79  2  0  0  0  0
 41 68  1  0  0  0  0
 41 71  1  0  0  0  0
 41 80  2  0  0  0  0
 42 45  1  0  0  0  0
 43 52  1  0  0  0  0
 44 67  1  0  0  0  0
 45 47  1  0  0  0  0
 46 48  1  0  0  0  0
 46 49  1  0  0  0  0
 47 51  1  0  0  0  0
 48 53  1  0  0  0  0
 49 68  1  0  0  0  0
 50 53  1  0  0  0  0
 50 68  1  0  0  0  0
 51 72  1  0  0  0  0
 52 67  1  0  0  0  0
 53 66  1  0  0  0  0
 54 60  1  0  0  0  0
 55 63  1  0  0  0  0
 56 64  1  0  0  0  0
 57 64  1  0  0  0  0
 58 64  1  0  0  0  0
 59 74  1  0  0  0  0
 61 82  1  0  0  0  0
 62 64  1  0  0  0  0
 62 73  1  0  0  0  0
 63 74  1  0  0  0  0
 65 66  1  0  0  0  0
M  CHG  1  74   1
M  ISO  4  41 100  61 101  71 100  82 101
M  END
> <Batch ID>
0121

> <Smiles>
CCc1cc(C=CC(=O)[101CH2:1][101O:1]c2ccc3c(c2)CN(C(=O)C(NC(=O)C(C)NC)C(C)(C)C)C(C(=O)NC2CCCc4ccccc42)C3)ccc1[100NH:0][100C:0](=O)N1CCCC(n2nc(-c3ccc(Oc4ccc(F)cc4F)cc3)c(C(N)=O)c2N)C1

> <Shape>
0.348

> <Color>
0.138

> <Negative vol penalty>
0.000

$$$$

  -OEChem-04052301573D

 86 94  0     1  0  0  0  0  0999 V2000
  -32.0729  -28.6032   24.5512 C   0  0  0  0  0  0  0  0  0  0  0  0
  -31.3698  -27.7278   23.7298 C   0  0  0  0  0  0  0  0  0  0  0  0
  -24.0098  -14.4783   23.4193 C   0  0  0  0  0  0  0  0  0  0  0  0
  -23.4938  -15.3534   21.2273 C   0  0  0  0  0  0  0  0  0  0  0  0
  -31.3892  -29.5789   25.2754 C   0  0  0  0  0  0  0  0  0  0  0  0
  -29.9822  -27.8269   23.6330 C   0  0  0  0  0  0  0  0  0  0  0  0
  -28.3136  -27.5384   18.7725 C   0  0  0  0  0  0  0  0  0  0  0  0
  -23.2980  -15.5253   24.0048 C   0  0  0  0  0  0  0  0  0  0  0  0
  -22.7819  -16.4003   21.8128 C   0  0  0  0  0  0  0  0  0  0  0  0
  -28.2449  -26.2835   18.1690 C   0  0  0  0  0  0  0  0  0  0  0  0
  -23.4733  -19.3471   23.3192 C   0  0  0  0  0  0  0  0  0  0  0  0
  -23.6848  -20.6328   22.8214 C   0  0  0  0  0  0  0  0  0  0  0  0
  -31.2156  -16.6968   21.2366 C   0  0  0  0  0  0  0  0  0  0  0  0
  -25.8863  -26.1813   18.6637 C   0  0  0  0  0  0  0  0  0  0  0  0
  -30.7186  -18.9772   20.6122 C   0  0  0  0  0  0  0  0  0  0  0  0
  -21.3453  -20.7926   22.2398 C   0  0  0  0  0  0  0  0  0  0  0  0
  -24.1077  -14.3924   22.0305 C   0  0  0  0  0  0  0  0  0  0  0  0
  -29.8506  -16.4218   21.3188 C   0  0  0  0  0  0  0  0  0  0  0  0
  -24.3429  -12.0532   21.0403 C   0  0  0  0  0  0  0  0  0  0  0  0
  -29.9935  -29.6962   25.1799 C   0  0  0  0  0  0  0  0  0  0  0  0
  -27.1694  -28.1212   19.3365 C   0  0  0  0  0  0  0  0  0  0  0  0
  -29.2790  -28.8042   24.3576 C   0  0  0  0  0  0  0  0  0  0  0  0
  -25.9422  -27.4458   19.2694 C   0  0  0  0  0  0  0  0  0  0  0  0
  -28.9196  -17.4244   21.0476 C   0  0  0  0  0  0  0  0  0  0  0  0
  -29.3535  -18.7022   20.6944 C   0  0  0  0  0  0  0  0  0  0  0  0
  -22.6840  -16.4862   23.2016 C   0  0  0  0  0  0  0  0  0  0  0  0
  -27.0317  -25.6038   18.1166 C   0  0  0  0  0  0  0  0  0  0  0  0
  -22.1977  -18.7841   23.2773 C   0  0  0  0  0  0  0  0  0  0  0  0
  -22.6209  -21.3556   22.2818 C   0  0  0  0  0  0  0  0  0  0  0  0
  -31.6496  -17.9745   20.8833 C   0  0  0  0  0  0  0  0  0  0  0  0
  -21.1338  -19.5068   22.7376 C   0  0  0  0  0  0  0  0  0  0  0  0
  -24.8434  -13.3115   21.4251 C   0  0  0  0  0  0  0  0  0  0  0  0
  -25.4308  -11.3953   20.5207 C   0  0  0  0  0  0  0  0  0  0  0  0
  -27.0590  -22.8099   21.0524 C   0  0  0  0  0  0  0  0  0  0  0  0
  -29.4253  -15.0676   21.6946 C   0  0  0  0  0  0  0  0  0  0  0  0
  -23.0135  -11.5263   21.1434 C   0  0  0  0  0  0  0  0  0  0  0  0
  -27.5395  -21.9317   20.1566 C   0  0  0  0  0  0  0  0  0  0  0  0
  -26.2657  -29.1149   22.2419 C   0  0  0  0  0  0  0  0  0  0  0  0
  -23.6340  -30.1550   20.4967 C   0  0  0  0  0  0  0  0  0  0  0  0
  -22.6537  -32.0185   23.1811 C   0  0  0  0  0  0  0  0  0  0  0  0
  -29.2934  -30.7362   26.0184 C   0  0  0  0  0  0  0  0  0  0  0  0
  -27.2587  -29.4896   19.9561 C   0  0  0  0  0  0  0  0  0  0  0  0
  -24.6856  -28.0299   19.8563 C   0  0  0  0  0  0  0  0  0  0  0  0
  -27.8610  -31.0159   25.5710 C   0  0  0  0  0  0  0  0  0  0  0  0
  -28.3001  -13.8130   18.4067 C   0  0  0  0  0  0  0  0  0  0  0  0
  -27.1135  -29.7090   25.3258 C   0  0  0  0  0  0  0  0  0  0  0  0
  -28.1089  -12.3258   18.6901 C   0  0  0  0  0  0  0  0  0  0  0  0
  -29.4320  -14.3901   19.2462 C   0  0  0  0  0  0  0  0  0  0  0  0
  -28.9946  -12.7278   21.0413 C   0  0  0  0  0  0  0  0  0  0  0  0
  -27.7760  -28.8960   24.2071 C   0  0  1  0  0  0  0  0  0  0  0  0
  -26.1112  -29.8015   20.9145 C   0  0  1  0  0  0  0  0  0  0  0  0
  -27.9170  -12.0295   20.1879 C   0  0  1  0  0  0  0  0  0  0  0  0
  -26.8339  -17.6804   22.4155 C   0  0  0  0  0  0  0  0  0  0  0  0
  -20.9946  -33.7747   23.8595 C   0  0  0  0  0  0  0  0  0  0  0  0
  -25.2814  -32.2692   19.0401 C   0  0  0  0  0  0  0  0  0  0  0  0
  -24.1994  -34.0053   20.4835 C   0  0  0  0  0  0  0  0  0  0  0  0
  -22.8077  -32.6235   18.9419 C   0  0  0  0  0  0  0  0  0  0  0  0
  -21.4341  -30.2463   25.2135 C   0  0  0  0  0  0  0  0  0  0  0  0
  -27.4547  -17.1286   21.1373 C   0  0  0  0  0  0  0  0  0  0  0  0
  -26.8580  -21.7348   18.8191 C   0  0  0  0  0  0  0  0  0  0  0  0
  -28.7707  -21.1166   20.4573 C   0  0  0  0  0  0  0  0  0  0  0  0
  -27.7140  -22.1024   17.6037 C   0  0  0  0  0  0  0  0  0  0  0  0
  -28.1341  -23.5669   17.5764 C   0  0  0  0  0  0  0  0  0  1  0  0
  -23.7820  -31.5620   21.0194 C   0  0  1  0  0  0  0  0  0  0  0  0
  -21.2828  -32.2838   23.7767 C   0  0  2  0  0  0  0  0  0  0  0  0
  -24.0318  -32.5932   19.8829 C   0  0  0  0  0  0  0  0  0  0  0  0
  -26.1477  -13.4471   21.1716 N   0  0  0  0  0  0  0  0  0  0  0  0
  -26.4761  -12.2654   20.6221 N   0  0  0  0  0  0  0  0  0  0  0  0
  -29.2277  -14.1276   20.6756 N   0  0  0  0  0  0  0  0  0  0  0  0
  -24.8070  -29.3995   20.3725 N   0  0  0  0  0  0  0  0  0  0  0  0
  -25.5857  -10.1630   19.9915 N   0  0  0  0  0  0  0  0  0  0  0  0
  -22.0153  -12.3359   21.7024 N   0  0  0  0  0  0  0  0  0  0  0  0
  -28.4440  -19.7121   20.4204 N   0  0  0  0  0  0  0  0  0  0  0  0
  -27.4290  -29.4416   22.9123 N   0  0  0  0  0  0  0  0  0  0  0  0
  -22.5898  -31.8287   21.8168 N   0  0  0  0  0  0  0  0  0  0  0  0
  -21.1950  -31.7111   25.1497 N   0  3  0  0  0  0  0  0  0  0  0  0
  -29.2592  -14.8660   22.8969 O   0  0  0  0  0  0  0  0  0  0  0  0
  -22.7230  -10.3656   20.7665 O   0  0  0  0  0  0  0  0  0  0  0  0
  -25.3933  -28.3467   22.6299 O   0  0  0  0  0  0  0  0  0  0  0  0
  -22.5115  -29.7375   20.1987 O   0  0  0  0  0  0  0  0  0  0  0  0
  -23.6792  -31.9867   23.8578 O   0  0  0  0  0  0  0  0  0  0  0  0
  -21.9892  -17.5078   23.7726 O   0  0  0  0  0  0  0  0  0  0  0  0
  -26.9617  -24.3789   17.5276 O   0  0  0  0  0  0  0  0  0  1  0  0
  -22.8239  -22.5908   21.8052 F   0  0  0  0  0  0  0  0  0  0  0  0
  -32.9606  -18.2385   20.8053 F   0  0  0  0  0  0  0  0  0  0  0  0
  -19.9059  -18.9717   22.6956 F   0  0  0  0  0  0  0  0  0  0  0  0
  1  2  1  0  0  0  0
  1  5  2  0  0  0  0
  2  6  2  0  0  0  0
  3  8  2  0  0  0  0
  3 17  1  0  0  0  0
  4  9  1  0  0  0  0
  4 17  2  0  0  0  0
  5 20  1  0  0  0  0
  6 22  1  0  0  0  0
  7 10  2  0  0  0  0
  7 21  1  0  0  0  0
  8 26  1  0  0  0  0
  9 26  2  0  0  0  0
 10 27  1  0  0  0  0
 11 12  2  0  0  0  0
 11 28  1  0  0  0  0
 12 29  1  0  0  0  0
 13 18  2  0  0  0  0
 13 30  1  0  0  0  0
 14 23  1  0  0  0  0
 14 27  2  0  0  0  0
 15 25  1  0  0  0  0
 15 30  2  0  0  0  0
 16 29  2  0  0  0  0
 16 31  1  0  0  0  0
 17 32  1  0  0  0  0
 18 24  1  0  0  0  0
 18 35  1  0  0  0  0
 19 32  1  0  0  0  0
 19 33  2  0  0  0  0
 19 36  1  0  0  0  0
 20 22  2  0  0  0  0
 20 41  1  0  0  0  0
 21 23  2  0  0  0  0
 21 42  1  0  0  0  0
 22 50  1  0  0  0  0
 23 43  1  0  0  0  0
 24 25  2  0  0  0  0
 24 59  1  0  0  0  0
 25 73  1  0  0  0  0
 26 82  1  0  0  0  0
 27 83  1  0  0  0  0
 28 31  2  0  0  0  0
 28 82  1  0  0  0  0
 29 84  1  0  0  0  0
 30 85  1  0  0  0  0
 31 86  1  0  0  0  0
 32 67  2  0  0  0  0
 33 68  1  0  0  0  0
 33 71  1  0  0  0  0
 34 37  2  0  0  0  0
 35 69  1  0  0  0  0
 35 77  2  0  0  0  0
 36 72  1  0  0  0  0
 36 78  2  0  0  0  0
 37 60  1  0  0  0  0
 37 61  1  0  0  0  0
 38 51  1  0  0  0  0
 38 74  1  0  0  0  0
 38 79  2  0  0  0  0
 39 64  1  0  0  0  0
 39 70  1  0  0  0  0
 39 80  2  0  0  0  0
 40 65  1  0  0  0  0
 40 75  1  0  0  0  0
 40 81  2  0  0  0  0
 41 44  1  0  0  0  0
 42 51  1  0  0  0  0
 43 70  1  0  0  0  0
 44 46  1  0  0  0  0
 45 47  1  0  0  0  0
 45 48  1  0  0  0  0
 46 50  1  0  0  0  0
 47 52  1  0  0  0  0
 48 69  1  0  0  0  0
 49 52  1  0  0  0  0
 49 69  1  0  0  0  0
 50 74  1  0  0  0  0
 51 70  1  0  0  0  0
 52 68  1  0  0  0  0
 53 59  1  0  0  0  0
 54 65  1  0  0  0  0
 55 66  1  0  0  0  0
 56 66  1  0  0  0  0
 57 66  1  0  0  0  0
 58 76  1  0  0  0  0
 60 62  1  0  0  0  0
 61 73  1  0  0  0  0
 62 63  1  0  0  0  0
 63 83  1  0  0  0  0
 64 66  1  0  0  0  0
 64 75  1  0  0  0  0
 65 76  1  0  0  0  0
 67 68  1  0  0  0  0
M  CHG  1  76   1
M  ISO  4  18 100  35 100  63 101  83 101
M  END
> <Batch ID>
0121

> <Smiles>
C=C(CC[101CH2:1][101O:1]c1ccc2c(c1)CN(C(=O)C(NC(=O)C(C)NC)C(C)(C)C)C(C(=O)NC1CCCc3ccccc31)C2)CNc1cc(F)c[100c:0]([100C:0](=O)N2CCCC(n3nc(-c4ccc(Oc5ccc(F)cc5F)cc4)c(C(N)=O)c3N)C2)c1CC

> <Shape>
0.244

> <Color>
0.080

> <Negative vol penalty>
0.000

$$$$

  -OEChem-04052301573D

 84 93  0     1  0  0  0  0  0999 V2000
  -33.4041  -36.0565   21.3853 C   0  0  0  0  0  0  0  0  0  0  0  0
  -33.0947  -34.7002   21.3902 C   0  0  0  0  0  0  0  0  0  0  0  0
  -24.3675   -9.1674   22.1104 C   0  0  0  0  0  0  0  0  0  0  0  0
  -23.7906   -9.0114   19.7695 C   0  0  0  0  0  0  0  0  0  0  0  0
  -29.6413  -20.5358   20.6132 C   0  0  0  0  0  0  0  0  0  0  0  0
  -31.9661  -20.0688   21.0760 C   0  0  0  0  0  0  0  0  0  0  0  0
  -32.7668  -36.9189   22.2764 C   0  0  0  0  0  0  0  0  0  0  0  0
  -32.1487  -34.2052   22.2872 C   0  0  0  0  0  0  0  0  0  0  0  0
  -28.9005  -30.9895   20.1070 C   0  0  0  0  0  0  0  0  0  0  0  0
  -29.9419  -21.8903   20.4699 C   0  0  0  0  0  0  0  0  0  0  0  0
  -32.2667  -21.4233   20.9326 C   0  0  0  0  0  0  0  0  0  0  0  0
  -23.2849   -8.3488   22.4319 C   0  0  0  0  0  0  0  0  0  0  0  0
  -22.7079   -8.1927   20.0909 C   0  0  0  0  0  0  0  0  0  0  0  0
  -29.3498  -29.6902   19.8751 C   0  0  0  0  0  0  0  0  0  0  0  0
  -22.5528   -5.0483   22.3698 C   0  0  0  0  0  0  0  0  0  0  0  0
  -22.7683   -4.0181   23.2851 C   0  0  0  0  0  0  0  0  0  0  0  0
  -28.1886  -28.9421   21.8528 C   0  0  0  0  0  0  0  0  0  0  0  0
  -21.1023   -4.9725   24.7517 C   0  0  0  0  0  0  0  0  0  0  0  0
  -24.6204   -9.4987   20.7793 C   0  0  0  0  0  0  0  0  0  0  0  0
  -30.6534  -19.6250   20.9164 C   0  0  0  0  0  0  0  0  0  0  0  0
  -27.0530   -9.9386   20.1495 C   0  0  0  0  0  0  0  0  0  0  0  0
  -31.8055  -36.4359   23.1782 C   0  0  0  0  0  0  0  0  0  0  0  0
  -28.0995  -31.2774   21.2215 C   0  0  0  0  0  0  0  0  0  0  0  0
  -31.4990  -35.0617   23.1921 C   0  0  0  0  0  0  0  0  0  0  0  0
  -27.7283  -30.2454   22.0952 C   0  0  0  0  0  0  0  0  0  0  0  0
  -31.2546  -22.3341   20.6295 C   0  0  0  0  0  0  0  0  0  0  0  0
  -22.4551   -7.8614   21.4221 C   0  0  0  0  0  0  0  0  0  0  0  0
  -28.9962  -28.6668   20.7496 C   0  0  0  0  0  0  0  0  0  0  0  0
  -21.6121   -6.0407   22.6455 C   0  0  0  0  0  0  0  0  0  0  0  0
  -22.0431   -3.9802   24.4760 C   0  0  0  0  0  0  0  0  0  0  0  0
  -20.8868   -6.0028   23.8364 C   0  0  0  0  0  0  0  0  0  0  0  0
  -25.7383  -10.3448   20.4467 C   0  0  0  0  0  0  0  0  0  0  0  0
  -27.7271  -11.1099   19.9044 C   0  0  0  0  0  0  0  0  0  0  0  0
  -31.3237  -25.9739   20.2848 C   0  0  0  0  0  0  0  0  0  0  0  0
  -30.3399  -18.2127   21.0658 C   0  0  0  0  0  0  0  0  0  0  0  0
  -30.7825  -27.1783   20.4963 C   0  0  0  0  0  0  0  0  0  1  0  0
  -29.1141  -17.7046   21.3154 C   0  0  0  0  0  0  0  0  0  0  0  0
  -27.6146   -8.6203   20.0994 C   0  0  0  0  0  0  0  0  0  0  0  0
  -28.9547  -16.2410   21.4307 C   0  0  0  0  0  0  0  0  0  0  0  0
  -28.4089  -33.1258   23.7888 C   0  0  0  0  0  0  0  0  0  0  0  0
  -25.3361  -32.2330   24.3211 C   0  0  0  0  0  0  0  0  0  0  0  0
  -22.8513  -29.9513   23.8056 C   0  0  0  0  0  0  0  0  0  0  0  0
  -31.1777  -37.3987   24.1547 C   0  0  0  0  0  0  0  0  0  0  0  0
  -27.6010  -32.6791   21.4428 C   0  0  0  0  0  0  0  0  0  0  0  0
  -26.8537  -30.4983   23.2949 C   0  0  0  0  0  0  0  0  0  0  0  0
  -32.7909  -25.6850   20.2442 C   0  0  0  0  0  0  0  0  0  0  0  0
  -30.5532  -24.6928   20.1714 C   0  0  0  0  0  0  0  0  0  0  0  0
  -29.9144  -36.8562   24.8180 C   0  0  0  0  0  0  0  0  0  0  0  0
  -26.0434  -15.8174   19.2452 C   0  0  0  0  0  0  0  0  0  0  0  0
  -30.1377  -35.4276   25.3037 C   0  0  0  0  0  0  0  0  0  0  0  0
  -25.7886  -14.3188   19.3827 C   0  0  0  0  0  0  0  0  0  0  0  0
  -32.8687  -24.2494   20.7561 C   0  0  0  0  0  0  0  0  0  0  0  0
  -26.5689  -16.4294   20.5428 C   0  0  0  0  0  0  0  0  0  0  0  0
  -27.5261  -14.2448   21.2145 C   0  0  0  0  0  0  0  0  0  0  0  0
  -30.4604  -34.4910   24.1332 C   0  0  1  0  0  0  0  0  0  0  0  0
  -27.2150  -32.9540   22.8929 C   0  0  1  0  0  0  0  0  0  0  0  0
  -27.0415  -13.5994   19.9068 C   0  0  1  0  0  0  0  0  0  0  0  0
  -20.4603  -29.4745   24.3999 C   0  0  0  0  0  0  0  0  0  0  0  0
  -26.2080  -31.3462   27.1074 C   0  0  0  0  0  0  0  0  0  0  0  0
  -24.0758  -30.0461   27.2848 C   0  0  0  0  0  0  0  0  0  0  0  0
  -24.0046  -32.5266   27.0302 C   0  0  0  0  0  0  0  0  0  0  0  0
  -22.0067  -30.0445   20.9706 C   0  0  0  0  0  0  0  0  0  0  0  0
  -24.6646  -31.0961   25.0528 C   0  0  1  0  0  0  0  0  0  0  0  0
  -21.4001  -30.1184   23.3925 C   0  0  2  0  0  0  0  0  0  0  0  0
  -24.7563  -31.2490   26.5974 C   0  0  0  0  0  0  0  0  0  0  0  0
  -25.5843  -11.6706   20.3958 N   0  0  0  0  0  0  0  0  0  0  0  0
  -26.8110  -12.1076   20.0638 N   0  0  0  0  0  0  0  0  0  0  0  0
  -31.5524  -23.6752   20.4876 N   0  0  3  0  0  0  0  0  0  0  0  0
  -27.7314  -15.6887   21.0552 N   0  0  0  0  0  0  0  0  0  0  0  0
  -26.3967  -31.8866   23.4720 N   0  0  0  0  0  0  0  0  0  0  0  0
  -29.0083  -11.3734   19.5703 N   0  0  0  0  0  0  0  0  0  0  0  0
  -26.7816   -7.5282   20.3782 N   0  0  0  0  0  0  0  0  0  0  0  0
  -29.2536  -34.1517   23.4100 N   0  0  0  0  0  0  0  0  0  0  0  0
  -23.3008  -31.0289   24.5390 N   0  0  0  0  0  0  0  0  0  0  0  0
  -21.1647  -29.4900   22.0618 N   0  3  0  0  0  0  0  0  0  0  0  0
  -28.8233   -8.4180   19.8318 O   0  0  0  0  0  0  0  0  0  0  0  0
  -29.9143  -15.5964   21.8577 O   0  0  0  0  0  0  0  0  0  0  0  0
  -28.5524  -32.3836   24.7533 O   0  0  0  0  0  0  0  0  0  0  0  0
  -24.9299  -33.3853   24.4911 O   0  0  0  0  0  0  0  0  0  0  0  0
  -23.5181  -28.9619   23.5106 O   0  0  0  0  0  0  0  0  0  0  0  0
  -21.3987   -7.0624   21.7354 O   0  0  0  0  0  0  0  0  0  0  0  0
  -29.4339  -27.3979   20.5259 O   0  0  0  0  0  0  0  0  0  1  0  0
  -22.2490   -2.9899   25.3542 F   0  0  0  0  0  0  0  0  0  0  0  0
  -19.9809   -6.9527   24.1061 F   0  0  0  0  0  0  0  0  0  0  0  0
  1  2  1  0  0  0  0
  1  7  2  0  0  0  0
  2  8  2  0  0  0  0
  3 12  2  0  0  0  0
  3 19  1  0  0  0  0
  4 13  1  0  0  0  0
  4 19  2  0  0  0  0
  5 10  2  0  0  0  0
  5 20  1  0  0  0  0
  6 11  1  0  0  0  0
  6 20  2  0  0  0  0
  7 22  1  0  0  0  0
  8 24  1  0  0  0  0
  9 14  2  0  0  0  0
  9 23  1  0  0  0  0
 10 26  1  0  0  0  0
 11 26  2  0  0  0  0
 12 27  1  0  0  0  0
 13 27  2  0  0  0  0
 14 28  1  0  0  0  0
 15 16  2  0  0  0  0
 15 29  1  0  0  0  0
 16 30  1  0  0  0  0
 17 25  1  0  0  0  0
 17 28  2  0  0  0  0
 18 30  2  0  0  0  0
 18 31  1  0  0  0  0
 19 32  1  0  0  0  0
 20 35  1  0  0  0  0
 21 32  1  0  0  0  0
 21 33  2  0  0  0  0
 21 38  1  0  0  0  0
 22 24  2  0  0  0  0
 22 43  1  0  0  0  0
 23 25  2  0  0  0  0
 23 44  1  0  0  0  0
 24 55  1  0  0  0  0
 25 45  1  0  0  0  0
 26 68  1  0  0  0  0
 27 81  1  0  0  0  0
 28 82  1  0  0  0  0
 29 31  2  0  0  0  0
 29 81  1  0  0  0  0
 30 83  1  0  0  0  0
 31 84  1  0  0  0  0
 32 66  2  0  0  0  0
 33 67  1  0  0  0  0
 33 71  1  0  0  0  0
 34 36  2  0  0  0  0
 34 46  1  0  0  0  0
 34 47  1  0  0  0  0
 35 37  2  0  0  0  0
 36 82  1  0  0  0  0
 37 39  1  0  0  0  0
 38 72  1  0  0  0  0
 38 76  2  0  0  0  0
 39 69  1  0  0  0  0
 39 77  2  0  0  0  0
 40 56  1  0  0  0  0
 40 73  1  0  0  0  0
 40 78  2  0  0  0  0
 41 63  1  0  0  0  0
 41 70  1  0  0  0  0
 41 79  2  0  0  0  0
 42 64  1  0  0  0  0
 42 74  1  0  0  0  0
 42 80  2  0  0  0  0
 43 48  1  0  0  0  0
 44 56  1  0  0  0  0
 45 70  1  0  0  0  0
 46 52  1  0  0  0  0
 47 68  1  0  0  0  0
 48 50  1  0  0  0  0
 49 51  1  0  0  0  0
 49 53  1  0  0  0  0
 50 55  1  0  0  0  0
 51 57  1  0  0  0  0
 52 68  1  0  0  0  0
 53 69  1  0  0  0  0
 54 57  1  0  0  0  0
 54 69  1  0  0  0  0
 55 73  1  0  0  0  0
 56 70  1  0  0  0  0
 57 67  1  0  0  0  0
 58 64  1  0  0  0  0
 59 65  1  0  0  0  0
 60 65  1  0  0  0  0
 61 65  1  0  0  0  0
 62 75  1  0  0  0  0
 63 65  1  0  0  0  0
 63 74  1  0  0  0  0
 64 75  1  0  0  0  0
 66 67  1  0  0  0  0
M  CHG  1  75   1
M  ISO  4  36 101  37 100  39 100  82 101
M  END
> <Batch ID>
0121

> <Smiles>
CNC(C)C(=O)NC(C(=O)N1Cc2cc([101O:1][101CH:1]=C3CCN(c4ccc(C=[100CH:0][100C:0](=O)N5CCCC(n6nc(-c7ccc(Oc8ccc(F)cc8F)cc7)c(C(N)=O)c6N)C5)cc4)C3)ccc2CC1C(=O)NC1CCCc2ccccc21)C(C)(C)C

> <Shape>
0.280

> <Color>
0.107

> <Negative vol penalty>
0.000

$$$$

  -OEChem-04052301573D

 85 93  0     1  0  0  0  0  0999 V2000
  -29.0939  -27.0238   17.9525 C   0  0  0  0  0  0  0  0  0  0  0  0
  -29.2108  -26.3347   19.1554 C   0  0  0  0  0  0  0  0  0  0  0  0
  -22.8919   -9.9819   20.1327 C   0  0  0  0  0  0  0  0  0  0  0  0
  -24.2865   -9.5241   22.0517 C   0  0  0  0  0  0  0  0  0  0  0  0
  -28.0967  -27.9856   17.7956 C   0  0  0  0  0  0  0  0  0  0  0  0
  -28.3314  -26.6077   20.2024 C   0  0  0  0  0  0  0  0  0  0  0  0
  -26.5810  -22.4028   22.4160 C   0  0  0  0  0  0  0  0  0  0  0  0
  -31.6918  -18.4386   23.7499 C   0  0  0  0  0  0  0  0  0  0  0  0
  -30.9923  -17.7323   22.7714 C   0  0  0  0  0  0  0  0  0  0  0  0
  -22.4590   -8.6560   20.1308 C   0  0  0  0  0  0  0  0  0  0  0  0
  -23.8536   -8.1981   22.0499 C   0  0  0  0  0  0  0  0  0  0  0  0
  -27.4312  -21.7524   23.3093 C   0  0  0  0  0  0  0  0  0  0  0  0
  -22.8407   -4.7819   22.7723 C   0  0  0  0  0  0  0  0  0  0  0  0
  -22.4848   -4.2134   23.9953 C   0  0  0  0  0  0  0  0  0  0  0  0
  -29.6984  -18.5256   25.1122 C   0  0  0  0  0  0  0  0  0  0  0  0
  -26.2586  -22.7690   25.1561 C   0  0  0  0  0  0  0  0  0  0  0  0
  -20.7744   -5.8959   24.2796 C   0  0  0  0  0  0  0  0  0  0  0  0
  -23.8057  -10.4160   21.0931 C   0  0  0  0  0  0  0  0  0  0  0  0
  -28.9989  -17.8194   24.1337 C   0  0  0  0  0  0  0  0  0  0  0  0
  -23.6705  -12.8696   21.7779 C   0  0  0  0  0  0  0  0  0  0  0  0
  -27.1985  -28.2637   18.8379 C   0  0  0  0  0  0  0  0  0  0  0  0
  -25.5685  -23.2512   22.8865 C   0  0  0  0  0  0  0  0  0  0  0  0
  -27.3221  -27.5751   20.0598 C   0  0  0  0  0  0  0  0  0  0  0  0
  -25.3953  -23.4270   24.2668 C   0  0  0  0  0  0  0  0  0  0  0  0
  -31.0449  -18.8352   24.9204 C   0  0  0  0  0  0  0  0  0  0  0  0
  -29.6459  -17.4228   22.9633 C   0  0  0  0  0  0  0  0  0  0  0  0
  -22.9398   -7.7641   21.0895 C   0  0  0  0  0  0  0  0  0  0  0  0
  -27.2719  -21.9377   24.6795 C   0  0  0  0  0  0  0  0  0  0  0  0
  -22.1635   -5.9074   22.3029 C   0  0  0  0  0  0  0  0  0  0  0  0
  -21.4517   -4.7704   24.7490 C   0  0  0  0  0  0  0  0  0  0  0  0
  -21.1303   -6.4644   23.0566 C   0  0  0  0  0  0  0  0  0  0  0  0
  -24.2537  -11.7854   21.0951 C   0  0  0  0  0  0  0  0  0  0  0  0
  -24.4645  -13.9438   21.4583 C   0  0  0  0  0  0  0  0  0  0  0  0
  -27.1590  -16.8191   25.4102 C   0  0  0  0  0  0  0  0  0  0  0  0
  -27.5929  -17.5132   24.3696 C   0  0  0  0  0  0  0  0  0  0  0  0
  -30.8296  -21.9100   26.3649 C   0  0  0  0  0  0  0  0  0  0  0  0
  -22.5145  -12.9028   22.6253 C   0  0  0  0  0  0  0  0  0  0  0  0
  -31.7456  -21.1012   25.7963 C   0  0  0  0  0  0  0  0  0  0  0  0
  -24.9059  -26.3438   22.5695 C   0  0  0  0  0  0  0  0  0  0  0  0
  -22.2015  -25.5289   24.1647 C   0  0  0  0  0  0  0  0  0  0  0  0
  -20.6308  -23.3699   26.2904 C   0  0  0  0  0  0  0  0  0  0  0  0
  -29.4814  -16.2499   20.7399 C   0  0  0  0  0  0  0  0  0  0  0  0
  -26.1667  -29.3455   18.6378 C   0  0  0  0  0  0  0  0  0  0  0  0
  -24.6427  -23.9246   21.9108 C   0  0  0  0  0  0  0  0  0  0  0  0
  -24.3107  -24.3114   24.8237 C   0  0  0  0  0  0  0  0  0  0  0  0
  -25.0391  -29.3093   19.6661 C   0  0  0  0  0  0  0  0  0  0  0  0
  -28.1325  -14.4160   18.0022 C   0  0  0  0  0  0  0  0  0  0  0  0
  -25.6048  -29.1465   21.0733 C   0  0  0  0  0  0  0  0  0  0  0  0
  -26.9552  -13.6574   18.6190 C   0  0  0  0  0  0  0  0  0  0  0  0
  -29.3117  -14.5156   18.9683 C   0  0  0  0  0  0  0  0  0  0  0  0
  -27.8083  -14.3036   20.9084 C   0  0  0  0  0  0  0  0  0  0  0  0
  -26.3714  -27.8255   21.2103 C   0  0  1  0  0  0  0  0  0  0  0  0
  -23.9727  -25.1693   22.4844 C   0  0  1  0  0  0  0  0  0  0  0  0
  -26.5727  -14.2338   19.9963 C   0  0  2  0  0  0  0  0  0  0  0  0
  -32.7773  -21.6787   24.8598 C   0  0  0  0  0  0  0  0  0  0  0  0
  -18.4330  -22.9860   27.4391 C   0  0  0  0  0  0  0  0  0  0  0  0
  -22.8588  -27.7442   26.1572 C   0  0  0  0  0  0  0  0  0  0  0  0
  -21.2169  -26.7117   27.7405 C   0  0  0  0  0  0  0  0  0  0  0  0
  -20.4417  -27.5836   25.5356 C   0  0  0  0  0  0  0  0  0  0  0  0
  -20.2460  -20.7664   24.9366 C   0  0  0  0  0  0  0  0  0  0  0  0
  -31.8037  -19.6001   25.9788 C   0  0  0  0  0  0  0  0  0  0  0  0
  -29.7277  -21.5369   27.3190 C   0  0  0  0  0  0  0  0  0  0  0  0
  -28.3621  -21.9617   26.7930 C   0  0  0  0  0  0  0  0  0  1  0  0
  -21.7993  -25.4524   25.6177 C   0  0  1  0  0  0  0  0  0  0  0  0
  -19.2789  -22.6840   26.2119 C   0  0  2  0  0  0  0  0  0  0  0  0
  -21.6009  -26.8577   26.2525 C   0  0  0  0  0  0  0  0  0  0  0  0
  -25.3347  -12.1386   20.3945 N   0  0  0  0  0  0  0  0  0  0  0  0
  -25.4369  -13.4568   20.6353 N   0  0  0  0  0  0  0  0  0  0  0  0
  -23.4350  -24.9529   23.8292 N   0  0  0  0  0  0  0  0  0  0  0  0
  -28.8749  -15.0739   20.2498 N   0  0  0  0  0  0  0  0  0  0  0  0
  -24.4187  -15.2481   21.8037 N   0  0  0  0  0  0  0  0  0  0  0  0
  -21.8148  -11.7089   22.8480 N   0  0  0  0  0  0  0  0  0  0  0  0
  -28.9616  -16.7049   21.9512 N   0  0  0  0  0  0  0  0  0  0  0  0
  -25.4500  -26.7191   21.3560 N   0  0  0  0  0  0  0  0  0  0  0  0
  -20.6158  -24.6009   25.6694 N   0  0  0  0  0  0  0  0  0  0  0  0
  -19.4523  -21.2071   26.1125 N   0  3  0  0  0  0  0  0  0  0  0  0
  -22.1042  -13.9628   23.1558 O   0  0  0  0  0  0  0  0  0  0  0  0
  -25.1156  -26.8715   23.6554 O   0  0  0  0  0  0  0  0  0  0  0  0
  -21.4457  -26.0732   23.3558 O   0  0  0  0  0  0  0  0  0  0  0  0
  -21.6020  -22.8659   26.8500 O   0  0  0  0  0  0  0  0  0  0  0  0
  -30.3759  -16.8270   20.1164 O   0  0  0  0  0  0  0  0  0  0  0  0
  -22.5174   -6.4702   21.0881 O   0  0  0  0  0  0  0  0  0  0  0  0
  -28.1007  -21.3045   25.5536 O   0  0  0  0  0  0  0  0  0  1  0  0
  -21.1090   -4.2235   25.9227 F   0  0  0  0  0  0  0  0  0  0  0  0
  -20.4753   -7.5450   22.6103 F   0  0  0  0  0  0  0  0  0  0  0  0
  1  2  1  0  0  0  0
  1  5  2  0  0  0  0
  2  6  2  0  0  0  0
  3 10  2  0  0  0  0
  3 18  1  0  0  0  0
  4 11  1  0  0  0  0
  4 18  2  0  0  0  0
  5 21  1  0  0  0  0
  6 23  1  0  0  0  0
  7 12  2  0  0  0  0
  7 22  1  0  0  0  0
  8  9  2  0  0  0  0
  8 25  1  0  0  0  0
  9 26  1  0  0  0  0
 10 27  1  0  0  0  0
 11 27  2  0  0  0  0
 12 28  1  0  0  0  0
 13 14  2  0  0  0  0
 13 29  1  0  0  0  0
 14 30  1  0  0  0  0
 15 19  1  0  0  0  0
 15 25  2  0  0  0  0
 16 24  1  0  0  0  0
 16 28  2  0  0  0  0
 17 30  2  0  0  0  0
 17 31  1  0  0  0  0
 18 32  1  0  0  0  0
 19 26  2  0  0  0  0
 19 35  1  0  0  0  0
 20 32  1  0  0  0  0
 20 33  2  0  0  0  0
 20 37  1  0  0  0  0
 21 23  2  0  0  0  0
 21 43  1  0  0  0  0
 22 24  2  0  0  0  0
 22 44  1  0  0  0  0
 23 52  1  0  0  0  0
 24 45  1  0  0  0  0
 25 61  1  0  0  0  0
 26 73  1  0  0  0  0
 27 82  1  0  0  0  0
 28 83  1  0  0  0  0
 29 31  2  0  0  0  0
 29 82  1  0  0  0  0
 30 84  1  0  0  0  0
 31 85  1  0  0  0  0
 32 67  2  0  0  0  0
 33 68  1  0  0  0  0
 33 71  1  0  0  0  0
 34 35  2  0  0  0  0
 36 38  2  0  0  0  0
 36 62  1  0  0  0  0
 37 72  1  0  0  0  0
 37 77  2  0  0  0  0
 38 55  1  0  0  0  0
 38 61  1  0  0  0  0
 39 53  1  0  0  0  0
 39 74  1  0  0  0  0
 39 78  2  0  0  0  0
 40 64  1  0  0  0  0
 40 69  1  0  0  0  0
 40 79  2  0  0  0  0
 41 65  1  0  0  0  0
 41 75  1  0  0  0  0
 41 80  2  0  0  0  0
 42 70  1  0  0  0  0
 42 73  1  0  0  0  0
 42 81  2  0  0  0  0
 43 46  1  0  0  0  0
 44 53  1  0  0  0  0
 45 69  1  0  0  0  0
 46 48  1  0  0  0  0
 47 49  1  0  0  0  0
 47 50  1  0  0  0  0
 48 52  1  0  0  0  0
 49 54  1  0  0  0  0
 50 70  1  0  0  0  0
 51 54  1  0  0  0  0
 51 70  1  0  0  0  0
 52 74  1  0  0  0  0
 53 69  1  0  0  0  0
 54 68  1  0  0  0  0
 56 65  1  0  0  0  0
 57 66  1  0  0  0  0
 58 66  1  0  0  0  0
 59 66  1  0  0  0  0
 60 76  1  0  0  0  0
 62 63  1  0  0  0  0
 63 83  1  0  0  0  0
 64 66  1  0  0  0  0
 64 75  1  0  0  0  0
 65 76  1  0  0  0  0
 67 68  1  0  0  0  0
M  CHG  1  76   1
M  ISO  4  42 100  63 101  73 100  83 101
M  END
> <Batch ID>
0121

> <Smiles>
C=Cc1cc(CC(C)=CC[101CH2:1][101O:1]c2ccc3c(c2)CN(C(=O)C(NC(=O)C(C)NC)C(C)(C)C)C(C(=O)NC2CCCc4ccccc42)C3)ccc1[100NH:0][100C:0](=O)N1CCCC(n2nc(-c3ccc(Oc4ccc(F)cc4F)cc3)c(C(N)=O)c2N)C1

> <Shape>
0.192

> <Color>
0.095

> <Negative vol penalty>
0.000

$$$$

  -OEChem-04052301573D

 86 94  0     1  0  0  0  0  0999 V2000
  -19.1297  -32.9734   23.2851 C   0  0  0  0  0  0  0  0  0  0  0  0
  -20.2900  -32.2124   23.1862 C   0  0  0  0  0  0  0  0  0  0  0  0
  -24.3826  -12.2945   22.2444 C   0  0  0  0  0  0  0  0  0  0  0  0
  -22.8787  -12.5844   20.3758 C   0  0  0  0  0  0  0  0  0  0  0  0
  -17.8944  -32.3433   23.4297 C   0  0  0  0  0  0  0  0  0  0  0  0
  -20.2159  -30.8207   23.2330 C   0  0  0  0  0  0  0  0  0  0  0  0
  -23.0746  -28.6026   19.6901 C   0  0  0  0  0  0  0  0  0  0  0  0
  -23.3817  -11.6221   22.9456 C   0  0  0  0  0  0  0  0  0  0  0  0
  -21.8778  -11.9120   21.0771 C   0  0  0  0  0  0  0  0  0  0  0  0
  -24.4458  -28.5304   19.9316 C   0  0  0  0  0  0  0  0  0  0  0  0
  -21.3368   -9.5131   25.0869 C   0  0  0  0  0  0  0  0  0  0  0  0
  -21.6882   -8.3387   25.7524 C   0  0  0  0  0  0  0  0  0  0  0  0
  -32.9854  -21.8625   18.7653 C   0  0  0  0  0  0  0  0  0  0  0  0
  -30.8285  -22.7602   19.3807 C   0  0  0  0  0  0  0  0  0  0  0  0
  -24.1947  -26.2375   20.6378 C   0  0  0  0  0  0  0  0  0  0  0  0
  -32.6430  -24.2535   18.8195 C   0  0  0  0  0  0  0  0  0  0  0  0
  -22.3687   -7.3533   23.6540 C   0  0  0  0  0  0  0  0  0  0  0  0
  -24.1311  -12.7757   20.9595 C   0  0  0  0  0  0  0  0  0  0  0  0
  -31.6617  -21.6640   19.1575 C   0  0  0  0  0  0  0  0  0  0  0  0
  -26.1251  -12.9074   19.3739 C   0  0  0  0  0  0  0  0  0  0  0  0
  -17.8040  -30.9429   23.4686 C   0  0  0  0  0  0  0  0  0  0  0  0
  -22.2501  -27.4943   19.9314 C   0  0  0  0  0  0  0  0  0  0  0  0
  -18.9783  -30.1713   23.3797 C   0  0  0  0  0  0  0  0  0  0  0  0
  -22.8137  -26.2974   20.3961 C   0  0  0  0  0  0  0  0  0  0  0  0
  -33.4761  -23.1573   18.5963 C   0  0  0  0  0  0  0  0  0  0  0  0
  -22.1294  -11.4308   22.3620 C   0  0  0  0  0  0  0  0  0  0  0  0
  -25.0056  -27.3487   20.4082 C   0  0  0  0  0  0  0  0  0  0  0  0
  -21.5012   -9.6076   23.7050 C   0  0  0  0  0  0  0  0  0  0  0  0
  -31.3192  -24.0550   19.2117 C   0  0  0  0  0  0  0  0  0  0  0  0
  -22.2042   -7.2588   25.0359 C   0  0  0  0  0  0  0  0  0  0  0  0
  -22.0172   -8.5278   22.9885 C   0  0  0  0  0  0  0  0  0  0  0  0
  -25.1644  -13.4709   20.2348 C   0  0  0  0  0  0  0  0  0  0  0  0
  -26.8682  -13.9782   18.9408 C   0  0  0  0  0  0  0  0  0  0  0  0
  -36.5677  -24.5688   19.6176 C   0  0  0  0  0  0  0  0  0  0  0  0
  -31.1491  -20.3141   19.3331 C   0  0  0  0  0  0  0  0  0  0  0  0
  -30.0568  -19.9785   20.0520 C   0  0  0  0  0  0  0  0  0  0  0  0
  -35.8419  -23.4798   19.3401 C   0  0  0  0  0  0  0  0  0  0  0  0
  -26.3276  -11.5383   18.9991 C   0  0  0  0  0  0  0  0  0  0  0  0
  -29.6564  -18.5591   20.1270 C   0  0  0  0  0  0  0  0  0  0  0  0
  -19.7947  -26.9030   21.8615 C   0  0  0  0  0  0  0  0  0  0  0  0
  -28.4041  -26.1551   20.0456 C   0  0  0  0  0  0  0  0  0  0  0  0
  -19.6847  -24.1045   20.2249 C   0  0  0  0  0  0  0  0  0  0  0  0
  -21.3301  -21.7850   18.3382 C   0  0  0  0  0  0  0  0  0  0  0  0
  -16.4513  -30.3082   23.6737 C   0  0  0  0  0  0  0  0  0  0  0  0
  -20.7768  -27.5800   19.6404 C   0  0  0  0  0  0  0  0  0  0  0  0
  -21.9750  -25.0728   20.6520 C   0  0  0  0  0  0  0  0  0  0  0  0
  -16.4199  -28.8194   23.3381 C   0  0  0  0  0  0  0  0  0  0  0  0
  -26.0874  -18.9403   19.3863 C   0  0  0  0  0  0  0  0  0  0  0  0
  -17.6180  -28.1070   23.9578 C   0  0  0  0  0  0  0  0  0  0  0  0
  -25.6041  -17.4987   19.5201 C   0  0  0  0  0  0  0  0  0  0  0  0
  -27.2135  -19.2593   20.3685 C   0  0  0  0  0  0  0  0  0  0  0  0
  -27.8819  -16.8736   20.4152 C   0  0  0  0  0  0  0  0  0  0  0  0
  -18.9362  -28.6587   23.4014 C   0  0  1  0  0  0  0  0  0  0  0  0
  -19.9550  -26.5504   20.4097 C   0  0  1  0  0  0  0  0  0  0  0  0
  -26.7810  -16.5170   19.4041 C   0  0  1  0  0  0  0  0  0  0  0  0
  -20.9865  -19.5864   17.1783 C   0  0  0  0  0  0  0  0  0  0  0  0
  -19.7900  -22.6709   22.9163 C   0  0  0  0  0  0  0  0  0  0  0  0
  -20.3978  -20.5713   21.6955 C   0  0  0  0  0  0  0  0  0  0  0  0
  -18.2012  -21.6717   21.2636 C   0  0  0  0  0  0  0  0  0  0  0  0
  -21.9716  -22.9481   15.6934 C   0  0  0  0  0  0  0  0  0  0  0  0
  -34.8913  -23.3696   18.1762 C   0  0  0  0  0  0  0  0  0  0  0  0
  -26.9629  -26.0000   20.4862 C   0  0  0  0  0  0  0  0  0  1  0  0
  -29.1691  -24.8666   19.8233 C   0  0  0  0  0  0  0  0  0  0  0  0
  -20.3176  -22.7439   20.3900 C   0  0  1  0  0  0  0  0  0  0  0  0
  -20.9596  -21.1002   17.0350 C   0  0  2  0  0  0  0  0  0  0  0  0
  -19.6924  -21.9379   21.5634 C   0  0  0  0  0  0  0  0  0  0  0  0
  -25.2840  -14.7967   20.3436 N   0  0  0  0  0  0  0  0  0  0  0  0
  -26.3287  -15.0752   19.5454 N   0  0  0  0  0  0  0  0  0  0  0  0
  -28.3009  -18.2731   20.2794 N   0  0  0  0  0  0  0  0  0  0  0  0
  -20.5388  -25.2084   20.3582 N   0  0  0  0  0  0  0  0  0  0  0  0
  -27.9241  -14.0790   18.1057 N   0  0  0  0  0  0  0  0  0  0  0  0
  -25.4739  -10.5652   19.5362 N   0  0  0  0  0  0  0  0  0  0  0  0
  -19.1894  -28.1259   22.0799 N   0  0  0  0  0  0  0  0  0  0  0  0
  -20.2153  -22.0859   19.0919 N   0  0  0  0  0  0  0  0  0  0  0  0
  -21.9132  -21.4872   15.9571 N   0  3  0  0  0  0  0  0  0  0  0  0
  -27.2490  -11.1864   18.2240 O   0  0  0  0  0  0  0  0  0  0  0  0
  -30.5486  -17.7120   20.0550 O   0  0  0  0  0  0  0  0  0  0  0  0
  -20.1896  -26.1228   22.7199 O   0  0  0  0  0  0  0  0  0  0  0  0
  -28.9210  -27.2588   19.8794 O   0  0  0  0  0  0  0  0  0  0  0  0
  -18.4785  -24.1846   19.9794 O   0  0  0  0  0  0  0  0  0  0  0  0
  -22.4923  -22.0254   18.6574 O   0  0  0  0  0  0  0  0  0  0  0  0
  -21.1526  -10.7745   23.0459 O   0  0  0  0  0  0  0  0  0  0  0  0
  -26.3436  -27.2758   20.6454 O   0  0  0  0  0  0  0  0  0  1  0  0
  -30.4981  -25.1359   19.4299 O   0  0  0  0  0  0  0  0  0  0  0  0
  -22.5431   -6.1317   25.6753 F   0  0  0  0  0  0  0  0  0  0  0  0
  -22.1786   -8.6131   21.6609 F   0  0  0  0  0  0  0  0  0  0  0  0
  1  2  1  0  0  0  0
  1  5  2  0  0  0  0
  2  6  2  0  0  0  0
  3  8  2  0  0  0  0
  3 18  1  0  0  0  0
  4  9  1  0  0  0  0
  4 18  2  0  0  0  0
  5 21  1  0  0  0  0
  6 23  1  0  0  0  0
  7 10  2  0  0  0  0
  7 22  1  0  0  0  0
  8 26  1  0  0  0  0
  9 26  2  0  0  0  0
 10 27  1  0  0  0  0
 11 12  2  0  0  0  0
 11 28  1  0  0  0  0
 12 30  1  0  0  0  0
 13 19  2  0  0  0  0
 13 25  1  0  0  0  0
 14 19  1  0  0  0  0
 14 29  2  0  0  0  0
 15 24  1  0  0  0  0
 15 27  2  0  0  0  0
 16 25  2  0  0  0  0
 16 29  1  0  0  0  0
 17 30  2  0  0  0  0
 17 31  1  0  0  0  0
 18 32  1  0  0  0  0
 19 35  1  0  0  0  0
 20 32  1  0  0  0  0
 20 33  2  0  0  0  0
 20 38  1  0  0  0  0
 21 23  2  0  0  0  0
 21 44  1  0  0  0  0
 22 24  2  0  0  0  0
 22 45  1  0  0  0  0
 23 53  1  0  0  0  0
 24 46  1  0  0  0  0
 25 61  1  0  0  0  0
 26 82  1  0  0  0  0
 27 83  1  0  0  0  0
 28 31  2  0  0  0  0
 28 82  1  0  0  0  0
 29 84  1  0  0  0  0
 30 85  1  0  0  0  0
 31 86  1  0  0  0  0
 32 67  2  0  0  0  0
 33 68  1  0  0  0  0
 33 71  1  0  0  0  0
 34 37  2  0  0  0  0
 35 36  2  0  0  0  0
 36 39  1  0  0  0  0
 37 61  1  0  0  0  0
 38 72  1  0  0  0  0
 38 76  2  0  0  0  0
 39 69  1  0  0  0  0
 39 77  2  0  0  0  0
 40 54  1  0  0  0  0
 40 73  1  0  0  0  0
 40 78  2  0  0  0  0
 41 62  1  0  0  0  0
 41 63  1  0  0  0  0
 41 79  2  0  0  0  0
 42 64  1  0  0  0  0
 42 70  1  0  0  0  0
 42 80  2  0  0  0  0
 43 65  1  0  0  0  0
 43 74  1  0  0  0  0
 43 81  2  0  0  0  0
 44 47  1  0  0  0  0
 45 54  1  0  0  0  0
 46 70  1  0  0  0  0
 47 49  1  0  0  0  0
 48 50  1  0  0  0  0
 48 51  1  0  0  0  0
 49 53  1  0  0  0  0
 50 55  1  0  0  0  0
 51 69  1  0  0  0  0
 52 55  1  0  0  0  0
 52 69  1  0  0  0  0
 53 73  1  0  0  0  0
 54 70  1  0  0  0  0
 55 68  1  0  0  0  0
 56 65  1  0  0  0  0
 57 66  1  0  0  0  0
 58 66  1  0  0  0  0
 59 66  1  0  0  0  0
 60 75  1  0  0  0  0
 62 83  1  0  0  0  0
 63 84  1  0  0  0  0
 64 66  1  0  0  0  0
 64 74  1  0  0  0  0
 65 75  1  0  0  0  0
 67 68  1  0  0  0  0
M  CHG  1  75   1
M  ISO  4  36 100  39 100  62 101  83 101
M  END
> <Batch ID>
0121

> <Smiles>
C=CCc1cc(C=[100CH:0][100C:0](=O)N2CCCC(n3nc(-c4ccc(Oc5ccc(F)cc5F)cc4)c(C(N)=O)c3N)C2)cc(OCC(=O)[101CH2:1][101O:1]c2ccc3c(c2)CN(C(=O)C(NC(=O)C(C)NC)C(C)(C)C)C(C(=O)NC2CCCc4ccccc42)C3)c1

> <Shape>
0.228

> <Color>
0.083

> <Negative vol penalty>
0.000

$$$$

  -OEChem-04052301573D

 83 91  0     1  0  0  0  0  0999 V2000
  -28.6275  -35.8889   21.7805 C   0  0  0  0  0  0  0  0  0  0  0  0
  -28.8091  -34.5101   21.7454 C   0  0  0  0  0  0  0  0  0  0  0  0
  -23.4708   -6.9138   23.4801 C   0  0  0  0  0  0  0  0  0  0  0  0
  -21.1608   -7.4378   23.0042 C   0  0  0  0  0  0  0  0  0  0  0  0
  -27.6654  -19.8552   20.2292 C   0  0  0  0  0  0  0  0  0  0  0  0
  -28.9901  -19.4139   18.2576 C   0  0  0  0  0  0  0  0  0  0  0  0
  -27.3225  -18.5051   20.3011 C   0  0  0  0  0  0  0  0  0  0  0  0
  -28.6473  -18.0638   18.3294 C   0  0  0  0  0  0  0  0  0  0  0  0
  -27.4920  -36.4262   22.3853 C   0  0  0  0  0  0  0  0  0  0  0  0
  -27.8556  -33.6677   22.3161 C   0  0  0  0  0  0  0  0  0  0  0  0
  -26.7389  -29.7118   19.3583 C   0  0  0  0  0  0  0  0  0  0  0  0
  -23.0626   -5.9713   24.4239 C   0  0  0  0  0  0  0  0  0  0  0  0
  -20.7526   -6.4952   23.9479 C   0  0  0  0  0  0  0  0  0  0  0  0
  -27.6488  -28.6557   19.3371 C   0  0  0  0  0  0  0  0  0  0  0  0
  -21.8748   -2.8056   24.4300 C   0  0  0  0  0  0  0  0  0  0  0  0
  -22.5067   -1.5622   24.4196 C   0  0  0  0  0  0  0  0  0  0  0  0
  -26.2516  -27.4291   20.8743 C   0  0  0  0  0  0  0  0  0  0  0  0
  -23.2559   -1.9239   26.6878 C   0  0  0  0  0  0  0  0  0  0  0  0
  -22.5199   -7.6471   22.7703 C   0  0  0  0  0  0  0  0  0  0  0  0
  -28.4991  -20.3097   19.2074 C   0  0  0  0  0  0  0  0  0  0  0  0
  -27.8135  -17.6094   19.3512 C   0  0  0  0  0  0  0  0  0  0  0  0
  -23.1744   -8.4057   20.4243 C   0  0  0  0  0  0  0  0  0  0  0  0
  -26.5194  -35.5896   22.9552 C   0  0  0  0  0  0  0  0  0  0  0  0
  -25.5820  -29.6389   20.1474 C   0  0  0  0  0  0  0  0  0  0  0  0
  -26.7067  -34.1943   22.9303 C   0  0  0  0  0  0  0  0  0  0  0  0
  -25.3274  -28.4846   20.9017 C   0  0  0  0  0  0  0  0  0  0  0  0
  -21.7036   -5.7620   24.6577 C   0  0  0  0  0  0  0  0  0  0  0  0
  -27.4067  -27.5153   20.0974 C   0  0  0  0  0  0  0  0  0  0  0  0
  -21.9335   -3.6083   25.5693 C   0  0  0  0  0  0  0  0  0  0  0  0
  -23.1973   -1.1213   25.5485 C   0  0  0  0  0  0  0  0  0  0  0  0
  -22.6240   -3.1674   26.6982 C   0  0  0  0  0  0  0  0  0  0  0  0
  -22.9409   -8.6213   21.7958 C   0  0  0  0  0  0  0  0  0  0  0  0
  -23.5516   -9.6355   19.9428 C   0  0  0  0  0  0  0  0  0  0  0  0
  -28.8606  -21.7362   19.1310 C   0  0  0  0  0  0  0  0  0  0  0  0
  -27.4564  -16.2017   19.4263 C   0  0  0  0  0  0  0  0  0  0  0  0
  -28.1771  -22.7272   19.7202 C   0  0  0  0  0  0  0  0  0  0  0  0
  -26.9983  -15.5672   20.5267 C   0  0  0  0  0  0  0  0  0  0  0  0
  -23.0603   -7.2016   19.6545 C   0  0  0  0  0  0  0  0  0  0  0  0
  -28.6220  -24.1435   19.5731 C   0  0  0  0  0  0  0  0  0  0  0  0
  -26.6684  -14.1304   20.4406 C   0  0  0  0  0  0  0  0  0  0  0  0
  -24.4298  -31.3033   22.5981 C   0  0  0  0  0  0  0  0  0  0  0  0
  -21.8364  -29.4034   22.1655 C   0  0  0  0  0  0  0  0  0  0  0  0
  -20.5615  -26.4654   20.9867 C   0  0  0  0  0  0  0  0  0  0  0  0
  -25.3317  -36.2185   23.6395 C   0  0  0  0  0  0  0  0  0  0  0  0
  -24.5971  -30.7757   20.1385 C   0  0  0  0  0  0  0  0  0  0  0  0
  -24.0902  -28.3484   21.7498 C   0  0  0  0  0  0  0  0  0  0  0  0
  -24.1856  -35.2418   23.8903 C   0  0  0  0  0  0  0  0  0  0  0  0
  -23.3819  -14.2089   22.0607 C   0  0  0  0  0  0  0  0  0  0  0  0
  -24.7141  -33.9394   24.4828 C   0  0  0  0  0  0  0  0  0  0  0  0
  -23.0197  -12.7262   22.0623 C   0  0  0  0  0  0  0  0  0  0  0  0
  -24.8829  -14.4311   22.2400 C   0  0  0  0  0  0  0  0  0  0  0  0
  -25.3550  -12.2089   21.2505 C   0  0  0  0  0  0  0  0  0  0  0  0
  -25.6827  -33.2468   23.5167 C   0  0  1  0  0  0  0  0  0  0  0  0
  -23.7080  -30.8056   21.3779 C   0  0  1  0  0  0  0  0  0  0  0  0
  -23.8555  -11.9606   21.0243 C   0  0  1  0  0  0  0  0  0  0  0  0
  -18.4137  -25.1796   20.8113 C   0  0  0  0  0  0  0  0  0  0  0  0
  -22.0382  -28.6680   25.1199 C   0  0  0  0  0  0  0  0  0  0  0  0
  -20.5284  -26.7228   24.6672 C   0  0  0  0  0  0  0  0  0  0  0  0
  -19.7077  -29.0492   24.2966 C   0  0  0  0  0  0  0  0  0  0  0  0
  -20.6671  -26.4669   18.0290 C   0  0  0  0  0  0  0  0  0  0  0  0
  -27.7687  -25.1723   20.2846 C   0  0  0  0  0  0  0  0  0  1  0  0
  -21.3950  -28.0601   22.6945 C   0  0  1  0  0  0  0  0  0  0  0  0
  -19.3460  -26.1675   20.1275 C   0  0  2  0  0  0  0  0  0  0  0  0
  -20.9417  -28.1281   24.1802 C   0  0  0  0  0  0  0  0  0  0  0  0
  -23.1523   -9.8883   22.1619 N   0  0  0  0  0  0  0  0  0  0  0  0
  -23.5227  -10.4799   21.0135 N   0  0  0  0  0  0  0  0  0  0  0  0
  -25.6628  -13.6432   21.2738 N   0  0  0  0  0  0  0  0  0  0  0  0
  -23.1605  -29.4894   21.7127 N   0  0  0  0  0  0  0  0  0  0  0  0
  -23.9021  -10.0661   18.7123 N   0  0  0  0  0  0  0  0  0  0  0  0
  -22.6604   -6.0271   20.3064 N   0  0  0  0  0  0  0  0  0  0  0  0
  -24.9520  -32.5755   22.4632 N   0  0  0  0  0  0  0  0  0  0  0  0
  -20.3676  -27.5780   21.7777 N   0  0  0  0  0  0  0  0  0  0  0  0
  -19.7653  -25.5899   18.8193 N   0  3  0  0  0  0  0  0  0  0  0  0
  -23.3217   -7.1645   18.4282 O   0  0  0  0  0  0  0  0  0  0  0  0
  -29.6144  -24.4509   18.9184 O   0  0  0  0  0  0  0  0  0  0  0  0
  -27.3075  -13.4472   19.6385 O   0  0  0  0  0  0  0  0  0  0  0  0
  -24.5059  -30.5867   23.5893 O   0  0  0  0  0  0  0  0  0  0  0  0
  -21.0337  -30.3399   22.1480 O   0  0  0  0  0  0  0  0  0  0  0  0
  -21.5797  -25.7776   20.9615 O   0  0  0  0  0  0  0  0  0  0  0  0
  -21.3049   -4.8421   25.5784 O   0  0  0  0  0  0  0  0  0  0  0  0
  -28.2935  -26.4833   20.0791 O   0  0  0  0  0  0  0  0  0  1  0  0
  -23.8028    0.0735   25.5389 F   0  0  0  0  0  0  0  0  0  0  0  0
  -22.6828   -3.9336   27.7961 F   0  0  0  0  0  0  0  0  0  0  0  0
  1  2  1  0  0  0  0
  1  9  2  0  0  0  0
  2 10  2  0  0  0  0
  3 12  2  0  0  0  0
  3 19  1  0  0  0  0
  4 13  1  0  0  0  0
  4 19  2  0  0  0  0
  5  7  2  0  0  0  0
  5 20  1  0  0  0  0
  6  8  1  0  0  0  0
  6 20  2  0  0  0  0
  7 21  1  0  0  0  0
  8 21  2  0  0  0  0
  9 23  1  0  0  0  0
 10 25  1  0  0  0  0
 11 14  2  0  0  0  0
 11 24  1  0  0  0  0
 12 27  1  0  0  0  0
 13 27  2  0  0  0  0
 14 28  1  0  0  0  0
 15 16  2  0  0  0  0
 15 29  1  0  0  0  0
 16 30  1  0  0  0  0
 17 26  1  0  0  0  0
 17 28  2  0  0  0  0
 18 30  2  0  0  0  0
 18 31  1  0  0  0  0
 19 32  1  0  0  0  0
 20 34  1  0  0  0  0
 21 35  1  0  0  0  0
 22 32  1  0  0  0  0
 22 33  2  0  0  0  0
 22 38  1  0  0  0  0
 23 25  2  0  0  0  0
 23 44  1  0  0  0  0
 24 26  2  0  0  0  0
 24 45  1  0  0  0  0
 25 53  1  0  0  0  0
 26 46  1  0  0  0  0
 27 80  1  0  0  0  0
 28 81  1  0  0  0  0
 29 31  2  0  0  0  0
 29 80  1  0  0  0  0
 30 82  1  0  0  0  0
 31 83  1  0  0  0  0
 32 65  2  0  0  0  0
 33 66  1  0  0  0  0
 33 69  1  0  0  0  0
 34 36  2  0  0  0  0
 35 37  2  0  0  0  0
 36 39  1  0  0  0  0
 37 40  1  0  0  0  0
 38 70  1  0  0  0  0
 38 74  2  0  0  0  0
 39 61  1  0  0  0  0
 39 75  2  0  0  0  0
 40 67  1  0  0  0  0
 40 76  2  0  0  0  0
 41 54  1  0  0  0  0
 41 71  1  0  0  0  0
 41 77  2  0  0  0  0
 42 62  1  0  0  0  0
 42 68  1  0  0  0  0
 42 78  2  0  0  0  0
 43 63  1  0  0  0  0
 43 72  1  0  0  0  0
 43 79  2  0  0  0  0
 44 47  1  0  0  0  0
 45 54  1  0  0  0  0
 46 68  1  0  0  0  0
 47 49  1  0  0  0  0
 48 50  1  0  0  0  0
 48 51  1  0  0  0  0
 49 53  1  0  0  0  0
 50 55  1  0  0  0  0
 51 67  1  0  0  0  0
 52 55  1  0  0  0  0
 52 67  1  0  0  0  0
 53 71  1  0  0  0  0
 54 68  1  0  0  0  0
 55 66  1  0  0  0  0
 56 63  1  0  0  0  0
 57 64  1  0  0  0  0
 58 64  1  0  0  0  0
 59 64  1  0  0  0  0
 60 73  1  0  0  0  0
 61 81  1  0  0  0  0
 62 64  1  0  0  0  0
 62 72  1  0  0  0  0
 63 73  1  0  0  0  0
 65 66  1  0  0  0  0
M  CHG  1  73   1
M  ISO  4  37 100  40 100  61 101  81 101
M  END
> <Batch ID>
0121

> <Smiles>
CNC(C)C(=O)NC(C(=O)N1Cc2cc([101O:1][101CH2:1]C(=O)C=Cc3ccc(C=[100CH:0][100C:0](=O)N4CCCC(n5nc(-c6ccc(Oc7ccc(F)cc7F)cc6)c(C(N)=O)c5N)C4)cc3)ccc2CC1C(=O)NC1CCCc2ccccc21)C(C)(C)C

> <Shape>
0.335

> <Color>
0.074

> <Negative vol penalty>
0.000

$$$$

  -OEChem-04052301573D

 85 93  0     1  0  0  0  0  0999 V2000
  -27.7976  -33.2394   27.0812 C   0  0  0  0  0  0  0  0  0  0  0  0
  -28.0343  -32.1473   26.2524 C   0  0  0  0  0  0  0  0  0  0  0  0
  -23.9744   -9.4012   20.3283 C   0  0  0  0  0  0  0  0  0  0  0  0
  -24.3338   -9.9950   22.6424 C   0  0  0  0  0  0  0  0  0  0  0  0
  -26.4900  -33.5868   27.4181 C   0  0  0  0  0  0  0  0  0  0  0  0
  -26.9635  -31.4014   25.7610 C   0  0  0  0  0  0  0  0  0  0  0  0
  -27.4352  -30.3401   20.8319 C   0  0  0  0  0  0  0  0  0  0  0  0
  -30.1616  -19.1247   21.9690 C   0  0  0  0  0  0  0  0  0  0  0  0
  -23.5350   -8.1369   20.7209 C   0  0  0  0  0  0  0  0  0  0  0  0
  -23.8943   -8.7307   23.0351 C   0  0  0  0  0  0  0  0  0  0  0  0
  -28.3050  -29.3078   20.4832 C   0  0  0  0  0  0  0  0  0  0  0  0
  -30.2722  -20.4916   22.2240 C   0  0  0  0  0  0  0  0  0  0  0  0
  -20.9424   -7.1355   23.4376 C   0  0  0  0  0  0  0  0  0  0  0  0
  -20.0489   -7.0646   24.5062 C   0  0  0  0  0  0  0  0  0  0  0  0
  -26.4265  -27.8130   20.2468 C   0  0  0  0  0  0  0  0  0  0  0  0
  -21.6296   -5.7156   25.7385 C   0  0  0  0  0  0  0  0  0  0  0  0
  -24.3739  -10.3302   21.2890 C   0  0  0  0  0  0  0  0  0  0  0  0
  -27.7853  -19.3826   21.6175 C   0  0  0  0  0  0  0  0  0  0  0  0
  -24.0449  -12.7926   20.7092 C   0  0  0  0  0  0  0  0  0  0  0  0
  -25.4022  -32.8506   26.9227 C   0  0  0  0  0  0  0  0  0  0  0  0
  -26.0531  -30.1134   20.9013 C   0  0  0  0  0  0  0  0  0  0  0  0
  -25.6403  -31.7385   26.0927 C   0  0  0  0  0  0  0  0  0  0  0  0
  -25.5411  -28.8447   20.5940 C   0  0  0  0  0  0  0  0  0  0  0  0
  -27.8959  -20.7495   21.8726 C   0  0  0  0  0  0  0  0  0  0  0  0
  -28.9181  -18.5702   21.6656 C   0  0  0  0  0  0  0  0  0  0  0  0
  -23.4949   -7.8017   22.0743 C   0  0  0  0  0  0  0  0  0  0  0  0
  -27.8010  -28.0432   20.1934 C   0  0  0  0  0  0  0  0  0  0  0  0
  -29.1394  -21.3040   22.1759 C   0  0  0  0  0  0  0  0  0  0  0  0
  -22.1796   -6.4963   23.5193 C   0  0  0  0  0  0  0  0  0  0  0  0
  -20.3924   -6.3547   25.6567 C   0  0  0  0  0  0  0  0  0  0  0  0
  -22.5231   -5.7864   24.6698 C   0  0  0  0  0  0  0  0  0  0  0  0
  -24.8284  -11.6361   20.8840 C   0  0  0  0  0  0  0  0  0  0  0  0
  -24.9409  -13.7592   20.3229 C   0  0  0  0  0  0  0  0  0  0  0  0
  -25.6384  -18.3612   22.2198 C   0  0  0  0  0  0  0  0  0  0  0  0
  -26.4805  -18.8052   21.3022 C   0  0  0  0  0  0  0  0  0  0  0  0
  -22.6334  -12.9766   20.8807 C   0  0  0  0  0  0  0  0  0  0  0  0
  -23.8685  -30.2631   23.2053 C   0  0  0  0  0  0  0  0  0  0  0  0
  -21.8152  -29.6923   20.7598 C   0  0  0  0  0  0  0  0  0  0  0  0
  -21.3171  -28.4230   17.6313 C   0  0  0  0  0  0  0  0  0  0  0  0
  -29.8325  -16.3632   20.8662 C   0  0  0  0  0  0  0  0  0  0  0  0
  -24.0089  -33.2358   27.3527 C   0  0  0  0  0  0  0  0  0  0  0  0
  -25.1259  -31.2443   21.2529 C   0  0  0  0  0  0  0  0  0  0  0  0
  -24.0637  -28.5548   20.6343 C   0  0  0  0  0  0  0  0  0  0  0  0
  -22.9123  -32.6203   26.4873 C   0  0  0  0  0  0  0  0  0  0  0  0
  -29.7891  -13.3838   18.9172 C   0  0  0  0  0  0  0  0  0  0  0  0
  -23.1800  -31.1354   26.2626 C   0  0  0  0  0  0  0  0  0  0  0  0
  -28.4302  -12.7587   19.2407 C   0  0  0  0  0  0  0  0  0  0  0  0
  -30.4090  -14.0577   20.1400 C   0  0  0  0  0  0  0  0  0  0  0  0
  -28.1851  -14.4071   21.1406 C   0  0  0  0  0  0  0  0  0  0  0  0
  -24.5039  -30.9197   25.5196 C   0  0  1  0  0  0  0  0  0  0  0  0
  -23.7809  -30.7684   21.7930 C   0  0  1  0  0  0  0  0  0  0  0  0
  -27.4917  -13.7726   19.9239 C   0  0  2  0  0  0  0  0  0  0  0  0
  -26.6931  -21.6406   21.8265 C   0  0  0  0  0  0  0  0  0  0  0  0
  -19.5236  -28.0664   15.9127 C   0  0  0  0  0  0  0  0  0  0  0  0
  -20.7239  -27.3534   22.3874 C   0  0  0  0  0  0  0  0  0  0  0  0
  -19.6527  -26.4886   20.2962 C   0  0  0  0  0  0  0  0  0  0  0  0
  -18.9818  -28.7096   21.2125 C   0  0  0  0  0  0  0  0  0  0  0  0
  -22.7165  -30.1190   15.6504 C   0  0  0  0  0  0  0  0  0  0  0  0
  -30.5031  -25.6574   20.5565 C   0  0  0  0  0  0  0  0  0  0  0  0
  -29.6135  -24.8060   21.4558 C   0  0  0  0  0  0  0  0  0  0  0  0
  -29.9616  -27.0732   20.4090 C   0  0  0  0  0  0  0  0  0  1  0  0
  -30.1306  -23.3789   21.5692 C   0  0  0  0  0  0  0  0  0  0  0  0
  -21.2431  -28.4551   20.1108 C   0  0  1  0  0  0  0  0  0  0  0  0
  -20.6191  -28.9960   16.4111 C   0  0  2  0  0  0  0  0  0  0  0  0
  -20.1784  -27.7563   21.0028 C   0  0  0  0  0  0  0  0  0  0  0  0
  -26.1226  -11.8468   20.6295 N   0  0  0  0  0  0  0  0  0  0  0  0
  -26.1592  -13.1468   20.2907 N   0  0  0  0  0  0  0  0  0  0  0  0
  -23.1983  -29.6916   20.9896 N   0  0  0  0  0  0  0  0  0  0  0  0
  -29.4646  -15.0076   20.7320 N   0  0  0  0  0  0  0  0  0  0  0  0
  -24.7977  -15.0648   20.0109 N   0  0  0  0  0  0  0  0  0  0  0  0
  -21.8603  -11.8785   21.2818 N   0  0  0  0  0  0  0  0  0  0  0  0
  -28.8415  -17.1782   21.4122 N   0  0  0  0  0  0  0  0  0  0  0  0
  -24.3422  -31.1958   24.1082 N   0  0  0  0  0  0  0  0  0  0  0  0
  -20.7470  -28.8721   18.8038 N   0  0  0  0  0  0  0  0  0  0  0  0
  -21.5966  -29.2056   15.3059 N   0  3  0  0  0  0  0  0  0  0  0  0
  -22.0718  -14.0779   20.6683 O   0  0  0  0  0  0  0  0  0  0  0  0
  -23.5299  -29.1127   23.4575 O   0  0  0  0  0  0  0  0  0  0  0  0
  -21.0636  -30.6277   21.0457 O   0  0  0  0  0  0  0  0  0  0  0  0
  -22.2701  -27.6510   17.5523 O   0  0  0  0  0  0  0  0  0  0  0  0
  -30.9348  -16.7760   20.4969 O   0  0  0  0  0  0  0  0  0  0  0  0
  -23.0660   -6.5682   22.4578 O   0  0  0  0  0  0  0  0  0  0  0  0
  -28.6478  -27.0337   19.8535 O   0  0  0  0  0  0  0  0  0  1  0  0
  -29.2695  -22.6449   22.4288 O   0  0  0  0  0  0  0  0  0  0  0  0
  -19.5348   -6.2881   26.6835 F   0  0  0  0  0  0  0  0  0  0  0  0
  -23.7107   -5.1713   24.7546 F   0  0  0  0  0  0  0  0  0  0  0  0
  1  2  1  0  0  0  0
  1  5  2  0  0  0  0
  2  6  2  0  0  0  0
  3  9  2  0  0  0  0
  3 17  1  0  0  0  0
  4 10  1  0  0  0  0
  4 17  2  0  0  0  0
  5 20  1  0  0  0  0
  6 22  1  0  0  0  0
  7 11  2  0  0  0  0
  7 21  1  0  0  0  0
  8 12  1  0  0  0  0
  8 25  2  0  0  0  0
  9 26  1  0  0  0  0
 10 26  2  0  0  0  0
 11 27  1  0  0  0  0
 12 28  2  0  0  0  0
 13 14  2  0  0  0  0
 13 29  1  0  0  0  0
 14 30  1  0  0  0  0
 15 23  1  0  0  0  0
 15 27  2  0  0  0  0
 16 30  2  0  0  0  0
 16 31  1  0  0  0  0
 17 32  1  0  0  0  0
 18 24  2  0  0  0  0
 18 25  1  0  0  0  0
 18 35  1  0  0  0  0
 19 32  1  0  0  0  0
 19 33  2  0  0  0  0
 19 36  1  0  0  0  0
 20 22  2  0  0  0  0
 20 41  1  0  0  0  0
 21 23  2  0  0  0  0
 21 42  1  0  0  0  0
 22 50  1  0  0  0  0
 23 43  1  0  0  0  0
 24 28  1  0  0  0  0
 24 53  1  0  0  0  0
 25 72  1  0  0  0  0
 26 81  1  0  0  0  0
 27 82  1  0  0  0  0
 28 83  1  0  0  0  0
 29 31  2  0  0  0  0
 29 81  1  0  0  0  0
 30 84  1  0  0  0  0
 31 85  1  0  0  0  0
 32 66  2  0  0  0  0
 33 67  1  0  0  0  0
 33 70  1  0  0  0  0
 34 35  2  0  0  0  0
 36 71  1  0  0  0  0
 36 76  2  0  0  0  0
 37 51  1  0  0  0  0
 37 73  1  0  0  0  0
 37 77  2  0  0  0  0
 38 63  1  0  0  0  0
 38 68  1  0  0  0  0
 38 78  2  0  0  0  0
 39 64  1  0  0  0  0
 39 74  1  0  0  0  0
 39 79  2  0  0  0  0
 40 69  1  0  0  0  0
 40 72  1  0  0  0  0
 40 80  2  0  0  0  0
 41 44  1  0  0  0  0
 42 51  1  0  0  0  0
 43 68  1  0  0  0  0
 44 46  1  0  0  0  0
 45 47  1  0  0  0  0
 45 48  1  0  0  0  0
 46 50  1  0  0  0  0
 47 52  1  0  0  0  0
 48 69  1  0  0  0  0
 49 52  1  0  0  0  0
 49 69  1  0  0  0  0
 50 73  1  0  0  0  0
 51 68  1  0  0  0  0
 52 67  1  0  0  0  0
 54 64  1  0  0  0  0
 55 65  1  0  0  0  0
 56 65  1  0  0  0  0
 57 65  1  0  0  0  0
 58 75  1  0  0  0  0
 59 60  1  0  0  0  0
 59 61  1  0  0  0  0
 60 62  1  0  0  0  0
 61 82  1  0  0  0  0
 62 83  1  0  0  0  0
 63 65  1  0  0  0  0
 63 74  1  0  0  0  0
 64 75  1  0  0  0  0
 66 67  1  0  0  0  0
M  CHG  1  75   1
M  ISO  4  40 100  61 101  72 100  82 101
M  END
> <Batch ID>
0121

> <Smiles>
C=Cc1c([100NH:0][100C:0](=O)N2CCCC(n3nc(-c4ccc(Oc5ccc(F)cc5F)cc4)c(C(N)=O)c3N)C2)ccc(OCCC[101CH2:1][101O:1]c2ccc3c(c2)CN(C(=O)C(NC(=O)C(C)NC)C(C)(C)C)C(C(=O)NC2CCCc4ccccc42)C3)c1C

> <Shape>
0.357

> <Color>
0.164

> <Negative vol penalty>
0.000

$$$$

  -OEChem-04052301573D

 84 93  0     1  0  0  0  0  0999 V2000
  -22.3584  -11.6770   19.0874 C   0  0  0  0  0  0  0  0  0  0  0  0
  -22.0741  -13.0383   19.1265 C   0  0  0  0  0  0  0  0  0  0  0  0
  -29.7397  -28.5286   20.9895 C   0  0  0  0  0  0  0  0  0  0  0  0
  -28.7278  -26.3352   21.0329 C   0  0  0  0  0  0  0  0  0  0  0  0
  -23.5227  -11.1919   19.6815 C   0  0  0  0  0  0  0  0  0  0  0  0
  -22.9535  -13.9151   19.7608 C   0  0  0  0  0  0  0  0  0  0  0  0
  -23.8101  -18.1062   17.0505 C   0  0  0  0  0  0  0  0  0  0  0  0
  -17.8237  -26.4250   22.9302 C   0  0  0  0  0  0  0  0  0  0  0  0
  -18.7737  -27.2908   23.4754 C   0  0  0  0  0  0  0  0  0  0  0  0
  -30.9639  -27.9712   21.3586 C   0  0  0  0  0  0  0  0  0  0  0  0
  -29.9520  -25.7777   21.4019 C   0  0  0  0  0  0  0  0  0  0  0  0
  -22.8237  -19.0912   17.0722 C   0  0  0  0  0  0  0  0  0  0  0  0
  -31.8035  -25.4717   24.2143 C   0  0  0  0  0  0  0  0  0  0  0  0
  -31.8031  -24.5316   25.2447 C   0  0  0  0  0  0  0  0  0  0  0  0
  -24.1032  -20.3281   18.7008 C   0  0  0  0  0  0  0  0  0  0  0  0
  -32.7243  -22.8815   23.7394 C   0  0  0  0  0  0  0  0  0  0  0  0
  -28.6216  -27.7106   20.8267 C   0  0  0  0  0  0  0  0  0  0  0  0
  -19.3864  -25.6806   21.1865 C   0  0  0  0  0  0  0  0  0  0  0  0
  -26.8715  -28.4837   19.1394 C   0  0  0  0  0  0  0  0  0  0  0  0
  -24.4216  -12.0644   20.3150 C   0  0  0  0  0  0  0  0  0  0  0  0
  -24.9472  -18.2196   17.8632 C   0  0  0  0  0  0  0  0  0  0  0  0
  -24.1302  -13.4410   20.3651 C   0  0  0  0  0  0  0  0  0  0  0  0
  -25.1038  -19.3444   18.6857 C   0  0  0  0  0  0  0  0  0  0  0  0
  -20.3022  -26.5347   21.7379 C   0  0  0  0  0  0  0  0  0  0  0  0
  -18.1261  -25.6277   21.7987 C   0  0  0  0  0  0  0  0  0  0  0  0
  -19.9826  -27.2887   22.8397 C   0  0  0  0  0  0  0  0  0  0  0  0
  -31.0701  -26.5958   21.5648 C   0  0  0  0  0  0  0  0  0  0  0  0
  -22.9687  -20.2010   17.8996 C   0  0  0  0  0  0  0  0  0  0  0  0
  -32.2641  -25.1167   22.9464 C   0  0  0  0  0  0  0  0  0  0  0  0
  -32.2636  -23.2365   25.0073 C   0  0  0  0  0  0  0  0  0  0  0  0
  -32.7246  -23.8216   22.7090 C   0  0  0  0  0  0  0  0  0  0  0  0
  -27.3566  -28.2859   20.4461 C   0  0  0  0  0  0  0  0  0  0  0  0
  -25.6355  -29.0564   19.3151 C   0  0  0  0  0  0  0  0  0  0  0  0
  -19.7380  -24.8863   20.0242 C   0  0  0  0  0  0  0  0  0  0  0  0
  -20.7552  -23.9959   19.9620 C   0  0  0  0  0  0  0  0  0  0  0  0
  -27.4833  -28.1770   17.8795 C   0  0  0  0  0  0  0  0  0  0  0  0
  -21.0406  -23.2340   18.7116 C   0  0  0  0  0  0  0  0  0  0  0  0
  -26.1874  -16.5077   20.2370 C   0  0  0  0  0  0  0  0  0  0  0  0
  -28.6362  -18.6168   19.9588 C   0  0  0  0  0  0  0  0  0  0  0  0
  -29.7025  -21.7042   18.9700 C   0  0  0  0  0  0  0  0  0  0  0  0
  -21.6273  -28.9360   23.6780 C   0  0  0  0  0  0  0  0  0  0  0  0
  -25.6437  -11.4873   20.9843 C   0  0  0  0  0  0  0  0  0  0  0  0
  -26.0149  -17.1616   17.8083 C   0  0  0  0  0  0  0  0  0  0  0  0
  -26.3154  -19.5234   19.5622 C   0  0  0  0  0  0  0  0  0  0  0  0
  -21.6821  -27.1241   21.7094 C   0  0  0  0  0  0  0  0  0  0  0  0
  -26.7095  -12.5305   21.3102 C   0  0  0  0  0  0  0  0  0  0  0  0
  -23.1887  -31.8072   22.3922 C   0  0  0  0  0  0  0  0  0  0  0  0
  -26.0763  -13.7539   21.9653 C   0  0  0  0  0  0  0  0  0  0  0  0
  -24.3766  -31.2552   21.5986 C   0  0  0  0  0  0  0  0  0  0  0  0
  -22.9507  -31.0210   23.6820 C   0  0  0  0  0  0  0  0  0  0  0  0
  -24.0228  -29.0345   22.7410 C   0  0  0  0  0  0  0  0  0  0  0  0
  -25.0717  -14.4269   21.0222 C   0  0  1  0  0  0  0  0  0  0  0  0
  -26.8865  -17.1268   19.0599 C   0  0  1  0  0  0  0  0  0  0  0  0
  -24.2597  -29.7315   21.3923 C   0  0  2  0  0  0  0  0  0  0  0  0
  -17.0558  -24.7243   21.2705 C   0  0  0  0  0  0  0  0  0  0  0  0
  -31.3132  -23.5665   18.4852 C   0  0  0  0  0  0  0  0  0  0  0  0
  -28.3388  -19.1645   22.9457 C   0  0  0  0  0  0  0  0  0  0  0  0
  -29.7041  -21.2393   22.6303 C   0  0  0  0  0  0  0  0  0  0  0  0
  -30.7025  -19.0055   22.1446 C   0  0  0  0  0  0  0  0  0  0  0  0
  -30.1967  -20.7177   16.2239 C   0  0  0  0  0  0  0  0  0  0  0  0
  -22.2080  -22.2726   18.7858 C   0  0  0  0  0  0  0  0  0  1  0  0
  -28.9679  -19.9566   20.5702 C   0  0  1  0  0  0  0  0  0  0  0  0
  -30.9040  -22.1404   18.1511 C   0  0  2  0  0  0  0  0  0  0  0  0
  -29.4044  -19.8374   22.0577 C   0  0  0  0  0  0  0  0  0  0  0  0
  -26.4989  -28.6996   21.3827 N   0  0  0  0  0  0  0  0  0  0  0  0
  -25.4624  -29.1631   20.6637 N   0  0  0  0  0  0  0  0  0  0  0  0
  -21.2217  -27.8958   22.8807 N   0  0  0  0  0  0  0  0  0  0  0  0
  -27.3287  -18.4587   19.4780 N   0  0  0  0  0  0  0  0  0  0  0  0
  -22.8279  -29.5897   23.3833 N   0  0  0  0  0  0  0  0  0  0  0  0
  -24.6909  -29.4743   18.4459 N   0  0  0  0  0  0  0  0  0  0  0  0
  -28.7563  -27.5906   17.8801 N   0  0  0  0  0  0  0  0  0  0  0  0
  -25.7643  -15.2100   20.0214 N   0  0  0  0  0  0  0  0  0  0  0  0
  -29.9687  -20.5656   19.7008 N   0  0  0  0  0  0  0  0  0  0  0  0
  -30.5920  -22.0698   16.6956 N   0  3  0  0  0  0  0  0  0  0  0  0
  -26.9249  -28.4310   16.7854 O   0  0  0  0  0  0  0  0  0  0  0  0
  -20.3713  -23.3790   17.6922 O   0  0  0  0  0  0  0  0  0  0  0  0
  -26.0439  -17.1586   21.2653 O   0  0  0  0  0  0  0  0  0  0  0  0
  -29.5073  -17.7451   19.9032 O   0  0  0  0  0  0  0  0  0  0  0  0
  -28.6359  -22.3147   18.9651 O   0  0  0  0  0  0  0  0  0  0  0  0
  -20.9148  -29.3120   24.6205 O   0  0  0  0  0  0  0  0  0  0  0  0
  -32.2645  -26.0514   21.9247 O   0  0  0  0  0  0  0  0  0  0  0  0
  -21.9975  -21.1731   17.9235 O   0  0  0  0  0  0  0  0  0  1  0  0
  -32.2647  -22.3342   25.9973 F   0  0  0  0  0  0  0  0  0  0  0  0
  -33.1695  -23.4751   21.4934 F   0  0  0  0  0  0  0  0  0  0  0  0
  1  2  1  0  0  0  0
  1  5  2  0  0  0  0
  2  6  2  0  0  0  0
  3 10  2  0  0  0  0
  3 17  1  0  0  0  0
  4 11  1  0  0  0  0
  4 17  2  0  0  0  0
  5 20  1  0  0  0  0
  6 22  1  0  0  0  0
  7 12  2  0  0  0  0
  7 21  1  0  0  0  0
  8  9  1  0  0  0  0
  8 25  2  0  0  0  0
  9 26  2  0  0  0  0
 10 27  1  0  0  0  0
 11 27  2  0  0  0  0
 12 28  1  0  0  0  0
 13 14  2  0  0  0  0
 13 29  1  0  0  0  0
 14 30  1  0  0  0  0
 15 23  1  0  0  0  0
 15 28  2  0  0  0  0
 16 30  2  0  0  0  0
 16 31  1  0  0  0  0
 17 32  1  0  0  0  0
 18 24  2  0  0  0  0
 18 25  1  0  0  0  0
 18 34  1  0  0  0  0
 19 32  1  0  0  0  0
 19 33  2  0  0  0  0
 19 36  1  0  0  0  0
 20 22  2  0  0  0  0
 20 42  1  0  0  0  0
 21 23  2  0  0  0  0
 21 43  1  0  0  0  0
 22 52  1  0  0  0  0
 23 44  1  0  0  0  0
 24 26  1  0  0  0  0
 24 45  1  0  0  0  0
 25 55  1  0  0  0  0
 26 67  1  0  0  0  0
 27 81  1  0  0  0  0
 28 82  1  0  0  0  0
 29 31  2  0  0  0  0
 29 81  1  0  0  0  0
 30 83  1  0  0  0  0
 31 84  1  0  0  0  0
 32 65  2  0  0  0  0
 33 66  1  0  0  0  0
 33 70  1  0  0  0  0
 34 35  2  0  0  0  0
 35 37  1  0  0  0  0
 36 71  1  0  0  0  0
 36 75  2  0  0  0  0
 37 61  1  0  0  0  0
 37 76  2  0  0  0  0
 38 53  1  0  0  0  0
 38 72  1  0  0  0  0
 38 77  2  0  0  0  0
 39 62  1  0  0  0  0
 39 68  1  0  0  0  0
 39 78  2  0  0  0  0
 40 63  1  0  0  0  0
 40 73  1  0  0  0  0
 40 79  2  0  0  0  0
 41 67  1  0  0  0  0
 41 69  1  0  0  0  0
 41 80  2  0  0  0  0
 42 46  1  0  0  0  0
 43 53  1  0  0  0  0
 44 68  1  0  0  0  0
 45 67  1  0  0  0  0
 46 48  1  0  0  0  0
 47 49  1  0  0  0  0
 47 50  1  0  0  0  0
 48 52  1  0  0  0  0
 49 54  1  0  0  0  0
 50 69  1  0  0  0  0
 51 54  1  0  0  0  0
 51 69  1  0  0  0  0
 52 72  1  0  0  0  0
 53 68  1  0  0  0  0
 54 66  1  0  0  0  0
 56 63  1  0  0  0  0
 57 64  1  0  0  0  0
 58 64  1  0  0  0  0
 59 64  1  0  0  0  0
 60 74  1  0  0  0  0
 61 82  1  0  0  0  0
 62 64  1  0  0  0  0
 62 73  1  0  0  0  0
 63 74  1  0  0  0  0
 65 66  1  0  0  0  0
M  CHG  1  74   1
M  ISO  4  41 100  61 101  67 100  82 101
M  END
> <Batch ID>
0121

> <Smiles>
CNC(C)C(=O)NC(C(=O)N1Cc2cc([101O:1][101CH2:1]C(=O)C=Cc3c(C)ccc4c3C[100N:0]4[100C:0](=O)N3CCCC(n4nc(-c5ccc(Oc6ccc(F)cc6F)cc5)c(C(N)=O)c4N)C3)ccc2CC1C(=O)NC1CCCc2ccccc21)C(C)(C)C

> <Shape>
0.235

> <Color>
0.072

> <Negative vol penalty>
0.000

$$$$

  -OEChem-04052301573D

 85 93  0     1  0  0  0  0  0999 V2000
  -18.0991  -25.5185   21.3895 C   0  0  0  0  0  0  0  0  0  0  0  0
  -19.3845  -25.2414   21.8440 C   0  0  0  0  0  0  0  0  0  0  0  0
  -24.3857   -9.2536   21.2831 C   0  0  0  0  0  0  0  0  0  0  0  0
  -24.9894  -10.1380   23.4488 C   0  0  0  0  0  0  0  0  0  0  0  0
  -29.6416  -18.9211   23.6938 C   0  0  0  0  0  0  0  0  0  0  0  0
  -17.8269  -26.7392   20.7734 C   0  0  0  0  0  0  0  0  0  0  0  0
  -20.3986  -26.1846   21.6816 C   0  0  0  0  0  0  0  0  0  0  0  0
  -23.2119  -26.7504   25.8541 C   0  0  0  0  0  0  0  0  0  0  0  0
  -30.0398  -17.5853   23.6439 C   0  0  0  0  0  0  0  0  0  0  0  0
  -24.1040   -8.0182   21.8661 C   0  0  0  0  0  0  0  0  0  0  0  0
  -24.7076   -8.9026   24.0319 C   0  0  0  0  0  0  0  0  0  0  0  0
  -24.1720  -25.7730   26.1121 C   0  0  0  0  0  0  0  0  0  0  0  0
  -21.5895   -6.6161   23.6394 C   0  0  0  0  0  0  0  0  0  0  0  0
  -20.4123   -5.9726   23.2577 C   0  0  0  0  0  0  0  0  0  0  0  0
  -25.8788  -27.2208   25.2121 C   0  0  0  0  0  0  0  0  0  0  0  0
  -31.8101  -18.1703   22.1074 C   0  0  0  0  0  0  0  0  0  0  0  0
  -21.7000   -4.0918   22.4568 C   0  0  0  0  0  0  0  0  0  0  0  0
  -24.8285  -10.3135   22.0745 C   0  0  0  0  0  0  0  0  0  0  0  0
  -30.3276  -19.8816   22.9504 C   0  0  0  0  0  0  0  0  0  0  0  0
  -24.2298  -12.6635   21.2826 C   0  0  0  0  0  0  0  0  0  0  0  0
  -18.8360  -27.7017   20.6120 C   0  0  0  0  0  0  0  0  0  0  0  0
  -23.5769  -27.9681   25.2623 C   0  0  0  0  0  0  0  0  0  0  0  0
  -20.1399  -27.4188   21.0615 C   0  0  0  0  0  0  0  0  0  0  0  0
  -24.9218  -28.2130   24.9501 C   0  0  0  0  0  0  0  0  0  0  0  0
  -31.1240  -17.2098   22.8508 C   0  0  0  0  0  0  0  0  0  0  0  0
  -31.4119  -19.5062   22.1572 C   0  0  0  0  0  0  0  0  0  0  0  0
  -24.2649   -7.8426   23.2405 C   0  0  0  0  0  0  0  0  0  0  0  0
  -25.5053  -26.0069   25.7884 C   0  0  0  0  0  0  0  0  0  0  0  0
  -22.8220   -5.9975   23.4297 C   0  0  0  0  0  0  0  0  0  0  0  0
  -20.4675   -4.7104   22.6665 C   0  0  0  0  0  0  0  0  0  0  0  0
  -22.8773   -4.7353   22.8384 C   0  0  0  0  0  0  0  0  0  0  0  0
  -25.1203  -11.5898   21.4727 C   0  0  0  0  0  0  0  0  0  0  0  0
  -24.9878  -13.6348   20.6756 C   0  0  0  0  0  0  0  0  0  0  0  0
  -29.8825  -21.2831   23.0243 C   0  0  0  0  0  0  0  0  0  0  0  0
  -29.8124  -22.0149   24.1474 C   0  0  0  0  0  0  0  0  0  0  0  0
  -22.8417  -12.7730   21.6243 C   0  0  0  0  0  0  0  0  0  0  0  0
  -22.8410  -29.4536   22.5502 C   0  0  0  0  0  0  0  0  0  0  0  0
  -28.1253  -23.6023   25.0688 C   0  0  0  0  0  0  0  0  0  0  0  0
  -24.5836  -31.8607   23.8509 C   0  0  0  0  0  0  0  0  0  0  0  0
  -27.0194  -32.8182   26.0411 C   0  0  0  0  0  0  0  0  0  0  0  0
  -30.8631  -14.7878   20.6311 C   0  0  0  0  0  0  0  0  0  0  0  0
  -18.5048  -28.9879   19.8974 C   0  0  0  0  0  0  0  0  0  0  0  0
  -22.5333  -29.0227   25.0151 C   0  0  0  0  0  0  0  0  0  0  0  0
  -25.3686  -29.5117   24.3319 C   0  0  0  0  0  0  0  0  0  0  0  0
  -19.5482  -30.0835   20.1003 C   0  0  0  0  0  0  0  0  0  0  0  0
  -28.7794  -14.1793   17.8089 C   0  0  0  0  0  0  0  0  0  0  0  0
  -20.9538  -29.5254   19.9015 C   0  0  0  0  0  0  0  0  0  0  0  0
  -27.5250  -13.5436   18.4107 C   0  0  0  0  0  0  0  0  0  0  0  0
  -30.0436  -13.7373   18.5426 C   0  0  0  0  0  0  0  0  0  0  0  0
  -28.7628  -13.3098   20.6043 C   0  0  0  0  0  0  0  0  0  0  0  0
  -21.2609  -28.4263   20.9258 C   0  0  1  0  0  0  0  0  0  0  0  0
  -22.9386  -30.0233   23.9372 C   0  0  1  0  0  0  0  0  0  0  0  0
  -27.4572  -13.7693   19.9331 C   0  0  2  0  0  0  0  0  0  0  0  0
  -32.1701  -20.5081   21.3472 C   0  0  0  0  0  0  0  0  0  0  0  0
  -28.2503  -34.8482   26.8542 C   0  0  0  0  0  0  0  0  0  0  0  0
  -26.2333  -31.8854   21.2843 C   0  0  0  0  0  0  0  0  0  0  0  0
  -27.9752  -33.2112   22.4992 C   0  0  0  0  0  0  0  0  0  0  0  0
  -25.6843  -34.1496   22.1933 C   0  0  0  0  0  0  0  0  0  0  0  0
  -26.0517  -32.4381   28.8120 C   0  0  0  0  0  0  0  0  0  0  0  0
  -31.5512  -15.7820   22.7984 C   0  0  0  0  0  0  0  0  0  0  0  0
  -29.3460  -23.4383   24.1742 C   0  0  0  0  0  0  0  0  0  0  0  0
  -27.5744  -25.0119   25.1680 C   0  0  0  0  0  0  0  0  0  1  0  0
  -26.0400  -32.2574   23.8319 C   0  0  1  0  0  0  0  0  0  0  0  0
  -27.0625  -33.9255   27.0787 C   0  0  2  0  0  0  0  0  0  0  0  0
  -26.4748  -32.8506   22.4620 C   0  0  0  0  0  0  0  0  0  0  0  0
  -26.3498  -11.8538   21.0227 N   0  0  0  0  0  0  0  0  0  0  0  0
  -26.2374  -13.1044   20.5438 N   0  0  0  0  0  0  0  0  0  0  0  0
  -24.3099  -30.5090   24.1038 N   0  0  0  0  0  0  0  0  0  0  0  0
  -29.9151  -13.9800   19.9816 N   0  0  0  0  0  0  0  0  0  0  0  0
  -24.7006  -14.8823   20.2470 N   0  0  0  0  0  0  0  0  0  0  0  0
  -22.2178  -11.6812   22.2433 N   0  0  0  0  0  0  0  0  0  0  0  0
  -21.5772  -29.0085   22.2124 N   0  0  0  0  0  0  0  0  0  0  0  0
  -26.2321  -33.1599   24.9619 N   0  0  0  0  0  0  0  0  0  0  0  0
  -30.6640  -14.9718   21.9938 N   0  0  0  0  0  0  0  0  0  0  0  0
  -27.1683  -33.3480   28.4484 N   0  3  0  0  0  0  0  0  0  0  0  0
  -22.1702  -13.8023   21.3729 O   0  0  0  0  0  0  0  0  0  0  0  0
  -23.8382  -29.4217   21.8386 O   0  0  0  0  0  0  0  0  0  0  0  0
  -27.6013  -22.6618   25.6645 O   0  0  0  0  0  0  0  0  0  0  0  0
  -23.7202  -32.7199   23.6560 O   0  0  0  0  0  0  0  0  0  0  0  0
  -27.6266  -31.7578   26.1730 O   0  0  0  0  0  0  0  0  0  0  0  0
  -31.8134  -15.3109   20.0392 O   0  0  0  0  0  0  0  0  0  0  0  0
  -23.9898   -6.6373   23.8098 O   0  0  0  0  0  0  0  0  0  0  0  0
  -26.4444  -25.0543   26.0385 O   0  0  0  0  0  0  0  0  0  1  0  0
  -19.3369   -4.0919   22.3015 F   0  0  0  0  0  0  0  0  0  0  0  0
  -24.0583   -4.1355   22.6355 F   0  0  0  0  0  0  0  0  0  0  0  0
  1  2  1  0  0  0  0
  1  6  2  0  0  0  0
  2  7  2  0  0  0  0
  3 10  2  0  0  0  0
  3 18  1  0  0  0  0
  4 11  1  0  0  0  0
  4 18  2  0  0  0  0
  5  9  2  0  0  0  0
  5 19  1  0  0  0  0
  6 21  1  0  0  0  0
  7 23  1  0  0  0  0
  8 12  2  0  0  0  0
  8 22  1  0  0  0  0
  9 25  1  0  0  0  0
 10 27  1  0  0  0  0
 11 27  2  0  0  0  0
 12 28  1  0  0  0  0
 13 14  2  0  0  0  0
 13 29  1  0  0  0  0
 14 30  1  0  0  0  0
 15 24  1  0  0  0  0
 15 28  2  0  0  0  0
 16 25  2  0  0  0  0
 16 26  1  0  0  0  0
 17 30  2  0  0  0  0
 17 31  1  0  0  0  0
 18 32  1  0  0  0  0
 19 26  2  0  0  0  0
 19 34  1  0  0  0  0
 20 32  1  0  0  0  0
 20 33  2  0  0  0  0
 20 36  1  0  0  0  0
 21 23  2  0  0  0  0
 21 42  1  0  0  0  0
 22 24  2  0  0  0  0
 22 43  1  0  0  0  0
 23 51  1  0  0  0  0
 24 44  1  0  0  0  0
 25 60  1  0  0  0  0
 26 54  1  0  0  0  0
 27 82  1  0  0  0  0
 28 83  1  0  0  0  0
 29 31  2  0  0  0  0
 29 82  1  0  0  0  0
 30 84  1  0  0  0  0
 31 85  1  0  0  0  0
 32 66  2  0  0  0  0
 33 67  1  0  0  0  0
 33 70  1  0  0  0  0
 34 35  2  0  0  0  0
 35 61  1  0  0  0  0
 36 71  1  0  0  0  0
 36 76  2  0  0  0  0
 37 52  1  0  0  0  0
 37 72  1  0  0  0  0
 37 77  2  0  0  0  0
 38 61  1  0  0  0  0
 38 62  1  0  0  0  0
 38 78  2  0  0  0  0
 39 63  1  0  0  0  0
 39 68  1  0  0  0  0
 39 79  2  0  0  0  0
 40 64  1  0  0  0  0
 40 73  1  0  0  0  0
 40 80  2  0  0  0  0
 41 69  1  0  0  0  0
 41 74  1  0  0  0  0
 41 81  2  0  0  0  0
 42 45  1  0  0  0  0
 43 52  1  0  0  0  0
 44 68  1  0  0  0  0
 45 47  1  0  0  0  0
 46 48  1  0  0  0  0
 46 49  1  0  0  0  0
 47 51  1  0  0  0  0
 48 53  1  0  0  0  0
 49 69  1  0  0  0  0
 50 53  1  0  0  0  0
 50 69  1  0  0  0  0
 51 72  1  0  0  0  0
 52 68  1  0  0  0  0
 53 67  1  0  0  0  0
 55 64  1  0  0  0  0
 56 65  1  0  0  0  0
 57 65  1  0  0  0  0
 58 65  1  0  0  0  0
 59 75  1  0  0  0  0
 60 74  1  0  0  0  0
 62 83  1  0  0  0  0
 63 65  1  0  0  0  0
 63 73  1  0  0  0  0
 64 75  1  0  0  0  0
 66 67  1  0  0  0  0
M  CHG  1  75   1
M  ISO  4  41 100  62 101  74 100  83 101
M  END
> <Batch ID>
0121

> <Smiles>
CNC(C)C(=O)NC(C(=O)N1Cc2cc([101O:1][101CH2:1]C(=O)CC=Cc3ccc(C[100NH:0][100C:0](=O)N4CCCC(n5nc(-c6ccc(Oc7ccc(F)cc7F)cc6)c(C(N)=O)c5N)C4)cc3C)ccc2CC1C(=O)NC1CCCc2ccccc21)C(C)(C)C

> <Shape>
0.279

> <Color>
0.140

> <Negative vol penalty>
0.000

$$$$

  -OEChem-04052301573D

 84 92  0     1  0  0  0  0  0999 V2000
  -20.3089  -24.4512   23.4439 C   0  0  0  0  0  0  0  0  0  0  0  0
  -21.4403  -24.9187   22.7832 C   0  0  0  0  0  0  0  0  0  0  0  0
  -24.2473  -15.0708   25.9738 C   0  0  0  0  0  0  0  0  0  0  0  0
  -22.1126  -15.5078   24.9301 C   0  0  0  0  0  0  0  0  0  0  0  0
  -19.1790  -25.2614   23.5477 C   0  0  0  0  0  0  0  0  0  0  0  0
  -21.4422  -26.1965   22.2248 C   0  0  0  0  0  0  0  0  0  0  0  0
  -25.7034  -28.7453   23.2200 C   0  0  0  0  0  0  0  0  0  0  0  0
  -23.6005  -14.7797   27.1749 C   0  0  0  0  0  0  0  0  0  0  0  0
  -21.4658  -15.2166   26.1311 C   0  0  0  0  0  0  0  0  0  0  0  0
  -26.8299  -28.4217   22.4651 C   0  0  0  0  0  0  0  0  0  0  0  0
  -20.5583  -12.4618   27.8654 C   0  0  0  0  0  0  0  0  0  0  0  0
  -19.4296  -11.6442   27.8102 C   0  0  0  0  0  0  0  0  0  0  0  0
  -30.2702  -23.0229   18.2415 C   0  0  0  0  0  0  0  0  0  0  0  0
  -31.8286  -23.9013   16.6176 C   0  0  0  0  0  0  0  0  0  0  0  0
  -31.6792  -21.5177   16.9821 C   0  0  0  0  0  0  0  0  0  0  0  0
  -26.4406  -30.3498   21.0686 C   0  0  0  0  0  0  0  0  0  0  0  0
  -18.0978  -13.4182   28.7676 C   0  0  0  0  0  0  0  0  0  0  0  0
  -23.5034  -15.4349   24.8514 C   0  0  0  0  0  0  0  0  0  0  0  0
  -30.8395  -24.1103   17.5787 C   0  0  0  0  0  0  0  0  0  0  0  0
  -30.6901  -21.7266   17.9432 C   0  0  0  0  0  0  0  0  0  0  0  0
  -24.4917  -14.8357   22.5773 C   0  0  0  0  0  0  0  0  0  0  0  0
  -19.1703  -26.5534   22.9988 C   0  0  0  0  0  0  0  0  0  0  0  0
  -24.9294  -29.8694   22.8976 C   0  0  0  0  0  0  0  0  0  0  0  0
  -20.3106  -27.0243   22.3202 C   0  0  0  0  0  0  0  0  0  0  0  0
  -25.3062  -30.6870   21.8226 C   0  0  0  0  0  0  0  0  0  0  0  0
  -32.2484  -22.6050   16.3193 C   0  0  0  0  0  0  0  0  0  0  0  0
  -22.2097  -14.8526   27.2535 C   0  0  0  0  0  0  0  0  0  0  0  0
  -27.1971  -29.2223   21.3874 C   0  0  0  0  0  0  0  0  0  0  0  0
  -20.4568  -13.7576   28.3718 C   0  0  0  0  0  0  0  0  0  0  0  0
  -18.1993  -12.1224   28.2613 C   0  0  0  0  0  0  0  0  0  0  0  0
  -19.2266  -14.2358   28.8228 C   0  0  0  0  0  0  0  0  0  0  0  0
  -24.1710  -15.7363   23.6107 C   0  0  0  0  0  0  0  0  0  0  0  0
  -25.1133  -15.6096   21.6280 C   0  0  0  0  0  0  0  0  0  0  0  0
  -30.3956  -25.4797   17.8934 C   0  0  0  0  0  0  0  0  0  0  0  0
  -30.0962  -20.5926   18.6339 C   0  0  0  0  0  0  0  0  0  0  0  0
  -29.7624  -25.8346   19.0202 C   0  0  0  0  0  0  0  0  0  0  0  0
  -29.4376  -20.6499   19.8110 C   0  0  0  0  0  0  0  0  0  0  0  0
  -24.2493  -13.4257   22.4838 C   0  0  0  0  0  0  0  0  0  0  0  0
  -29.3451  -27.2501   19.2388 C   0  0  0  0  0  0  0  0  0  0  0  0
  -28.8805  -19.4071   20.3818 C   0  0  0  0  0  0  0  0  0  0  0  0
  -21.9186  -30.3347   21.9910 C   0  0  0  0  0  0  0  0  0  0  0  0
  -22.7189  -33.4630   22.2999 C   0  0  0  0  0  0  0  0  0  0  0  0
  -25.1709  -35.8364   22.3349 C   0  0  0  0  0  0  0  0  0  0  0  0
  -17.9090  -27.3747   23.0951 C   0  0  0  0  0  0  0  0  0  0  0  0
  -23.7324  -30.2200   23.7382 C   0  0  0  0  0  0  0  0  0  0  0  0
  -24.5206  -31.9161   21.4477 C   0  0  0  0  0  0  0  0  0  0  0  0
  -18.1236  -28.8573   22.8018 C   0  0  0  0  0  0  0  0  0  0  0  0
  -25.5174  -20.6174   21.1922 C   0  0  0  0  0  0  0  0  0  0  0  0
  -18.9696  -29.0359   21.5451 C   0  0  0  0  0  0  0  0  0  0  0  0
  -24.9129  -19.3826   21.8553 C   0  0  0  0  0  0  0  0  0  0  0  0
  -27.0111  -20.7502   21.4853 C   0  0  0  0  0  0  0  0  0  0  0  0
  -27.1935  -18.2984   21.7951 C   0  0  0  0  0  0  0  0  0  0  0  0
  -20.3599  -28.4139   21.7230 C   0  0  1  0  0  0  0  0  0  0  0  0
  -22.7235  -31.0980   23.0045 C   0  0  1  0  0  0  0  0  0  0  0  0
  -25.7013  -18.1194   21.4748 C   0  0  1  0  0  0  0  0  0  0  0  0
  -33.3054  -22.3813   15.2912 C   0  0  0  0  0  0  0  0  0  0  0  0
  -25.5139  -38.3111   22.5708 C   0  0  0  0  0  0  0  0  0  0  0  0
  -21.7205  -33.8711   19.4457 C   0  0  0  0  0  0  0  0  0  0  0  0
  -22.9361  -36.0594   19.4075 C   0  0  0  0  0  0  0  0  0  0  0  0
  -21.0883  -35.6895   21.0420 C   0  0  0  0  0  0  0  0  0  0  0  0
  -26.8350  -35.4920   24.7579 C   0  0  0  0  0  0  0  0  0  0  0  0
  -28.6385  -27.5267   20.5490 C   0  0  0  0  0  0  0  0  0  1  0  0
  -23.3000  -34.5133   21.3844 C   0  0  1  0  0  0  0  0  0  0  0  0
  -25.4562  -36.9759   23.2965 C   0  0  2  0  0  0  0  0  0  0  0  0
  -22.2751  -35.0092   20.3255 C   0  0  0  0  0  0  0  0  0  0  0  0
  -24.5571  -16.9867   23.3432 N   0  0  0  0  0  0  0  0  0  0  0  0
  -25.1270  -16.8773   22.1310 N   0  0  0  0  0  0  0  0  0  0  0  0
  -27.7343  -19.5096   21.1680 N   0  0  0  0  0  0  0  0  0  0  0  0
  -23.3547  -32.2134   22.2961 N   0  0  0  0  0  0  0  0  0  0  0  0
  -25.6442  -15.3226   20.4204 N   0  0  0  0  0  0  0  0  0  0  0  0
  -23.5988  -12.7875   23.5487 N   0  0  0  0  0  0  0  0  0  0  0  0
  -21.2022  -29.2787   22.5212 N   0  0  0  0  0  0  0  0  0  0  0  0
  -23.8216  -35.5657   22.2498 N   0  0  0  0  0  0  0  0  0  0  0  0
  -26.7599  -36.7585   23.9850 N   0  3  0  0  0  0  0  0  0  0  0  0
  -24.6138  -12.7487   21.4927 O   0  0  0  0  0  0  0  0  0  0  0  0
  -29.5621  -28.1296   18.4096 O   0  0  0  0  0  0  0  0  0  0  0  0
  -29.4678  -18.3531   20.1312 O   0  0  0  0  0  0  0  0  0  0  0  0
  -21.9444  -30.6792   20.8152 O   0  0  0  0  0  0  0  0  0  0  0  0
  -21.7414  -33.7433   22.9982 O   0  0  0  0  0  0  0  0  0  0  0  0
  -26.0562  -35.2480   21.7180 O   0  0  0  0  0  0  0  0  0  0  0  0
  -21.5782  -14.5683   28.4252 O   0  0  0  0  0  0  0  0  0  0  0  0
  -28.2959  -28.9083   20.6485 O   0  0  0  0  0  0  0  0  0  1  0  0
  -17.1151  -11.3377   28.2068 F   0  0  0  0  0  0  0  0  0  0  0  0
  -19.1226  -15.4801   29.3092 F   0  0  0  0  0  0  0  0  0  0  0  0
  1  2  1  0  0  0  0
  1  5  2  0  0  0  0
  2  6  2  0  0  0  0
  3  8  2  0  0  0  0
  3 18  1  0  0  0  0
  4  9  1  0  0  0  0
  4 18  2  0  0  0  0
  5 22  1  0  0  0  0
  6 24  1  0  0  0  0
  7 10  2  0  0  0  0
  7 23  1  0  0  0  0
  8 27  1  0  0  0  0
  9 27  2  0  0  0  0
 10 28  1  0  0  0  0
 11 12  2  0  0  0  0
 11 29  1  0  0  0  0
 12 30  1  0  0  0  0
 13 19  2  0  0  0  0
 13 20  1  0  0  0  0
 14 19  1  0  0  0  0
 14 26  2  0  0  0  0
 15 20  2  0  0  0  0
 15 26  1  0  0  0  0
 16 25  1  0  0  0  0
 16 28  2  0  0  0  0
 17 30  2  0  0  0  0
 17 31  1  0  0  0  0
 18 32  1  0  0  0  0
 19 34  1  0  0  0  0
 20 35  1  0  0  0  0
 21 32  1  0  0  0  0
 21 33  2  0  0  0  0
 21 38  1  0  0  0  0
 22 24  2  0  0  0  0
 22 44  1  0  0  0  0
 23 25  2  0  0  0  0
 23 45  1  0  0  0  0
 24 53  1  0  0  0  0
 25 46  1  0  0  0  0
 26 56  1  0  0  0  0
 27 81  1  0  0  0  0
 28 82  1  0  0  0  0
 29 31  2  0  0  0  0
 29 81  1  0  0  0  0
 30 83  1  0  0  0  0
 31 84  1  0  0  0  0
 32 66  2  0  0  0  0
 33 67  1  0  0  0  0
 33 70  1  0  0  0  0
 34 36  2  0  0  0  0
 35 37  2  0  0  0  0
 36 39  1  0  0  0  0
 37 40  1  0  0  0  0
 38 71  1  0  0  0  0
 38 75  2  0  0  0  0
 39 62  1  0  0  0  0
 39 76  2  0  0  0  0
 40 68  1  0  0  0  0
 40 77  2  0  0  0  0
 41 54  1  0  0  0  0
 41 72  1  0  0  0  0
 41 78  2  0  0  0  0
 42 63  1  0  0  0  0
 42 69  1  0  0  0  0
 42 79  2  0  0  0  0
 43 64  1  0  0  0  0
 43 73  1  0  0  0  0
 43 80  2  0  0  0  0
 44 47  1  0  0  0  0
 45 54  1  0  0  0  0
 46 69  1  0  0  0  0
 47 49  1  0  0  0  0
 48 50  1  0  0  0  0
 48 51  1  0  0  0  0
 49 53  1  0  0  0  0
 50 55  1  0  0  0  0
 51 68  1  0  0  0  0
 52 55  1  0  0  0  0
 52 68  1  0  0  0  0
 53 72  1  0  0  0  0
 54 69  1  0  0  0  0
 55 67  1  0  0  0  0
 57 64  1  0  0  0  0
 58 65  1  0  0  0  0
 59 65  1  0  0  0  0
 60 65  1  0  0  0  0
 61 74  1  0  0  0  0
 62 82  1  0  0  0  0
 63 65  1  0  0  0  0
 63 73  1  0  0  0  0
 64 74  1  0  0  0  0
 66 67  1  0  0  0  0
M  CHG  1  74   1
M  ISO  4  37 100  40 100  62 101  82 101
M  END
> <Batch ID>
0121

> <Smiles>
CNC(C)C(=O)NC(C(=O)N1Cc2cc([101O:1][101CH2:1]C(=O)C=Cc3cc(C)cc(C=[100CH:0][100C:0](=O)N4CCCC(n5nc(-c6ccc(Oc7ccc(F)cc7F)cc6)c(C(N)=O)c5N)C4)c3)ccc2CC1C(=O)NC1CCCc2ccccc21)C(C)(C)C

> <Shape>
0.218

> <Color>
0.120

> <Negative vol penalty>
0.000

$$$$

  -OEChem-04052301573D

 88 96  0     1  0  0  0  0  0999 V2000
  -22.9188  -24.2314   20.1271 C   0  0  0  0  0  0  0  0  0  0  0  0
  -24.0334  -23.9936   20.9249 C   0  0  0  0  0  0  0  0  0  0  0  0
  -23.0581   -9.9009   19.9407 C   0  0  0  0  0  0  0  0  0  0  0  0
  -23.8249   -9.8904   22.2317 C   0  0  0  0  0  0  0  0  0  0  0  0
  -22.6884  -25.5078   19.6158 C   0  0  0  0  0  0  0  0  0  0  0  0
  -24.9190  -25.0321   21.2110 C   0  0  0  0  0  0  0  0  0  0  0  0
  -26.2551  -25.1562   26.0941 C   0  0  0  0  0  0  0  0  0  0  0  0
  -22.3031   -8.7545   20.1881 C   0  0  0  0  0  0  0  0  0  0  0  0
  -23.0699   -8.7439   22.4792 C   0  0  0  0  0  0  0  0  0  0  0  0
  -27.2117  -24.2339   26.5161 C   0  0  0  0  0  0  0  0  0  0  0  0
  -19.8355   -7.9769   23.0882 C   0  0  0  0  0  0  0  0  0  0  0  0
  -19.0817   -7.9399   24.2612 C   0  0  0  0  0  0  0  0  0  0  0  0
  -28.9077  -25.9447   26.3906 C   0  0  0  0  0  0  0  0  0  0  0  0
  -29.9488  -17.4066   23.1493 C   0  0  0  0  0  0  0  0  0  0  0  0
  -32.1223  -16.5386   22.5497 C   0  0  0  0  0  0  0  0  0  0  0  0
  -20.3052   -5.9866   24.9857 C   0  0  0  0  0  0  0  0  0  0  0  0
  -23.8190  -10.4689   20.9625 C   0  0  0  0  0  0  0  0  0  0  0  0
  -31.9345  -18.2845   24.2091 C   0  0  0  0  0  0  0  0  0  0  0  0
  -24.1866  -12.9909   20.8520 C   0  0  0  0  0  0  0  0  0  0  0  0
  -23.5664  -26.5647   19.9037 C   0  0  0  0  0  0  0  0  0  0  0  0
  -26.6202  -26.4792   25.8062 C   0  0  0  0  0  0  0  0  0  0  0  0
  -24.7008  -26.3236   20.7020 C   0  0  0  0  0  0  0  0  0  0  0  0
  -27.9534  -26.8825   25.9676 C   0  0  0  0  0  0  0  0  0  0  0  0
  -30.5481  -18.2812   24.0557 C   0  0  0  0  0  0  0  0  0  0  0  0
  -32.7216  -17.4132   23.4561 C   0  0  0  0  0  0  0  0  0  0  0  0
  -30.7359  -16.5353   22.3963 C   0  0  0  0  0  0  0  0  0  0  0  0
  -22.3090   -8.1760   21.4573 C   0  0  0  0  0  0  0  0  0  0  0  0
  -28.5387  -24.6274   26.6617 C   0  0  0  0  0  0  0  0  0  0  0  0
  -20.8241   -7.0188   22.8639 C   0  0  0  0  0  0  0  0  0  0  0  0
  -19.3166   -6.9447   25.2100 C   0  0  0  0  0  0  0  0  0  0  0  0
  -21.0590   -6.0237   23.8127 C   0  0  0  0  0  0  0  0  0  0  0  0
  -24.5996  -11.6528   20.7074 C   0  0  0  0  0  0  0  0  0  0  0  0
  -25.2853  -13.7305   20.4886 C   0  0  0  0  0  0  0  0  0  0  0  0
  -32.5681  -19.2092   25.1634 C   0  0  0  0  0  0  0  0  0  0  0  0
  -33.0027  -20.4444   24.8687 C   0  0  0  0  0  0  0  0  0  0  0  0
  -22.9228  -13.5180   21.2770 C   0  0  0  0  0  0  0  0  0  0  0  0
  -26.5453  -28.3127   23.2108 C   0  0  0  0  0  0  0  0  0  0  0  0
  -27.4920  -30.6179   25.2874 C   0  0  0  0  0  0  0  0  0  0  0  0
  -29.0147  -31.4129   28.2364 C   0  0  0  0  0  0  0  0  0  0  0  0
  -30.7625  -14.7189   20.6509 C   0  0  0  0  0  0  0  0  0  0  0  0
  -23.3013  -27.9164   19.2895 C   0  0  0  0  0  0  0  0  0  0  0  0
  -25.5716  -27.4687   25.3777 C   0  0  0  0  0  0  0  0  0  0  0  0
  -28.3933  -28.2962   25.6909 C   0  0  0  0  0  0  0  0  0  0  0  0
  -24.0854  -29.0488   19.9476 C   0  0  0  0  0  0  0  0  0  0  0  0
  -29.6161  -12.3268   18.2760 C   0  0  0  0  0  0  0  0  0  0  0  0
  -25.5457  -28.6493   20.1335 C   0  0  0  0  0  0  0  0  0  0  0  0
  -28.1748  -12.0482   18.7087 C   0  0  0  0  0  0  0  0  0  0  0  0
  -30.5371  -12.5410   19.4758 C   0  0  0  0  0  0  0  0  0  0  0  0
  -28.6420  -13.2793   20.8659 C   0  0  0  0  0  0  0  0  0  0  0  0
  -25.6710  -27.4300   21.0550 C   0  0  1  0  0  0  0  0  0  0  0  0
  -26.1484  -28.6592   24.6179 C   0  0  1  0  0  0  0  0  0  0  0  0
  -27.6638  -13.1211   19.6903 C   0  0  2  0  0  0  0  0  0  0  0  0
  -29.1805  -20.3823   24.0183 C   0  0  0  0  0  0  0  0  0  0  0  0
  -36.2058  -16.1393   24.5251 C   0  0  0  0  0  0  0  0  0  0  0  0
  -29.6724  -33.3825   29.6454 C   0  0  0  0  0  0  0  0  0  0  0  0
  -29.8172  -31.1909   23.3967 C   0  0  0  0  0  0  0  0  0  0  0  0
  -30.9286  -32.4462   25.2560 C   0  0  0  0  0  0  0  0  0  0  0  0
  -28.7335  -33.2265   24.3644 C   0  0  0  0  0  0  0  0  0  0  0  0
  -27.3188  -30.5147   30.4894 C   0  0  0  0  0  0  0  0  0  0  0  0
  -29.6699  -19.1984   24.8455 C   0  0  0  0  0  0  0  0  0  0  0  0
  -34.2105  -17.3858   23.5913 C   0  0  0  0  0  0  0  0  0  0  0  0
  -33.6523  -21.3536   25.8736 C   0  0  0  0  0  0  0  0  0  0  0  0
  -34.6898  -16.1839   24.4166 C   0  0  0  0  0  0  0  0  0  0  0  0
  -32.9357  -22.7008   26.0088 C   0  0  0  0  0  0  0  0  0  0  0  0
  -31.5008  -22.5673   26.5209 C   0  0  0  0  0  0  0  0  0  0  0  0
  -30.8090  -23.9211   26.6050 C   0  0  0  0  0  0  0  0  0  1  0  0
  -28.8232  -31.1329   25.7789 C   0  0  1  0  0  0  0  0  0  0  0  0
  -28.6016  -32.3396   29.3656 C   0  0  2  0  0  0  0  0  0  0  0  0
  -29.5680  -31.9719   24.7024 C   0  0  0  0  0  0  0  0  0  0  0  0
  -25.8621  -11.5457   20.2849 N   0  0  0  0  0  0  0  0  0  0  0  0
  -26.2519  -12.8259   20.1608 N   0  0  0  0  0  0  0  0  0  0  0  0
  -27.3321  -29.2251   25.2684 N   0  0  0  0  0  0  0  0  0  0  0  0
  -29.9915  -13.5738   20.3592 N   0  0  0  0  0  0  0  0  0  0  0  0
  -25.5093  -15.0601   20.4205 N   0  0  0  0  0  0  0  0  0  0  0  0
  -21.9025  -12.6179   21.6136 N   0  0  0  0  0  0  0  0  0  0  0  0
  -30.1272  -15.6471   21.4752 N   0  0  0  0  0  0  0  0  0  0  0  0
  -25.5093  -27.8233   22.4384 N   0  0  0  0  0  0  0  0  0  0  0  0
  -28.5497  -31.8558   27.0162 N   0  0  0  0  0  0  0  0  0  0  0  0
  -28.3657  -31.5612   30.6144 N   0  3  0  0  0  0  0  0  0  0  0  0
  -22.6994  -14.7507   21.3402 O   0  0  0  0  0  0  0  0  0  0  0  0
  -27.7052  -28.4786   22.8519 O   0  0  0  0  0  0  0  0  0  0  0  0
  -26.6233  -31.4219   24.9403 O   0  0  0  0  0  0  0  0  0  0  0  0
  -29.6860  -30.3996   28.4181 O   0  0  0  0  0  0  0  0  0  0  0  0
  -31.8919  -14.8779   20.1806 O   0  0  0  0  0  0  0  0  0  0  0  0
  -21.5722   -7.0574   21.6991 O   0  0  0  0  0  0  0  0  0  0  0  0
  -29.4745  -23.7290   27.0728 O   0  0  0  0  0  0  0  0  0  1  0  0
  -18.5937   -6.9102   26.3371 F   0  0  0  0  0  0  0  0  0  0  0  0
  -22.0082   -5.1012   23.6033 F   0  0  0  0  0  0  0  0  0  0  0  0
  1  2  1  0  0  0  0
  1  5  2  0  0  0  0
  2  6  2  0  0  0  0
  3  8  2  0  0  0  0
  3 17  1  0  0  0  0
  4  9  1  0  0  0  0
  4 17  2  0  0  0  0
  5 20  1  0  0  0  0
  6 22  1  0  0  0  0
  7 10  2  0  0  0  0
  7 21  1  0  0  0  0
  8 27  1  0  0  0  0
  9 27  2  0  0  0  0
 10 28  1  0  0  0  0
 11 12  2  0  0  0  0
 11 29  1  0  0  0  0
 12 30  1  0  0  0  0
 13 23  1  0  0  0  0
 13 28  2  0  0  0  0
 14 24  2  0  0  0  0
 14 26  1  0  0  0  0
 15 25  1  0  0  0  0
 15 26  2  0  0  0  0
 16 30  2  0  0  0  0
 16 31  1  0  0  0  0
 17 32  1  0  0  0  0
 18 24  1  0  0  0  0
 18 25  2  0  0  0  0
 18 34  1  0  0  0  0
 19 32  1  0  0  0  0
 19 33  2  0  0  0  0
 19 36  1  0  0  0  0
 20 22  2  0  0  0  0
 20 41  1  0  0  0  0
 21 23  2  0  0  0  0
 21 42  1  0  0  0  0
 22 50  1  0  0  0  0
 23 43  1  0  0  0  0
 24 60  1  0  0  0  0
 25 61  1  0  0  0  0
 26 76  1  0  0  0  0
 27 85  1  0  0  0  0
 28 86  1  0  0  0  0
 29 31  2  0  0  0  0
 29 85  1  0  0  0  0
 30 87  1  0  0  0  0
 31 88  1  0  0  0  0
 32 70  2  0  0  0  0
 33 71  1  0  0  0  0
 33 74  1  0  0  0  0
 34 35  2  0  0  0  0
 35 62  1  0  0  0  0
 36 75  1  0  0  0  0
 36 80  2  0  0  0  0
 37 51  1  0  0  0  0
 37 77  1  0  0  0  0
 37 81  2  0  0  0  0
 38 67  1  0  0  0  0
 38 72  1  0  0  0  0
 38 82  2  0  0  0  0
 39 68  1  0  0  0  0
 39 78  1  0  0  0  0
 39 83  2  0  0  0  0
 40 73  1  0  0  0  0
 40 76  1  0  0  0  0
 40 84  2  0  0  0  0
 41 44  1  0  0  0  0
 42 51  1  0  0  0  0
 43 72  1  0  0  0  0
 44 46  1  0  0  0  0
 45 47  1  0  0  0  0
 45 48  1  0  0  0  0
 46 50  1  0  0  0  0
 47 52  1  0  0  0  0
 48 73  1  0  0  0  0
 49 52  1  0  0  0  0
 49 73  1  0  0  0  0
 50 77  1  0  0  0  0
 51 72  1  0  0  0  0
 52 71  1  0  0  0  0
 53 60  1  0  0  0  0
 54 63  1  0  0  0  0
 55 68  1  0  0  0  0
 56 69  1  0  0  0  0
 57 69  1  0  0  0  0
 58 69  1  0  0  0  0
 59 79  1  0  0  0  0
 61 63  1  0  0  0  0
 62 64  1  0  0  0  0
 64 65  1  0  0  0  0
 65 66  1  0  0  0  0
 66 86  1  0  0  0  0
 67 69  1  0  0  0  0
 67 78  1  0  0  0  0
 68 79  1  0  0  0  0
 70 71  1  0  0  0  0
M  CHG  1  79   1
M  ISO  4  40 100  66 101  76 100  86 101
M  END
> <Batch ID>
0121

> <Smiles>
CCCc1cc([100NH:0][100C:0](=O)N2CCCC(n3nc(-c4ccc(Oc5ccc(F)cc5F)cc4)c(C(N)=O)c3N)C2)cc(CC)c1C=CCCC[101CH2:1][101O:1]c1ccc2c(c1)CN(C(=O)C(NC(=O)C(C)NC)C(C)(C)C)C(C(=O)NC1CCCc3ccccc31)C2

> <Shape>
0.232

> <Color>
0.189

> <Negative vol penalty>
0.000

$$$$

  -OEChem-04052301573D

 85 93  0     1  0  0  0  0  0999 V2000
  -26.9570  -32.5390   13.0521 C   0  0  0  0  0  0  0  0  0  0  0  0
  -26.9437  -31.5260   14.0055 C   0  0  0  0  0  0  0  0  0  0  0  0
  -22.8141  -10.6342   19.8241 C   0  0  0  0  0  0  0  0  0  0  0  0
  -23.4954   -9.9491   22.0385 C   0  0  0  0  0  0  0  0  0  0  0  0
  -29.6974  -19.2623   17.9121 C   0  0  0  0  0  0  0  0  0  0  0  0
  -27.3858  -33.8187   13.4023 C   0  0  0  0  0  0  0  0  0  0  0  0
  -27.3604  -31.7917   15.3094 C   0  0  0  0  0  0  0  0  0  0  0  0
  -24.2507  -29.8153   18.7834 C   0  0  0  0  0  0  0  0  0  0  0  0
  -21.8324   -9.6434   19.8196 C   0  0  0  0  0  0  0  0  0  0  0  0
  -22.5136   -8.9582   22.0340 C   0  0  0  0  0  0  0  0  0  0  0  0
  -28.9336  -20.4262   17.8262 C   0  0  0  0  0  0  0  0  0  0  0  0
  -24.3625  -28.4483   19.0340 C   0  0  0  0  0  0  0  0  0  0  0  0
  -22.0955   -5.8714   20.7196 C   0  0  0  0  0  0  0  0  0  0  0  0
  -22.4555   -4.6003   21.1671 C   0  0  0  0  0  0  0  0  0  0  0  0
  -27.7089  -17.9324   17.5742 C   0  0  0  0  0  0  0  0  0  0  0  0
  -25.6658  -28.9229   21.0077 C   0  0  0  0  0  0  0  0  0  0  0  0
  -20.7863   -4.7404   22.9082 C   0  0  0  0  0  0  0  0  0  0  0  0
  -23.6457  -10.7870   20.9336 C   0  0  0  0  0  0  0  0  0  0  0  0
  -29.0851  -18.0153   17.7861 C   0  0  0  0  0  0  0  0  0  0  0  0
  -26.9451  -19.0963   17.4883 C   0  0  0  0  0  0  0  0  0  0  0  0
  -24.5277  -13.1367   21.3902 C   0  0  0  0  0  0  0  0  0  0  0  0
  -27.7988  -34.1026   14.7135 C   0  0  0  0  0  0  0  0  0  0  0  0
  -24.8559  -30.7475   19.6385 C   0  0  0  0  0  0  0  0  0  0  0  0
  -27.7964  -33.0760   15.6771 C   0  0  0  0  0  0  0  0  0  0  0  0
  -25.5580  -30.3012   20.7672 C   0  0  0  0  0  0  0  0  0  0  0  0
  -21.6821   -8.8054   20.9245 C   0  0  0  0  0  0  0  0  0  0  0  0
  -25.0726  -28.0019   20.1446 C   0  0  0  0  0  0  0  0  0  0  0  0
  -27.5575  -20.3433   17.6143 C   0  0  0  0  0  0  0  0  0  0  0  0
  -21.0809   -6.5771   21.3665 C   0  0  0  0  0  0  0  0  0  0  0  0
  -21.8009   -4.0348   22.2614 C   0  0  0  0  0  0  0  0  0  0  0  0
  -20.4263   -6.0116   22.4607 C   0  0  0  0  0  0  0  0  0  0  0  0
  -24.6604  -11.8100   20.9386 C   0  0  0  0  0  0  0  0  0  0  0  0
  -25.7653  -13.6953   21.1831 C   0  0  0  0  0  0  0  0  0  0  0  0
  -24.6823  -18.3811   18.1076 C   0  0  0  0  0  0  0  0  0  0  0  0
  -25.5096  -18.9837   17.2667 C   0  0  0  0  0  0  0  0  0  0  0  0
  -29.8930  -16.7861   17.8769 C   0  0  0  0  0  0  0  0  0  0  0  0
  -23.3877  -13.8045   21.9471 C   0  0  0  0  0  0  0  0  0  0  0  0
  -27.1118  -32.9620   19.3063 C   0  0  0  0  0  0  0  0  0  0  0  0
  -26.2844  -33.7046   22.3537 C   0  0  0  0  0  0  0  0  0  0  0  0
  -24.9139  -32.6951   25.3116 C   0  0  0  0  0  0  0  0  0  0  0  0
  -30.1797  -14.5038   17.8647 C   0  0  0  0  0  0  0  0  0  0  0  0
  -28.2987  -35.4893   15.0329 C   0  0  0  0  0  0  0  0  0  0  0  0
  -24.7033  -32.2194   19.3691 C   0  0  0  0  0  0  0  0  0  0  0  0
  -26.2090  -31.2618   21.7272 C   0  0  0  0  0  0  0  0  0  0  0  0
  -28.3694  -35.7816   16.5296 C   0  0  0  0  0  0  0  0  0  0  0  0
  -30.1870  -11.5761   19.9702 C   0  0  0  0  0  0  0  0  0  0  0  0
  -29.0292  -34.6222   17.2694 C   0  0  0  0  0  0  0  0  0  0  0  0
  -28.7295  -11.4668   20.4177 C   0  0  0  0  0  0  0  0  0  0  0  0
  -30.2966  -12.1062   18.5438 C   0  0  0  0  0  0  0  0  0  0  0  0
  -28.1384  -13.3046   18.7768 C   0  0  0  0  0  0  0  0  0  0  0  0
  -28.2173  -33.3313   17.1081 C   0  0  1  0  0  0  0  0  0  0  0  0
  -25.7944  -33.0625   20.0219 C   0  0  1  0  0  0  0  0  0  0  0  0
  -27.9898  -12.8024   20.2231 C   0  0  1  0  0  0  0  0  0  0  0  0
  -24.4108  -33.5125   27.6302 C   0  0  0  0  0  0  0  0  0  0  0  0
  -29.2322  -33.4239   23.0897 C   0  0  0  0  0  0  0  0  0  0  0  0
  -28.5484  -33.3040   25.4952 C   0  0  0  0  0  0  0  0  0  0  0  0
  -28.0683  -35.3588   24.1647 C   0  0  0  0  0  0  0  0  0  0  0  0
  -22.0061  -32.2766   24.9532 C   0  0  0  0  0  0  0  0  0  0  0  0
  -25.9800  -24.5420   19.5689 C   0  0  0  0  0  0  0  0  0  0  0  0
  -26.0114  -23.5880   18.3800 C   0  0  0  0  0  0  0  0  0  0  0  0
  -25.1718  -25.7957   19.2620 C   0  0  0  0  0  0  0  0  0  1  0  0
  -26.8545  -22.3545   18.6709 C   0  0  0  0  0  0  0  0  0  0  0  0
  -26.7349  -33.2567   23.7231 C   0  0  1  0  0  0  0  0  0  0  0  0
  -23.8799  -33.3419   26.2154 C   0  0  2  0  0  0  0  0  0  0  0  0
  -28.1354  -33.8174   24.0992 C   0  0  0  0  0  0  0  0  0  0  0  0
  -25.8855  -11.5418   20.4792 N   0  0  0  0  0  0  0  0  0  0  0  0
  -29.3611  -15.6129   17.7680 N   0  0  0  0  0  0  0  0  0  0  0  0
  -26.5340  -12.7077   20.6409 N   0  0  0  0  0  0  0  0  0  0  0  0
  -26.0371  -32.6908   21.4174 N   0  0  0  0  0  0  0  0  0  0  0  0
  -29.5542  -13.3579   18.3893 N   0  0  0  0  0  0  0  0  0  0  0  0
  -26.2601  -14.9300   21.4137 N   0  0  0  0  0  0  0  0  0  0  0  0
  -22.1946  -13.0831   22.0901 N   0  0  0  0  0  0  0  0  0  0  0  0
  -27.0627  -33.3482   17.9805 N   0  0  0  0  0  0  0  0  0  0  0  0
  -25.6715  -33.6362   24.6470 N   0  0  0  0  0  0  0  0  0  0  0  0
  -22.6474  -32.5060   26.2735 N   0  3  0  0  0  0  0  0  0  0  0  0
  -23.4212  -15.0101   22.2920 O   0  0  0  0  0  0  0  0  0  0  0  0
  -28.1000  -32.5650   19.9126 O   0  0  0  0  0  0  0  0  0  0  0  0
  -26.1500  -34.9094   22.1254 O   0  0  0  0  0  0  0  0  0  0  0  0
  -25.0397  -31.4769   25.2085 O   0  0  0  0  0  0  0  0  0  0  0  0
  -31.3640  -14.4915   17.5207 O   0  0  0  0  0  0  0  0  0  0  0  0
  -20.7241   -7.8386   20.9205 O   0  0  0  0  0  0  0  0  0  0  0  0
  -25.1839  -26.6682   20.3911 O   0  0  0  0  0  0  0  0  0  1  0  0
  -26.8307  -21.5027   17.5339 O   0  0  0  0  0  0  0  0  0  0  0  0
  -22.1457   -2.8135   22.6900 F   0  0  0  0  0  0  0  0  0  0  0  0
  -19.4500   -6.6842   23.0854 F   0  0  0  0  0  0  0  0  0  0  0  0
  1  2  1  0  0  0  0
  1  6  2  0  0  0  0
  2  7  2  0  0  0  0
  3  9  2  0  0  0  0
  3 18  1  0  0  0  0
  4 10  1  0  0  0  0
  4 18  2  0  0  0  0
  5 11  2  0  0  0  0
  5 19  1  0  0  0  0
  6 22  1  0  0  0  0
  7 24  1  0  0  0  0
  8 12  2  0  0  0  0
  8 23  1  0  0  0  0
  9 26  1  0  0  0  0
 10 26  2  0  0  0  0
 11 28  1  0  0  0  0
 12 27  1  0  0  0  0
 13 14  2  0  0  0  0
 13 29  1  0  0  0  0
 14 30  1  0  0  0  0
 15 19  2  0  0  0  0
 15 20  1  0  0  0  0
 16 25  1  0  0  0  0
 16 27  2  0  0  0  0
 17 30  2  0  0  0  0
 17 31  1  0  0  0  0
 18 32  1  0  0  0  0
 19 36  1  0  0  0  0
 20 28  2  0  0  0  0
 20 35  1  0  0  0  0
 21 32  1  0  0  0  0
 21 33  2  0  0  0  0
 21 37  1  0  0  0  0
 22 24  2  0  0  0  0
 22 42  1  0  0  0  0
 23 25  2  0  0  0  0
 23 43  1  0  0  0  0
 24 51  1  0  0  0  0
 25 44  1  0  0  0  0
 26 81  1  0  0  0  0
 27 82  1  0  0  0  0
 28 83  1  0  0  0  0
 29 31  2  0  0  0  0
 29 81  1  0  0  0  0
 30 84  1  0  0  0  0
 31 85  1  0  0  0  0
 32 66  2  0  0  0  0
 33 68  1  0  0  0  0
 33 71  1  0  0  0  0
 34 35  2  0  0  0  0
 36 67  2  0  0  0  0
 37 72  1  0  0  0  0
 37 76  2  0  0  0  0
 38 52  1  0  0  0  0
 38 73  1  0  0  0  0
 38 77  2  0  0  0  0
 39 63  1  0  0  0  0
 39 69  1  0  0  0  0
 39 78  2  0  0  0  0
 40 64  1  0  0  0  0
 40 74  1  0  0  0  0
 40 79  2  0  0  0  0
 41 67  1  0  0  0  0
 41 70  1  0  0  0  0
 41 80  2  0  0  0  0
 42 45  1  0  0  0  0
 43 52  1  0  0  0  0
 44 69  1  0  0  0  0
 45 47  1  0  0  0  0
 46 48  1  0  0  0  0
 46 49  1  0  0  0  0
 47 51  1  0  0  0  0
 48 53  1  0  0  0  0
 49 70  1  0  0  0  0
 50 53  1  0  0  0  0
 50 70  1  0  0  0  0
 51 73  1  0  0  0  0
 52 69  1  0  0  0  0
 53 68  1  0  0  0  0
 54 64  1  0  0  0  0
 55 65  1  0  0  0  0
 56 65  1  0  0  0  0
 57 65  1  0  0  0  0
 58 75  1  0  0  0  0
 59 60  1  0  0  0  0
 59 61  1  0  0  0  0
 60 62  1  0  0  0  0
 61 82  1  0  0  0  0
 62 83  1  0  0  0  0
 63 65  1  0  0  0  0
 63 74  1  0  0  0  0
 64 75  1  0  0  0  0
 66 68  1  0  0  0  0
M  CHG  1  75   1
M  ISO  4  41 100  61 101  67 100  82 101
M  END
> <Batch ID>
0121

> <Smiles>
C=Cc1cc(C=[100N:0][100C:0](=O)N2CCCC(n3nc(-c4ccc(Oc5ccc(F)cc5F)cc4)c(C(N)=O)c3N)C2)ccc1OCCC[101CH2:1][101O:1]c1ccc2c(c1)CN(C(=O)C(NC(=O)C(C)NC)C(C)(C)C)C(C(=O)NC1CCCc3ccccc31)C2

> <Shape>
0.249

> <Color>
0.127

> <Negative vol penalty>
0.000

$$$$

  -OEChem-04052301573D

 88 96  0     1  0  0  0  0  0999 V2000
  -28.3617  -38.0851   23.8378 C   0  0  0  0  0  0  0  0  0  0  0  0
  -28.8754  -36.8418   23.4829 C   0  0  0  0  0  0  0  0  0  0  0  0
  -26.3109   -7.6873   22.7586 C   0  0  0  0  0  0  0  0  0  0  0  0
  -26.8457   -6.7229   20.6089 C   0  0  0  0  0  0  0  0  0  0  0  0
  -29.5916  -19.0448   19.4011 C   0  0  0  0  0  0  0  0  0  0  0  0
  -27.1911  -38.1653   24.5909 C   0  0  0  0  0  0  0  0  0  0  0  0
  -28.2192  -35.6779   23.8820 C   0  0  0  0  0  0  0  0  0  0  0  0
  -27.7994  -30.4308   20.7519 C   0  0  0  0  0  0  0  0  0  0  0  0
  -25.2562   -6.7856   22.9007 C   0  0  0  0  0  0  0  0  0  0  0  0
  -25.7910   -5.8212   20.7511 C   0  0  0  0  0  0  0  0  0  0  0  0
  -29.7834  -20.3426   18.9274 C   0  0  0  0  0  0  0  0  0  0  0  0
  -28.5096  -29.2335   20.8284 C   0  0  0  0  0  0  0  0  0  0  0  0
  -24.8528   -3.5386   23.7534 C   0  0  0  0  0  0  0  0  0  0  0  0
  -24.7084   -2.8987   24.9844 C   0  0  0  0  0  0  0  0  0  0  0  0
  -26.7916  -28.3121   22.2491 C   0  0  0  0  0  0  0  0  0  0  0  0
  -22.5041   -3.8582   25.2247 C   0  0  0  0  0  0  0  0  0  0  0  0
  -27.1056   -7.6560   21.6126 C   0  0  0  0  0  0  0  0  0  0  0  0
  -28.6369  -18.7963   20.3873 C   0  0  0  0  0  0  0  0  0  0  0  0
  -28.0660  -21.1435   20.4261 C   0  0  0  0  0  0  0  0  0  0  0  0
  -29.5289   -8.4079   21.8772 C   0  0  0  0  0  0  0  0  0  0  0  0
  -26.5150  -37.0019   24.9911 C   0  0  0  0  0  0  0  0  0  0  0  0
  -26.5832  -30.5817   21.4335 C   0  0  0  0  0  0  0  0  0  0  0  0
  -27.0392  -35.7426   24.6423 C   0  0  0  0  0  0  0  0  0  0  0  0
  -26.0666  -29.5114   22.1776 C   0  0  0  0  0  0  0  0  0  0  0  0
  -27.8741  -19.8456   20.8998 C   0  0  0  0  0  0  0  0  0  0  0  0
  -24.9963   -5.8525   21.8970 C   0  0  0  0  0  0  0  0  0  0  0  0
  -28.0072  -28.1750   21.5795 C   0  0  0  0  0  0  0  0  0  0  0  0
  -29.0207  -21.3920   19.4399 C   0  0  0  0  0  0  0  0  0  0  0  0
  -23.8228   -4.3384   23.2581 C   0  0  0  0  0  0  0  0  0  0  0  0
  -23.5341   -3.0585   25.7200 C   0  0  0  0  0  0  0  0  0  0  0  0
  -22.6485   -4.4981   23.9937 C   0  0  0  0  0  0  0  0  0  0  0  0
  -28.1949   -8.5875   21.4650 C   0  0  0  0  0  0  0  0  0  0  0  0
  -30.1608   -9.5713   21.5116 C   0  0  0  0  0  0  0  0  0  0  0  0
  -28.4634  -17.4275   20.8572 C   0  0  0  0  0  0  0  0  0  0  0  0
  -27.2740  -22.2496   20.9562 C   0  0  0  0  0  0  0  0  0  0  0  0
  -28.1268  -16.3744   20.0854 C   0  0  0  0  0  0  0  0  0  0  0  0
  -26.1016  -22.6895   20.4541 C   0  0  0  0  0  0  0  0  0  0  0  0
  -30.1420   -7.2894   22.5320 C   0  0  0  0  0  0  0  0  0  0  0  0
  -27.9986  -15.0426   20.7105 C   0  0  0  0  0  0  0  0  0  0  0  0
  -25.5295  -32.4915   23.7456 C   0  0  0  0  0  0  0  0  0  0  0  0
  -22.6924  -31.0549   23.1055 C   0  0  0  0  0  0  0  0  0  0  0  0
  -21.0328  -28.3469   21.8569 C   0  0  0  0  0  0  0  0  0  0  0  0
  -25.2789  -37.1380   25.8445 C   0  0  0  0  0  0  0  0  0  0  0  0
  -25.8160  -31.8704   21.3190 C   0  0  0  0  0  0  0  0  0  0  0  0
  -24.7554  -29.6155   22.9114 C   0  0  0  0  0  0  0  0  0  0  0  0
  -24.4400  -35.8643   25.9087 C   0  0  0  0  0  0  0  0  0  0  0  0
  -29.9705  -13.1005   18.3080 C   0  0  0  0  0  0  0  0  0  0  0  0
  -25.3287  -34.6522   26.1691 C   0  0  0  0  0  0  0  0  0  0  0  0
  -29.8133  -11.6905   18.8709 C   0  0  0  0  0  0  0  0  0  0  0  0
  -28.7144  -13.9441   18.5202 C   0  0  0  0  0  0  0  0  0  0  0  0
  -28.1099  -12.5894   20.5051 C   0  0  0  0  0  0  0  0  0  0  0  0
  -26.3427  -34.4578   25.0352 C   0  0  1  0  0  0  0  0  0  0  0  0
  -24.8411  -32.0898   22.4718 C   0  0  1  0  0  0  0  0  0  0  0  0
  -29.3790  -11.7379   20.3444 C   0  0  1  0  0  0  0  0  0  0  0  0
  -25.3287  -23.8337   21.0252 C   0  0  0  0  0  0  0  0  0  0  0  0
  -25.5836  -18.9488   21.3852 C   0  0  0  0  0  0  0  0  0  0  0  0
  -18.7173  -27.4457   21.5049 C   0  0  0  0  0  0  0  0  0  0  0  0
  -22.5047  -30.3835   26.0761 C   0  0  0  0  0  0  0  0  0  0  0  0
  -20.7243  -28.7151   25.5152 C   0  0  0  0  0  0  0  0  0  0  0  0
  -20.3571  -31.1360   25.0389 C   0  0  0  0  0  0  0  0  0  0  0  0
  -21.3943  -28.2426   18.9214 C   0  0  0  0  0  0  0  0  0  0  0  0
  -26.8482  -19.5750   21.9593 C   0  0  0  0  0  0  0  0  0  0  0  0
  -29.5688  -25.1351   20.4013 C   0  0  0  0  0  0  0  0  0  0  0  0
  -30.4361  -24.7096   19.2216 C   0  0  0  0  0  0  0  0  0  0  0  0
  -29.5024  -26.6510   20.5317 C   0  0  0  0  0  0  0  0  0  1  0  0
  -30.5379  -23.1945   19.1163 C   0  0  0  0  0  0  0  0  0  0  0  0
  -21.9793  -29.8240   23.6109 C   0  0  1  0  0  0  0  0  0  0  0  0
  -19.8635  -28.2376   20.8950 C   0  0  2  0  0  0  0  0  0  0  0  0
  -21.4171  -30.0130   25.0481 C   0  0  0  0  0  0  0  0  0  0  0  0
  -27.9903   -9.7718   20.8822 N   0  0  0  0  0  0  0  0  0  0  0  0
  -29.2041  -10.3469   20.9257 N   0  0  0  0  0  0  0  0  0  0  0  0
  -28.2853  -13.9263   19.9267 N   0  0  0  0  0  0  0  0  0  0  0  0
  -24.0456  -30.8981   22.7739 N   0  0  0  0  0  0  0  0  0  0  0  0
  -31.4360   -9.9962   21.6374 N   0  0  0  0  0  0  0  0  0  0  0  0
  -29.3478   -6.1751   22.8351 N   0  0  0  0  0  0  0  0  0  0  0  0
  -25.7047  -33.8551   23.8845 N   0  0  0  0  0  0  0  0  0  0  0  0
  -20.9675  -29.4992   22.6114 N   0  0  0  0  0  0  0  0  0  0  0  0
  -20.2881  -27.5579   19.6386 N   0  3  0  0  0  0  0  0  0  0  0  0
  -31.3544   -7.2851   22.8539 O   0  0  0  0  0  0  0  0  0  0  0  0
  -27.6403  -14.9996   21.8888 O   0  0  0  0  0  0  0  0  0  0  0  0
  -25.8747  -31.6283   24.5440 O   0  0  0  0  0  0  0  0  0  0  0  0
  -22.0698  -32.1147   23.0019 O   0  0  0  0  0  0  0  0  0  0  0  0
  -21.9138  -27.4935   21.9341 O   0  0  0  0  0  0  0  0  0  0  0  0
  -23.9673   -4.9724   22.0355 O   0  0  0  0  0  0  0  0  0  0  0  0
  -28.6988  -27.0055   21.6564 O   0  0  0  0  0  0  0  0  0  1  0  0
  -29.2328  -22.6563   18.9546 O   0  0  0  0  0  0  0  0  0  0  0  0
  -23.3950   -2.4427   26.9014 F   0  0  0  0  0  0  0  0  0  0  0  0
  -21.6551   -5.2642   23.5225 F   0  0  0  0  0  0  0  0  0  0  0  0
  1  2  1  0  0  0  0
  1  6  2  0  0  0  0
  2  7  2  0  0  0  0
  3  9  2  0  0  0  0
  3 17  1  0  0  0  0
  4 10  1  0  0  0  0
  4 17  2  0  0  0  0
  5 11  1  0  0  0  0
  5 18  2  0  0  0  0
  6 21  1  0  0  0  0
  7 23  1  0  0  0  0
  8 12  2  0  0  0  0
  8 22  1  0  0  0  0
  9 26  1  0  0  0  0
 10 26  2  0  0  0  0
 11 28  2  0  0  0  0
 12 27  1  0  0  0  0
 13 14  2  0  0  0  0
 13 29  1  0  0  0  0
 14 30  1  0  0  0  0
 15 24  1  0  0  0  0
 15 27  2  0  0  0  0
 16 30  2  0  0  0  0
 16 31  1  0  0  0  0
 17 32  1  0  0  0  0
 18 25  1  0  0  0  0
 18 34  1  0  0  0  0
 19 25  2  0  0  0  0
 19 28  1  0  0  0  0
 19 35  1  0  0  0  0
 20 32  1  0  0  0  0
 20 33  2  0  0  0  0
 20 38  1  0  0  0  0
 21 23  2  0  0  0  0
 21 43  1  0  0  0  0
 22 24  2  0  0  0  0
 22 44  1  0  0  0  0
 23 52  1  0  0  0  0
 24 45  1  0  0  0  0
 25 62  1  0  0  0  0
 26 84  1  0  0  0  0
 27 85  1  0  0  0  0
 28 86  1  0  0  0  0
 29 31  2  0  0  0  0
 29 84  1  0  0  0  0
 30 87  1  0  0  0  0
 31 88  1  0  0  0  0
 32 70  2  0  0  0  0
 33 71  1  0  0  0  0
 33 74  1  0  0  0  0
 34 36  2  0  0  0  0
 35 37  2  0  0  0  0
 36 39  1  0  0  0  0
 37 55  1  0  0  0  0
 38 75  1  0  0  0  0
 38 79  2  0  0  0  0
 39 72  1  0  0  0  0
 39 80  2  0  0  0  0
 40 53  1  0  0  0  0
 40 76  1  0  0  0  0
 40 81  2  0  0  0  0
 41 67  1  0  0  0  0
 41 73  1  0  0  0  0
 41 82  2  0  0  0  0
 42 68  1  0  0  0  0
 42 77  1  0  0  0  0
 42 83  2  0  0  0  0
 43 46  1  0  0  0  0
 44 53  1  0  0  0  0
 45 73  1  0  0  0  0
 46 48  1  0  0  0  0
 47 49  1  0  0  0  0
 47 50  1  0  0  0  0
 48 52  1  0  0  0  0
 49 54  1  0  0  0  0
 50 72  1  0  0  0  0
 51 54  1  0  0  0  0
 51 72  1  0  0  0  0
 52 76  1  0  0  0  0
 53 73  1  0  0  0  0
 54 71  1  0  0  0  0
 56 62  1  0  0  0  0
 57 68  1  0  0  0  0
 58 69  1  0  0  0  0
 59 69  1  0  0  0  0
 60 69  1  0  0  0  0
 61 78  1  0  0  0  0
 63 64  1  0  0  0  0
 63 65  1  0  0  0  0
 64 66  1  0  0  0  0
 65 85  1  0  0  0  0
 66 86  1  0  0  0  0
 67 69  1  0  0  0  0
 67 77  1  0  0  0  0
 68 78  1  0  0  0  0
 70 71  1  0  0  0  0
M  CHG  1  78   1
M  ISO  4  36 100  39 100  65 101  85 101
M  END
> <Batch ID>
0121

> <Smiles>
CC=Cc1c(OCCC[101CH2:1][101O:1]c2ccc3c(c2)CN(C(=O)C(NC(=O)C(C)NC)C(C)(C)C)C(C(=O)NC2CCCc4ccccc42)C3)ccc(C=[100CH:0][100C:0](=O)N2CCCC(n3nc(-c4ccc(Oc5ccc(F)cc5F)cc4)c(C(N)=O)c3N)C2)c1CC

> <Shape>
0.284

> <Color>
0.070

> <Negative vol penalty>
0.000

$$$$

  -OEChem-04052301573D

 85 93  0     1  0  0  0  0  0999 V2000
  -23.8209  -28.0479   17.7573 C   0  0  0  0  0  0  0  0  0  0  0  0
  -24.0247  -27.3144   18.9217 C   0  0  0  0  0  0  0  0  0  0  0  0
  -23.0969   -9.8101   19.9325 C   0  0  0  0  0  0  0  0  0  0  0  0
  -23.8087   -9.8633   22.2407 C   0  0  0  0  0  0  0  0  0  0  0  0
  -23.3899  -29.3716   17.8351 C   0  0  0  0  0  0  0  0  0  0  0  0
  -23.7985  -27.9045   20.1647 C   0  0  0  0  0  0  0  0  0  0  0  0
  -21.2262  -24.8828   23.3107 C   0  0  0  0  0  0  0  0  0  0  0  0
  -22.3755   -8.6426   20.1819 C   0  0  0  0  0  0  0  0  0  0  0  0
  -23.0873   -8.6959   22.4901 C   0  0  0  0  0  0  0  0  0  0  0  0
  -21.9381  -23.8590   23.9343 C   0  0  0  0  0  0  0  0  0  0  0  0
  -23.4682   -5.3752   21.9811 C   0  0  0  0  0  0  0  0  0  0  0  0
  -24.0928   -4.3738   22.7245 C   0  0  0  0  0  0  0  0  0  0  0  0
  -29.6512  -17.5993   23.1719 C   0  0  0  0  0  0  0  0  0  0  0  0
  -31.5806  -18.5598   24.2636 C   0  0  0  0  0  0  0  0  0  0  0  0
  -22.0929  -25.1948   25.9370 C   0  0  0  0  0  0  0  0  0  0  0  0
  -31.8661  -16.7952   22.6383 C   0  0  0  0  0  0  0  0  0  0  0  0
  -22.3527   -4.5275   24.3936 C   0  0  0  0  0  0  0  0  0  0  0  0
  -23.8136  -10.4204   20.9619 C   0  0  0  0  0  0  0  0  0  0  0  0
  -30.1991  -18.5076   24.0776 C   0  0  0  0  0  0  0  0  0  0  0  0
  -24.0980  -12.9514   20.8168 C   0  0  0  0  0  0  0  0  0  0  0  0
  -23.1490  -29.9752   19.0794 C   0  0  0  0  0  0  0  0  0  0  0  0
  -20.9513  -26.0766   23.9931 C   0  0  0  0  0  0  0  0  0  0  0  0
  -23.3651  -29.2379   20.2593 C   0  0  0  0  0  0  0  0  0  0  0  0
  -21.3752  -26.2312   25.3207 C   0  0  0  0  0  0  0  0  0  0  0  0
  -30.4847  -16.7430   22.4523 C   0  0  0  0  0  0  0  0  0  0  0  0
  -22.3707   -8.0855   21.4607 C   0  0  0  0  0  0  0  0  0  0  0  0
  -22.3741  -24.0161   25.2467 C   0  0  0  0  0  0  0  0  0  0  0  0
  -22.2859   -5.9529   22.4440 C   0  0  0  0  0  0  0  0  0  0  0  0
  -23.5350   -3.9499   23.9307 C   0  0  0  0  0  0  0  0  0  0  0  0
  -32.4141  -17.7036   23.5439 C   0  0  0  0  0  0  0  0  0  0  0  0
  -21.7282   -5.5290   23.6502 C   0  0  0  0  0  0  0  0  0  0  0  0
  -24.5595  -11.6261   20.7048 C   0  0  0  0  0  0  0  0  0  0  0  0
  -25.1794  -13.7222   20.4664 C   0  0  0  0  0  0  0  0  0  0  0  0
  -29.3199  -19.4107   24.8379 C   0  0  0  0  0  0  0  0  0  0  0  0
  -28.0077  -19.2185   25.0445 C   0  0  0  0  0  0  0  0  0  0  0  0
  -22.8073  -13.4418   21.2031 C   0  0  0  0  0  0  0  0  0  0  0  0
  -21.7102  -29.1330   23.5613 C   0  0  0  0  0  0  0  0  0  0  0  0
  -25.0709  -21.6547   25.7901 C   0  0  0  0  0  0  0  0  0  0  0  0
  -19.6885  -29.5839   26.0575 C   0  0  0  0  0  0  0  0  0  0  0  0
  -18.1661  -28.2881   28.8234 C   0  0  0  0  0  0  0  0  0  0  0  0
  -30.6146  -14.9003   20.7394 C   0  0  0  0  0  0  0  0  0  0  0  0
  -22.7293  -31.4234   19.1146 C   0  0  0  0  0  0  0  0  0  0  0  0
  -20.1592  -27.1608   23.3152 C   0  0  0  0  0  0  0  0  0  0  0  0
  -21.0882  -27.4853   26.1038 C   0  0  0  0  0  0  0  0  0  0  0  0
  -22.1525  -31.8579   20.4595 C   0  0  0  0  0  0  0  0  0  0  0  0
  -29.6069  -12.4317   18.3798 C   0  0  0  0  0  0  0  0  0  0  0  0
  -23.0352  -31.3669   21.6026 C   0  0  0  0  0  0  0  0  0  0  0  0
  -28.1660  -12.1111   18.7835 C   0  0  0  0  0  0  0  0  0  0  0  0
  -30.4912  -12.6971   19.5969 C   0  0  0  0  0  0  0  0  0  0  0  0
  -28.5395  -13.3926   20.9296 C   0  0  0  0  0  0  0  0  0  0  0  0
  -23.1068  -29.8352   21.6255 C   0  0  1  0  0  0  0  0  0  0  0  0
  -20.3814  -28.5381   23.9325 C   0  0  1  0  0  0  0  0  0  0  0  0
  -27.5956  -13.1817   19.7344 C   0  0  2  0  0  0  0  0  0  0  0  0
  -16.5983  -28.9088   30.6819 C   0  0  0  0  0  0  0  0  0  0  0  0
  -21.9374  -31.1132   27.4408 C   0  0  0  0  0  0  0  0  0  0  0  0
  -20.6805  -30.8763   29.5931 C   0  0  0  0  0  0  0  0  0  0  0  0
  -19.6700  -32.1379   27.6930 C   0  0  0  0  0  0  0  0  0  0  0  0
  -16.1872  -26.2512   27.9904 C   0  0  0  0  0  0  0  0  0  0  0  0
  -27.1469  -20.1632   25.8380 C   0  0  0  0  0  0  0  0  0  0  0  0
  -25.9960  -20.7327   25.0088 C   0  0  0  0  0  0  0  0  0  0  0  0
  -23.8732  -22.1832   25.0253 C   0  0  0  0  0  0  0  0  0  1  0  0
  -19.8355  -29.6186   27.5596 C   0  0  1  0  0  0  0  0  0  0  0  0
  -16.7204  -28.3195   29.2853 C   0  0  2  0  0  0  0  0  0  0  0  0
  -20.5381  -30.9135   28.0565 C   0  0  0  0  0  0  0  0  0  0  0  0
  -25.8346  -11.5554   20.3137 N   0  0  0  0  0  0  0  0  0  0  0  0
  -26.1837  -12.8460   20.1768 N   0  0  0  0  0  0  0  0  0  0  0  0
  -20.3157  -28.5191   25.3953 N   0  0  0  0  0  0  0  0  0  0  0  0
  -29.8900  -13.7249   20.4495 N   0  0  0  0  0  0  0  0  0  0  0  0
  -25.3598  -15.0574   20.3808 N   0  0  0  0  0  0  0  0  0  0  0  0
  -21.8104  -12.5128   21.5311 N   0  0  0  0  0  0  0  0  0  0  0  0
  -29.9287  -15.8196   21.5326 N   0  0  0  0  0  0  0  0  0  0  0  0
  -21.8998  -29.2814   22.2006 N   0  0  0  0  0  0  0  0  0  0  0  0
  -18.4976  -29.4176   28.1055 N   0  0  0  0  0  0  0  0  0  0  0  0
  -16.1530  -26.9415   29.3054 N   0  3  0  0  0  0  0  0  0  0  0  0
  -22.5408  -14.6670   21.2399 O   0  0  0  0  0  0  0  0  0  0  0  0
  -22.5042  -29.4364   24.4440 O   0  0  0  0  0  0  0  0  0  0  0  0
  -25.2602  -21.9390   26.9716 O   0  0  0  0  0  0  0  0  0  0  0  0
  -19.0349  -30.4649   25.4934 O   0  0  0  0  0  0  0  0  0  0  0  0
  -18.9265  -27.3565   29.0776 O   0  0  0  0  0  0  0  0  0  0  0  0
  -31.7488  -15.0903   20.2929 O   0  0  0  0  0  0  0  0  0  0  0  0
  -21.6666   -6.9465   21.7044 O   0  0  0  0  0  0  0  0  0  0  0  0
  -23.0696  -23.0186   25.8576 O   0  0  0  0  0  0  0  0  0  1  0  0
  -24.1341   -2.9871   24.6437 F   0  0  0  0  0  0  0  0  0  0  0  0
  -33.7405  -17.7515   23.7242 F   0  0  0  0  0  0  0  0  0  0  0  0
  -20.5919   -6.0794   24.0994 F   0  0  0  0  0  0  0  0  0  0  0  0
  1  2  1  0  0  0  0
  1  5  2  0  0  0  0
  2  6  2  0  0  0  0
  3  8  2  0  0  0  0
  3 18  1  0  0  0  0
  4  9  1  0  0  0  0
  4 18  2  0  0  0  0
  5 21  1  0  0  0  0
  6 23  1  0  0  0  0
  7 10  2  0  0  0  0
  7 22  1  0  0  0  0
  8 26  1  0  0  0  0
  9 26  2  0  0  0  0
 10 27  1  0  0  0  0
 11 12  2  0  0  0  0
 11 28  1  0  0  0  0
 12 29  1  0  0  0  0
 13 19  2  0  0  0  0
 13 25  1  0  0  0  0
 14 19  1  0  0  0  0
 14 30  2  0  0  0  0
 15 24  1  0  0  0  0
 15 27  2  0  0  0  0
 16 25  2  0  0  0  0
 16 30  1  0  0  0  0
 17 29  2  0  0  0  0
 17 31  1  0  0  0  0
 18 32  1  0  0  0  0
 19 34  1  0  0  0  0
 20 32  1  0  0  0  0
 20 33  2  0  0  0  0
 20 36  1  0  0  0  0
 21 23  2  0  0  0  0
 21 42  1  0  0  0  0
 22 24  2  0  0  0  0
 22 43  1  0  0  0  0
 23 51  1  0  0  0  0
 24 44  1  0  0  0  0
 25 71  1  0  0  0  0
 26 81  1  0  0  0  0
 27 82  1  0  0  0  0
 28 31  2  0  0  0  0
 28 81  1  0  0  0  0
 29 83  1  0  0  0  0
 30 84  1  0  0  0  0
 31 85  1  0  0  0  0
 32 65  2  0  0  0  0
 33 66  1  0  0  0  0
 33 69  1  0  0  0  0
 34 35  2  0  0  0  0
 35 59  1  0  0  0  0
 36 70  1  0  0  0  0
 36 75  2  0  0  0  0
 37 52  1  0  0  0  0
 37 72  1  0  0  0  0
 37 76  2  0  0  0  0
 38 60  1  0  0  0  0
 38 61  1  0  0  0  0
 38 77  2  0  0  0  0
 39 62  1  0  0  0  0
 39 67  1  0  0  0  0
 39 78  2  0  0  0  0
 40 63  1  0  0  0  0
 40 73  1  0  0  0  0
 40 79  2  0  0  0  0
 41 68  1  0  0  0  0
 41 71  1  0  0  0  0
 41 80  2  0  0  0  0
 42 45  1  0  0  0  0
 43 52  1  0  0  0  0
 44 67  1  0  0  0  0
 45 47  1  0  0  0  0
 46 48  1  0  0  0  0
 46 49  1  0  0  0  0
 47 51  1  0  0  0  0
 48 53  1  0  0  0  0
 49 68  1  0  0  0  0
 50 53  1  0  0  0  0
 50 68  1  0  0  0  0
 51 72  1  0  0  0  0
 52 67  1  0  0  0  0
 53 66  1  0  0  0  0
 54 63  1  0  0  0  0
 55 64  1  0  0  0  0
 56 64  1  0  0  0  0
 57 64  1  0  0  0  0
 58 74  1  0  0  0  0
 59 60  1  0  0  0  0
 61 82  1  0  0  0  0
 62 64  1  0  0  0  0
 62 73  1  0  0  0  0
 63 74  1  0  0  0  0
 65 66  1  0  0  0  0
M  CHG  1  74   1
M  ISO  4  41 100  61 101  71 100  82 101
M  END
> <Batch ID>
0121

> <Smiles>
CNC(C)C(=O)NC(C(=O)N1Cc2cc([101O:1][101CH2:1]C(=O)CCC=Cc3cc(F)cc([100NH:0][100C:0](=O)N4CCCC(n5nc(-c6ccc(Oc7ccc(F)cc7F)cc6)c(C(N)=O)c5N)C4)c3)ccc2CC1C(=O)NC1CCCc2ccccc21)C(C)(C)C

> <Shape>
0.252

> <Color>
0.220

> <Negative vol penalty>
0.000

$$$$

  -OEChem-04052301573D

 85 93  0     1  0  0  0  0  0999 V2000
  -26.6375  -37.2325   22.9806 C   0  0  0  0  0  0  0  0  0  0  0  0
  -27.2810  -36.0997   22.4927 C   0  0  0  0  0  0  0  0  0  0  0  0
  -24.0494   -6.5956   22.8970 C   0  0  0  0  0  0  0  0  0  0  0  0
  -21.7536   -7.2272   23.3066 C   0  0  0  0  0  0  0  0  0  0  0  0
  -25.5473  -37.0982   23.8392 C   0  0  0  0  0  0  0  0  0  0  0  0
  -26.8352  -34.8317   22.8642 C   0  0  0  0  0  0  0  0  0  0  0  0
  -26.8398  -29.7711   19.4151 C   0  0  0  0  0  0  0  0  0  0  0  0
  -23.9204   -5.5407   23.8004 C   0  0  0  0  0  0  0  0  0  0  0  0
  -21.6246   -6.1723   24.2100 C   0  0  0  0  0  0  0  0  0  0  0  0
  -27.7132  -28.6869   19.3415 C   0  0  0  0  0  0  0  0  0  0  0  0
  -20.5820   -3.4272   26.3538 C   0  0  0  0  0  0  0  0  0  0  0  0
  -19.4322   -2.6416   26.2747 C   0  0  0  0  0  0  0  0  0  0  0  0
  -27.0096  -19.9921   18.3925 C   0  0  0  0  0  0  0  0  0  0  0  0
  -28.7207  -18.0039   19.3421 C   0  0  0  0  0  0  0  0  0  0  0  0
  -26.2884  -27.4449   20.8403 C   0  0  0  0  0  0  0  0  0  0  0  0
  -19.9987   -2.0411   24.0041 C   0  0  0  0  0  0  0  0  0  0  0  0
  -22.9660   -7.4388   22.6501 C   0  0  0  0  0  0  0  0  0  0  0  0
  -28.2799  -20.3298   18.8593 C   0  0  0  0  0  0  0  0  0  0  0  0
  -27.4504  -17.6662   18.8752 C   0  0  0  0  0  0  0  0  0  0  0  0
  -22.8435   -8.4995   20.3332 C   0  0  0  0  0  0  0  0  0  0  0  0
  -25.0819  -35.8278   24.2137 C   0  0  0  0  0  0  0  0  0  0  0  0
  -25.6877  -29.7041   20.2119 C   0  0  0  0  0  0  0  0  0  0  0  0
  -25.7386  -34.6802   23.7297 C   0  0  0  0  0  0  0  0  0  0  0  0
  -25.4006  -28.5287   20.9203 C   0  0  0  0  0  0  0  0  0  0  0  0
  -29.1354  -19.3357   19.3341 C   0  0  0  0  0  0  0  0  0  0  0  0
  -26.5948  -18.6603   18.4005 C   0  0  0  0  0  0  0  0  0  0  0  0
  -22.7080   -5.3291   24.4569 C   0  0  0  0  0  0  0  0  0  0  0  0
  -27.4391  -27.5247   20.0564 C   0  0  0  0  0  0  0  0  0  0  0  0
  -21.4402   -3.5199   25.2581 C   0  0  0  0  0  0  0  0  0  0  0  0
  -19.1406   -1.9485   25.0999 C   0  0  0  0  0  0  0  0  0  0  0  0
  -21.1485   -2.8268   24.0832 C   0  0  0  0  0  0  0  0  0  0  0  0
  -23.0988   -8.5290   21.7173 C   0  0  0  0  0  0  0  0  0  0  0  0
  -23.1176   -9.7758   19.9062 C   0  0  0  0  0  0  0  0  0  0  0  0
  -28.6887  -21.7454   18.8383 C   0  0  0  0  0  0  0  0  0  0  0  0
  -27.0464  -16.2665   18.8949 C   0  0  0  0  0  0  0  0  0  0  0  0
  -28.0440  -22.7333   19.4745 C   0  0  0  0  0  0  0  0  0  0  0  0
  -26.9442  -15.4989   19.9991 C   0  0  0  0  0  0  0  0  0  0  0  0
  -22.3983   -7.4153   19.5074 C   0  0  0  0  0  0  0  0  0  0  0  0
  -28.5353  -24.1389   19.3816 C   0  0  0  0  0  0  0  0  0  0  0  0
  -26.5103  -14.0946   19.8557 C   0  0  0  0  0  0  0  0  0  0  0  0
  -24.6130  -31.3028   22.7403 C   0  0  0  0  0  0  0  0  0  0  0  0
  -21.9534  -29.5103   22.2551 C   0  0  0  0  0  0  0  0  0  0  0  0
  -20.5701  -26.6681   20.9685 C   0  0  0  0  0  0  0  0  0  0  0  0
  -23.9293  -35.7333   25.1818 C   0  0  0  0  0  0  0  0  0  0  0  0
  -24.7418  -30.8726   20.2595 C   0  0  0  0  0  0  0  0  0  0  0  0
  -24.1666  -28.3987   21.7741 C   0  0  0  0  0  0  0  0  0  0  0  0
  -23.2855  -34.3499   25.2292 C   0  0  0  0  0  0  0  0  0  0  0  0
  -23.9713  -14.0169   22.4975 C   0  0  0  0  0  0  0  0  0  0  0  0
  -24.3551  -33.2662   25.3211 C   0  0  0  0  0  0  0  0  0  0  0  0
  -23.5335  -12.5557   22.4412 C   0  0  0  0  0  0  0  0  0  0  0  0
  -25.4566  -14.1814   22.1792 C   0  0  0  0  0  0  0  0  0  0  0  0
  -25.4212  -12.1073   20.8238 C   0  0  0  0  0  0  0  0  0  0  0  0
  -25.2691  -33.2874   24.0900 C   0  0  1  0  0  0  0  0  0  0  0  0
  -23.8646  -30.8807   21.5077 C   0  0  1  0  0  0  0  0  0  0  0  0
  -23.9198  -11.9233   21.0947 C   0  0  1  0  0  0  0  0  0  0  0  0
  -30.5035  -19.6608   19.8416 C   0  0  0  0  0  0  0  0  0  0  0  0
  -25.2271  -18.3346   17.8925 C   0  0  0  0  0  0  0  0  0  0  0  0
  -18.3786  -25.4632   20.7613 C   0  0  0  0  0  0  0  0  0  0  0  0
  -22.1550  -28.6464   25.1745 C   0  0  0  0  0  0  0  0  0  0  0  0
  -20.5765  -26.7733   24.6567 C   0  0  0  0  0  0  0  0  0  0  0  0
  -19.8319  -29.1392   24.3905 C   0  0  0  0  0  0  0  0  0  0  0  0
  -20.6508  -26.7890   18.0126 C   0  0  0  0  0  0  0  0  0  0  0  0
  -27.7233  -25.1651   20.1433 C   0  0  0  0  0  0  0  0  0  1  0  0
  -21.4713  -28.1617   22.7325 C   0  0  1  0  0  0  0  0  0  0  0  0
  -19.3380  -26.4470   20.1098 C   0  0  2  0  0  0  0  0  0  0  0  0
  -21.0330  -28.1830   24.2241 C   0  0  0  0  0  0  0  0  0  0  0  0
  -23.5041   -9.7290   22.1414 N   0  0  0  0  0  0  0  0  0  0  0  0
  -23.5056  -10.4653   21.0171 N   0  0  0  0  0  0  0  0  0  0  0  0
  -25.8130  -13.5182   20.9159 N   0  0  0  0  0  0  0  0  0  0  0  0
  -23.2758  -29.5708   21.7933 N   0  0  0  0  0  0  0  0  0  0  0  0
  -23.0622  -10.3643   18.6925 N   0  0  0  0  0  0  0  0  0  0  0  0
  -22.1638   -6.1707   20.1078 N   0  0  0  0  0  0  0  0  0  0  0  0
  -24.6103  -32.6669   22.9606 N   0  0  0  0  0  0  0  0  0  0  0  0
  -20.4205  -27.7527   21.8067 N   0  0  0  0  0  0  0  0  0  0  0  0
  -19.7265  -25.9105   18.7748 N   0  3  0  0  0  0  0  0  0  0  0  0
  -22.2297   -7.5419   18.2709 O   0  0  0  0  0  0  0  0  0  0  0  0
  -29.5321  -24.4398   18.7305 O   0  0  0  0  0  0  0  0  0  0  0  0
  -26.7964  -13.5153   18.8063 O   0  0  0  0  0  0  0  0  0  0  0  0
  -25.1518  -30.4536   23.4405 O   0  0  0  0  0  0  0  0  0  0  0  0
  -21.1826  -30.4730   22.2840 O   0  0  0  0  0  0  0  0  0  0  0  0
  -21.5642  -25.9482   20.9050 O   0  0  0  0  0  0  0  0  0  0  0  0
  -22.5817   -4.2997   25.3384 O   0  0  0  0  0  0  0  0  0  0  0  0
  -28.2904  -26.4652   19.9869 O   0  0  0  0  0  0  0  0  0  1  0  0
  -18.0372   -1.1928   25.0246 F   0  0  0  0  0  0  0  0  0  0  0  0
  -21.9698   -2.9110   23.0276 F   0  0  0  0  0  0  0  0  0  0  0  0
  1  2  1  0  0  0  0
  1  5  2  0  0  0  0
  2  6  2  0  0  0  0
  3  8  2  0  0  0  0
  3 17  1  0  0  0  0
  4  9  1  0  0  0  0
  4 17  2  0  0  0  0
  5 21  1  0  0  0  0
  6 23  1  0  0  0  0
  7 10  2  0  0  0  0
  7 22  1  0  0  0  0
  8 27  1  0  0  0  0
  9 27  2  0  0  0  0
 10 28  1  0  0  0  0
 11 12  2  0  0  0  0
 11 29  1  0  0  0  0
 12 30  1  0  0  0  0
 13 18  1  0  0  0  0
 13 26  2  0  0  0  0
 14 19  2  0  0  0  0
 14 25  1  0  0  0  0
 15 24  1  0  0  0  0
 15 28  2  0  0  0  0
 16 30  2  0  0  0  0
 16 31  1  0  0  0  0
 17 32  1  0  0  0  0
 18 25  2  0  0  0  0
 18 34  1  0  0  0  0
 19 26  1  0  0  0  0
 19 35  1  0  0  0  0
 20 32  1  0  0  0  0
 20 33  2  0  0  0  0
 20 38  1  0  0  0  0
 21 23  2  0  0  0  0
 21 44  1  0  0  0  0
 22 24  2  0  0  0  0
 22 45  1  0  0  0  0
 23 53  1  0  0  0  0
 24 46  1  0  0  0  0
 25 56  1  0  0  0  0
 26 57  1  0  0  0  0
 27 82  1  0  0  0  0
 28 83  1  0  0  0  0
 29 31  2  0  0  0  0
 29 82  1  0  0  0  0
 30 84  1  0  0  0  0
 31 85  1  0  0  0  0
 32 67  2  0  0  0  0
 33 68  1  0  0  0  0
 33 71  1  0  0  0  0
 34 36  2  0  0  0  0
 35 37  2  0  0  0  0
 36 39  1  0  0  0  0
 37 40  1  0  0  0  0
 38 72  1  0  0  0  0
 38 76  2  0  0  0  0
 39 63  1  0  0  0  0
 39 77  2  0  0  0  0
 40 69  1  0  0  0  0
 40 78  2  0  0  0  0
 41 54  1  0  0  0  0
 41 73  1  0  0  0  0
 41 79  2  0  0  0  0
 42 64  1  0  0  0  0
 42 70  1  0  0  0  0
 42 80  2  0  0  0  0
 43 65  1  0  0  0  0
 43 74  1  0  0  0  0
 43 81  2  0  0  0  0
 44 47  1  0  0  0  0
 45 54  1  0  0  0  0
 46 70  1  0  0  0  0
 47 49  1  0  0  0  0
 48 50  1  0  0  0  0
 48 51  1  0  0  0  0
 49 53  1  0  0  0  0
 50 55  1  0  0  0  0
 51 69  1  0  0  0  0
 52 55  1  0  0  0  0
 52 69  1  0  0  0  0
 53 73  1  0  0  0  0
 54 70  1  0  0  0  0
 55 68  1  0  0  0  0
 58 65  1  0  0  0  0
 59 66  1  0  0  0  0
 60 66  1  0  0  0  0
 61 66  1  0  0  0  0
 62 75  1  0  0  0  0
 63 83  1  0  0  0  0
 64 66  1  0  0  0  0
 64 74  1  0  0  0  0
 65 75  1  0  0  0  0
 67 68  1  0  0  0  0
M  CHG  1  75   1
M  ISO  4  37 100  40 100  63 101  83 101
M  END
> <Batch ID>
0121

> <Smiles>
CNC(C)C(=O)NC(C(=O)N1Cc2cc([101O:1][101CH2:1]C(=O)C=Cc3cc(C)c(C=[100CH:0][100C:0](=O)N4CCCC(n5nc(-c6ccc(Oc7ccc(F)cc7F)cc6)c(C(N)=O)c5N)C4)cc3C)ccc2CC1C(=O)NC1CCCc2ccccc21)C(C)(C)C

> <Shape>
0.342

> <Color>
0.075

> <Negative vol penalty>
0.000

$$$$

  -OEChem-04052301573D

 83 91  0     1  0  0  0  0  0999 V2000
  -27.3164  -34.1886   25.0003 C   0  0  0  0  0  0  0  0  0  0  0  0
  -27.6160  -32.9206   24.5126 C   0  0  0  0  0  0  0  0  0  0  0  0
  -24.8067   -8.9857   21.4906 C   0  0  0  0  0  0  0  0  0  0  0  0
  -23.1426  -10.6787   21.0418 C   0  0  0  0  0  0  0  0  0  0  0  0
  -26.0122  -34.4957   25.3857 C   0  0  0  0  0  0  0  0  0  0  0  0
  -26.6117  -31.9586   24.4112 C   0  0  0  0  0  0  0  0  0  0  0  0
  -26.7513  -29.4613   20.0078 C   0  0  0  0  0  0  0  0  0  0  0  0
  -24.6036  -19.6451   19.9181 C   0  0  0  0  0  0  0  0  0  0  0  0
  -25.2075  -18.4196   19.6372 C   0  0  0  0  0  0  0  0  0  0  0  0
  -23.9473   -8.3847   22.4103 C   0  0  0  0  0  0  0  0  0  0  0  0
  -22.2831  -10.0777   21.9614 C   0  0  0  0  0  0  0  0  0  0  0  0
  -27.7131  -28.4610   19.8733 C   0  0  0  0  0  0  0  0  0  0  0  0
  -21.2474   -6.3505   22.3360 C   0  0  0  0  0  0  0  0  0  0  0  0
  -21.1143   -4.9629   22.2880 C   0  0  0  0  0  0  0  0  0  0  0  0
  -27.2619  -19.2022   20.6393 C   0  0  0  0  0  0  0  0  0  0  0  0
  -26.0350  -26.7928   20.3425 C   0  0  0  0  0  0  0  0  0  0  0  0
  -21.9176   -4.8072   24.5612 C   0  0  0  0  0  0  0  0  0  0  0  0
  -24.4044  -10.1327   20.8064 C   0  0  0  0  0  0  0  0  0  0  0  0
  -26.6580  -20.4278   20.9202 C   0  0  0  0  0  0  0  0  0  0  0  0
  -25.3874  -10.4830   18.4786 C   0  0  0  0  0  0  0  0  0  0  0  0
  -24.9894  -33.5400   25.2799 C   0  0  0  0  0  0  0  0  0  0  0  0
  -25.4241  -29.1351   20.3219 C   0  0  0  0  0  0  0  0  0  0  0  0
  -25.2929  -32.2528   24.7968 C   0  0  0  0  0  0  0  0  0  0  0  0
  -25.0577  -27.7907   20.4779 C   0  0  0  0  0  0  0  0  0  0  0  0
  -25.3289  -20.6493   20.5596 C   0  0  0  0  0  0  0  0  0  0  0  0
  -26.5366  -18.1981   19.9978 C   0  0  0  0  0  0  0  0  0  0  0  0
  -22.6855   -8.9307   22.6457 C   0  0  0  0  0  0  0  0  0  0  0  0
  -27.3556  -27.1267   20.0435 C   0  0  0  0  0  0  0  0  0  0  0  0
  -21.7156   -6.9666   23.4965 C   0  0  0  0  0  0  0  0  0  0  0  0
  -21.4493   -4.1912   23.4006 C   0  0  0  0  0  0  0  0  0  0  0  0
  -22.0507   -6.1949   24.6092 C   0  0  0  0  0  0  0  0  0  0  0  0
  -25.2919  -10.7543   19.8567 C   0  0  0  0  0  0  0  0  0  0  0  0
  -26.3700  -11.3309   18.0290 C   0  0  0  0  0  0  0  0  0  0  0  0
  -27.4506  -21.4675   21.5977 C   0  0  0  0  0  0  0  0  0  0  0  0
  -28.5694  -22.0279   21.1120 C   0  0  0  0  0  0  0  0  0  0  0  0
  -24.6534   -9.5483   17.6766 C   0  0  0  0  0  0  0  0  0  0  0  0
  -23.4667  -29.7850   22.7406 C   0  0  0  0  0  0  0  0  0  0  0  0
  -21.2849  -28.2829   20.8682 C   0  0  0  0  0  0  0  0  0  0  0  0
  -20.6655  -26.0578   18.3558 C   0  0  0  0  0  0  0  0  0  0  0  0
  -28.4588  -16.5697   20.0028 C   0  0  0  0  0  0  0  0  0  0  0  0
  -23.6043  -33.9035   25.7533 C   0  0  0  0  0  0  0  0  0  0  0  0
  -24.3929  -30.2240   20.4372 C   0  0  0  0  0  0  0  0  0  0  0  0
  -23.6421  -27.3863   20.7958 C   0  0  0  0  0  0  0  0  0  0  0  0
  -22.5219  -32.9454   25.2627 C   0  0  0  0  0  0  0  0  0  0  0  0
  -30.3321  -13.5843   19.4979 C   0  0  0  0  0  0  0  0  0  0  0  0
  -22.9612  -31.4979   25.4595 C   0  0  0  0  0  0  0  0  0  0  0  0
  -29.2606  -12.4959   19.4011 C   0  0  0  0  0  0  0  0  0  0  0  0
  -29.9596  -14.6577   20.5191 C   0  0  0  0  0  0  0  0  0  0  0  0
  -27.5614  -14.1705   20.2352 C   0  0  0  0  0  0  0  0  0  0  0  0
  -24.2257  -31.1900   24.6486 C   0  0  1  0  0  0  0  0  0  0  0  0
  -23.1798  -29.8128   21.2659 C   0  0  1  0  0  0  0  0  0  0  0  0
  -27.8617  -13.1011   19.1722 C   0  0  2  0  0  0  0  0  0  0  0  0
  -24.6496  -21.9502   20.8447 C   0  0  0  0  0  0  0  0  0  0  0  0
  -18.7805  -25.0104   17.0723 C   0  0  0  0  0  0  0  0  0  0  0  0
  -20.6715  -26.4755   23.2487 C   0  0  0  0  0  0  0  0  0  0  0  0
  -19.5312  -24.9013   21.6708 C   0  0  0  0  0  0  0  0  0  0  0  0
  -18.6621  -27.2216   21.9603 C   0  0  0  0  0  0  0  0  0  0  0  0
  -21.6345  -27.1771   15.7931 C   0  0  0  0  0  0  0  0  0  0  0  0
  -29.3438  -23.0909   21.8386 C   0  0  0  0  0  0  0  0  0  0  0  0
  -29.4693  -24.3585   20.9954 C   0  0  0  0  0  0  0  0  0  0  0  0
  -28.1068  -24.9642   20.6876 C   0  0  0  0  0  0  0  0  0  1  0  0
  -20.8228  -26.8557   20.6995 C   0  0  1  0  0  0  0  0  0  0  0  0
  -19.7855  -26.1506   17.1223 C   0  0  2  0  0  0  0  0  0  0  0  0
  -19.9491  -26.3710   21.8908 C   0  0  0  0  0  0  0  0  0  0  0  0
  -26.1459  -11.7004   20.2563 N   0  0  0  0  0  0  0  0  0  0  0  0
  -26.7873  -12.0309   19.1226 N   0  0  0  0  0  0  0  0  0  0  0  0
  -22.6714  -28.4879   20.9048 N   0  0  0  0  0  0  0  0  0  0  0  0
  -28.6241  -15.1882   20.2368 N   0  0  0  0  0  0  0  0  0  0  0  0
  -26.9091  -11.5383   16.8089 N   0  0  0  0  0  0  0  0  0  0  0  0
  -23.6795   -8.7548   18.2982 N   0  0  0  0  0  0  0  0  0  0  0  0
  -27.1497  -16.9529   19.7128 N   0  0  0  0  0  0  0  0  0  0  0  0
  -23.8961  -30.9943   23.2531 N   0  0  0  0  0  0  0  0  0  0  0  0
  -20.1545  -26.7934   19.4042 N   0  0  0  0  0  0  0  0  0  0  0  0
  -20.6178  -26.0979   15.8871 N   0  3  0  0  0  0  0  0  0  0  0  0
  -24.8665   -9.4089   16.4483 O   0  0  0  0  0  0  0  0  0  0  0  0
  -23.3086  -28.7439   23.3673 O   0  0  0  0  0  0  0  0  0  0  0  0
  -20.4467  -29.1835   20.9568 O   0  0  0  0  0  0  0  0  0  0  0  0
  -21.7005  -25.3958   18.3874 O   0  0  0  0  0  0  0  0  0  0  0  0
  -29.4132  -17.3511   20.0290 O   0  0  0  0  0  0  0  0  0  0  0  0
  -21.8465   -8.3444   23.5429 O   0  0  0  0  0  0  0  0  0  0  0  0
  -28.2926  -26.1484   19.9135 O   0  0  0  0  0  0  0  0  0  1  0  0
  -21.3200   -2.8588   23.3549 F   0  0  0  0  0  0  0  0  0  0  0  0
  -22.5000   -6.7812   25.7273 F   0  0  0  0  0  0  0  0  0  0  0  0
  1  2  1  0  0  0  0
  1  5  2  0  0  0  0
  2  6  2  0  0  0  0
  3 10  2  0  0  0  0
  3 18  1  0  0  0  0
  4 11  1  0  0  0  0
  4 18  2  0  0  0  0
  5 21  1  0  0  0  0
  6 23  1  0  0  0  0
  7 12  2  0  0  0  0
  7 22  1  0  0  0  0
  8  9  2  0  0  0  0
  8 25  1  0  0  0  0
  9 26  1  0  0  0  0
 10 27  1  0  0  0  0
 11 27  2  0  0  0  0
 12 28  1  0  0  0  0
 13 14  2  0  0  0  0
 13 29  1  0  0  0  0
 14 30  1  0  0  0  0
 15 19  1  0  0  0  0
 15 26  2  0  0  0  0
 16 24  1  0  0  0  0
 16 28  2  0  0  0  0
 17 30  2  0  0  0  0
 17 31  1  0  0  0  0
 18 32  1  0  0  0  0
 19 25  2  0  0  0  0
 19 34  1  0  0  0  0
 20 32  1  0  0  0  0
 20 33  2  0  0  0  0
 20 36  1  0  0  0  0
 21 23  2  0  0  0  0
 21 41  1  0  0  0  0
 22 24  2  0  0  0  0
 22 42  1  0  0  0  0
 23 50  1  0  0  0  0
 24 43  1  0  0  0  0
 25 53  1  0  0  0  0
 26 71  1  0  0  0  0
 27 80  1  0  0  0  0
 28 81  1  0  0  0  0
 29 31  2  0  0  0  0
 29 80  1  0  0  0  0
 30 82  1  0  0  0  0
 31 83  1  0  0  0  0
 32 65  2  0  0  0  0
 33 66  1  0  0  0  0
 33 69  1  0  0  0  0
 34 35  2  0  0  0  0
 35 59  1  0  0  0  0
 36 70  1  0  0  0  0
 36 75  2  0  0  0  0
 37 51  1  0  0  0  0
 37 72  1  0  0  0  0
 37 76  2  0  0  0  0
 38 62  1  0  0  0  0
 38 67  1  0  0  0  0
 38 77  2  0  0  0  0
 39 63  1  0  0  0  0
 39 73  1  0  0  0  0
 39 78  2  0  0  0  0
 40 68  1  0  0  0  0
 40 71  1  0  0  0  0
 40 79  2  0  0  0  0
 41 44  1  0  0  0  0
 42 51  1  0  0  0  0
 43 67  1  0  0  0  0
 44 46  1  0  0  0  0
 45 47  1  0  0  0  0
 45 48  1  0  0  0  0
 46 50  1  0  0  0  0
 47 52  1  0  0  0  0
 48 68  1  0  0  0  0
 49 52  1  0  0  0  0
 49 68  1  0  0  0  0
 50 72  1  0  0  0  0
 51 67  1  0  0  0  0
 52 66  1  0  0  0  0
 54 63  1  0  0  0  0
 55 64  1  0  0  0  0
 56 64  1  0  0  0  0
 57 64  1  0  0  0  0
 58 74  1  0  0  0  0
 59 60  1  0  0  0  0
 60 61  1  0  0  0  0
 61 81  1  0  0  0  0
 62 64  1  0  0  0  0
 62 73  1  0  0  0  0
 63 74  1  0  0  0  0
 65 66  1  0  0  0  0
M  CHG  1  74   1
M  ISO  4  40 100  61 101  71 100  81 101
M  END
> <Batch ID>
0121

> <Smiles>
CNC(C)C(=O)NC(C(=O)N1Cc2cc([101O:1][101CH2:1]CCC=Cc3cc([100NH:0][100C:0](=O)N4CCCC(n5nc(-c6ccc(Oc7ccc(F)cc7F)cc6)c(C(N)=O)c5N)C4)ccc3C)ccc2CC1C(=O)NC1CCCc2ccccc21)C(C)(C)C

> <Shape>
0.308

> <Color>
0.116

> <Negative vol penalty>
0.000

$$$$

  -OEChem-04052301573D

 84 92  0     1  0  0  0  0  0999 V2000
  -27.1880  -23.9564   17.2226 C   0  0  0  0  0  0  0  0  0  0  0  0
  -26.0151  -24.3990   17.8259 C   0  0  0  0  0  0  0  0  0  0  0  0
  -25.8698  -13.0345   19.4047 C   0  0  0  0  0  0  0  0  0  0  0  0
  -24.3804  -13.6004   21.2209 C   0  0  0  0  0  0  0  0  0  0  0  0
  -22.9469  -24.9306   21.6667 C   0  0  0  0  0  0  0  0  0  0  0  0
  -28.4228  -24.2655   17.7914 C   0  0  0  0  0  0  0  0  0  0  0  0
  -26.0764  -25.1501   18.9991 C   0  0  0  0  0  0  0  0  0  0  0  0
  -22.9735  -29.1512   18.9087 C   0  0  0  0  0  0  0  0  0  0  0  0
  -23.9944  -24.1712   22.1881 C   0  0  0  0  0  0  0  0  0  0  0  0
  -26.1179  -11.7950   19.9944 C   0  0  0  0  0  0  0  0  0  0  0  0
  -24.6284  -12.3609   21.8105 C   0  0  0  0  0  0  0  0  0  0  0  0
  -21.6197  -28.9124   19.1408 C   0  0  0  0  0  0  0  0  0  0  0  0
  -23.6263   -9.1606   21.3931 C   0  0  0  0  0  0  0  0  0  0  0  0
  -22.5321   -8.4457   21.8802 C   0  0  0  0  0  0  0  0  0  0  0  0
  -21.8893  -29.6394   21.4251 C   0  0  0  0  0  0  0  0  0  0  0  0
  -22.4899  -22.3057   22.4937 C   0  0  0  0  0  0  0  0  0  0  0  0
  -23.4923   -8.4865   24.0969 C   0  0  0  0  0  0  0  0  0  0  0  0
  -25.0011  -13.9372   20.0180 C   0  0  0  0  0  0  0  0  0  0  0  0
  -21.6709  -24.3775   21.5589 C   0  0  0  0  0  0  0  0  0  0  0  0
  -23.7330  -15.5315   18.4824 C   0  0  0  0  0  0  0  0  0  0  0  0
  -28.4996  -25.0290   18.9670 C   0  0  0  0  0  0  0  0  0  0  0  0
  -23.7991  -29.6264   19.9377 C   0  0  0  0  0  0  0  0  0  0  0  0
  -27.3134  -25.4686   19.5850 C   0  0  0  0  0  0  0  0  0  0  0  0
  -23.2527  -29.8859   21.2027 C   0  0  0  0  0  0  0  0  0  0  0  0
  -23.7659  -22.8588   22.6016 C   0  0  0  0  0  0  0  0  0  0  0  0
  -21.4424  -23.0651   21.9724 C   0  0  0  0  0  0  0  0  0  0  0  0
  -25.4972  -11.4582   21.1973 C   0  0  0  0  0  0  0  0  0  0  0  0
  -21.0780  -29.1537   20.4000 C   0  0  0  0  0  0  0  0  0  0  0  0
  -24.6536   -9.5383   22.2578 C   0  0  0  0  0  0  0  0  0  0  0  0
  -22.4651   -8.1087   23.2321 C   0  0  0  0  0  0  0  0  0  0  0  0
  -24.5865   -9.2013   23.6097 C   0  0  0  0  0  0  0  0  0  0  0  0
  -24.7448  -15.2180   19.4096 C   0  0  0  0  0  0  0  0  0  0  0  0
  -23.9136  -16.8666   18.2155 C   0  0  0  0  0  0  0  0  0  0  0  0
  -20.5864  -25.2051   21.0047 C   0  0  0  0  0  0  0  0  0  0  0  0
  -19.4681  -25.5559   21.6590 C   0  0  0  0  0  0  0  0  0  0  0  0
  -22.7204  -14.6910   17.9133 C   0  0  0  0  0  0  0  0  0  0  0  0
  -26.3653  -28.5150   21.4487 C   0  0  0  0  0  0  0  0  0  0  0  0
  -26.3395  -31.4484   22.8333 C   0  0  0  0  0  0  0  0  0  0  0  0
  -24.5515  -34.2141   23.7281 C   0  0  0  0  0  0  0  0  0  0  0  0
  -26.3970  -21.3454   21.3178 C   0  0  0  0  0  0  0  0  0  0  0  0
  -29.8553  -25.2978   19.5706 C   0  0  0  0  0  0  0  0  0  0  0  0
  -25.2517  -29.9043   19.6638 C   0  0  0  0  0  0  0  0  0  0  0  0
  -24.0921  -30.4155   22.3356 C   0  0  0  0  0  0  0  0  0  0  0  0
  -29.8485  -26.4162   20.6096 C   0  0  0  0  0  0  0  0  0  0  0  0
  -27.3145  -20.2284   18.0640 C   0  0  0  0  0  0  0  0  0  0  0  0
  -28.6843  -26.2374   21.5788 C   0  0  0  0  0  0  0  0  0  0  0  0
  -26.6687  -18.8459   17.9563 C   0  0  0  0  0  0  0  0  0  0  0  0
  -27.8249  -20.5043   19.4766 C   0  0  0  0  0  0  0  0  0  0  0  0
  -26.1763  -18.9435   20.4355 C   0  0  0  0  0  0  0  0  0  0  0  0
  -27.3397  -26.3067   20.8447 C   0  0  1  0  0  0  0  0  0  0  0  0
  -26.1092  -29.9001   20.9256 C   0  0  1  0  0  0  0  0  0  0  0  0
  -25.5962  -18.6418   19.0431 C   0  0  2  0  0  0  0  0  0  0  0  0
  -20.0881  -22.4400   21.8720 C   0  0  0  0  0  0  0  0  0  0  0  0
  -24.7959  -36.4301   24.8800 C   0  0  0  0  0  0  0  0  0  0  0  0
  -26.3893  -30.0348   25.5369 C   0  0  0  0  0  0  0  0  0  0  0  0
  -25.6815  -32.1891   26.5980 C   0  0  0  0  0  0  0  0  0  0  0  0
  -27.8585  -32.0531   25.3878 C   0  0  0  0  0  0  0  0  0  0  0  0
  -23.7564  -35.6980   21.2940 C   0  0  0  0  0  0  0  0  0  0  0  0
  -24.8858  -22.0460   23.1575 C   0  0  0  0  0  0  0  0  0  0  0  0
  -18.3887  -26.4074   21.0529 C   0  0  0  0  0  0  0  0  0  0  0  0
  -18.1428  -27.6648   21.8847 C   0  0  0  0  0  0  0  0  0  0  0  0
  -19.3847  -28.5428   21.9541 C   0  0  0  0  0  0  0  0  0  1  0  0
  -25.7031  -32.0430   24.0664 C   0  0  1  0  0  0  0  0  0  0  0  0
  -24.8307  -35.6955   23.5489 C   0  0  2  0  0  0  0  0  0  0  0  0
  -26.3924  -31.5682   25.3767 C   0  0  0  0  0  0  0  0  0  0  0  0
  -25.5114  -16.2693   19.7114 N   0  0  0  0  0  0  0  0  0  0  0  0
  -24.9812  -17.2564   18.9695 N   0  0  0  0  0  0  0  0  0  0  0  0
  -25.5082  -30.6654   22.0199 N   0  0  0  0  0  0  0  0  0  0  0  0
  -26.7591  -20.2942   20.4593 N   0  0  0  0  0  0  0  0  0  0  0  0
  -23.2617  -17.7335   17.4117 N   0  0  0  0  0  0  0  0  0  0  0  0
  -22.6773  -13.3436   18.2967 N   0  0  0  0  0  0  0  0  0  0  0  0
  -26.9971  -27.6807   20.5463 N   0  0  0  0  0  0  0  0  0  0  0  0
  -25.7152  -33.4892   23.8750 N   0  0  0  0  0  0  0  0  0  0  0  0
  -25.3735  -21.0643   22.2146 N   0  0  0  0  0  0  0  0  0  0  0  0
  -23.8150  -36.3086   22.6470 N   0  3  0  0  0  0  0  0  0  0  0  0
  -21.8891  -15.1181   17.0767 O   0  0  0  0  0  0  0  0  0  0  0  0
  -26.0170  -28.2251   22.5873 O   0  0  0  0  0  0  0  0  0  0  0  0
  -27.5285  -31.6763   22.5967 O   0  0  0  0  0  0  0  0  0  0  0  0
  -23.4147  -33.7472   23.7405 O   0  0  0  0  0  0  0  0  0  0  0  0
  -26.9417  -22.4541   21.2838 O   0  0  0  0  0  0  0  0  0  0  0  0
  -25.7389  -10.2487   21.7729 O   0  0  0  0  0  0  0  0  0  0  0  0
  -19.7570  -28.9209   20.6294 O   0  0  0  0  0  0  0  0  0  1  0  0
  -21.4135   -7.4236   23.7000 F   0  0  0  0  0  0  0  0  0  0  0  0
  -25.5698   -9.5625   24.4455 F   0  0  0  0  0  0  0  0  0  0  0  0
  1  2  1  0  0  0  0
  1  6  2  0  0  0  0
  2  7  2  0  0  0  0
  3 10  2  0  0  0  0
  3 18  1  0  0  0  0
  4 11  1  0  0  0  0
  4 18  2  0  0  0  0
  5  9  2  0  0  0  0
  5 19  1  0  0  0  0
  6 21  1  0  0  0  0
  7 23  1  0  0  0  0
  8 12  2  0  0  0  0
  8 22  1  0  0  0  0
  9 25  1  0  0  0  0
 10 27  1  0  0  0  0
 11 27  2  0  0  0  0
 12 28  1  0  0  0  0
 13 14  2  0  0  0  0
 13 29  1  0  0  0  0
 14 30  1  0  0  0  0
 15 24  1  0  0  0  0
 15 28  2  0  0  0  0
 16 25  2  0  0  0  0
 16 26  1  0  0  0  0
 17 30  2  0  0  0  0
 17 31  1  0  0  0  0
 18 32  1  0  0  0  0
 19 26  2  0  0  0  0
 19 34  1  0  0  0  0
 20 32  1  0  0  0  0
 20 33  2  0  0  0  0
 20 36  1  0  0  0  0
 21 23  2  0  0  0  0
 21 41  1  0  0  0  0
 22 24  2  0  0  0  0
 22 42  1  0  0  0  0
 23 50  1  0  0  0  0
 24 43  1  0  0  0  0
 25 59  1  0  0  0  0
 26 53  1  0  0  0  0
 27 81  1  0  0  0  0
 28 82  1  0  0  0  0
 29 31  2  0  0  0  0
 29 81  1  0  0  0  0
 30 83  1  0  0  0  0
 31 84  1  0  0  0  0
 32 66  2  0  0  0  0
 33 67  1  0  0  0  0
 33 70  1  0  0  0  0
 34 35  2  0  0  0  0
 35 60  1  0  0  0  0
 36 71  1  0  0  0  0
 36 76  2  0  0  0  0
 37 51  1  0  0  0  0
 37 72  1  0  0  0  0
 37 77  2  0  0  0  0
 38 63  1  0  0  0  0
 38 68  1  0  0  0  0
 38 78  2  0  0  0  0
 39 64  1  0  0  0  0
 39 73  1  0  0  0  0
 39 79  2  0  0  0  0
 40 69  1  0  0  0  0
 40 74  1  0  0  0  0
 40 80  2  0  0  0  0
 41 44  1  0  0  0  0
 42 51  1  0  0  0  0
 43 68  1  0  0  0  0
 44 46  1  0  0  0  0
 45 47  1  0  0  0  0
 45 48  1  0  0  0  0
 46 50  1  0  0  0  0
 47 52  1  0  0  0  0
 48 69  1  0  0  0  0
 49 52  1  0  0  0  0
 49 69  1  0  0  0  0
 50 72  1  0  0  0  0
 51 68  1  0  0  0  0
 52 67  1  0  0  0  0
 54 64  1  0  0  0  0
 55 65  1  0  0  0  0
 56 65  1  0  0  0  0
 57 65  1  0  0  0  0
 58 75  1  0  0  0  0
 59 74  1  0  0  0  0
 60 61  1  0  0  0  0
 61 62  1  0  0  0  0
 62 82  1  0  0  0  0
 63 65  1  0  0  0  0
 63 73  1  0  0  0  0
 64 75  1  0  0  0  0
 66 67  1  0  0  0  0
M  CHG  1  75   1
M  ISO  4  40 100  62 101  74 100  82 101
M  END
> <Batch ID>
0121

> <Smiles>
CNC(C)C(=O)NC(C(=O)N1Cc2cc([101O:1][101CH2:1]CCC=Cc3ccc(C[100NH:0][100C:0](=O)N4CCCC(n5nc(-c6ccc(Oc7ccc(F)cc7F)cc6)c(C(N)=O)c5N)C4)cc3C)ccc2CC1C(=O)NC1CCCc2ccccc21)C(C)(C)C

> <Shape>
0.283

> <Color>
0.080

> <Negative vol penalty>
0.000

$$$$

  -OEChem-04052301573D

 87 95  0     1  0  0  0  0  0999 V2000
  -25.0999  -31.5027   18.7994 C   0  0  0  0  0  0  0  0  0  0  0  0
  -24.9726  -30.3256   19.5299 C   0  0  0  0  0  0  0  0  0  0  0  0
  -23.0900   -9.8389   19.8765 C   0  0  0  0  0  0  0  0  0  0  0  0
  -23.9575   -9.6790   22.1258 C   0  0  0  0  0  0  0  0  0  0  0  0
  -24.3802  -32.6362   19.1750 C   0  0  0  0  0  0  0  0  0  0  0  0
  -24.1262  -30.2816   20.6372 C   0  0  0  0  0  0  0  0  0  0  0  0
  -21.2697  -26.1012   20.7344 C   0  0  0  0  0  0  0  0  0  0  0  0
  -22.3886   -8.6477   20.0623 C   0  0  0  0  0  0  0  0  0  0  0  0
  -23.2560   -8.4878   22.3116 C   0  0  0  0  0  0  0  0  0  0  0  0
  -21.8797  -24.9230   21.1629 C   0  0  0  0  0  0  0  0  0  0  0  0
  -20.0815   -7.5483   22.9903 C   0  0  0  0  0  0  0  0  0  0  0  0
  -19.3822   -7.3896   24.1867 C   0  0  0  0  0  0  0  0  0  0  0  0
  -28.2854  -19.1406   24.7854 C   0  0  0  0  0  0  0  0  0  0  0  0
  -20.8845  -25.2074   23.3419 C   0  0  0  0  0  0  0  0  0  0  0  0
  -29.2430  -18.8298   22.5892 C   0  0  0  0  0  0  0  0  0  0  0  0
  -20.7063   -5.4354   24.7014 C   0  0  0  0  0  0  0  0  0  0  0  0
  -23.8745  -10.3546   20.9082 C   0  0  0  0  0  0  0  0  0  0  0  0
  -28.9213  -17.9804   25.2269 C   0  0  0  0  0  0  0  0  0  0  0  0
  -24.1456  -12.8900   20.9849 C   0  0  0  0  0  0  0  0  0  0  0  0
  -23.5172  -32.6033   20.2817 C   0  0  0  0  0  0  0  0  0  0  0  0
  -20.4700  -26.8483   21.6111 C   0  0  0  0  0  0  0  0  0  0  0  0
  -23.3953  -31.4161   21.0288 C   0  0  0  0  0  0  0  0  0  0  0  0
  -20.2634  -26.3934   22.9213 C   0  0  0  0  0  0  0  0  0  0  0  0
  -29.8790  -17.6695   23.0307 C   0  0  0  0  0  0  0  0  0  0  0  0
  -29.7181  -17.2448   24.3496 C   0  0  0  0  0  0  0  0  0  0  0  0
  -22.4715   -7.9721   21.2799 C   0  0  0  0  0  0  0  0  0  0  0  0
  -21.6895  -24.4775   22.4677 C   0  0  0  0  0  0  0  0  0  0  0  0
  -21.0932   -6.6505   22.6494 C   0  0  0  0  0  0  0  0  0  0  0  0
  -28.4462  -19.5654   23.4665 C   0  0  0  0  0  0  0  0  0  0  0  0
  -19.6946   -6.3332   25.0423 C   0  0  0  0  0  0  0  0  0  0  0  0
  -21.4056   -5.5941   23.5050 C   0  0  0  0  0  0  0  0  0  0  0  0
  -24.5998  -11.5848   20.7167 C   0  0  0  0  0  0  0  0  0  0  0  0
  -25.1997  -13.6987   20.6367 C   0  0  0  0  0  0  0  0  0  0  0  0
  -29.0433  -18.3227   27.6524 C   0  0  0  0  0  0  0  0  0  0  0  0
  -28.7325  -17.5656   26.6112 C   0  0  0  0  0  0  0  0  0  0  0  0
  -22.8836  -13.3318   21.5025 C   0  0  0  0  0  0  0  0  0  0  0  0
  -20.6061  -29.7846   22.8208 C   0  0  0  0  0  0  0  0  0  0  0  0
  -17.6945  -29.0053   24.0198 C   0  0  0  0  0  0  0  0  0  0  0  0
  -15.5187  -26.5596   24.9849 C   0  0  0  0  0  0  0  0  0  0  0  0
  -30.6584  -14.8597   20.6620 C   0  0  0  0  0  0  0  0  0  0  0  0
  -22.7961  -33.8674   20.6777 C   0  0  0  0  0  0  0  0  0  0  0  0
  -19.7974  -28.1030   21.1255 C   0  0  0  0  0  0  0  0  0  0  0  0
  -19.3977  -27.1482   23.8956 C   0  0  0  0  0  0  0  0  0  0  0  0
  -21.6348  -33.6302   21.6398 C   0  0  0  0  0  0  0  0  0  0  0  0
  -29.4702  -12.6478   18.1377 C   0  0  0  0  0  0  0  0  0  0  0  0
  -22.0586  -32.6948   22.7678 C   0  0  0  0  0  0  0  0  0  0  0  0
  -28.0629  -12.2772   18.6089 C   0  0  0  0  0  0  0  0  0  0  0  0
  -30.4373  -12.7957   19.3102 C   0  0  0  0  0  0  0  0  0  0  0  0
  -28.5854  -13.3536   20.8376 C   0  0  0  0  0  0  0  0  0  0  0  0
  -22.4684  -31.3219   22.2213 C   0  0  1  0  0  0  0  0  0  0  0  0
  -19.4201  -29.0548   22.2565 C   0  0  1  0  0  0  0  0  0  0  0  0
  -27.5613  -13.2481   19.6947 C   0  0  2  0  0  0  0  0  0  0  0  0
  -31.6424  -16.3024   25.6516 C   0  0  0  0  0  0  0  0  0  0  0  0
  -13.2295  -26.2318   25.9593 C   0  0  0  0  0  0  0  0  0  0  0  0
  -18.7551  -29.7929   26.7702 C   0  0  0  0  0  0  0  0  0  0  0  0
  -16.8191  -28.5751   27.7885 C   0  0  0  0  0  0  0  0  0  0  0  0
  -16.4139  -30.5374   26.3026 C   0  0  0  0  0  0  0  0  0  0  0  0
  -14.5885  -25.0767   22.5985 C   0  0  0  0  0  0  0  0  0  0  0  0
  -30.4069  -15.9985   24.8123 C   0  0  0  0  0  0  0  0  0  0  0  0
  -30.7278  -16.9019   22.0705 C   0  0  0  0  0  0  0  0  0  0  0  0
  -24.3747  -22.1788   23.2620 C   0  0  0  0  0  0  0  0  0  0  0  0
  -25.7249  -21.8025   22.6618 C   0  0  0  0  0  0  0  0  0  0  0  0
  -23.5284  -22.9809   22.2823 C   0  0  0  0  0  0  0  0  0  1  0  0
  -26.5882  -21.0379   23.6552 C   0  0  0  0  0  0  0  0  0  0  0  0
  -17.2001  -28.3579   25.2908 C   0  0  1  0  0  0  0  0  0  0  0  0
  -14.0470  -26.3437   24.6818 C   0  0  2  0  0  0  0  0  0  0  0  0
  -17.3150  -29.3024   26.5205 C   0  0  0  0  0  0  0  0  0  0  0  0
  -25.8454  -11.5611   20.2352 N   0  0  0  0  0  0  0  0  0  0  0  0
  -26.1829  -12.8614   20.1980 N   0  0  0  0  0  0  0  0  0  0  0  0
  -18.7667  -28.3724   23.3752 N   0  0  0  0  0  0  0  0  0  0  0  0
  -29.9033  -13.7310   20.3032 N   0  0  0  0  0  0  0  0  0  0  0  0
  -25.3723  -15.0373   20.6661 N   0  0  0  0  0  0  0  0  0  0  0  0
  -21.9124  -12.3686   21.8077 N   0  0  0  0  0  0  0  0  0  0  0  0
  -21.2968  -30.5389   21.8916 N   0  0  0  0  0  0  0  0  0  0  0  0
  -15.8430  -27.8995   25.0142 N   0  0  0  0  0  0  0  0  0  0  0  0
  -30.0763  -15.6979   21.6051 N   0  0  0  0  0  0  0  0  0  0  0  0
  -13.8586  -25.0938   23.8923 N   0  3  0  0  0  0  0  0  0  0  0  0
  -22.6189  -14.5460   21.6733 O   0  0  0  0  0  0  0  0  0  0  0  0
  -20.8737  -29.6729   24.0114 O   0  0  0  0  0  0  0  0  0  0  0  0
  -17.1447  -30.0307   23.6100 O   0  0  0  0  0  0  0  0  0  0  0  0
  -16.3016  -25.6325   25.1800 O   0  0  0  0  0  0  0  0  0  0  0  0
  -31.7667  -15.1054   20.1739 O   0  0  0  0  0  0  0  0  0  0  0  0
  -21.7870   -6.8098   21.4616 O   0  0  0  0  0  0  0  0  0  0  0  0
  -22.2843  -23.3282   22.8888 O   0  0  0  0  0  0  0  0  0  1  0  0
  -27.8212  -20.7054   23.0321 O   0  0  0  0  0  0  0  0  0  0  0  0
  -19.0241   -6.1819   26.1919 F   0  0  0  0  0  0  0  0  0  0  0  0
  -22.3773   -4.7291   23.1834 F   0  0  0  0  0  0  0  0  0  0  0  0
  1  2  1  0  0  0  0
  1  5  2  0  0  0  0
  2  6  2  0  0  0  0
  3  8  2  0  0  0  0
  3 17  1  0  0  0  0
  4  9  1  0  0  0  0
  4 17  2  0  0  0  0
  5 20  1  0  0  0  0
  6 22  1  0  0  0  0
  7 10  2  0  0  0  0
  7 21  1  0  0  0  0
  8 26  1  0  0  0  0
  9 26  2  0  0  0  0
 10 27  1  0  0  0  0
 11 12  2  0  0  0  0
 11 28  1  0  0  0  0
 12 30  1  0  0  0  0
 13 18  1  0  0  0  0
 13 29  2  0  0  0  0
 14 23  1  0  0  0  0
 14 27  2  0  0  0  0
 15 24  2  0  0  0  0
 15 29  1  0  0  0  0
 16 30  2  0  0  0  0
 16 31  1  0  0  0  0
 17 32  1  0  0  0  0
 18 25  2  0  0  0  0
 18 35  1  0  0  0  0
 19 32  1  0  0  0  0
 19 33  2  0  0  0  0
 19 36  1  0  0  0  0
 20 22  2  0  0  0  0
 20 41  1  0  0  0  0
 21 23  2  0  0  0  0
 21 42  1  0  0  0  0
 22 50  1  0  0  0  0
 23 43  1  0  0  0  0
 24 25  1  0  0  0  0
 24 60  1  0  0  0  0
 25 59  1  0  0  0  0
 26 83  1  0  0  0  0
 27 84  1  0  0  0  0
 28 31  2  0  0  0  0
 28 83  1  0  0  0  0
 29 85  1  0  0  0  0
 30 86  1  0  0  0  0
 31 87  1  0  0  0  0
 32 68  2  0  0  0  0
 33 69  1  0  0  0  0
 33 72  1  0  0  0  0
 34 35  2  0  0  0  0
 36 73  1  0  0  0  0
 36 78  2  0  0  0  0
 37 51  1  0  0  0  0
 37 74  1  0  0  0  0
 37 79  2  0  0  0  0
 38 65  1  0  0  0  0
 38 70  1  0  0  0  0
 38 80  2  0  0  0  0
 39 66  1  0  0  0  0
 39 75  1  0  0  0  0
 39 81  2  0  0  0  0
 40 71  1  0  0  0  0
 40 76  1  0  0  0  0
 40 82  2  0  0  0  0
 41 44  1  0  0  0  0
 42 51  1  0  0  0  0
 43 70  1  0  0  0  0
 44 46  1  0  0  0  0
 45 47  1  0  0  0  0
 45 48  1  0  0  0  0
 46 50  1  0  0  0  0
 47 52  1  0  0  0  0
 48 71  1  0  0  0  0
 49 52  1  0  0  0  0
 49 71  1  0  0  0  0
 50 74  1  0  0  0  0
 51 70  1  0  0  0  0
 52 69  1  0  0  0  0
 53 59  1  0  0  0  0
 54 66  1  0  0  0  0
 55 67  1  0  0  0  0
 56 67  1  0  0  0  0
 57 67  1  0  0  0  0
 58 77  1  0  0  0  0
 60 76  1  0  0  0  0
 61 62  1  0  0  0  0
 61 63  1  0  0  0  0
 62 64  1  0  0  0  0
 63 84  1  0  0  0  0
 64 85  1  0  0  0  0
 65 67  1  0  0  0  0
 65 75  1  0  0  0  0
 66 77  1  0  0  0  0
 68 69  1  0  0  0  0
M  CHG  1  77   1
M  ISO  4  40 100  63 101  76 100  84 101
M  END
> <Batch ID>
0121

> <Smiles>
C=Cc1cc(OCCC[101CH2:1][101O:1]c2ccc3c(c2)CN(C(=O)C(NC(=O)C(C)NC)C(C)(C)C)C(C(=O)NC2CCCc4ccccc42)C3)cc(C[100NH:0][100C:0](=O)N2CCCC(n3nc(-c4ccc(Oc5ccc(F)cc5F)cc4)c(C(N)=O)c3N)C2)c1CC

> <Shape>
0.275

> <Color>
0.204

> <Negative vol penalty>
0.000

$$$$

  -OEChem-04052301573D

 88 96  0     1  0  0  0  0  0999 V2000
  -27.0364  -31.1487   28.3410 C   0  0  0  0  0  0  0  0  0  0  0  0
  -27.3902  -30.3657   27.2469 C   0  0  0  0  0  0  0  0  0  0  0  0
  -26.3610   -8.6182   21.7904 C   0  0  0  0  0  0  0  0  0  0  0  0
  -24.3116   -8.5767   20.5116 C   0  0  0  0  0  0  0  0  0  0  0  0
  -25.6925  -31.4119   28.6030 C   0  0  0  0  0  0  0  0  0  0  0  0
  -26.4002  -29.8445   26.4147 C   0  0  0  0  0  0  0  0  0  0  0  0
  -27.5150  -30.3718   21.5030 C   0  0  0  0  0  0  0  0  0  0  0  0
  -25.9993   -7.4214   22.4089 C   0  0  0  0  0  0  0  0  0  0  0  0
  -23.9500   -7.3799   21.1300 C   0  0  0  0  0  0  0  0  0  0  0  0
  -28.4340  -29.4757   20.9589 C   0  0  0  0  0  0  0  0  0  0  0  0
  -22.6482   -6.4005   24.0927 C   0  0  0  0  0  0  0  0  0  0  0  0
  -21.3365   -6.2785   24.5510 C   0  0  0  0  0  0  0  0  0  0  0  0
  -26.1588  -21.1065   21.0436 C   0  0  0  0  0  0  0  0  0  0  0  0
  -26.8795  -23.4022   20.8261 C   0  0  0  0  0  0  0  0  0  0  0  0
  -26.6186  -28.1880   20.0287 C   0  0  0  0  0  0  0  0  0  0  0  0
  -21.0043   -4.3796   23.0946 C   0  0  0  0  0  0  0  0  0  0  0  0
  -25.5171   -9.1959   20.8419 C   0  0  0  0  0  0  0  0  0  0  0  0
  -27.3489  -20.6772   20.4563 C   0  0  0  0  0  0  0  0  0  0  0  0
  -28.0696  -22.9729   20.2388 C   0  0  0  0  0  0  0  0  0  0  0  0
  -26.6282  -10.5864   19.0144 C   0  0  0  0  0  0  0  0  0  0  0  0
  -24.6860  -30.9016   27.7680 C   0  0  0  0  0  0  0  0  0  0  0  0
  -26.1381  -30.1764   21.3230 C   0  0  0  0  0  0  0  0  0  0  0  0
  -25.0415  -30.0999   26.6665 C   0  0  0  0  0  0  0  0  0  0  0  0
  -25.6842  -29.0845   20.5694 C   0  0  0  0  0  0  0  0  0  0  0  0
  -28.3043  -21.6104   20.0540 C   0  0  0  0  0  0  0  0  0  0  0  0
  -24.7938   -6.8022   22.0787 C   0  0  0  0  0  0  0  0  0  0  0  0
  -27.9858  -28.3820   20.2241 C   0  0  0  0  0  0  0  0  0  0  0  0
  -23.1380   -5.5122   23.1352 C   0  0  0  0  0  0  0  0  0  0  0  0
  -25.9240  -22.4690   21.2284 C   0  0  0  0  0  0  0  0  0  0  0  0
  -20.5146   -5.2680   24.0520 C   0  0  0  0  0  0  0  0  0  0  0  0
  -22.3161   -4.5017   22.6362 C   0  0  0  0  0  0  0  0  0  0  0  0
  -25.8899  -10.4325   20.2031 C   0  0  0  0  0  0  0  0  0  0  0  0
  -26.7114  -11.9457   18.8355 C   0  0  0  0  0  0  0  0  0  0  0  0
  -23.9949  -24.1440   24.9123 C   0  0  0  0  0  0  0  0  0  0  0  0
  -27.5602  -19.2462   20.2783 C   0  0  0  0  0  0  0  0  0  0  0  0
  -29.0550  -23.9862   19.8264 C   0  0  0  0  0  0  0  0  0  0  0  0
  -27.5689  -18.3297   21.2674 C   0  0  0  0  0  0  0  0  0  0  0  0
  -23.7495  -24.0591   23.6001 C   0  0  0  0  0  0  0  0  0  0  0  0
  -29.6305  -24.8823   20.6433 C   0  0  0  0  0  0  0  0  0  0  0  0
  -27.1887   -9.5899   18.1493 C   0  0  0  0  0  0  0  0  0  0  0  0
  -27.7872  -16.9101   20.9241 C   0  0  0  0  0  0  0  0  0  0  0  0
  -23.6732  -29.6602   23.2625 C   0  0  0  0  0  0  0  0  0  0  0  0
  -21.9587  -29.9485   20.5240 C   0  0  0  0  0  0  0  0  0  0  0  0
  -21.8822  -29.7419   17.1183 C   0  0  0  0  0  0  0  0  0  0  0  0
  -23.2446  -31.1738   28.1187 C   0  0  0  0  0  0  0  0  0  0  0  0
  -25.1606  -31.1669   21.8938 C   0  0  0  0  0  0  0  0  0  0  0  0
  -24.2173  -28.8411   20.3300 C   0  0  0  0  0  0  0  0  0  0  0  0
  -22.2757  -30.8946   26.9726 C   0  0  0  0  0  0  0  0  0  0  0  0
  -24.3225  -15.7368   21.1488 C   0  0  0  0  0  0  0  0  0  0  0  0
  -22.5868  -29.5482   26.3267 C   0  0  0  0  0  0  0  0  0  0  0  0
  -24.4984  -14.2466   20.8691 C   0  0  0  0  0  0  0  0  0  0  0  0
  -25.5098  -16.3189   21.9142 C   0  0  0  0  0  0  0  0  0  0  0  0
  -27.0005  -14.5754   20.9769 C   0  0  0  0  0  0  0  0  0  0  0  0
  -23.9978  -29.5371   25.7263 C   0  0  1  0  0  0  0  0  0  0  0  0
  -23.7627  -30.5860   22.0824 C   0  0  1  0  0  0  0  0  0  0  0  0
  -25.8389  -13.9791   20.1666 C   0  0  1  0  0  0  0  0  0  0  0  0
  -30.5657  -20.6040   20.4543 C   0  0  0  0  0  0  0  0  0  0  0  0
  -20.3293  -29.9973   15.1637 C   0  0  0  0  0  0  0  0  0  0  0  0
  -20.6933  -27.2506   21.1798 C   0  0  0  0  0  0  0  0  0  0  0  0
  -19.9102  -27.1192   18.8054 C   0  0  0  0  0  0  0  0  0  0  0  0
  -19.1019  -28.9590   20.2834 C   0  0  0  0  0  0  0  0  0  0  0  0
  -23.5059  -31.9316   15.9660 C   0  0  0  0  0  0  0  0  0  0  0  0
  -29.5840  -21.1486   19.4242 C   0  0  0  0  0  0  0  0  0  0  0  0
  -30.6248  -25.9101   20.1767 C   0  0  0  0  0  0  0  0  0  0  0  0
  -24.8087  -24.1022   22.5493 C   0  0  0  0  0  0  0  0  0  0  0  0
  -30.1115  -27.3288   20.3928 C   0  0  0  0  0  0  0  0  0  1  0  0
  -21.4890  -28.9957   19.4513 C   0  0  1  0  0  0  0  0  0  0  0  0
  -21.3408  -30.6900   16.0636 C   0  0  2  0  0  0  0  0  0  0  0  0
  -20.3262  -28.0843   19.9360 C   0  0  0  0  0  0  0  0  0  0  0  0
  -25.5297  -11.6006   20.7414 N   0  0  0  0  0  0  0  0  0  0  0  0
  -26.0441  -12.5016   19.8871 N   0  0  0  0  0  0  0  0  0  0  0  0
  -26.7845  -15.9999   21.2538 N   0  0  0  0  0  0  0  0  0  0  0  0
  -23.3006  -29.8342   20.9139 N   0  0  0  0  0  0  0  0  0  0  0  0
  -27.2896  -12.7076   17.8828 N   0  0  0  0  0  0  0  0  0  0  0  0
  -27.0099   -8.2400   18.4812 N   0  0  0  0  0  0  0  0  0  0  0  0
  -24.0161  -30.2474   24.4655 N   0  0  0  0  0  0  0  0  0  0  0  0
  -21.1608  -29.8169   18.2910 N   0  0  0  0  0  0  0  0  0  0  0  0
  -22.4502  -31.2067   15.2131 N   0  3  0  0  0  0  0  0  0  0  0  0
  -27.8433   -9.8879   17.1216 O   0  0  0  0  0  0  0  0  0  0  0  0
  -28.8478  -16.6158   20.3699 O   0  0  0  0  0  0  0  0  0  0  0  0
  -23.3179  -28.4995   23.0943 O   0  0  0  0  0  0  0  0  0  0  0  0
  -21.1661  -30.7689   20.9933 O   0  0  0  0  0  0  0  0  0  0  0  0
  -22.8461  -29.0056   16.9204 O   0  0  0  0  0  0  0  0  0  0  0  0
  -24.4407   -5.6342   22.6818 O   0  0  0  0  0  0  0  0  0  0  0  0
  -24.7627  -22.8878   21.8018 O   0  0  0  0  0  0  0  0  0  0  0  0
  -28.8807  -27.5054   19.6925 O   0  0  0  0  0  0  0  0  0  1  0  0
  -19.2554   -5.1499   24.4934 F   0  0  0  0  0  0  0  0  0  0  0  0
  -22.7814   -3.6446   21.7172 F   0  0  0  0  0  0  0  0  0  0  0  0
  1  2  1  0  0  0  0
  1  5  2  0  0  0  0
  2  6  2  0  0  0  0
  3  8  2  0  0  0  0
  3 17  1  0  0  0  0
  4  9  1  0  0  0  0
  4 17  2  0  0  0  0
  5 21  1  0  0  0  0
  6 23  1  0  0  0  0
  7 10  2  0  0  0  0
  7 22  1  0  0  0  0
  8 26  1  0  0  0  0
  9 26  2  0  0  0  0
 10 27  1  0  0  0  0
 11 12  2  0  0  0  0
 11 28  1  0  0  0  0
 12 30  1  0  0  0  0
 13 18  1  0  0  0  0
 13 29  2  0  0  0  0
 14 19  2  0  0  0  0
 14 29  1  0  0  0  0
 15 24  1  0  0  0  0
 15 27  2  0  0  0  0
 16 30  2  0  0  0  0
 16 31  1  0  0  0  0
 17 32  1  0  0  0  0
 18 25  2  0  0  0  0
 18 35  1  0  0  0  0
 19 25  1  0  0  0  0
 19 36  1  0  0  0  0
 20 32  1  0  0  0  0
 20 33  2  0  0  0  0
 20 40  1  0  0  0  0
 21 23  2  0  0  0  0
 21 45  1  0  0  0  0
 22 24  2  0  0  0  0
 22 46  1  0  0  0  0
 23 54  1  0  0  0  0
 24 47  1  0  0  0  0
 25 63  1  0  0  0  0
 26 84  1  0  0  0  0
 27 86  1  0  0  0  0
 28 31  2  0  0  0  0
 28 84  1  0  0  0  0
 29 85  1  0  0  0  0
 30 87  1  0  0  0  0
 31 88  1  0  0  0  0
 32 70  2  0  0  0  0
 33 71  1  0  0  0  0
 33 74  1  0  0  0  0
 34 38  2  0  0  0  0
 35 37  2  0  0  0  0
 36 39  2  0  0  0  0
 37 41  1  0  0  0  0
 38 65  1  0  0  0  0
 39 64  1  0  0  0  0
 40 75  1  0  0  0  0
 40 79  2  0  0  0  0
 41 72  1  0  0  0  0
 41 80  2  0  0  0  0
 42 55  1  0  0  0  0
 42 76  1  0  0  0  0
 42 81  2  0  0  0  0
 43 67  1  0  0  0  0
 43 73  1  0  0  0  0
 43 82  2  0  0  0  0
 44 68  1  0  0  0  0
 44 77  1  0  0  0  0
 44 83  2  0  0  0  0
 45 48  1  0  0  0  0
 46 55  1  0  0  0  0
 47 73  1  0  0  0  0
 48 50  1  0  0  0  0
 49 51  1  0  0  0  0
 49 52  1  0  0  0  0
 50 54  1  0  0  0  0
 51 56  1  0  0  0  0
 52 72  1  0  0  0  0
 53 56  1  0  0  0  0
 53 72  1  0  0  0  0
 54 76  1  0  0  0  0
 55 73  1  0  0  0  0
 56 71  1  0  0  0  0
 57 63  1  0  0  0  0
 58 68  1  0  0  0  0
 59 69  1  0  0  0  0
 60 69  1  0  0  0  0
 61 69  1  0  0  0  0
 62 78  1  0  0  0  0
 64 66  1  0  0  0  0
 65 85  1  0  0  0  0
 66 86  1  0  0  0  0
 67 69  1  0  0  0  0
 67 77  1  0  0  0  0
 68 78  1  0  0  0  0
 70 71  1  0  0  0  0
M  CHG  1  78   1
M  ISO  4  37 100  41 100  66 101  86 101
M  END
> <Batch ID>
0121

> <Smiles>
C=CCOc1cc(C=CC[101CH2:1][101O:1]c2ccc3c(c2)CN(C(=O)C(NC(=O)C(C)NC)C(C)(C)C)C(C(=O)NC2CCCc4ccccc42)C3)c(CC)c(C=[100CH:0][100C:0](=O)N2CCCC(n3nc(-c4ccc(Oc5ccc(F)cc5F)cc4)c(C(N)=O)c3N)C2)c1

> <Shape>
0.255

> <Color>
0.079

> <Negative vol penalty>
0.000

$$$$

  -OEChem-04052301573D

 85 93  0     1  0  0  0  0  0999 V2000
  -19.3004  -28.2829   26.6874 C   0  0  0  0  0  0  0  0  0  0  0  0
  -20.6163  -27.9717   26.3602 C   0  0  0  0  0  0  0  0  0  0  0  0
  -24.6620   -8.7110   21.9921 C   0  0  0  0  0  0  0  0  0  0  0  0
  -24.3673   -8.2256   19.6438 C   0  0  0  0  0  0  0  0  0  0  0  0
  -29.6906  -20.1147   22.1430 C   0  0  0  0  0  0  0  0  0  0  0  0
  -30.0883  -21.4313   21.9106 C   0  0  0  0  0  0  0  0  0  0  0  0
  -18.3817  -28.5700   25.6787 C   0  0  0  0  0  0  0  0  0  0  0  0
  -21.0140  -27.9464   25.0239 C   0  0  0  0  0  0  0  0  0  0  0  0
  -26.4761  -29.5659   22.7770 C   0  0  0  0  0  0  0  0  0  0  0  0
  -23.4722   -8.0423   22.2797 C   0  0  0  0  0  0  0  0  0  0  0  0
  -23.1775   -7.5568   19.9314 C   0  0  0  0  0  0  0  0  0  0  0  0
  -27.5962  -28.8225   22.4076 C   0  0  0  0  0  0  0  0  0  0  0  0
  -20.6975   -6.1518   23.6734 C   0  0  0  0  0  0  0  0  0  0  0  0
  -20.6935   -5.2716   24.7554 C   0  0  0  0  0  0  0  0  0  0  0  0
  -29.1898  -19.8512   19.7942 C   0  0  0  0  0  0  0  0  0  0  0  0
  -26.8486  -28.8471   20.1142 C   0  0  0  0  0  0  0  0  0  0  0  0
  -22.4258   -3.9621   23.6964 C   0  0  0  0  0  0  0  0  0  0  0  0
  -25.1096   -8.8027   20.6742 C   0  0  0  0  0  0  0  0  0  0  0  0
  -29.2414  -19.3246   21.0848 C   0  0  0  0  0  0  0  0  0  0  0  0
  -30.0367  -21.9579   20.6200 C   0  0  0  0  0  0  0  0  0  0  0  0
  -27.6330   -8.9432   20.3275 C   0  0  0  0  0  0  0  0  0  0  0  0
  -18.7707  -28.5576   24.3299 C   0  0  0  0  0  0  0  0  0  0  0  0
  -25.5266  -29.9468   21.8179 C   0  0  0  0  0  0  0  0  0  0  0  0
  -20.0993  -28.2323   23.9961 C   0  0  0  0  0  0  0  0  0  0  0  0
  -25.7186  -29.5974   20.4736 C   0  0  0  0  0  0  0  0  0  0  0  0
  -29.5874  -21.1679   19.5618 C   0  0  0  0  0  0  0  0  0  0  0  0
  -22.7299   -7.4652   21.2494 C   0  0  0  0  0  0  0  0  0  0  0  0
  -27.7811  -28.4605   21.0765 C   0  0  0  0  0  0  0  0  0  0  0  0
  -21.5656   -5.9372   22.6028 C   0  0  0  0  0  0  0  0  0  0  0  0
  -21.5577   -4.1767   24.7670 C   0  0  0  0  0  0  0  0  0  0  0  0
  -22.4298   -4.8423   22.6144 C   0  0  0  0  0  0  0  0  0  0  0  0
  -26.3383   -9.4938   20.3764 C   0  0  0  0  0  0  0  0  0  0  0  0
  -28.4450  -10.0032   20.0056 C   0  0  0  0  0  0  0  0  0  0  0  0
  -28.8273  -17.9517   21.3284 C   0  0  0  0  0  0  0  0  0  0  0  0
  -28.0377  -17.2162   20.5171 C   0  0  0  0  0  0  0  0  0  0  0  0
  -29.7318  -24.4301   21.1300 C   0  0  0  0  0  0  0  0  0  0  0  0
  -30.0910  -25.7126   20.9802 C   0  0  0  0  0  0  0  0  0  0  0  0
  -30.4660  -23.3604   20.4016 C   0  0  0  0  0  0  0  0  0  0  0  0
  -28.0632   -7.5942   20.5528 C   0  0  0  0  0  0  0  0  0  0  0  0
  -27.7133  -15.8272   20.8994 C   0  0  0  0  0  0  0  0  0  0  0  0
  -22.4358  -29.3593   21.3648 C   0  0  0  0  0  0  0  0  0  0  0  0
  -22.7748  -31.5224   18.9714 C   0  0  0  0  0  0  0  0  0  0  0  0
  -24.8427  -33.0921   16.7563 C   0  0  0  0  0  0  0  0  0  0  0  0
  -17.7306  -28.8284   23.2719 C   0  0  0  0  0  0  0  0  0  0  0  0
  -24.3375  -30.7713   22.2283 C   0  0  0  0  0  0  0  0  0  0  0  0
  -24.7391  -29.9989   19.4022 C   0  0  0  0  0  0  0  0  0  0  0  0
  -18.3238  -29.1468   21.9019 C   0  0  0  0  0  0  0  0  0  0  0  0
  -28.4290  -14.1814   17.7039 C   0  0  0  0  0  0  0  0  0  0  0  0
  -19.4223  -28.1484   21.5507 C   0  0  0  0  0  0  0  0  0  0  0  0
  -28.0410  -12.7400   18.0226 C   0  0  0  0  0  0  0  0  0  0  0  0
  -27.5406  -15.1874   18.4342 C   0  0  0  0  0  0  0  0  0  0  0  0
  -27.1032  -13.5357   20.2289 C   0  0  0  0  0  0  0  0  0  0  0  0
  -20.5749  -28.2188   22.5596 C   0  0  1  0  0  0  0  0  0  0  0  0
  -23.1707  -30.6649   21.2512 C   0  0  1  0  0  0  0  0  0  0  0  0
  -28.0142  -12.5067   19.5415 C   0  0  1  0  0  0  0  0  0  0  0  0
  -30.6746  -21.2082   17.3028 C   0  0  0  0  0  0  0  0  0  0  0  0
  -24.8240  -34.7827   14.9019 C   0  0  0  0  0  0  0  0  0  0  0  0
  -21.5748  -29.4416   17.0898 C   0  0  0  0  0  0  0  0  0  0  0  0
  -22.4458  -30.7830   15.1636 C   0  0  0  0  0  0  0  0  0  0  0  0
  -20.7645  -31.7777   16.7149 C   0  0  0  0  0  0  0  0  0  0  0  0
  -26.6672  -34.8985   18.2284 C   0  0  0  0  0  0  0  0  0  0  0  0
  -29.5232  -21.7076   18.1700 C   0  0  0  0  0  0  0  0  0  0  0  0
  -29.4128  -26.8416   21.6870 C   0  0  0  0  0  0  0  0  0  1  0  0
  -23.1423  -31.4499   17.5090 C   0  0  1  0  0  0  0  0  0  0  0  0
  -25.0056  -34.5574   16.3949 C   0  0  2  0  0  0  0  0  0  0  0  0
  -21.9995  -30.8537   16.6396 C   0  0  0  0  0  0  0  0  0  0  0  0
  -26.3238  -10.8020   20.1073 N   0  0  0  0  0  0  0  0  0  0  0  0
  -27.6194  -11.0823   19.8862 N   0  0  0  0  0  0  0  0  0  0  0  0
  -27.4845  -14.9081   19.8770 N   0  0  0  0  0  0  0  0  0  0  0  0
  -23.5891  -30.7992   19.8544 N   0  0  0  0  0  0  0  0  0  0  0  0
  -29.7774  -10.1082   19.8159 N   0  0  0  0  0  0  0  0  0  0  0  0
  -27.0982   -6.6300   20.8741 N   0  0  0  0  0  0  0  0  0  0  0  0
  -21.4112  -29.3692   22.2920 N   0  0  0  0  0  0  0  0  0  0  0  0
  -23.5464  -32.7974   17.1224 N   0  0  0  0  0  0  0  0  0  0  0  0
  -26.3622  -35.0385   16.7812 N   0  3  0  0  0  0  0  0  0  0  0  0
  -31.4131  -23.5983   19.6602 O   0  0  0  0  0  0  0  0  0  0  0  0
  -29.2698   -7.2573   20.4879 O   0  0  0  0  0  0  0  0  0  0  0  0
  -27.6597  -15.5663   22.1026 O   0  0  0  0  0  0  0  0  0  0  0  0
  -22.7723  -28.4134   20.6622 O   0  0  0  0  0  0  0  0  0  0  0  0
  -21.8053  -32.2016   19.3184 O   0  0  0  0  0  0  0  0  0  0  0  0
  -25.7716  -32.2883   16.7142 O   0  0  0  0  0  0  0  0  0  0  0  0
  -21.5690   -6.8124   21.5297 O   0  0  0  0  0  0  0  0  0  0  0  0
  -28.8732  -27.7344   20.7133 O   0  0  0  0  0  0  0  0  0  1  0  0
  -21.5548   -3.3324   25.8068 F   0  0  0  0  0  0  0  0  0  0  0  0
  -23.2669   -4.6315   21.5894 F   0  0  0  0  0  0  0  0  0  0  0  0
  1  2  1  0  0  0  0
  1  7  2  0  0  0  0
  2  8  2  0  0  0  0
  3 10  2  0  0  0  0
  3 18  1  0  0  0  0
  4 11  1  0  0  0  0
  4 18  2  0  0  0  0
  5  6  2  0  0  0  0
  5 19  1  0  0  0  0
  6 20  1  0  0  0  0
  7 22  1  0  0  0  0
  8 24  1  0  0  0  0
  9 12  2  0  0  0  0
  9 23  1  0  0  0  0
 10 27  1  0  0  0  0
 11 27  2  0  0  0  0
 12 28  1  0  0  0  0
 13 14  2  0  0  0  0
 13 29  1  0  0  0  0
 14 30  1  0  0  0  0
 15 19  2  0  0  0  0
 15 26  1  0  0  0  0
 16 25  1  0  0  0  0
 16 28  2  0  0  0  0
 17 30  2  0  0  0  0
 17 31  1  0  0  0  0
 18 32  1  0  0  0  0
 19 34  1  0  0  0  0
 20 26  2  0  0  0  0
 20 38  1  0  0  0  0
 21 32  1  0  0  0  0
 21 33  2  0  0  0  0
 21 39  1  0  0  0  0
 22 24  2  0  0  0  0
 22 44  1  0  0  0  0
 23 25  2  0  0  0  0
 23 45  1  0  0  0  0
 24 53  1  0  0  0  0
 25 46  1  0  0  0  0
 26 62  1  0  0  0  0
 27 82  1  0  0  0  0
 28 83  1  0  0  0  0
 29 31  2  0  0  0  0
 29 82  1  0  0  0  0
 30 84  1  0  0  0  0
 31 85  1  0  0  0  0
 32 67  2  0  0  0  0
 33 68  1  0  0  0  0
 33 71  1  0  0  0  0
 34 35  2  0  0  0  0
 35 40  1  0  0  0  0
 36 37  2  0  0  0  0
 36 38  1  0  0  0  0
 37 63  1  0  0  0  0
 38 76  2  0  0  0  0
 39 72  1  0  0  0  0
 39 77  2  0  0  0  0
 40 69  1  0  0  0  0
 40 78  2  0  0  0  0
 41 54  1  0  0  0  0
 41 73  1  0  0  0  0
 41 79  2  0  0  0  0
 42 64  1  0  0  0  0
 42 70  1  0  0  0  0
 42 80  2  0  0  0  0
 43 65  1  0  0  0  0
 43 74  1  0  0  0  0
 43 81  2  0  0  0  0
 44 47  1  0  0  0  0
 45 54  1  0  0  0  0
 46 70  1  0  0  0  0
 47 49  1  0  0  0  0
 48 50  1  0  0  0  0
 48 51  1  0  0  0  0
 49 53  1  0  0  0  0
 50 55  1  0  0  0  0
 51 69  1  0  0  0  0
 52 55  1  0  0  0  0
 52 69  1  0  0  0  0
 53 73  1  0  0  0  0
 54 70  1  0  0  0  0
 55 68  1  0  0  0  0
 56 62  1  0  0  0  0
 57 65  1  0  0  0  0
 58 66  1  0  0  0  0
 59 66  1  0  0  0  0
 60 66  1  0  0  0  0
 61 75  1  0  0  0  0
 63 83  1  0  0  0  0
 64 66  1  0  0  0  0
 64 74  1  0  0  0  0
 65 75  1  0  0  0  0
 67 68  1  0  0  0  0
M  CHG  1  75   1
M  ISO  4  35 100  40 100  63 101  83 101
M  END
> <Batch ID>
0121

> <Smiles>
CCc1cc(C=[100CH:0][100C:0](=O)N2CCCC(n3nc(-c4ccc(Oc5ccc(F)cc5F)cc4)c(C(N)=O)c3N)C2)ccc1C(=O)C=C[101CH2:1][101O:1]c1ccc2c(c1)CN(C(=O)C(NC(=O)C(C)NC)C(C)(C)C)C(C(=O)NC1CCCc3ccccc31)C2

> <Shape>
0.272

> <Color>
0.102

> <Negative vol penalty>
0.000

$$$$

  -OEChem-04052301573D

 84 92  0     1  0  0  0  0  0999 V2000
  -26.9030  -35.6519   23.4380 C   0  0  0  0  0  0  0  0  0  0  0  0
  -27.3083  -34.3445   23.1892 C   0  0  0  0  0  0  0  0  0  0  0  0
  -23.1320   -9.9724   21.8126 C   0  0  0  0  0  0  0  0  0  0  0  0
  -24.2786   -8.8058   20.0347 C   0  0  0  0  0  0  0  0  0  0  0  0
  -25.4323  -21.2488   16.6339 C   0  0  0  0  0  0  0  0  0  0  0  0
  -25.6203  -35.9024   23.9237 C   0  0  0  0  0  0  0  0  0  0  0  0
  -26.4313  -33.2867   23.4270 C   0  0  0  0  0  0  0  0  0  0  0  0
  -26.4074  -29.8992   19.6628 C   0  0  0  0  0  0  0  0  0  0  0  0
  -25.4455  -22.4308   15.8936 C   0  0  0  0  0  0  0  0  0  0  0  0
  -22.3176   -8.8588   22.0182 C   0  0  0  0  0  0  0  0  0  0  0  0
  -23.4643   -7.6921   20.2403 C   0  0  0  0  0  0  0  0  0  0  0  0
  -27.4695  -28.9975   19.6109 C   0  0  0  0  0  0  0  0  0  0  0  0
  -20.1771   -6.1923   23.2521 C   0  0  0  0  0  0  0  0  0  0  0  0
  -19.9580   -5.7830   24.5674 C   0  0  0  0  0  0  0  0  0  0  0  0
  -26.9161  -22.2488   18.2573 C   0  0  0  0  0  0  0  0  0  0  0  0
  -26.0821  -27.3134   20.6397 C   0  0  0  0  0  0  0  0  0  0  0  0
  -22.3319   -5.4383   24.8556 C   0  0  0  0  0  0  0  0  0  0  0  0
  -24.1124   -9.9460   20.8208 C   0  0  0  0  0  0  0  0  0  0  0  0
  -26.1676  -21.1578   17.8158 C   0  0  0  0  0  0  0  0  0  0  0  0
  -26.9293  -23.4309   17.5169 C   0  0  0  0  0  0  0  0  0  0  0  0
  -26.1892  -11.3717   21.2234 C   0  0  0  0  0  0  0  0  0  0  0  0
  -24.7239  -34.8479   24.1584 C   0  0  0  0  0  0  0  0  0  0  0  0
  -25.1759  -29.5174   20.2144 C   0  0  0  0  0  0  0  0  0  0  0  0
  -25.1359  -33.5233   23.9176 C   0  0  0  0  0  0  0  0  0  0  0  0
  -25.0052  -28.2113   20.6951 C   0  0  0  0  0  0  0  0  0  0  0  0
  -26.1940  -23.5219   16.3350 C   0  0  0  0  0  0  0  0  0  0  0  0
  -22.4838   -7.7187   21.2321 C   0  0  0  0  0  0  0  0  0  0  0  0
  -27.3079  -27.7053   20.1020 C   0  0  0  0  0  0  0  0  0  0  0  0
  -21.4735   -6.2244   22.7384 C   0  0  0  0  0  0  0  0  0  0  0  0
  -21.0354   -5.4061   25.3692 C   0  0  0  0  0  0  0  0  0  0  0  0
  -22.5509   -5.8475   23.5402 C   0  0  0  0  0  0  0  0  0  0  0  0
  -24.9536  -11.0962   20.6076 C   0  0  0  0  0  0  0  0  0  0  0  0
  -26.5803  -12.5736   20.6858 C   0  0  0  0  0  0  0  0  0  0  0  0
  -31.2229  -25.4701   18.7759 C   0  0  0  0  0  0  0  0  0  0  0  0
  -26.1530  -19.9245   18.5868 C   0  0  0  0  0  0  0  0  0  0  0  0
  -27.7300  -24.5663   18.0089 C   0  0  0  0  0  0  0  0  0  0  0  0
  -25.2138  -18.9584   18.5013 C   0  0  0  0  0  0  0  0  0  0  0  0
  -29.0627  -24.5410   18.1794 C   0  0  0  0  0  0  0  0  0  0  0  0
  -26.9182  -10.6093   22.1944 C   0  0  0  0  0  0  0  0  0  0  0  0
  -29.8951  -25.6427   18.6548 C   0  0  0  0  0  0  0  0  0  0  0  0
  -25.3445  -17.7549   19.3470 C   0  0  0  0  0  0  0  0  0  0  0  0
  -23.4285  -30.4865   22.6865 C   0  0  0  0  0  0  0  0  0  0  0  0
  -21.2663  -28.3906   21.4805 C   0  0  0  0  0  0  0  0  0  0  0  0
  -20.6668  -25.6106   19.5939 C   0  0  0  0  0  0  0  0  0  0  0  0
  -23.3640  -35.1645   24.7285 C   0  0  0  0  0  0  0  0  0  0  0  0
  -24.0319  -30.4936   20.2387 C   0  0  0  0  0  0  0  0  0  0  0  0
  -23.6971  -27.7457   21.2786 C   0  0  0  0  0  0  0  0  0  0  0  0
  -22.3669  -34.0159   24.5991 C   0  0  0  0  0  0  0  0  0  0  0  0
  -24.7578  -15.2000   16.7857 C   0  0  0  0  0  0  0  0  0  0  0  0
  -23.0079  -32.7011   25.0318 C   0  0  0  0  0  0  0  0  0  0  0  0
  -24.8126  -13.9257   17.6241 C   0  0  0  0  0  0  0  0  0  0  0  0
  -24.1557  -16.3700   17.5624 C   0  0  0  0  0  0  0  0  0  0  0  0
  -24.8897  -15.3591   19.7024 C   0  0  0  0  0  0  0  0  0  0  0  0
  -24.2049  -32.3510   24.1396 C   0  0  1  0  0  0  0  0  0  0  0  0
  -22.9803  -30.1558   21.2910 C   0  0  1  0  0  0  0  0  0  0  0  0
  -25.5354  -14.1812   18.9561 C   0  0  1  0  0  0  0  0  0  0  0  0
  -26.1855  -24.7723   15.5155 C   0  0  0  0  0  0  0  0  0  0  0  0
  -18.8032  -24.1170   18.8236 C   0  0  0  0  0  0  0  0  0  0  0  0
  -21.1562  -27.1059   24.2459 C   0  0  0  0  0  0  0  0  0  0  0  0
  -20.0620  -25.1119   23.1994 C   0  0  0  0  0  0  0  0  0  0  0  0
  -18.9381  -27.3373   23.1140 C   0  0  0  0  0  0  0  0  0  0  0  0
  -21.1962  -26.2239   16.7474 C   0  0  0  0  0  0  0  0  0  0  0  0
  -29.2767  -26.9764   18.9848 C   0  0  0  0  0  0  0  0  0  1  0  0
  -20.9763  -26.9221   21.6768 C   0  0  1  0  0  0  0  0  0  0  0  0
  -19.6522  -25.3361   18.4986 C   0  0  2  0  0  0  0  0  0  0  0  0
  -20.3085  -26.6284   23.0498 C   0  0  0  0  0  0  0  0  0  0  0  0
  -24.5841  -12.0467   19.7449 N   0  0  0  0  0  0  0  0  0  0  0  0
  -25.5935  -12.9312   19.8149 N   0  0  0  0  0  0  0  0  0  0  0  0
  -24.8254  -16.5573   18.8582 N   0  0  0  0  0  0  0  0  0  0  0  0
  -22.6104  -28.7389   21.2859 N   0  0  0  0  0  0  0  0  0  0  0  0
  -27.6686  -13.3489   20.8779 N   0  0  0  0  0  0  0  0  0  0  0  0
  -26.3726   -9.3973   22.6389 N   0  0  0  0  0  0  0  0  0  0  0  0
  -23.7521  -31.8169   22.8731 N   0  0  0  0  0  0  0  0  0  0  0  0
  -20.1835  -26.5051   20.5253 N   0  0  0  0  0  0  0  0  0  0  0  0
  -20.3436  -25.0949   17.2007 N   0  3  0  0  0  0  0  0  0  0  0  0
  -28.0129  -10.9996   22.6665 O   0  0  0  0  0  0  0  0  0  0  0  0
  -25.9019  -17.8846   20.4384 O   0  0  0  0  0  0  0  0  0  0  0  0
  -23.4758  -29.6005   23.5318 O   0  0  0  0  0  0  0  0  0  0  0  0
  -20.3338  -29.1980   21.4920 O   0  0  0  0  0  0  0  0  0  0  0  0
  -21.7757  -25.0814   19.6226 O   0  0  0  0  0  0  0  0  0  0  0  0
  -21.6895   -6.6317   21.4326 O   0  0  0  0  0  0  0  0  0  0  0  0
  -28.3431  -26.8234   20.0531 O   0  0  0  0  0  0  0  0  0  1  0  0
  -20.8250   -5.0146   26.6328 F   0  0  0  0  0  0  0  0  0  0  0  0
  -23.7988   -5.8775   23.0526 F   0  0  0  0  0  0  0  0  0  0  0  0
  1  2  1  0  0  0  0
  1  6  2  0  0  0  0
  2  7  2  0  0  0  0
  3 10  2  0  0  0  0
  3 18  1  0  0  0  0
  4 11  1  0  0  0  0
  4 18  2  0  0  0  0
  5  9  2  0  0  0  0
  5 19  1  0  0  0  0
  6 22  1  0  0  0  0
  7 24  1  0  0  0  0
  8 12  2  0  0  0  0
  8 23  1  0  0  0  0
  9 26  1  0  0  0  0
 10 27  1  0  0  0  0
 11 27  2  0  0  0  0
 12 28  1  0  0  0  0
 13 14  2  0  0  0  0
 13 29  1  0  0  0  0
 14 30  1  0  0  0  0
 15 19  2  0  0  0  0
 15 20  1  0  0  0  0
 16 25  1  0  0  0  0
 16 28  2  0  0  0  0
 17 30  2  0  0  0  0
 17 31  1  0  0  0  0
 18 32  1  0  0  0  0
 19 35  1  0  0  0  0
 20 26  2  0  0  0  0
 20 36  1  0  0  0  0
 21 32  1  0  0  0  0
 21 33  2  0  0  0  0
 21 39  1  0  0  0  0
 22 24  2  0  0  0  0
 22 45  1  0  0  0  0
 23 25  2  0  0  0  0
 23 46  1  0  0  0  0
 24 54  1  0  0  0  0
 25 47  1  0  0  0  0
 26 57  1  0  0  0  0
 27 81  1  0  0  0  0
 28 82  1  0  0  0  0
 29 31  2  0  0  0  0
 29 81  1  0  0  0  0
 30 83  1  0  0  0  0
 31 84  1  0  0  0  0
 32 67  2  0  0  0  0
 33 68  1  0  0  0  0
 33 71  1  0  0  0  0
 34 40  2  0  0  0  0
 35 37  2  0  0  0  0
 36 38  2  0  0  0  0
 37 41  1  0  0  0  0
 38 40  1  0  0  0  0
 39 72  1  0  0  0  0
 39 76  2  0  0  0  0
 40 63  1  0  0  0  0
 41 69  1  0  0  0  0
 41 77  2  0  0  0  0
 42 55  1  0  0  0  0
 42 73  1  0  0  0  0
 42 78  2  0  0  0  0
 43 64  1  0  0  0  0
 43 70  1  0  0  0  0
 43 79  2  0  0  0  0
 44 65  1  0  0  0  0
 44 74  1  0  0  0  0
 44 80  2  0  0  0  0
 45 48  1  0  0  0  0
 46 55  1  0  0  0  0
 47 70  1  0  0  0  0
 48 50  1  0  0  0  0
 49 51  1  0  0  0  0
 49 52  1  0  0  0  0
 50 54  1  0  0  0  0
 51 56  1  0  0  0  0
 52 69  1  0  0  0  0
 53 56  1  0  0  0  0
 53 69  1  0  0  0  0
 54 73  1  0  0  0  0
 55 70  1  0  0  0  0
 56 68  1  0  0  0  0
 58 65  1  0  0  0  0
 59 66  1  0  0  0  0
 60 66  1  0  0  0  0
 61 66  1  0  0  0  0
 62 75  1  0  0  0  0
 63 82  1  0  0  0  0
 64 66  1  0  0  0  0
 64 74  1  0  0  0  0
 65 75  1  0  0  0  0
 67 68  1  0  0  0  0
M  CHG  1  75   1
M  ISO  4  37 100  41 100  63 101  82 101
M  END
> <Batch ID>
0121

> <Smiles>
C=C(C=Cc1cc(C=[100CH:0][100C:0](=O)N2CCCC(n3nc(-c4ccc(Oc5ccc(F)cc5F)cc4)c(C(N)=O)c3N)C2)ccc1C)[101CH2:1][101O:1]c1ccc2c(c1)CN(C(=O)C(NC(=O)C(C)NC)C(C)(C)C)C(C(=O)NC1CCCc3ccccc31)C2

> <Shape>
0.279

> <Color>
0.112

> <Negative vol penalty>
0.000

$$$$

  -OEChem-04052301573D

 83 91  0     1  0  0  0  0  0999 V2000
  -16.9853  -30.6443   23.6282 C   0  0  0  0  0  0  0  0  0  0  0  0
  -18.2776  -30.7982   24.1197 C   0  0  0  0  0  0  0  0  0  0  0  0
  -24.2325  -14.9329   20.8684 C   0  0  0  0  0  0  0  0  0  0  0  0
  -26.0768  -13.4119   21.2175 C   0  0  0  0  0  0  0  0  0  0  0  0
  -16.6152  -29.4537   23.0042 C   0  0  0  0  0  0  0  0  0  0  0  0
  -19.2004  -29.7611   23.9884 C   0  0  0  0  0  0  0  0  0  0  0  0
  -25.2303  -30.2939   23.0602 C   0  0  0  0  0  0  0  0  0  0  0  0
  -23.4649  -13.8853   20.3596 C   0  0  0  0  0  0  0  0  0  0  0  0
  -25.3092  -12.3643   20.7087 C   0  0  0  0  0  0  0  0  0  0  0  0
  -26.3217  -30.2317   23.9256 C   0  0  0  0  0  0  0  0  0  0  0  0
  -23.7123   -9.2166   19.8368 C   0  0  0  0  0  0  0  0  0  0  0  0
  -23.7271   -8.0054   20.5284 C   0  0  0  0  0  0  0  0  0  0  0  0
  -32.6357  -26.7184   20.3646 C   0  0  0  0  0  0  0  0  0  0  0  0
  -26.6251  -27.9049   23.3660 C   0  0  0  0  0  0  0  0  0  0  0  0
  -22.8555   -9.1147   22.4898 C   0  0  0  0  0  0  0  0  0  0  0  0
  -25.5385  -14.6962   21.2973 C   0  0  0  0  0  0  0  0  0  0  0  0
  -31.8478  -25.9810   21.2804 C   0  0  0  0  0  0  0  0  0  0  0  0
  -26.4210  -16.1936   23.1646 C   0  0  0  0  0  0  0  0  0  0  0  0
  -17.5368  -28.4051   22.8566 C   0  0  0  0  0  0  0  0  0  0  0  0
  -24.8208  -29.1573   22.3483 C   0  0  0  0  0  0  0  0  0  0  0  0
  -18.8419  -28.5548   23.3630 C   0  0  0  0  0  0  0  0  0  0  0  0
  -25.5299  -27.9560   22.4903 C   0  0  0  0  0  0  0  0  0  0  0  0
  -24.0032  -12.6010   20.2797 C   0  0  0  0  0  0  0  0  0  0  0  0
  -27.0175  -29.0364   24.0807 C   0  0  0  0  0  0  0  0  0  0  0  0
  -23.2692  -10.3769   20.4717 C   0  0  0  0  0  0  0  0  0  0  0  0
  -23.2987   -7.9544   21.8549 C   0  0  0  0  0  0  0  0  0  0  0  0
  -22.8408  -10.3259   21.7982 C   0  0  0  0  0  0  0  0  0  0  0  0
  -26.3321  -15.7781   21.8225 C   0  0  0  0  0  0  0  0  0  0  0  0
  -31.2456  -24.9835   20.5494 C   0  0  0  0  0  0  0  0  0  0  0  0
  -32.4591  -26.1188   19.1393 C   0  0  0  0  0  0  0  0  0  0  0  0
  -27.2982  -17.2502   23.1396 C   0  0  0  0  0  0  0  0  0  0  0  0
  -31.6987  -26.2273   22.7244 C   0  0  0  0  0  0  0  0  0  0  0  0
  -30.3574  -23.9780   21.0044 C   0  0  0  0  0  0  0  0  0  0  0  0
  -29.7893  -22.9819   20.2505 C   0  0  0  0  0  0  0  0  0  0  0  0
  -31.7600  -27.4311   23.3152 C   0  0  0  0  0  0  0  0  0  0  0  0
  -25.7690  -15.6711   24.3298 C   0  0  0  0  0  0  0  0  0  0  0  0
  -28.8853  -21.9963   20.8768 C   0  0  0  0  0  0  0  0  0  0  0  0
  -22.1734  -27.4003   22.2580 C   0  0  0  0  0  0  0  0  0  0  0  0
  -23.7089  -25.9147   19.8172 C   0  0  0  0  0  0  0  0  0  0  0  0
  -26.6658  -25.1283   18.3055 C   0  0  0  0  0  0  0  0  0  0  0  0
  -17.0767  -27.1190   22.2170 C   0  0  0  0  0  0  0  0  0  0  0  0
  -23.6580  -29.2478   21.3985 C   0  0  0  0  0  0  0  0  0  0  0  0
  -25.1430  -26.7126   21.7334 C   0  0  0  0  0  0  0  0  0  0  0  0
  -18.2238  -26.2096   21.7842 C   0  0  0  0  0  0  0  0  0  0  0  0
  -30.3426  -18.9334   19.4888 C   0  0  0  0  0  0  0  0  0  0  0  0
  -19.2627  -26.0952   22.8953 C   0  0  0  0  0  0  0  0  0  0  0  0
  -29.3964  -17.8765   20.0521 C   0  0  0  0  0  0  0  0  0  0  0  0
  -29.6173  -20.2409   19.1742 C   0  0  0  0  0  0  0  0  0  0  0  0
  -27.9069  -19.7346   20.8943 C   0  0  0  0  0  0  0  0  0  0  0  0
  -19.8786  -27.4620   23.2176 C   0  0  1  0  0  0  0  0  0  0  0  0
  -23.0123  -27.8953   21.1139 C   0  0  1  0  0  0  0  0  0  0  0  0
  -28.6245  -18.4265   21.2620 C   0  0  1  0  0  0  0  0  0  0  0  0
  -32.9910  -26.3964   17.7980 C   0  0  0  0  0  0  0  0  0  0  0  0
  -27.6037  -23.8699   16.3474 C   0  0  0  0  0  0  0  0  0  0  0  0
  -23.2220  -23.2813   21.2795 C   0  0  0  0  0  0  0  0  0  0  0  0
  -24.9565  -22.2271   19.8137 C   0  0  0  0  0  0  0  0  0  0  0  0
  -22.8832  -23.1780   18.8038 C   0  0  0  0  0  0  0  0  0  0  0  0
  -27.8615  -27.5790   17.1551 C   0  0  0  0  0  0  0  0  0  0  0  0
  -31.5972  -27.6347   24.7949 C   0  0  0  0  0  0  0  0  0  0  0  0
  -30.4456  -28.5911   25.0989 C   0  0  0  0  0  0  0  0  0  0  0  0
  -29.1158  -28.0440   24.5988 C   0  0  0  0  0  0  0  0  0  1  0  0
  -24.6534  -24.7425   19.7041 C   0  0  1  0  0  0  0  0  0  0  0  0
  -27.1109  -25.2155   16.8568 C   0  0  2  0  0  0  0  0  0  0  0  0
  -23.9351  -23.3799   19.9161 C   0  0  0  0  0  0  0  0  0  0  0  0
  -27.0921  -16.5111   21.0045 N   0  0  0  0  0  0  0  0  0  0  0  0
  -27.6668  -17.3978   21.8348 N   0  0  0  0  0  0  0  0  0  0  0  0
  -28.8393  -20.7159   20.3282 N   0  0  0  0  0  0  0  0  0  0  0  0
  -23.9953  -26.8500   20.8216 N   0  0  0  0  0  0  0  0  0  0  0  0
  -27.7823  -18.0582   24.1067 N   0  0  0  0  0  0  0  0  0  0  0  0
  -24.8993  -14.5827   24.1772 N   0  0  0  0  0  0  0  0  0  0  0  0
  -20.8587  -27.8235   22.2160 N   0  0  0  0  0  0  0  0  0  0  0  0
  -25.3146  -24.8744   18.4103 N   0  0  0  0  0  0  0  0  0  0  0  0
  -28.2154  -26.2056   16.7130 N   0  3  0  0  0  0  0  0  0  0  0  0
  -25.9395  -16.1655   25.4700 O   0  0  0  0  0  0  0  0  0  0  0  0
  -28.2216  -22.3690   21.8459 O   0  0  0  0  0  0  0  0  0  0  0  0
  -22.6811  -26.6861   23.1146 O   0  0  0  0  0  0  0  0  0  0  0  0
  -22.7563  -26.0010   19.0383 O   0  0  0  0  0  0  0  0  0  0  0  0
  -27.4401  -25.2677   19.2498 O   0  0  0  0  0  0  0  0  0  0  0  0
  -31.6131  -25.0605   19.2434 O   0  0  0  0  0  0  0  0  0  0  0  0
  -23.2544  -11.5785   19.7835 O   0  0  0  0  0  0  0  0  0  0  0  0
  -28.0827  -28.9728   24.9252 O   0  0  0  0  0  0  0  0  0  1  0  0
  -23.3115   -6.7909   22.5184 F   0  0  0  0  0  0  0  0  0  0  0  0
  -22.4128  -11.4371   22.4131 F   0  0  0  0  0  0  0  0  0  0  0  0
  1  2  1  0  0  0  0
  1  5  2  0  0  0  0
  2  6  2  0  0  0  0
  3  8  2  0  0  0  0
  3 16  1  0  0  0  0
  4  9  1  0  0  0  0
  4 16  2  0  0  0  0
  5 19  1  0  0  0  0
  6 21  1  0  0  0  0
  7 10  2  0  0  0  0
  7 20  1  0  0  0  0
  8 23  1  0  0  0  0
  9 23  2  0  0  0  0
 10 24  1  0  0  0  0
 11 12  2  0  0  0  0
 11 25  1  0  0  0  0
 12 26  1  0  0  0  0
 13 17  1  0  0  0  0
 13 30  2  0  0  0  0
 14 22  1  0  0  0  0
 14 24  2  0  0  0  0
 15 26  2  0  0  0  0
 15 27  1  0  0  0  0
 16 28  1  0  0  0  0
 17 29  2  0  0  0  0
 17 32  1  0  0  0  0
 18 28  1  0  0  0  0
 18 31  2  0  0  0  0
 18 36  1  0  0  0  0
 19 21  2  0  0  0  0
 19 41  1  0  0  0  0
 20 22  2  0  0  0  0
 20 42  1  0  0  0  0
 21 50  1  0  0  0  0
 22 43  1  0  0  0  0
 23 80  1  0  0  0  0
 24 81  1  0  0  0  0
 25 27  2  0  0  0  0
 25 80  1  0  0  0  0
 26 82  1  0  0  0  0
 27 83  1  0  0  0  0
 28 65  2  0  0  0  0
 29 33  1  0  0  0  0
 29 79  1  0  0  0  0
 30 53  1  0  0  0  0
 30 79  1  0  0  0  0
 31 66  1  0  0  0  0
 31 69  1  0  0  0  0
 32 35  2  0  0  0  0
 33 34  2  0  0  0  0
 34 37  1  0  0  0  0
 35 59  1  0  0  0  0
 36 70  1  0  0  0  0
 36 74  2  0  0  0  0
 37 67  1  0  0  0  0
 37 75  2  0  0  0  0
 38 51  1  0  0  0  0
 38 71  1  0  0  0  0
 38 76  2  0  0  0  0
 39 62  1  0  0  0  0
 39 68  1  0  0  0  0
 39 77  2  0  0  0  0
 40 63  1  0  0  0  0
 40 72  1  0  0  0  0
 40 78  2  0  0  0  0
 41 44  1  0  0  0  0
 42 51  1  0  0  0  0
 43 68  1  0  0  0  0
 44 46  1  0  0  0  0
 45 47  1  0  0  0  0
 45 48  1  0  0  0  0
 46 50  1  0  0  0  0
 47 52  1  0  0  0  0
 48 67  1  0  0  0  0
 49 52  1  0  0  0  0
 49 67  1  0  0  0  0
 50 71  1  0  0  0  0
 51 68  1  0  0  0  0
 52 66  1  0  0  0  0
 54 63  1  0  0  0  0
 55 64  1  0  0  0  0
 56 64  1  0  0  0  0
 57 64  1  0  0  0  0
 58 73  1  0  0  0  0
 59 60  1  0  0  0  0
 60 61  1  0  0  0  0
 61 81  1  0  0  0  0
 62 64  1  0  0  0  0
 62 72  1  0  0  0  0
 63 73  1  0  0  0  0
 65 66  1  0  0  0  0
M  CHG  1  73   1
M  ISO  4  34 100  37 100  61 101  81 101
M  END
> <Batch ID>
0121

> <Smiles>
CNC(C)C(=O)NC(C(=O)N1Cc2cc([101O:1][101CH2:1]CCC=Cc3cc(C)oc3C=[100CH:0][100C:0](=O)N3CCCC(n4nc(-c5ccc(Oc6ccc(F)cc6F)cc5)c(C(N)=O)c4N)C3)ccc2CC1C(=O)NC1CCCc2ccccc21)C(C)(C)C

> <Shape>
0.252

> <Color>
0.063

> <Negative vol penalty>
0.000

$$$$

  -OEChem-04052301573D

 85 94  0     1  0  0  0  0  0999 V2000
  -28.8363  -35.4547   27.0670 C   0  0  0  0  0  0  0  0  0  0  0  0
  -28.8171  -34.1703   26.5328 C   0  0  0  0  0  0  0  0  0  0  0  0
  -24.2158   -9.5154   22.2066 C   0  0  0  0  0  0  0  0  0  0  0  0
  -24.3080   -8.8884   19.8751 C   0  0  0  0  0  0  0  0  0  0  0  0
  -27.6603  -36.2012   27.1270 C   0  0  0  0  0  0  0  0  0  0  0  0
  -27.6214  -33.6312   26.0593 C   0  0  0  0  0  0  0  0  0  0  0  0
  -28.1709  -31.3115   21.5915 C   0  0  0  0  0  0  0  0  0  0  0  0
  -31.1991  -21.8049   19.2547 C   0  0  0  0  0  0  0  0  0  0  0  0
  -30.6397  -22.8139   20.0386 C   0  0  0  0  0  0  0  0  0  0  0  0
  -23.1227   -8.6688   22.3910 C   0  0  0  0  0  0  0  0  0  0  0  0
  -23.2149   -8.0418   20.0596 C   0  0  0  0  0  0  0  0  0  0  0  0
  -28.7338  -30.0360   21.6012 C   0  0  0  0  0  0  0  0  0  0  0  0
  -20.5340   -6.3992   23.5582 C   0  0  0  0  0  0  0  0  0  0  0  0
  -20.5331   -5.5773   24.6852 C   0  0  0  0  0  0  0  0  0  0  0  0
  -29.5745  -21.1463   21.4248 C   0  0  0  0  0  0  0  0  0  0  0  0
  -26.5315  -29.0693   21.4147 C   0  0  0  0  0  0  0  0  0  0  0  0
  -22.5759   -4.5343   23.9262 C   0  0  0  0  0  0  0  0  0  0  0  0
  -24.8085   -9.6252   20.9486 C   0  0  0  0  0  0  0  0  0  0  0  0
  -30.1339  -20.1373   20.6408 C   0  0  0  0  0  0  0  0  0  0  0  0
  -27.2994  -10.1735   20.8989 C   0  0  0  0  0  0  0  0  0  0  0  0
  -26.4515  -35.6746   26.6452 C   0  0  0  0  0  0  0  0  0  0  0  0
  -26.7810  -31.4754   21.5041 C   0  0  0  0  0  0  0  0  0  0  0  0
  -26.4278  -34.3708   26.1142 C   0  0  0  0  0  0  0  0  0  0  0  0
  -25.9537  -30.3480   21.4014 C   0  0  0  0  0  0  0  0  0  0  0  0
  -30.9462  -20.4666   19.5557 C   0  0  0  0  0  0  0  0  0  0  0  0
  -29.8274  -22.4846   21.1236 C   0  0  0  0  0  0  0  0  0  0  0  0
  -22.6222   -7.9320   21.3175 C   0  0  0  0  0  0  0  0  0  0  0  0
  -27.9139  -28.9146   21.5158 C   0  0  0  0  0  0  0  0  0  0  0  0
  -21.5558   -6.2885   22.6151 C   0  0  0  0  0  0  0  0  0  0  0  0
  -21.5540   -4.6449   24.8693 C   0  0  0  0  0  0  0  0  0  0  0  0
  -22.5768   -5.3561   22.7992 C   0  0  0  0  0  0  0  0  0  0  0  0
  -25.9373  -10.5000   20.7574 C   0  0  0  0  0  0  0  0  0  0  0  0
  -27.9639  -11.3404   20.6105 C   0  0  0  0  0  0  0  0  0  0  0  0
  -28.5671  -25.5669   22.6345 C   0  0  0  0  0  0  0  0  0  0  0  0
  -29.8518  -18.7488   20.9809 C   0  0  0  0  0  0  0  0  0  0  0  0
  -28.0938  -26.8129   22.5264 C   0  0  0  0  0  0  0  0  0  1  0  0
  -28.6280  -18.1824   20.9981 C   0  0  0  0  0  0  0  0  0  0  0  0
  -27.9093   -8.9268   21.2587 C   0  0  0  0  0  0  0  0  0  0  0  0
  -28.5061  -16.7548   21.3556 C   0  0  0  0  0  0  0  0  0  0  0  0
  -24.5500  -32.7461   23.3780 C   0  0  0  0  0  0  0  0  0  0  0  0
  -22.6266  -32.1476   20.8354 C   0  0  0  0  0  0  0  0  0  0  0  0
  -22.0434  -30.3257   18.0092 C   0  0  0  0  0  0  0  0  0  0  0  0
  -25.1967  -36.5013   26.7747 C   0  0  0  0  0  0  0  0  0  0  0  0
  -26.1914  -32.8587   21.4678 C   0  0  0  0  0  0  0  0  0  0  0  0
  -24.4571  -30.4705   21.2853 C   0  0  0  0  0  0  0  0  0  0  0  0
  -28.1679  -24.5833   23.6885 C   0  0  0  0  0  0  0  0  0  0  0  0
  -29.4862  -24.9077   21.6505 C   0  0  0  0  0  0  0  0  0  0  0  0
  -24.0444  -35.9993   25.9084 C   0  0  0  0  0  0  0  0  0  0  0  0
  -26.3242  -15.6726   18.6170 C   0  0  0  0  0  0  0  0  0  0  0  0
  -23.8926  -34.4877   26.0457 C   0  0  0  0  0  0  0  0  0  0  0  0
  -26.1061  -14.2055   18.9776 C   0  0  0  0  0  0  0  0  0  0  0  0
  -28.3145  -23.2424   22.9748 C   0  0  0  0  0  0  0  0  0  0  0  0
  -26.4481  -16.5542   19.8587 C   0  0  0  0  0  0  0  0  0  0  0  0
  -27.2781  -14.6259   21.1753 C   0  0  0  0  0  0  0  0  0  0  0  0
  -25.1553  -33.7607   25.5677 C   0  0  1  0  0  0  0  0  0  0  0  0
  -24.7269  -32.8953   21.8934 C   0  0  1  0  0  0  0  0  0  0  0  0
  -27.1976  -13.7138   19.9413 C   0  0  1  0  0  0  0  0  0  0  0  0
  -31.5625  -19.4121   18.6937 C   0  0  0  0  0  0  0  0  0  0  0  0
  -20.3700  -30.0377   16.1615 C   0  0  0  0  0  0  0  0  0  0  0  0
  -20.7813  -30.6440   22.7443 C   0  0  0  0  0  0  0  0  0  0  0  0
  -19.6820  -29.6026   20.7505 C   0  0  0  0  0  0  0  0  0  0  0  0
  -19.6034  -32.0758   21.0660 C   0  0  0  0  0  0  0  0  0  0  0  0
  -24.0276  -31.0623   15.9405 C   0  0  0  0  0  0  0  0  0  0  0  0
  -21.7791  -30.9815   20.3871 C   0  0  1  0  0  0  0  0  0  0  0  0
  -21.6414  -30.7438   16.6063 C   0  0  2  0  0  0  0  0  0  0  0  0
  -20.4895  -30.8233   21.2411 C   0  0  0  0  0  0  0  0  0  0  0  0
  -25.7464  -11.7745   20.4065 N   0  0  0  0  0  0  0  0  0  0  0  0
  -26.9972  -12.2592   20.3253 N   0  0  0  0  0  0  0  0  0  0  0  0
  -29.2727  -23.4841   21.8987 N   0  0  3  0  0  0  0  0  0  0  0  0
  -27.4570  -16.0308   20.7920 N   0  0  0  0  0  0  0  0  0  0  0  0
  -23.9278  -31.8441   21.2604 N   0  0  0  0  0  0  0  0  0  0  0  0
  -29.2751  -11.6599   20.5757 N   0  0  0  0  0  0  0  0  0  0  0  0
  -27.0795   -7.8284   21.5220 N   0  0  0  0  0  0  0  0  0  0  0  0
  -25.1956  -33.7153   24.1218 N   0  0  0  0  0  0  0  0  0  0  0  0
  -21.5321  -31.1801   18.9630 N   0  0  0  0  0  0  0  0  0  0  0  0
  -22.7250  -30.4154   15.6374 N   0  3  0  0  0  0  0  0  0  0  0  0
  -29.1527   -8.7952   21.3602 O   0  0  0  0  0  0  0  0  0  0  0  0
  -29.3392  -16.2910   22.1364 O   0  0  0  0  0  0  0  0  0  0  0  0
  -23.8763  -31.8209   23.8162 O   0  0  0  0  0  0  0  0  0  0  0  0
  -22.1540  -33.2865   20.8028 O   0  0  0  0  0  0  0  0  0  0  0  0
  -22.7383  -29.3377   18.2364 O   0  0  0  0  0  0  0  0  0  0  0  0
  -21.5557   -7.1057   21.4972 O   0  0  0  0  0  0  0  0  0  0  0  0
  -28.4606  -27.6684   21.5258 O   0  0  0  0  0  0  0  0  0  1  0  0
  -21.5538   -3.8568   25.9524 F   0  0  0  0  0  0  0  0  0  0  0  0
  -23.5618   -5.2460   21.8972 F   0  0  0  0  0  0  0  0  0  0  0  0
  1  2  1  0  0  0  0
  1  5  2  0  0  0  0
  2  6  2  0  0  0  0
  3 10  2  0  0  0  0
  3 18  1  0  0  0  0
  4 11  1  0  0  0  0
  4 18  2  0  0  0  0
  5 21  1  0  0  0  0
  6 23  1  0  0  0  0
  7 12  2  0  0  0  0
  7 22  1  0  0  0  0
  8  9  2  0  0  0  0
  8 25  1  0  0  0  0
  9 26  1  0  0  0  0
 10 27  1  0  0  0  0
 11 27  2  0  0  0  0
 12 28  1  0  0  0  0
 13 14  2  0  0  0  0
 13 29  1  0  0  0  0
 14 30  1  0  0  0  0
 15 19  1  0  0  0  0
 15 26  2  0  0  0  0
 16 24  1  0  0  0  0
 16 28  2  0  0  0  0
 17 30  2  0  0  0  0
 17 31  1  0  0  0  0
 18 32  1  0  0  0  0
 19 25  2  0  0  0  0
 19 35  1  0  0  0  0
 20 32  1  0  0  0  0
 20 33  2  0  0  0  0
 20 38  1  0  0  0  0
 21 23  2  0  0  0  0
 21 43  1  0  0  0  0
 22 24  2  0  0  0  0
 22 44  1  0  0  0  0
 23 55  1  0  0  0  0
 24 45  1  0  0  0  0
 25 58  1  0  0  0  0
 26 69  1  0  0  0  0
 27 82  1  0  0  0  0
 28 83  1  0  0  0  0
 29 31  2  0  0  0  0
 29 82  1  0  0  0  0
 30 84  1  0  0  0  0
 31 85  1  0  0  0  0
 32 67  2  0  0  0  0
 33 68  1  0  0  0  0
 33 72  1  0  0  0  0
 34 36  2  0  0  0  0
 34 46  1  0  0  0  0
 34 47  1  0  0  0  0
 35 37  2  0  0  0  0
 36 83  1  0  0  0  0
 37 39  1  0  0  0  0
 38 73  1  0  0  0  0
 38 77  2  0  0  0  0
 39 70  1  0  0  0  0
 39 78  2  0  0  0  0
 40 56  1  0  0  0  0
 40 74  1  0  0  0  0
 40 79  2  0  0  0  0
 41 64  1  0  0  0  0
 41 71  1  0  0  0  0
 41 80  2  0  0  0  0
 42 65  1  0  0  0  0
 42 75  1  0  0  0  0
 42 81  2  0  0  0  0
 43 48  1  0  0  0  0
 44 56  1  0  0  0  0
 45 71  1  0  0  0  0
 46 52  1  0  0  0  0
 47 69  1  0  0  0  0
 48 50  1  0  0  0  0
 49 51  1  0  0  0  0
 49 53  1  0  0  0  0
 50 55  1  0  0  0  0
 51 57  1  0  0  0  0
 52 69  1  0  0  0  0
 53 70  1  0  0  0  0
 54 57  1  0  0  0  0
 54 70  1  0  0  0  0
 55 74  1  0  0  0  0
 56 71  1  0  0  0  0
 57 68  1  0  0  0  0
 59 65  1  0  0  0  0
 60 66  1  0  0  0  0
 61 66  1  0  0  0  0
 62 66  1  0  0  0  0
 63 76  1  0  0  0  0
 64 66  1  0  0  0  0
 64 75  1  0  0  0  0
 65 76  1  0  0  0  0
 67 68  1  0  0  0  0
M  CHG  1  76   1
M  ISO  4  36 101  37 100  39 100  83 101
M  END
> <Batch ID>
0121

> <Smiles>
CNC(C)C(=O)NC(C(=O)N1Cc2cc([101O:1][101CH:1]=C3CCN(c4ccc(C)c(C=[100CH:0][100C:0](=O)N5CCCC(n6nc(-c7ccc(Oc8ccc(F)cc8F)cc7)c(C(N)=O)c6N)C5)c4)C3)ccc2CC1C(=O)NC1CCCc2ccccc21)C(C)(C)C

> <Shape>
0.250

> <Color>
0.105

> <Negative vol penalty>
0.000

$$$$

  -OEChem-04052301573D

 84 92  0     1  0  0  0  0  0999 V2000
  -25.9133  -20.9653   15.8635 C   0  0  0  0  0  0  0  0  0  0  0  0
  -26.8589  -19.9943   16.1772 C   0  0  0  0  0  0  0  0  0  0  0  0
  -33.8291  -16.1786   19.0471 C   0  0  0  0  0  0  0  0  0  0  0  0
  -25.6618  -27.1018   20.0117 C   0  0  0  0  0  0  0  0  0  0  0  0
  -27.3564  -28.6325   19.2226 C   0  0  0  0  0  0  0  0  0  0  0  0
  -32.9233  -17.2375   18.9852 C   0  0  0  0  0  0  0  0  0  0  0  0
  -24.8392  -21.1939   16.7224 C   0  0  0  0  0  0  0  0  0  0  0  0
  -26.7314  -19.2520   17.3507 C   0  0  0  0  0  0  0  0  0  0  0  0
  -28.2755  -13.3842   18.1815 C   0  0  0  0  0  0  0  0  0  0  0  0
  -33.6851  -15.1939   20.0245 C   0  0  0  0  0  0  0  0  0  0  0  0
  -25.1693  -28.0878   20.8666 C   0  0  0  0  0  0  0  0  0  0  0  0
  -26.8638  -29.6185   20.0775 C   0  0  0  0  0  0  0  0  0  0  0  0
  -29.4021  -12.7805   18.7384 C   0  0  0  0  0  0  0  0  0  0  0  0
  -26.2791  -32.4244   22.3124 C   0  0  0  0  0  0  0  0  0  0  0  0
  -27.2035  -33.1626   23.0514 C   0  0  0  0  0  0  0  0  0  0  0  0
  -28.2480  -12.5864   20.8478 C   0  0  0  0  0  0  0  0  0  0  0  0
  -27.9847  -31.1322   24.1024 C   0  0  0  0  0  0  0  0  0  0  0  0
  -26.7554  -27.3741   19.1897 C   0  0  0  0  0  0  0  0  0  0  0  0
  -31.8735  -17.3118   19.9007 C   0  0  0  0  0  0  0  0  0  0  0  0
  -26.8709  -26.1076   16.9783 C   0  0  0  0  0  0  0  0  0  0  0  0
  -24.6932  -20.4474   17.9022 C   0  0  0  0  0  0  0  0  0  0  0  0
  -27.1286  -13.6037   18.9579 C   0  0  0  0  0  0  0  0  0  0  0  0
  -25.6550  -19.4718   18.2270 C   0  0  0  0  0  0  0  0  0  0  0  0
  -27.1072  -13.1907   20.2977 C   0  0  0  0  0  0  0  0  0  0  0  0
  -31.7295  -16.3270   20.8781 C   0  0  0  0  0  0  0  0  0  0  0  0
  -25.7702  -29.3461   20.8995 C   0  0  0  0  0  0  0  0  0  0  0  0
  -29.3895  -12.3842   20.0725 C   0  0  0  0  0  0  0  0  0  0  0  0
  -32.6354  -15.2681   20.9400 C   0  0  0  0  0  0  0  0  0  0  0  0
  -26.2074  -31.0401   22.4684 C   0  0  0  0  0  0  0  0  0  0  0  0
  -28.0563  -32.5165   23.9464 C   0  0  0  0  0  0  0  0  0  0  0  0
  -27.0603  -30.3940   23.3633 C   0  0  0  0  0  0  0  0  0  0  0  0
  -27.2650  -26.3559   18.3068 C   0  0  0  0  0  0  0  0  0  0  0  0
  -27.6470  -25.0457   16.5827 C   0  0  0  0  0  0  0  0  0  0  0  0
  -30.9467  -18.4326   19.8096 C   0  0  0  0  0  0  0  0  0  0  0  0
  -31.2852  -19.7347   19.9009 C   0  0  0  0  0  0  0  0  0  0  0  0
  -25.8910  -26.7771   16.1739 C   0  0  0  0  0  0  0  0  0  0  0  0
  -30.2279  -20.7583   19.7779 C   0  0  0  0  0  0  0  0  0  0  0  0
  -25.5090  -16.1752   19.8896 C   0  0  0  0  0  0  0  0  0  0  0  0
  -23.4412  -13.9681   21.0623 C   0  0  0  0  0  0  0  0  0  0  0  0
  -22.9288  -10.7855   22.1827 C   0  0  0  0  0  0  0  0  0  0  0  0
  -23.5411  -20.7630   18.8231 C   0  0  0  0  0  0  0  0  0  0  0  0
  -25.9121  -14.2319   18.3349 C   0  0  0  0  0  0  0  0  0  0  0  0
  -25.8937  -13.3854   21.1683 C   0  0  0  0  0  0  0  0  0  0  0  0
  -23.2745  -19.6750   19.8601 C   0  0  0  0  0  0  0  0  0  0  0  0
  -31.8747  -22.9837   17.3764 C   0  0  0  0  0  0  0  0  0  0  0  0
  -24.5788  -19.2293   20.5136 C   0  0  0  0  0  0  0  0  0  0  0  0
  -30.8469  -24.1065   17.2639 C   0  0  0  0  0  0  0  0  0  0  0  0
  -31.9208  -22.3896   18.7833 C   0  0  0  0  0  0  0  0  0  0  0  0
  -29.5638  -23.0513   19.1667 C   0  0  0  0  0  0  0  0  0  0  0  0
  -25.5376  -18.6290   19.4784 C   0  0  1  0  0  0  0  0  0  0  0  0
  -24.9801  -14.8729   19.3586 C   0  0  1  0  0  0  0  0  0  0  0  0
  -29.4672  -23.6320   17.7472 C   0  0  1  0  0  0  0  0  0  0  0  0
  -30.8729  -17.4150   22.9684 C   0  0  0  0  0  0  0  0  0  0  0  0
  -21.1418   -9.2871   23.1095 C   0  0  0  0  0  0  0  0  0  0  0  0
  -23.6608  -15.3784   23.7591 C   0  0  0  0  0  0  0  0  0  0  0  0
  -22.6580  -13.3468   24.8246 C   0  0  0  0  0  0  0  0  0  0  0  0
  -21.3478  -14.6492   23.1484 C   0  0  0  0  0  0  0  0  0  0  0  0
  -23.1756   -8.8965   19.9178 C   0  0  0  0  0  0  0  0  0  0  0  0
  -30.6098  -16.3917   21.8696 C   0  0  0  0  0  0  0  0  0  0  0  0
  -32.1967  -11.9402   22.3162 C   0  0  0  0  0  0  0  0  0  0  0  0
  -30.7075  -11.9982   22.0141 C   0  0  0  0  0  0  0  0  0  1  0  0
  -32.9754  -12.9929   21.5431 C   0  0  0  0  0  0  0  0  0  0  0  0
  -23.2924  -13.2322   22.3720 C   0  0  1  0  0  0  0  0  0  0  0  0
  -21.8566   -9.7623   21.8541 C   0  0  2  0  0  0  0  0  0  0  0  0
  -22.7634  -14.1496   23.5104 C   0  0  0  0  0  0  0  0  0  0  0  0
  -28.2174  -25.5190   18.7271 N   0  0  0  0  0  0  0  0  0  0  0  0
  -28.4281  -24.7344   17.6565 N   0  0  0  0  0  0  0  0  0  0  0  0
  -30.5811  -21.9972   19.2460 N   0  0  0  0  0  0  0  0  0  0  0  0
  -24.7314  -14.0097   20.5150 N   0  0  0  0  0  0  0  0  0  0  0  0
  -27.7306  -24.3573   15.4245 N   0  0  0  0  0  0  0  0  0  0  0  0
  -25.1838  -27.8486   16.7361 N   0  0  0  0  0  0  0  0  0  0  0  0
  -25.1394  -17.2784   19.1440 N   0  0  0  0  0  0  0  0  0  0  0  0
  -22.4480  -12.0749   22.0962 N   0  0  0  0  0  0  0  0  0  0  0  0
  -22.4600   -8.5780   21.1801 N   0  3  0  0  0  0  0  0  0  0  0  0
  -25.6379  -26.4247   14.9969 O   0  0  0  0  0  0  0  0  0  0  0  0
  -29.0958  -20.4550   20.1588 O   0  0  0  0  0  0  0  0  0  0  0  0
  -26.1999  -16.1791   20.9016 O   0  0  0  0  0  0  0  0  0  0  0  0
  -22.4480  -14.4807   20.5403 O   0  0  0  0  0  0  0  0  0  0  0  0
  -24.0770  -10.4721   22.4893 O   0  0  0  0  0  0  0  0  0  0  0  0
  -25.2897  -30.3085   21.7334 O   0  0  0  0  0  0  0  0  0  0  0  0
  -30.4880  -11.7953   20.6188 O   0  0  0  0  0  0  0  0  0  1  0  0
  -32.5104  -14.2898   21.8918 O   0  0  0  0  0  0  0  0  0  0  0  0
  -28.9450  -33.2254   24.6549 F   0  0  0  0  0  0  0  0  0  0  0  0
  -26.9969  -29.0642   23.5166 F   0  0  0  0  0  0  0  0  0  0  0  0
  1  2  1  0  0  0  0
  1  7  2  0  0  0  0
  2  8  2  0  0  0  0
  3  6  1  0  0  0  0
  3 10  2  0  0  0  0
  4 11  2  0  0  0  0
  4 18  1  0  0  0  0
  5 12  1  0  0  0  0
  5 18  2  0  0  0  0
  6 19  2  0  0  0  0
  7 21  1  0  0  0  0
  8 23  1  0  0  0  0
  9 13  2  0  0  0  0
  9 22  1  0  0  0  0
 10 28  1  0  0  0  0
 11 26  1  0  0  0  0
 12 26  2  0  0  0  0
 13 27  1  0  0  0  0
 14 15  2  0  0  0  0
 14 29  1  0  0  0  0
 15 30  1  0  0  0  0
 16 24  1  0  0  0  0
 16 27  2  0  0  0  0
 17 30  2  0  0  0  0
 17 31  1  0  0  0  0
 18 32  1  0  0  0  0
 19 25  1  0  0  0  0
 19 34  1  0  0  0  0
 20 32  1  0  0  0  0
 20 33  2  0  0  0  0
 20 36  1  0  0  0  0
 21 23  2  0  0  0  0
 21 41  1  0  0  0  0
 22 24  2  0  0  0  0
 22 42  1  0  0  0  0
 23 50  1  0  0  0  0
 24 43  1  0  0  0  0
 25 28  2  0  0  0  0
 25 59  1  0  0  0  0
 26 80  1  0  0  0  0
 27 81  1  0  0  0  0
 28 82  1  0  0  0  0
 29 31  2  0  0  0  0
 29 80  1  0  0  0  0
 30 83  1  0  0  0  0
 31 84  1  0  0  0  0
 32 66  2  0  0  0  0
 33 67  1  0  0  0  0
 33 70  1  0  0  0  0
 34 35  2  0  0  0  0
 35 37  1  0  0  0  0
 36 71  1  0  0  0  0
 36 75  2  0  0  0  0
 37 68  1  0  0  0  0
 37 76  2  0  0  0  0
 38 51  1  0  0  0  0
 38 72  1  0  0  0  0
 38 77  2  0  0  0  0
 39 63  1  0  0  0  0
 39 69  1  0  0  0  0
 39 78  2  0  0  0  0
 40 64  1  0  0  0  0
 40 73  1  0  0  0  0
 40 79  2  0  0  0  0
 41 44  1  0  0  0  0
 42 51  1  0  0  0  0
 43 69  1  0  0  0  0
 44 46  1  0  0  0  0
 45 47  1  0  0  0  0
 45 48  1  0  0  0  0
 46 50  1  0  0  0  0
 47 52  1  0  0  0  0
 48 68  1  0  0  0  0
 49 52  1  0  0  0  0
 49 68  1  0  0  0  0
 50 72  1  0  0  0  0
 51 69  1  0  0  0  0
 52 67  1  0  0  0  0
 53 59  1  0  0  0  0
 54 64  1  0  0  0  0
 55 65  1  0  0  0  0
 56 65  1  0  0  0  0
 57 65  1  0  0  0  0
 58 74  1  0  0  0  0
 60 61  1  0  0  0  0
 60 62  1  0  0  0  0
 61 81  1  0  0  0  0
 62 82  1  0  0  0  0
 63 65  1  0  0  0  0
 63 73  1  0  0  0  0
 64 74  1  0  0  0  0
 66 67  1  0  0  0  0
M  CHG  1  74   1
M  ISO  4  35 100  37 100  61 101  81 101
M  END
> <Batch ID>
0121

> <Smiles>
CCc1c(C=[100CH:0][100C:0](=O)N2CCCC(n3nc(-c4ccc(Oc5ccc(F)cc5F)cc4)c(C(N)=O)c3N)C2)cccc1OCC[101CH2:1][101O:1]c1ccc2c(c1)CN(C(=O)C(NC(=O)C(C)NC)C(C)(C)C)C(C(=O)NC1CCCc3ccccc31)C2

> <Shape>
0.250

> <Color>
0.081

> <Negative vol penalty>
0.000

$$$$

  -OEChem-04052301573D

 83 91  0     1  0  0  0  0  0999 V2000
  -17.5371  -32.1917   22.9213 C   0  0  0  0  0  0  0  0  0  0  0  0
  -18.7112  -32.3567   22.1935 C   0  0  0  0  0  0  0  0  0  0  0  0
  -24.1065   -9.7769   22.1504 C   0  0  0  0  0  0  0  0  0  0  0  0
  -23.1408   -9.8849   19.9385 C   0  0  0  0  0  0  0  0  0  0  0  0
  -30.4906  -22.5121   21.6292 C   0  0  0  0  0  0  0  0  0  0  0  0
  -30.2563  -21.1386   21.6933 C   0  0  0  0  0  0  0  0  0  0  0  0
  -17.4717  -31.2292   23.9279 C   0  0  0  0  0  0  0  0  0  0  0  0
  -19.8210  -31.5600   22.4726 C   0  0  0  0  0  0  0  0  0  0  0  0
  -25.4295  -28.4748   19.2566 C   0  0  0  0  0  0  0  0  0  0  0  0
  -23.0935   -8.9055   22.5502 C   0  0  0  0  0  0  0  0  0  0  0  0
  -22.1277   -9.0135   20.3383 C   0  0  0  0  0  0  0  0  0  0  0  0
  -26.8163  -28.3813   19.3657 C   0  0  0  0  0  0  0  0  0  0  0  0
  -22.3589   -5.6215   22.2213 C   0  0  0  0  0  0  0  0  0  0  0  0
  -22.7257   -4.4956   22.9584 C   0  0  0  0  0  0  0  0  0  0  0  0
  -29.6246  -22.5548   19.3742 C   0  0  0  0  0  0  0  0  0  0  0  0
  -26.5622  -26.6968   21.0737 C   0  0  0  0  0  0  0  0  0  0  0  0
  -21.3333   -5.2393   24.7874 C   0  0  0  0  0  0  0  0  0  0  0  0
  -24.1302  -10.2667   20.8445 C   0  0  0  0  0  0  0  0  0  0  0  0
  -30.1747  -23.2203   20.4697 C   0  0  0  0  0  0  0  0  0  0  0  0
  -29.7062  -20.4731   20.5977 C   0  0  0  0  0  0  0  0  0  0  0  0
  -26.4211  -10.8243   19.8706 C   0  0  0  0  0  0  0  0  0  0  0  0
  -18.5782  -30.4137   24.2130 C   0  0  0  0  0  0  0  0  0  0  0  0
  -24.5972  -27.6866   20.0643 C   0  0  0  0  0  0  0  0  0  0  0  0
  -19.7708  -30.5866   23.4849 C   0  0  0  0  0  0  0  0  0  0  0  0
  -25.1653  -26.7804   20.9711 C   0  0  0  0  0  0  0  0  0  0  0  0
  -29.3903  -21.1812   19.4382 C   0  0  0  0  0  0  0  0  0  0  0  0
  -22.1040   -8.5238   21.6442 C   0  0  0  0  0  0  0  0  0  0  0  0
  -27.3829  -27.4943   20.2763 C   0  0  0  0  0  0  0  0  0  0  0  0
  -21.4793   -6.5564   22.7673 C   0  0  0  0  0  0  0  0  0  0  0  0
  -22.2129   -4.3044   24.2414 C   0  0  0  0  0  0  0  0  0  0  0  0
  -20.9665   -6.3653   24.0503 C   0  0  0  0  0  0  0  0  0  0  0  0
  -25.1761  -11.1674   20.4311 C   0  0  0  0  0  0  0  0  0  0  0  0
  -27.0448  -12.0290   19.6561 C   0  0  0  0  0  0  0  0  0  0  0  0
  -30.4232  -24.6699   20.4028 C   0  0  0  0  0  0  0  0  0  0  0  0
  -29.4731  -19.0383   20.6955 C   0  0  0  0  0  0  0  0  0  0  0  0
  -28.6562  -18.4389   21.5856 C   0  0  0  0  0  0  0  0  0  0  0  0
  -30.5283  -25.3848   19.2716 C   0  0  0  0  0  0  0  0  0  0  0  0
  -26.9650   -9.5321   19.5705 C   0  0  0  0  0  0  0  0  0  0  0  0
  -28.5175  -16.9690   21.5516 C   0  0  0  0  0  0  0  0  0  0  0  0
  -22.4023  -28.2877   22.2835 C   0  0  0  0  0  0  0  0  0  0  0  0
  -21.9483  -25.0787   22.1476 C   0  0  0  0  0  0  0  0  0  0  0  0
  -23.2190  -22.0022   21.3943 C   0  0  0  0  0  0  0  0  0  0  0  0
  -18.4752  -29.4191   25.3421 C   0  0  0  0  0  0  0  0  0  0  0  0
  -23.1034  -27.7801   19.9156 C   0  0  0  0  0  0  0  0  0  0  0  0
  -24.3158  -25.8973   21.8469 C   0  0  0  0  0  0  0  0  0  0  0  0
  -19.5747  -28.3603   25.3234 C   0  0  0  0  0  0  0  0  0  0  0  0
  -25.2773  -16.7479   19.8533 C   0  0  0  0  0  0  0  0  0  0  0  0
  -20.9366  -29.0089   25.0966 C   0  0  0  0  0  0  0  0  0  0  0  0
  -25.0483  -15.2388   19.8530 C   0  0  0  0  0  0  0  0  0  0  0  0
  -26.0157  -17.2139   21.1072 C   0  0  0  0  0  0  0  0  0  0  0  0
  -27.0713  -14.9845   21.3440 C   0  0  0  0  0  0  0  0  0  0  0  0
  -20.9879  -29.7247   23.7414 C   0  0  1  0  0  0  0  0  0  0  0  0
  -22.3487  -27.3008   21.1518 C   0  0  1  0  0  0  0  0  0  0  0  0
  -26.3715  -14.4874   20.0694 C   0  0  1  0  0  0  0  0  0  0  0  0
  -28.8005  -20.5009   18.2447 C   0  0  0  0  0  0  0  0  0  0  0  0
  -22.6248  -19.5643   21.4240 C   0  0  0  0  0  0  0  0  0  0  0  0
  -22.3539  -25.0193   25.1711 C   0  0  0  0  0  0  0  0  0  0  0  0
  -22.6976  -22.5448   25.0064 C   0  0  0  0  0  0  0  0  0  0  0  0
  -20.5133  -23.5463   24.3363 C   0  0  0  0  0  0  0  0  0  0  0  0
  -23.5470  -21.7675   18.4623 C   0  0  0  0  0  0  0  0  0  0  0  0
  -30.7957  -26.8649   19.2487 C   0  0  0  0  0  0  0  0  0  0  0  0
  -29.5022  -27.6702   19.2117 C   0  0  0  0  0  0  0  0  0  1  0  0
  -22.5371  -23.8846   22.8592 C   0  0  1  0  0  0  0  0  0  0  0  0
  -22.6456  -20.8424   20.6002 C   0  0  2  0  0  0  0  0  0  0  0  0
  -22.0418  -23.7666   24.3283 C   0  0  0  0  0  0  0  0  0  0  0  0
  -25.0168  -12.4867   20.5645 N   0  0  0  0  0  0  0  0  0  0  0  0
  -26.1698  -12.9833   20.0849 N   0  0  0  0  0  0  0  0  0  0  0  0
  -27.2478  -16.4409   21.3248 N   0  0  0  0  0  0  0  0  0  0  0  0
  -22.8604  -26.0300   21.6689 N   0  0  0  0  0  0  0  0  0  0  0  0
  -28.2510  -12.3546   19.1446 N   0  0  0  0  0  0  0  0  0  0  0  0
  -26.1906   -8.3989   19.8541 N   0  0  0  0  0  0  0  0  0  0  0  0
  -21.1656  -28.7674   22.6707 N   0  0  0  0  0  0  0  0  0  0  0  0
  -22.2310  -22.7237   22.0304 N   0  0  0  0  0  0  0  0  0  0  0  0
  -23.4605  -20.5995   19.3763 N   0  3  0  0  0  0  0  0  0  0  0  0
  -28.1107   -9.3859   19.0810 O   0  0  0  0  0  0  0  0  0  0  0  0
  -29.5351  -16.2976   21.7313 O   0  0  0  0  0  0  0  0  0  0  0  0
  -23.4853  -28.5904   22.7704 O   0  0  0  0  0  0  0  0  0  0  0  0
  -20.7247  -25.1608   22.0148 O   0  0  0  0  0  0  0  0  0  0  0  0
  -24.4233  -22.2418   21.4481 O   0  0  0  0  0  0  0  0  0  0  0  0
  -21.1154   -7.6733   22.0339 O   0  0  0  0  0  0  0  0  0  0  0  0
  -28.7361  -27.4014   20.3853 O   0  0  0  0  0  0  0  0  0  1  0  0
  -22.5641   -3.2224   24.9485 F   0  0  0  0  0  0  0  0  0  0  0  0
  -20.1202   -7.2593   24.5796 F   0  0  0  0  0  0  0  0  0  0  0  0
  1  2  1  0  0  0  0
  1  7  2  0  0  0  0
  2  8  2  0  0  0  0
  3 10  2  0  0  0  0
  3 18  1  0  0  0  0
  4 11  1  0  0  0  0
  4 18  2  0  0  0  0
  5  6  2  0  0  0  0
  5 19  1  0  0  0  0
  6 20  1  0  0  0  0
  7 22  1  0  0  0  0
  8 24  1  0  0  0  0
  9 12  2  0  0  0  0
  9 23  1  0  0  0  0
 10 27  1  0  0  0  0
 11 27  2  0  0  0  0
 12 28  1  0  0  0  0
 13 14  2  0  0  0  0
 13 29  1  0  0  0  0
 14 30  1  0  0  0  0
 15 19  2  0  0  0  0
 15 26  1  0  0  0  0
 16 25  1  0  0  0  0
 16 28  2  0  0  0  0
 17 30  2  0  0  0  0
 17 31  1  0  0  0  0
 18 32  1  0  0  0  0
 19 34  1  0  0  0  0
 20 26  2  0  0  0  0
 20 35  1  0  0  0  0
 21 32  1  0  0  0  0
 21 33  2  0  0  0  0
 21 38  1  0  0  0  0
 22 24  2  0  0  0  0
 22 43  1  0  0  0  0
 23 25  2  0  0  0  0
 23 44  1  0  0  0  0
 24 52  1  0  0  0  0
 25 45  1  0  0  0  0
 26 55  1  0  0  0  0
 27 80  1  0  0  0  0
 28 81  1  0  0  0  0
 29 31  2  0  0  0  0
 29 80  1  0  0  0  0
 30 82  1  0  0  0  0
 31 83  1  0  0  0  0
 32 66  2  0  0  0  0
 33 67  1  0  0  0  0
 33 70  1  0  0  0  0
 34 37  2  0  0  0  0
 35 36  2  0  0  0  0
 36 39  1  0  0  0  0
 37 61  1  0  0  0  0
 38 71  1  0  0  0  0
 38 75  2  0  0  0  0
 39 68  1  0  0  0  0
 39 76  2  0  0  0  0
 40 53  1  0  0  0  0
 40 72  1  0  0  0  0
 40 77  2  0  0  0  0
 41 63  1  0  0  0  0
 41 69  1  0  0  0  0
 41 78  2  0  0  0  0
 42 64  1  0  0  0  0
 42 73  1  0  0  0  0
 42 79  2  0  0  0  0
 43 46  1  0  0  0  0
 44 53  1  0  0  0  0
 45 69  1  0  0  0  0
 46 48  1  0  0  0  0
 47 49  1  0  0  0  0
 47 50  1  0  0  0  0
 48 52  1  0  0  0  0
 49 54  1  0  0  0  0
 50 68  1  0  0  0  0
 51 54  1  0  0  0  0
 51 68  1  0  0  0  0
 52 72  1  0  0  0  0
 53 69  1  0  0  0  0
 54 67  1  0  0  0  0
 56 64  1  0  0  0  0
 57 65  1  0  0  0  0
 58 65  1  0  0  0  0
 59 65  1  0  0  0  0
 60 74  1  0  0  0  0
 61 62  1  0  0  0  0
 62 81  1  0  0  0  0
 63 65  1  0  0  0  0
 63 73  1  0  0  0  0
 64 74  1  0  0  0  0
 66 67  1  0  0  0  0
M  CHG  1  74   1
M  ISO  4  36 100  39 100  62 101  81 101
M  END
> <Batch ID>
0121

> <Smiles>
CNC(C)C(=O)NC(C(=O)N1Cc2cc([101O:1][101CH2:1]CC=Cc3ccc(C=[100CH:0][100C:0](=O)N4CCCC(n5nc(-c6ccc(Oc7ccc(F)cc7F)cc6)c(C(N)=O)c5N)C4)c(C)c3)ccc2CC1C(=O)NC1CCCc2ccccc21)C(C)(C)C

> <Shape>
0.285

> <Color>
0.107

> <Negative vol penalty>
0.000

$$$$

  -OEChem-04052301573D

 85 93  0     1  0  0  0  0  0999 V2000
  -31.9194  -32.4849   14.5887 C   0  0  0  0  0  0  0  0  0  0  0  0
  -32.1610  -31.1246   14.7520 C   0  0  0  0  0  0  0  0  0  0  0  0
  -22.9996   -9.8928   19.9818 C   0  0  0  0  0  0  0  0  0  0  0  0
  -23.7246   -9.9452   22.2858 C   0  0  0  0  0  0  0  0  0  0  0  0
  -31.6343  -33.2792   15.6985 C   0  0  0  0  0  0  0  0  0  0  0  0
  -32.1187  -30.5581   16.0255 C   0  0  0  0  0  0  0  0  0  0  0  0
  -29.5746  -26.1805   16.1207 C   0  0  0  0  0  0  0  0  0  0  0  0
  -22.2328   -8.7586   20.2488 C   0  0  0  0  0  0  0  0  0  0  0  0
  -22.9578   -8.8110   22.5529 C   0  0  0  0  0  0  0  0  0  0  0  0
  -30.2369  -25.0487   15.6471 C   0  0  0  0  0  0  0  0  0  0  0  0
  -23.2015   -5.4717   22.0833 C   0  0  0  0  0  0  0  0  0  0  0  0
  -23.7888   -4.4549   22.8361 C   0  0  0  0  0  0  0  0  0  0  0  0
  -31.1934  -17.6044   20.5688 C   0  0  0  0  0  0  0  0  0  0  0  0
  -30.7217  -24.3901   17.9165 C   0  0  0  0  0  0  0  0  0  0  0  0
  -29.5394  -17.8631   22.3108 C   0  0  0  0  0  0  0  0  0  0  0  0
  -22.0648   -4.6993   24.5110 C   0  0  0  0  0  0  0  0  0  0  0  0
  -23.7455  -10.4861   21.0003 C   0  0  0  0  0  0  0  0  0  0  0  0
  -31.3846  -18.9858   20.5451 C   0  0  0  0  0  0  0  0  0  0  0  0
  -24.1314  -13.0015   20.8226 C   0  0  0  0  0  0  0  0  0  0  0  0
  -31.5789  -32.7203   16.9850 C   0  0  0  0  0  0  0  0  0  0  0  0
  -29.4902  -26.4316   17.4977 C   0  0  0  0  0  0  0  0  0  0  0  0
  -31.8339  -31.3459   17.1537 C   0  0  0  0  0  0  0  0  0  0  0  0
  -30.0556  -25.5244   18.4051 C   0  0  0  0  0  0  0  0  0  0  0  0
  -29.7307  -19.2446   22.2872 C   0  0  0  0  0  0  0  0  0  0  0  0
  -30.6533  -19.8060   21.4043 C   0  0  0  0  0  0  0  0  0  0  0  0
  -30.2707  -17.0430   21.4516 C   0  0  0  0  0  0  0  0  0  0  0  0
  -22.2119   -8.2178   21.5343 C   0  0  0  0  0  0  0  0  0  0  0  0
  -30.8131  -24.1548   16.5449 C   0  0  0  0  0  0  0  0  0  0  0  0
  -22.0459   -6.1024   22.5443 C   0  0  0  0  0  0  0  0  0  0  0  0
  -23.2204   -4.0687   24.0500 C   0  0  0  0  0  0  0  0  0  0  0  0
  -21.4775   -5.7162   23.7581 C   0  0  0  0  0  0  0  0  0  0  0  0
  -24.5383  -11.6573   20.7249 C   0  0  0  0  0  0  0  0  0  0  0  0
  -25.2413  -13.7236   20.4578 C   0  0  0  0  0  0  0  0  0  0  0  0
  -32.3658  -19.5453   19.6004 C   0  0  0  0  0  0  0  0  0  0  0  0
  -32.3019  -19.4389   18.2639 C   0  0  0  0  0  0  0  0  0  0  0  0
  -22.8635  -13.5484   21.2087 C   0  0  0  0  0  0  0  0  0  0  0  0
  -30.5086  -28.7476   19.4220 C   0  0  0  0  0  0  0  0  0  0  0  0
  -28.7973  -27.1198   21.6455 C   0  0  0  0  0  0  0  0  0  0  0  0
  -27.4302  -24.1595   22.6527 C   0  0  0  0  0  0  0  0  0  0  0  0
  -30.7209  -14.6838   20.6916 C   0  0  0  0  0  0  0  0  0  0  0  0
  -31.3134  -33.6279   18.1600 C   0  0  0  0  0  0  0  0  0  0  0  0
  -28.7492  -27.6430   17.9935 C   0  0  0  0  0  0  0  0  0  0  0  0
  -29.9752  -25.7378   19.8939 C   0  0  0  0  0  0  0  0  0  0  0  0
  -30.9182  -32.8797   19.4305 C   0  0  0  0  0  0  0  0  0  0  0  0
  -29.6024  -12.2295   18.3673 C   0  0  0  0  0  0  0  0  0  0  0  0
  -31.8544  -31.6990   19.6678 C   0  0  0  0  0  0  0  0  0  0  0  0
  -28.1517  -11.9724   18.7815 C   0  0  0  0  0  0  0  0  0  0  0  0
  -30.5028  -12.4736   19.5770 C   0  0  0  0  0  0  0  0  0  0  0  0
  -28.5875  -13.2637   20.9098 C   0  0  0  0  0  0  0  0  0  0  0  0
  -31.7726  -30.6899   18.5160 C   0  0  1  0  0  0  0  0  0  0  0  0
  -29.1691  -28.0672   19.3975 C   0  0  1  0  0  0  0  0  0  0  0  0
  -27.6299  -13.0767   19.7216 C   0  0  2  0  0  0  0  0  0  0  0  0
  -30.8499  -21.2904   21.3882 C   0  0  0  0  0  0  0  0  0  0  0  0
  -29.7546  -20.5698   24.4156 C   0  0  0  0  0  0  0  0  0  0  0  0
  -26.1229  -23.1317   24.5321 C   0  0  0  0  0  0  0  0  0  0  0  0
  -31.3142  -27.0777   23.3699 C   0  0  0  0  0  0  0  0  0  0  0  0
  -30.2569  -25.2732   24.7462 C   0  0  0  0  0  0  0  0  0  0  0  0
  -29.1979  -27.5285   24.6239 C   0  0  0  0  0  0  0  0  0  0  0  0
  -25.1831  -23.4563   20.8596 C   0  0  0  0  0  0  0  0  0  0  0  0
  -28.9345  -20.0996   23.2181 C   0  0  0  0  0  0  0  0  0  0  0  0
  -33.3261  -20.0313   17.3378 C   0  0  0  0  0  0  0  0  0  0  0  0
  -32.6828  -21.0013   16.3484 C   0  0  0  0  0  0  0  0  0  0  0  0
  -32.0276  -22.1763   17.0610 C   0  0  0  0  0  0  0  0  0  1  0  0
  -29.0936  -25.9995   22.6131 C   0  0  1  0  0  0  0  0  0  0  0  0
  -26.0473  -23.8148   23.1755 C   0  0  2  0  0  0  0  0  0  0  0  0
  -29.9690  -26.4664   23.8102 C   0  0  0  0  0  0  0  0  0  0  0  0
  -25.8076  -11.5303   20.3290 N   0  0  0  0  0  0  0  0  0  0  0  0
  -26.2078  -12.8039   20.1745 N   0  0  0  0  0  0  0  0  0  0  0  0
  -29.2456  -26.9402   20.3292 N   0  0  0  0  0  0  0  0  0  0  0  0
  -29.9479  -13.5352   20.4195 N   0  0  0  0  0  0  0  0  0  0  0  0
  -25.4750  -15.0492   20.3549 N   0  0  0  0  0  0  0  0  0  0  0  0
  -21.8315  -12.6647   21.5527 N   0  0  0  0  0  0  0  0  0  0  0  0
  -30.0768  -15.6396   21.4765 N   0  0  0  0  0  0  0  0  0  0  0  0
  -30.5779  -29.8819   18.6359 N   0  0  0  0  0  0  0  0  0  0  0  0
  -27.8022  -25.4412   22.9991 N   0  0  0  0  0  0  0  0  0  0  0  0
  -25.3481  -22.9016   22.2278 N   0  3  0  0  0  0  0  0  0  0  0  0
  -22.6470  -14.7837   21.2316 O   0  0  0  0  0  0  0  0  0  0  0  0
  -31.4119  -28.2791   20.1048 O   0  0  0  0  0  0  0  0  0  0  0  0
  -28.1842  -28.1143   22.0412 O   0  0  0  0  0  0  0  0  0  0  0  0
  -28.1136  -23.3694   22.0053 O   0  0  0  0  0  0  0  0  0  0  0  0
  -31.8597  -14.8221   20.2376 O   0  0  0  0  0  0  0  0  0  0  0  0
  -21.4636   -7.1112   21.7953 O   0  0  0  0  0  0  0  0  0  0  0  0
  -31.4606  -23.0497   16.0853 O   0  0  0  0  0  0  0  0  0  1  0  0
  -23.7836   -3.0912   24.7721 F   0  0  0  0  0  0  0  0  0  0  0  0
  -20.3667   -6.3176   24.2057 F   0  0  0  0  0  0  0  0  0  0  0  0
  1  2  1  0  0  0  0
  1  5  2  0  0  0  0
  2  6  2  0  0  0  0
  3  8  2  0  0  0  0
  3 17  1  0  0  0  0
  4  9  1  0  0  0  0
  4 17  2  0  0  0  0
  5 20  1  0  0  0  0
  6 22  1  0  0  0  0
  7 10  2  0  0  0  0
  7 21  1  0  0  0  0
  8 27  1  0  0  0  0
  9 27  2  0  0  0  0
 10 28  1  0  0  0  0
 11 12  2  0  0  0  0
 11 29  1  0  0  0  0
 12 30  1  0  0  0  0
 13 18  2  0  0  0  0
 13 26  1  0  0  0  0
 14 23  1  0  0  0  0
 14 28  2  0  0  0  0
 15 24  1  0  0  0  0
 15 26  2  0  0  0  0
 16 30  2  0  0  0  0
 16 31  1  0  0  0  0
 17 32  1  0  0  0  0
 18 25  1  0  0  0  0
 18 34  1  0  0  0  0
 19 32  1  0  0  0  0
 19 33  2  0  0  0  0
 19 36  1  0  0  0  0
 20 22  2  0  0  0  0
 20 41  1  0  0  0  0
 21 23  2  0  0  0  0
 21 42  1  0  0  0  0
 22 50  1  0  0  0  0
 23 43  1  0  0  0  0
 24 25  2  0  0  0  0
 24 60  1  0  0  0  0
 25 53  1  0  0  0  0
 26 73  1  0  0  0  0
 27 82  1  0  0  0  0
 28 83  1  0  0  0  0
 29 31  2  0  0  0  0
 29 82  1  0  0  0  0
 30 84  1  0  0  0  0
 31 85  1  0  0  0  0
 32 67  2  0  0  0  0
 33 68  1  0  0  0  0
 33 71  1  0  0  0  0
 34 35  2  0  0  0  0
 35 61  1  0  0  0  0
 36 72  1  0  0  0  0
 36 77  2  0  0  0  0
 37 51  1  0  0  0  0
 37 74  1  0  0  0  0
 37 78  2  0  0  0  0
 38 64  1  0  0  0  0
 38 69  1  0  0  0  0
 38 79  2  0  0  0  0
 39 65  1  0  0  0  0
 39 75  1  0  0  0  0
 39 80  2  0  0  0  0
 40 70  1  0  0  0  0
 40 73  1  0  0  0  0
 40 81  2  0  0  0  0
 41 44  1  0  0  0  0
 42 51  1  0  0  0  0
 43 69  1  0  0  0  0
 44 46  1  0  0  0  0
 45 47  1  0  0  0  0
 45 48  1  0  0  0  0
 46 50  1  0  0  0  0
 47 52  1  0  0  0  0
 48 70  1  0  0  0  0
 49 52  1  0  0  0  0
 49 70  1  0  0  0  0
 50 74  1  0  0  0  0
 51 69  1  0  0  0  0
 52 68  1  0  0  0  0
 54 60  1  0  0  0  0
 55 65  1  0  0  0  0
 56 66  1  0  0  0  0
 57 66  1  0  0  0  0
 58 66  1  0  0  0  0
 59 76  1  0  0  0  0
 61 62  1  0  0  0  0
 62 63  1  0  0  0  0
 63 83  1  0  0  0  0
 64 66  1  0  0  0  0
 64 75  1  0  0  0  0
 65 76  1  0  0  0  0
 67 68  1  0  0  0  0
M  CHG  1  76   1
M  ISO  4  40 100  63 101  73 100  83 101
M  END
> <Batch ID>
0121

> <Smiles>
CCc1cc([100NH:0][100C:0](=O)N2CCCC(n3nc(-c4ccc(Oc5ccc(F)cc5F)cc4)c(C(N)=O)c3N)C2)cc(C=CCC[101CH2:1][101O:1]c2ccc3c(c2)CN(C(=O)C(NC(=O)C(C)NC)C(C)(C)C)C(C(=O)NC2CCCc4ccccc42)C3)c1C

> <Shape>
0.249

> <Color>
0.202

> <Negative vol penalty>
0.000

$$$$

  -OEChem-04052301573D

 86 94  0     1  0  0  0  0  0999 V2000
  -28.4744  -32.1424   26.7530 C   0  0  0  0  0  0  0  0  0  0  0  0
  -28.4673  -31.0166   25.9356 C   0  0  0  0  0  0  0  0  0  0  0  0
  -24.5442   -9.8751   22.3364 C   0  0  0  0  0  0  0  0  0  0  0  0
  -22.6754  -11.2508   21.6639 C   0  0  0  0  0  0  0  0  0  0  0  0
  -27.2706  -32.7350   27.1319 C   0  0  0  0  0  0  0  0  0  0  0  0
  -27.2561  -30.4821   25.4976 C   0  0  0  0  0  0  0  0  0  0  0  0
  -27.3223  -29.2990   20.5741 C   0  0  0  0  0  0  0  0  0  0  0  0
  -23.6774   -9.0452   23.0474 C   0  0  0  0  0  0  0  0  0  0  0  0
  -21.8086  -10.4208   22.3749 C   0  0  0  0  0  0  0  0  0  0  0  0
  -27.9667  -28.1169   20.2120 C   0  0  0  0  0  0  0  0  0  0  0  0
  -21.9115   -6.3577   24.7428 C   0  0  0  0  0  0  0  0  0  0  0  0
  -22.0761   -4.9793   24.6068 C   0  0  0  0  0  0  0  0  0  0  0  0
  -32.2870  -19.8516   20.9915 C   0  0  0  0  0  0  0  0  0  0  0  0
  -25.8316  -27.0029   20.0720 C   0  0  0  0  0  0  0  0  0  0  0  0
  -34.4219  -20.9789   21.0840 C   0  0  0  0  0  0  0  0  0  0  0  0
  -21.6696   -5.1651   22.2324 C   0  0  0  0  0  0  0  0  0  0  0  0
  -24.0432  -10.9779   21.6447 C   0  0  0  0  0  0  0  0  0  0  0  0
  -32.9309  -18.6591   20.6616 C   0  0  0  0  0  0  0  0  0  0  0  0
  -34.3203  -18.6264   20.5430 C   0  0  0  0  0  0  0  0  0  0  0  0
  -25.3266  -11.7058   19.5637 C   0  0  0  0  0  0  0  0  0  0  0  0
  -26.0444  -32.2132   26.6904 C   0  0  0  0  0  0  0  0  0  0  0  0
  -25.9261  -29.3391   20.6988 C   0  0  0  0  0  0  0  0  0  0  0  0
  -26.0347  -31.0675   25.8720 C   0  0  0  0  0  0  0  0  0  0  0  0
  -25.1717  -28.1874   20.4334 C   0  0  0  0  0  0  0  0  0  0  0  0
  -35.0658  -19.7863   20.7542 C   0  0  0  0  0  0  0  0  0  0  0  0
  -22.3096   -9.3180   23.0667 C   0  0  0  0  0  0  0  0  0  0  0  0
  -27.2216  -26.9679   19.9636 C   0  0  0  0  0  0  0  0  0  0  0  0
  -21.6259   -7.1398   23.6236 C   0  0  0  0  0  0  0  0  0  0  0  0
  -33.0324  -21.0115   21.2026 C   0  0  0  0  0  0  0  0  0  0  0  0
  -21.9552   -4.3830   23.3516 C   0  0  0  0  0  0  0  0  0  0  0  0
  -21.5050   -6.5435   22.3685 C   0  0  0  0  0  0  0  0  0  0  0  0
  -24.9381  -11.8359   20.9105 C   0  0  0  0  0  0  0  0  0  0  0  0
  -26.1795  -12.7608   19.3489 C   0  0  0  0  0  0  0  0  0  0  0  0
  -35.4078  -16.4987   21.0956 C   0  0  0  0  0  0  0  0  0  0  0  0
  -32.1064  -17.4736   20.4511 C   0  0  0  0  0  0  0  0  0  0  0  0
  -35.0083  -17.3837   20.1985 C   0  0  0  0  0  0  0  0  0  0  0  0
  -31.2730  -16.9333   21.3615 C   0  0  0  0  0  0  0  0  0  0  0  0
  -24.9503  -10.7194   18.5935 C   0  0  0  0  0  0  0  0  0  0  0  0
  -30.4954  -15.7333   20.9928 C   0  0  0  0  0  0  0  0  0  0  0  0
  -23.9025  -29.9245   23.0791 C   0  0  0  0  0  0  0  0  0  0  0  0
  -21.6828  -29.7277   20.7220 C   0  0  0  0  0  0  0  0  0  0  0  0
  -20.8297  -28.5431   17.6372 C   0  0  0  0  0  0  0  0  0  0  0  0
  -24.7673  -32.8600   27.1648 C   0  0  0  0  0  0  0  0  0  0  0  0
  -25.2442  -30.6290   21.0643 C   0  0  0  0  0  0  0  0  0  0  0  0
  -23.6689  -28.1833   20.5336 C   0  0  0  0  0  0  0  0  0  0  0  0
  -23.5406  -32.4545   26.3517 C   0  0  0  0  0  0  0  0  0  0  0  0
  -27.1973  -16.8158   22.1686 C   0  0  0  0  0  0  0  0  0  0  0  0
  -23.5135  -30.9436   26.1438 C   0  0  0  0  0  0  0  0  0  0  0  0
  -26.3586  -15.5751   21.8736 C   0  0  0  0  0  0  0  0  0  0  0  0
  -28.6262  -16.4570   22.5735 C   0  0  0  0  0  0  0  0  0  0  0  0
  -28.4842  -14.3409   21.2919 C   0  0  0  0  0  0  0  0  0  0  0  0
  -24.7422  -30.4730   25.3562 C   0  0  1  0  0  0  0  0  0  0  0  0
  -23.8560  -30.4224   21.6622 C   0  0  1  0  0  0  0  0  0  0  0  0
  -27.0563  -14.6803   20.8370 C   0  0  1  0  0  0  0  0  0  0  0  0
  -36.5568  -19.7946   20.6369 C   0  0  0  0  0  0  0  0  0  0  0  0
  -18.9343  -28.5149   15.9928 C   0  0  0  0  0  0  0  0  0  0  0  0
  -20.2346  -27.6553   22.4303 C   0  0  0  0  0  0  0  0  0  0  0  0
  -18.9370  -26.9874   20.3961 C   0  0  0  0  0  0  0  0  0  0  0  0
  -18.7350  -29.3048   21.2968 C   0  0  0  0  0  0  0  0  0  0  0  0
  -22.4446  -29.9221   15.5758 C   0  0  0  0  0  0  0  0  0  0  0  0
  -29.4362  -24.1170   20.2689 C   0  0  0  0  0  0  0  0  0  0  0  0
  -30.8300  -23.8516   20.8271 C   0  0  0  0  0  0  0  0  0  0  0  0
  -29.1667  -25.6081   20.1163 C   0  0  0  0  0  0  0  0  0  1  0  0
  -31.0844  -22.3634   21.0202 C   0  0  0  0  0  0  0  0  0  0  0  0
  -20.8618  -28.6147   20.1168 C   0  0  1  0  0  0  0  0  0  0  0  0
  -20.2047  -29.2252   16.4337 C   0  0  2  0  0  0  0  0  0  0  0  0
  -19.7206  -28.1398   21.0599 C   0  0  0  0  0  0  0  0  0  0  0  0
  -25.4982  -12.8904   21.5091 N   0  0  0  0  0  0  0  0  0  0  0  0
  -26.2475  -13.4323   20.5340 N   0  0  0  0  0  0  0  0  0  0  0  0
  -29.2519  -15.5537   21.5961 N   0  0  0  0  0  0  0  0  0  0  0  0
  -23.0488  -29.4672   20.9004 N   0  0  0  0  0  0  0  0  0  0  0  0
  -26.8704  -13.1701   18.2637 N   0  0  0  0  0  0  0  0  0  0  0  0
  -24.0647   -9.7047   18.9813 N   0  0  0  0  0  0  0  0  0  0  0  0
  -24.5796  -30.7599   23.9470 N   0  0  0  0  0  0  0  0  0  0  0  0
  -20.4019  -29.1044   18.8218 N   0  0  0  0  0  0  0  0  0  0  0  0
  -21.1595  -29.2340   15.2895 N   0  3  0  0  0  0  0  0  0  0  0  0
  -25.3991  -10.7280   17.4222 O   0  0  0  0  0  0  0  0  0  0  0  0
  -30.9972  -14.9595   20.1754 O   0  0  0  0  0  0  0  0  0  0  0  0
  -23.3629  -28.8619   23.3642 O   0  0  0  0  0  0  0  0  0  0  0  0
  -21.1336  -30.7916   21.0187 O   0  0  0  0  0  0  0  0  0  0  0  0
  -21.6157  -27.6036   17.5367 O   0  0  0  0  0  0  0  0  0  0  0  0
  -21.4635   -8.5082   23.7602 O   0  0  0  0  0  0  0  0  0  0  0  0
  -27.8481  -25.8126   19.6106 O   0  0  0  0  0  0  0  0  0  1  0  0
  -32.3998  -22.1837   21.5265 O   0  0  0  0  0  0  0  0  0  0  0  0
  -22.1148   -3.0595   23.2209 F   0  0  0  0  0  0  0  0  0  0  0  0
  -21.2319   -7.2898   21.2895 F   0  0  0  0  0  0  0  0  0  0  0  0
  1  2  1  0  0  0  0
  1  5  2  0  0  0  0
  2  6  2  0  0  0  0
  3  8  2  0  0  0  0
  3 17  1  0  0  0  0
  4  9  1  0  0  0  0
  4 17  2  0  0  0  0
  5 21  1  0  0  0  0
  6 23  1  0  0  0  0
  7 10  2  0  0  0  0
  7 22  1  0  0  0  0
  8 26  1  0  0  0  0
  9 26  2  0  0  0  0
 10 27  1  0  0  0  0
 11 12  2  0  0  0  0
 11 28  1  0  0  0  0
 12 30  1  0  0  0  0
 13 18  1  0  0  0  0
 13 29  2  0  0  0  0
 14 24  1  0  0  0  0
 14 27  2  0  0  0  0
 15 25  2  0  0  0  0
 15 29  1  0  0  0  0
 16 30  2  0  0  0  0
 16 31  1  0  0  0  0
 17 32  1  0  0  0  0
 18 19  2  0  0  0  0
 18 35  1  0  0  0  0
 19 25  1  0  0  0  0
 19 36  1  0  0  0  0
 20 32  1  0  0  0  0
 20 33  2  0  0  0  0
 20 38  1  0  0  0  0
 21 23  2  0  0  0  0
 21 43  1  0  0  0  0
 22 24  2  0  0  0  0
 22 44  1  0  0  0  0
 23 52  1  0  0  0  0
 24 45  1  0  0  0  0
 25 55  1  0  0  0  0
 26 82  1  0  0  0  0
 27 83  1  0  0  0  0
 28 31  2  0  0  0  0
 28 82  1  0  0  0  0
 29 84  1  0  0  0  0
 30 85  1  0  0  0  0
 31 86  1  0  0  0  0
 32 68  2  0  0  0  0
 33 69  1  0  0  0  0
 33 72  1  0  0  0  0
 34 36  2  0  0  0  0
 35 37  2  0  0  0  0
 37 39  1  0  0  0  0
 38 73  1  0  0  0  0
 38 77  2  0  0  0  0
 39 70  1  0  0  0  0
 39 78  2  0  0  0  0
 40 53  1  0  0  0  0
 40 74  1  0  0  0  0
 40 79  2  0  0  0  0
 41 65  1  0  0  0  0
 41 71  1  0  0  0  0
 41 80  2  0  0  0  0
 42 66  1  0  0  0  0
 42 75  1  0  0  0  0
 42 81  2  0  0  0  0
 43 46  1  0  0  0  0
 44 53  1  0  0  0  0
 45 71  1  0  0  0  0
 46 48  1  0  0  0  0
 47 49  1  0  0  0  0
 47 50  1  0  0  0  0
 48 52  1  0  0  0  0
 49 54  1  0  0  0  0
 50 70  1  0  0  0  0
 51 54  1  0  0  0  0
 51 70  1  0  0  0  0
 52 74  1  0  0  0  0
 53 71  1  0  0  0  0
 54 69  1  0  0  0  0
 56 66  1  0  0  0  0
 57 67  1  0  0  0  0
 58 67  1  0  0  0  0
 59 67  1  0  0  0  0
 60 76  1  0  0  0  0
 61 62  1  0  0  0  0
 61 63  1  0  0  0  0
 62 64  1  0  0  0  0
 63 83  1  0  0  0  0
 64 84  1  0  0  0  0
 65 67  1  0  0  0  0
 65 75  1  0  0  0  0
 66 76  1  0  0  0  0
 68 69  1  0  0  0  0
M  CHG  1  76   1
M  ISO  4  37 100  39 100  63 101  83 101
M  END
> <Batch ID>
0121

> <Smiles>
C=Cc1c(C)cc(OCCC[101CH2:1][101O:1]c2ccc3c(c2)CN(C(=O)C(NC(=O)C(C)NC)C(C)(C)C)C(C(=O)NC2CCCc4ccccc42)C3)cc1C=[100CH:0][100C:0](=O)N1CCCC(n2nc(-c3ccc(Oc4ccc(F)cc4F)cc3)c(C(N)=O)c2N)C1

> <Shape>
0.294

> <Color>
0.093

> <Negative vol penalty>
0.000

$$$$

  -OEChem-04052301573D

 86 94  0     1  0  0  0  0  0999 V2000
  -28.6842  -37.5209   23.0280 C   0  0  0  0  0  0  0  0  0  0  0  0
  -29.0829  -36.3161   22.4581 C   0  0  0  0  0  0  0  0  0  0  0  0
  -31.2605  -18.7234   18.3111 C   0  0  0  0  0  0  0  0  0  0  0  0
  -23.7647  -11.0663   23.4916 C   0  0  0  0  0  0  0  0  0  0  0  0
  -23.6442  -13.4653   23.7503 C   0  0  0  0  0  0  0  0  0  0  0  0
  -30.4804  -19.8055   18.7185 C   0  0  0  0  0  0  0  0  0  0  0  0
  -27.7045  -37.5312   24.0199 C   0  0  0  0  0  0  0  0  0  0  0  0
  -28.5027  -35.1205   22.8807 C   0  0  0  0  0  0  0  0  0  0  0  0
  -27.3082  -30.1925   19.4465 C   0  0  0  0  0  0  0  0  0  0  0  0
  -31.0865  -17.4745   18.9074 C   0  0  0  0  0  0  0  0  0  0  0  0
  -23.1301  -10.9016   24.7228 C   0  0  0  0  0  0  0  0  0  0  0  0
  -23.0095  -13.3007   24.9815 C   0  0  0  0  0  0  0  0  0  0  0  0
  -27.9924  -28.9925   19.2578 C   0  0  0  0  0  0  0  0  0  0  0  0
  -19.9809  -11.0629   25.9433 C   0  0  0  0  0  0  0  0  0  0  0  0
  -18.9517  -10.1248   26.0217 C   0  0  0  0  0  0  0  0  0  0  0  0
  -26.5997  -27.9433   20.9248 C   0  0  0  0  0  0  0  0  0  0  0  0
  -20.1852   -8.9126   27.7087 C   0  0  0  0  0  0  0  0  0  0  0  0
  -24.0218  -12.3481   23.0054 C   0  0  0  0  0  0  0  0  0  0  0  0
  -29.5263  -19.6388   19.7222 C   0  0  0  0  0  0  0  0  0  0  0  0
  -24.0674  -12.6247   20.4698 C   0  0  0  0  0  0  0  0  0  0  0  0
  -27.1051  -36.3362   24.4480 C   0  0  0  0  0  0  0  0  0  0  0  0
  -26.2701  -30.2800   20.3851 C   0  0  0  0  0  0  0  0  0  0  0  0
  -27.5150  -35.1147   23.8802 C   0  0  0  0  0  0  0  0  0  0  0  0
  -25.9022  -29.1449   21.1216 C   0  0  0  0  0  0  0  0  0  0  0  0
  -29.3522  -18.3899   20.3186 C   0  0  0  0  0  0  0  0  0  0  0  0
  -30.1323  -17.3077   19.9111 C   0  0  0  0  0  0  0  0  0  0  0  0
  -22.7525  -12.0188   25.4677 C   0  0  0  0  0  0  0  0  0  0  0  0
  -27.6401  -27.8684   19.9990 C   0  0  0  0  0  0  0  0  0  0  0  0
  -21.1124  -10.9259   26.7475 C   0  0  0  0  0  0  0  0  0  0  0  0
  -19.0538   -9.0496   26.9044 C   0  0  0  0  0  0  0  0  0  0  0  0
  -21.2145   -9.8507   27.6302 C   0  0  0  0  0  0  0  0  0  0  0  0
  -24.6778  -12.5189   21.7339 C   0  0  0  0  0  0  0  0  0  0  0  0
  -25.1150  -12.7726   19.5939 C   0  0  0  0  0  0  0  0  0  0  0  0
  -28.7207  -20.8028   20.1273 C   0  0  0  0  0  0  0  0  0  0  0  0
  -29.2093  -21.9374   20.6525 C   0  0  0  0  0  0  0  0  0  0  0  0
  -22.6776  -12.5923   20.1187 C   0  0  0  0  0  0  0  0  0  0  0  0
  -25.7783  -31.9645   23.0354 C   0  0  0  0  0  0  0  0  0  0  0  0
  -28.7120  -24.3513   20.2780 C   0  0  0  0  0  0  0  0  0  0  0  0
  -22.8398  -30.5982   22.8930 C   0  0  0  0  0  0  0  0  0  0  0  0
  -20.8930  -28.0221   21.7883 C   0  0  0  0  0  0  0  0  0  0  0  0
  -30.6788  -14.8656   20.2007 C   0  0  0  0  0  0  0  0  0  0  0  0
  -26.0840  -36.3926   25.5566 C   0  0  0  0  0  0  0  0  0  0  0  0
  -25.5241  -31.5747   20.5577 C   0  0  0  0  0  0  0  0  0  0  0  0
  -24.7816  -29.1810   22.1273 C   0  0  0  0  0  0  0  0  0  0  0  0
  -25.2512  -35.1196   25.6830 C   0  0  0  0  0  0  0  0  0  0  0  0
  -29.7341  -11.6301   19.0535 C   0  0  0  0  0  0  0  0  0  0  0  0
  -26.1488  -33.8873   25.6331 C   0  0  0  0  0  0  0  0  0  0  0  0
  -28.2729  -11.5029   19.4903 C   0  0  0  0  0  0  0  0  0  0  0  0
  -30.5706  -12.3857   20.0846 C   0  0  0  0  0  0  0  0  0  0  0  0
  -28.5753  -13.5688   20.9142 C   0  0  0  0  0  0  0  0  0  0  0  0
  -26.8914  -33.7995   24.2944 C   0  0  1  0  0  0  0  0  0  0  0  0
  -24.8243  -31.6856   21.9087 C   0  0  1  0  0  0  0  0  0  0  0  0
  -27.6793  -12.8715   19.8775 C   0  0  2  0  0  0  0  0  0  0  0  0
  -26.0486  -17.2789   21.9790 C   0  0  0  0  0  0  0  0  0  0  0  0
  -18.5370  -27.1610   21.8626 C   0  0  0  0  0  0  0  0  0  0  0  0
  -23.2793  -29.6499   25.7596 C   0  0  0  0  0  0  0  0  0  0  0  0
  -21.3845  -28.0440   25.4450 C   0  0  0  0  0  0  0  0  0  0  0  0
  -20.9759  -30.4995   25.2835 C   0  0  0  0  0  0  0  0  0  0  0  0
  -20.6140  -28.1947   18.8470 C   0  0  0  0  0  0  0  0  0  0  0  0
  -28.3292  -18.2032   21.3974 C   0  0  0  0  0  0  0  0  0  0  0  0
  -28.3480  -23.0948   21.0563 C   0  0  0  0  0  0  0  0  0  0  0  0
  -27.8934  -25.5842   20.6105 C   0  0  0  0  0  0  0  0  0  1  0  0
  -27.0720  -17.4964   20.8758 C   0  0  0  0  0  0  0  0  0  0  0  0
  -22.2253  -29.3260   23.4251 C   0  0  1  0  0  0  0  0  0  0  0  0
  -19.5424  -28.0054   21.0953 C   0  0  2  0  0  0  0  0  0  0  0  0
  -21.9887  -29.3793   24.9608 C   0  0  0  0  0  0  0  0  0  0  0  0
  -26.0099  -12.5931   21.6711 N   0  0  0  0  0  0  0  0  0  0  0  0
  -26.2452  -12.7470   20.3569 N   0  0  0  0  0  0  0  0  0  0  0  0
  -24.0866  -30.4717   22.2644 N   0  0  0  0  0  0  0  0  0  0  0  0
  -29.9495  -13.6742   20.3993 N   0  0  0  0  0  0  0  0  0  0  0  0
  -25.1704  -12.9207   18.2533 N   0  0  0  0  0  0  0  0  0  0  0  0
  -21.7334  -12.4337   21.1423 N   0  0  0  0  0  0  0  0  0  0  0  0
  -29.9741  -16.0302   20.5034 N   0  0  0  0  0  0  0  0  0  0  0  0
  -26.0086  -33.3088   23.2579 N   0  0  0  0  0  0  0  0  0  0  0  0
  -21.0159  -29.0981   22.6417 N   0  0  0  0  0  0  0  0  0  0  0  0
  -19.6729  -27.4467   19.7199 N   0  3  0  0  0  0  0  0  0  0  0  0
  -22.2856  -12.6842   18.9307 O   0  0  0  0  0  0  0  0  0  0  0  0
  -26.2681  -31.0295   23.6579 O   0  0  0  0  0  0  0  0  0  0  0  0
  -29.6164  -24.3835   19.4443 O   0  0  0  0  0  0  0  0  0  0  0  0
  -22.2324  -31.6639   23.0238 O   0  0  0  0  0  0  0  0  0  0  0  0
  -21.7514  -27.1641   21.5951 O   0  0  0  0  0  0  0  0  0  0  0  0
  -31.8335  -14.8550   19.7664 O   0  0  0  0  0  0  0  0  0  0  0  0
  -22.1330  -11.8585   26.6690 O   0  0  0  0  0  0  0  0  0  0  0  0
  -28.3068  -26.6961   19.8173 O   0  0  0  0  0  0  0  0  0  1  0  0
  -18.0647   -8.1497   26.9808 F   0  0  0  0  0  0  0  0  0  0  0  0
  -22.2985   -9.7144   28.4062 F   0  0  0  0  0  0  0  0  0  0  0  0
  1  2  1  0  0  0  0
  1  7  2  0  0  0  0
  2  8  2  0  0  0  0
  3  6  1  0  0  0  0
  3 10  2  0  0  0  0
  4 11  2  0  0  0  0
  4 18  1  0  0  0  0
  5 12  1  0  0  0  0
  5 18  2  0  0  0  0
  6 19  2  0  0  0  0
  7 21  1  0  0  0  0
  8 23  1  0  0  0  0
  9 13  2  0  0  0  0
  9 22  1  0  0  0  0
 10 26  1  0  0  0  0
 11 27  1  0  0  0  0
 12 27  2  0  0  0  0
 13 28  1  0  0  0  0
 14 15  2  0  0  0  0
 14 29  1  0  0  0  0
 15 30  1  0  0  0  0
 16 24  1  0  0  0  0
 16 28  2  0  0  0  0
 17 30  2  0  0  0  0
 17 31  1  0  0  0  0
 18 32  1  0  0  0  0
 19 25  1  0  0  0  0
 19 34  1  0  0  0  0
 20 32  1  0  0  0  0
 20 33  2  0  0  0  0
 20 36  1  0  0  0  0
 21 23  2  0  0  0  0
 21 42  1  0  0  0  0
 22 24  2  0  0  0  0
 22 43  1  0  0  0  0
 23 51  1  0  0  0  0
 24 44  1  0  0  0  0
 25 26  2  0  0  0  0
 25 60  1  0  0  0  0
 26 73  1  0  0  0  0
 27 83  1  0  0  0  0
 28 84  1  0  0  0  0
 29 31  2  0  0  0  0
 29 83  1  0  0  0  0
 30 85  1  0  0  0  0
 31 86  1  0  0  0  0
 32 67  2  0  0  0  0
 33 68  1  0  0  0  0
 33 71  1  0  0  0  0
 34 35  2  0  0  0  0
 35 61  1  0  0  0  0
 36 72  1  0  0  0  0
 36 77  2  0  0  0  0
 37 52  1  0  0  0  0
 37 74  1  0  0  0  0
 37 78  2  0  0  0  0
 38 61  1  0  0  0  0
 38 62  1  0  0  0  0
 38 79  2  0  0  0  0
 39 64  1  0  0  0  0
 39 69  1  0  0  0  0
 39 80  2  0  0  0  0
 40 65  1  0  0  0  0
 40 75  1  0  0  0  0
 40 81  2  0  0  0  0
 41 70  1  0  0  0  0
 41 73  1  0  0  0  0
 41 82  2  0  0  0  0
 42 45  1  0  0  0  0
 43 52  1  0  0  0  0
 44 69  1  0  0  0  0
 45 47  1  0  0  0  0
 46 48  1  0  0  0  0
 46 49  1  0  0  0  0
 47 51  1  0  0  0  0
 48 53  1  0  0  0  0
 49 70  1  0  0  0  0
 50 53  1  0  0  0  0
 50 70  1  0  0  0  0
 51 74  1  0  0  0  0
 52 69  1  0  0  0  0
 53 68  1  0  0  0  0
 54 63  1  0  0  0  0
 55 65  1  0  0  0  0
 56 66  1  0  0  0  0
 57 66  1  0  0  0  0
 58 66  1  0  0  0  0
 59 76  1  0  0  0  0
 60 63  1  0  0  0  0
 62 84  1  0  0  0  0
 64 66  1  0  0  0  0
 64 75  1  0  0  0  0
 65 76  1  0  0  0  0
 67 68  1  0  0  0  0
M  CHG  1  76   1
M  ISO  4  41 100  62 101  73 100  84 101
M  END
> <Batch ID>
0121

> <Smiles>
CCCc1c(C=CCC(=O)[101CH2:1][101O:1]c2ccc3c(c2)CN(C(=O)C(NC(=O)C(C)NC)C(C)(C)C)C(C(=O)NC2CCCc4ccccc42)C3)cccc1[100NH:0][100C:0](=O)N1CCCC(n2nc(-c3ccc(Oc4ccc(F)cc4F)cc3)c(C(N)=O)c2N)C1

> <Shape>
0.311

> <Color>
0.126

> <Negative vol penalty>
0.000

$$$$

  -OEChem-04052301573D

 86 94  0     1  0  0  0  0  0999 V2000
  -29.7004  -35.8350   21.0960 C   0  0  0  0  0  0  0  0  0  0  0  0
  -30.0161  -34.6013   20.5358 C   0  0  0  0  0  0  0  0  0  0  0  0
  -22.9289  -10.0745   19.9084 C   0  0  0  0  0  0  0  0  0  0  0  0
  -23.9665   -9.6081   22.0398 C   0  0  0  0  0  0  0  0  0  0  0  0
  -32.1192  -17.9540   20.5665 C   0  0  0  0  0  0  0  0  0  0  0  0
  -28.7559  -35.9139   22.1184 C   0  0  0  0  0  0  0  0  0  0  0  0
  -29.3881  -33.4455   20.9986 C   0  0  0  0  0  0  0  0  0  0  0  0
  -27.8232  -28.5315   17.6957 C   0  0  0  0  0  0  0  0  0  0  0  0
  -22.1704   -8.9095   20.0226 C   0  0  0  0  0  0  0  0  0  0  0  0
  -23.2080   -8.4431   22.1541 C   0  0  0  0  0  0  0  0  0  0  0  0
  -32.1009  -19.2371   20.0198 C   0  0  0  0  0  0  0  0  0  0  0  0
  -28.4367  -27.2938   17.5072 C   0  0  0  0  0  0  0  0  0  0  0  0
  -20.0466   -7.6046   23.0043 C   0  0  0  0  0  0  0  0  0  0  0  0
  -19.4394   -7.3463   24.2333 C   0  0  0  0  0  0  0  0  0  0  0  0
  -27.0465  -26.3481   19.2370 C   0  0  0  0  0  0  0  0  0  0  0  0
  -30.6236  -19.9686   21.7862 C   0  0  0  0  0  0  0  0  0  0  0  0
  -20.6737   -5.2768   24.4082 C   0  0  0  0  0  0  0  0  0  0  0  0
  -23.8270  -10.4238   20.9169 C   0  0  0  0  0  0  0  0  0  0  0  0
  -31.3897  -17.6781   21.7230 C   0  0  0  0  0  0  0  0  0  0  0  0
  -24.2650  -12.9148   21.2498 C   0  0  0  0  0  0  0  0  0  0  0  0
  -28.1089  -34.7597   22.5874 C   0  0  0  0  0  0  0  0  0  0  0  0
  -26.8226  -28.6897   18.6654 C   0  0  0  0  0  0  0  0  0  0  0  0
  -28.4349  -33.5089   22.0293 C   0  0  0  0  0  0  0  0  0  0  0  0
  -26.4201  -27.5882   19.4341 C   0  0  0  0  0  0  0  0  0  0  0  0
  -30.6420  -18.6854   22.3328 C   0  0  0  0  0  0  0  0  0  0  0  0
  -22.3099   -8.0938   21.1455 C   0  0  0  0  0  0  0  0  0  0  0  0
  -28.0504  -26.2026   18.2799 C   0  0  0  0  0  0  0  0  0  0  0  0
  -31.3531  -20.2444   20.6297 C   0  0  0  0  0  0  0  0  0  0  0  0
  -20.9673   -6.6989   22.4773 C   0  0  0  0  0  0  0  0  0  0  0  0
  -19.7530   -6.1824   24.9352 C   0  0  0  0  0  0  0  0  0  0  0  0
  -21.2809   -5.5350   23.1792 C   0  0  0  0  0  0  0  0  0  0  0  0
  -24.6112  -11.6268   20.7992 C   0  0  0  0  0  0  0  0  0  0  0  0
  -25.3364  -13.7001   20.9010 C   0  0  0  0  0  0  0  0  0  0  0  0
  -31.4262  -16.3293   22.2718 C   0  0  0  0  0  0  0  0  0  0  0  0
  -23.0807  -13.3613   21.9235 C   0  0  0  0  0  0  0  0  0  0  0  0
  -26.5080  -30.4419   21.2987 C   0  0  0  0  0  0  0  0  0  0  0  0
  -29.9607  -23.2456   19.1389 C   0  0  0  0  0  0  0  0  0  0  0  0
  -30.8714  -14.4682   20.6473 C   0  0  0  0  0  0  0  0  0  0  0  0
  -23.4985  -29.2317   21.2758 C   0  0  0  0  0  0  0  0  0  0  0  0
  -21.3834  -26.7447   20.2817 C   0  0  0  0  0  0  0  0  0  0  0  0
  -27.1294  -34.8889   23.7269 C   0  0  0  0  0  0  0  0  0  0  0  0
  -26.1520  -30.0249   18.8380 C   0  0  0  0  0  0  0  0  0  0  0  0
  -25.3367  -27.7006   20.4743 C   0  0  0  0  0  0  0  0  0  0  0  0
  -26.2353  -33.6642   23.9034 C   0  0  0  0  0  0  0  0  0  0  0  0
  -29.3044  -12.7392   17.9278 C   0  0  0  0  0  0  0  0  0  0  0  0
  -27.0647  -32.3852   23.8474 C   0  0  0  0  0  0  0  0  0  0  0  0
  -27.9268  -12.3752   18.4800 C   0  0  0  0  0  0  0  0  0  0  0  0
  -30.3746  -12.6800   19.0133 C   0  0  0  0  0  0  0  0  0  0  0  0
  -28.6944  -13.1574   20.7656 C   0  0  0  0  0  0  0  0  0  0  0  0
  -27.7571  -32.2358   22.4873 C   0  0  1  0  0  0  0  0  0  0  0  0
  -25.5039  -30.1954   20.2085 C   0  0  1  0  0  0  0  0  0  0  0  0
  -27.5789  -13.2347   19.7083 C   0  0  2  0  0  0  0  0  0  0  0  0
  -30.5387  -18.9585   24.8231 C   0  0  0  0  0  0  0  0  0  0  0  0
  -18.9892  -26.0115   20.4474 C   0  0  0  0  0  0  0  0  0  0  0  0
  -23.9820  -28.3092   24.1438 C   0  0  0  0  0  0  0  0  0  0  0  0
  -21.9959  -26.8013   23.9197 C   0  0  0  0  0  0  0  0  0  0  0  0
  -21.7119  -29.2721   23.7263 C   0  0  0  0  0  0  0  0  0  0  0  0
  -21.0169  -26.8829   17.3482 C   0  0  0  0  0  0  0  0  0  0  0  0
  -29.8527  -18.4172   23.5726 C   0  0  0  0  0  0  0  0  0  0  0  0
  -30.4106  -15.2656   21.8413 C   0  0  0  0  0  0  0  0  0  0  0  0
  -28.7397  -24.1371   19.2362 C   0  0  0  0  0  0  0  0  0  1  0  0
  -30.1612  -22.2729   20.2828 C   0  0  0  0  0  0  0  0  0  0  0  0
  -22.8359  -28.0030   21.8506 C   0  0  1  0  0  0  0  0  0  0  0  0
  -20.0118  -26.7884   19.6328 C   0  0  2  0  0  0  0  0  0  0  0  0
  -22.6532  -28.0944   23.3919 C   0  0  0  0  0  0  0  0  0  0  0  0
  -25.8089  -11.5917   20.2090 N   0  0  0  0  0  0  0  0  0  0  0  0
  -32.3349  -15.9710   23.1488 N   0  0  0  0  0  0  0  0  0  0  0  0
  -26.2246  -12.8674   20.2863 N   0  0  0  0  0  0  0  0  0  0  0  0
  -24.7155  -29.0285   20.6099 N   0  0  0  0  0  0  0  0  0  0  0  0
  -29.9964  -13.4912   20.1718 N   0  0  0  0  0  0  0  0  0  0  0  0
  -25.5961  -15.0150   21.0631 N   0  0  0  0  0  0  0  0  0  0  0  0
  -22.0784  -12.4232   22.2053 N   0  0  0  0  0  0  0  0  0  0  0  0
  -26.8159  -31.7755   21.4889 N   0  0  0  0  0  0  0  0  0  0  0  0
  -21.5909  -27.8268   21.1107 N   0  0  0  0  0  0  0  0  0  0  0  0
  -20.0671  -26.2007   18.2644 N   0  3  0  0  0  0  0  0  0  0  0  0
  -22.9092  -14.5601   22.2508 O   0  0  0  0  0  0  0  0  0  0  0  0
  -26.9682  -29.4926   21.9222 O   0  0  0  0  0  0  0  0  0  0  0  0
  -30.7412  -23.3082   18.1902 O   0  0  0  0  0  0  0  0  0  0  0  0
  -31.9750  -14.7098   20.1515 O   0  0  0  0  0  0  0  0  0  0  0  0
  -22.9527  -30.3301   21.4064 O   0  0  0  0  0  0  0  0  0  0  0  0
  -22.1887  -25.8391   20.0768 O   0  0  0  0  0  0  0  0  0  0  0  0
  -21.5698   -6.9571   21.2574 O   0  0  0  0  0  0  0  0  0  0  0  0
  -28.6480  -24.9935   18.0985 O   0  0  0  0  0  0  0  0  0  1  0  0
  -31.3325  -21.5085   20.0895 O   0  0  0  0  0  0  0  0  0  0  0  0
  -19.1711   -5.9353   26.1161 F   0  0  0  0  0  0  0  0  0  0  0  0
  -22.1655   -4.6618   22.6785 F   0  0  0  0  0  0  0  0  0  0  0  0
  1  2  1  0  0  0  0
  1  6  2  0  0  0  0
  2  7  2  0  0  0  0
  3  9  2  0  0  0  0
  3 18  1  0  0  0  0
  4 10  1  0  0  0  0
  4 18  2  0  0  0  0
  5 11  2  0  0  0  0
  5 19  1  0  0  0  0
  6 21  1  0  0  0  0
  7 23  1  0  0  0  0
  8 12  2  0  0  0  0
  8 22  1  0  0  0  0
  9 26  1  0  0  0  0
 10 26  2  0  0  0  0
 11 28  1  0  0  0  0
 12 27  1  0  0  0  0
 13 14  2  0  0  0  0
 13 29  1  0  0  0  0
 14 30  1  0  0  0  0
 15 24  1  0  0  0  0
 15 27  2  0  0  0  0
 16 25  1  0  0  0  0
 16 28  2  0  0  0  0
 17 30  2  0  0  0  0
 17 31  1  0  0  0  0
 18 32  1  0  0  0  0
 19 25  2  0  0  0  0
 19 34  1  0  0  0  0
 20 32  1  0  0  0  0
 20 33  2  0  0  0  0
 20 35  1  0  0  0  0
 21 23  2  0  0  0  0
 21 41  1  0  0  0  0
 22 24  2  0  0  0  0
 22 42  1  0  0  0  0
 23 50  1  0  0  0  0
 24 43  1  0  0  0  0
 25 59  1  0  0  0  0
 26 82  1  0  0  0  0
 27 83  1  0  0  0  0
 28 84  1  0  0  0  0
 29 31  2  0  0  0  0
 29 82  1  0  0  0  0
 30 85  1  0  0  0  0
 31 86  1  0  0  0  0
 32 66  2  0  0  0  0
 33 68  1  0  0  0  0
 33 71  1  0  0  0  0
 34 60  1  0  0  0  0
 34 67  2  0  0  0  0
 35 72  1  0  0  0  0
 35 76  2  0  0  0  0
 36 51  1  0  0  0  0
 36 73  1  0  0  0  0
 36 77  2  0  0  0  0
 37 61  1  0  0  0  0
 37 62  1  0  0  0  0
 37 78  2  0  0  0  0
 38 60  1  0  0  0  0
 38 70  1  0  0  0  0
 38 79  2  0  0  0  0
 39 63  1  0  0  0  0
 39 69  1  0  0  0  0
 39 80  2  0  0  0  0
 40 64  1  0  0  0  0
 40 74  1  0  0  0  0
 40 81  2  0  0  0  0
 41 44  1  0  0  0  0
 42 51  1  0  0  0  0
 43 69  1  0  0  0  0
 44 46  1  0  0  0  0
 45 47  1  0  0  0  0
 45 48  1  0  0  0  0
 46 50  1  0  0  0  0
 47 52  1  0  0  0  0
 48 70  1  0  0  0  0
 49 52  1  0  0  0  0
 49 70  1  0  0  0  0
 50 73  1  0  0  0  0
 51 69  1  0  0  0  0
 52 68  1  0  0  0  0
 53 59  1  0  0  0  0
 54 64  1  0  0  0  0
 55 65  1  0  0  0  0
 56 65  1  0  0  0  0
 57 65  1  0  0  0  0
 58 75  1  0  0  0  0
 61 83  1  0  0  0  0
 62 84  1  0  0  0  0
 63 65  1  0  0  0  0
 63 74  1  0  0  0  0
 64 75  1  0  0  0  0
 66 68  1  0  0  0  0
M  CHG  1  75   1
M  ISO  4  38 100  60 100  61 101  83 101
M  END
> <Batch ID>
0121

> <Smiles>
CCc1cc(OCC(=O)[101CH2:1][101O:1]c2ccc3c(c2)CN(C(=O)C(NC(=O)C(C)NC)C(C)(C)C)C(C(=O)NC2CCCc4ccccc42)C3)ccc1C(N)=[100CH:0][100C:0](=O)N1CCCC(n2nc(-c3ccc(Oc4ccc(F)cc4F)cc3)c(C(N)=O)c2N)C1

> <Shape>
0.344

> <Color>
0.169

> <Negative vol penalty>
0.000

$$$$

  -OEChem-04052301573D

 83 91  0     1  0  0  0  0  0999 V2000
  -27.3488  -24.0526   17.3109 C   0  0  0  0  0  0  0  0  0  0  0  0
  -26.1793  -24.4479   17.9525 C   0  0  0  0  0  0  0  0  0  0  0  0
  -25.5116  -13.4143   20.9278 C   0  0  0  0  0  0  0  0  0  0  0  0
  -23.5563  -14.6397   20.2122 C   0  0  0  0  0  0  0  0  0  0  0  0
  -23.4238  -24.6626   22.8724 C   0  0  0  0  0  0  0  0  0  0  0  0
  -28.5875  -24.4336   17.8250 C   0  0  0  0  0  0  0  0  0  0  0  0
  -26.2480  -25.2236   19.1091 C   0  0  0  0  0  0  0  0  0  0  0  0
  -22.9459  -29.0629   19.0723 C   0  0  0  0  0  0  0  0  0  0  0  0
  -24.4530  -23.7589   22.6088 C   0  0  0  0  0  0  0  0  0  0  0  0
  -24.6955  -12.3818   21.3899 C   0  0  0  0  0  0  0  0  0  0  0  0
  -22.7401  -13.6072   20.6743 C   0  0  0  0  0  0  0  0  0  0  0  0
  -21.6159  -28.7616   19.3620 C   0  0  0  0  0  0  0  0  0  0  0  0
  -23.1458   -9.2627   22.4314 C   0  0  0  0  0  0  0  0  0  0  0  0
  -23.5187   -7.9543   22.1239 C   0  0  0  0  0  0  0  0  0  0  0  0
  -22.0932  -23.6572   21.1243 C   0  0  0  0  0  0  0  0  0  0  0  0
  -21.9367  -29.5451   21.6209 C   0  0  0  0  0  0  0  0  0  0  0  0
  -23.3649   -8.4643   19.7673 C   0  0  0  0  0  0  0  0  0  0  0  0
  -24.9420  -14.5433   20.3390 C   0  0  0  0  0  0  0  0  0  0  0  0
  -22.2438  -24.6117   22.1302 C   0  0  0  0  0  0  0  0  0  0  0  0
  -26.3394  -15.7449   18.5752 C   0  0  0  0  0  0  0  0  0  0  0  0
  -28.6711  -25.2225   18.9831 C   0  0  0  0  0  0  0  0  0  0  0  0
  -23.7857  -29.5983   20.0595 C   0  0  0  0  0  0  0  0  0  0  0  0
  -27.4890  -25.6145   19.6400 C   0  0  0  0  0  0  0  0  0  0  0  0
  -23.2763  -29.8547   21.3404 C   0  0  0  0  0  0  0  0  0  0  0  0
  -23.1225  -22.7535   20.8606 C   0  0  0  0  0  0  0  0  0  0  0  0
  -24.3024  -22.8043   21.6029 C   0  0  0  0  0  0  0  0  0  0  0  0
  -23.3098  -12.4782   21.2631 C   0  0  0  0  0  0  0  0  0  0  0  0
  -21.1118  -29.0000   20.6373 C   0  0  0  0  0  0  0  0  0  0  0  0
  -22.8824  -10.1719   21.4068 C   0  0  0  0  0  0  0  0  0  0  0  0
  -23.6282   -7.5550   20.7919 C   0  0  0  0  0  0  0  0  0  0  0  0
  -22.9920   -9.7727   20.0748 C   0  0  0  0  0  0  0  0  0  0  0  0
  -25.7845  -15.6104   19.8620 C   0  0  0  0  0  0  0  0  0  0  0  0
  -27.0531  -16.9172   18.6299 C   0  0  0  0  0  0  0  0  0  0  0  0
  -21.1576  -25.5660   22.4090 C   0  0  0  0  0  0  0  0  0  0  0  0
  -19.8723  -25.4003   22.0594 C   0  0  0  0  0  0  0  0  0  0  0  0
  -26.2204  -14.8869   17.4327 C   0  0  0  0  0  0  0  0  0  0  0  0
  -26.4613  -28.6454   21.4867 C   0  0  0  0  0  0  0  0  0  0  0  0
  -26.3411  -31.6000   22.8202 C   0  0  0  0  0  0  0  0  0  0  0  0
  -24.4518  -34.2901   23.7370 C   0  0  0  0  0  0  0  0  0  0  0  0
  -26.5884  -21.8255   22.0059 C   0  0  0  0  0  0  0  0  0  0  0  0
  -30.0339  -25.5701   19.5279 C   0  0  0  0  0  0  0  0  0  0  0  0
  -25.2108  -29.9428   19.7235 C   0  0  0  0  0  0  0  0  0  0  0  0
  -24.1310  -30.4472   22.4298 C   0  0  0  0  0  0  0  0  0  0  0  0
  -30.0109  -26.7066   20.5468 C   0  0  0  0  0  0  0  0  0  0  0  0
  -29.4366  -19.7104   21.7041 C   0  0  0  0  0  0  0  0  0  0  0  0
  -28.8955  -26.4888   21.5643 C   0  0  0  0  0  0  0  0  0  0  0  0
  -28.8749  -18.4335   21.0747 C   0  0  0  0  0  0  0  0  0  0  0  0
  -28.4541  -20.3348   22.6932 C   0  0  0  0  0  0  0  0  0  0  0  0
  -26.5445  -19.2977   21.5325 C   0  0  0  0  0  0  0  0  0  0  0  0
  -27.5217  -26.4770   20.8830 C   0  0  1  0  0  0  0  0  0  0  0  0
  -26.1155  -30.0056   20.9502 C   0  0  1  0  0  0  0  0  0  0  0  0
  -27.4722  -18.6680   20.4806 C   0  0  2  0  0  0  0  0  0  0  0  0
  -22.9341  -21.7414   19.7774 C   0  0  0  0  0  0  0  0  0  0  0  0
  -24.6285  -36.5374   24.8397 C   0  0  0  0  0  0  0  0  0  0  0  0
  -26.5667  -30.2430   25.5437 C   0  0  0  0  0  0  0  0  0  0  0  0
  -25.7927  -32.3796   26.5946 C   0  0  0  0  0  0  0  0  0  0  0  0
  -27.9253  -32.3287   25.3016 C   0  0  0  0  0  0  0  0  0  0  0  0
  -23.4893  -35.6853   21.3109 C   0  0  0  0  0  0  0  0  0  0  0  0
  -18.7957  -26.4013   22.3700 C   0  0  0  0  0  0  0  0  0  0  0  0
  -18.1749  -26.9615   21.0916 C   0  0  0  0  0  0  0  0  0  0  0  0
  -19.2198  -27.6253   20.2053 C   0  0  0  0  0  0  0  0  0  1  0  0
  -25.7237  -32.1858   24.0670 C   0  0  1  0  0  0  0  0  0  0  0  0
  -24.6487  -35.7798   23.5212 C   0  0  2  0  0  0  0  0  0  0  0  0
  -26.4863  -31.7713   25.3570 C   0  0  0  0  0  0  0  0  0  0  0  0
  -26.1171  -16.6168   20.6747 N   0  0  0  0  0  0  0  0  0  0  0  0
  -26.8889  -17.3948   19.8968 N   0  0  0  0  0  0  0  0  0  0  0  0
  -25.5195  -30.7611   22.0540 N   0  0  0  0  0  0  0  0  0  0  0  0
  -27.1485  -20.5316   22.0593 N   0  0  0  0  0  0  0  0  0  0  0  0
  -27.7988  -17.5757   17.7173 N   0  0  0  0  0  0  0  0  0  0  0  0
  -25.4491  -13.7225   17.5490 N   0  0  0  0  0  0  0  0  0  0  0  0
  -25.3595  -21.8951   21.3505 N   0  0  0  0  0  0  0  0  0  0  0  0
  -27.0989  -27.8263   20.5746 N   0  0  0  0  0  0  0  0  0  0  0  0
  -25.6554  -33.6269   23.8502 N   0  0  0  0  0  0  0  0  0  0  0  0
  -23.5693  -36.3241   22.6498 N   0  3  0  0  0  0  0  0  0  0  0  0
  -26.7949  -15.1368   16.3459 O   0  0  0  0  0  0  0  0  0  0  0  0
  -26.1723  -28.3605   22.6430 O   0  0  0  0  0  0  0  0  0  0  0  0
  -27.5070  -31.8821   22.5327 O   0  0  0  0  0  0  0  0  0  0  0  0
  -23.3413  -33.7676   23.8025 O   0  0  0  0  0  0  0  0  0  0  0  0
  -27.1698  -22.8044   22.4810 O   0  0  0  0  0  0  0  0  0  0  0  0
  -22.5131  -11.4708   21.7137 O   0  0  0  0  0  0  0  0  0  0  0  0
  -19.8141  -28.7062   20.9229 O   0  0  0  0  0  0  0  0  0  1  0  0
  -23.9878   -6.2989   20.4967 F   0  0  0  0  0  0  0  0  0  0  0  0
  -22.7414  -10.6420   19.0862 F   0  0  0  0  0  0  0  0  0  0  0  0
  1  2  1  0  0  0  0
  1  6  2  0  0  0  0
  2  7  2  0  0  0  0
  3 10  2  0  0  0  0
  3 18  1  0  0  0  0
  4 11  1  0  0  0  0
  4 18  2  0  0  0  0
  5  9  2  0  0  0  0
  5 19  1  0  0  0  0
  6 21  1  0  0  0  0
  7 23  1  0  0  0  0
  8 12  2  0  0  0  0
  8 22  1  0  0  0  0
  9 26  1  0  0  0  0
 10 27  1  0  0  0  0
 11 27  2  0  0  0  0
 12 28  1  0  0  0  0
 13 14  2  0  0  0  0
 13 29  1  0  0  0  0
 14 30  1  0  0  0  0
 15 19  2  0  0  0  0
 15 25  1  0  0  0  0
 16 24  1  0  0  0  0
 16 28  2  0  0  0  0
 17 30  2  0  0  0  0
 17 31  1  0  0  0  0
 18 32  1  0  0  0  0
 19 34  1  0  0  0  0
 20 32  1  0  0  0  0
 20 33  2  0  0  0  0
 20 36  1  0  0  0  0
 21 23  2  0  0  0  0
 21 41  1  0  0  0  0
 22 24  2  0  0  0  0
 22 42  1  0  0  0  0
 23 50  1  0  0  0  0
 24 43  1  0  0  0  0
 25 26  2  0  0  0  0
 25 53  1  0  0  0  0
 26 71  1  0  0  0  0
 27 80  1  0  0  0  0
 28 81  1  0  0  0  0
 29 31  2  0  0  0  0
 29 80  1  0  0  0  0
 30 82  1  0  0  0  0
 31 83  1  0  0  0  0
 32 65  2  0  0  0  0
 33 66  1  0  0  0  0
 33 69  1  0  0  0  0
 34 35  2  0  0  0  0
 35 59  1  0  0  0  0
 36 70  1  0  0  0  0
 36 75  2  0  0  0  0
 37 51  1  0  0  0  0
 37 72  1  0  0  0  0
 37 76  2  0  0  0  0
 38 62  1  0  0  0  0
 38 67  1  0  0  0  0
 38 77  2  0  0  0  0
 39 63  1  0  0  0  0
 39 73  1  0  0  0  0
 39 78  2  0  0  0  0
 40 68  1  0  0  0  0
 40 71  1  0  0  0  0
 40 79  2  0  0  0  0
 41 44  1  0  0  0  0
 42 51  1  0  0  0  0
 43 67  1  0  0  0  0
 44 46  1  0  0  0  0
 45 47  1  0  0  0  0
 45 48  1  0  0  0  0
 46 50  1  0  0  0  0
 47 52  1  0  0  0  0
 48 68  1  0  0  0  0
 49 52  1  0  0  0  0
 49 68  1  0  0  0  0
 50 72  1  0  0  0  0
 51 67  1  0  0  0  0
 52 66  1  0  0  0  0
 54 63  1  0  0  0  0
 55 64  1  0  0  0  0
 56 64  1  0  0  0  0
 57 64  1  0  0  0  0
 58 74  1  0  0  0  0
 59 60  1  0  0  0  0
 60 61  1  0  0  0  0
 61 81  1  0  0  0  0
 62 64  1  0  0  0  0
 62 73  1  0  0  0  0
 63 74  1  0  0  0  0
 65 66  1  0  0  0  0
M  CHG  1  74   1
M  ISO  4  40 100  61 101  71 100  81 101
M  END
> <Batch ID>
0121

> <Smiles>
CNC(C)C(=O)NC(C(=O)N1Cc2cc([101O:1][101CH2:1]CCC=Cc3ccc([100NH:0][100C:0](=O)N4CCCC(n5nc(-c6ccc(Oc7ccc(F)cc7F)cc6)c(C(N)=O)c5N)C4)c(C)c3)ccc2CC1C(=O)NC1CCCc2ccccc21)C(C)(C)C

> <Shape>
0.308

> <Color>
0.075

> <Negative vol penalty>
0.000

$$$$

  -OEChem-04052301573D

 86 94  0     1  0  0  0  0  0999 V2000
  -17.3830  -27.6514   25.5580 C   0  0  0  0  0  0  0  0  0  0  0  0
  -18.1698  -26.5343   25.2964 C   0  0  0  0  0  0  0  0  0  0  0  0
  -22.7336  -10.3134   21.1562 C   0  0  0  0  0  0  0  0  0  0  0  0
  -24.5892   -8.8402   21.6289 C   0  0  0  0  0  0  0  0  0  0  0  0
  -17.4443  -28.7591   24.7135 C   0  0  0  0  0  0  0  0  0  0  0  0
  -19.0176  -26.5239   24.1893 C   0  0  0  0  0  0  0  0  0  0  0  0
  -24.5108  -23.8469   23.7844 C   0  0  0  0  0  0  0  0  0  0  0  0
  -21.8640   -9.2230   21.1712 C   0  0  0  0  0  0  0  0  0  0  0  0
  -23.7195   -7.7497   21.6439 C   0  0  0  0  0  0  0  0  0  0  0  0
  -24.9232  -22.6286   23.2463 C   0  0  0  0  0  0  0  0  0  0  0  0
  -21.4972   -6.3675   23.7820 C   0  0  0  0  0  0  0  0  0  0  0  0
  -21.6368   -5.4435   24.8174 C   0  0  0  0  0  0  0  0  0  0  0  0
  -30.6597  -16.4331   20.4692 C   0  0  0  0  0  0  0  0  0  0  0  0
  -25.5173  -23.7441   21.1916 C   0  0  0  0  0  0  0  0  0  0  0  0
  -30.3159  -17.2356   22.7219 C   0  0  0  0  0  0  0  0  0  0  0  0
  -22.0755   -3.7005   23.2029 C   0  0  0  0  0  0  0  0  0  0  0  0
  -24.0962  -10.1221   21.3850 C   0  0  0  0  0  0  0  0  0  0  0  0
  -30.8572  -15.1422   20.9592 C   0  0  0  0  0  0  0  0  0  0  0  0
  -25.3614  -12.0590   22.4599 C   0  0  0  0  0  0  0  0  0  0  0  0
  -18.3004  -28.7660   23.6011 C   0  0  0  0  0  0  0  0  0  0  0  0
  -24.5886  -25.0231   23.0250 C   0  0  0  0  0  0  0  0  0  0  0  0
  -19.0895  -27.6322   23.3284 C   0  0  0  0  0  0  0  0  0  0  0  0
  -25.1077  -24.9764   21.7233 C   0  0  0  0  0  0  0  0  0  0  0  0
  -30.5134  -15.9447   23.2120 C   0  0  0  0  0  0  0  0  0  0  0  0
  -30.7840  -14.8980   22.3306 C   0  0  0  0  0  0  0  0  0  0  0  0
  -22.3569   -7.9411   21.4151 C   0  0  0  0  0  0  0  0  0  0  0  0
  -25.4238  -22.5766   21.9487 C   0  0  0  0  0  0  0  0  0  0  0  0
  -21.6467   -5.9581   22.4569 C   0  0  0  0  0  0  0  0  0  0  0  0
  -30.3891  -17.4798   21.3505 C   0  0  0  0  0  0  0  0  0  0  0  0
  -21.9260   -4.1100   24.5279 C   0  0  0  0  0  0  0  0  0  0  0  0
  -21.9359   -4.6246   22.1674 C   0  0  0  0  0  0  0  0  0  0  0  0
  -24.9952  -11.2480   21.3690 C   0  0  0  0  0  0  0  0  0  0  0  0
  -26.2296  -12.9801   21.9268 C   0  0  0  0  0  0  0  0  0  0  0  0
  -31.1397  -14.0697   20.0140 C   0  0  0  0  0  0  0  0  0  0  0  0
  -24.9533  -11.9861   23.8324 C   0  0  0  0  0  0  0  0  0  0  0  0
  -30.6085  -14.1029   18.6320 C   0  0  0  0  0  0  0  0  0  0  0  0
  -22.4761  -27.1346   21.9372 C   0  0  0  0  0  0  0  0  0  0  0  0
  -25.1394  -28.7321   21.0006 C   0  0  0  0  0  0  0  0  0  0  0  0
  -28.4424  -28.6102   20.1507 C   0  0  0  0  0  0  0  0  0  0  0  0
  -18.2974  -29.9681   22.6902 C   0  0  0  0  0  0  0  0  0  0  0  0
  -24.1646  -26.3336   23.6294 C   0  0  0  0  0  0  0  0  0  0  0  0
  -25.2308  -26.2140   20.8737 C   0  0  0  0  0  0  0  0  0  0  0  0
  -19.4992  -30.0232   21.7505 C   0  0  0  0  0  0  0  0  0  0  0  0
  -27.3550  -14.0668   17.1254 C   0  0  0  0  0  0  0  0  0  0  0  0
  -19.7300  -28.6636   21.0987 C   0  0  0  0  0  0  0  0  0  0  0  0
  -26.4902  -13.3614   18.1696 C   0  0  0  0  0  0  0  0  0  0  0  0
  -28.7726  -13.5044   17.1024 C   0  0  0  0  0  0  0  0  0  0  0  0
  -28.5929  -12.8317   19.4823 C   0  0  0  0  0  0  0  0  0  0  0  0
  -20.0399  -27.5926   22.1515 C   0  0  1  0  0  0  0  0  0  0  0  0
  -23.8087  -27.3863   22.5842 C   0  0  1  0  0  0  0  0  0  0  0  0
  -27.1616  -13.3916   19.5541 C   0  0  2  0  0  0  0  0  0  0  0  0
  -30.4295  -15.7098   24.6848 C   0  0  0  0  0  0  0  0  0  0  0  0
  -32.3786  -13.3390   23.4767 C   0  0  0  0  0  0  0  0  0  0  0  0
  -30.3373  -30.0717   19.3951 C   0  0  0  0  0  0  0  0  0  0  0  0
  -23.9429  -28.8291   18.1954 C   0  0  0  0  0  0  0  0  0  0  0  0
  -26.2145  -29.4172   17.3224 C   0  0  0  0  0  0  0  0  0  0  0  0
  -25.0631  -30.9426   18.9255 C   0  0  0  0  0  0  0  0  0  0  0  0
  -30.0497  -27.9654   22.5506 C   0  0  0  0  0  0  0  0  0  0  0  0
  -30.9952  -13.5146   22.8602 C   0  0  0  0  0  0  0  0  0  0  0  0
  -27.6708  -20.1326   20.4984 C   0  0  0  0  0  0  0  0  0  0  0  0
  -28.8163  -20.1407   19.4921 C   0  0  0  0  0  0  0  0  0  0  0  0
  -26.8742  -21.4298   20.4530 C   0  0  0  0  0  0  0  0  0  1  0  0
  -29.6391  -18.8623   19.5667 C   0  0  0  0  0  0  0  0  0  0  0  0
  -25.9966  -28.7454   19.7580 C   0  0  1  0  0  0  0  0  0  0  0  0
  -29.6270  -29.4524   20.5887 C   0  0  2  0  0  0  0  0  0  0  0  0
  -25.3003  -29.4598   18.5654 C   0  0  0  0  0  0  0  0  0  0  0  0
  -25.5826  -11.6213   20.2290 N   0  0  0  0  0  0  0  0  0  0  0  0
  -31.8665  -13.0286   20.3121 N   0  0  0  0  0  0  0  0  0  0  0  0
  -26.3266  -12.6769   20.6006 N   0  0  0  0  0  0  0  0  0  0  0  0
  -29.3668  -13.5142   18.4376 N   0  0  0  0  0  0  0  0  0  0  0  0
  -24.7972  -27.4703   21.5071 N   0  0  0  0  0  0  0  0  0  0  0  0
  -26.9118  -14.0117   22.4678 N   0  0  0  0  0  0  0  0  0  0  0  0
  -24.0558  -10.9780   24.2100 N   0  0  0  0  0  0  0  0  0  0  0  0
  -21.4101  -27.7090   22.6028 N   0  0  0  0  0  0  0  0  0  0  0  0
  -27.2714  -29.3382   20.1478 N   0  0  0  0  0  0  0  0  0  0  0  0
  -30.6078  -28.6169   21.3377 N   0  3  0  0  0  0  0  0  0  0  0  0
  -25.3594  -12.8011   24.6951 O   0  0  0  0  0  0  0  0  0  0  0  0
  -31.3261  -14.6490   17.8042 O   0  0  0  0  0  0  0  0  0  0  0  0
  -22.4195  -26.4697   20.9094 O   0  0  0  0  0  0  0  0  0  0  0  0
  -24.7924  -29.8018   21.5074 O   0  0  0  0  0  0  0  0  0  0  0  0
  -28.5461  -27.4260   19.8384 O   0  0  0  0  0  0  0  0  0  0  0  0
  -21.5086   -6.8769   21.4301 O   0  0  0  0  0  0  0  0  0  0  0  0
  -25.8264  -21.3886   21.4209 O   0  0  0  0  0  0  0  0  0  1  0  0
  -30.1949  -18.7486   20.8695 O   0  0  0  0  0  0  0  0  0  0  0  0
  -22.0615   -3.2230   25.5225 F   0  0  0  0  0  0  0  0  0  0  0  0
  -22.0818   -4.2256   20.8964 F   0  0  0  0  0  0  0  0  0  0  0  0
  1  2  1  0  0  0  0
  1  5  2  0  0  0  0
  2  6  2  0  0  0  0
  3  8  2  0  0  0  0
  3 17  1  0  0  0  0
  4  9  1  0  0  0  0
  4 17  2  0  0  0  0
  5 20  1  0  0  0  0
  6 22  1  0  0  0  0
  7 10  2  0  0  0  0
  7 21  1  0  0  0  0
  8 26  1  0  0  0  0
  9 26  2  0  0  0  0
 10 27  1  0  0  0  0
 11 12  2  0  0  0  0
 11 28  1  0  0  0  0
 12 30  1  0  0  0  0
 13 18  1  0  0  0  0
 13 29  2  0  0  0  0
 14 23  1  0  0  0  0
 14 27  2  0  0  0  0
 15 24  2  0  0  0  0
 15 29  1  0  0  0  0
 16 30  2  0  0  0  0
 16 31  1  0  0  0  0
 17 32  1  0  0  0  0
 18 25  2  0  0  0  0
 18 34  1  0  0  0  0
 19 32  1  0  0  0  0
 19 33  2  0  0  0  0
 19 35  1  0  0  0  0
 20 22  2  0  0  0  0
 20 40  1  0  0  0  0
 21 23  2  0  0  0  0
 21 41  1  0  0  0  0
 22 49  1  0  0  0  0
 23 42  1  0  0  0  0
 24 25  1  0  0  0  0
 24 52  1  0  0  0  0
 25 59  1  0  0  0  0
 26 82  1  0  0  0  0
 27 83  1  0  0  0  0
 28 31  2  0  0  0  0
 28 82  1  0  0  0  0
 29 84  1  0  0  0  0
 30 85  1  0  0  0  0
 31 86  1  0  0  0  0
 32 67  2  0  0  0  0
 33 69  1  0  0  0  0
 33 72  1  0  0  0  0
 34 36  1  0  0  0  0
 34 68  2  0  0  0  0
 35 73  1  0  0  0  0
 35 77  2  0  0  0  0
 36 70  1  0  0  0  0
 36 78  2  0  0  0  0
 37 50  1  0  0  0  0
 37 74  1  0  0  0  0
 37 79  2  0  0  0  0
 38 64  1  0  0  0  0
 38 71  1  0  0  0  0
 38 80  2  0  0  0  0
 39 65  1  0  0  0  0
 39 75  1  0  0  0  0
 39 81  2  0  0  0  0
 40 43  1  0  0  0  0
 41 50  1  0  0  0  0
 42 71  1  0  0  0  0
 43 45  1  0  0  0  0
 44 46  1  0  0  0  0
 44 47  1  0  0  0  0
 45 49  1  0  0  0  0
 46 51  1  0  0  0  0
 47 70  1  0  0  0  0
 48 51  1  0  0  0  0
 48 70  1  0  0  0  0
 49 74  1  0  0  0  0
 50 71  1  0  0  0  0
 51 69  1  0  0  0  0
 53 59  1  0  0  0  0
 54 65  1  0  0  0  0
 55 66  1  0  0  0  0
 56 66  1  0  0  0  0
 57 66  1  0  0  0  0
 58 76  1  0  0  0  0
 60 61  1  0  0  0  0
 60 62  1  0  0  0  0
 61 63  1  0  0  0  0
 62 83  1  0  0  0  0
 63 84  1  0  0  0  0
 64 66  1  0  0  0  0
 64 75  1  0  0  0  0
 65 76  1  0  0  0  0
 67 69  1  0  0  0  0
M  CHG  1  76   1
M  ISO  4  34 100  36 100  62 101  83 101
M  END
> <Batch ID>
0121

> <Smiles>
CCc1c(C)cc(OCCC[101CH2:1][101O:1]c2ccc3c(c2)CN(C(=O)C(NC(=O)C(C)NC)C(C)(C)C)C(C(=O)NC2CCCc4ccccc42)C3)cc1[100C:0](=N)[100C:0](=O)N1CCCC(n2nc(-c3ccc(Oc4ccc(F)cc4F)cc3)c(C(N)=O)c2N)C1

> <Shape>
0.295

> <Color>
0.102

> <Negative vol penalty>
0.000

$$$$

  -OEChem-04052301573D

 85 93  0     1  0  0  0  0  0999 V2000
  -25.7852  -35.9066   18.0356 C   0  0  0  0  0  0  0  0  0  0  0  0
  -26.4077  -34.7793   18.5620 C   0  0  0  0  0  0  0  0  0  0  0  0
  -23.5230   -9.8619   22.0435 C   0  0  0  0  0  0  0  0  0  0  0  0
  -24.4137  -11.2014   23.8462 C   0  0  0  0  0  0  0  0  0  0  0  0
  -24.5432  -36.3083   18.5253 C   0  0  0  0  0  0  0  0  0  0  0  0
  -25.7889  -34.0536   19.5793 C   0  0  0  0  0  0  0  0  0  0  0  0
  -25.9956  -29.0539   18.8016 C   0  0  0  0  0  0  0  0  0  0  0  0
  -31.5269  -17.7097   19.3739 C   0  0  0  0  0  0  0  0  0  0  0  0
  -22.9802   -8.9735   22.9717 C   0  0  0  0  0  0  0  0  0  0  0  0
  -23.8708  -10.3130   24.7745 C   0  0  0  0  0  0  0  0  0  0  0  0
  -27.2008  -28.4142   19.0882 C   0  0  0  0  0  0  0  0  0  0  0  0
  -32.0469  -18.9894   19.5678 C   0  0  0  0  0  0  0  0  0  0  0  0
  -20.2832   -8.8365   25.0065 C   0  0  0  0  0  0  0  0  0  0  0  0
  -18.9710   -8.4089   24.8040 C   0  0  0  0  0  0  0  0  0  0  0  0
  -26.2993  -27.6752   21.2002 C   0  0  0  0  0  0  0  0  0  0  0  0
  -29.8128  -19.8467   19.9008 C   0  0  0  0  0  0  0  0  0  0  0  0
  -19.7369   -6.1213   24.6717 C   0  0  0  0  0  0  0  0  0  0  0  0
  -24.2398  -10.9758   22.4807 C   0  0  0  0  0  0  0  0  0  0  0  0
  -24.1853  -13.0364   20.9778 C   0  0  0  0  0  0  0  0  0  0  0  0
  -23.9044  -35.5817   19.5425 C   0  0  0  0  0  0  0  0  0  0  0  0
  -24.9352  -29.0181   19.7185 C   0  0  0  0  0  0  0  0  0  0  0  0
  -24.5378  -34.4468   20.0841 C   0  0  0  0  0  0  0  0  0  0  0  0
  -25.0809  -28.3131   20.9217 C   0  0  0  0  0  0  0  0  0  0  0  0
  -29.2928  -18.5670   19.7068 C   0  0  0  0  0  0  0  0  0  0  0  0
  -30.1499  -17.4985   19.4433 C   0  0  0  0  0  0  0  0  0  0  0  0
  -23.1541   -9.1990   24.3372 C   0  0  0  0  0  0  0  0  0  0  0  0
  -27.3538  -27.7272   20.2890 C   0  0  0  0  0  0  0  0  0  0  0  0
  -31.1898  -20.0579   19.8312 C   0  0  0  0  0  0  0  0  0  0  0  0
  -21.3222   -7.9065   25.0414 C   0  0  0  0  0  0  0  0  0  0  0  0
  -18.6978   -7.0513   24.6367 C   0  0  0  0  0  0  0  0  0  0  0  0
  -21.0491   -6.5489   24.8741 C   0  0  0  0  0  0  0  0  0  0  0  0
  -24.8012  -11.8936   21.5223 C   0  0  0  0  0  0  0  0  0  0  0  0
  -25.1261  -13.5601   20.1250 C   0  0  0  0  0  0  0  0  0  0  0  0
  -22.8796  -13.5763   21.2211 C   0  0  0  0  0  0  0  0  0  0  0  0
  -23.3291  -31.2032   21.3767 C   0  0  0  0  0  0  0  0  0  0  0  0
  -30.1061  -25.4013   19.8716 C   0  0  0  0  0  0  0  0  0  0  0  0
  -21.4957  -28.6596   22.2083 C   0  0  0  0  0  0  0  0  0  0  0  0
  -21.2397  -25.2800   22.6082 C   0  0  0  0  0  0  0  0  0  0  0  0
  -30.3697  -15.0340   18.9697 C   0  0  0  0  0  0  0  0  0  0  0  0
  -22.5839  -36.0818   20.0724 C   0  0  0  0  0  0  0  0  0  0  0  0
  -23.6324  -29.6907   19.3826 C   0  0  0  0  0  0  0  0  0  0  0  0
  -23.9659  -28.2276   21.9307 C   0  0  0  0  0  0  0  0  0  0  0  0
  -21.8235  -35.0425   20.8921 C   0  0  0  0  0  0  0  0  0  0  0  0
  -29.4909  -11.6237   18.4457 C   0  0  0  0  0  0  0  0  0  0  0  0
  -22.7558  -34.3638   21.8906 C   0  0  0  0  0  0  0  0  0  0  0  0
  -28.1419  -11.4839   19.1546 C   0  0  0  0  0  0  0  0  0  0  0  0
  -30.4333  -12.5606   19.1994 C   0  0  0  0  0  0  0  0  0  0  0  0
  -28.5276  -13.7440   20.2178 C   0  0  0  0  0  0  0  0  0  0  0  0
  -23.8870  -33.6192   21.1712 C   0  0  1  0  0  0  0  0  0  0  0  0
  -22.7964  -30.0228   20.6147 C   0  0  1  0  0  0  0  0  0  0  0  0
  -27.5214  -12.8609   19.4619 C   0  0  2  0  0  0  0  0  0  0  0  0
  -27.8137  -18.3706   19.7869 C   0  0  0  0  0  0  0  0  0  0  0  0
  -19.6292  -23.4991   23.3376 C   0  0  0  0  0  0  0  0  0  0  0  0
  -21.9601  -29.4366   25.1222 C   0  0  0  0  0  0  0  0  0  0  0  0
  -21.1651  -27.1566   25.7841 C   0  0  0  0  0  0  0  0  0  0  0  0
  -19.6241  -28.7161   24.5941 C   0  0  0  0  0  0  0  0  0  0  0  0
  -21.3060  -23.9705   19.9549 C   0  0  0  0  0  0  0  0  0  0  0  0
  -30.9676  -24.7930   18.7759 C   0  0  0  0  0  0  0  0  0  0  0  0
  -29.2850  -26.6095   19.4659 C   0  0  0  0  0  0  0  0  0  1  0  0
  -31.7652  -23.5730   19.2256 C   0  0  0  0  0  0  0  0  0  0  0  0
  -30.8751  -22.4075   19.6408 C   0  0  0  0  0  0  0  0  0  0  0  0
  -21.5243  -27.6393   23.3206 C   0  0  1  0  0  0  0  0  0  0  0  0
  -20.1791  -24.2903   22.1610 C   0  0  2  0  0  0  0  0  0  0  0  0
  -21.0903  -28.2402   24.6873 C   0  0  0  0  0  0  0  0  0  0  0  0
  -26.0376  -11.7019   21.0546 N   0  0  0  0  0  0  0  0  0  0  0  0
  -26.2061  -12.7313   20.2071 N   0  0  0  0  0  0  0  0  0  0  0  0
  -22.7137  -28.9069   21.5592 N   0  0  0  0  0  0  0  0  0  0  0  0
  -29.7794  -13.8465   19.4515 N   0  0  0  0  0  0  0  0  0  0  0  0
  -25.1265  -14.6441   19.3204 N   0  0  0  0  0  0  0  0  0  0  0  0
  -22.0406  -12.9133   22.1272 N   0  0  0  0  0  0  0  0  0  0  0  0
  -29.6411  -16.1916   19.2414 N   0  0  0  0  0  0  0  0  0  0  0  0
  -23.4046  -32.3654   20.6330 N   0  0  0  0  0  0  0  0  0  0  0  0
  -20.7011  -26.5219   22.8707 N   0  0  0  0  0  0  0  0  0  0  0  0
  -20.7498  -23.3300   21.1745 N   0  3  0  0  0  0  0  0  0  0  0  0
  -22.4628  -14.6067   20.6396 O   0  0  0  0  0  0  0  0  0  0  0  0
  -23.6466  -31.0697   22.5527 O   0  0  0  0  0  0  0  0  0  0  0  0
  -30.0897  -24.9644   21.0211 O   0  0  0  0  0  0  0  0  0  0  0  0
  -20.4306  -29.2115   21.9211 O   0  0  0  0  0  0  0  0  0  0  0  0
  -22.4266  -24.9804   22.7175 O   0  0  0  0  0  0  0  0  0  0  0  0
  -31.4288  -15.0220   18.3371 O   0  0  0  0  0  0  0  0  0  0  0  0
  -22.6243   -8.3324   25.2433 O   0  0  0  0  0  0  0  0  0  0  0  0
  -28.5293  -27.1025   20.5715 O   0  0  0  0  0  0  0  0  0  1  0  0
  -31.7008  -21.3151   20.0224 O   0  0  0  0  0  0  0  0  0  0  0  0
  -17.4375   -6.6407   24.4438 F   0  0  0  0  0  0  0  0  0  0  0  0
  -22.0429   -5.6506   24.9079 F   0  0  0  0  0  0  0  0  0  0  0  0
  1  2  1  0  0  0  0
  1  5  2  0  0  0  0
  2  6  2  0  0  0  0
  3  9  2  0  0  0  0
  3 18  1  0  0  0  0
  4 10  1  0  0  0  0
  4 18  2  0  0  0  0
  5 20  1  0  0  0  0
  6 22  1  0  0  0  0
  7 11  2  0  0  0  0
  7 21  1  0  0  0  0
  8 12  2  0  0  0  0
  8 25  1  0  0  0  0
  9 26  1  0  0  0  0
 10 26  2  0  0  0  0
 11 27  1  0  0  0  0
 12 28  1  0  0  0  0
 13 14  2  0  0  0  0
 13 29  1  0  0  0  0
 14 30  1  0  0  0  0
 15 23  1  0  0  0  0
 15 27  2  0  0  0  0
 16 24  1  0  0  0  0
 16 28  2  0  0  0  0
 17 30  2  0  0  0  0
 17 31  1  0  0  0  0
 18 32  1  0  0  0  0
 19 32  1  0  0  0  0
 19 33  2  0  0  0  0
 19 34  1  0  0  0  0
 20 22  2  0  0  0  0
 20 40  1  0  0  0  0
 21 23  2  0  0  0  0
 21 41  1  0  0  0  0
 22 49  1  0  0  0  0
 23 42  1  0  0  0  0
 24 25  2  0  0  0  0
 24 52  1  0  0  0  0
 25 71  1  0  0  0  0
 26 81  1  0  0  0  0
 27 82  1  0  0  0  0
 28 83  1  0  0  0  0
 29 31  2  0  0  0  0
 29 81  1  0  0  0  0
 30 84  1  0  0  0  0
 31 85  1  0  0  0  0
 32 65  2  0  0  0  0
 33 66  1  0  0  0  0
 33 69  1  0  0  0  0
 34 70  1  0  0  0  0
 34 75  2  0  0  0  0
 35 50  1  0  0  0  0
 35 72  1  0  0  0  0
 35 76  2  0  0  0  0
 36 58  1  0  0  0  0
 36 59  1  0  0  0  0
 36 77  2  0  0  0  0
 37 62  1  0  0  0  0
 37 67  1  0  0  0  0
 37 78  2  0  0  0  0
 38 63  1  0  0  0  0
 38 73  1  0  0  0  0
 38 79  2  0  0  0  0
 39 68  1  0  0  0  0
 39 71  1  0  0  0  0
 39 80  2  0  0  0  0
 40 43  1  0  0  0  0
 41 50  1  0  0  0  0
 42 67  1  0  0  0  0
 43 45  1  0  0  0  0
 44 46  1  0  0  0  0
 44 47  1  0  0  0  0
 45 49  1  0  0  0  0
 46 51  1  0  0  0  0
 47 68  1  0  0  0  0
 48 51  1  0  0  0  0
 48 68  1  0  0  0  0
 49 72  1  0  0  0  0
 50 67  1  0  0  0  0
 51 66  1  0  0  0  0
 53 63  1  0  0  0  0
 54 64  1  0  0  0  0
 55 64  1  0  0  0  0
 56 64  1  0  0  0  0
 57 74  1  0  0  0  0
 58 60  1  0  0  0  0
 59 82  1  0  0  0  0
 60 61  1  0  0  0  0
 61 83  1  0  0  0  0
 62 64  1  0  0  0  0
 62 73  1  0  0  0  0
 63 74  1  0  0  0  0
 65 66  1  0  0  0  0
M  CHG  1  74   1
M  ISO  4  39 100  59 101  71 100  82 101
M  END
> <Batch ID>
0121

> <Smiles>
CNC(C)C(=O)NC(C(=O)N1Cc2cc([101O:1][101CH2:1]C(=O)CCCOc3ccc([100NH:0][100C:0](=O)N4CCCC(n5nc(-c6ccc(Oc7ccc(F)cc7F)cc6)c(C(N)=O)c5N)C4)c(C)c3)ccc2CC1C(=O)NC1CCCc2ccccc21)C(C)(C)C

> <Shape>
0.276

> <Color>
0.142

> <Negative vol penalty>
0.000

$$$$

  -OEChem-04052301573D

 83 91  0     1  0  0  0  0  0999 V2000
  -27.8040  -37.4652   17.7578 C   0  0  0  0  0  0  0  0  0  0  0  0
  -28.0807  -36.1093   17.6153 C   0  0  0  0  0  0  0  0  0  0  0  0
  -24.6234   -8.8923   21.6970 C   0  0  0  0  0  0  0  0  0  0  0  0
  -23.1597   -9.3631   19.8334 C   0  0  0  0  0  0  0  0  0  0  0  0
  -27.4549  -37.9767   19.0070 C   0  0  0  0  0  0  0  0  0  0  0  0
  -28.0096  -35.2643   18.7222 C   0  0  0  0  0  0  0  0  0  0  0  0
  -26.1923  -29.4162   18.7784 C   0  0  0  0  0  0  0  0  0  0  0  0
  -23.5694   -8.2724   22.3682 C   0  0  0  0  0  0  0  0  0  0  0  0
  -22.1057   -8.7432   20.5046 C   0  0  0  0  0  0  0  0  0  0  0  0
  -26.8988  -28.2143   18.7717 C   0  0  0  0  0  0  0  0  0  0  0  0
  -21.9743   -5.2922   22.2873 C   0  0  0  0  0  0  0  0  0  0  0  0
  -22.2305   -4.0693   22.9073 C   0  0  0  0  0  0  0  0  0  0  0  0
  -32.3422  -20.3409   21.7144 C   0  0  0  0  0  0  0  0  0  0  0  0
  -32.2170  -18.9498   21.9437 C   0  0  0  0  0  0  0  0  0  0  0  0
  -26.7207  -28.1031   21.1748 C   0  0  0  0  0  0  0  0  0  0  0  0
  -21.6116   -5.0208   25.0401 C   0  0  0  0  0  0  0  0  0  0  0  0
  -24.4185   -9.4378   20.4297 C   0  0  0  0  0  0  0  0  0  0  0  0
  -26.4286   -9.4760   18.8594 C   0  0  0  0  0  0  0  0  0  0  0  0
  -27.3700  -37.1358   20.1278 C   0  0  0  0  0  0  0  0  0  0  0  0
  -25.7534  -29.9770   19.9864 C   0  0  0  0  0  0  0  0  0  0  0  0
  -27.6604  -35.7652   19.9878 C   0  0  0  0  0  0  0  0  0  0  0  0
  -26.0065  -29.3109   21.1939 C   0  0  0  0  0  0  0  0  0  0  0  0
  -22.3106   -8.1978   21.7720 C   0  0  0  0  0  0  0  0  0  0  0  0
  -27.1656  -27.5590   19.9702 C   0  0  0  0  0  0  0  0  0  0  0  0
  -21.5368   -6.3795   23.0437 C   0  0  0  0  0  0  0  0  0  0  0  0
  -22.0492   -3.9336   24.2837 C   0  0  0  0  0  0  0  0  0  0  0  0
  -21.3554   -6.2438   24.4200 C   0  0  0  0  0  0  0  0  0  0  0  0
  -25.5066  -10.0788   19.7361 C   0  0  0  0  0  0  0  0  0  0  0  0
  -31.1451  -20.7480   21.1730 C   0  0  0  0  0  0  0  0  0  0  0  0
  -30.9522  -18.6062   21.5263 C   0  0  0  0  0  0  0  0  0  0  0  0
  -27.2536  -10.5027   18.4698 C   0  0  0  0  0  0  0  0  0  0  0  0
  -30.7705  -22.1110   20.7565 C   0  0  0  0  0  0  0  0  0  0  0  0
  -30.3593  -17.3227   21.5548 C   0  0  0  0  0  0  0  0  0  0  0  0
  -29.5914  -22.4438   20.2127 C   0  0  0  0  0  0  0  0  0  0  0  0
  -29.1017  -16.9865   21.1153 C   0  0  0  0  0  0  0  0  0  0  0  0
  -26.5301   -8.1102   18.4352 C   0  0  0  0  0  0  0  0  0  0  0  0
  -29.3128  -23.8560   19.8146 C   0  0  0  0  0  0  0  0  0  0  0  0
  -28.6272  -15.5909   21.2040 C   0  0  0  0  0  0  0  0  0  0  0  0
  -26.3334  -32.6872   21.5427 C   0  0  0  0  0  0  0  0  0  0  0  0
  -24.0060  -31.5943   23.5204 C   0  0  0  0  0  0  0  0  0  0  0  0
  -22.2687  -28.9288   24.7549 C   0  0  0  0  0  0  0  0  0  0  0  0
  -27.0348  -37.7429   21.4671 C   0  0  0  0  0  0  0  0  0  0  0  0
  -24.9692  -31.2606   19.9744 C   0  0  0  0  0  0  0  0  0  0  0  0
  -25.5395  -29.8608   22.5161 C   0  0  0  0  0  0  0  0  0  0  0  0
  -26.6168  -36.7142   22.5147 C   0  0  0  0  0  0  0  0  0  0  0  0
  -27.3117  -15.2257   17.8029 C   0  0  0  0  0  0  0  0  0  0  0  0
  -27.5792  -35.5308   22.5145 C   0  0  0  0  0  0  0  0  0  0  0  0
  -26.7400  -13.8116   17.8594 C   0  0  0  0  0  0  0  0  0  0  0  0
  -27.1709  -15.9532   19.1391 C   0  0  0  0  0  0  0  0  0  0  0  0
  -27.1810  -13.7892   20.3464 C   0  0  0  0  0  0  0  0  0  0  0  0
  -27.5697  -34.8122   21.1598 C   0  0  1  0  0  0  0  0  0  0  0  0
  -25.0170  -32.0024   21.3066 C   0  0  1  0  0  0  0  0  0  0  0  0
  -27.3545  -13.0223   19.0262 C   0  0  1  0  0  0  0  0  0  0  0  0
  -20.4532  -28.3455   26.3862 C   0  0  0  0  0  0  0  0  0  0  0  0
  -25.9604  -31.9832   25.8310 C   0  0  0  0  0  0  0  0  0  0  0  0
  -24.4809  -30.5314   27.2351 C   0  0  0  0  0  0  0  0  0  0  0  0
  -23.6107  -32.6839   26.3230 C   0  0  0  0  0  0  0  0  0  0  0  0
  -20.5542  -27.8023   22.6218 C   0  0  0  0  0  0  0  0  0  0  0  0
  -27.9391  -24.1025   19.2097 C   0  0  0  0  0  0  0  0  0  0  0  0
  -27.7182  -25.5553   18.8144 C   0  0  0  0  0  0  0  0  0  1  0  0
  -23.9733  -30.7312   24.7586 C   0  0  1  0  0  0  0  0  0  0  0  0
  -20.7804  -28.6963   24.9431 C   0  0  2  0  0  0  0  0  0  0  0  0
  -24.5170  -31.4728   26.0123 C   0  0  0  0  0  0  0  0  0  0  0  0
  -25.7251  -11.3869   19.8944 N   0  0  0  0  0  0  0  0  0  0  0  0
  -26.7938  -11.6146   19.1119 N   0  0  0  0  0  0  0  0  0  0  0  0
  -27.7131  -15.1530   20.2474 N   0  0  0  0  0  0  0  0  0  0  0  0
  -24.7822  -31.1217   22.4527 N   0  0  0  0  0  0  0  0  0  0  0  0
  -28.3203  -10.5538   17.6439 N   0  0  0  0  0  0  0  0  0  0  0  0
  -25.6014   -7.1855   18.9319 N   0  0  0  0  0  0  0  0  0  0  0  0
  -26.3966  -33.9732   21.0409 N   0  0  0  0  0  0  0  0  0  0  0  0
  -22.5989  -30.2605   24.8919 N   0  0  0  0  0  0  0  0  0  0  0  0
  -20.3163  -27.5803   24.0713 N   0  3  0  0  0  0  0  0  0  0  0  0
  -27.4281   -7.7181   17.6520 O   0  0  0  0  0  0  0  0  0  0  0  0
  -30.1429  -24.7472   19.9715 O   0  0  0  0  0  0  0  0  0  0  0  0
  -29.0662  -14.8984   22.1241 O   0  0  0  0  0  0  0  0  0  0  0  0
  -27.2252  -32.0934   22.1375 O   0  0  0  0  0  0  0  0  0  0  0  0
  -23.3607  -32.6453   23.4986 O   0  0  0  0  0  0  0  0  0  0  0  0
  -23.0598  -28.0195   24.5145 O   0  0  0  0  0  0  0  0  0  0  0  0
  -30.2923  -19.6966   21.0552 O   0  0  0  0  0  0  0  0  0  0  0  0
  -21.2820   -7.5927   22.4266 O   0  0  0  0  0  0  0  0  0  0  0  0
  -27.8556  -26.3861   19.9665 O   0  0  0  0  0  0  0  0  0  1  0  0
  -22.2938   -2.7587   24.8787 F   0  0  0  0  0  0  0  0  0  0  0  0
  -20.9342   -7.2844   25.1517 F   0  0  0  0  0  0  0  0  0  0  0  0
  1  2  1  0  0  0  0
  1  5  2  0  0  0  0
  2  6  2  0  0  0  0
  3  8  2  0  0  0  0
  3 17  1  0  0  0  0
  4  9  1  0  0  0  0
  4 17  2  0  0  0  0
  5 19  1  0  0  0  0
  6 21  1  0  0  0  0
  7 10  2  0  0  0  0
  7 20  1  0  0  0  0
  8 23  1  0  0  0  0
  9 23  2  0  0  0  0
 10 24  1  0  0  0  0
 11 12  2  0  0  0  0
 11 25  1  0  0  0  0
 12 26  1  0  0  0  0
 13 14  1  0  0  0  0
 13 29  2  0  0  0  0
 14 30  2  0  0  0  0
 15 22  1  0  0  0  0
 15 24  2  0  0  0  0
 16 26  2  0  0  0  0
 16 27  1  0  0  0  0
 17 28  1  0  0  0  0
 18 28  1  0  0  0  0
 18 31  2  0  0  0  0
 18 36  1  0  0  0  0
 19 21  2  0  0  0  0
 19 42  1  0  0  0  0
 20 22  2  0  0  0  0
 20 43  1  0  0  0  0
 21 51  1  0  0  0  0
 22 44  1  0  0  0  0
 23 80  1  0  0  0  0
 24 81  1  0  0  0  0
 25 27  2  0  0  0  0
 25 80  1  0  0  0  0
 26 82  1  0  0  0  0
 27 83  1  0  0  0  0
 28 64  2  0  0  0  0
 29 32  1  0  0  0  0
 29 79  1  0  0  0  0
 30 33  1  0  0  0  0
 30 79  1  0  0  0  0
 31 65  1  0  0  0  0
 31 68  1  0  0  0  0
 32 34  2  0  0  0  0
 33 35  2  0  0  0  0
 34 37  1  0  0  0  0
 35 38  1  0  0  0  0
 36 69  1  0  0  0  0
 36 73  2  0  0  0  0
 37 59  1  0  0  0  0
 37 74  2  0  0  0  0
 38 66  1  0  0  0  0
 38 75  2  0  0  0  0
 39 52  1  0  0  0  0
 39 70  1  0  0  0  0
 39 76  2  0  0  0  0
 40 61  1  0  0  0  0
 40 67  1  0  0  0  0
 40 77  2  0  0  0  0
 41 62  1  0  0  0  0
 41 71  1  0  0  0  0
 41 78  2  0  0  0  0
 42 45  1  0  0  0  0
 43 52  1  0  0  0  0
 44 67  1  0  0  0  0
 45 47  1  0  0  0  0
 46 48  1  0  0  0  0
 46 49  1  0  0  0  0
 47 51  1  0  0  0  0
 48 53  1  0  0  0  0
 49 66  1  0  0  0  0
 50 53  1  0  0  0  0
 50 66  1  0  0  0  0
 51 70  1  0  0  0  0
 52 67  1  0  0  0  0
 53 65  1  0  0  0  0
 54 62  1  0  0  0  0
 55 63  1  0  0  0  0
 56 63  1  0  0  0  0
 57 63  1  0  0  0  0
 58 72  1  0  0  0  0
 59 60  1  0  0  0  0
 60 81  1  0  0  0  0
 61 63  1  0  0  0  0
 61 71  1  0  0  0  0
 62 72  1  0  0  0  0
 64 65  1  0  0  0  0
M  CHG  1  72   1
M  ISO  4  35 100  38 100  60 101  81 101
M  END
> <Batch ID>
0121

> <Smiles>
CNC(C)C(=O)NC(C(=O)N1Cc2cc([101O:1][101CH2:1]CC(=O)C=Cc3ccc(C=[100CH:0][100C:0](=O)N4CCCC(n5nc(-c6ccc(Oc7ccc(F)cc7F)cc6)c(C(N)=O)c5N)C4)o3)ccc2CC1C(=O)NC1CCCc2ccccc21)C(C)(C)C

> <Shape>
0.279

> <Color>
0.113

> <Negative vol penalty>
0.000

$$$$

  -OEChem-04052301573D

 85 93  0     1  0  0  0  0  0999 V2000
  -27.1676  -37.3073   21.9221 C   0  0  0  0  0  0  0  0  0  0  0  0
  -27.7326  -36.0904   21.5542 C   0  0  0  0  0  0  0  0  0  0  0  0
  -23.4603  -10.2803   21.9367 C   0  0  0  0  0  0  0  0  0  0  0  0
  -23.6021   -9.4515   19.6717 C   0  0  0  0  0  0  0  0  0  0  0  0
  -30.6066  -19.4729   17.4606 C   0  0  0  0  0  0  0  0  0  0  0  0
  -26.0999  -37.3363   22.8182 C   0  0  0  0  0  0  0  0  0  0  0  0
  -27.2309  -34.9018   22.0832 C   0  0  0  0  0  0  0  0  0  0  0  0
  -26.8500  -29.4841   19.2531 C   0  0  0  0  0  0  0  0  0  0  0  0
  -30.7407  -18.0846   17.4465 C   0  0  0  0  0  0  0  0  0  0  0  0
  -22.6567   -9.1944   22.2837 C   0  0  0  0  0  0  0  0  0  0  0  0
  -22.7985   -8.3655   20.0188 C   0  0  0  0  0  0  0  0  0  0  0  0
  -27.6606  -28.3502   19.2848 C   0  0  0  0  0  0  0  0  0  0  0  0
  -23.0757   -5.9230   23.0291 C   0  0  0  0  0  0  0  0  0  0  0  0
  -23.3642   -5.2576   24.2206 C   0  0  0  0  0  0  0  0  0  0  0  0
  -28.7284  -19.3069   15.9501 C   0  0  0  0  0  0  0  0  0  0  0  0
  -26.2195  -27.3743   20.9551 C   0  0  0  0  0  0  0  0  0  0  0  0
  -21.1554   -5.7811   25.0478 C   0  0  0  0  0  0  0  0  0  0  0  0
  -23.9330  -10.4089   20.6306 C   0  0  0  0  0  0  0  0  0  0  0  0
  -29.6004  -20.0841   16.7124 C   0  0  0  0  0  0  0  0  0  0  0  0
  -26.1673  -11.6034   20.3326 C   0  0  0  0  0  0  0  0  0  0  0  0
  -25.5786  -36.1468   23.3511 C   0  0  0  0  0  0  0  0  0  0  0  0
  -25.7223  -29.5763   20.0814 C   0  0  0  0  0  0  0  0  0  0  0  0
  -26.1561  -34.9150   22.9884 C   0  0  0  0  0  0  0  0  0  0  0  0
  -25.3948  -28.5093   20.9301 C   0  0  0  0  0  0  0  0  0  0  0  0
  -29.8686  -17.3074   16.6842 C   0  0  0  0  0  0  0  0  0  0  0  0
  -28.8624  -17.9186   15.9359 C   0  0  0  0  0  0  0  0  0  0  0  0
  -22.3258   -8.2370   21.3248 C   0  0  0  0  0  0  0  0  0  0  0  0
  -27.3470  -27.2963   20.1380 C   0  0  0  0  0  0  0  0  0  0  0  0
  -21.8270   -6.5175   22.8470 C   0  0  0  0  0  0  0  0  0  0  0  0
  -22.4041   -5.1866   25.2299 C   0  0  0  0  0  0  0  0  0  0  0  0
  -20.8669   -6.4465   23.8563 C   0  0  0  0  0  0  0  0  0  0  0  0
  -24.7627  -11.5308   20.2714 C   0  0  0  0  0  0  0  0  0  0  0  0
  -26.4655  -12.8681   19.8875 C   0  0  0  0  0  0  0  0  0  0  0  0
  -29.4587  -21.5495   16.7278 C   0  0  0  0  0  0  0  0  0  0  0  0
  -29.9521  -22.3651   17.6729 C   0  0  0  0  0  0  0  0  0  0  0  0
  -27.1175  -10.6159   20.7539 C   0  0  0  0  0  0  0  0  0  0  0  0
  -24.8178  -31.5162   22.4315 C   0  0  0  0  0  0  0  0  0  0  0  0
  -29.0436  -24.3415   18.8908 C   0  0  0  0  0  0  0  0  0  0  0  0
  -22.0507  -29.8358   22.2284 C   0  0  0  0  0  0  0  0  0  0  0  0
  -20.4746  -26.9482   21.3203 C   0  0  0  0  0  0  0  0  0  0  0  0
  -25.7248  -17.0568   16.2748 C   0  0  0  0  0  0  0  0  0  0  0  0
  -24.4543  -36.2315   24.3528 C   0  0  0  0  0  0  0  0  0  0  0  0
  -24.8431  -30.7950   20.0159 C   0  0  0  0  0  0  0  0  0  0  0  0
  -24.1837  -28.5504   21.8246 C   0  0  0  0  0  0  0  0  0  0  0  0
  -23.7383  -34.9023   24.5787 C   0  0  0  0  0  0  0  0  0  0  0  0
  -23.4631  -16.8448   19.0165 C   0  0  0  0  0  0  0  0  0  0  0  0
  -24.7500  -33.7767   24.7697 C   0  0  0  0  0  0  0  0  0  0  0  0
  -23.7111  -15.4477   19.5881 C   0  0  0  0  0  0  0  0  0  0  0  0
  -23.5772  -16.8600   17.4938 C   0  0  0  0  0  0  0  0  0  0  0  0
  -25.0852  -14.9111   17.5331 C   0  0  0  0  0  0  0  0  0  0  0  0
  -25.6237  -33.6026   23.5216 C   0  0  1  0  0  0  0  0  0  0  0  0
  -24.0083  -30.9981   21.2765 C   0  0  1  0  0  0  0  0  0  0  0  0
  -25.0360  -14.8569   19.0697 C   0  0  2  0  0  0  0  0  0  0  0  0
  -30.0316  -15.8230   16.6852 C   0  0  0  0  0  0  0  0  0  0  0  0
  -18.2155  -25.8557   21.3122 C   0  0  0  0  0  0  0  0  0  0  0  0
  -22.2991  -29.3054   25.2229 C   0  0  0  0  0  0  0  0  0  0  0  0
  -20.6055  -27.4791   24.9692 C   0  0  0  0  0  0  0  0  0  0  0  0
  -19.9820  -29.8372   24.4463 C   0  0  0  0  0  0  0  0  0  0  0  0
  -20.4665  -26.7213   18.3694 C   0  0  0  0  0  0  0  0  0  0  0  0
  -27.9170  -17.1071   15.1126 C   0  0  0  0  0  0  0  0  0  0  0  0
  -29.7766  -23.8528   17.6494 C   0  0  0  0  0  0  0  0  0  0  0  0
  -28.8171  -25.8394   18.9667 C   0  0  0  0  0  0  0  0  0  1  0  0
  -21.5118  -28.5815   22.8730 C   0  0  1  0  0  0  0  0  0  0  0  0
  -19.2053  -26.7005   20.5253 C   0  0  2  0  0  0  0  0  0  0  0  0
  -21.1236  -28.8005   24.3625 C   0  0  0  0  0  0  0  0  0  0  0  0
  -24.2071  -12.6596   19.8230 N   0  0  0  0  0  0  0  0  0  0  0  0
  -25.2680  -13.4535   19.5985 N   0  0  0  0  0  0  0  0  0  0  0  0
  -23.3589  -29.7661   21.7289 N   0  0  0  0  0  0  0  0  0  0  0  0
  -24.8567  -16.2880   17.0676 N   0  0  0  0  0  0  0  0  0  0  0  0
  -27.6325  -13.5255   19.7193 N   0  0  0  0  0  0  0  0  0  0  0  0
  -26.6406   -9.3691   21.1810 N   0  0  0  0  0  0  0  0  0  0  0  0
  -24.8962  -32.8945   22.4902 N   0  0  0  0  0  0  0  0  0  0  0  0
  -20.4111  -28.1293   22.0289 N   0  0  0  0  0  0  0  0  0  0  0  0
  -26.9191  -16.4416   15.9203 N   0  0  0  0  0  0  0  0  0  0  0  0
  -19.5210  -25.9917   19.2530 N   0  3  0  0  0  0  0  0  0  0  0  0
  -28.3520  -10.8383   20.7672 O   0  0  0  0  0  0  0  0  0  0  0  0
  -25.3320  -30.7241   23.2125 O   0  0  0  0  0  0  0  0  0  0  0  0
  -28.6427  -23.5833   19.7730 O   0  0  0  0  0  0  0  0  0  0  0  0
  -21.3346  -30.8382   22.1639 O   0  0  0  0  0  0  0  0  0  0  0  0
  -21.4257  -26.1698   21.3162 O   0  0  0  0  0  0  0  0  0  0  0  0
  -25.4576  -18.2082   15.9145 O   0  0  0  0  0  0  0  0  0  0  0  0
  -21.5418   -7.1770   21.6632 O   0  0  0  0  0  0  0  0  0  0  0  0
  -28.1369  -26.1886   20.1715 O   0  0  0  0  0  0  0  0  0  1  0  0
  -22.6807   -4.5463   26.3734 F   0  0  0  0  0  0  0  0  0  0  0  0
  -19.6651   -7.0146   23.6866 F   0  0  0  0  0  0  0  0  0  0  0  0
  1  2  1  0  0  0  0
  1  6  2  0  0  0  0
  2  7  2  0  0  0  0
  3 10  2  0  0  0  0
  3 18  1  0  0  0  0
  4 11  1  0  0  0  0
  4 18  2  0  0  0  0
  5  9  2  0  0  0  0
  5 19  1  0  0  0  0
  6 21  1  0  0  0  0
  7 23  1  0  0  0  0
  8 12  2  0  0  0  0
  8 22  1  0  0  0  0
  9 25  1  0  0  0  0
 10 27  1  0  0  0  0
 11 27  2  0  0  0  0
 12 28  1  0  0  0  0
 13 14  2  0  0  0  0
 13 29  1  0  0  0  0
 14 30  1  0  0  0  0
 15 19  2  0  0  0  0
 15 26  1  0  0  0  0
 16 24  1  0  0  0  0
 16 28  2  0  0  0  0
 17 30  2  0  0  0  0
 17 31  1  0  0  0  0
 18 32  1  0  0  0  0
 19 34  1  0  0  0  0
 20 32  1  0  0  0  0
 20 33  2  0  0  0  0
 20 36  1  0  0  0  0
 21 23  2  0  0  0  0
 21 42  1  0  0  0  0
 22 24  2  0  0  0  0
 22 43  1  0  0  0  0
 23 51  1  0  0  0  0
 24 44  1  0  0  0  0
 25 26  2  0  0  0  0
 25 54  1  0  0  0  0
 26 60  1  0  0  0  0
 27 82  1  0  0  0  0
 28 83  1  0  0  0  0
 29 31  2  0  0  0  0
 29 82  1  0  0  0  0
 30 84  1  0  0  0  0
 31 85  1  0  0  0  0
 32 66  2  0  0  0  0
 33 67  1  0  0  0  0
 33 70  1  0  0  0  0
 34 35  2  0  0  0  0
 35 61  1  0  0  0  0
 36 71  1  0  0  0  0
 36 76  2  0  0  0  0
 37 52  1  0  0  0  0
 37 72  1  0  0  0  0
 37 77  2  0  0  0  0
 38 61  1  0  0  0  0
 38 62  1  0  0  0  0
 38 78  2  0  0  0  0
 39 63  1  0  0  0  0
 39 68  1  0  0  0  0
 39 79  2  0  0  0  0
 40 64  1  0  0  0  0
 40 73  1  0  0  0  0
 40 80  2  0  0  0  0
 41 69  1  0  0  0  0
 41 74  1  0  0  0  0
 41 81  2  0  0  0  0
 42 45  1  0  0  0  0
 43 52  1  0  0  0  0
 44 68  1  0  0  0  0
 45 47  1  0  0  0  0
 46 48  1  0  0  0  0
 46 49  1  0  0  0  0
 47 51  1  0  0  0  0
 48 53  1  0  0  0  0
 49 69  1  0  0  0  0
 50 53  1  0  0  0  0
 50 69  1  0  0  0  0
 51 72  1  0  0  0  0
 52 68  1  0  0  0  0
 53 67  1  0  0  0  0
 55 64  1  0  0  0  0
 56 65  1  0  0  0  0
 57 65  1  0  0  0  0
 58 65  1  0  0  0  0
 59 75  1  0  0  0  0
 60 74  1  0  0  0  0
 62 83  1  0  0  0  0
 63 65  1  0  0  0  0
 63 73  1  0  0  0  0
 64 75  1  0  0  0  0
 66 67  1  0  0  0  0
M  CHG  1  75   1
M  ISO  4  41 100  62 101  74 100  83 101
M  END
> <Batch ID>
0121

> <Smiles>
CNC(C)C(=O)NC(C(=O)N1Cc2cc([101O:1][101CH2:1]C(=O)CC=Cc3ccc(C)c(C[100NH:0][100C:0](=O)N4CCCC(n5nc(-c6ccc(Oc7ccc(F)cc7F)cc6)c(C(N)=O)c5N)C4)c3)ccc2CC1C(=O)NC1CCCc2ccccc21)C(C)(C)C

> <Shape>
0.305

> <Color>
0.111

> <Negative vol penalty>
0.000

$$$$

  -OEChem-04052301573D

 85 93  0     1  0  0  0  0  0999 V2000
  -24.8396  -36.8489   16.8669 C   0  0  0  0  0  0  0  0  0  0  0  0
  -25.3030  -35.5504   16.6805 C   0  0  0  0  0  0  0  0  0  0  0  0
  -23.1524   -9.8592   21.5848 C   0  0  0  0  0  0  0  0  0  0  0  0
  -23.7542  -11.0005   23.6274 C   0  0  0  0  0  0  0  0  0  0  0  0
  -24.8575  -37.4183   18.1394 C   0  0  0  0  0  0  0  0  0  0  0  0
  -25.7857  -34.8211   17.7666 C   0  0  0  0  0  0  0  0  0  0  0  0
  -25.2566  -28.7881   18.6769 C   0  0  0  0  0  0  0  0  0  0  0  0
  -32.2627  -18.7514   21.4476 C   0  0  0  0  0  0  0  0  0  0  0  0
  -31.7431  -17.5187   21.0525 C   0  0  0  0  0  0  0  0  0  0  0  0
  -22.4274   -8.9227   22.3216 C   0  0  0  0  0  0  0  0  0  0  0  0
  -23.0291  -10.0641   24.3643 C   0  0  0  0  0  0  0  0  0  0  0  0
  -26.1323  -27.7258   18.4564 C   0  0  0  0  0  0  0  0  0  0  0  0
  -23.0758   -6.1819   24.1903 C   0  0  0  0  0  0  0  0  0  0  0  0
  -23.2364   -4.8356   23.8628 C   0  0  0  0  0  0  0  0  0  0  0  0
  -26.8289  -27.8290   20.7636 C   0  0  0  0  0  0  0  0  0  0  0  0
  -20.8775   -4.6749   23.3661 C   0  0  0  0  0  0  0  0  0  0  0  0
  -23.8158  -10.8981   22.2377 C   0  0  0  0  0  0  0  0  0  0  0  0
  -24.0908  -13.0771   20.9401 C   0  0  0  0  0  0  0  0  0  0  0  0
  -25.3317  -36.6921   19.2432 C   0  0  0  0  0  0  0  0  0  0  0  0
  -25.1683  -29.3869   19.9418 C   0  0  0  0  0  0  0  0  0  0  0  0
  -25.8113  -35.3818   19.0548 C   0  0  0  0  0  0  0  0  0  0  0  0
  -25.9495  -28.8970   20.9982 C   0  0  0  0  0  0  0  0  0  0  0  0
  -31.4083  -19.8342   21.6553 C   0  0  0  0  0  0  0  0  0  0  0  0
  -29.5146  -18.4516   21.0725 C   0  0  0  0  0  0  0  0  0  0  0  0
  -30.3691  -17.3688   20.8650 C   0  0  0  0  0  0  0  0  0  0  0  0
  -22.3657   -9.0251   23.7113 C   0  0  0  0  0  0  0  0  0  0  0  0
  -26.9207  -27.2480   19.4990 C   0  0  0  0  0  0  0  0  0  0  0  0
  -21.8159   -6.7747   24.1059 C   0  0  0  0  0  0  0  0  0  0  0  0
  -30.0342  -19.6843   21.4677 C   0  0  0  0  0  0  0  0  0  0  0  0
  -22.1373   -4.0821   23.4506 C   0  0  0  0  0  0  0  0  0  0  0  0
  -20.7168   -6.0212   23.6937 C   0  0  0  0  0  0  0  0  0  0  0  0
  -24.5654  -11.8655   21.4771 C   0  0  0  0  0  0  0  0  0  0  0  0
  -25.1827  -13.6257   20.3129 C   0  0  0  0  0  0  0  0  0  0  0  0
  -22.7802  -13.6552   21.0026 C   0  0  0  0  0  0  0  0  0  0  0  0
  -25.7253  -32.2984   21.0891 C   0  0  0  0  0  0  0  0  0  0  0  0
  -24.4895  -31.0385   23.8108 C   0  0  0  0  0  0  0  0  0  0  0  0
  -23.8364  -28.2594   25.6807 C   0  0  0  0  0  0  0  0  0  0  0  0
  -30.5913  -14.9449   20.2157 C   0  0  0  0  0  0  0  0  0  0  0  0
  -25.3755  -37.3667   20.5914 C   0  0  0  0  0  0  0  0  0  0  0  0
  -24.1993  -30.5144   20.1701 C   0  0  0  0  0  0  0  0  0  0  0  0
  -25.8773  -29.4919   22.3800 C   0  0  0  0  0  0  0  0  0  0  0  0
  -25.5544  -36.3936   21.7539 C   0  0  0  0  0  0  0  0  0  0  0  0
  -29.7117  -11.6348   19.2426 C   0  0  0  0  0  0  0  0  0  0  0  0
  -26.6636  -35.3927   21.4463 C   0  0  0  0  0  0  0  0  0  0  0  0
  -28.2554  -11.4994   19.6930 C   0  0  0  0  0  0  0  0  0  0  0  0
  -30.5360  -12.4606   20.2287 C   0  0  0  0  0  0  0  0  0  0  0  0
  -28.5191  -13.6424   21.0063 C   0  0  0  0  0  0  0  0  0  0  0  0
  -26.3195  -34.5499   20.2123 C   0  0  1  0  0  0  0  0  0  0  0  0
  -24.5662  -31.3841   21.3686 C   0  0  1  0  0  0  0  0  0  0  0  0
  -27.6341  -12.8734   20.0119 C   0  0  2  0  0  0  0  0  0  0  0  0
  -31.9837  -21.1451   22.0798 C   0  0  0  0  0  0  0  0  0  0  0  0
  -27.6533  -18.2983   19.3997 C   0  0  0  0  0  0  0  0  0  0  0  0
  -22.8518  -27.5496   27.8771 C   0  0  0  0  0  0  0  0  0  0  0  0
  -27.0146  -31.9775   25.2434 C   0  0  0  0  0  0  0  0  0  0  0  0
  -26.4250  -30.4488   27.1365 C   0  0  0  0  0  0  0  0  0  0  0  0
  -24.8966  -32.3238   26.5275 C   0  0  0  0  0  0  0  0  0  0  0  0
  -21.7345  -26.6547   24.3520 C   0  0  0  0  0  0  0  0  0  0  0  0
  -28.0392  -18.2990   20.8746 C   0  0  0  0  0  0  0  0  0  0  0  0
  -28.3731  -23.9528   19.8965 C   0  0  0  0  0  0  0  0  0  0  0  0
  -28.6494  -22.9958   21.0509 C   0  0  0  0  0  0  0  0  0  0  0  0
  -28.0470  -25.3546   20.3947 C   0  0  0  0  0  0  0  0  0  1  0  0
  -28.9332  -21.5848   20.5556 C   0  0  0  0  0  0  0  0  0  0  0  0
  -25.0568  -30.3111   25.0058 C   0  0  1  0  0  0  0  0  0  0  0  0
  -22.5812  -27.8029   26.4022 C   0  0  2  0  0  0  0  0  0  0  0  0
  -25.8513  -31.2551   25.9519 C   0  0  0  0  0  0  0  0  0  0  0  0
  -25.8580  -11.6560   21.2139 N   0  0  0  0  0  0  0  0  0  0  0  0
  -26.2050  -12.7435   20.5046 N   0  0  0  0  0  0  0  0  0  0  0  0
  -24.9193  -30.5965   22.5515 N   0  0  0  0  0  0  0  0  0  0  0  0
  -29.8886  -13.7501   20.4795 N   0  0  0  0  0  0  0  0  0  0  0  0
  -25.3584  -14.7718   19.6215 N   0  0  0  0  0  0  0  0  0  0  0  0
  -21.7748  -12.9587   21.6871 N   0  0  0  0  0  0  0  0  0  0  0  0
  -29.8630  -16.1084   20.4613 N   0  0  0  0  0  0  0  0  0  0  0  0
  -25.3622  -33.5199   20.5546 N   0  0  0  0  0  0  0  0  0  0  0  0
  -23.9324  -29.6344   25.6433 N   0  0  0  0  0  0  0  0  0  0  0  0
  -22.0646  -26.5432   25.7961 N   0  3  0  0  0  0  0  0  0  0  0  0
  -22.5046  -14.7487   20.4534 O   0  0  0  0  0  0  0  0  0  0  0  0
  -26.8646  -31.9241   21.3411 O   0  0  0  0  0  0  0  0  0  0  0  0
  -23.6889  -31.9601   23.9878 O   0  0  0  0  0  0  0  0  0  0  0  0
  -24.6522  -27.4747   25.2018 O   0  0  0  0  0  0  0  0  0  0  0  0
  -31.7441  -14.9363   19.7765 O   0  0  0  0  0  0  0  0  0  0  0  0
  -21.6582   -8.1116   24.4307 O   0  0  0  0  0  0  0  0  0  0  0  0
  -27.7767  -26.2117   19.2863 O   0  0  0  0  0  0  0  0  0  1  0  0
  -29.1962  -20.7491   21.6744 O   0  0  0  0  0  0  0  0  0  0  0  0
  -22.2920   -2.7897   23.1346 F   0  0  0  0  0  0  0  0  0  0  0  0
  -19.5043   -6.5856   23.6095 F   0  0  0  0  0  0  0  0  0  0  0  0
  1  2  1  0  0  0  0
  1  5  2  0  0  0  0
  2  6  2  0  0  0  0
  3 10  2  0  0  0  0
  3 17  1  0  0  0  0
  4 11  1  0  0  0  0
  4 17  2  0  0  0  0
  5 19  1  0  0  0  0
  6 21  1  0  0  0  0
  7 12  2  0  0  0  0
  7 20  1  0  0  0  0
  8  9  1  0  0  0  0
  8 23  2  0  0  0  0
  9 25  2  0  0  0  0
 10 26  1  0  0  0  0
 11 26  2  0  0  0  0
 12 27  1  0  0  0  0
 13 14  2  0  0  0  0
 13 28  1  0  0  0  0
 14 30  1  0  0  0  0
 15 22  1  0  0  0  0
 15 27  2  0  0  0  0
 16 30  2  0  0  0  0
 16 31  1  0  0  0  0
 17 32  1  0  0  0  0
 18 32  1  0  0  0  0
 18 33  2  0  0  0  0
 18 34  1  0  0  0  0
 19 21  2  0  0  0  0
 19 39  1  0  0  0  0
 20 22  2  0  0  0  0
 20 40  1  0  0  0  0
 21 48  1  0  0  0  0
 22 41  1  0  0  0  0
 23 29  1  0  0  0  0
 23 51  1  0  0  0  0
 24 25  1  0  0  0  0
 24 29  2  0  0  0  0
 24 58  1  0  0  0  0
 25 72  1  0  0  0  0
 26 81  1  0  0  0  0
 27 82  1  0  0  0  0
 28 31  2  0  0  0  0
 28 81  1  0  0  0  0
 29 83  1  0  0  0  0
 30 84  1  0  0  0  0
 31 85  1  0  0  0  0
 32 66  2  0  0  0  0
 33 67  1  0  0  0  0
 33 70  1  0  0  0  0
 34 71  1  0  0  0  0
 34 76  2  0  0  0  0
 35 49  1  0  0  0  0
 35 73  1  0  0  0  0
 35 77  2  0  0  0  0
 36 63  1  0  0  0  0
 36 68  1  0  0  0  0
 36 78  2  0  0  0  0
 37 64  1  0  0  0  0
 37 74  1  0  0  0  0
 37 79  2  0  0  0  0
 38 69  1  0  0  0  0
 38 72  1  0  0  0  0
 38 80  2  0  0  0  0
 39 42  1  0  0  0  0
 40 49  1  0  0  0  0
 41 68  1  0  0  0  0
 42 44  1  0  0  0  0
 43 45  1  0  0  0  0
 43 46  1  0  0  0  0
 44 48  1  0  0  0  0
 45 50  1  0  0  0  0
 46 69  1  0  0  0  0
 47 50  1  0  0  0  0
 47 69  1  0  0  0  0
 48 73  1  0  0  0  0
 49 68  1  0  0  0  0
 50 67  1  0  0  0  0
 52 58  1  0  0  0  0
 53 64  1  0  0  0  0
 54 65  1  0  0  0  0
 55 65  1  0  0  0  0
 56 65  1  0  0  0  0
 57 75  1  0  0  0  0
 59 60  1  0  0  0  0
 59 61  1  0  0  0  0
 60 62  1  0  0  0  0
 61 82  1  0  0  0  0
 62 83  1  0  0  0  0
 63 65  1  0  0  0  0
 63 74  1  0  0  0  0
 64 75  1  0  0  0  0
 66 67  1  0  0  0  0
M  CHG  1  75   1
M  ISO  4  38 100  61 101  72 100  82 101
M  END
> <Batch ID>
0121

> <Smiles>
CCc1c([100NH:0][100C:0](=O)N2CCCC(n3nc(-c4ccc(Oc5ccc(F)cc5F)cc4)c(C(N)=O)c3N)C2)ccc(C)c1OCCC[101CH2:1][101O:1]c1ccc2c(c1)CN(C(=O)C(NC(=O)C(C)NC)C(C)(C)C)C(C(=O)NC1CCCc3ccccc31)C2

> <Shape>
0.319

> <Color>
0.217

> <Negative vol penalty>
0.000

$$$$

  -OEChem-04052301573D

 87 96  0     1  0  0  0  0  0999 V2000
  -28.7322  -37.0317   21.3636 C   0  0  0  0  0  0  0  0  0  0  0  0
  -29.0345  -35.7449   20.9297 C   0  0  0  0  0  0  0  0  0  0  0  0
  -22.4884  -10.5865   22.1373 C   0  0  0  0  0  0  0  0  0  0  0  0
  -24.5397   -9.6536   21.2661 C   0  0  0  0  0  0  0  0  0  0  0  0
  -27.8540  -37.2181   22.4304 C   0  0  0  0  0  0  0  0  0  0  0  0
  -28.4596  -34.6437   21.5631 C   0  0  0  0  0  0  0  0  0  0  0  0
  -26.7789  -29.3617   18.9588 C   0  0  0  0  0  0  0  0  0  0  0  0
  -21.8269   -9.3900   21.8611 C   0  0  0  0  0  0  0  0  0  0  0  0
  -23.8782   -8.4570   20.9899 C   0  0  0  0  0  0  0  0  0  0  0  0
  -27.4024  -28.1176   18.8741 C   0  0  0  0  0  0  0  0  0  0  0  0
  -21.5481   -6.3197   23.2499 C   0  0  0  0  0  0  0  0  0  0  0  0
  -20.7042   -5.8036   24.2333 C   0  0  0  0  0  0  0  0  0  0  0  0
  -26.1444  -27.3635   20.7893 C   0  0  0  0  0  0  0  0  0  0  0  0
  -30.7437  -18.7929   20.6526 C   0  0  0  0  0  0  0  0  0  0  0  0
  -18.8389   -5.9395   22.7039 C   0  0  0  0  0  0  0  0  0  0  0  0
  -23.8448  -10.7184   21.8398 C   0  0  0  0  0  0  0  0  0  0  0  0
  -25.1933  -12.3034   23.3152 C   0  0  0  0  0  0  0  0  0  0  0  0
  -27.2605  -36.1189   23.0709 C   0  0  0  0  0  0  0  0  0  0  0  0
  -25.8400  -29.6201   19.9678 C   0  0  0  0  0  0  0  0  0  0  0  0
  -27.5736  -34.8155   22.6403 C   0  0  0  0  0  0  0  0  0  0  0  0
  -25.5086  -28.6109   20.8832 C   0  0  0  0  0  0  0  0  0  0  0  0
  -30.2875  -17.5571   21.1956 C   0  0  0  0  0  0  0  0  0  0  0  0
  -22.5217   -8.3253   21.2875 C   0  0  0  0  0  0  0  0  0  0  0  0
  -27.0873  -27.1192   19.7912 C   0  0  0  0  0  0  0  0  0  0  0  0
  -21.0374   -6.6459   21.9935 C   0  0  0  0  0  0  0  0  0  0  0  0
  -19.3496   -5.6135   23.9603 C   0  0  0  0  0  0  0  0  0  0  0  0
  -19.6828   -6.4557   21.7205 C   0  0  0  0  0  0  0  0  0  0  0  0
  -24.5286  -11.9543   22.1244 C   0  0  0  0  0  0  0  0  0  0  0  0
  -31.9195  -19.2115   21.2355 C   0  0  0  0  0  0  0  0  0  0  0  0
  -31.1323  -17.0781   22.1727 C   0  0  0  0  0  0  0  0  0  0  0  0
  -25.6716  -13.5698   23.0828 C   0  0  0  0  0  0  0  0  0  0  0  0
  -29.0693  -24.3028   20.8281 C   0  0  0  0  0  0  0  0  0  0  0  0
  -29.1426  -22.9664   20.9313 C   0  0  0  0  0  0  0  0  0  0  0  0
  -25.3634  -11.5503   24.5233 C   0  0  0  0  0  0  0  0  0  0  0  0
  -25.6621  -31.6628   22.3967 C   0  0  0  0  0  0  0  0  0  0  0  0
  -22.6808  -30.4239   22.7122 C   0  0  0  0  0  0  0  0  0  0  0  0
  -20.5537  -27.8144   22.1531 C   0  0  0  0  0  0  0  0  0  0  0  0
  -28.2001  -17.2972   19.8093 C   0  0  0  0  0  0  0  0  0  0  0  0
  -26.3540  -36.3685   24.2501 C   0  0  0  0  0  0  0  0  0  0  0  0
  -25.1566  -30.9586   20.0293 C   0  0  0  0  0  0  0  0  0  0  0  0
  -24.4924  -28.8311   21.9728 C   0  0  0  0  0  0  0  0  0  0  0  0
  -30.4108  -24.9108   20.5760 C   0  0  0  0  0  0  0  0  0  0  0  0
  -25.4965  -35.1625   24.6251 C   0  0  0  0  0  0  0  0  0  0  0  0
  -24.7060  -16.8169   19.3217 C   0  0  0  0  0  0  0  0  0  0  0  0
  -26.3446  -33.8952   24.6622 C   0  0  0  0  0  0  0  0  0  0  0  0
  -24.4031  -15.5378   20.1053 C   0  0  0  0  0  0  0  0  0  0  0  0
  -26.0735  -16.7560   18.6433 C   0  0  0  0  0  0  0  0  0  0  0  0
  -26.8903  -15.1424   20.3162 C   0  0  0  0  0  0  0  0  0  0  0  0
  -31.2466  -23.7001   20.2068 C   0  0  0  0  0  0  0  0  0  0  0  0
  -26.9508  -33.5966   23.2857 C   0  0  1  0  0  0  0  0  0  0  0  0
  -24.5949  -31.2798   21.4109 C   0  0  1  0  0  0  0  0  0  0  0  0
  -25.5512  -15.1828   21.0704 C   0  0  2  0  0  0  0  0  0  0  0  0
  -31.0214  -15.8391   22.9763 C   0  0  0  0  0  0  0  0  0  0  0  0
  -28.0305  -21.9891   21.1107 C   0  0  0  0  0  0  0  0  0  0  0  0
  -18.1894  -27.0782   22.5598 C   0  0  0  0  0  0  0  0  0  0  0  0
  -23.3651  -29.8465   25.6291 C   0  0  0  0  0  0  0  0  0  0  0  0
  -21.3977  -28.3003   25.7119 C   0  0  0  0  0  0  0  0  0  0  0  0
  -21.0551  -30.7284   25.2543 C   0  0  0  0  0  0  0  0  0  0  0  0
  -19.9969  -27.6066   19.2538 C   0  0  0  0  0  0  0  0  0  0  0  0
  -32.7200  -20.4560   20.9455 C   0  0  0  0  0  0  0  0  0  0  0  0
  -27.8757  -25.1867   20.9314 C   0  0  0  0  0  0  0  0  0  1  0  0
  -32.4983  -21.5872   21.9582 C   0  0  0  0  0  0  0  0  0  0  0  0
  -31.0544  -22.0556   22.1111 C   0  0  0  0  0  0  0  0  0  0  0  0
  -22.0799  -29.2629   23.4672 C   0  0  1  0  0  0  0  0  0  0  0  0
  -19.1426  -27.7668   21.5954 C   0  0  2  0  0  0  0  0  0  0  0  0
  -21.9950  -29.5307   24.9964 C   0  0  0  0  0  0  0  0  0  0  0  0
  -24.5778  -12.9209   21.2039 N   0  0  0  0  0  0  0  0  0  0  0  0
  -25.2792  -13.8900   21.8164 N   0  0  0  0  0  0  0  0  0  0  0  0
  -23.8562  -30.1586   21.9953 N   0  0  0  0  0  0  0  0  0  0  0  0
  -27.1121  -16.4192   19.6194 N   0  0  0  0  0  0  0  0  0  0  0  0
  -26.3852  -14.4297   23.8403 N   0  0  0  0  0  0  0  0  0  0  0  0
  -24.8079  -10.2654   24.5934 N   0  0  0  0  0  0  0  0  0  0  0  0
  -29.1073  -16.8882   20.7862 N   0  0  0  0  0  0  0  0  0  0  0  0
  -25.9563  -33.0128   22.4113 N   0  0  0  0  0  0  0  0  0  0  0  0
  -20.7935  -28.9878   22.8364 N   0  0  0  0  0  0  0  0  0  0  0  0
  -30.5040  -22.5180   20.7935 N   0  3  1  0  0  0  0  0  0  0  0  0
  -19.1210  -27.0247   20.3032 N   0  3  0  0  0  0  0  0  0  0  0  0
  -25.9753  -12.0097   25.5173 O   0  0  0  0  0  0  0  0  0  0  0  0
  -26.1793  -30.7976   23.0937 O   0  0  0  0  0  0  0  0  0  0  0  0
  -22.1238  -31.5238   22.7511 O   0  0  0  0  0  0  0  0  0  0  0  0
  -21.3612  -26.9004   22.0011 O   0  0  0  0  0  0  0  0  0  0  0  0
  -28.3041  -18.3488   19.1728 O   0  0  0  0  0  0  0  0  0  0  0  0
  -21.8766   -7.1574   21.0180 O   0  0  0  0  0  0  0  0  0  0  0  0
  -27.6948  -25.9041   19.7111 O   0  0  0  0  0  0  0  0  0  1  0  0
  -18.5397   -5.1164   24.9042 F   0  0  0  0  0  0  0  0  0  0  0  0
  -19.1866   -6.7660   20.5150 F   0  0  0  0  0  0  0  0  0  0  0  0
  -32.4688  -18.1167   22.4322 S   0  0  0  0  0  0  0  0  0  0  0  0
  1  2  1  0  0  0  0
  1  5  2  0  0  0  0
  2  6  2  0  0  0  0
  3  8  2  0  0  0  0
  3 16  1  0  0  0  0
  4  9  1  0  0  0  0
  4 16  2  0  0  0  0
  5 18  1  0  0  0  0
  6 20  1  0  0  0  0
  7 10  2  0  0  0  0
  7 19  1  0  0  0  0
  8 23  1  0  0  0  0
  9 23  2  0  0  0  0
 10 24  1  0  0  0  0
 11 12  2  0  0  0  0
 11 25  1  0  0  0  0
 12 26  1  0  0  0  0
 13 21  1  0  0  0  0
 13 24  2  0  0  0  0
 14 22  1  0  0  0  0
 14 29  2  0  0  0  0
 15 26  2  0  0  0  0
 15 27  1  0  0  0  0
 16 28  1  0  0  0  0
 17 28  1  0  0  0  0
 17 31  2  0  0  0  0
 17 34  1  0  0  0  0
 18 20  2  0  0  0  0
 18 39  1  0  0  0  0
 19 21  2  0  0  0  0
 19 40  1  0  0  0  0
 20 50  1  0  0  0  0
 21 41  1  0  0  0  0
 22 30  2  0  0  0  0
 22 73  1  0  0  0  0
 23 83  1  0  0  0  0
 24 84  1  0  0  0  0
 25 27  2  0  0  0  0
 25 83  1  0  0  0  0
 26 85  1  0  0  0  0
 27 86  1  0  0  0  0
 28 67  2  0  0  0  0
 29 60  1  0  0  0  0
 29 87  1  0  0  0  0
 30 53  1  0  0  0  0
 30 87  1  0  0  0  0
 31 68  1  0  0  0  0
 31 71  1  0  0  0  0
 32 33  2  0  0  0  0
 32 42  1  0  0  0  0
 32 61  1  0  0  0  0
 33 54  1  0  0  0  0
 33 76  1  0  0  0  0
 34 72  1  0  0  0  0
 34 78  2  0  0  0  0
 35 51  1  0  0  0  0
 35 74  1  0  0  0  0
 35 79  2  0  0  0  0
 36 64  1  0  0  0  0
 36 69  1  0  0  0  0
 36 80  2  0  0  0  0
 37 65  1  0  0  0  0
 37 75  1  0  0  0  0
 37 81  2  0  0  0  0
 38 70  1  0  0  0  0
 38 73  1  0  0  0  0
 38 82  2  0  0  0  0
 39 43  1  0  0  0  0
 40 51  1  0  0  0  0
 41 69  1  0  0  0  0
 42 49  1  0  0  0  0
 43 45  1  0  0  0  0
 44 46  1  0  0  0  0
 44 47  1  0  0  0  0
 45 50  1  0  0  0  0
 46 52  1  0  0  0  0
 47 70  1  0  0  0  0
 48 52  1  0  0  0  0
 48 70  1  0  0  0  0
 49 76  1  0  0  0  0
 50 74  1  0  0  0  0
 51 69  1  0  0  0  0
 52 68  1  0  0  0  0
 55 65  1  0  0  0  0
 56 66  1  0  0  0  0
 57 66  1  0  0  0  0
 58 66  1  0  0  0  0
 59 77  1  0  0  0  0
 60 62  1  0  0  0  0
 61 84  1  0  0  0  0
 62 63  1  0  0  0  0
 63 76  1  0  0  0  0
 64 66  1  0  0  0  0
 64 75  1  0  0  0  0
 65 77  1  0  0  0  0
 67 68  1  0  0  0  0
M  CHG  2  76   1  77   1
M  ISO  4  38 100  61 101  73 100  84 101
M  END
> <Batch ID>
0121

> <Smiles>
CNC(C)C(=O)NC(C(=O)N1Cc2cc([101O:1][101CH2:1]C3=C(C)N(CCCc4cc([100NH:0][100C:0](=O)N5CCCC(n6nc(-c7ccc(Oc8ccc(F)cc8F)cc7)c(C(N)=O)c6N)C5)c(C)s4)CC3)ccc2CC1C(=O)NC1CCCc2ccccc21)C(C)(C)C

> <Shape>
0.305

> <Color>
0.080

> <Negative vol penalty>
0.000

$$$$

  -OEChem-04052301573D

 85 93  0     1  0  0  0  0  0999 V2000
  -27.8076  -32.7286   27.5003 C   0  0  0  0  0  0  0  0  0  0  0  0
  -27.9602  -31.6560   26.6276 C   0  0  0  0  0  0  0  0  0  0  0  0
  -24.3036   -8.9376   21.4346 C   0  0  0  0  0  0  0  0  0  0  0  0
  -24.8233  -10.2297   23.4088 C   0  0  0  0  0  0  0  0  0  0  0  0
  -26.5381  -33.2490   27.7483 C   0  0  0  0  0  0  0  0  0  0  0  0
  -26.8431  -31.1024   26.0031 C   0  0  0  0  0  0  0  0  0  0  0  0
  -27.6068  -30.2288   21.0737 C   0  0  0  0  0  0  0  0  0  0  0  0
  -23.9947   -7.8382   22.2355 C   0  0  0  0  0  0  0  0  0  0  0  0
  -24.5144   -9.1303   24.2097 C   0  0  0  0  0  0  0  0  0  0  0  0
  -28.3478  -29.0976   20.7349 C   0  0  0  0  0  0  0  0  0  0  0  0
  -22.7227   -4.8025   23.7786 C   0  0  0  0  0  0  0  0  0  0  0  0
  -21.5615   -4.0893   23.4811 C   0  0  0  0  0  0  0  0  0  0  0  0
  -26.3040  -27.9114   20.2500 C   0  0  0  0  0  0  0  0  0  0  0  0
  -27.9178  -20.3474   20.6740 C   0  0  0  0  0  0  0  0  0  0  0  0
  -30.1125  -18.7795   19.9614 C   0  0  0  0  0  0  0  0  0  0  0  0
  -20.2442   -6.0812   23.8472 C   0  0  0  0  0  0  0  0  0  0  0  0
  -24.7180  -10.1334   22.0212 C   0  0  0  0  0  0  0  0  0  0  0  0
  -24.1592  -12.2814   20.7636 C   0  0  0  0  0  0  0  0  0  0  0  0
  -25.4060  -32.7077   27.1190 C   0  0  0  0  0  0  0  0  0  0  0  0
  -26.2059  -30.2064   21.0135 C   0  0  0  0  0  0  0  0  0  0  0  0
  -25.5571  -31.6152   26.2438 C   0  0  0  0  0  0  0  0  0  0  0  0
  -25.5476  -29.0445   20.5861 C   0  0  0  0  0  0  0  0  0  0  0  0
  -27.7338  -19.0123   20.3148 C   0  0  0  0  0  0  0  0  0  0  0  0
  -28.8311  -18.2283   19.9585 C   0  0  0  0  0  0  0  0  0  0  0  0
  -24.1001   -7.9345   23.6230 C   0  0  0  0  0  0  0  0  0  0  0  0
  -27.6964  -27.9377   20.3257 C   0  0  0  0  0  0  0  0  0  0  0  0
  -22.6447   -6.1551   24.1105 C   0  0  0  0  0  0  0  0  0  0  0  0
  -29.1991  -20.8987   20.6768 C   0  0  0  0  0  0  0  0  0  0  0  0
  -20.3222   -4.7286   23.5154 C   0  0  0  0  0  0  0  0  0  0  0  0
  -30.2964  -20.1147   20.3206 C   0  0  0  0  0  0  0  0  0  0  0  0
  -21.4054   -6.7945   24.1447 C   0  0  0  0  0  0  0  0  0  0  0  0
  -25.0377  -11.2693   21.1944 C   0  0  0  0  0  0  0  0  0  0  0  0
  -24.9440  -13.1193   20.0096 C   0  0  0  0  0  0  0  0  0  0  0  0
  -22.7589  -12.4491   21.0219 C   0  0  0  0  0  0  0  0  0  0  0  0
  -23.8637  -30.5638   23.1325 C   0  0  0  0  0  0  0  0  0  0  0  0
  -28.8469  -24.5067   20.5148 C   0  0  0  0  0  0  0  0  0  0  0  0
  -21.9823  -30.4258   20.4937 C   0  0  0  0  0  0  0  0  0  0  0  0
  -21.5958  -29.4012   17.2614 C   0  0  0  0  0  0  0  0  0  0  0  0
  -29.6605  -15.9693   19.2132 C   0  0  0  0  0  0  0  0  0  0  0  0
  -24.0488  -33.2733   27.4548 C   0  0  0  0  0  0  0  0  0  0  0  0
  -25.4222  -31.4435   21.3567 C   0  0  0  0  0  0  0  0  0  0  0  0
  -24.0465  -28.9752   20.4850 C   0  0  0  0  0  0  0  0  0  0  0  0
  -22.9592  -32.8709   26.4643 C   0  0  0  0  0  0  0  0  0  0  0  0
  -29.6620  -12.5356   18.2715 C   0  0  0  0  0  0  0  0  0  0  0  0
  -23.0306  -31.3758   26.1704 C   0  0  0  0  0  0  0  0  0  0  0  0
  -28.3868  -11.9833   18.9125 C   0  0  0  0  0  0  0  0  0  0  0  0
  -30.3374  -13.5789   19.1598 C   0  0  0  0  0  0  0  0  0  0  0  0
  -28.1919  -14.1246   20.2406 C   0  0  0  0  0  0  0  0  0  0  0  0
  -24.3723  -31.0033   25.5281 C   0  0  1  0  0  0  0  0  0  0  0  0
  -23.9791  -31.1460   21.7521 C   0  0  1  0  0  0  0  0  0  0  0  0
  -27.4412  -13.1175   19.3541 C   0  0  2  0  0  0  0  0  0  0  0  0
  -25.7709  -18.3241   18.9147 C   0  0  0  0  0  0  0  0  0  0  0  0
  -19.9346  -29.4003   15.3805 C   0  0  0  0  0  0  0  0  0  0  0  0
  -20.4228  -28.1968   21.8754 C   0  0  0  0  0  0  0  0  0  0  0  0
  -19.4345  -27.6052   19.6525 C   0  0  0  0  0  0  0  0  0  0  0  0
  -19.0079  -29.8529   20.6467 C   0  0  0  0  0  0  0  0  0  0  0  0
  -23.3991  -30.9672   15.5137 C   0  0  0  0  0  0  0  0  0  0  0  0
  -26.3500  -18.4482   20.3204 C   0  0  0  0  0  0  0  0  0  0  0  0
  -27.8025  -25.5641   20.2213 C   0  0  0  0  0  0  0  0  0  1  0  0
  -28.3201  -23.1070   20.7561 C   0  0  0  0  0  0  0  0  0  0  0  0
  -21.3006  -29.3209   19.7233 C   0  0  1  0  0  0  0  0  0  0  0  0
  -21.1017  -30.1313   16.0256 C   0  0  2  0  0  0  0  0  0  0  0  0
  -20.0697  -28.7443   20.4781 C   0  0  0  0  0  0  0  0  0  0  0  0
  -26.2851  -11.4461   20.7509 N   0  0  0  0  0  0  0  0  0  0  0  0
  -26.1960  -12.5790   20.0334 N   0  0  0  0  0  0  0  0  0  0  0  0
  -23.3241  -30.2087   20.8374 N   0  0  0  0  0  0  0  0  0  0  0  0
  -29.3824  -14.6240   19.5349 N   0  0  0  0  0  0  0  0  0  0  0  0
  -24.6782  -14.2581   19.3351 N   0  0  0  0  0  0  0  0  0  0  0  0
  -22.1071  -11.4960   21.8164 N   0  0  0  0  0  0  0  0  0  0  0  0
  -28.6651  -16.8700   19.5905 N   0  0  0  0  0  0  0  0  0  0  0  0
  -24.3816  -31.3700   24.1282 N   0  0  0  0  0  0  0  0  0  0  0  0
  -20.9911  -29.8712   18.4081 N   0  0  0  0  0  0  0  0  0  0  0  0
  -22.1962  -30.2482   15.0208 N   0  3  0  0  0  0  0  0  0  0  0  0
  -22.1014  -13.4067   20.5483 O   0  0  0  0  0  0  0  0  0  0  0  0
  -23.3421  -29.4653   23.2833 O   0  0  0  0  0  0  0  0  0  0  0  0
  -30.0481  -24.7687   20.5552 O   0  0  0  0  0  0  0  0  0  0  0  0
  -21.3496  -31.4471   20.7738 O   0  0  0  0  0  0  0  0  0  0  0  0
  -22.4315  -28.5014   17.2139 O   0  0  0  0  0  0  0  0  0  0  0  0
  -30.6923  -16.2949   18.6204 O   0  0  0  0  0  0  0  0  0  0  0  0
  -23.7985   -6.8620   24.4048 O   0  0  0  0  0  0  0  0  0  0  0  0
  -28.4173  -26.8319   19.9950 O   0  0  0  0  0  0  0  0  0  1  0  0
  -29.3793  -22.2148   21.0310 O   0  0  0  0  0  0  0  0  0  0  0  0
  -19.2074   -4.0440   23.2282 F   0  0  0  0  0  0  0  0  0  0  0  0
  -31.5299  -20.6387   20.3215 F   0  0  0  0  0  0  0  0  0  0  0  0
  -21.3243   -8.0940   24.4617 F   0  0  0  0  0  0  0  0  0  0  0  0
  1  2  1  0  0  0  0
  1  5  2  0  0  0  0
  2  6  2  0  0  0  0
  3  8  2  0  0  0  0
  3 17  1  0  0  0  0
  4  9  1  0  0  0  0
  4 17  2  0  0  0  0
  5 19  1  0  0  0  0
  6 21  1  0  0  0  0
  7 10  2  0  0  0  0
  7 20  1  0  0  0  0
  8 25  1  0  0  0  0
  9 25  2  0  0  0  0
 10 26  1  0  0  0  0
 11 12  2  0  0  0  0
 11 27  1  0  0  0  0
 12 29  1  0  0  0  0
 13 22  1  0  0  0  0
 13 26  2  0  0  0  0
 14 23  1  0  0  0  0
 14 28  2  0  0  0  0
 15 24  1  0  0  0  0
 15 30  2  0  0  0  0
 16 29  2  0  0  0  0
 16 31  1  0  0  0  0
 17 32  1  0  0  0  0
 18 32  1  0  0  0  0
 18 33  2  0  0  0  0
 18 34  1  0  0  0  0
 19 21  2  0  0  0  0
 19 40  1  0  0  0  0
 20 22  2  0  0  0  0
 20 41  1  0  0  0  0
 21 49  1  0  0  0  0
 22 42  1  0  0  0  0
 23 24  2  0  0  0  0
 23 58  1  0  0  0  0
 24 70  1  0  0  0  0
 25 80  1  0  0  0  0
 26 81  1  0  0  0  0
 27 31  2  0  0  0  0
 27 80  1  0  0  0  0
 28 30  1  0  0  0  0
 28 82  1  0  0  0  0
 29 83  1  0  0  0  0
 30 84  1  0  0  0  0
 31 85  1  0  0  0  0
 32 64  2  0  0  0  0
 33 65  1  0  0  0  0
 33 68  1  0  0  0  0
 34 69  1  0  0  0  0
 34 74  2  0  0  0  0
 35 50  1  0  0  0  0
 35 71  1  0  0  0  0
 35 75  2  0  0  0  0
 36 59  1  0  0  0  0
 36 60  1  0  0  0  0
 36 76  2  0  0  0  0
 37 61  1  0  0  0  0
 37 66  1  0  0  0  0
 37 77  2  0  0  0  0
 38 62  1  0  0  0  0
 38 72  1  0  0  0  0
 38 78  2  0  0  0  0
 39 67  1  0  0  0  0
 39 70  1  0  0  0  0
 39 79  2  0  0  0  0
 40 43  1  0  0  0  0
 41 50  1  0  0  0  0
 42 66  1  0  0  0  0
 43 45  1  0  0  0  0
 44 46  1  0  0  0  0
 44 47  1  0  0  0  0
 45 49  1  0  0  0  0
 46 51  1  0  0  0  0
 47 67  1  0  0  0  0
 48 51  1  0  0  0  0
 48 67  1  0  0  0  0
 49 71  1  0  0  0  0
 50 66  1  0  0  0  0
 51 65  1  0  0  0  0
 52 58  1  0  0  0  0
 53 62  1  0  0  0  0
 54 63  1  0  0  0  0
 55 63  1  0  0  0  0
 56 63  1  0  0  0  0
 57 73  1  0  0  0  0
 59 81  1  0  0  0  0
 60 82  1  0  0  0  0
 61 63  1  0  0  0  0
 61 72  1  0  0  0  0
 62 73  1  0  0  0  0
 64 65  1  0  0  0  0
M  CHG  1  73   1
M  ISO  4  39 100  59 101  70 100  81 101
M  END
> <Batch ID>
0121

> <Smiles>
CCc1cc(OCC(=O)[101CH2:1][101O:1]c2ccc3c(c2)CN(C(=O)C(NC(=O)C(C)NC)C(C)(C)C)C(C(=O)NC2CCCc4ccccc42)C3)c(F)cc1[100NH:0][100C:0](=O)N1CCCC(n2nc(-c3ccc(Oc4ccc(F)cc4F)cc3)c(C(N)=O)c2N)C1

> <Shape>
0.340

> <Color>
0.132

> <Negative vol penalty>
0.000

$$$$

  -OEChem-04052301573D

 85 93  0     1  0  0  0  0  0999 V2000
  -24.7028  -19.8945   25.4646 C   0  0  0  0  0  0  0  0  0  0  0  0
  -25.7994  -20.7135   25.2152 C   0  0  0  0  0  0  0  0  0  0  0  0
  -24.1035   -9.5764   22.2845 C   0  0  0  0  0  0  0  0  0  0  0  0
  -23.7604   -9.3767   19.9013 C   0  0  0  0  0  0  0  0  0  0  0  0
  -23.4896  -20.1415   24.8236 C   0  0  0  0  0  0  0  0  0  0  0  0
  -25.6836  -21.7795   24.3237 C   0  0  0  0  0  0  0  0  0  0  0  0
  -27.7959  -26.0288   26.0918 C   0  0  0  0  0  0  0  0  0  0  0  0
  -23.0801   -8.6557   22.5090 C   0  0  0  0  0  0  0  0  0  0  0  0
  -22.7370   -8.4559   20.1258 C   0  0  0  0  0  0  0  0  0  0  0  0
  -29.1846  -26.1278   26.0185 C   0  0  0  0  0  0  0  0  0  0  0  0
  -22.6787   -5.3003   22.3938 C   0  0  0  0  0  0  0  0  0  0  0  0
  -22.9083   -4.2913   23.3292 C   0  0  0  0  0  0  0  0  0  0  0  0
  -28.8143  -21.2607   20.5672 C   0  0  0  0  0  0  0  0  0  0  0  0
  -29.7534  -23.3527   21.3282 C   0  0  0  0  0  0  0  0  0  0  0  0
  -28.9769  -27.4931   24.0407 C   0  0  0  0  0  0  0  0  0  0  0  0
  -21.0310   -5.0735   24.6335 C   0  0  0  0  0  0  0  0  0  0  0  0
  -24.4436   -9.9370   20.9806 C   0  0  0  0  0  0  0  0  0  0  0  0
  -29.4331  -20.5975   21.6268 C   0  0  0  0  0  0  0  0  0  0  0  0
  -30.3722  -22.6894   22.3878 C   0  0  0  0  0  0  0  0  0  0  0  0
  -26.8697  -10.6126   20.5738 C   0  0  0  0  0  0  0  0  0  0  0  0
  -23.3562  -21.2169   23.9312 C   0  0  0  0  0  0  0  0  0  0  0  0
  -26.9862  -26.6532   25.1322 C   0  0  0  0  0  0  0  0  0  0  0  0
  -24.4678  -22.0403   23.6692 C   0  0  0  0  0  0  0  0  0  0  0  0
  -27.5781  -27.4026   24.1055 C   0  0  0  0  0  0  0  0  0  0  0  0
  -28.9745  -22.6383   20.4178 C   0  0  0  0  0  0  0  0  0  0  0  0
  -30.2120  -21.3118   22.5371 C   0  0  0  0  0  0  0  0  0  0  0  0
  -22.3969   -8.0953   21.4297 C   0  0  0  0  0  0  0  0  0  0  0  0
  -29.7755  -26.8576   24.9912 C   0  0  0  0  0  0  0  0  0  0  0  0
  -21.6254   -6.1959   22.5783 C   0  0  0  0  0  0  0  0  0  0  0  0
  -22.0844   -4.1779   24.4490 C   0  0  0  0  0  0  0  0  0  0  0  0
  -20.8015   -6.0825   23.6982 C   0  0  0  0  0  0  0  0  0  0  0  0
  -25.5003  -10.8886   20.7480 C   0  0  0  0  0  0  0  0  0  0  0  0
  -27.4471  -11.8446   20.3865 C   0  0  0  0  0  0  0  0  0  0  0  0
  -29.2446  -19.1577   21.7530 C   0  0  0  0  0  0  0  0  0  0  0  0
  -31.1880  -23.4754   23.3284 C   0  0  0  0  0  0  0  0  0  0  0  0
  -28.0564  -18.5356   21.8914 C   0  0  0  0  0  0  0  0  0  0  0  0
  -32.2569  -24.2157   22.9951 C   0  0  0  0  0  0  0  0  0  0  0  0
  -27.5581   -9.3549   20.5806 C   0  0  0  0  0  0  0  0  0  0  0  0
  -28.0292  -17.0629   21.9977 C   0  0  0  0  0  0  0  0  0  0  0  0
  -24.8860  -25.6444   22.9700 C   0  0  0  0  0  0  0  0  0  0  0  0
  -24.3892  -28.8211   22.5411 C   0  0  0  0  0  0  0  0  0  0  0  0
  -25.5934  -32.0034   22.8050 C   0  0  0  0  0  0  0  0  0  0  0  0
  -22.0378  -21.4159   23.2261 C   0  0  0  0  0  0  0  0  0  0  0  0
  -25.4889  -26.5591   25.2406 C   0  0  0  0  0  0  0  0  0  0  0  0
  -26.7528  -28.1087   23.0620 C   0  0  0  0  0  0  0  0  0  0  0  0
  -21.8937  -22.7919   22.5809 C   0  0  0  0  0  0  0  0  0  0  0  0
  -25.3841  -16.3708   19.5571 C   0  0  0  0  0  0  0  0  0  0  0  0
  -23.1548  -23.1506   21.8013 C   0  0  0  0  0  0  0  0  0  0  0  0
  -25.2636  -14.8539   19.6769 C   0  0  0  0  0  0  0  0  0  0  0  0
  -25.7273  -17.0245   20.8948 C   0  0  0  0  0  0  0  0  0  0  0  0
  -26.8257  -14.9392   21.6601 C   0  0  0  0  0  0  0  0  0  0  0  0
  -24.3747  -23.2214   22.7276 C   0  0  1  0  0  0  0  0  0  0  0  0
  -24.7770  -26.8079   23.9145 C   0  0  1  0  0  0  0  0  0  0  0  0
  -26.5271  -14.2563   20.3162 C   0  0  1  0  0  0  0  0  0  0  0  0
  -28.3148  -23.3465   19.2829 C   0  0  0  0  0  0  0  0  0  0  0  0
  -30.8777  -20.5996   23.6761 C   0  0  0  0  0  0  0  0  0  0  0  0
  -24.9720  -34.3897   22.3392 C   0  0  0  0  0  0  0  0  0  0  0  0
  -24.9107  -28.3740   19.5682 C   0  0  0  0  0  0  0  0  0  0  0  0
  -25.2184  -30.8464   19.3216 C   0  0  0  0  0  0  0  0  0  0  0  0
  -23.0219  -29.9335   20.0730 C   0  0  0  0  0  0  0  0  0  0  0  0
  -25.8049  -32.7383   25.6641 C   0  0  0  0  0  0  0  0  0  0  0  0
  -33.0577  -25.0063   23.9908 C   0  0  0  0  0  0  0  0  0  0  0  0
  -33.0951  -26.4877   23.6200 C   0  0  0  0  0  0  0  0  0  0  0  0
  -31.7012  -27.1002   23.6170 C   0  0  0  0  0  0  0  0  0  1  0  0
  -24.9909  -29.8877   21.6583 C   0  0  1  0  0  0  0  0  0  0  0  0
  -24.9760  -33.2705   23.3688 C   0  0  2  0  0  0  0  0  0  0  0  0
  -24.5514  -29.7456   20.1737 C   0  0  0  0  0  0  0  0  0  0  0  0
  -25.2243  -12.1935   20.6779 N   0  0  0  0  0  0  0  0  0  0  0  0
  -26.4283  -12.7485   20.4576 N   0  0  0  0  0  0  0  0  0  0  0  0
  -26.9043  -16.3970   21.5143 N   0  0  0  0  0  0  0  0  0  0  0  0
  -25.2933  -27.9817   23.2073 N   0  0  0  0  0  0  0  0  0  0  0  0
  -28.7220  -12.2321   20.1698 N   0  0  0  0  0  0  0  0  0  0  0  0
  -26.8125   -8.1862   20.7866 N   0  0  0  0  0  0  0  0  0  0  0  0
  -24.3733  -24.4631   23.4711 N   0  0  0  0  0  0  0  0  0  0  0  0
  -24.6393  -31.1666   22.2658 N   0  0  0  0  0  0  0  0  0  0  0  0
  -25.7400  -33.7324   24.5621 N   0  3  0  0  0  0  0  0  0  0  0  0
  -28.8001   -9.2715   20.4253 O   0  0  0  0  0  0  0  0  0  0  0  0
  -29.0035  -16.5119   22.5131 O   0  0  0  0  0  0  0  0  0  0  0  0
  -25.3960  -25.8067   21.8676 O   0  0  0  0  0  0  0  0  0  0  0  0
  -23.1624  -28.7405   22.6417 O   0  0  0  0  0  0  0  0  0  0  0  0
  -26.8015  -31.7802   22.8363 O   0  0  0  0  0  0  0  0  0  0  0  0
  -21.3984   -7.1966   21.6484 O   0  0  0  0  0  0  0  0  0  0  0  0
  -31.1308  -26.9552   24.9170 O   0  0  0  0  0  0  0  0  0  1  0  0
  -22.3040   -3.2080   25.3463 F   0  0  0  0  0  0  0  0  0  0  0  0
  -19.7873   -6.9392   23.8802 F   0  0  0  0  0  0  0  0  0  0  0  0
  1  2  1  0  0  0  0
  1  5  2  0  0  0  0
  2  6  2  0  0  0  0
  3  8  2  0  0  0  0
  3 17  1  0  0  0  0
  4  9  1  0  0  0  0
  4 17  2  0  0  0  0
  5 21  1  0  0  0  0
  6 23  1  0  0  0  0
  7 10  2  0  0  0  0
  7 22  1  0  0  0  0
  8 27  1  0  0  0  0
  9 27  2  0  0  0  0
 10 28  1  0  0  0  0
 11 12  2  0  0  0  0
 11 29  1  0  0  0  0
 12 30  1  0  0  0  0
 13 18  2  0  0  0  0
 13 25  1  0  0  0  0
 14 19  1  0  0  0  0
 14 25  2  0  0  0  0
 15 24  1  0  0  0  0
 15 28  2  0  0  0  0
 16 30  2  0  0  0  0
 16 31  1  0  0  0  0
 17 32  1  0  0  0  0
 18 26  1  0  0  0  0
 18 34  1  0  0  0  0
 19 26  2  0  0  0  0
 19 35  1  0  0  0  0
 20 32  1  0  0  0  0
 20 33  2  0  0  0  0
 20 38  1  0  0  0  0
 21 23  2  0  0  0  0
 21 43  1  0  0  0  0
 22 24  2  0  0  0  0
 22 44  1  0  0  0  0
 23 52  1  0  0  0  0
 24 45  1  0  0  0  0
 25 55  1  0  0  0  0
 26 56  1  0  0  0  0
 27 82  1  0  0  0  0
 28 83  1  0  0  0  0
 29 31  2  0  0  0  0
 29 82  1  0  0  0  0
 30 84  1  0  0  0  0
 31 85  1  0  0  0  0
 32 68  2  0  0  0  0
 33 69  1  0  0  0  0
 33 72  1  0  0  0  0
 34 36  2  0  0  0  0
 35 37  2  0  0  0  0
 36 39  1  0  0  0  0
 37 62  1  0  0  0  0
 38 73  1  0  0  0  0
 38 77  2  0  0  0  0
 39 70  1  0  0  0  0
 39 78  2  0  0  0  0
 40 53  1  0  0  0  0
 40 74  1  0  0  0  0
 40 79  2  0  0  0  0
 41 65  1  0  0  0  0
 41 71  1  0  0  0  0
 41 80  2  0  0  0  0
 42 66  1  0  0  0  0
 42 75  1  0  0  0  0
 42 81  2  0  0  0  0
 43 46  1  0  0  0  0
 44 53  1  0  0  0  0
 45 71  1  0  0  0  0
 46 48  1  0  0  0  0
 47 49  1  0  0  0  0
 47 50  1  0  0  0  0
 48 52  1  0  0  0  0
 49 54  1  0  0  0  0
 50 70  1  0  0  0  0
 51 54  1  0  0  0  0
 51 70  1  0  0  0  0
 52 74  1  0  0  0  0
 53 71  1  0  0  0  0
 54 69  1  0  0  0  0
 57 66  1  0  0  0  0
 58 67  1  0  0  0  0
 59 67  1  0  0  0  0
 60 67  1  0  0  0  0
 61 76  1  0  0  0  0
 62 63  1  0  0  0  0
 63 64  1  0  0  0  0
 64 83  1  0  0  0  0
 65 67  1  0  0  0  0
 65 75  1  0  0  0  0
 66 76  1  0  0  0  0
 68 69  1  0  0  0  0
M  CHG  1  76   1
M  ISO  4  36 100  39 100  64 101  83 101
M  END
> <Batch ID>
0121

> <Smiles>
CNC(C)C(=O)NC(C(=O)N1Cc2cc([101O:1][101CH2:1]CCC=Cc3cc(C)cc(C=[100CH:0][100C:0](=O)N4CCCC(n5nc(-c6ccc(Oc7ccc(F)cc7F)cc6)c(C(N)=O)c5N)C4)c3C)ccc2CC1C(=O)NC1CCCc2ccccc21)C(C)(C)C

> <Shape>
0.228

> <Color>
0.097

> <Negative vol penalty>
0.000

$$$$

  -OEChem-04052301573D

 83 91  0     1  0  0  0  0  0999 V2000
  -25.8053  -35.0774   20.0710 C   0  0  0  0  0  0  0  0  0  0  0  0
  -26.3321  -33.8176   20.3370 C   0  0  0  0  0  0  0  0  0  0  0  0
  -23.0851   -9.8475   19.9600 C   0  0  0  0  0  0  0  0  0  0  0  0
  -23.8691   -9.8795   22.2451 C   0  0  0  0  0  0  0  0  0  0  0  0
  -24.6017  -35.4664   20.6574 C   0  0  0  0  0  0  0  0  0  0  0  0
  -25.6561  -32.9464   21.1906 C   0  0  0  0  0  0  0  0  0  0  0  0
  -25.3693  -26.8448   20.7503 C   0  0  0  0  0  0  0  0  0  0  0  0
  -22.3390   -8.7008   20.2320 C   0  0  0  0  0  0  0  0  0  0  0  0
  -23.1230   -8.7328   22.5171 C   0  0  0  0  0  0  0  0  0  0  0  0
  -26.0729  -25.8242   21.3883 C   0  0  0  0  0  0  0  0  0  0  0  0
  -19.8980   -7.9566   23.1632 C   0  0  0  0  0  0  0  0  0  0  0  0
  -19.1532   -7.9345   24.3424 C   0  0  0  0  0  0  0  0  0  0  0  0
  -24.2900  -25.6100   22.9990 C   0  0  0  0  0  0  0  0  0  0  0  0
  -28.8367  -17.7183   21.8460 C   0  0  0  0  0  0  0  0  0  0  0  0
  -20.3941   -6.0009   25.0898 C   0  0  0  0  0  0  0  0  0  0  0  0
  -23.8502  -10.4368   20.9665 C   0  0  0  0  0  0  0  0  0  0  0  0
  -24.2015  -12.9588   20.8116 C   0  0  0  0  0  0  0  0  0  0  0  0
  -23.9057  -34.5959   21.5110 C   0  0  0  0  0  0  0  0  0  0  0  0
  -24.1235  -27.2638   21.2391 C   0  0  0  0  0  0  0  0  0  0  0  0
  -24.4427  -33.3247   21.7900 C   0  0  0  0  0  0  0  0  0  0  0  0
  -23.5713  -26.6344   22.3639 C   0  0  0  0  0  0  0  0  0  0  0  0
  -22.3579   -8.1434   21.5106 C   0  0  0  0  0  0  0  0  0  0  0  0
  -25.5347  -25.2086   22.5145 C   0  0  0  0  0  0  0  0  0  0  0  0
  -20.8907   -7.0008   22.9473 C   0  0  0  0  0  0  0  0  0  0  0  0
  -28.2857  -18.5786   20.8664 C   0  0  0  0  0  0  0  0  0  0  0  0
  -19.4012   -6.9566   25.3057 C   0  0  0  0  0  0  0  0  0  0  0  0
  -21.1388   -6.0230   23.9106 C   0  0  0  0  0  0  0  0  0  0  0  0
  -24.6216  -11.6210   20.6860 C   0  0  0  0  0  0  0  0  0  0  0  0
  -29.4714  -16.7114   21.1567 C   0  0  0  0  0  0  0  0  0  0  0  0
  -28.6232  -18.0361   19.6483 C   0  0  0  0  0  0  0  0  0  0  0  0
  -25.2929  -13.6989   20.4277 C   0  0  0  0  0  0  0  0  0  0  0  0
  -22.9376  -13.4853   21.2374 C   0  0  0  0  0  0  0  0  0  0  0  0
  -30.1970  -15.5731   21.6080 C   0  0  0  0  0  0  0  0  0  0  0  0
  -30.8082  -14.6005   20.6732 C   0  0  0  0  0  0  0  0  0  0  0  0
  -22.9691  -29.9907   22.3947 C   0  0  0  0  0  0  0  0  0  0  0  0
  -20.1614  -28.3666   22.3542 C   0  0  0  0  0  0  0  0  0  0  0  0
  -18.5552  -25.3557   22.3938 C   0  0  0  0  0  0  0  0  0  0  0  0
  -22.6321  -35.0787   22.1588 C   0  0  0  0  0  0  0  0  0  0  0  0
  -23.3649  -28.3478   20.5237 C   0  0  0  0  0  0  0  0  0  0  0  0
  -22.2282  -27.0334   22.9164 C   0  0  0  0  0  0  0  0  0  0  0  0
  -21.7886  -33.9552   22.7559 C   0  0  0  0  0  0  0  0  0  0  0  0
  -29.6021  -12.3138   18.1886 C   0  0  0  0  0  0  0  0  0  0  0  0
  -22.6622  -33.0076   23.5718 C   0  0  0  0  0  0  0  0  0  0  0  0
  -28.1772  -12.0102   18.6503 C   0  0  0  0  0  0  0  0  0  0  0  0
  -30.5396  -12.5255   19.3730 C   0  0  0  0  0  0  0  0  0  0  0  0
  -28.6513  -13.2831   20.7904 C   0  0  0  0  0  0  0  0  0  0  0  0
  -23.7264  -32.3421   22.6910 C   0  0  1  0  0  0  0  0  0  0  0  0
  -22.3388  -29.0449   21.4118 C   0  0  1  0  0  0  0  0  0  0  0  0
  -27.6694  -13.0906   19.6215 C   0  0  2  0  0  0  0  0  0  0  0  0
  -28.3619  -18.4364   18.2579 C   0  0  0  0  0  0  0  0  0  0  0  0
  -16.2564  -24.3492   22.3902 C   0  0  0  0  0  0  0  0  0  0  0  0
  -19.8369  -29.1031   25.2973 C   0  0  0  0  0  0  0  0  0  0  0  0
  -18.0807  -27.3277   25.4760 C   0  0  0  0  0  0  0  0  0  0  0  0
  -17.7404  -29.2666   23.9438 C   0  0  0  0  0  0  0  0  0  0  0  0
  -19.0502  -23.9461   19.8391 C   0  0  0  0  0  0  0  0  0  0  0  0
  -26.2097  -21.8922   23.8071 C   0  0  0  0  0  0  0  0  0  0  0  0
  -26.5197  -21.4174   22.3918 C   0  0  0  0  0  0  0  0  0  0  0  0
  -25.4490  -23.2116   23.8030 C   0  0  0  0  0  0  0  0  0  1  0  0
  -27.3172  -20.1209   22.3958 C   0  0  0  0  0  0  0  0  0  0  0  0
  -19.4235  -27.4825   23.3304 C   0  0  1  0  0  0  0  0  0  0  0  0
  -17.4308  -24.8025   21.5370 C   0  0  2  0  0  0  0  0  0  0  0  0
  -18.7966  -28.2885   24.5029 C   0  0  0  0  0  0  0  0  0  0  0  0
  -25.8815  -11.5145   20.2558 N   0  0  0  0  0  0  0  0  0  0  0  0
  -30.3993  -15.2715   22.8802 N   0  0  0  0  0  0  0  0  0  0  0  0
  -26.2625  -12.7948   20.1076 N   0  0  0  0  0  0  0  0  0  0  0  0
  -30.0105  -13.5304   20.2929 N   0  0  0  0  0  0  0  0  0  0  0  0
  -21.5280  -28.1026   22.1856 N   0  0  0  0  0  0  0  0  0  0  0  0
  -25.5082  -15.0285   20.3359 N   0  0  0  0  0  0  0  0  0  0  0  0
  -21.9255  -12.5848   21.5965 N   0  0  0  0  0  0  0  0  0  0  0  0
  -23.1405  -31.2735   21.9105 N   0  0  0  0  0  0  0  0  0  0  0  0
  -18.4578  -26.7230   22.5438 N   0  0  0  0  0  0  0  0  0  0  0  0
  -17.9110  -23.6375   20.7413 N   0  3  0  0  0  0  0  0  0  0  0  0
  -22.7072  -14.7175   21.2819 O   0  0  0  0  0  0  0  0  0  0  0  0
  -31.9585  -14.8460   20.3345 O   0  0  0  0  0  0  0  0  0  0  0  0
  -23.2758  -29.5868   23.5103 O   0  0  0  0  0  0  0  0  0  0  0  0
  -19.5463  -29.2539   21.7576 O   0  0  0  0  0  0  0  0  0  0  0  0
  -19.4301  -24.6455   22.8844 O   0  0  0  0  0  0  0  0  0  0  0  0
  -29.3460  -16.8977   19.8165 O   0  0  0  0  0  0  0  0  0  0  0  0
  -21.6298   -7.0246   21.7764 O   0  0  0  0  0  0  0  0  0  0  0  0
  -26.2197  -24.2127   23.1396 O   0  0  0  0  0  0  0  0  0  1  0  0
  -27.5595  -19.7261   21.0525 O   0  0  0  0  0  0  0  0  0  0  0  0
  -18.6870   -6.9364   26.4386 F   0  0  0  0  0  0  0  0  0  0  0  0
  -22.0921   -5.1029   23.7093 F   0  0  0  0  0  0  0  0  0  0  0  0
  1  2  1  0  0  0  0
  1  5  2  0  0  0  0
  2  6  2  0  0  0  0
  3  8  2  0  0  0  0
  3 16  1  0  0  0  0
  4  9  1  0  0  0  0
  4 16  2  0  0  0  0
  5 18  1  0  0  0  0
  6 20  1  0  0  0  0
  7 10  2  0  0  0  0
  7 19  1  0  0  0  0
  8 22  1  0  0  0  0
  9 22  2  0  0  0  0
 10 23  1  0  0  0  0
 11 12  2  0  0  0  0
 11 24  1  0  0  0  0
 12 26  1  0  0  0  0
 13 21  1  0  0  0  0
 13 23  2  0  0  0  0
 14 25  1  0  0  0  0
 14 29  2  0  0  0  0
 15 26  2  0  0  0  0
 15 27  1  0  0  0  0
 16 28  1  0  0  0  0
 17 28  1  0  0  0  0
 17 31  2  0  0  0  0
 17 32  1  0  0  0  0
 18 20  2  0  0  0  0
 18 38  1  0  0  0  0
 19 21  2  0  0  0  0
 19 39  1  0  0  0  0
 20 47  1  0  0  0  0
 21 40  1  0  0  0  0
 22 79  1  0  0  0  0
 23 80  1  0  0  0  0
 24 27  2  0  0  0  0
 24 79  1  0  0  0  0
 25 30  2  0  0  0  0
 25 81  1  0  0  0  0
 26 82  1  0  0  0  0
 27 83  1  0  0  0  0
 28 63  2  0  0  0  0
 29 33  1  0  0  0  0
 29 78  1  0  0  0  0
 30 50  1  0  0  0  0
 30 78  1  0  0  0  0
 31 65  1  0  0  0  0
 31 68  1  0  0  0  0
 32 69  1  0  0  0  0
 32 73  2  0  0  0  0
 33 34  1  0  0  0  0
 33 64  2  0  0  0  0
 34 66  1  0  0  0  0
 34 74  2  0  0  0  0
 35 48  1  0  0  0  0
 35 70  1  0  0  0  0
 35 75  2  0  0  0  0
 36 60  1  0  0  0  0
 36 67  1  0  0  0  0
 36 76  2  0  0  0  0
 37 61  1  0  0  0  0
 37 71  1  0  0  0  0
 37 77  2  0  0  0  0
 38 41  1  0  0  0  0
 39 48  1  0  0  0  0
 40 67  1  0  0  0  0
 41 43  1  0  0  0  0
 42 44  1  0  0  0  0
 42 45  1  0  0  0  0
 43 47  1  0  0  0  0
 44 49  1  0  0  0  0
 45 66  1  0  0  0  0
 46 49  1  0  0  0  0
 46 66  1  0  0  0  0
 47 70  1  0  0  0  0
 48 67  1  0  0  0  0
 49 65  1  0  0  0  0
 51 61  1  0  0  0  0
 52 62  1  0  0  0  0
 53 62  1  0  0  0  0
 54 62  1  0  0  0  0
 55 72  1  0  0  0  0
 56 57  1  0  0  0  0
 56 58  1  0  0  0  0
 57 59  1  0  0  0  0
 58 80  1  0  0  0  0
 59 81  1  0  0  0  0
 60 62  1  0  0  0  0
 60 71  1  0  0  0  0
 61 72  1  0  0  0  0
 63 65  1  0  0  0  0
M  CHG  1  72   1
M  ISO  4  33 100  34 100  58 101  80 101
M  END
> <Batch ID>
0121

> <Smiles>
CNC(C)C(=O)NC(C(=O)N1Cc2cc([101O:1][101CH2:1]CCCOc3cc([100C:0](=N)[100C:0](=O)N4CCCC(n5nc(-c6ccc(Oc7ccc(F)cc7F)cc6)c(C(N)=O)c5N)C4)oc3C)ccc2CC1C(=O)NC1CCCc2ccccc21)C(C)(C)C

> <Shape>
0.312

> <Color>
0.202

> <Negative vol penalty>
0.000

$$$$

  -OEChem-04052301573D

 90 98  0     1  0  0  0  0  0999 V2000
  -16.6673  -29.0727   20.1197 C   0  0  0  0  0  0  0  0  0  0  0  0
  -17.3460  -30.2789   20.2608 C   0  0  0  0  0  0  0  0  0  0  0  0
  -26.5778  -12.7625   20.2638 C   0  0  0  0  0  0  0  0  0  0  0  0
  -27.1266  -11.9944   18.0399 C   0  0  0  0  0  0  0  0  0  0  0  0
  -30.1754  -25.7623   18.7021 C   0  0  0  0  0  0  0  0  0  0  0  0
  -29.8074  -24.4448   18.9749 C   0  0  0  0  0  0  0  0  0  0  0  0
  -17.0537  -27.9645   20.8723 C   0  0  0  0  0  0  0  0  0  0  0  0
  -18.4110  -30.3778   21.1555 C   0  0  0  0  0  0  0  0  0  0  0  0
  -24.9803  -32.2926   18.9038 C   0  0  0  0  0  0  0  0  0  0  0  0
  -25.3910  -12.0308   20.2238 C   0  0  0  0  0  0  0  0  0  0  0  0
  -25.9398  -11.2625   17.9998 C   0  0  0  0  0  0  0  0  0  0  0  0
  -26.2162  -32.8564   18.5862 C   0  0  0  0  0  0  0  0  0  0  0  0
  -22.3897  -10.0772   20.8491 C   0  0  0  0  0  0  0  0  0  0  0  0
  -22.0526   -9.3263   21.9751 C   0  0  0  0  0  0  0  0  0  0  0  0
  -32.3999  -25.3125   19.5303 C   0  0  0  0  0  0  0  0  0  0  0  0
  -26.9674  -32.5161   20.8595 C   0  0  0  0  0  0  0  0  0  0  0  0
  -24.0968   -8.0598   21.7426 C   0  0  0  0  0  0  0  0  0  0  0  0
  -27.4456  -12.7444   19.1719 C   0  0  0  0  0  0  0  0  0  0  0  0
  -31.4717  -26.1961   18.9797 C   0  0  0  0  0  0  0  0  0  0  0  0
  -30.7357  -23.5612   19.5255 C   0  0  0  0  0  0  0  0  0  0  0  0
  -29.9266  -13.0608   19.6738 C   0  0  0  0  0  0  0  0  0  0  0  0
  -18.1301  -28.0472   21.7696 C   0  0  0  0  0  0  0  0  0  0  0  0
  -24.7384  -31.8238   20.1980 C   0  0  0  0  0  0  0  0  0  0  0  0
  -18.8114  -29.2700   21.9218 C   0  0  0  0  0  0  0  0  0  0  0  0
  -25.7358  -31.9390   21.1802 C   0  0  0  0  0  0  0  0  0  0  0  0
  -32.0320  -23.9950   19.8032 C   0  0  0  0  0  0  0  0  0  0  0  0
  -25.0720  -11.2808   19.0918 C   0  0  0  0  0  0  0  0  0  0  0  0
  -27.2072  -32.9681   19.5618 C   0  0  0  0  0  0  0  0  0  0  0  0
  -23.5804   -9.8194   20.1698 C   0  0  0  0  0  0  0  0  0  0  0  0
  -22.9061   -8.3176   22.4219 C   0  0  0  0  0  0  0  0  0  0  0  0
  -24.4340   -8.8107   20.6165 C   0  0  0  0  0  0  0  0  0  0  0  0
  -28.6714  -13.5006   19.2124 C   0  0  0  0  0  0  0  0  0  0  0  0
  -30.7539  -14.1438   19.5030 C   0  0  0  0  0  0  0  0  0  0  0  0
  -31.8593  -27.5884   18.6919 C   0  0  0  0  0  0  0  0  0  0  0  0
  -30.3211  -22.1914   19.7988 C   0  0  0  0  0  0  0  0  0  0  0  0
  -30.9951  -28.6020   18.5351 C   0  0  0  0  0  0  0  0  0  0  0  0
  -29.8901  -21.3073   18.8761 C   0  0  0  0  0  0  0  0  0  0  0  0
  -30.3105  -11.7872   20.2089 C   0  0  0  0  0  0  0  0  0  0  0  0
  -29.5136  -19.9470   19.3105 C   0  0  0  0  0  0  0  0  0  0  0  0
  -31.5029  -29.9755   18.2555 C   0  0  0  0  0  0  0  0  0  0  0  0
  -22.3330  -30.1849   22.5653 C   0  0  0  0  0  0  0  0  0  0  0  0
  -25.1016  -28.9977   23.1445 C   0  0  0  0  0  0  0  0  0  0  0  0
  -27.8337  -27.4862   22.7523 C   0  0  0  0  0  0  0  0  0  0  0  0
  -18.4810  -26.8354   22.5961 C   0  0  0  0  0  0  0  0  0  0  0  0
  -23.4005  -31.2654   20.6007 C   0  0  0  0  0  0  0  0  0  0  0  0
  -25.4189  -31.4528   22.5681 C   0  0  0  0  0  0  0  0  0  0  0  0
  -19.8591  -26.9205   23.2472 C   0  0  0  0  0  0  0  0  0  0  0  0
  -31.3502  -18.0219   16.7901 C   0  0  0  0  0  0  0  0  0  0  0  0
  -20.0568  -28.2838   23.9022 C   0  0  0  0  0  0  0  0  0  0  0  0
  -30.9381  -16.5972   17.1510 C   0  0  0  0  0  0  0  0  0  0  0  0
  -30.2235  -19.0235   17.0391 C   0  0  0  0  0  0  0  0  0  0  0  0
  -29.2681  -17.5512   18.7884 C   0  0  0  0  0  0  0  0  0  0  0  0
  -19.9875  -29.4100   22.8637 C   0  0  1  0  0  0  0  0  0  0  0  0
  -23.5070  -30.1283   21.6327 C   0  0  1  0  0  0  0  0  0  0  0  0
  -30.4023  -16.5336   18.5901 C   0  0  1  0  0  0  0  0  0  0  0  0
  -34.0562  -22.5847   19.3562 C   0  0  0  0  0  0  0  0  0  0  0  0
  -29.9193  -26.0917   22.8063 C   0  0  0  0  0  0  0  0  0  0  0  0
  -25.3669  -30.8477   25.5551 C   0  0  0  0  0  0  0  0  0  0  0  0
  -27.4159  -29.5716   26.2195 C   0  0  0  0  0  0  0  0  0  0  0  0
  -25.2074  -28.4163   26.1182 C   0  0  0  0  0  0  0  0  0  0  0  0
  -31.0705  -34.6336   18.7343 C   0  0  0  0  0  0  0  0  0  0  0  0
  -32.0199  -32.6712   19.9778 C   0  0  0  0  0  0  0  0  0  0  0  0
  -26.4311  -25.1369   21.6244 C   0  0  0  0  0  0  0  0  0  0  0  0
  -33.0526  -23.0761   20.3941 C   0  0  0  0  0  0  0  0  0  0  0  0
  -30.6876  -32.2916   17.8512 C   0  0  0  0  0  0  0  0  0  0  0  0
  -29.5490  -33.0484   19.9704 C   0  0  0  0  0  0  0  0  0  1  0  0
  -26.3629  -29.0721   23.9672 C   0  0  1  0  0  0  0  0  0  0  0  0
  -28.3990  -26.0800   22.8396 C   0  0  2  0  0  0  0  0  0  0  0  0
  -26.0865  -29.4892   25.4394 C   0  0  0  0  0  0  0  0  0  0  0  0
  -30.8371  -33.1610   19.1224 C   0  0  0  0  0  0  0  0  0  0  0  0
  -28.6945  -14.7644   18.7810 N   0  0  0  0  0  0  0  0  0  0  0  0
  -29.9742  -15.1282   18.9707 N   0  0  0  0  0  0  0  0  0  0  0  0
  -29.6883  -18.9032   18.4036 N   0  0  0  0  0  0  0  0  0  0  0  0
  -24.6971  -30.1726   22.4992 N   0  0  0  0  0  0  0  0  0  0  0  0
  -32.0649  -14.3406   19.7577 N   0  0  0  0  0  0  0  0  0  0  0  0
  -29.3356  -10.7859   20.3151 N   0  0  0  0  0  0  0  0  0  0  0  0
  -30.4713  -30.8957   18.1230 N   0  0  0  0  0  0  0  0  0  0  0  0
  -21.2261  -29.4881   22.1194 N   0  0  0  0  0  0  0  0  0  0  0  0
  -27.0193  -27.7769   23.8263 N   0  0  0  0  0  0  0  0  0  0  0  0
  -27.9102  -25.2536   21.6998 N   0  3  0  0  0  0  0  0  0  0  0  0
  -31.4794  -11.5497   20.5971 O   0  0  0  0  0  0  0  0  0  0  0  0
  -29.0621  -19.8186   20.4500 O   0  0  0  0  0  0  0  0  0  0  0  0
  -32.6991  -30.2297   18.1598 O   0  0  0  0  0  0  0  0  0  0  0  0
  -22.4238  -30.8130   23.6136 O   0  0  0  0  0  0  0  0  0  0  0  0
  -24.4866  -27.9297   23.0786 O   0  0  0  0  0  0  0  0  0  0  0  0
  -28.0920  -28.2517   21.8261 O   0  0  0  0  0  0  0  0  0  0  0  0
  -23.9141  -10.5664   19.0525 O   0  0  0  0  0  0  0  0  0  0  0  0
  -28.4130  -33.5154   19.2439 O   0  0  0  0  0  0  0  0  0  1  0  0
  -22.5830   -7.5975   23.5042 F   0  0  0  0  0  0  0  0  0  0  0  0
  -25.5798   -8.5592   19.9687 F   0  0  0  0  0  0  0  0  0  0  0  0
  1  2  1  0  0  0  0
  1  7  2  0  0  0  0
  2  8  2  0  0  0  0
  3 10  2  0  0  0  0
  3 18  1  0  0  0  0
  4 11  1  0  0  0  0
  4 18  2  0  0  0  0
  5  6  2  0  0  0  0
  5 19  1  0  0  0  0
  6 20  1  0  0  0  0
  7 22  1  0  0  0  0
  8 24  1  0  0  0  0
  9 12  2  0  0  0  0
  9 23  1  0  0  0  0
 10 27  1  0  0  0  0
 11 27  2  0  0  0  0
 12 28  1  0  0  0  0
 13 14  2  0  0  0  0
 13 29  1  0  0  0  0
 14 30  1  0  0  0  0
 15 19  2  0  0  0  0
 15 26  1  0  0  0  0
 16 25  1  0  0  0  0
 16 28  2  0  0  0  0
 17 30  2  0  0  0  0
 17 31  1  0  0  0  0
 18 32  1  0  0  0  0
 19 34  1  0  0  0  0
 20 26  2  0  0  0  0
 20 35  1  0  0  0  0
 21 32  1  0  0  0  0
 21 33  2  0  0  0  0
 21 38  1  0  0  0  0
 22 24  2  0  0  0  0
 22 44  1  0  0  0  0
 23 25  2  0  0  0  0
 23 45  1  0  0  0  0
 24 53  1  0  0  0  0
 25 46  1  0  0  0  0
 26 64  1  0  0  0  0
 27 87  1  0  0  0  0
 28 88  1  0  0  0  0
 29 31  2  0  0  0  0
 29 87  1  0  0  0  0
 30 89  1  0  0  0  0
 31 90  1  0  0  0  0
 32 71  2  0  0  0  0
 33 72  1  0  0  0  0
 33 75  1  0  0  0  0
 34 36  2  0  0  0  0
 35 37  2  0  0  0  0
 36 40  1  0  0  0  0
 37 39  1  0  0  0  0
 38 76  1  0  0  0  0
 38 81  2  0  0  0  0
 39 73  1  0  0  0  0
 39 82  2  0  0  0  0
 40 77  1  0  0  0  0
 40 83  2  0  0  0  0
 41 54  1  0  0  0  0
 41 78  1  0  0  0  0
 41 84  2  0  0  0  0
 42 67  1  0  0  0  0
 42 74  1  0  0  0  0
 42 85  2  0  0  0  0
 43 68  1  0  0  0  0
 43 79  1  0  0  0  0
 43 86  2  0  0  0  0
 44 47  1  0  0  0  0
 45 54  1  0  0  0  0
 46 74  1  0  0  0  0
 47 49  1  0  0  0  0
 48 50  1  0  0  0  0
 48 51  1  0  0  0  0
 49 53  1  0  0  0  0
 50 55  1  0  0  0  0
 51 73  1  0  0  0  0
 52 55  1  0  0  0  0
 52 73  1  0  0  0  0
 53 78  1  0  0  0  0
 54 74  1  0  0  0  0
 55 72  1  0  0  0  0
 56 64  1  0  0  0  0
 57 68  1  0  0  0  0
 58 69  1  0  0  0  0
 59 69  1  0  0  0  0
 60 69  1  0  0  0  0
 61 70  1  0  0  0  0
 62 70  1  0  0  0  0
 63 80  1  0  0  0  0
 65 70  1  0  0  0  0
 65 77  1  0  0  0  0
 66 70  1  0  0  0  0
 66 88  1  0  0  0  0
 67 69  1  0  0  0  0
 67 79  1  0  0  0  0
 68 80  1  0  0  0  0
 71 72  1  0  0  0  0
M  CHG  1  80   1
M  ISO  4  37 100  39 100  66 101  88 101
M  END
> <Batch ID>
0121

> <Smiles>
CCc1cc(C=CC(=O)NCC(C)(C)[101CH2:1][101O:1]c2ccc3c(c2)CN(C(=O)C(NC(=O)C(C)NC)C(C)(C)C)C(C(=O)NC2CCCc4ccccc42)C3)ccc1C=[100CH:0][100C:0](=O)N1CCCC(n2nc(-c3ccc(Oc4ccc(F)cc4F)cc3)c(C(N)=O)c2N)C1

> <Shape>
0.274

> <Color>
0.086

> <Negative vol penalty>
0.000

$$$$

  -OEChem-04052301573D

 84 92  0     1  0  0  0  0  0999 V2000
  -23.9713  -31.8399   29.0168 C   0  0  0  0  0  0  0  0  0  0  0  0
  -24.9223  -31.2445   28.1941 C   0  0  0  0  0  0  0  0  0  0  0  0
  -23.6250   -9.8021   22.3963 C   0  0  0  0  0  0  0  0  0  0  0  0
  -23.1637   -9.8533   20.0253 C   0  0  0  0  0  0  0  0  0  0  0  0
  -25.6242  -22.2390   23.6689 C   0  0  0  0  0  0  0  0  0  0  0  0
  -22.6146  -31.6951   28.7302 C   0  0  0  0  0  0  0  0  0  0  0  0
  -24.5169  -30.5030   27.0850 C   0  0  0  0  0  0  0  0  0  0  0  0
  -27.3868  -30.0785   21.6916 C   0  0  0  0  0  0  0  0  0  0  0  0
  -25.5345  -23.6293   23.7364 C   0  0  0  0  0  0  0  0  0  0  0  0
  -22.8098   -8.6783   22.5307 C   0  0  0  0  0  0  0  0  0  0  0  0
  -22.3485   -8.7294   20.1596 C   0  0  0  0  0  0  0  0  0  0  0  0
  -28.2433  -29.1165   21.1580 C   0  0  0  0  0  0  0  0  0  0  0  0
  -23.0368   -5.3536   21.9582 C   0  0  0  0  0  0  0  0  0  0  0  0
  -23.5143   -4.2950   22.7308 C   0  0  0  0  0  0  0  0  0  0  0  0
  -27.7659  -22.4305   22.5674 C   0  0  0  0  0  0  0  0  0  0  0  0
  -26.3737  -28.0814   20.0389 C   0  0  0  0  0  0  0  0  0  0  0  0
  -21.6172   -4.5188   24.2100 C   0  0  0  0  0  0  0  0  0  0  0  0
  -23.8019  -10.3897   21.1436 C   0  0  0  0  0  0  0  0  0  0  0  0
  -26.7399  -21.6396   23.0844 C   0  0  0  0  0  0  0  0  0  0  0  0
  -26.0252  -11.5722   20.7356 C   0  0  0  0  0  0  0  0  0  0  0  0
  -22.1926  -30.9595   27.6114 C   0  0  0  0  0  0  0  0  0  0  0  0
  -26.0133  -30.0427   21.4112 C   0  0  0  0  0  0  0  0  0  0  0  0
  -23.1531  -30.3471   26.7839 C   0  0  0  0  0  0  0  0  0  0  0  0
  -25.5023  -29.0456   20.5681 C   0  0  0  0  0  0  0  0  0  0  0  0
  -26.5605  -24.4202   23.2194 C   0  0  0  0  0  0  0  0  0  0  0  0
  -22.1716   -8.1419   21.4123 C   0  0  0  0  0  0  0  0  0  0  0  0
  -27.7364  -28.1161   20.3338 C   0  0  0  0  0  0  0  0  0  0  0  0
  -21.8495   -5.9949   22.3116 C   0  0  0  0  0  0  0  0  0  0  0  0
  -27.6762  -23.8209   22.6348 C   0  0  0  0  0  0  0  0  0  0  0  0
  -22.8046   -3.8776   23.8567 C   0  0  0  0  0  0  0  0  0  0  0  0
  -21.1397   -5.5774   23.4374 C   0  0  0  0  0  0  0  0  0  0  0  0
  -24.6434  -11.5509   21.0042 C   0  0  0  0  0  0  0  0  0  0  0  0
  -26.3477  -12.9068   20.7008 C   0  0  0  0  0  0  0  0  0  0  0  0
  -26.8331  -20.1900   23.0133 C   0  0  0  0  0  0  0  0  0  0  0  0
  -25.7949  -19.3324   23.1115 C   0  0  0  0  0  0  0  0  0  0  0  0
  -26.9357  -10.4829   20.5354 C   0  0  0  0  0  0  0  0  0  0  0  0
  -26.0511  -17.8817   23.0091 C   0  0  0  0  0  0  0  0  0  0  0  0
  -23.3765  -29.6999   23.1529 C   0  0  0  0  0  0  0  0  0  0  0  0
  -21.9003  -30.3094   20.3295 C   0  0  0  0  0  0  0  0  0  0  0  0
  -22.0445  -30.2834   16.9199 C   0  0  0  0  0  0  0  0  0  0  0  0
  -20.7136  -30.7912   27.3690 C   0  0  0  0  0  0  0  0  0  0  0  0
  -25.1068  -31.1034   21.9730 C   0  0  0  0  0  0  0  0  0  0  0  0
  -24.0387  -28.9749   20.2199 C   0  0  0  0  0  0  0  0  0  0  0  0
  -20.3787  -30.3026   25.9621 C   0  0  0  0  0  0  0  0  0  0  0  0
  -23.4222  -17.0133   20.6078 C   0  0  0  0  0  0  0  0  0  0  0  0
  -21.2793  -29.1341   25.5744 C   0  0  0  0  0  0  0  0  0  0  0  0
  -23.5963  -15.4997   20.5164 C   0  0  0  0  0  0  0  0  0  0  0  0
  -23.7274  -17.5404   22.0091 C   0  0  0  0  0  0  0  0  0  0  0  0
  -25.2462  -15.6271   22.4247 C   0  0  0  0  0  0  0  0  0  0  0  0
  -22.7536  -29.5557   25.5575 C   0  0  1  0  0  0  0  0  0  0  0  0
  -23.6459  -30.6687   22.0363 C   0  0  1  0  0  0  0  0  0  0  0  0
  -24.9898  -15.0812   21.0113 C   0  0  1  0  0  0  0  0  0  0  0  0
  -27.3159  -26.4940   24.4090 C   0  0  0  0  0  0  0  0  0  0  0  0
  -20.6696  -30.8034   14.8861 C   0  0  0  0  0  0  0  0  0  0  0  0
  -20.3161  -27.7350   20.7453 C   0  0  0  0  0  0  0  0  0  0  0  0
  -19.6942  -27.8085   18.3213 C   0  0  0  0  0  0  0  0  0  0  0  0
  -18.9800  -29.6485   19.8467 C   0  0  0  0  0  0  0  0  0  0  0  0
  -23.9662  -32.3393   16.0037 C   0  0  0  0  0  0  0  0  0  0  0  0
  -26.4477  -25.9068   23.3000 C   0  0  0  0  0  0  0  0  0  0  0  0
  -30.0934  -25.3779   20.3319 C   0  0  0  0  0  0  0  0  0  0  0  0
  -29.7228  -26.8317   20.5800 C   0  0  0  0  0  0  0  0  0  1  0  0
  -28.9774  -24.4288   20.7393 C   0  0  0  0  0  0  0  0  0  0  0  0
  -21.4108  -29.4681   19.1755 C   0  0  1  0  0  0  0  0  0  0  0  0
  -21.6816  -31.3363   15.8883 C   0  0  2  0  0  0  0  0  0  0  0  0
  -20.1276  -28.6649   19.5301 C   0  0  0  0  0  0  0  0  0  0  0  0
  -24.1239  -12.7749   21.1312 N   0  0  0  0  0  0  0  0  0  0  0  0
  -25.1849  -13.5777   20.9417 N   0  0  0  0  0  0  0  0  0  0  0  0
  -25.0405  -17.0785   22.4837 N   0  0  0  0  0  0  0  0  0  0  0  0
  -23.1918  -30.0309   20.7989 N   0  0  0  0  0  0  0  0  0  0  0  0
  -27.5097  -13.5603   20.4881 N   0  0  0  0  0  0  0  0  0  0  0  0
  -26.4379   -9.1746   20.6048 N   0  0  0  0  0  0  0  0  0  0  0  0
  -23.0521  -30.3017   24.3538 N   0  0  0  0  0  0  0  0  0  0  0  0
  -21.2536  -30.3772   18.0454 N   0  0  0  0  0  0  0  0  0  0  0  0
  -22.8965  -31.7718   15.1431 N   0  3  0  0  0  0  0  0  0  0  0  0
  -28.1578  -10.6641   20.3182 O   0  0  0  0  0  0  0  0  0  0  0  0
  -27.1442  -17.4683   23.4002 O   0  0  0  0  0  0  0  0  0  0  0  0
  -23.4557  -28.4957   22.9403 O   0  0  0  0  0  0  0  0  0  0  0  0
  -21.1666  -31.1863   20.7925 O   0  0  0  0  0  0  0  0  0  0  0  0
  -22.9377  -29.4579   16.7432 O   0  0  0  0  0  0  0  0  0  0  0  0
  -21.3763   -7.0452   21.5431 O   0  0  0  0  0  0  0  0  0  0  0  0
  -28.5701  -27.1755   19.8122 O   0  0  0  0  0  0  0  0  0  1  0  0
  -28.6935  -24.5838   22.1232 O   0  0  0  0  0  0  0  0  0  0  0  0
  -23.2625   -2.8600   24.5976 F   0  0  0  0  0  0  0  0  0  0  0  0
  -19.9979   -6.1888   23.7812 F   0  0  0  0  0  0  0  0  0  0  0  0
  1  2  1  0  0  0  0
  1  6  2  0  0  0  0
  2  7  2  0  0  0  0
  3 10  2  0  0  0  0
  3 18  1  0  0  0  0
  4 11  1  0  0  0  0
  4 18  2  0  0  0  0
  5  9  2  0  0  0  0
  5 19  1  0  0  0  0
  6 21  1  0  0  0  0
  7 23  1  0  0  0  0
  8 12  2  0  0  0  0
  8 22  1  0  0  0  0
  9 25  1  0  0  0  0
 10 26  1  0  0  0  0
 11 26  2  0  0  0  0
 12 27  1  0  0  0  0
 13 14  2  0  0  0  0
 13 28  1  0  0  0  0
 14 30  1  0  0  0  0
 15 19  2  0  0  0  0
 15 29  1  0  0  0  0
 16 24  1  0  0  0  0
 16 27  2  0  0  0  0
 17 30  2  0  0  0  0
 17 31  1  0  0  0  0
 18 32  1  0  0  0  0
 19 34  1  0  0  0  0
 20 32  1  0  0  0  0
 20 33  2  0  0  0  0
 20 36  1  0  0  0  0
 21 23  2  0  0  0  0
 21 41  1  0  0  0  0
 22 24  2  0  0  0  0
 22 42  1  0  0  0  0
 23 50  1  0  0  0  0
 24 43  1  0  0  0  0
 25 29  2  0  0  0  0
 25 59  1  0  0  0  0
 26 80  1  0  0  0  0
 27 81  1  0  0  0  0
 28 31  2  0  0  0  0
 28 80  1  0  0  0  0
 29 82  1  0  0  0  0
 30 83  1  0  0  0  0
 31 84  1  0  0  0  0
 32 66  2  0  0  0  0
 33 67  1  0  0  0  0
 33 70  1  0  0  0  0
 34 35  2  0  0  0  0
 35 37  1  0  0  0  0
 36 71  1  0  0  0  0
 36 75  2  0  0  0  0
 37 68  1  0  0  0  0
 37 76  2  0  0  0  0
 38 51  1  0  0  0  0
 38 72  1  0  0  0  0
 38 77  2  0  0  0  0
 39 63  1  0  0  0  0
 39 69  1  0  0  0  0
 39 78  2  0  0  0  0
 40 64  1  0  0  0  0
 40 73  1  0  0  0  0
 40 79  2  0  0  0  0
 41 44  1  0  0  0  0
 42 51  1  0  0  0  0
 43 69  1  0  0  0  0
 44 46  1  0  0  0  0
 45 47  1  0  0  0  0
 45 48  1  0  0  0  0
 46 50  1  0  0  0  0
 47 52  1  0  0  0  0
 48 68  1  0  0  0  0
 49 52  1  0  0  0  0
 49 68  1  0  0  0  0
 50 72  1  0  0  0  0
 51 69  1  0  0  0  0
 52 67  1  0  0  0  0
 53 59  1  0  0  0  0
 54 64  1  0  0  0  0
 55 65  1  0  0  0  0
 56 65  1  0  0  0  0
 57 65  1  0  0  0  0
 58 74  1  0  0  0  0
 60 61  1  0  0  0  0
 60 62  1  0  0  0  0
 61 81  1  0  0  0  0
 62 82  1  0  0  0  0
 63 65  1  0  0  0  0
 63 73  1  0  0  0  0
 64 74  1  0  0  0  0
 66 67  1  0  0  0  0
M  CHG  1  74   1
M  ISO  4  35 100  37 100  61 101  81 101
M  END
> <Batch ID>
0121

> <Smiles>
CCc1ccc(C=[100CH:0][100C:0](=O)N2CCCC(n3nc(-c4ccc(Oc5ccc(F)cc5F)cc4)c(C(N)=O)c3N)C2)cc1OCC[101CH2:1][101O:1]c1ccc2c(c1)CN(C(=O)C(NC(=O)C(C)NC)C(C)(C)C)C(C(=O)NC1CCCc3ccccc31)C2

> <Shape>
0.224

> <Color>
0.119

> <Negative vol penalty>
0.000

$$$$

  -OEChem-04052301573D

 86 94  0     1  0  0  0  0  0999 V2000
  -27.9850  -34.2543   23.8456 C   0  0  0  0  0  0  0  0  0  0  0  0
  -28.6035  -33.1710   23.2297 C   0  0  0  0  0  0  0  0  0  0  0  0
  -23.6168   -9.9119   21.8588 C   0  0  0  0  0  0  0  0  0  0  0  0
  -24.2617  -11.1406   23.8365 C   0  0  0  0  0  0  0  0  0  0  0  0
  -26.7992  -34.0679   24.5548 C   0  0  0  0  0  0  0  0  0  0  0  0
  -28.0371  -31.9003   23.3237 C   0  0  0  0  0  0  0  0  0  0  0  0
  -28.0963  -27.5179   19.0462 C   0  0  0  0  0  0  0  0  0  0  0  0
  -23.0345   -8.9292   22.6592 C   0  0  0  0  0  0  0  0  0  0  0  0
  -23.6793  -10.1578   24.6370 C   0  0  0  0  0  0  0  0  0  0  0  0
  -28.8997  -26.3926   18.8672 C   0  0  0  0  0  0  0  0  0  0  0  0
  -20.1665   -8.5118   24.4009 C   0  0  0  0  0  0  0  0  0  0  0  0
  -18.9033   -8.0448   24.0380 C   0  0  0  0  0  0  0  0  0  0  0  0
  -30.8249  -18.6768   22.5083 C   0  0  0  0  0  0  0  0  0  0  0  0
  -27.2380  -25.0378   19.9729 C   0  0  0  0  0  0  0  0  0  0  0  0
  -32.8386  -17.0222   21.5133 C   0  0  0  0  0  0  0  0  0  0  0  0
  -19.7948   -5.8108   23.8100 C   0  0  0  0  0  0  0  0  0  0  0  0
  -24.2305  -11.0176   22.4475 C   0  0  0  0  0  0  0  0  0  0  0  0
  -30.8572  -17.3278   22.8615 C   0  0  0  0  0  0  0  0  0  0  0  0
  -24.2137  -13.1874   21.1061 C   0  0  0  0  0  0  0  0  0  0  0  0
  -26.2128  -32.7959   24.6493 C   0  0  0  0  0  0  0  0  0  0  0  0
  -26.8605  -27.4134   19.7006 C   0  0  0  0  0  0  0  0  0  0  0  0
  -26.8430  -31.6964   24.0359 C   0  0  0  0  0  0  0  0  0  0  0  0
  -26.4196  -26.1628   20.1566 C   0  0  0  0  0  0  0  0  0  0  0  0
  -31.8641  -16.5005   22.3640 C   0  0  0  0  0  0  0  0  0  0  0  0
  -32.8063  -18.3713   21.1600 C   0  0  0  0  0  0  0  0  0  0  0  0
  -23.0657   -9.0521   24.0482 C   0  0  0  0  0  0  0  0  0  0  0  0
  -28.4719  -25.1529   19.3332 C   0  0  0  0  0  0  0  0  0  0  0  0
  -21.2439   -7.6284   24.4683 C   0  0  0  0  0  0  0  0  0  0  0  0
  -31.7994  -19.1985   21.6575 C   0  0  0  0  0  0  0  0  0  0  0  0
  -18.7174   -6.6943   23.7426 C   0  0  0  0  0  0  0  0  0  0  0  0
  -21.0580   -6.2779   24.1729 C   0  0  0  0  0  0  0  0  0  0  0  0
  -24.8328  -12.0328   21.6212 C   0  0  0  0  0  0  0  0  0  0  0  0
  -25.2032  -13.8184   20.3925 C   0  0  0  0  0  0  0  0  0  0  0  0
  -28.5336  -16.8130   23.4541 C   0  0  0  0  0  0  0  0  0  0  0  0
  -29.8245  -16.8122   23.7507 C   0  0  0  0  0  0  0  0  0  0  0  0
  -22.8647  -13.6484   21.2590 C   0  0  0  0  0  0  0  0  0  0  0  0
  -25.6167  -28.6431   22.3548 C   0  0  0  0  0  0  0  0  0  0  0  0
  -30.4644  -22.2759   20.2734 C   0  0  0  0  0  0  0  0  0  0  0  0
  -22.9164  -27.1889   21.2981 C   0  0  0  0  0  0  0  0  0  0  0  0
  -21.5028  -24.7333   19.3959 C   0  0  0  0  0  0  0  0  0  0  0  0
  -31.1791  -13.7338   20.7565 C   0  0  0  0  0  0  0  0  0  0  0  0
  -24.9554  -32.6352   25.4666 C   0  0  0  0  0  0  0  0  0  0  0  0
  -25.9936  -28.6319   19.8620 C   0  0  0  0  0  0  0  0  0  0  0  0
  -25.0921  -25.9936   20.8476 C   0  0  0  0  0  0  0  0  0  0  0  0
  -24.2213  -31.3230   25.2031 C   0  0  0  0  0  0  0  0  0  0  0  0
  -29.1954  -12.9090   17.9173 C   0  0  0  0  0  0  0  0  0  0  0  0
  -25.2007  -30.1535   25.2057 C   0  0  0  0  0  0  0  0  0  0  0  0
  -27.7965  -12.6951   18.4981 C   0  0  0  0  0  0  0  0  0  0  0  0
  -30.2827  -12.4083   18.8655 C   0  0  0  0  0  0  0  0  0  0  0  0
  -28.8116  -12.7399   20.8147 C   0  0  0  0  0  0  0  0  0  0  0  0
  -26.2461  -30.3070   24.0943 C   0  0  1  0  0  0  0  0  0  0  0  0
  -24.9848  -28.5012   20.9989 C   0  0  1  0  0  0  0  0  0  0  0  0
  -27.6838  -13.2801   19.9188 C   0  0  2  0  0  0  0  0  0  0  0  0
  -33.8566  -18.9125   20.2472 C   0  0  0  0  0  0  0  0  0  0  0  0
  -19.2741  -23.7695   18.7622 C   0  0  0  0  0  0  0  0  0  0  0  0
  -22.7334  -25.8272   24.0225 C   0  0  0  0  0  0  0  0  0  0  0  0
  -21.1036  -24.2087   23.0262 C   0  0  0  0  0  0  0  0  0  0  0  0
  -20.5498  -26.6394   23.1134 C   0  0  0  0  0  0  0  0  0  0  0  0
  -21.9212  -25.3481   16.5313 C   0  0  0  0  0  0  0  0  0  0  0  0
  -31.9301  -15.0504   22.7216 C   0  0  0  0  0  0  0  0  0  0  0  0
  -29.1529  -23.0228   20.1426 C   0  0  0  0  0  0  0  0  0  1  0  0
  -30.4806  -21.1405   21.2762 C   0  0  0  0  0  0  0  0  0  0  0  0
  -22.2968  -25.8241   21.4778 C   0  0  1  0  0  0  0  0  0  0  0  0
  -20.3626  -24.7657   18.3942 C   0  0  2  0  0  0  0  0  0  0  0  0
  -21.6969  -25.6280   22.8987 C   0  0  0  0  0  0  0  0  0  0  0  0
  -26.1163  -11.9335   21.2650 N   0  0  0  0  0  0  0  0  0  0  0  0
  -26.3116  -13.0337   20.5184 N   0  0  0  0  0  0  0  0  0  0  0  0
  -24.2833  -27.2158   20.9872 N   0  0  0  0  0  0  0  0  0  0  0  0
  -30.1199  -13.0019   20.1948 N   0  0  0  0  0  0  0  0  0  0  0  0
  -25.2246  -14.9622   19.6758 N   0  0  0  0  0  0  0  0  0  0  0  0
  -21.9784  -12.8790   22.0251 N   0  0  0  0  0  0  0  0  0  0  0  0
  -25.6786  -29.9452   22.8131 N   0  0  0  0  0  0  0  0  0  0  0  0
  -21.3317  -25.6682   20.3949 N   0  0  0  0  0  0  0  0  0  0  0  0
  -30.9394  -14.2679   22.0167 N   0  0  0  0  0  0  0  0  0  0  0  0
  -20.8621  -24.4335   17.0300 N   0  3  0  0  0  0  0  0  0  0  0  0
  -22.4528  -14.7028   20.7184 O   0  0  0  0  0  0  0  0  0  0  0  0
  -26.0170  -27.6449   22.9422 O   0  0  0  0  0  0  0  0  0  0  0  0
  -31.4547  -22.5735   19.6072 O   0  0  0  0  0  0  0  0  0  0  0  0
  -22.2119  -28.1939   21.4218 O   0  0  0  0  0  0  0  0  0  0  0  0
  -22.4485  -23.9539   19.3036 O   0  0  0  0  0  0  0  0  0  0  0  0
  -32.2565  -13.9034   20.1757 O   0  0  0  0  0  0  0  0  0  0  0  0
  -22.4972   -8.0935   24.8296 O   0  0  0  0  0  0  0  0  0  0  0  0
  -29.2545  -24.0531   19.1604 O   0  0  0  0  0  0  0  0  0  1  0  0
  -31.7533  -20.5304   21.3198 O   0  0  0  0  0  0  0  0  0  0  0  0
  -17.5039   -6.2456   23.3955 F   0  0  0  0  0  0  0  0  0  0  0  0
  -22.0890   -5.4242   24.2371 F   0  0  0  0  0  0  0  0  0  0  0  0
  1  2  1  0  0  0  0
  1  5  2  0  0  0  0
  2  6  2  0  0  0  0
  3  8  2  0  0  0  0
  3 17  1  0  0  0  0
  4  9  1  0  0  0  0
  4 17  2  0  0  0  0
  5 20  1  0  0  0  0
  6 22  1  0  0  0  0
  7 10  2  0  0  0  0
  7 21  1  0  0  0  0
  8 26  1  0  0  0  0
  9 26  2  0  0  0  0
 10 27  1  0  0  0  0
 11 12  2  0  0  0  0
 11 28  1  0  0  0  0
 12 30  1  0  0  0  0
 13 18  1  0  0  0  0
 13 29  2  0  0  0  0
 14 23  1  0  0  0  0
 14 27  2  0  0  0  0
 15 24  1  0  0  0  0
 15 25  2  0  0  0  0
 16 30  2  0  0  0  0
 16 31  1  0  0  0  0
 17 32  1  0  0  0  0
 18 24  2  0  0  0  0
 18 35  1  0  0  0  0
 19 32  1  0  0  0  0
 19 33  2  0  0  0  0
 19 36  1  0  0  0  0
 20 22  2  0  0  0  0
 20 42  1  0  0  0  0
 21 23  2  0  0  0  0
 21 43  1  0  0  0  0
 22 51  1  0  0  0  0
 23 44  1  0  0  0  0
 24 60  1  0  0  0  0
 25 29  1  0  0  0  0
 25 54  1  0  0  0  0
 26 82  1  0  0  0  0
 27 83  1  0  0  0  0
 28 31  2  0  0  0  0
 28 82  1  0  0  0  0
 29 84  1  0  0  0  0
 30 85  1  0  0  0  0
 31 86  1  0  0  0  0
 32 66  2  0  0  0  0
 33 67  1  0  0  0  0
 33 70  1  0  0  0  0
 34 35  2  0  0  0  0
 36 71  1  0  0  0  0
 36 76  2  0  0  0  0
 37 52  1  0  0  0  0
 37 72  1  0  0  0  0
 37 77  2  0  0  0  0
 38 61  1  0  0  0  0
 38 62  1  0  0  0  0
 38 78  2  0  0  0  0
 39 63  1  0  0  0  0
 39 68  1  0  0  0  0
 39 79  2  0  0  0  0
 40 64  1  0  0  0  0
 40 73  1  0  0  0  0
 40 80  2  0  0  0  0
 41 69  1  0  0  0  0
 41 74  1  0  0  0  0
 41 81  2  0  0  0  0
 42 45  1  0  0  0  0
 43 52  1  0  0  0  0
 44 68  1  0  0  0  0
 45 47  1  0  0  0  0
 46 48  1  0  0  0  0
 46 49  1  0  0  0  0
 47 51  1  0  0  0  0
 48 53  1  0  0  0  0
 49 69  1  0  0  0  0
 50 53  1  0  0  0  0
 50 69  1  0  0  0  0
 51 72  1  0  0  0  0
 52 68  1  0  0  0  0
 53 67  1  0  0  0  0
 55 64  1  0  0  0  0
 56 65  1  0  0  0  0
 57 65  1  0  0  0  0
 58 65  1  0  0  0  0
 59 75  1  0  0  0  0
 60 74  1  0  0  0  0
 61 83  1  0  0  0  0
 62 84  1  0  0  0  0
 63 65  1  0  0  0  0
 63 73  1  0  0  0  0
 64 75  1  0  0  0  0
 66 67  1  0  0  0  0
M  CHG  1  75   1
M  ISO  4  41 100  61 101  74 100  83 101
M  END
> <Batch ID>
0121

> <Smiles>
C=Cc1cc(OCC(=O)[101CH2:1][101O:1]c2ccc3c(c2)CN(C(=O)C(NC(=O)C(C)NC)C(C)(C)C)C(C(=O)NC2CCCc4ccccc42)C3)c(C)cc1C[100NH:0][100C:0](=O)N1CCCC(n2nc(-c3ccc(Oc4ccc(F)cc4F)cc3)c(C(N)=O)c2N)C1

> <Shape>
0.287

> <Color>
0.128

> <Negative vol penalty>
0.000

$$$$

  -OEChem-04052301573D

 84 92  0     1  0  0  0  0  0999 V2000
  -32.9360  -24.6540   37.1623 C   0  0  0  0  0  0  0  0  0  0  0  0
  -32.2339  -24.1680   36.0641 C   0  0  0  0  0  0  0  0  0  0  0  0
  -23.0754   -9.8686   19.9403 C   0  0  0  0  0  0  0  0  0  0  0  0
  -23.8349   -9.8747   22.2338 C   0  0  0  0  0  0  0  0  0  0  0  0
  -34.2568  -25.0749   37.0132 C   0  0  0  0  0  0  0  0  0  0  0  0
  -32.8518  -24.1036   34.8157 C   0  0  0  0  0  0  0  0  0  0  0  0
  -31.9774  -19.7181   32.4392 C   0  0  0  0  0  0  0  0  0  0  0  0
  -22.3311   -8.7156   20.1898 C   0  0  0  0  0  0  0  0  0  0  0  0
  -23.0906   -8.7217   22.4833 C   0  0  0  0  0  0  0  0  0  0  0  0
  -30.7356  -19.5636   31.8245 C   0  0  0  0  0  0  0  0  0  0  0  0
  -19.8621   -7.9247   23.0851 C   0  0  0  0  0  0  0  0  0  0  0  0
  -19.1049   -7.8847   24.2558 C   0  0  0  0  0  0  0  0  0  0  0  0
  -29.8807  -17.4556   23.1415 C   0  0  0  0  0  0  0  0  0  0  0  0
  -31.7317  -20.0948   29.6926 C   0  0  0  0  0  0  0  0  0  0  0  0
  -32.0643  -16.6062   22.5518 C   0  0  0  0  0  0  0  0  0  0  0  0
  -20.3456   -5.9466   24.9919 C   0  0  0  0  0  0  0  0  0  0  0  0
  -23.8273  -10.4481   20.9623 C   0  0  0  0  0  0  0  0  0  0  0  0
  -30.4688  -18.3392   24.0465 C   0  0  0  0  0  0  0  0  0  0  0  0
  -24.1700  -12.9732   20.8430 C   0  0  0  0  0  0  0  0  0  0  0  0
  -34.8944  -25.0066   35.7644 C   0  0  0  0  0  0  0  0  0  0  0  0
  -33.1054  -20.0734   31.6857 C   0  0  0  0  0  0  0  0  0  0  0  0
  -34.1820  -24.5252   34.6495 C   0  0  0  0  0  0  0  0  0  0  0  0
  -32.9871  -20.2507   30.2998 C   0  0  0  0  0  0  0  0  0  0  0  0
  -31.8547  -18.3563   24.2041 C   0  0  0  0  0  0  0  0  0  0  0  0
  -30.6785  -16.5891   22.3942 C   0  0  0  0  0  0  0  0  0  0  0  0
  -22.3387   -8.1422   21.4613 C   0  0  0  0  0  0  0  0  0  0  0  0
  -30.6120  -19.7547   30.4514 C   0  0  0  0  0  0  0  0  0  0  0  0
  -20.8609   -6.9757   22.8677 C   0  0  0  0  0  0  0  0  0  0  0  0
  -19.3467   -6.8957   25.2093 C   0  0  0  0  0  0  0  0  0  0  0  0
  -32.6524  -17.4898   23.4568 C   0  0  0  0  0  0  0  0  0  0  0  0
  -21.1027   -5.9867   23.8211 C   0  0  0  0  0  0  0  0  0  0  0  0
  -24.5968  -11.6388   20.7050 C   0  0  0  0  0  0  0  0  0  0  0  0
  -25.2624  -13.7224   20.4802 C   0  0  0  0  0  0  0  0  0  0  0  0
  -29.5997  -19.2412   24.8206 C   0  0  0  0  0  0  0  0  0  0  0  0
  -28.6489  -18.8491   25.6831 C   0  0  0  0  0  0  0  0  0  0  0  0
  -22.8996  -13.4893   21.2619 C   0  0  0  0  0  0  0  0  0  0  0  0
  -35.1067  -22.5428   31.6715 C   0  0  0  0  0  0  0  0  0  0  0  0
  -36.6906  -20.7469   29.4833 C   0  0  0  0  0  0  0  0  0  0  0  0
  -36.5755  -18.2715   27.1368 C   0  0  0  0  0  0  0  0  0  0  0  0
  -30.7289  -14.7662   20.6561 C   0  0  0  0  0  0  0  0  0  0  0  0
  -36.3082  -25.5173   35.6422 C   0  0  0  0  0  0  0  0  0  0  0  0
  -34.4431  -20.2100   32.3597 C   0  0  0  0  0  0  0  0  0  0  0  0
  -34.1715  -20.6130   29.4427 C   0  0  0  0  0  0  0  0  0  0  0  0
  -37.0105  -25.0661   34.3641 C   0  0  0  0  0  0  0  0  0  0  0  0
  -29.6141  -12.3535   18.2869 C   0  0  0  0  0  0  0  0  0  0  0  0
  -36.0991  -25.2616   33.1567 C   0  0  0  0  0  0  0  0  0  0  0  0
  -28.1743  -12.0622   18.7162 C   0  0  0  0  0  0  0  0  0  0  0  0
  -30.5291  -12.5816   19.4888 C   0  0  0  0  0  0  0  0  0  0  0  0
  -28.6222  -13.3063   20.8699 C   0  0  0  0  0  0  0  0  0  0  0  0
  -34.8257  -24.4166   33.2842 C   0  0  1  0  0  0  0  0  0  0  0  0
  -35.4222  -21.0770   31.5742 C   0  0  1  0  0  0  0  0  0  0  0  0
  -27.6495  -13.1337   19.6919 C   0  0  2  0  0  0  0  0  0  0  0  0
  -32.5161  -19.2911   25.1655 C   0  0  0  0  0  0  0  0  0  0  0  0
  -38.0211  -17.0520   25.4874 C   0  0  0  0  0  0  0  0  0  0  0  0
  -36.5915  -23.1587   27.6169 C   0  0  0  0  0  0  0  0  0  0  0  0
  -37.1648  -21.6273   25.7210 C   0  0  0  0  0  0  0  0  0  0  0  0
  -38.7660  -21.9236   27.6108 C   0  0  0  0  0  0  0  0  0  0  0  0
  -36.1102  -15.6728   28.4745 C   0  0  0  0  0  0  0  0  0  0  0  0
  -27.7876  -19.8079   26.4555 C   0  0  0  0  0  0  0  0  0  0  0  0
  -27.9204  -19.5824   27.9605 C   0  0  0  0  0  0  0  0  0  0  0  0
  -29.3467  -19.8162   28.4387 C   0  0  0  0  0  0  0  0  0  1  0  0
  -36.6420  -20.6032   27.9813 C   0  0  1  0  0  0  0  0  0  0  0  0
  -37.4645  -17.0635   26.9026 C   0  0  2  0  0  0  0  0  0  0  0  0
  -37.2682  -21.8233   27.2487 C   0  0  0  0  0  0  0  0  0  0  0  0
  -25.8617  -11.5427   20.2869 N   0  0  0  0  0  0  0  0  0  0  0  0
  -26.2390  -12.8262   20.1590 N   0  0  0  0  0  0  0  0  0  0  0  0
  -35.4568  -20.7414   30.1492 N   0  0  0  0  0  0  0  0  0  0  0  0
  -29.9703  -13.6124   20.3664 N   0  0  0  0  0  0  0  0  0  0  0  0
  -25.4733  -15.0539   20.4076 N   0  0  0  0  0  0  0  0  0  0  0  0
  -21.8873  -12.5804   21.5988 N   0  0  0  0  0  0  0  0  0  0  0  0
  -30.0817  -15.6913   21.4746 N   0  0  0  0  0  0  0  0  0  0  0  0
  -35.1032  -23.0329   32.9635 N   0  0  0  0  0  0  0  0  0  0  0  0
  -37.2807  -19.3284   27.6724 N   0  0  0  0  0  0  0  0  0  0  0  0
  -36.6950  -15.8050   27.1153 N   0  3  0  0  0  0  0  0  0  0  0  0
  -22.6637  -14.7200   21.3196 O   0  0  0  0  0  0  0  0  0  0  0  0
  -34.8845  -23.1822   30.6500 O   0  0  0  0  0  0  0  0  0  0  0  0
  -37.7834  -20.8527   30.0457 O   0  0  0  0  0  0  0  0  0  0  0  0
  -35.3763  -18.2782   26.8679 O   0  0  0  0  0  0  0  0  0  0  0  0
  -31.8581  -14.9347   20.1887 O   0  0  0  0  0  0  0  0  0  0  0  0
  -21.6123   -7.0172   21.7052 O   0  0  0  0  0  0  0  0  0  0  0  0
  -29.4010  -19.6052   29.8489 O   0  0  0  0  0  0  0  0  0  1  0  0
  -18.6205   -6.8583   26.3342 F   0  0  0  0  0  0  0  0  0  0  0  0
  -33.9852  -17.4979   23.6004 F   0  0  0  0  0  0  0  0  0  0  0  0
  -22.0618   -5.0729   23.6184 F   0  0  0  0  0  0  0  0  0  0  0  0
  1  2  1  0  0  0  0
  1  5  2  0  0  0  0
  2  6  2  0  0  0  0
  3  8  2  0  0  0  0
  3 17  1  0  0  0  0
  4  9  1  0  0  0  0
  4 17  2  0  0  0  0
  5 20  1  0  0  0  0
  6 22  1  0  0  0  0
  7 10  2  0  0  0  0
  7 21  1  0  0  0  0
  8 26  1  0  0  0  0
  9 26  2  0  0  0  0
 10 27  1  0  0  0  0
 11 12  2  0  0  0  0
 11 28  1  0  0  0  0
 12 29  1  0  0  0  0
 13 18  1  0  0  0  0
 13 25  2  0  0  0  0
 14 23  1  0  0  0  0
 14 27  2  0  0  0  0
 15 25  1  0  0  0  0
 15 30  2  0  0  0  0
 16 29  2  0  0  0  0
 16 31  1  0  0  0  0
 17 32  1  0  0  0  0
 18 24  2  0  0  0  0
 18 34  1  0  0  0  0
 19 32  1  0  0  0  0
 19 33  2  0  0  0  0
 19 36  1  0  0  0  0
 20 22  2  0  0  0  0
 20 41  1  0  0  0  0
 21 23  2  0  0  0  0
 21 42  1  0  0  0  0
 22 50  1  0  0  0  0
 23 43  1  0  0  0  0
 24 30  1  0  0  0  0
 24 53  1  0  0  0  0
 25 71  1  0  0  0  0
 26 80  1  0  0  0  0
 27 81  1  0  0  0  0
 28 31  2  0  0  0  0
 28 80  1  0  0  0  0
 29 82  1  0  0  0  0
 30 83  1  0  0  0  0
 31 84  1  0  0  0  0
 32 65  2  0  0  0  0
 33 66  1  0  0  0  0
 33 69  1  0  0  0  0
 34 35  2  0  0  0  0
 35 59  1  0  0  0  0
 36 70  1  0  0  0  0
 36 75  2  0  0  0  0
 37 51  1  0  0  0  0
 37 72  1  0  0  0  0
 37 76  2  0  0  0  0
 38 62  1  0  0  0  0
 38 67  1  0  0  0  0
 38 77  2  0  0  0  0
 39 63  1  0  0  0  0
 39 73  1  0  0  0  0
 39 78  2  0  0  0  0
 40 68  1  0  0  0  0
 40 71  1  0  0  0  0
 40 79  2  0  0  0  0
 41 44  1  0  0  0  0
 42 51  1  0  0  0  0
 43 67  1  0  0  0  0
 44 46  1  0  0  0  0
 45 47  1  0  0  0  0
 45 48  1  0  0  0  0
 46 50  1  0  0  0  0
 47 52  1  0  0  0  0
 48 68  1  0  0  0  0
 49 52  1  0  0  0  0
 49 68  1  0  0  0  0
 50 72  1  0  0  0  0
 51 67  1  0  0  0  0
 52 66  1  0  0  0  0
 54 63  1  0  0  0  0
 55 64  1  0  0  0  0
 56 64  1  0  0  0  0
 57 64  1  0  0  0  0
 58 74  1  0  0  0  0
 59 60  1  0  0  0  0
 60 61  1  0  0  0  0
 61 81  1  0  0  0  0
 62 64  1  0  0  0  0
 62 73  1  0  0  0  0
 63 74  1  0  0  0  0
 65 66  1  0  0  0  0
M  CHG  1  74   1
M  ISO  4  40 100  61 101  71 100  81 101
M  END
> <Batch ID>
0121

> <Smiles>
CNC(C)C(=O)NC(C(=O)N1Cc2cc([101O:1][101CH2:1]CCC=Cc3cc([100NH:0][100C:0](=O)N4CCCC(n5nc(-c6ccc(Oc7ccc(F)cc7F)cc6)c(C(N)=O)c5N)C4)cc(F)c3C)ccc2CC1C(=O)NC1CCCc2ccccc21)C(C)(C)C

> <Shape>
0.166

> <Color>
0.200

> <Negative vol penalty>
0.000

$$$$

  -OEChem-04052301573D

 84 92  0     1  0  0  0  0  0999 V2000
  -19.2696  -33.4242   20.4715 C   0  0  0  0  0  0  0  0  0  0  0  0
  -20.5064  -32.9340   20.0646 C   0  0  0  0  0  0  0  0  0  0  0  0
  -27.4318  -11.9371   20.9849 C   0  0  0  0  0  0  0  0  0  0  0  0
  -27.1268  -12.7824   18.7423 C   0  0  0  0  0  0  0  0  0  0  0  0
  -32.9150  -22.9829   17.0446 C   0  0  0  0  0  0  0  0  0  0  0  0
  -18.7482  -33.0552   21.7108 C   0  0  0  0  0  0  0  0  0  0  0  0
  -21.2230  -32.0754   20.8975 C   0  0  0  0  0  0  0  0  0  0  0  0
  -24.8095  -27.4196   19.1751 C   0  0  0  0  0  0  0  0  0  0  0  0
  -33.3059  -21.6453   17.1051 C   0  0  0  0  0  0  0  0  0  0  0  0
  -26.5232  -10.9120   20.7222 C   0  0  0  0  0  0  0  0  0  0  0  0
  -26.2181  -11.7573   18.4795 C   0  0  0  0  0  0  0  0  0  0  0  0
  -26.1905  -27.3067   19.0206 C   0  0  0  0  0  0  0  0  0  0  0  0
  -23.1678  -10.5400   20.5573 C   0  0  0  0  0  0  0  0  0  0  0  0
  -22.2021  -10.2668   21.5260 C   0  0  0  0  0  0  0  0  0  0  0  0
  -31.2570  -22.5757   18.7541 C   0  0  0  0  0  0  0  0  0  0  0  0
  -26.3565  -26.3754   21.2397 C   0  0  0  0  0  0  0  0  0  0  0  0
  -23.0435   -8.0111   21.7285 C   0  0  0  0  0  0  0  0  0  0  0  0
  -27.7336  -12.8724   19.9950 C   0  0  0  0  0  0  0  0  0  0  0  0
  -31.8906  -23.4481   17.8691 C   0  0  0  0  0  0  0  0  0  0  0  0
  -30.0650  -13.9054   20.0663 C   0  0  0  0  0  0  0  0  0  0  0  0
  -19.4544  -32.1839   22.5550 C   0  0  0  0  0  0  0  0  0  0  0  0
  -24.1919  -27.0206   20.3691 C   0  0  0  0  0  0  0  0  0  0  0  0
  -20.7111  -31.6954   22.1498 C   0  0  0  0  0  0  0  0  0  0  0  0
  -24.9672  -26.4818   21.4058 C   0  0  0  0  0  0  0  0  0  0  0  0
  -32.6723  -20.7729   17.9900 C   0  0  0  0  0  0  0  0  0  0  0  0
  -31.6479  -21.2381   18.8146 C   0  0  0  0  0  0  0  0  0  0  0  0
  -25.9163  -10.8221   19.4695 C   0  0  0  0  0  0  0  0  0  0  0  0
  -26.9646  -26.7872   20.0541 C   0  0  0  0  0  0  0  0  0  0  0  0
  -24.0712   -9.5487   20.1740 C   0  0  0  0  0  0  0  0  0  0  0  0
  -22.1400   -9.0024   22.1117 C   0  0  0  0  0  0  0  0  0  0  0  0
  -24.0091   -8.2843   20.7596 C   0  0  0  0  0  0  0  0  0  0  0  0
  -28.6718  -13.9319   20.2660 C   0  0  0  0  0  0  0  0  0  0  0  0
  -30.4940  -15.1448   20.4742 C   0  0  0  0  0  0  0  0  0  0  0  0
  -31.8686  -28.8042   19.5397 C   0  0  0  0  0  0  0  0  0  0  0  0
  -31.4796  -24.8602   17.8044 C   0  0  0  0  0  0  0  0  0  0  0  0
  -31.0323  -27.7816   19.7552 C   0  0  0  0  0  0  0  0  0  0  0  0
  -30.8073  -25.5133   18.7662 C   0  0  0  0  0  0  0  0  0  0  0  0
  -30.8971  -12.8544   19.5575 C   0  0  0  0  0  0  0  0  0  0  0  0
  -22.4940  -28.4929   22.6171 C   0  0  0  0  0  0  0  0  0  0  0  0
  -22.1269  -25.4807   23.7636 C   0  0  0  0  0  0  0  0  0  0  0  0
  -23.3108  -22.2850   23.9438 C   0  0  0  0  0  0  0  0  0  0  0  0
  -29.9600  -20.6857   20.6013 C   0  0  0  0  0  0  0  0  0  0  0  0
  -18.8718  -31.8509   23.9057 C   0  0  0  0  0  0  0  0  0  0  0  0
  -22.6979  -27.1240   20.5098 C   0  0  0  0  0  0  0  0  0  0  0  0
  -24.3502  -26.0202   22.6999 C   0  0  0  0  0  0  0  0  0  0  0  0
  -19.5232  -30.6397   24.5682 C   0  0  0  0  0  0  0  0  0  0  0  0
  -28.0591  -18.8188   22.9631 C   0  0  0  0  0  0  0  0  0  0  0  0
  -21.0428  -30.7337   24.4759 C   0  0  0  0  0  0  0  0  0  0  0  0
  -28.1636  -17.3788   22.4555 C   0  0  0  0  0  0  0  0  0  0  0  0
  -27.9706  -19.8205   21.8131 C   0  0  0  0  0  0  0  0  0  0  0  0
  -29.1392  -18.2668   20.2999 C   0  0  0  0  0  0  0  0  0  0  0  0
  -21.5073  -30.7422   23.0145 C   0  0  1  0  0  0  0  0  0  0  0  0
  -22.2360  -27.1649   21.9632 C   0  0  1  0  0  0  0  0  0  0  0  0
  -29.2961  -17.2267   21.4212 C   0  0  2  0  0  0  0  0  0  0  0  0
  -33.1108  -19.3449   18.0326 C   0  0  0  0  0  0  0  0  0  0  0  0
  -22.8162  -20.0570   24.9871 C   0  0  0  0  0  0  0  0  0  0  0  0
  -23.1607  -26.5091   26.4438 C   0  0  0  0  0  0  0  0  0  0  0  0
  -23.5428  -24.1317   27.1296 C   0  0  0  0  0  0  0  0  0  0  0  0
  -21.2350  -24.9220   26.6080 C   0  0  0  0  0  0  0  0  0  0  0  0
  -23.0226  -20.9818   21.3023 C   0  0  0  0  0  0  0  0  0  0  0  0
  -28.8681  -27.1119   18.6659 C   0  0  0  0  0  0  0  0  0  1  0  0
  -30.3979  -26.9651   18.6546 C   0  0  1  0  0  0  0  0  0  0  0  0
  -22.8908  -24.6020   24.7244 C   0  0  1  0  0  0  0  0  0  0  0  0
  -22.6215  -20.9440   23.7673 C   0  0  2  0  0  0  0  0  0  0  0  0
  -22.7195  -25.0516   26.2029 C   0  0  0  0  0  0  0  0  0  0  0  0
  -28.2441  -15.0958   20.7624 N   0  0  0  0  0  0  0  0  0  0  0  0
  -29.3752  -15.8122   20.8781 N   0  0  0  0  0  0  0  0  0  0  0  0
  -22.8863  -26.1476   22.7918 N   0  0  0  0  0  0  0  0  0  0  0  0
  -29.0777  -19.6194   20.8757 N   0  0  0  0  0  0  0  0  0  0  0  0
  -31.7153  -15.7179   20.5234 N   0  0  0  0  0  0  0  0  0  0  0  0
  -30.2936  -11.6456   19.1848 N   0  0  0  0  0  0  0  0  0  0  0  0
  -30.9930  -20.3672   19.7203 N   0  0  0  0  0  0  0  0  0  0  0  0
  -21.4670  -29.4045   22.4636 N   0  0  0  0  0  0  0  0  0  0  0  0
  -22.4555  -23.2347   24.4614 N   0  0  0  0  0  0  0  0  0  0  0  0
  -23.1684  -20.2332   22.5771 N   0  3  0  0  0  0  0  0  0  0  0  0
  -32.1410  -12.9777   19.4524 O   0  0  0  0  0  0  0  0  0  0  0  0
  -23.5463  -28.6764   23.2177 O   0  0  0  0  0  0  0  0  0  0  0  0
  -20.9007  -25.5665   23.8669 O   0  0  0  0  0  0  0  0  0  0  0  0
  -24.4909  -22.4705   23.6550 O   0  0  0  0  0  0  0  0  0  0  0  0
  -29.8262  -21.7916   21.1314 O   0  0  0  0  0  0  0  0  0  0  0  0
  -25.0298   -9.8218   19.2126 O   0  0  0  0  0  0  0  0  0  0  0  0
  -28.3128  -26.6766   19.9063 O   0  0  0  0  0  0  0  0  0  1  0  0
  -21.2137   -8.7406   23.0431 F   0  0  0  0  0  0  0  0  0  0  0  0
  -24.8751   -7.3283   20.3964 F   0  0  0  0  0  0  0  0  0  0  0  0
  1  2  1  0  0  0  0
  1  6  2  0  0  0  0
  2  7  2  0  0  0  0
  3 10  2  0  0  0  0
  3 18  1  0  0  0  0
  4 11  1  0  0  0  0
  4 18  2  0  0  0  0
  5  9  2  0  0  0  0
  5 19  1  0  0  0  0
  6 21  1  0  0  0  0
  7 23  1  0  0  0  0
  8 12  2  0  0  0  0
  8 22  1  0  0  0  0
  9 25  1  0  0  0  0
 10 27  1  0  0  0  0
 11 27  2  0  0  0  0
 12 28  1  0  0  0  0
 13 14  2  0  0  0  0
 13 29  1  0  0  0  0
 14 30  1  0  0  0  0
 15 19  2  0  0  0  0
 15 26  1  0  0  0  0
 16 24  1  0  0  0  0
 16 28  2  0  0  0  0
 17 30  2  0  0  0  0
 17 31  1  0  0  0  0
 18 32  1  0  0  0  0
 19 35  1  0  0  0  0
 20 32  1  0  0  0  0
 20 33  2  0  0  0  0
 20 38  1  0  0  0  0
 21 23  2  0  0  0  0
 21 43  1  0  0  0  0
 22 24  2  0  0  0  0
 22 44  1  0  0  0  0
 23 52  1  0  0  0  0
 24 45  1  0  0  0  0
 25 26  2  0  0  0  0
 25 55  1  0  0  0  0
 26 72  1  0  0  0  0
 27 81  1  0  0  0  0
 28 82  1  0  0  0  0
 29 31  2  0  0  0  0
 29 81  1  0  0  0  0
 30 83  1  0  0  0  0
 31 84  1  0  0  0  0
 32 66  2  0  0  0  0
 33 67  1  0  0  0  0
 33 70  1  0  0  0  0
 34 36  2  0  0  0  0
 35 37  2  0  0  0  0
 36 62  1  0  0  0  0
 37 62  1  0  0  0  0
 38 71  1  0  0  0  0
 38 76  2  0  0  0  0
 39 53  1  0  0  0  0
 39 73  1  0  0  0  0
 39 77  2  0  0  0  0
 40 63  1  0  0  0  0
 40 68  1  0  0  0  0
 40 78  2  0  0  0  0
 41 64  1  0  0  0  0
 41 74  1  0  0  0  0
 41 79  2  0  0  0  0
 42 69  1  0  0  0  0
 42 72  1  0  0  0  0
 42 80  2  0  0  0  0
 43 46  1  0  0  0  0
 44 53  1  0  0  0  0
 45 68  1  0  0  0  0
 46 48  1  0  0  0  0
 47 49  1  0  0  0  0
 47 50  1  0  0  0  0
 48 52  1  0  0  0  0
 49 54  1  0  0  0  0
 50 69  1  0  0  0  0
 51 54  1  0  0  0  0
 51 69  1  0  0  0  0
 52 73  1  0  0  0  0
 53 68  1  0  0  0  0
 54 67  1  0  0  0  0
 56 64  1  0  0  0  0
 57 65  1  0  0  0  0
 58 65  1  0  0  0  0
 59 65  1  0  0  0  0
 60 75  1  0  0  0  0
 61 62  1  0  0  0  0
 61 82  1  0  0  0  0
 63 65  1  0  0  0  0
 63 74  1  0  0  0  0
 64 75  1  0  0  0  0
 66 67  1  0  0  0  0
M  CHG  1  75   1
M  ISO  4  42 100  61 101  72 100  82 101
M  END
> <Batch ID>
0121

> <Smiles>
C=CC(C=Cc1ccc(C)c([100NH:0][100C:0](=O)N2CCCC(n3nc(-c4ccc(Oc5ccc(F)cc5F)cc4)c(C(N)=O)c3N)C2)c1)[101CH2:1][101O:1]c1ccc2c(c1)CN(C(=O)C(NC(=O)C(C)NC)C(C)(C)C)C(C(=O)NC1CCCc3ccccc31)C2

> <Shape>
0.224

> <Color>
0.087

> <Negative vol penalty>
0.000

$$$$

  -OEChem-04052301573D

 82 90  0     1  0  0  0  0  0999 V2000
  -27.5066  -30.6688   28.4776 C   0  0  0  0  0  0  0  0  0  0  0  0
  -27.5613  -29.8117   27.3832 C   0  0  0  0  0  0  0  0  0  0  0  0
  -24.5036  -10.0577   22.6091 C   0  0  0  0  0  0  0  0  0  0  0  0
  -24.5217  -11.6450   24.4304 C   0  0  0  0  0  0  0  0  0  0  0  0
  -26.3533  -31.4132   28.7217 C   0  0  0  0  0  0  0  0  0  0  0  0
  -26.4621  -29.6976   26.5328 C   0  0  0  0  0  0  0  0  0  0  0  0
  -27.7730  -29.7776   21.6420 C   0  0  0  0  0  0  0  0  0  0  0  0
  -24.0803   -9.0578   23.4847 C   0  0  0  0  0  0  0  0  0  0  0  0
  -24.0984  -10.6451   25.3060 C   0  0  0  0  0  0  0  0  0  0  0  0
  -28.3011  -28.6044   21.1051 C   0  0  0  0  0  0  0  0  0  0  0  0
  -21.1914   -8.0901   24.9511 C   0  0  0  0  0  0  0  0  0  0  0  0
  -20.1546   -7.2569   24.5311 C   0  0  0  0  0  0  0  0  0  0  0  0
  -26.1521  -28.0864   20.1391 C   0  0  0  0  0  0  0  0  0  0  0  0
  -30.0156  -20.0454   20.9101 C   0  0  0  0  0  0  0  0  0  0  0  0
  -27.6079  -20.1024   20.7179 C   0  0  0  0  0  0  0  0  0  0  0  0
  -21.6074   -5.3389   24.7493 C   0  0  0  0  0  0  0  0  0  0  0  0
  -24.7244  -11.3513   23.0820 C   0  0  0  0  0  0  0  0  0  0  0  0
  -28.8390  -22.1480   21.0879 C   0  0  0  0  0  0  0  0  0  0  0  0
  -24.3515  -13.2562   21.4267 C   0  0  0  0  0  0  0  0  0  0  0  0
  -25.2429  -31.3154   27.8684 C   0  0  0  0  0  0  0  0  0  0  0  0
  -26.4255  -30.1092   21.4404 C   0  0  0  0  0  0  0  0  0  0  0  0
  -25.2923  -30.4403   26.7665 C   0  0  0  0  0  0  0  0  0  0  0  0
  -25.6101  -29.2657   20.6724 C   0  0  0  0  0  0  0  0  0  0  0  0
  -30.0338  -21.4281   21.0926 C   0  0  0  0  0  0  0  0  0  0  0  0
  -28.8027  -19.3825   20.7227 C   0  0  0  0  0  0  0  0  0  0  0  0
  -23.8777   -9.3515   24.8331 C   0  0  0  0  0  0  0  0  0  0  0  0
  -27.4899  -27.7571   20.3559 C   0  0  0  0  0  0  0  0  0  0  0  0
  -22.4363   -7.5477   25.2702 C   0  0  0  0  0  0  0  0  0  0  0  0
  -20.3626   -5.8814   24.4302 C   0  0  0  0  0  0  0  0  0  0  0  0
  -22.6443   -6.1722   25.1693 C   0  0  0  0  0  0  0  0  0  0  0  0
  -27.6261  -21.4851   20.9005 C   0  0  0  0  0  0  0  0  0  0  0  0
  -25.1622  -12.3844   22.1781 C   0  0  0  0  0  0  0  0  0  0  0  0
  -25.2409  -14.0413   20.7347 C   0  0  0  0  0  0  0  0  0  0  0  0
  -28.8817  -23.6071   21.2812 C   0  0  0  0  0  0  0  0  0  0  0  0
  -29.0154  -24.5143   20.3012 C   0  0  0  0  0  0  0  0  0  0  0  0
  -22.9222  -13.3481   21.3603 C   0  0  0  0  0  0  0  0  0  0  0  0
  -23.9143  -30.5457   23.3397 C   0  0  0  0  0  0  0  0  0  0  0  0
  -22.4753  -31.4550   20.5784 C   0  0  0  0  0  0  0  0  0  0  0  0
  -22.3829  -31.2957   17.1706 C   0  0  0  0  0  0  0  0  0  0  0  0
  -29.8790  -17.1143   20.5150 C   0  0  0  0  0  0  0  0  0  0  0  0
  -24.0010  -32.1043   28.1998 C   0  0  0  0  0  0  0  0  0  0  0  0
  -25.8779  -31.3918   22.0038 C   0  0  0  0  0  0  0  0  0  0  0  0
  -24.1621  -29.5863   20.4097 C   0  0  0  0  0  0  0  0  0  0  0  0
  -23.0166  -32.2073   27.0376 C   0  0  0  0  0  0  0  0  0  0  0  0
  -30.2457  -13.5945   20.1225 C   0  0  0  0  0  0  0  0  0  0  0  0
  -22.8145  -30.8427   26.3867 C   0  0  0  0  0  0  0  0  0  0  0  0
  -28.8891  -13.0377   20.5605 C   0  0  0  0  0  0  0  0  0  0  0  0
  -30.6626  -14.7993   20.9642 C   0  0  0  0  0  0  0  0  0  0  0  0
  -28.3106  -15.3191   21.4810 C   0  0  0  0  0  0  0  0  0  0  0  0
  -24.1295  -30.3078   25.8071 C   0  0  1  0  0  0  0  0  0  0  0  0
  -24.3613  -31.3730   22.1677 C   0  0  1  0  0  0  0  0  0  0  0  0
  -27.8182  -14.1445   20.6200 C   0  0  2  0  0  0  0  0  0  0  0  0
  -31.3555  -22.0995   21.2890 C   0  0  0  0  0  0  0  0  0  0  0  0
  -21.0689  -32.1134   15.1953 C   0  0  0  0  0  0  0  0  0  0  0  0
  -20.2859  -29.4216   21.1963 C   0  0  0  0  0  0  0  0  0  0  0  0
  -19.5490  -29.5939   18.8097 C   0  0  0  0  0  0  0  0  0  0  0  0
  -19.4598  -31.6007   20.2888 C   0  0  0  0  0  0  0  0  0  0  0  0
  -24.7237  -32.7246   16.0580 C   0  0  0  0  0  0  0  0  0  0  0  0
  -29.0676  -25.9879   20.5483 C   0  0  0  0  0  0  0  0  0  1  0  0
  -21.7022  -30.7468   19.4922 C   0  0  1  0  0  0  0  0  0  0  0  0
  -22.2507  -32.3785   16.1149 C   0  0  2  0  0  0  0  0  0  0  0  0
  -20.2760  -30.3335   19.9531 C   0  0  0  0  0  0  0  0  0  0  0  0
  -26.4664  -12.5955   21.9818 N   0  0  0  0  0  0  0  0  0  0  0  0
  -26.4820  -13.6088   21.0992 N   0  0  0  0  0  0  0  0  0  0  0  0
  -23.6716  -30.8487   20.9872 N   0  0  0  0  0  0  0  0  0  0  0  0
  -29.6011  -15.8083   20.9709 N   0  0  0  0  0  0  0  0  0  0  0  0
  -25.0747  -15.0526   19.8560 N   0  0  0  0  0  0  0  0  0  0  0  0
  -22.1591  -12.4651   22.1364 N   0  0  0  0  0  0  0  0  0  0  0  0
  -28.7843  -17.9779   20.5372 N   0  0  0  0  0  0  0  0  0  0  0  0
  -24.4315  -30.9615   24.5518 N   0  0  0  0  0  0  0  0  0  0  0  0
  -21.7223  -31.6325   18.3331 N   0  0  0  0  0  0  0  0  0  0  0  0
  -23.4864  -32.4459   15.2845 N   0  3  0  0  0  0  0  0  0  0  0  0
  -22.3389  -14.1774   20.6217 O   0  0  0  0  0  0  0  0  0  0  0  0
  -23.1553  -29.6010   23.1580 O   0  0  0  0  0  0  0  0  0  0  0  0
  -22.0376  -32.5110   21.0419 O   0  0  0  0  0  0  0  0  0  0  0  0
  -23.0065  -30.2536   16.9816 O   0  0  0  0  0  0  0  0  0  0  0  0
  -30.9984  -17.4349   20.1073 O   0  0  0  0  0  0  0  0  0  0  0  0
  -23.4644   -8.3761   25.6878 O   0  0  0  0  0  0  0  0  0  0  0  0
  -28.0026  -26.6109   19.8313 O   0  0  0  0  0  0  0  0  0  1  0  0
  -19.3664   -5.0812   24.0284 F   0  0  0  0  0  0  0  0  0  0  0  0
  -23.8377   -5.6452   25.4756 F   0  0  0  0  0  0  0  0  0  0  0  0
  -26.1129  -22.3238   20.8852 Cl  0  0  0  0  0  0  0  0  0  0  0  0
  1  2  1  0  0  0  0
  1  5  2  0  0  0  0
  2  6  2  0  0  0  0
  3  8  2  0  0  0  0
  3 17  1  0  0  0  0
  4  9  1  0  0  0  0
  4 17  2  0  0  0  0
  5 20  1  0  0  0  0
  6 22  1  0  0  0  0
  7 10  2  0  0  0  0
  7 21  1  0  0  0  0
  8 26  1  0  0  0  0
  9 26  2  0  0  0  0
 10 27  1  0  0  0  0
 11 12  2  0  0  0  0
 11 28  1  0  0  0  0
 12 29  1  0  0  0  0
 13 23  1  0  0  0  0
 13 27  2  0  0  0  0
 14 24  2  0  0  0  0
 14 25  1  0  0  0  0
 15 25  2  0  0  0  0
 15 31  1  0  0  0  0
 16 29  2  0  0  0  0
 16 30  1  0  0  0  0
 17 32  1  0  0  0  0
 18 24  1  0  0  0  0
 18 31  2  0  0  0  0
 18 34  1  0  0  0  0
 19 32  1  0  0  0  0
 19 33  2  0  0  0  0
 19 36  1  0  0  0  0
 20 22  2  0  0  0  0
 20 41  1  0  0  0  0
 21 23  2  0  0  0  0
 21 42  1  0  0  0  0
 22 50  1  0  0  0  0
 23 43  1  0  0  0  0
 24 53  1  0  0  0  0
 25 69  1  0  0  0  0
 26 78  1  0  0  0  0
 27 79  1  0  0  0  0
 28 30  2  0  0  0  0
 28 78  1  0  0  0  0
 29 80  1  0  0  0  0
 30 81  1  0  0  0  0
 31 82  1  0  0  0  0
 32 63  2  0  0  0  0
 33 64  1  0  0  0  0
 33 67  1  0  0  0  0
 34 35  2  0  0  0  0
 35 59  1  0  0  0  0
 36 68  1  0  0  0  0
 36 73  2  0  0  0  0
 37 51  1  0  0  0  0
 37 70  1  0  0  0  0
 37 74  2  0  0  0  0
 38 60  1  0  0  0  0
 38 65  1  0  0  0  0
 38 75  2  0  0  0  0
 39 61  1  0  0  0  0
 39 71  1  0  0  0  0
 39 76  2  0  0  0  0
 40 66  1  0  0  0  0
 40 69  1  0  0  0  0
 40 77  2  0  0  0  0
 41 44  1  0  0  0  0
 42 51  1  0  0  0  0
 43 65  1  0  0  0  0
 44 46  1  0  0  0  0
 45 47  1  0  0  0  0
 45 48  1  0  0  0  0
 46 50  1  0  0  0  0
 47 52  1  0  0  0  0
 48 66  1  0  0  0  0
 49 52  1  0  0  0  0
 49 66  1  0  0  0  0
 50 70  1  0  0  0  0
 51 65  1  0  0  0  0
 52 64  1  0  0  0  0
 54 61  1  0  0  0  0
 55 62  1  0  0  0  0
 56 62  1  0  0  0  0
 57 62  1  0  0  0  0
 58 72  1  0  0  0  0
 59 79  1  0  0  0  0
 60 62  1  0  0  0  0
 60 71  1  0  0  0  0
 61 72  1  0  0  0  0
 63 64  1  0  0  0  0
M  CHG  1  72   1
M  ISO  4  40 100  59 101  69 100  79 101
M  END
> <Batch ID>
0121

> <Smiles>
CNC(C)C(=O)NC(C(=O)N1Cc2cc([101O:1][101CH2:1]C=Cc3c(C)cc([100NH:0][100C:0](=O)N4CCCC(n5nc(-c6ccc(Oc7ccc(F)cc7F)cc6)c(C(N)=O)c5N)C4)cc3Cl)ccc2CC1C(=O)NC1CCCc2ccccc21)C(C)(C)C

> <Shape>
0.274

> <Color>
0.132

> <Negative vol penalty>
0.000

$$$$

  -OEChem-04052301573D

 89 98  0     1  0  0  0  0  0999 V2000
  -20.1811  -24.9802   24.6973 C   0  0  0  0  0  0  0  0  0  0  0  0
  -21.2693  -24.9736   23.8306 C   0  0  0  0  0  0  0  0  0  0  0  0
  -22.7176  -12.7703   22.5193 C   0  0  0  0  0  0  0  0  0  0  0  0
  -24.3659  -11.3160   23.5218 C   0  0  0  0  0  0  0  0  0  0  0  0
  -19.1966  -25.9593   24.5708 C   0  0  0  0  0  0  0  0  0  0  0  0
  -21.3730  -25.9455   22.8360 C   0  0  0  0  0  0  0  0  0  0  0  0
  -26.0370  -27.8891   22.4977 C   0  0  0  0  0  0  0  0  0  0  0  0
  -30.3719  -19.9371   19.7525 C   0  0  0  0  0  0  0  0  0  0  0  0
  -30.2552  -18.5520   19.6374 C   0  0  0  0  0  0  0  0  0  0  0  0
  -21.9824  -12.7541   23.7045 C   0  0  0  0  0  0  0  0  0  0  0  0
  -23.6308  -11.2999   24.7071 C   0  0  0  0  0  0  0  0  0  0  0  0
  -26.9994  -27.1240   21.8403 C   0  0  0  0  0  0  0  0  0  0  0  0
  -20.8769   -9.7505   25.9098 C   0  0  0  0  0  0  0  0  0  0  0  0
  -20.6872   -8.5197   26.5380 C   0  0  0  0  0  0  0  0  0  0  0  0
  -26.6982  -28.4615   19.8555 C   0  0  0  0  0  0  0  0  0  0  0  0
  -27.9939  -20.1673   19.3926 C   0  0  0  0  0  0  0  0  0  0  0  0
  -21.8138   -9.3510   28.5069 C   0  0  0  0  0  0  0  0  0  0  0  0
  -23.9093  -12.0511   22.4279 C   0  0  0  0  0  0  0  0  0  0  0  0
  -24.2419  -11.6379   19.9326 C   0  0  0  0  0  0  0  0  0  0  0  0
  -19.2932  -26.9494   23.5804 C   0  0  0  0  0  0  0  0  0  0  0  0
  -25.3889  -28.9409   21.8343 C   0  0  0  0  0  0  0  0  0  0  0  0
  -20.3881  -26.9379   22.6953 C   0  0  0  0  0  0  0  0  0  0  0  0
  -25.7297  -29.2400   20.5075 C   0  0  0  0  0  0  0  0  0  0  0  0
  -27.8773  -18.7821   19.2774 C   0  0  0  0  0  0  0  0  0  0  0  0
  -29.2412  -20.7448   19.6302 C   0  0  0  0  0  0  0  0  0  0  0  0
  -29.0080  -17.9744   19.3997 C   0  0  0  0  0  0  0  0  0  0  0  0
  -22.4390  -12.0190   24.7984 C   0  0  0  0  0  0  0  0  0  0  0  0
  -27.3281  -27.4084   20.5181 C   0  0  0  0  0  0  0  0  0  0  0  0
  -21.5351  -10.7816   26.5801 C   0  0  0  0  0  0  0  0  0  0  0  0
  -21.1556   -8.3199   27.8366 C   0  0  0  0  0  0  0  0  0  0  0  0
  -22.0035  -10.5818   27.8786 C   0  0  0  0  0  0  0  0  0  0  0  0
  -24.6689  -12.0669   21.2036 C   0  0  0  0  0  0  0  0  0  0  0  0
  -25.3229  -11.8587   19.1146 C   0  0  0  0  0  0  0  0  0  0  0  0
  -28.8962  -24.4925   19.1251 C   0  0  0  0  0  0  0  0  0  0  0  0
  -28.4948  -23.0569   19.0678 C   0  0  0  0  0  0  0  0  0  0  0  0
  -31.5732  -23.3040   19.8628 C   0  0  0  0  0  0  0  0  0  0  0  0
  -28.0420  -25.3214   19.7398 C   0  0  0  0  0  0  0  0  0  1  0  0
  -22.9809  -11.0888   19.5277 C   0  0  0  0  0  0  0  0  0  0  0  0
  -22.3776  -29.5733   21.0371 C   0  0  0  0  0  0  0  0  0  0  0  0
  -23.6330  -32.4121   20.0949 C   0  0  0  0  0  0  0  0  0  0  0  0
  -26.3705  -34.1698   19.0638 C   0  0  0  0  0  0  0  0  0  0  0  0
  -29.9449  -15.6360   19.3880 C   0  0  0  0  0  0  0  0  0  0  0  0
  -18.1801  -27.9590   23.4523 C   0  0  0  0  0  0  0  0  0  0  0  0
  -24.3722  -29.7737   22.5659 C   0  0  0  0  0  0  0  0  0  0  0  0
  -25.0777  -30.3715   19.7570 C   0  0  0  0  0  0  0  0  0  0  0  0
  -30.2024  -24.9223   18.5122 C   0  0  0  0  0  0  0  0  0  0  0  0
  -31.2951  -23.8516   18.4786 C   0  0  0  0  0  0  0  0  0  0  0  0
  -30.4175  -22.7033   20.6405 C   0  0  0  0  0  0  0  0  0  0  0  0
  -18.5557  -29.1762   22.6110 C   0  0  0  0  0  0  0  0  0  0  0  0
  -30.1057  -12.0837   19.2079 C   0  0  0  0  0  0  0  0  0  0  0  0
  -19.2456  -28.7417   21.3218 C   0  0  0  0  0  0  0  0  0  0  0  0
  -28.6892  -11.6374   19.5776 C   0  0  0  0  0  0  0  0  0  0  0  0
  -30.5433  -13.3064   20.0124 C   0  0  0  0  0  0  0  0  0  0  0  0
  -28.2010  -13.9990   20.3338 C   0  0  0  0  0  0  0  0  0  0  0  0
  -20.5486  -27.9902   21.6196 C   0  0  1  0  0  0  0  0  0  0  0  0
  -23.4057  -30.4942   21.6310 C   0  0  1  0  0  0  0  0  0  0  0  0
  -27.6915  -12.8099   19.5031 C   0  0  2  0  0  0  0  0  0  0  0  0
  -26.3472  -17.7652   17.5712 C   0  0  0  0  0  0  0  0  0  0  0  0
  -27.0777  -36.4635   18.3314 C   0  0  0  0  0  0  0  0  0  0  0  0
  -22.3336  -31.9414   17.3746 C   0  0  0  0  0  0  0  0  0  0  0  0
  -23.8223  -33.7208   16.4335 C   0  0  0  0  0  0  0  0  0  0  0  0
  -22.1722  -34.2912   18.2152 C   0  0  0  0  0  0  0  0  0  0  0  0
  -28.2755  -34.4276   21.3140 C   0  0  0  0  0  0  0  0  0  0  0  0
  -26.5287  -18.1903   19.0249 C   0  0  0  0  0  0  0  0  0  0  0  0
  -24.2273  -32.9457   18.8139 C   0  0  1  0  0  0  0  0  0  0  0  0
  -26.9333  -35.5085   19.5061 C   0  0  2  0  0  0  0  0  0  0  0  0
  -23.1499  -33.2022   17.7225 C   0  0  0  0  0  0  0  0  0  0  0  0
  -25.9234  -12.5255   21.1984 N   0  0  0  0  0  0  0  0  0  0  0  0
  -26.2940  -12.3858   19.9142 N   0  0  0  0  0  0  0  0  0  0  0  0
  -29.3618  -22.1798   19.7524 N   0  0  0  0  0  0  0  0  0  0  0  0
  -24.0853  -31.1527   20.5136 N   0  0  0  0  0  0  0  0  0  0  0  0
  -29.5521  -14.3777   19.8912 N   0  0  0  0  0  0  0  0  0  0  0  0
  -25.5280  -11.6515   17.7965 N   0  0  0  0  0  0  0  0  0  0  0  0
  -22.8088   -9.6990   19.5822 N   0  0  0  0  0  0  0  0  0  0  0  0
  -28.9101  -16.5653   19.2875 N   0  0  0  0  0  0  0  0  0  0  0  0
  -21.5991  -28.9205   21.9737 N   0  0  0  0  0  0  0  0  0  0  0  0
  -24.9974  -34.1286   19.1828 N   0  0  0  0  0  0  0  0  0  0  0  0
  -28.2739  -35.3259   20.1309 N   0  3  0  0  0  0  0  0  0  0  0  0
  -27.5226  -22.7623   18.3754 O   0  0  0  0  0  0  0  0  0  0  0  0
  -32.6775  -23.4485   20.3897 O   0  0  0  0  0  0  0  0  0  0  0  0
  -22.0402  -11.8081   19.1138 O   0  0  0  0  0  0  0  0  0  0  0  0
  -22.2957  -29.4643   19.8193 O   0  0  0  0  0  0  0  0  0  0  0  0
  -22.8035  -33.0909   20.7055 O   0  0  0  0  0  0  0  0  0  0  0  0
  -27.0779  -33.2538   18.6503 O   0  0  0  0  0  0  0  0  0  0  0  0
  -31.1077  -15.8631   19.0441 O   0  0  0  0  0  0  0  0  0  0  0  0
  -21.7220  -12.0032   25.9553 O   0  0  0  0  0  0  0  0  0  0  0  0
  -28.2667  -26.6628   19.8739 O   0  0  0  0  0  0  0  0  0  1  0  0
  -20.9720   -7.1384   28.4403 F   0  0  0  0  0  0  0  0  0  0  0  0
  -22.6356  -11.5690   28.5281 F   0  0  0  0  0  0  0  0  0  0  0  0
  1  2  1  0  0  0  0
  1  5  2  0  0  0  0
  2  6  2  0  0  0  0
  3 10  2  0  0  0  0
  3 18  1  0  0  0  0
  4 11  1  0  0  0  0
  4 18  2  0  0  0  0
  5 20  1  0  0  0  0
  6 22  1  0  0  0  0
  7 12  2  0  0  0  0
  7 21  1  0  0  0  0
  8  9  2  0  0  0  0
  8 25  1  0  0  0  0
  9 26  1  0  0  0  0
 10 27  1  0  0  0  0
 11 27  2  0  0  0  0
 12 28  1  0  0  0  0
 13 14  2  0  0  0  0
 13 29  1  0  0  0  0
 14 30  1  0  0  0  0
 15 23  1  0  0  0  0
 15 28  2  0  0  0  0
 16 24  1  0  0  0  0
 16 25  2  0  0  0  0
 17 30  2  0  0  0  0
 17 31  1  0  0  0  0
 18 32  1  0  0  0  0
 19 32  1  0  0  0  0
 19 33  2  0  0  0  0
 19 38  1  0  0  0  0
 20 22  2  0  0  0  0
 20 43  1  0  0  0  0
 21 23  2  0  0  0  0
 21 44  1  0  0  0  0
 22 55  1  0  0  0  0
 23 45  1  0  0  0  0
 24 26  2  0  0  0  0
 24 64  1  0  0  0  0
 25 70  1  0  0  0  0
 26 75  1  0  0  0  0
 27 86  1  0  0  0  0
 28 87  1  0  0  0  0
 29 31  2  0  0  0  0
 29 86  1  0  0  0  0
 30 88  1  0  0  0  0
 31 89  1  0  0  0  0
 32 68  2  0  0  0  0
 33 69  1  0  0  0  0
 33 73  1  0  0  0  0
 34 35  1  0  0  0  0
 34 37  2  0  0  0  0
 34 46  1  0  0  0  0
 35 70  1  0  0  0  0
 35 79  2  0  0  0  0
 36 47  1  0  0  0  0
 36 48  1  0  0  0  0
 36 80  2  0  0  0  0
 37 87  1  0  0  0  0
 38 74  1  0  0  0  0
 38 81  2  0  0  0  0
 39 56  1  0  0  0  0
 39 76  1  0  0  0  0
 39 82  2  0  0  0  0
 40 65  1  0  0  0  0
 40 71  1  0  0  0  0
 40 83  2  0  0  0  0
 41 66  1  0  0  0  0
 41 77  1  0  0  0  0
 41 84  2  0  0  0  0
 42 72  1  0  0  0  0
 42 75  1  0  0  0  0
 42 85  2  0  0  0  0
 43 49  1  0  0  0  0
 44 56  1  0  0  0  0
 45 71  1  0  0  0  0
 46 47  1  0  0  0  0
 48 70  1  0  0  0  0
 49 51  1  0  0  0  0
 50 52  1  0  0  0  0
 50 53  1  0  0  0  0
 51 55  1  0  0  0  0
 52 57  1  0  0  0  0
 53 72  1  0  0  0  0
 54 57  1  0  0  0  0
 54 72  1  0  0  0  0
 55 76  1  0  0  0  0
 56 71  1  0  0  0  0
 57 69  1  0  0  0  0
 58 64  1  0  0  0  0
 59 66  1  0  0  0  0
 60 67  1  0  0  0  0
 61 67  1  0  0  0  0
 62 67  1  0  0  0  0
 63 78  1  0  0  0  0
 65 67  1  0  0  0  0
 65 77  1  0  0  0  0
 66 78  1  0  0  0  0
 68 69  1  0  0  0  0
M  CHG  1  78   1
M  ISO  4  37 101  42 100  75 100  87 101
M  END
> <Batch ID>
0121

> <Smiles>
CCc1cc(N2CC(=O)CCC(=[101CH:1][101O:1]c3ccc4c(c3)CN(C(=O)C(NC(=O)C(C)NC)C(C)(C)C)C(C(=O)NC3CCCc5ccccc53)C4)C2=O)ccc1[100NH:0][100C:0](=O)N1CCCC(n2nc(-c3ccc(Oc4ccc(F)cc4F)cc3)c(C(N)=O)c2N)C1

> <Shape>
0.265

> <Color>
0.112

> <Negative vol penalty>
0.000

$$$$

  -OEChem-04052301573D

 85 93  0     1  0  0  0  0  0999 V2000
  -28.9554  -36.8628   19.7928 C   0  0  0  0  0  0  0  0  0  0  0  0
  -29.2025  -35.5038   19.6269 C   0  0  0  0  0  0  0  0  0  0  0  0
  -22.7931   -5.7487   23.8874 C   0  0  0  0  0  0  0  0  0  0  0  0
  -20.7782   -5.6364   22.5590 C   0  0  0  0  0  0  0  0  0  0  0  0
  -26.5116  -17.1286   19.7720 C   0  0  0  0  0  0  0  0  0  0  0  0
  -26.6585  -18.4826   19.4708 C   0  0  0  0  0  0  0  0  0  0  0  0
  -28.0913  -37.2955   20.7978 C   0  0  0  0  0  0  0  0  0  0  0  0
  -28.5863  -34.5767   20.4667 C   0  0  0  0  0  0  0  0  0  0  0  0
  -26.6769  -28.9533   18.9707 C   0  0  0  0  0  0  0  0  0  0  0  0
  -22.2014   -4.9352   24.8537 C   0  0  0  0  0  0  0  0  0  0  0  0
  -20.1865   -4.8229   23.5253 C   0  0  0  0  0  0  0  0  0  0  0  0
  -27.2484  -27.6929   19.1393 C   0  0  0  0  0  0  0  0  0  0  0  0
  -21.5622   -1.6433   25.2867 C   0  0  0  0  0  0  0  0  0  0  0  0
  -22.3229   -0.5963   25.8069 C   0  0  0  0  0  0  0  0  0  0  0  0
  -27.2099  -16.5544   17.5315 C   0  0  0  0  0  0  0  0  0  0  0  0
  -25.9709  -27.3910   21.1632 C   0  0  0  0  0  0  0  0  0  0  0  0
  -22.1118   -1.5423   28.0199 C   0  0  0  0  0  0  0  0  0  0  0  0
  -22.0815   -6.0993   22.7401 C   0  0  0  0  0  0  0  0  0  0  0  0
  -26.7873  -16.1645   18.8024 C   0  0  0  0  0  0  0  0  0  0  0  0
  -27.0811  -18.8725   18.2000 C   0  0  0  0  0  0  0  0  0  0  0  0
  -23.4484   -6.5263   20.6290 C   0  0  0  0  0  0  0  0  0  0  0  0
  -27.4567  -36.3726   21.6441 C   0  0  0  0  0  0  0  0  0  0  0  0
  -25.7547  -29.4474   19.9045 C   0  0  0  0  0  0  0  0  0  0  0  0
  -27.7139  -34.9975   21.4848 C   0  0  0  0  0  0  0  0  0  0  0  0
  -25.3872  -28.6570   21.0028 C   0  0  0  0  0  0  0  0  0  0  0  0
  -27.3568  -17.9084   17.2303 C   0  0  0  0  0  0  0  0  0  0  0  0
  -20.8981   -4.4723   24.6727 C   0  0  0  0  0  0  0  0  0  0  0  0
  -26.8976  -26.9127   20.2372 C   0  0  0  0  0  0  0  0  0  0  0  0
  -21.0763   -2.6399   26.1331 C   0  0  0  0  0  0  0  0  0  0  0  0
  -22.5978   -0.5458   27.1735 C   0  0  0  0  0  0  0  0  0  0  0  0
  -21.3511   -2.5894   27.4997 C   0  0  0  0  0  0  0  0  0  0  0  0
  -22.6919   -6.9400   21.7418 C   0  0  0  0  0  0  0  0  0  0  0  0
  -23.7983   -7.6950   19.9979 C   0  0  0  0  0  0  0  0  0  0  0  0
  -26.6330  -14.7529   19.1171 C   0  0  0  0  0  0  0  0  0  0  0  0
  -27.2269  -20.3093   17.9132 C   0  0  0  0  0  0  0  0  0  0  0  0
  -25.8931  -14.2524   20.1294 C   0  0  0  0  0  0  0  0  0  0  0  0
  -28.0283  -21.1545   18.5805 C   0  0  0  0  0  0  0  0  0  0  0  0
  -23.8031   -5.2038   20.2036 C   0  0  0  0  0  0  0  0  0  0  0  0
  -25.8279  -12.7888   20.3142 C   0  0  0  0  0  0  0  0  0  0  0  0
  -25.6737  -31.9415   21.8734 C   0  0  0  0  0  0  0  0  0  0  0  0
  -27.7472  -23.4747   19.4481 C   0  0  0  0  0  0  0  0  0  0  0  0
  -22.6459  -30.9150   22.4223 C   0  0  0  0  0  0  0  0  0  0  0  0
  -20.4108  -28.3362   22.3921 C   0  0  0  0  0  0  0  0  0  0  0  0
  -26.5676  -36.8909   22.7466 C   0  0  0  0  0  0  0  0  0  0  0  0
  -25.1271  -30.7980   19.6941 C   0  0  0  0  0  0  0  0  0  0  0  0
  -24.3867  -29.1330   22.0231 C   0  0  0  0  0  0  0  0  0  0  0  0
  -25.6634  -35.8211   23.3535 C   0  0  0  0  0  0  0  0  0  0  0  0
  -22.1994  -12.4284   20.6828 C   0  0  0  0  0  0  0  0  0  0  0  0
  -26.4591  -34.5532   23.6467 C   0  0  0  0  0  0  0  0  0  0  0  0
  -22.0785  -10.9302   20.9484 C   0  0  0  0  0  0  0  0  0  0  0  0
  -23.4768  -13.0142   21.2825 C   0  0  0  0  0  0  0  0  0  0  0  0
  -24.5961  -10.8099   21.1140 C   0  0  0  0  0  0  0  0  0  0  0  0
  -27.0452  -33.9597   22.3599 C   0  0  1  0  0  0  0  0  0  0  0  0
  -24.5864  -31.4128   20.9813 C   0  0  1  0  0  0  0  0  0  0  0  0
  -23.3413  -10.1906   20.4789 C   0  0  1  0  0  0  0  0  0  0  0  0
  -27.8108  -18.2897   15.8578 C   0  0  0  0  0  0  0  0  0  0  0  0
  -18.0205  -27.7947   22.9314 C   0  0  0  0  0  0  0  0  0  0  0  0
  -23.3216  -30.9070   25.3978 C   0  0  0  0  0  0  0  0  0  0  0  0
  -21.2930  -29.4913   25.7834 C   0  0  0  0  0  0  0  0  0  0  0  0
  -21.0476  -31.7902   24.8467 C   0  0  0  0  0  0  0  0  0  0  0  0
  -19.8304  -27.5740   19.5919 C   0  0  0  0  0  0  0  0  0  0  0  0
  -28.1386  -22.6129   18.2559 C   0  0  0  0  0  0  0  0  0  0  0  0
  -27.8282  -24.9726   19.2242 C   0  0  0  0  0  0  0  0  0  1  0  0
  -22.0020  -29.9549   23.3932 C   0  0  1  0  0  0  0  0  0  0  0  0
  -18.9959  -28.2359   21.8512 C   0  0  2  0  0  0  0  0  0  0  0  0
  -21.9364  -30.5274   24.8373 C   0  0  0  0  0  0  0  0  0  0  0  0
  -22.5682   -8.2679   21.8163 N   0  0  0  0  0  0  0  0  0  0  0  0
  -23.2517   -8.6987   20.7423 N   0  0  0  0  0  0  0  0  0  0  0  0
  -24.6648  -12.2543   20.8656 N   0  0  0  0  0  0  0  0  0  0  0  0
  -23.8056  -30.4631   21.7767 N   0  0  0  0  0  0  0  0  0  0  0  0
  -24.5172   -7.9518   18.8845 N   0  0  0  0  0  0  0  0  0  0  0  0
  -23.3609   -4.1152   20.9677 N   0  0  0  0  0  0  0  0  0  0  0  0
  -26.0229  -33.2538   21.6176 N   0  0  0  0  0  0  0  0  0  0  0  0
  -20.7021  -29.6120   22.8267 N   0  0  0  0  0  0  0  0  0  0  0  0
  -18.9371  -27.2511   20.7342 N   0  3  0  0  0  0  0  0  0  0  0  0
  -24.5055   -4.9945   19.1856 O   0  0  0  0  0  0  0  0  0  0  0  0
  -26.8107  -12.1282   19.9729 O   0  0  0  0  0  0  0  0  0  0  0  0
  -26.1588  -31.2133   22.7314 O   0  0  0  0  0  0  0  0  0  0  0  0
  -27.3738  -23.0024   20.5211 O   0  0  0  0  0  0  0  0  0  0  0  0
  -22.1346  -32.0224   22.2380 O   0  0  0  0  0  0  0  0  0  0  0  0
  -21.1793  -27.3779   22.4291 O   0  0  0  0  0  0  0  0  0  0  0  0
  -20.3205   -3.6783   25.6153 O   0  0  0  0  0  0  0  0  0  0  0  0
  -27.4545  -25.6823   20.4045 O   0  0  0  0  0  0  0  0  0  1  0  0
  -23.3270    0.4606   27.6731 F   0  0  0  0  0  0  0  0  0  0  0  0
  -20.8860   -3.5433   28.3180 F   0  0  0  0  0  0  0  0  0  0  0  0
  1  2  1  0  0  0  0
  1  7  2  0  0  0  0
  2  8  2  0  0  0  0
  3 10  2  0  0  0  0
  3 18  1  0  0  0  0
  4 11  1  0  0  0  0
  4 18  2  0  0  0  0
  5  6  2  0  0  0  0
  5 19  1  0  0  0  0
  6 20  1  0  0  0  0
  7 22  1  0  0  0  0
  8 24  1  0  0  0  0
  9 12  2  0  0  0  0
  9 23  1  0  0  0  0
 10 27  1  0  0  0  0
 11 27  2  0  0  0  0
 12 28  1  0  0  0  0
 13 14  2  0  0  0  0
 13 29  1  0  0  0  0
 14 30  1  0  0  0  0
 15 19  2  0  0  0  0
 15 26  1  0  0  0  0
 16 25  1  0  0  0  0
 16 28  2  0  0  0  0
 17 30  2  0  0  0  0
 17 31  1  0  0  0  0
 18 32  1  0  0  0  0
 19 34  1  0  0  0  0
 20 26  2  0  0  0  0
 20 35  1  0  0  0  0
 21 32  1  0  0  0  0
 21 33  2  0  0  0  0
 21 38  1  0  0  0  0
 22 24  2  0  0  0  0
 22 44  1  0  0  0  0
 23 25  2  0  0  0  0
 23 45  1  0  0  0  0
 24 53  1  0  0  0  0
 25 46  1  0  0  0  0
 26 56  1  0  0  0  0
 27 82  1  0  0  0  0
 28 83  1  0  0  0  0
 29 31  2  0  0  0  0
 29 82  1  0  0  0  0
 30 84  1  0  0  0  0
 31 85  1  0  0  0  0
 32 67  2  0  0  0  0
 33 68  1  0  0  0  0
 33 71  1  0  0  0  0
 34 36  2  0  0  0  0
 35 37  2  0  0  0  0
 36 39  1  0  0  0  0
 37 62  1  0  0  0  0
 38 72  1  0  0  0  0
 38 76  2  0  0  0  0
 39 69  1  0  0  0  0
 39 77  2  0  0  0  0
 40 54  1  0  0  0  0
 40 73  1  0  0  0  0
 40 78  2  0  0  0  0
 41 62  1  0  0  0  0
 41 63  1  0  0  0  0
 41 79  2  0  0  0  0
 42 64  1  0  0  0  0
 42 70  1  0  0  0  0
 42 80  2  0  0  0  0
 43 65  1  0  0  0  0
 43 74  1  0  0  0  0
 43 81  2  0  0  0  0
 44 47  1  0  0  0  0
 45 54  1  0  0  0  0
 46 70  1  0  0  0  0
 47 49  1  0  0  0  0
 48 50  1  0  0  0  0
 48 51  1  0  0  0  0
 49 53  1  0  0  0  0
 50 55  1  0  0  0  0
 51 69  1  0  0  0  0
 52 55  1  0  0  0  0
 52 69  1  0  0  0  0
 53 73  1  0  0  0  0
 54 70  1  0  0  0  0
 55 68  1  0  0  0  0
 57 65  1  0  0  0  0
 58 66  1  0  0  0  0
 59 66  1  0  0  0  0
 60 66  1  0  0  0  0
 61 75  1  0  0  0  0
 63 83  1  0  0  0  0
 64 66  1  0  0  0  0
 64 74  1  0  0  0  0
 65 75  1  0  0  0  0
 67 68  1  0  0  0  0
M  CHG  1  75   1
M  ISO  4  36 100  39 100  63 101  83 101
M  END
> <Batch ID>
0121

> <Smiles>
CNC(C)C(=O)NC(C(=O)N1Cc2cc([101O:1][101CH2:1]C(=O)CC=Cc3ccc(C=[100CH:0][100C:0](=O)N4CCCC(n5nc(-c6ccc(Oc7ccc(F)cc7F)cc6)c(C(N)=O)c5N)C4)cc3C)ccc2CC1C(=O)NC1CCCc2ccccc21)C(C)(C)C

> <Shape>
0.261

> <Color>
0.077

> <Negative vol penalty>
0.000

$$$$

  -OEChem-04052301573D

 86 94  0     1  0  0  0  0  0999 V2000
  -30.5058  -32.7069   17.9421 C   0  0  0  0  0  0  0  0  0  0  0  0
  -31.0288  -31.8129   18.8708 C   0  0  0  0  0  0  0  0  0  0  0  0
  -23.2659   -9.7438   20.1501 C   0  0  0  0  0  0  0  0  0  0  0  0
  -23.9452  -10.0510   22.4482 C   0  0  0  0  0  0  0  0  0  0  0  0
  -29.2482  -32.4765   17.3859 C   0  0  0  0  0  0  0  0  0  0  0  0
  -30.2940  -30.6883   19.2448 C   0  0  0  0  0  0  0  0  0  0  0  0
  -33.1110  -26.4821   19.3759 C   0  0  0  0  0  0  0  0  0  0  0  0
  -31.5299  -17.0078   21.8138 C   0  0  0  0  0  0  0  0  0  0  0  0
  -22.6105   -8.5638   20.5015 C   0  0  0  0  0  0  0  0  0  0  0  0
  -23.2898   -8.8709   22.7997 C   0  0  0  0  0  0  0  0  0  0  0  0
  -33.9363  -26.3028   20.4852 C   0  0  0  0  0  0  0  0  0  0  0  0
  -31.8360  -18.2811   22.2938 C   0  0  0  0  0  0  0  0  0  0  0  0
  -20.1189   -7.8694   23.4023 C   0  0  0  0  0  0  0  0  0  0  0  0
  -19.3289   -7.8863   24.5517 C   0  0  0  0  0  0  0  0  0  0  0  0
  -32.3107  -24.8005   21.4441 C   0  0  0  0  0  0  0  0  0  0  0  0
  -30.3671  -17.9239   24.1785 C   0  0  0  0  0  0  0  0  0  0  0  0
  -20.6986   -6.1469   25.5188 C   0  0  0  0  0  0  0  0  0  0  0  0
  -23.9333  -10.4874   21.1234 C   0  0  0  0  0  0  0  0  0  0  0  0
  -24.0721  -13.0066   20.7465 C   0  0  0  0  0  0  0  0  0  0  0  0
  -28.5017  -31.3435   17.7460 C   0  0  0  0  0  0  0  0  0  0  0  0
  -31.8724  -25.8293   19.2973 C   0  0  0  0  0  0  0  0  0  0  0  0
  -29.0246  -30.4432   18.6939 C   0  0  0  0  0  0  0  0  0  0  0  0
  -31.4727  -24.9711   20.3316 C   0  0  0  0  0  0  0  0  0  0  0  0
  -30.0610  -16.6505   23.6984 C   0  0  0  0  0  0  0  0  0  0  0  0
  -30.6423  -16.1924   22.5161 C   0  0  0  0  0  0  0  0  0  0  0  0
  -22.6224   -8.1273   21.8263 C   0  0  0  0  0  0  0  0  0  0  0  0
  -33.5349  -25.4642   21.5209 C   0  0  0  0  0  0  0  0  0  0  0  0
  -31.2547  -18.7392   23.4761 C   0  0  0  0  0  0  0  0  0  0  0  0
  -21.1988   -6.9911   23.3111 C   0  0  0  0  0  0  0  0  0  0  0  0
  -19.6187   -7.0251   25.6100 C   0  0  0  0  0  0  0  0  0  0  0  0
  -21.4886   -6.1299   24.3694 C   0  0  0  0  0  0  0  0  0  0  0  0
  -24.6111  -11.7061   20.7608 C   0  0  0  0  0  0  0  0  0  0  0  0
  -25.1112  -13.8043   20.3336 C   0  0  0  0  0  0  0  0  0  0  0  0
  -22.7505  -13.4535   21.0770 C   0  0  0  0  0  0  0  0  0  0  0  0
  -28.8435  -26.7783   19.1276 C   0  0  0  0  0  0  0  0  0  0  0  0
  -28.2807  -23.6092   18.7239 C   0  0  0  0  0  0  0  0  0  0  0  0
  -29.3311  -20.3968   19.1972 C   0  0  0  0  0  0  0  0  0  0  0  0
  -30.8413  -14.3136   20.8498 C   0  0  0  0  0  0  0  0  0  0  0  0
  -27.1268  -31.1616   17.1534 C   0  0  0  0  0  0  0  0  0  0  0  0
  -31.0057  -26.0124   18.0816 C   0  0  0  0  0  0  0  0  0  0  0  0
  -30.1616  -24.2314   20.2862 C   0  0  0  0  0  0  0  0  0  0  0  0
  -26.5727  -29.7492   17.3223 C   0  0  0  0  0  0  0  0  0  0  0  0
  -29.3417  -13.0281   17.8874 C   0  0  0  0  0  0  0  0  0  0  0  0
  -26.7776  -29.2631   18.7536 C   0  0  0  0  0  0  0  0  0  0  0  0
  -27.9159  -12.6828   18.3233 C   0  0  0  0  0  0  0  0  0  0  0  0
  -30.3580  -12.7376   18.9904 C   0  0  0  0  0  0  0  0  0  0  0  0
  -28.6302  -13.0055   20.7259 C   0  0  0  0  0  0  0  0  0  0  0  0
  -28.2685  -29.1990   19.1064 C   0  0  1  0  0  0  0  0  0  0  0  0
  -29.5357  -25.6996   18.3433 C   0  0  1  0  0  0  0  0  0  0  0  0
  -27.5634  -13.3420   19.6712 C   0  0  2  0  0  0  0  0  0  0  0  0
  -27.7205  -15.7618   23.8361 C   0  0  0  0  0  0  0  0  0  0  0  0
  -28.6401  -18.0186   18.7926 C   0  0  0  0  0  0  0  0  0  0  0  0
  -26.2995  -23.7939   21.0370 C   0  0  0  0  0  0  0  0  0  0  0  0
  -26.3687  -21.2968   21.2041 C   0  0  0  0  0  0  0  0  0  0  0  0
  -25.5351  -22.3830   19.1189 C   0  0  0  0  0  0  0  0  0  0  0  0
  -34.9229  -24.3712   24.7362 C   0  0  0  0  0  0  0  0  0  0  0  0
  -32.5689  -25.0132   24.1787 C   0  0  0  0  0  0  0  0  0  0  0  0
  -31.6960  -19.8772   17.4953 C   0  0  0  0  0  0  0  0  0  0  0  0
  -29.1067  -15.7993   24.4716 C   0  0  0  0  0  0  0  0  0  0  0  0
  -32.6932  -22.1166   23.8470 C   0  0  0  0  0  0  0  0  0  0  0  0
  -33.6589  -23.0012   23.0438 C   0  0  0  0  0  0  0  0  0  0  0  0
  -32.4678  -20.7633   23.1807 C   0  0  0  0  0  0  0  0  0  0  0  0
  -28.0069  -22.4460   19.6463 C   0  0  1  0  0  0  0  0  0  0  0  0
  -29.4096  -19.2129   18.2503 C   0  0  2  0  0  0  0  0  0  0  0  0
  -26.5764  -22.4952   20.2536 C   0  0  0  0  0  0  0  0  0  0  0  0
  -33.8645  -24.4145   23.6293 C   0  0  0  0  0  0  0  0  0  1  0  0
  -25.8929  -11.6750   20.3866 N   0  0  0  0  0  0  0  0  0  0  0  0
  -26.1680  -12.9658   20.1332 N   0  0  0  0  0  0  0  0  0  0  0  0
  -29.3464  -24.4481   19.0795 N   0  0  0  0  0  0  0  0  0  0  0  0
  -29.9610  -13.3976   20.2360 N   0  0  0  0  0  0  0  0  0  0  0  0
  -25.2147  -15.1342   20.1260 N   0  0  0  0  0  0  0  0  0  0  0  0
  -21.8053  -12.5016   21.4829 N   0  0  0  0  0  0  0  0  0  0  0  0
  -30.3426  -14.9030   22.0110 N   0  0  0  0  0  0  0  0  0  0  0  0
  -28.8754  -28.0211   18.5244 N   0  0  0  0  0  0  0  0  0  0  0  0
  -28.2878  -21.2393   18.8761 N   0  0  0  0  0  0  0  0  0  0  0  0
  -30.8286  -18.8050   18.0475 N   0  3  0  0  0  0  0  0  0  0  0  0
  -22.4130  -14.6591   20.9985 O   0  0  0  0  0  0  0  0  0  0  0  0
  -28.3179  -26.5030   20.1999 O   0  0  0  0  0  0  0  0  0  0  0  0
  -27.5796  -23.7637   17.7208 O   0  0  0  0  0  0  0  0  0  0  0  0
  -30.1144  -20.5563   20.1307 O   0  0  0  0  0  0  0  0  0  0  0  0
  -31.9446  -14.5777   20.3650 O   0  0  0  0  0  0  0  0  0  0  0  0
  -21.9827   -6.9760   22.1697 O   0  0  0  0  0  0  0  0  0  0  0  0
  -31.5561  -19.9906   23.9482 O   0  0  0  0  0  0  0  0  0  0  0  0
  -34.3382  -25.2879   22.6050 O   0  0  0  0  0  0  0  0  0  1  0  0
  -18.8608   -7.0426   26.7143 F   0  0  0  0  0  0  0  0  0  0  0  0
  -22.5254   -5.2848   24.2881 F   0  0  0  0  0  0  0  0  0  0  0  0
  1  2  1  0  0  0  0
  1  5  2  0  0  0  0
  2  6  2  0  0  0  0
  3  9  2  0  0  0  0
  3 18  1  0  0  0  0
  4 10  1  0  0  0  0
  4 18  2  0  0  0  0
  5 20  1  0  0  0  0
  6 22  1  0  0  0  0
  7 11  2  0  0  0  0
  7 21  1  0  0  0  0
  8 12  2  0  0  0  0
  8 25  1  0  0  0  0
  9 26  1  0  0  0  0
 10 26  2  0  0  0  0
 11 27  1  0  0  0  0
 12 28  1  0  0  0  0
 13 14  2  0  0  0  0
 13 29  1  0  0  0  0
 14 30  1  0  0  0  0
 15 23  1  0  0  0  0
 15 27  2  0  0  0  0
 16 24  1  0  0  0  0
 16 28  2  0  0  0  0
 17 30  2  0  0  0  0
 17 31  1  0  0  0  0
 18 32  1  0  0  0  0
 19 32  1  0  0  0  0
 19 33  2  0  0  0  0
 19 34  1  0  0  0  0
 20 22  2  0  0  0  0
 20 39  1  0  0  0  0
 21 23  2  0  0  0  0
 21 40  1  0  0  0  0
 22 48  1  0  0  0  0
 23 41  1  0  0  0  0
 24 25  2  0  0  0  0
 24 59  1  0  0  0  0
 25 73  1  0  0  0  0
 26 82  1  0  0  0  0
 27 84  1  0  0  0  0
 28 83  1  0  0  0  0
 29 31  2  0  0  0  0
 29 82  1  0  0  0  0
 30 85  1  0  0  0  0
 31 86  1  0  0  0  0
 32 67  2  0  0  0  0
 33 68  1  0  0  0  0
 33 71  1  0  0  0  0
 34 72  1  0  0  0  0
 34 77  2  0  0  0  0
 35 49  1  0  0  0  0
 35 74  1  0  0  0  0
 35 78  2  0  0  0  0
 36 63  1  0  0  0  0
 36 69  1  0  0  0  0
 36 79  2  0  0  0  0
 37 64  1  0  0  0  0
 37 75  1  0  0  0  0
 37 80  2  0  0  0  0
 38 70  1  0  0  0  0
 38 73  1  0  0  0  0
 38 81  2  0  0  0  0
 39 42  1  0  0  0  0
 40 49  1  0  0  0  0
 41 69  1  0  0  0  0
 42 44  1  0  0  0  0
 43 45  1  0  0  0  0
 43 46  1  0  0  0  0
 44 48  1  0  0  0  0
 45 50  1  0  0  0  0
 46 70  1  0  0  0  0
 47 50  1  0  0  0  0
 47 70  1  0  0  0  0
 48 74  1  0  0  0  0
 49 69  1  0  0  0  0
 50 68  1  0  0  0  0
 51 59  1  0  0  0  0
 52 64  1  0  0  0  0
 53 65  1  0  0  0  0
 54 65  1  0  0  0  0
 55 65  1  0  0  0  0
 56 66  1  0  0  0  0
 57 66  1  0  0  0  0
 58 76  1  0  0  0  0
 60 61  1  0  0  0  0
 60 62  1  0  0  0  0
 61 66  1  0  0  0  0
 62 83  1  0  0  0  0
 63 65  1  0  0  0  0
 63 75  1  0  0  0  0
 64 76  1  0  0  0  0
 66 84  1  0  0  0  0
 67 68  1  0  0  0  0
M  CHG  1  76   1
M  ISO  4  38 100  66 101  73 100  84 101
M  END
> <Batch ID>
0121

> <Smiles>
CCc1cc(OCCC[101C:1](C)(C)[101O:1]c2ccc3c(c2)CN(C(=O)C(NC(=O)C(C)NC)C(C)(C)C)C(C(=O)NC2CCCc4ccccc42)C3)ccc1[100NH:0][100C:0](=O)N1CCCC(n2nc(-c3ccc(Oc4ccc(F)cc4F)cc3)c(C(N)=O)c2N)C1

> <Shape>
0.258

> <Color>
0.209

> <Negative vol penalty>
0.000

$$$$

  -OEChem-04052301573D

 87 95  0     1  0  0  0  0  0999 V2000
  -29.0986  -31.1733   26.4969 C   0  0  0  0  0  0  0  0  0  0  0  0
  -29.1192  -30.7255   25.1799 C   0  0  0  0  0  0  0  0  0  0  0  0
  -26.6001  -12.5693   21.6224 C   0  0  0  0  0  0  0  0  0  0  0  0
  -26.0127  -13.7756   19.6133 C   0  0  0  0  0  0  0  0  0  0  0  0
  -28.5635  -30.3647   27.4987 C   0  0  0  0  0  0  0  0  0  0  0  0
  -28.6055  -29.4682   24.8642 C   0  0  0  0  0  0  0  0  0  0  0  0
  -25.6875  -29.5449   20.7260 C   0  0  0  0  0  0  0  0  0  0  0  0
  -25.3239  -12.0076   21.6584 C   0  0  0  0  0  0  0  0  0  0  0  0
  -24.7364  -13.2139   19.6492 C   0  0  0  0  0  0  0  0  0  0  0  0
  -26.3343  -29.5828   19.4915 C   0  0  0  0  0  0  0  0  0  0  0  0
  -23.6579   -9.5081   20.1060 C   0  0  0  0  0  0  0  0  0  0  0  0
  -23.5585   -8.1406   20.3624 C   0  0  0  0  0  0  0  0  0  0  0  0
  -25.9852  -27.2089   19.2427 C   0  0  0  0  0  0  0  0  0  0  0  0
  -31.2483  -25.6971   20.7673 C   0  0  0  0  0  0  0  0  0  0  0  0
  -31.0374  -25.5526   17.9893 C   0  0  0  0  0  0  0  0  0  0  0  0
  -22.2388   -8.6058   22.3319 C   0  0  0  0  0  0  0  0  0  0  0  0
  -26.9445  -13.4534   20.5999 C   0  0  0  0  0  0  0  0  0  0  0  0
  -29.4019  -13.5165   19.9182 C   0  0  0  0  0  0  0  0  0  0  0  0
  -28.0342  -29.1008   27.1936 C   0  0  0  0  0  0  0  0  0  0  0  0
  -25.1936  -28.3348   21.2340 C   0  0  0  0  0  0  0  0  0  0  0  0
  -28.0640  -28.6413   25.8631 C   0  0  0  0  0  0  0  0  0  0  0  0
  -25.3304  -27.1588   20.4827 C   0  0  0  0  0  0  0  0  0  0  0  0
  -31.0002  -26.8521   20.0258 C   0  0  0  0  0  0  0  0  0  0  0  0
  -31.2856  -24.3976   18.7309 C   0  0  0  0  0  0  0  0  0  0  0  0
  -31.3911  -24.4698   20.1199 C   0  0  0  0  0  0  0  0  0  0  0  0
  -24.3921  -12.3299   20.6717 C   0  0  0  0  0  0  0  0  0  0  0  0
  -26.4858  -28.4141   18.7509 C   0  0  0  0  0  0  0  0  0  0  0  0
  -23.0478  -10.4245   20.9627 C   0  0  0  0  0  0  0  0  0  0  0  0
  -30.8947  -26.7799   18.6368 C   0  0  0  0  0  0  0  0  0  0  0  0
  -22.8489   -7.6895   21.4753 C   0  0  0  0  0  0  0  0  0  0  0  0
  -22.3382   -9.9733   22.0756 C   0  0  0  0  0  0  0  0  0  0  0  0
  -28.2625  -14.0344   20.5626 C   0  0  0  0  0  0  0  0  0  0  0  0
  -30.3905  -14.4337   20.1788 C   0  0  0  0  0  0  0  0  0  0  0  0
  -29.3677  -29.6610   15.2322 C   0  0  0  0  0  0  0  0  0  0  0  0
  -30.5955  -22.6707   21.2850 C   0  0  0  0  0  0  0  0  0  0  0  0
  -29.5532  -12.3138   19.1524 C   0  0  0  0  0  0  0  0  0  0  0  0
  -29.1537  -28.9767   16.3672 C   0  0  0  0  0  0  0  0  0  0  0  0
  -25.7941  -26.5715   23.8096 C   0  0  0  0  0  0  0  0  0  0  0  0
  -30.0894  -20.2314   21.4326 C   0  0  0  0  0  0  0  0  0  0  0  0
  -23.2857  -24.8266   22.7208 C   0  0  0  0  0  0  0  0  0  0  0  0
  -21.3412  -23.8844   20.0792 C   0  0  0  0  0  0  0  0  0  0  0  0
  -27.5094  -28.2429   28.3176 C   0  0  0  0  0  0  0  0  0  0  0  0
  -24.4747  -28.3155   22.5551 C   0  0  0  0  0  0  0  0  0  0  0  0
  -24.8000  -25.8376   20.9742 C   0  0  0  0  0  0  0  0  0  0  0  0
  -26.6444  -27.0784   27.8422 C   0  0  0  0  0  0  0  0  0  0  0  0
  -31.7440  -17.6732   23.4188 C   0  0  0  0  0  0  0  0  0  0  0  0
  -27.3144  -26.3564   26.6775 C   0  0  0  0  0  0  0  0  0  0  0  0
  -31.1121  -16.3980   22.8624 C   0  0  0  0  0  0  0  0  0  0  0  0
  -30.7459  -18.8278   23.4477 C   0  0  0  0  0  0  0  0  0  0  0  0
  -29.4810  -17.8369   21.5654 C   0  0  0  0  0  0  0  0  0  0  0  0
  -27.4937  -27.2937   25.4771 C   0  0  1  0  0  0  0  0  0  0  0  0
  -24.4658  -26.9378   23.2104 C   0  0  1  0  0  0  0  0  0  0  0  0
  -30.4637  -16.6563   21.4911 C   0  0  2  0  0  0  0  0  0  0  0  0
  -30.8501  -28.1573   20.7352 C   0  0  0  0  0  0  0  0  0  0  0  0
  -30.0921  -22.5203   17.5743 C   0  0  0  0  0  0  0  0  0  0  0  0
  -19.3913  -22.4177   19.4928 C   0  0  0  0  0  0  0  0  0  0  0  0
  -25.0921  -22.3718   22.8646 C   0  0  0  0  0  0  0  0  0  0  0  0
  -23.4510  -21.1652   21.4089 C   0  0  0  0  0  0  0  0  0  0  0  0
  -22.7504  -21.9916   23.6558 C   0  0  0  0  0  0  0  0  0  0  0  0
  -19.7262  -26.1944   19.1767 C   0  0  0  0  0  0  0  0  0  0  0  0
  -31.4348  -23.0950   18.0152 C   0  0  0  0  0  0  0  0  0  0  0  0
  -30.7369  -21.4190   22.0989 C   0  0  0  0  0  0  0  0  0  0  0  0
  -28.1310  -29.4372   17.3716 C   0  0  0  0  0  0  0  0  0  1  0  0
  -29.9326  -27.7282   16.6796 C   0  0  0  0  0  0  0  0  0  0  0  0
  -23.1261  -23.6517   21.7864 C   0  0  1  0  0  0  0  0  0  0  0  0
  -19.8340  -23.8103   19.9137 C   0  0  2  0  0  0  0  0  0  0  0  0
  -23.6167  -22.3195   22.4203 C   0  0  0  0  0  0  0  0  0  0  0  0
  -28.5036  -15.1909   21.1858 N   0  0  0  0  0  0  0  0  0  0  0  0
  -31.6401  -23.3206   20.8803 N   0  0  0  0  0  0  0  0  0  0  0  0
  -29.8060  -15.4072   20.9343 N   0  0  0  0  0  0  0  0  0  0  0  0
  -24.1103  -25.8691   22.2746 N   0  0  0  0  0  0  0  0  0  0  0  0
  -30.1302  -19.0237   22.1297 N   0  0  0  0  0  0  0  0  0  0  0  0
  -31.6941  -14.4944   19.8332 N   0  0  0  0  0  0  0  0  0  0  0  0
  -28.4359  -11.4850   18.9824 N   0  0  0  0  0  0  0  0  0  0  0  0
  -26.2406  -27.4571   24.7718 N   0  0  0  0  0  0  0  0  0  0  0  0
  -21.7247  -23.6401   21.3809 N   0  0  0  0  0  0  0  0  0  0  0  0
  -19.3782  -24.7812   18.8790 N   0  3  0  0  0  0  0  0  0  0  0  0
  -30.6508  -11.9757   18.6480 O   0  0  0  0  0  0  0  0  0  0  0  0
  -26.3705  -25.5595   23.4284 O   0  0  0  0  0  0  0  0  0  0  0  0
  -29.5661  -20.3741   20.3245 O   0  0  0  0  0  0  0  0  0  0  0  0
  -22.6947  -24.8229   23.8035 O   0  0  0  0  0  0  0  0  0  0  0  0
  -22.1025  -24.1304   19.1462 O   0  0  0  0  0  0  0  0  0  0  0  0
  -23.1467  -11.7817   20.7063 O   0  0  0  0  0  0  0  0  0  0  0  0
  -27.1172  -28.4482   17.5459 O   0  0  0  0  0  0  0  0  0  1  0  0
  -30.6511  -27.9051   17.8931 O   0  0  0  0  0  0  0  0  0  0  0  0
  -22.7523   -6.3762   21.7205 F   0  0  0  0  0  0  0  0  0  0  0  0
  -21.7489  -10.8488   22.9015 F   0  0  0  0  0  0  0  0  0  0  0  0
  1  2  1  0  0  0  0
  1  5  2  0  0  0  0
  2  6  2  0  0  0  0
  3  8  2  0  0  0  0
  3 17  1  0  0  0  0
  4  9  1  0  0  0  0
  4 17  2  0  0  0  0
  5 19  1  0  0  0  0
  6 21  1  0  0  0  0
  7 10  2  0  0  0  0
  7 20  1  0  0  0  0
  8 26  1  0  0  0  0
  9 26  2  0  0  0  0
 10 27  1  0  0  0  0
 11 12  2  0  0  0  0
 11 28  1  0  0  0  0
 12 30  1  0  0  0  0
 13 22  1  0  0  0  0
 13 27  2  0  0  0  0
 14 23  1  0  0  0  0
 14 25  2  0  0  0  0
 15 24  2  0  0  0  0
 15 29  1  0  0  0  0
 16 30  2  0  0  0  0
 16 31  1  0  0  0  0
 17 32  1  0  0  0  0
 18 32  1  0  0  0  0
 18 33  2  0  0  0  0
 18 36  1  0  0  0  0
 19 21  2  0  0  0  0
 19 42  1  0  0  0  0
 20 22  2  0  0  0  0
 20 43  1  0  0  0  0
 21 51  1  0  0  0  0
 22 44  1  0  0  0  0
 23 29  2  0  0  0  0
 23 54  1  0  0  0  0
 24 25  1  0  0  0  0
 24 61  1  0  0  0  0
 25 69  1  0  0  0  0
 26 83  1  0  0  0  0
 27 84  1  0  0  0  0
 28 31  2  0  0  0  0
 28 83  1  0  0  0  0
 29 85  1  0  0  0  0
 30 86  1  0  0  0  0
 31 87  1  0  0  0  0
 32 68  2  0  0  0  0
 33 70  1  0  0  0  0
 33 73  1  0  0  0  0
 34 37  2  0  0  0  0
 35 62  1  0  0  0  0
 35 69  2  0  0  0  0
 36 74  1  0  0  0  0
 36 78  2  0  0  0  0
 37 63  1  0  0  0  0
 37 64  1  0  0  0  0
 38 52  1  0  0  0  0
 38 75  1  0  0  0  0
 38 79  2  0  0  0  0
 39 62  1  0  0  0  0
 39 72  1  0  0  0  0
 39 80  2  0  0  0  0
 40 65  1  0  0  0  0
 40 71  1  0  0  0  0
 40 81  2  0  0  0  0
 41 66  1  0  0  0  0
 41 76  1  0  0  0  0
 41 82  2  0  0  0  0
 42 45  1  0  0  0  0
 43 52  1  0  0  0  0
 44 71  1  0  0  0  0
 45 47  1  0  0  0  0
 46 48  1  0  0  0  0
 46 49  1  0  0  0  0
 47 51  1  0  0  0  0
 48 53  1  0  0  0  0
 49 72  1  0  0  0  0
 50 53  1  0  0  0  0
 50 72  1  0  0  0  0
 51 75  1  0  0  0  0
 52 71  1  0  0  0  0
 53 70  1  0  0  0  0
 55 61  1  0  0  0  0
 56 66  1  0  0  0  0
 57 67  1  0  0  0  0
 58 67  1  0  0  0  0
 59 67  1  0  0  0  0
 60 77  1  0  0  0  0
 63 84  1  0  0  0  0
 64 85  1  0  0  0  0
 65 67  1  0  0  0  0
 65 76  1  0  0  0  0
 66 77  1  0  0  0  0
 68 70  1  0  0  0  0
M  CHG  1  77   1
M  ISO  4  39 100  62 100  63 101  84 101
M  END
> <Batch ID>
0121

> <Smiles>
C=C(COc1cc(CC)c(NC=[100CH:0][100C:0](=O)N2CCCC(n3nc(-c4ccc(Oc5ccc(F)cc5F)cc4)c(C(N)=O)c3N)C2)cc1C)[101CH2:1][101O:1]c1ccc2c(c1)CN(C(=O)C(NC(=O)C(C)NC)C(C)(C)C)C(C(=O)NC1CCCc3ccccc31)C2

> <Shape>
0.228

> <Color>
0.084

> <Negative vol penalty>
0.000

$$$$

  -OEChem-04052301573D

 87 96  0     1  0  0  0  0  0999 V2000
  -27.6656  -35.3948   22.8202 C   0  0  0  0  0  0  0  0  0  0  0  0
  -28.4126  -34.3139   22.3628 C   0  0  0  0  0  0  0  0  0  0  0  0
  -22.4139  -10.9512   21.0320 C   0  0  0  0  0  0  0  0  0  0  0  0
  -21.4739  -12.2559   22.8351 C   0  0  0  0  0  0  0  0  0  0  0  0
  -28.2435  -19.9839   17.5573 C   0  0  0  0  0  0  0  0  0  0  0  0
  -26.4546  -35.1763   23.4756 C   0  0  0  0  0  0  0  0  0  0  0  0
  -27.9495  -33.0137   22.5617 C   0  0  0  0  0  0  0  0  0  0  0  0
  -28.6626  -28.2356   18.7977 C   0  0  0  0  0  0  0  0  0  0  0  0
  -27.2645  -19.2211   16.9207 C   0  0  0  0  0  0  0  0  0  0  0  0
  -21.7276   -9.8260   21.4884 C   0  0  0  0  0  0  0  0  0  0  0  0
  -20.7876  -11.1306   23.2915 C   0  0  0  0  0  0  0  0  0  0  0  0
  -29.5676  -27.1752   18.7893 C   0  0  0  0  0  0  0  0  0  0  0  0
  -22.0739   -7.5203   23.9355 C   0  0  0  0  0  0  0  0  0  0  0  0
  -22.7760   -6.3170   24.0026 C   0  0  0  0  0  0  0  0  0  0  0  0
  -27.9547  -25.7974   19.9379 C   0  0  0  0  0  0  0  0  0  0  0  0
  -26.0030  -21.2283   16.4553 C   0  0  0  0  0  0  0  0  0  0  0  0
  -21.2100   -5.3173   22.4581 C   0  0  0  0  0  0  0  0  0  0  0  0
  -22.2871  -12.1662   21.7054 C   0  0  0  0  0  0  0  0  0  0  0  0
  -28.1023  -21.3690   17.6429 C   0  0  0  0  0  0  0  0  0  0  0  0
  -24.3897  -13.4786   21.1018 C   0  0  0  0  0  0  0  0  0  0  0  0
  -25.9717  -33.8732   23.6740 C   0  0  0  0  0  0  0  0  0  0  0  0
  -27.3987  -28.0881   19.3870 C   0  0  0  0  0  0  0  0  0  0  0  0
  -26.7315  -32.7775   23.2215 C   0  0  0  0  0  0  0  0  0  0  0  0
  -27.0345  -26.8568   19.9503 C   0  0  0  0  0  0  0  0  0  0  0  0
  -26.1443  -19.8433   16.3697 C   0  0  0  0  0  0  0  0  0  0  0  0
  -26.9820  -21.9912   17.0919 C   0  0  0  0  0  0  0  0  0  0  0  0
  -20.9144   -9.9157   22.6181 C   0  0  0  0  0  0  0  0  0  0  0  0
  -29.2148  -25.9567   19.3620 C   0  0  0  0  0  0  0  0  0  0  0  0
  -20.9398   -7.6222   23.1298 C   0  0  0  0  0  0  0  0  0  0  0  0
  -22.3441   -5.2154   23.2639 C   0  0  0  0  0  0  0  0  0  0  0  0
  -20.5079   -6.5207   22.3910 C   0  0  0  0  0  0  0  0  0  0  0  0
  -22.9963  -13.3289   21.2347 C   0  0  0  0  0  0  0  0  0  0  0  0
  -24.5535  -14.7541   20.6194 C   0  0  0  0  0  0  0  0  0  0  0  0
  -29.1487  -22.1483   18.3191 C   0  0  0  0  0  0  0  0  0  0  0  0
  -25.4420  -12.5479   21.3886 C   0  0  0  0  0  0  0  0  0  0  0  0
  -25.8808  -29.4684   21.8149 C   0  0  0  0  0  0  0  0  0  0  0  0
  -23.3889  -27.6746   20.7684 C   0  0  0  0  0  0  0  0  0  0  0  0
  -22.3168  -24.9177   19.0664 C   0  0  0  0  0  0  0  0  0  0  0  0
  -23.0926  -18.8669   17.1414 C   0  0  0  0  0  0  0  0  0  0  0  0
  -24.6801  -33.6848   24.4297 C   0  0  0  0  0  0  0  0  0  0  0  0
  -26.4240  -29.2334   19.3642 C   0  0  0  0  0  0  0  0  0  0  0  0
  -25.6824  -26.6406   20.5776 C   0  0  0  0  0  0  0  0  0  0  0  0
  -24.0778  -32.2914   24.2687 C   0  0  0  0  0  0  0  0  0  0  0  0
  -21.2448  -18.5536   20.1686 C   0  0  0  0  0  0  0  0  0  0  0  0
  -31.4571  -23.1484   15.6141 C   0  0  0  0  0  0  0  0  0  0  0  0
  -25.1493  -31.2219   24.4554 C   0  0  0  0  0  0  0  0  0  0  0  0
  -21.6458  -17.1768   20.7011 C   0  0  0  0  0  0  0  0  0  0  0  0
  -32.3617  -23.2652   16.8357 C   0  0  0  0  0  0  0  0  0  0  0  0
  -30.2742  -22.3471   16.1299 C   0  0  0  0  0  0  0  0  0  0  0  0
  -21.1473  -18.5628   18.6446 C   0  0  0  0  0  0  0  0  0  0  0  0
  -22.7517  -16.6996   18.4767 C   0  0  0  0  0  0  0  0  0  0  0  0
  -26.2505  -31.3534   23.3963 C   0  0  1  0  0  0  0  0  0  0  0  0
  -25.3556  -29.1304   20.4483 C   0  0  1  0  0  0  0  0  0  0  0  0
  -22.9175  -16.6551   20.0054 C   0  0  2  0  0  0  0  0  0  0  0  0
  -31.3792  -23.3971   18.0034 C   0  0  1  0  0  0  0  0  0  0  0  0
  -26.8059  -23.4727   17.1687 C   0  0  0  0  0  0  0  0  0  0  0  0
  -20.2243  -23.6960   18.4136 C   0  0  0  0  0  0  0  0  0  0  0  0
  -23.1379  -26.5911   23.6097 C   0  0  0  0  0  0  0  0  0  0  0  0
  -21.7199  -24.7376   22.7031 C   0  0  0  0  0  0  0  0  0  0  0  0
  -20.9600  -27.1042   22.4926 C   0  0  0  0  0  0  0  0  0  0  0  0
  -22.8739  -25.2681   16.1810 C   0  0  0  0  0  0  0  0  0  0  0  0
  -25.0980  -19.0276   15.6882 C   0  0  0  0  0  0  0  0  0  0  0  0
  -31.0189  -24.8587   18.2686 C   0  0  0  0  0  0  0  0  0  1  0  0
  -22.8751  -26.2853   21.0595 C   0  0  1  0  0  0  0  0  0  0  0  0
  -21.2478  -24.7431   18.0028 C   0  0  2  0  0  0  0  0  0  0  0  0
  -22.1995  -26.1839   22.4562 C   0  0  0  0  0  0  0  0  0  0  0  0
  -22.3227  -14.4220   20.8667 N   0  0  0  0  0  0  0  0  0  0  0  0
  -23.2971  -15.2708   20.4978 N   0  0  0  0  0  0  0  0  0  0  0  0
  -30.2098  -22.6233   17.5591 N   0  0  0  0  0  0  0  0  0  0  0  0
  -24.7666  -27.7927   20.5361 N   0  0  0  0  0  0  0  0  0  0  0  0
  -22.3857  -18.0582   18.0465 N   0  0  0  0  0  0  0  0  0  0  0  0
  -25.6482  -15.4730   20.2917 N   0  0  0  0  0  0  0  0  0  0  0  0
  -25.9964  -12.5422   22.6758 N   0  0  0  0  0  0  0  0  0  0  0  0
  -25.8026  -30.8112   22.1315 N   0  0  0  0  0  0  0  0  0  0  0  0
  -22.0013  -25.9316   19.9460 N   0  0  0  0  0  0  0  0  0  0  0  0
  -24.2590  -18.3151   16.6259 N   0  0  0  0  0  0  0  0  0  0  0  0
  -21.8639  -24.3180   16.7141 N   0  3  0  0  0  0  0  0  0  0  0  0
  -29.0103  -22.3311   19.5278 O   0  0  0  0  0  0  0  0  0  0  0  0
  -25.8889  -11.7565   20.5241 O   0  0  0  0  0  0  0  0  0  0  0  0
  -26.3230  -28.5767   22.5298 O   0  0  0  0  0  0  0  0  0  0  0  0
  -22.5961  -28.6192   20.7409 O   0  0  0  0  0  0  0  0  0  0  0  0
  -23.3285  -24.2216   19.1145 O   0  0  0  0  0  0  0  0  0  0  0  0
  -22.7152  -19.9990   16.8207 O   0  0  0  0  0  0  0  0  0  0  0  0
  -20.2444   -8.8179   23.0636 O   0  0  0  0  0  0  0  0  0  0  0  0
  -30.0965  -24.9202   19.3557 O   0  0  0  0  0  0  0  0  0  1  0  0
  -23.0193   -4.0603   23.3272 F   0  0  0  0  0  0  0  0  0  0  0  0
  -19.4199   -6.6129   21.6142 F   0  0  0  0  0  0  0  0  0  0  0  0
  1  2  1  0  0  0  0
  1  6  2  0  0  0  0
  2  7  2  0  0  0  0
  3 10  2  0  0  0  0
  3 18  1  0  0  0  0
  4 11  1  0  0  0  0
  4 18  2  0  0  0  0
  5  9  2  0  0  0  0
  5 19  1  0  0  0  0
  6 21  1  0  0  0  0
  7 23  1  0  0  0  0
  8 12  2  0  0  0  0
  8 22  1  0  0  0  0
  9 25  1  0  0  0  0
 10 27  1  0  0  0  0
 11 27  2  0  0  0  0
 12 28  1  0  0  0  0
 13 14  2  0  0  0  0
 13 29  1  0  0  0  0
 14 30  1  0  0  0  0
 15 24  1  0  0  0  0
 15 28  2  0  0  0  0
 16 25  2  0  0  0  0
 16 26  1  0  0  0  0
 17 30  2  0  0  0  0
 17 31  1  0  0  0  0
 18 32  1  0  0  0  0
 19 26  2  0  0  0  0
 19 34  1  0  0  0  0
 20 32  1  0  0  0  0
 20 33  2  0  0  0  0
 20 35  1  0  0  0  0
 21 23  2  0  0  0  0
 21 40  1  0  0  0  0
 22 24  2  0  0  0  0
 22 41  1  0  0  0  0
 23 52  1  0  0  0  0
 24 42  1  0  0  0  0
 25 62  1  0  0  0  0
 26 56  1  0  0  0  0
 27 84  1  0  0  0  0
 28 85  1  0  0  0  0
 29 31  2  0  0  0  0
 29 84  1  0  0  0  0
 30 86  1  0  0  0  0
 31 87  1  0  0  0  0
 32 67  2  0  0  0  0
 33 68  1  0  0  0  0
 33 72  1  0  0  0  0
 34 69  1  0  0  0  0
 34 78  2  0  0  0  0
 35 73  1  0  0  0  0
 35 79  2  0  0  0  0
 36 53  1  0  0  0  0
 36 74  1  0  0  0  0
 36 80  2  0  0  0  0
 37 64  1  0  0  0  0
 37 70  1  0  0  0  0
 37 81  2  0  0  0  0
 38 65  1  0  0  0  0
 38 75  1  0  0  0  0
 38 82  2  0  0  0  0
 39 71  1  0  0  0  0
 39 76  1  0  0  0  0
 39 83  2  0  0  0  0
 40 43  1  0  0  0  0
 41 53  1  0  0  0  0
 42 70  1  0  0  0  0
 43 46  1  0  0  0  0
 44 47  1  0  0  0  0
 44 50  1  0  0  0  0
 45 48  1  0  0  0  0
 45 49  1  0  0  0  0
 46 52  1  0  0  0  0
 47 54  1  0  0  0  0
 48 55  1  0  0  0  0
 49 69  1  0  0  0  0
 50 71  1  0  0  0  0
 51 54  1  0  0  0  0
 51 71  1  0  0  0  0
 52 74  1  0  0  0  0
 53 70  1  0  0  0  0
 54 68  1  0  0  0  0
 55 63  1  0  0  0  0
 55 69  1  0  0  0  0
 57 65  1  0  0  0  0
 58 66  1  0  0  0  0
 59 66  1  0  0  0  0
 60 66  1  0  0  0  0
 61 77  1  0  0  0  0
 62 76  1  0  0  0  0
 63 85  1  0  0  0  0
 64 66  1  0  0  0  0
 64 75  1  0  0  0  0
 65 77  1  0  0  0  0
 67 68  1  0  0  0  0
M  CHG  1  77   1
M  ISO  4  39 100  63 101  76 100  85 101
M  END
> <Batch ID>
0121

> <Smiles>
CNC(C)C(=O)NC(C(=O)N1Cc2cc([101O:1][101CH2:1]C3CCCN3C(=O)c3ccc(C[100NH:0][100C:0](=O)N4CCCC(n5nc(-c6ccc(Oc7ccc(F)cc7F)cc6)c(C(N)=O)c5N)C4)cc3C)ccc2CC1C(=O)NC1CCCc2ccccc21)C(C)(C)C

> <Shape>
0.239

> <Color>
0.114

> <Negative vol penalty>
0.000

$$$$

  -OEChem-04052301573D

 87 95  0     1  0  0  0  0  0999 V2000
  -22.9996   -9.3019   20.3579 C   0  0  0  0  0  0  0  0  0  0  0  0
  -22.4505  -10.5780   20.4324 C   0  0  0  0  0  0  0  0  0  0  0  0
  -28.8734  -28.6567   18.9252 C   0  0  0  0  0  0  0  0  0  0  0  0
  -29.0804  -27.3421   20.9417 C   0  0  0  0  0  0  0  0  0  0  0  0
  -24.3003   -9.0767   20.8066 C   0  0  0  0  0  0  0  0  0  0  0  0
  -23.2015  -11.6295   20.9566 C   0  0  0  0  0  0  0  0  0  0  0  0
  -23.0700  -17.4899   19.1835 C   0  0  0  0  0  0  0  0  0  0  0  0
  -30.2498  -28.5600   18.7209 C   0  0  0  0  0  0  0  0  0  0  0  0
  -30.4568  -27.2453   20.7373 C   0  0  0  0  0  0  0  0  0  0  0  0
  -22.4184  -18.6106   19.6964 C   0  0  0  0  0  0  0  0  0  0  0  0
  -32.4376  -26.2686   17.5393 C   0  0  0  0  0  0  0  0  0  0  0  0
  -32.8821  -25.9665   16.2522 C   0  0  0  0  0  0  0  0  0  0  0  0
  -19.6018  -28.9894   22.7555 C   0  0  0  0  0  0  0  0  0  0  0  0
  -24.4168  -19.2110   20.9069 C   0  0  0  0  0  0  0  0  0  0  0  0
  -18.8688  -27.2096   21.2953 C   0  0  0  0  0  0  0  0  0  0  0  0
  -34.1039  -28.0497   16.1852 C   0  0  0  0  0  0  0  0  0  0  0  0
  -28.2887  -28.0478   20.0357 C   0  0  0  0  0  0  0  0  0  0  0  0
  -20.5313  -28.1283   23.3386 C   0  0  0  0  0  0  0  0  0  0  0  0
  -25.8734  -27.2689   19.7769 C   0  0  0  0  0  0  0  0  0  0  0  0
  -25.0710  -10.1279   21.3277 C   0  0  0  0  0  0  0  0  0  0  0  0
  -24.3987  -17.2149   19.5377 C   0  0  0  0  0  0  0  0  0  0  0  0
  -24.5133  -11.4178   21.4140 C   0  0  0  0  0  0  0  0  0  0  0  0
  -25.0838  -18.0875   20.3951 C   0  0  0  0  0  0  0  0  0  0  0  0
  -20.6296  -26.8078   22.9000 C   0  0  0  0  0  0  0  0  0  0  0  0
  -31.0415  -27.8543   19.6268 C   0  0  0  0  0  0  0  0  0  0  0  0
  -23.0908  -19.4698   20.5605 C   0  0  0  0  0  0  0  0  0  0  0  0
  -32.8261  -27.4613   18.1494 C   0  0  0  0  0  0  0  0  0  0  0  0
  -19.7984  -26.3484   21.8784 C   0  0  0  0  0  0  0  0  0  0  0  0
  -33.7153  -26.8570   15.5751 C   0  0  0  0  0  0  0  0  0  0  0  0
  -18.7705  -28.5301   21.7339 C   0  0  0  0  0  0  0  0  0  0  0  0
  -33.6593  -28.3518   17.4724 C   0  0  0  0  0  0  0  0  0  0  0  0
  -26.8670  -28.1479   20.2477 C   0  0  0  0  0  0  0  0  0  0  0  0
  -24.6959  -27.7994   20.2446 C   0  0  0  0  0  0  0  0  0  0  0  0
  -21.3859  -28.6362   24.4037 C   0  0  0  0  0  0  0  0  0  0  0  0
  -26.0030  -26.0791   18.9874 C   0  0  0  0  0  0  0  0  0  0  0  0
  -21.7877  -30.0607   24.4541 C   0  0  0  0  0  0  0  0  0  0  0  0
  -25.8724  -14.8335   21.0413 C   0  0  0  0  0  0  0  0  0  0  0  0
  -21.3341  -22.6437   20.5283 C   0  0  0  0  0  0  0  0  0  0  0  0
  -28.5426  -16.4677   20.1917 C   0  0  0  0  0  0  0  0  0  0  0  0
  -29.9622  -19.4468   19.3220 C   0  0  0  0  0  0  0  0  0  0  0  0
  -26.4556   -9.8262   21.8440 C   0  0  0  0  0  0  0  0  0  0  0  0
  -25.0959  -16.0163   18.9547 C   0  0  0  0  0  0  0  0  0  0  0  0
  -26.5173  -17.8480   20.7903 C   0  0  0  0  0  0  0  0  0  0  0  0
  -27.3173  -11.0709   22.0398 C   0  0  0  0  0  0  0  0  0  0  0  0
  -23.7022  -32.2682   22.3760 C   0  0  0  0  0  0  0  0  0  0  0  0
  -26.5303  -12.1560   22.7677 C   0  0  0  0  0  0  0  0  0  0  0  0
  -24.6412  -31.3228   21.6276 C   0  0  0  0  0  0  0  0  0  0  0  0
  -23.4277  -31.7761   23.7933 C   0  0  0  0  0  0  0  0  0  0  0  0
  -23.8329  -29.4285   23.1054 C   0  0  0  0  0  0  0  0  0  0  0  0
  -25.3051  -12.5891   21.9534 C   0  0  1  0  0  0  0  0  0  0  0  0
  -26.2862  -15.5532   19.7889 C   0  0  1  0  0  0  0  0  0  0  0  0
  -24.1116  -29.8781   21.6605 C   0  0  2  0  0  0  0  0  0  0  0  0
  -20.9708  -24.9063   24.4983 C   0  0  0  0  0  0  0  0  0  0  0  0
  -32.1712  -20.4761   18.7238 C   0  0  0  0  0  0  0  0  0  0  0  0
  -29.3654  -16.4029   23.1291 C   0  0  0  0  0  0  0  0  0  0  0  0
  -31.0246  -18.2107   22.6321 C   0  0  0  0  0  0  0  0  0  0  0  0
  -31.2298  -15.9902   21.5141 C   0  0  0  0  0  0  0  0  0  0  0  0
  -28.9939  -20.2499   16.6431 C   0  0  0  0  0  0  0  0  0  0  0  0
  -21.6232  -25.8772   23.5201 C   0  0  0  0  0  0  0  0  0  0  0  0
  -20.2721  -23.3846   19.7293 C   0  0  0  0  0  0  0  0  0  0  0  0
  -21.4429  -21.1567   20.2526 C   0  0  0  0  0  0  0  0  0  1  0  0
  -20.2036  -24.8681   20.0617 C   0  0  0  0  0  0  0  0  0  0  0  0
  -29.3731  -17.5600   20.8211 C   0  0  1  0  0  0  0  0  0  0  0  0
  -30.9052  -19.8218   18.1930 C   0  0  2  0  0  0  0  0  0  0  0  0
  -30.2206  -17.0447   22.0184 C   0  0  0  0  0  0  0  0  0  0  0  0
  -26.3646  -29.1601   20.9598 N   0  0  0  0  0  0  0  0  0  0  0  0
  -21.8455  -27.8882   25.3683 N   0  0  0  0  0  0  0  0  0  0  0  0
  -25.0424  -28.9205   20.9398 N   0  0  0  0  0  0  0  0  0  0  0  0
  -22.9613  -30.3910   23.7909 N   0  0  0  0  0  0  0  0  0  0  0  0
  -27.1537  -16.6594   20.1990 N   0  0  0  0  0  0  0  0  0  0  0  0
  -23.4084  -27.4116   20.1248 N   0  0  0  0  0  0  0  0  0  0  0  0
  -27.2859  -25.6761   18.5921 N   0  0  0  0  0  0  0  0  0  0  0  0
  -25.7001  -13.4723   20.8771 N   0  0  0  0  0  0  0  0  0  0  0  0
  -30.1591  -18.1483   19.7419 N   0  0  0  0  0  0  0  0  0  0  0  0
  -30.2411  -20.7731   17.2577 N   0  3  0  0  0  0  0  0  0  0  0  0
  -25.0093  -25.4027   18.6288 O   0  0  0  0  0  0  0  0  0  0  0  0
  -21.0375  -30.7985   25.0794 O   0  0  0  0  0  0  0  0  0  0  0  0
  -25.7220  -15.4660   22.0800 O   0  0  0  0  0  0  0  0  0  0  0  0
  -22.0628  -23.2056   21.3443 O   0  0  0  0  0  0  0  0  0  0  0  0
  -29.1058  -15.4841   19.7049 O   0  0  0  0  0  0  0  0  0  0  0  0
  -29.1362  -20.2289   19.7874 O   0  0  0  0  0  0  0  0  0  0  0  0
  -32.3846  -27.7594   19.4276 O   0  0  0  0  0  0  0  0  0  0  0  0
  -22.4570  -20.5641   21.0631 O   0  0  0  0  0  0  0  0  0  1  0  0
  -19.8799  -25.0549   21.4340 O   0  0  0  0  0  0  0  0  0  0  0  0
  -34.1434  -26.5661   14.3397 F   0  0  0  0  0  0  0  0  0  0  0  0
  -17.8780  -29.3571   21.1738 F   0  0  0  0  0  0  0  0  0  0  0  0
  -34.0369  -29.4987   18.0538 F   0  0  0  0  0  0  0  0  0  0  0  0
  1  2  1  0  0  0  0
  1  5  2  0  0  0  0
  2  6  2  0  0  0  0
  3  8  2  0  0  0  0
  3 17  1  0  0  0  0
  4  9  1  0  0  0  0
  4 17  2  0  0  0  0
  5 20  1  0  0  0  0
  6 22  1  0  0  0  0
  7 10  2  0  0  0  0
  7 21  1  0  0  0  0
  8 25  1  0  0  0  0
  9 25  2  0  0  0  0
 10 26  1  0  0  0  0
 11 12  2  0  0  0  0
 11 27  1  0  0  0  0
 12 29  1  0  0  0  0
 13 18  1  0  0  0  0
 13 30  2  0  0  0  0
 14 23  1  0  0  0  0
 14 26  2  0  0  0  0
 15 28  2  0  0  0  0
 15 30  1  0  0  0  0
 16 29  2  0  0  0  0
 16 31  1  0  0  0  0
 17 32  1  0  0  0  0
 18 24  2  0  0  0  0
 18 34  1  0  0  0  0
 19 32  1  0  0  0  0
 19 33  2  0  0  0  0
 19 35  1  0  0  0  0
 20 22  2  0  0  0  0
 20 41  1  0  0  0  0
 21 23  2  0  0  0  0
 21 42  1  0  0  0  0
 22 50  1  0  0  0  0
 23 43  1  0  0  0  0
 24 28  1  0  0  0  0
 24 59  1  0  0  0  0
 25 82  1  0  0  0  0
 26 83  1  0  0  0  0
 27 31  2  0  0  0  0
 27 82  1  0  0  0  0
 28 84  1  0  0  0  0
 29 85  1  0  0  0  0
 30 86  1  0  0  0  0
 31 87  1  0  0  0  0
 32 66  2  0  0  0  0
 33 68  1  0  0  0  0
 33 71  1  0  0  0  0
 34 36  1  0  0  0  0
 34 67  2  0  0  0  0
 35 72  1  0  0  0  0
 35 76  2  0  0  0  0
 36 69  1  0  0  0  0
 36 77  2  0  0  0  0
 37 51  1  0  0  0  0
 37 73  1  0  0  0  0
 37 78  2  0  0  0  0
 38 60  1  0  0  0  0
 38 61  1  0  0  0  0
 38 79  2  0  0  0  0
 39 63  1  0  0  0  0
 39 70  1  0  0  0  0
 39 80  2  0  0  0  0
 40 64  1  0  0  0  0
 40 74  1  0  0  0  0
 40 81  2  0  0  0  0
 41 44  1  0  0  0  0
 42 51  1  0  0  0  0
 43 70  1  0  0  0  0
 44 46  1  0  0  0  0
 45 47  1  0  0  0  0
 45 48  1  0  0  0  0
 46 50  1  0  0  0  0
 47 52  1  0  0  0  0
 48 69  1  0  0  0  0
 49 52  1  0  0  0  0
 49 69  1  0  0  0  0
 50 73  1  0  0  0  0
 51 70  1  0  0  0  0
 52 68  1  0  0  0  0
 53 59  1  0  0  0  0
 54 64  1  0  0  0  0
 55 65  1  0  0  0  0
 56 65  1  0  0  0  0
 57 65  1  0  0  0  0
 58 75  1  0  0  0  0
 60 62  1  0  0  0  0
 61 83  1  0  0  0  0
 62 84  1  0  0  0  0
 63 65  1  0  0  0  0
 63 74  1  0  0  0  0
 64 75  1  0  0  0  0
 66 68  1  0  0  0  0
M  CHG  1  75   1
M  ISO  4  34 100  36 100  61 101  83 101
M  END
> <Batch ID>
0121

> <Smiles>
CCc1c(OCCC(=O)[101CH2:1][101O:1]c2ccc3c(c2)CN(C(=O)C(NC(=O)C(C)NC)C(C)(C)C)C(C(=O)NC2CCCc4ccccc42)C3)cc(F)cc1[100C:0](=N)[100C:0](=O)N1CCCC(n2nc(-c3ccc(Oc4ccc(F)cc4F)cc3)c(C(N)=O)c2N)C1

> <Shape>
0.257

> <Color>
0.052

> <Negative vol penalty>
0.000

$$$$

  -OEChem-04052301573D

 86 94  0     1  0  0  0  0  0999 V2000
  -21.9111  -12.1473   19.2593 C   0  0  0  0  0  0  0  0  0  0  0  0
  -21.7970  -13.4816   19.6359 C   0  0  0  0  0  0  0  0  0  0  0  0
  -29.5426  -27.8893   24.3711 C   0  0  0  0  0  0  0  0  0  0  0  0
  -27.9673  -26.0612   24.4879 C   0  0  0  0  0  0  0  0  0  0  0  0
  -23.0970  -11.4550   19.5005 C   0  0  0  0  0  0  0  0  0  0  0  0
  -22.8685  -14.1242   20.2551 C   0  0  0  0  0  0  0  0  0  0  0  0
  -23.7189  -18.7443   18.3638 C   0  0  0  0  0  0  0  0  0  0  0  0
  -18.0246  -28.7371   23.2402 C   0  0  0  0  0  0  0  0  0  0  0  0
  -19.2248  -29.2745   22.7750 C   0  0  0  0  0  0  0  0  0  0  0  0
  -30.1776  -27.4155   25.5191 C   0  0  0  0  0  0  0  0  0  0  0  0
  -28.6024  -25.5874   25.6359 C   0  0  0  0  0  0  0  0  0  0  0  0
  -22.8717  -19.7694   18.7823 C   0  0  0  0  0  0  0  0  0  0  0  0
  -29.6614  -27.4836   28.8587 C   0  0  0  0  0  0  0  0  0  0  0  0
  -29.9951  -28.4126   29.8441 C   0  0  0  0  0  0  0  0  0  0  0  0
  -24.5489  -20.5069   20.3514 C   0  0  0  0  0  0  0  0  0  0  0  0
  -32.3261  -27.8210   29.6125 C   0  0  0  0  0  0  0  0  0  0  0  0
  -28.4374  -27.2122   23.8555 C   0  0  0  0  0  0  0  0  0  0  0  0
  -18.9186  -26.5086   22.9723 C   0  0  0  0  0  0  0  0  0  0  0  0
  -28.0734  -27.3637   21.3352 C   0  0  0  0  0  0  0  0  0  0  0  0
  -24.1870  -12.0922   20.1142 C   0  0  0  0  0  0  0  0  0  0  0  0
  -24.9853  -18.5858   18.9447 C   0  0  0  0  0  0  0  0  0  0  0  0
  -24.0697  -13.4394   20.5060 C   0  0  0  0  0  0  0  0  0  0  0  0
  -25.4113  -19.4805   19.9367 C   0  0  0  0  0  0  0  0  0  0  0  0
  -17.8715  -27.3542   23.3389 C   0  0  0  0  0  0  0  0  0  0  0  0
  -20.1187  -27.0460   22.5070 C   0  0  0  0  0  0  0  0  0  0  0  0
  -20.2718  -28.4290   22.4084 C   0  0  0  0  0  0  0  0  0  0  0  0
  -29.7076  -26.2645   26.1514 C   0  0  0  0  0  0  0  0  0  0  0  0
  -23.2855  -20.6492   19.7782 C   0  0  0  0  0  0  0  0  0  0  0  0
  -30.6600  -26.7232   28.2502 C   0  0  0  0  0  0  0  0  0  0  0  0
  -31.3274  -28.5814   30.2210 C   0  0  0  0  0  0  0  0  0  0  0  0
  -31.9923  -26.8919   28.6271 C   0  0  0  0  0  0  0  0  0  0  0  0
  -27.7806  -27.7015   22.6701 C   0  0  0  0  0  0  0  0  0  0  0  0
  -27.1747  -28.0895   20.5923 C   0  0  0  0  0  0  0  0  0  0  0  0
  -18.7531  -25.0497   23.0778 C   0  0  0  0  0  0  0  0  0  0  0  0
  -18.2644  -24.2563   22.1119 C   0  0  0  0  0  0  0  0  0  0  0  0
  -29.0687  -26.4733   20.8134 C   0  0  0  0  0  0  0  0  0  0  0  0
  -26.4134  -16.2937   20.6211 C   0  0  0  0  0  0  0  0  0  0  0  0
  -29.0033  -18.2229   20.3164 C   0  0  0  0  0  0  0  0  0  0  0  0
  -30.2306  -21.3658   19.8043 C   0  0  0  0  0  0  0  0  0  0  0  0
  -21.7754  -30.3528   21.7881 C   0  0  0  0  0  0  0  0  0  0  0  0
  -25.4320  -11.2893   20.3971 C   0  0  0  0  0  0  0  0  0  0  0  0
  -25.8978  -17.4913   18.4633 C   0  0  0  0  0  0  0  0  0  0  0  0
  -26.7693  -19.3658   20.5779 C   0  0  0  0  0  0  0  0  0  0  0  0
  -26.6514  -12.1494   20.7190 C   0  0  0  0  0  0  0  0  0  0  0  0
  -24.6465  -32.1553   20.6998 C   0  0  0  0  0  0  0  0  0  0  0  0
  -26.2873  -13.2364   21.7253 C   0  0  0  0  0  0  0  0  0  0  0  0
  -25.8020  -31.1847   20.9544 C   0  0  0  0  0  0  0  0  0  0  0  0
  -23.5781  -32.0631   21.7878 C   0  0  0  0  0  0  0  0  0  0  0  0
  -24.2211  -29.7399   22.2962 C   0  0  0  0  0  0  0  0  0  0  0  0
  -25.2186  -14.1782   21.1575 C   0  0  1  0  0  0  0  0  0  0  0  0
  -26.9639  -17.1094   19.4856 C   0  0  1  0  0  0  0  0  0  0  0  0
  -25.2910  -29.7502   21.1921 C   0  0  2  0  0  0  0  0  0  0  0  0
  -16.5693  -26.8182   23.8423 C   0  0  0  0  0  0  0  0  0  0  0  0
  -21.3776  -26.0189   20.5973 C   0  0  0  0  0  0  0  0  0  0  0  0
  -32.3890  -22.6362   19.6458 C   0  0  0  0  0  0  0  0  0  0  0  0
  -29.2950  -18.1010   23.3512 C   0  0  0  0  0  0  0  0  0  0  0  0
  -30.8149  -20.0858   23.2151 C   0  0  0  0  0  0  0  0  0  0  0  0
  -31.4491  -17.9520   22.0894 C   0  0  0  0  0  0  0  0  0  0  0  0
  -29.6726  -22.1949   17.0186 C   0  0  0  0  0  0  0  0  0  0  0  0
  -21.2505  -26.1471   22.1103 C   0  0  0  0  0  0  0  0  0  0  0  0
  -18.1047  -22.7698   22.2651 C   0  0  0  0  0  0  0  0  0  0  0  0
  -18.8445  -21.9766   21.1832 C   0  0  0  0  0  0  0  0  0  0  0  0
  -20.3598  -22.1804   21.2218 C   0  0  0  0  0  0  0  0  0  0  0  0
  -21.0561  -21.4084   20.1093 C   0  0  0  0  0  0  0  0  0  1  0  0
  -29.5887  -19.3611   21.1170 C   0  0  1  0  0  0  0  0  0  0  0  0
  -31.3136  -21.8854   18.8760 C   0  0  2  0  0  0  0  0  0  0  0  0
  -30.2605  -18.8762   22.4327 C   0  0  0  0  0  0  0  0  0  0  0  0
  -26.7747  -28.5742   22.7723 N   0  0  0  0  0  0  0  0  0  0  0  0
  -26.4276  -28.7909   21.4922 N   0  0  0  0  0  0  0  0  0  0  0  0
  -27.6227  -18.2754   20.0777 N   0  0  0  0  0  0  0  0  0  0  0  0
  -23.1387  -30.6760   21.9543 N   0  0  0  0  0  0  0  0  0  0  0  0
  -26.9586  -28.1899   19.2635 N   0  0  0  0  0  0  0  0  0  0  0  0
  -29.9092  -25.8078   21.7163 N   0  0  0  0  0  0  0  0  0  0  0  0
  -21.4815  -28.9979   21.9386 N   0  0  0  0  0  0  0  0  0  0  0  0
  -25.8123  -15.1137   20.2265 N   0  0  0  0  0  0  0  0  0  0  0  0
  -30.4865  -20.0748   20.2154 N   0  0  0  0  0  0  0  0  0  0  0  0
  -30.7286  -22.8095   17.8637 N   0  3  0  0  0  0  0  0  0  0  0  0
  -29.2195  -26.2863   19.5822 O   0  0  0  0  0  0  0  0  0  0  0  0
  -26.5269  -16.7039   21.7703 O   0  0  0  0  0  0  0  0  0  0  0  0
  -29.7449  -17.3241   19.9116 O   0  0  0  0  0  0  0  0  0  0  0  0
  -29.2571  -22.0393   20.1348 O   0  0  0  0  0  0  0  0  0  0  0  0
  -20.9351  -31.2103   21.5044 O   0  0  0  0  0  0  0  0  0  0  0  0
  -30.3271  -25.8018   27.2715 O   0  0  0  0  0  0  0  0  0  0  0  0
  -22.4603  -21.6502   20.1890 O   0  0  0  0  0  0  0  0  0  1  0  0
  -31.6479  -29.4747   31.1662 F   0  0  0  0  0  0  0  0  0  0  0  0
  -32.9562  -26.1651   28.0452 F   0  0  0  0  0  0  0  0  0  0  0  0
  1  2  1  0  0  0  0
  1  5  2  0  0  0  0
  2  6  2  0  0  0  0
  3 10  2  0  0  0  0
  3 17  1  0  0  0  0
  4 11  1  0  0  0  0
  4 17  2  0  0  0  0
  5 20  1  0  0  0  0
  6 22  1  0  0  0  0
  7 12  2  0  0  0  0
  7 21  1  0  0  0  0
  8  9  1  0  0  0  0
  8 24  2  0  0  0  0
  9 26  2  0  0  0  0
 10 27  1  0  0  0  0
 11 27  2  0  0  0  0
 12 28  1  0  0  0  0
 13 14  2  0  0  0  0
 13 29  1  0  0  0  0
 14 30  1  0  0  0  0
 15 23  1  0  0  0  0
 15 28  2  0  0  0  0
 16 30  2  0  0  0  0
 16 31  1  0  0  0  0
 17 32  1  0  0  0  0
 18 24  1  0  0  0  0
 18 25  2  0  0  0  0
 18 34  1  0  0  0  0
 19 32  1  0  0  0  0
 19 33  2  0  0  0  0
 19 36  1  0  0  0  0
 20 22  2  0  0  0  0
 20 41  1  0  0  0  0
 21 23  2  0  0  0  0
 21 42  1  0  0  0  0
 22 50  1  0  0  0  0
 23 43  1  0  0  0  0
 24 53  1  0  0  0  0
 25 26  1  0  0  0  0
 25 60  1  0  0  0  0
 26 74  1  0  0  0  0
 27 83  1  0  0  0  0
 28 84  1  0  0  0  0
 29 31  2  0  0  0  0
 29 83  1  0  0  0  0
 30 85  1  0  0  0  0
 31 86  1  0  0  0  0
 32 68  2  0  0  0  0
 33 69  1  0  0  0  0
 33 72  1  0  0  0  0
 34 35  2  0  0  0  0
 35 61  1  0  0  0  0
 36 73  1  0  0  0  0
 36 78  2  0  0  0  0
 37 51  1  0  0  0  0
 37 75  1  0  0  0  0
 37 79  2  0  0  0  0
 38 65  1  0  0  0  0
 38 70  1  0  0  0  0
 38 80  2  0  0  0  0
 39 66  1  0  0  0  0
 39 76  1  0  0  0  0
 39 81  2  0  0  0  0
 40 71  1  0  0  0  0
 40 74  1  0  0  0  0
 40 82  2  0  0  0  0
 41 44  1  0  0  0  0
 42 51  1  0  0  0  0
 43 70  1  0  0  0  0
 44 46  1  0  0  0  0
 45 47  1  0  0  0  0
 45 48  1  0  0  0  0
 46 50  1  0  0  0  0
 47 52  1  0  0  0  0
 48 71  1  0  0  0  0
 49 52  1  0  0  0  0
 49 71  1  0  0  0  0
 50 75  1  0  0  0  0
 51 70  1  0  0  0  0
 52 69  1  0  0  0  0
 54 60  1  0  0  0  0
 55 66  1  0  0  0  0
 56 67  1  0  0  0  0
 57 67  1  0  0  0  0
 58 67  1  0  0  0  0
 59 77  1  0  0  0  0
 61 62  1  0  0  0  0
 62 63  1  0  0  0  0
 63 64  1  0  0  0  0
 64 84  1  0  0  0  0
 65 67  1  0  0  0  0
 65 76  1  0  0  0  0
 66 77  1  0  0  0  0
 68 69  1  0  0  0  0
M  CHG  1  77   1
M  ISO  4  40 100  64 101  74 100  84 101
M  END
> <Batch ID>
0121

> <Smiles>
CCc1c([100NH:0][100C:0](=O)N2CCCC(n3nc(-c4ccc(Oc5ccc(F)cc5F)cc4)c(C(N)=O)c3N)C2)ccc(C)c1C=CCCC[101CH2:1][101O:1]c1ccc2c(c1)CN(C(=O)C(NC(=O)C(C)NC)C(C)(C)C)C(C(=O)NC1CCCc3ccccc31)C2

> <Shape>
0.230

> <Color>
0.095

> <Negative vol penalty>
0.000

$$$$

  -OEChem-04052301573D

 82 90  0     1  0  0  0  0  0999 V2000
  -16.5383  -29.4493   23.5291 C   0  0  0  0  0  0  0  0  0  0  0  0
  -17.3768  -29.6728   22.4417 C   0  0  0  0  0  0  0  0  0  0  0  0
  -26.7811  -13.7077   22.5106 C   0  0  0  0  0  0  0  0  0  0  0  0
  -26.2897  -13.2752   20.1849 C   0  0  0  0  0  0  0  0  0  0  0  0
  -17.0823  -29.1443   24.7761 C   0  0  0  0  0  0  0  0  0  0  0  0
  -18.7597  -29.5925   22.6009 C   0  0  0  0  0  0  0  0  0  0  0  0
  -24.6889  -27.7142   19.0465 C   0  0  0  0  0  0  0  0  0  0  0  0
  -25.5933  -13.0760   22.8790 C   0  0  0  0  0  0  0  0  0  0  0  0
  -25.1019  -12.6434   20.5534 C   0  0  0  0  0  0  0  0  0  0  0  0
  -25.9457  -28.2140   18.7082 C   0  0  0  0  0  0  0  0  0  0  0  0
  -24.1563   -9.6378   21.7751 C   0  0  0  0  0  0  0  0  0  0  0  0
  -23.8508   -8.4248   21.1581 C   0  0  0  0  0  0  0  0  0  0  0  0
  -26.7701  -27.6019   20.8911 C   0  0  0  0  0  0  0  0  0  0  0  0
  -33.2757  -25.7772   20.6569 C   0  0  0  0  0  0  0  0  0  0  0  0
  -21.8120   -9.3827   20.2846 C   0  0  0  0  0  0  0  0  0  0  0  0
  -27.1293  -13.8073   21.1635 C   0  0  0  0  0  0  0  0  0  0  0  0
  -29.6221  -13.8656   20.6251 C   0  0  0  0  0  0  0  0  0  0  0  0
  -18.4723  -29.0507   24.9486 C   0  0  0  0  0  0  0  0  0  0  0  0
  -24.4600  -27.1635   20.3157 C   0  0  0  0  0  0  0  0  0  0  0  0
  -19.3228  -29.2872   23.8517 C   0  0  0  0  0  0  0  0  0  0  0  0
  -25.5102  -27.0935   21.2421 C   0  0  0  0  0  0  0  0  0  0  0  0
  -33.2939  -24.4557   21.1633 C   0  0  0  0  0  0  0  0  0  0  0  0
  -24.7538  -12.5438   21.9004 C   0  0  0  0  0  0  0  0  0  0  0  0
  -26.9857  -28.1605   19.6315 C   0  0  0  0  0  0  0  0  0  0  0  0
  -23.2896  -10.7233   21.6470 C   0  0  0  0  0  0  0  0  0  0  0  0
  -22.6786   -8.2972   20.4128 C   0  0  0  0  0  0  0  0  0  0  0  0
  -22.1175  -10.5957   20.9018 C   0  0  0  0  0  0  0  0  0  0  0  0
  -28.3558  -14.4602   20.7822 C   0  0  0  0  0  0  0  0  0  0  0  0
  -32.0251  -25.9614   20.1148 C   0  0  0  0  0  0  0  0  0  0  0  0
  -32.0529  -23.9266   20.8948 C   0  0  0  0  0  0  0  0  0  0  0  0
  -30.4450  -14.9022   20.2576 C   0  0  0  0  0  0  0  0  0  0  0  0
  -31.5057  -27.1736   19.4601 C   0  0  0  0  0  0  0  0  0  0  0  0
  -31.5780  -22.6302   21.2056 C   0  0  0  0  0  0  0  0  0  0  0  0
  -30.3403  -22.1146   20.9089 C   0  0  0  0  0  0  0  0  0  0  0  0
  -30.5997  -27.1896   18.4699 C   0  0  0  0  0  0  0  0  0  0  0  0
  -30.0191  -12.4985   20.7959 C   0  0  0  0  0  0  0  0  0  0  0  0
  -29.9959  -20.7311   21.2939 C   0  0  0  0  0  0  0  0  0  0  0  0
  -22.5601  -27.8784   22.7617 C   0  0  0  0  0  0  0  0  0  0  0  0
  -23.7167  -25.0983   23.9681 C   0  0  0  0  0  0  0  0  0  0  0  0
  -26.2170  -22.7759   24.0093 C   0  0  0  0  0  0  0  0  0  0  0  0
  -19.0153  -28.7648   26.3263 C   0  0  0  0  0  0  0  0  0  0  0  0
  -23.1057  -26.6044   20.6557 C   0  0  0  0  0  0  0  0  0  0  0  0
  -25.3216  -26.4937   22.6108 C   0  0  0  0  0  0  0  0  0  0  0  0
  -20.4785  -28.3299   26.3261 C   0  0  0  0  0  0  0  0  0  0  0  0
  -30.4042  -19.1190   18.0280 C   0  0  0  0  0  0  0  0  0  0  0  0
  -21.3081  -29.2477   25.4338 C   0  0  0  0  0  0  0  0  0  0  0  0
  -29.9898  -17.6866   18.3537 C   0  0  0  0  0  0  0  0  0  0  0  0
  -29.6116  -20.1423   18.8400 C   0  0  0  0  0  0  0  0  0  0  0  0
  -29.2534  -18.4748   20.6377 C   0  0  0  0  0  0  0  0  0  0  0  0
  -20.8273  -29.1847   23.9790 C   0  0  1  0  0  0  0  0  0  0  0  0
  -22.8486  -26.5332   22.1578 C   0  0  1  0  0  0  0  0  0  0  0  0
  -30.0710  -17.4271   19.8664 C   0  0  1  0  0  0  0  0  0  0  0  0
  -34.4278  -23.7968   21.8408 C   0  0  0  0  0  0  0  0  0  0  0  0
  -26.8977  -20.6338   25.1252 C   0  0  0  0  0  0  0  0  0  0  0  0
  -24.4881  -26.6535   26.4773 C   0  0  0  0  0  0  0  0  0  0  0  0
  -25.9709  -24.7419   27.1218 C   0  0  0  0  0  0  0  0  0  0  0  0
  -23.5099  -24.3930   26.9106 C   0  0  0  0  0  0  0  0  0  0  0  0
  -26.2342  -21.3074   21.4398 C   0  0  0  0  0  0  0  0  0  0  0  0
  -30.1052  -28.4527   17.8196 C   0  0  0  0  0  0  0  0  0  0  0  0
  -28.5910  -28.5868   17.9293 C   0  0  0  0  0  0  0  0  0  1  0  0
  -24.8999  -24.7142   24.8233 C   0  0  1  0  0  0  0  0  0  0  0  0
  -26.1850  -21.2600   23.9366 C   0  0  2  0  0  0  0  0  0  0  0  0
  -24.7206  -25.1388   26.3082 C   0  0  0  0  0  0  0  0  0  0  0  0
  -28.3682  -15.7728   20.5350 N   0  0  0  0  0  0  0  0  0  0  0  0
  -29.6524  -16.0115   20.2188 N   0  0  0  0  0  0  0  0  0  0  0  0
  -29.6562  -19.8391   20.2783 N   0  0  0  0  0  0  0  0  0  0  0  0
  -23.9775  -25.9661   22.8982 N   0  0  0  0  0  0  0  0  0  0  0  0
  -31.7619  -14.9638   19.9672 N   0  0  0  0  0  0  0  0  0  0  0  0
  -29.0472  -11.5631   21.1760 N   0  0  0  0  0  0  0  0  0  0  0  0
  -21.3088  -27.9792   23.3392 N   0  0  0  0  0  0  0  0  0  0  0  0
  -25.0947  -23.2813   24.6308 N   0  0  0  0  0  0  0  0  0  0  0  0
  -26.8481  -20.7871   22.6886 N   0  3  0  0  0  0  0  0  0  0  0  0
  -31.2041  -12.1208   20.6327 O   0  0  0  0  0  0  0  0  0  0  0  0
  -30.0254  -20.4507   22.4936 O   0  0  0  0  0  0  0  0  0  0  0  0
  -23.4104  -28.7593   22.7090 O   0  0  0  0  0  0  0  0  0  0  0  0
  -22.6032  -24.6394   24.2351 O   0  0  0  0  0  0  0  0  0  0  0  0
  -27.1465  -23.4447   23.5628 O   0  0  0  0  0  0  0  0  0  0  0  0
  -31.2735  -24.8381   20.2558 O   0  0  0  0  0  0  0  0  0  0  0  0
  -23.5948  -11.9272   22.2596 O   0  0  0  0  0  0  0  0  0  0  0  0
  -28.2132  -28.6482   19.3041 O   0  0  0  0  0  0  0  0  0  1  0  0
  -22.3861   -7.1327   19.8190 F   0  0  0  0  0  0  0  0  0  0  0  0
  -21.2816  -11.6353   20.7741 F   0  0  0  0  0  0  0  0  0  0  0  0
  1  2  1  0  0  0  0
  1  5  2  0  0  0  0
  2  6  2  0  0  0  0
  3  8  2  0  0  0  0
  3 16  1  0  0  0  0
  4  9  1  0  0  0  0
  4 16  2  0  0  0  0
  5 18  1  0  0  0  0
  6 20  1  0  0  0  0
  7 10  2  0  0  0  0
  7 19  1  0  0  0  0
  8 23  1  0  0  0  0
  9 23  2  0  0  0  0
 10 24  1  0  0  0  0
 11 12  2  0  0  0  0
 11 25  1  0  0  0  0
 12 26  1  0  0  0  0
 13 21  1  0  0  0  0
 13 24  2  0  0  0  0
 14 22  1  0  0  0  0
 14 29  2  0  0  0  0
 15 26  2  0  0  0  0
 15 27  1  0  0  0  0
 16 28  1  0  0  0  0
 17 28  1  0  0  0  0
 17 31  2  0  0  0  0
 17 36  1  0  0  0  0
 18 20  2  0  0  0  0
 18 41  1  0  0  0  0
 19 21  2  0  0  0  0
 19 42  1  0  0  0  0
 20 50  1  0  0  0  0
 21 43  1  0  0  0  0
 22 30  2  0  0  0  0
 22 53  1  0  0  0  0
 23 79  1  0  0  0  0
 24 80  1  0  0  0  0
 25 27  2  0  0  0  0
 25 79  1  0  0  0  0
 26 81  1  0  0  0  0
 27 82  1  0  0  0  0
 28 64  2  0  0  0  0
 29 32  1  0  0  0  0
 29 78  1  0  0  0  0
 30 33  1  0  0  0  0
 30 78  1  0  0  0  0
 31 65  1  0  0  0  0
 31 68  1  0  0  0  0
 32 35  2  0  0  0  0
 33 34  2  0  0  0  0
 34 37  1  0  0  0  0
 35 59  1  0  0  0  0
 36 69  1  0  0  0  0
 36 73  2  0  0  0  0
 37 66  1  0  0  0  0
 37 74  2  0  0  0  0
 38 51  1  0  0  0  0
 38 70  1  0  0  0  0
 38 75  2  0  0  0  0
 39 61  1  0  0  0  0
 39 67  1  0  0  0  0
 39 76  2  0  0  0  0
 40 62  1  0  0  0  0
 40 71  1  0  0  0  0
 40 77  2  0  0  0  0
 41 44  1  0  0  0  0
 42 51  1  0  0  0  0
 43 67  1  0  0  0  0
 44 46  1  0  0  0  0
 45 47  1  0  0  0  0
 45 48  1  0  0  0  0
 46 50  1  0  0  0  0
 47 52  1  0  0  0  0
 48 66  1  0  0  0  0
 49 52  1  0  0  0  0
 49 66  1  0  0  0  0
 50 70  1  0  0  0  0
 51 67  1  0  0  0  0
 52 65  1  0  0  0  0
 54 62  1  0  0  0  0
 55 63  1  0  0  0  0
 56 63  1  0  0  0  0
 57 63  1  0  0  0  0
 58 72  1  0  0  0  0
 59 60  1  0  0  0  0
 60 80  1  0  0  0  0
 61 63  1  0  0  0  0
 61 71  1  0  0  0  0
 62 72  1  0  0  0  0
 64 65  1  0  0  0  0
M  CHG  1  72   1
M  ISO  4  34 100  37 100  60 101  80 101
M  END
> <Batch ID>
0121

> <Smiles>
CNC(C)C(=O)NC(C(=O)N1Cc2cc([101O:1][101CH2:1]CC=Cc3cc(C)c(C=[100CH:0][100C:0](=O)N4CCCC(n5nc(-c6ccc(Oc7ccc(F)cc7F)cc6)c(C(N)=O)c5N)C4)o3)ccc2CC1C(=O)NC1CCCc2ccccc21)C(C)(C)C

> <Shape>
0.232

> <Color>
0.095

> <Negative vol penalty>
0.000

$$$$

  -OEChem-04052301573D

 84 92  0     1  0  0  0  0  0999 V2000
  -28.4729  -24.8822   16.6568 C   0  0  0  0  0  0  0  0  0  0  0  0
  -27.2843  -25.0053   17.3691 C   0  0  0  0  0  0  0  0  0  0  0  0
  -26.3895  -13.1936   20.7228 C   0  0  0  0  0  0  0  0  0  0  0  0
  -24.0695  -12.9352   20.1001 C   0  0  0  0  0  0  0  0  0  0  0  0
  -29.6443  -25.4521   17.1538 C   0  0  0  0  0  0  0  0  0  0  0  0
  -27.2666  -25.6974   18.5795 C   0  0  0  0  0  0  0  0  0  0  0  0
  -23.3156  -28.8421   18.9616 C   0  0  0  0  0  0  0  0  0  0  0  0
  -19.1208  -19.3448   19.3379 C   0  0  0  0  0  0  0  0  0  0  0  0
  -26.3171  -12.0234   21.4784 C   0  0  0  0  0  0  0  0  0  0  0  0
  -23.9971  -11.7649   20.8557 C   0  0  0  0  0  0  0  0  0  0  0  0
  -22.0801  -28.2771   19.2749 C   0  0  0  0  0  0  0  0  0  0  0  0
  -24.9105   -8.5281   20.5251 C   0  0  0  0  0  0  0  0  0  0  0  0
  -17.7612  -19.5479   19.5738 C   0  0  0  0  0  0  0  0  0  0  0  0
  -24.2781   -7.4256   19.9505 C   0  0  0  0  0  0  0  0  0  0  0  0
  -19.6426  -21.2947   20.6655 C   0  0  0  0  0  0  0  0  0  0  0  0
  -22.3637  -28.9472   21.5749 C   0  0  0  0  0  0  0  0  0  0  0  0
  -22.6677   -7.4107   21.7515 C   0  0  0  0  0  0  0  0  0  0  0  0
  -25.2657  -13.6496   20.0337 C   0  0  0  0  0  0  0  0  0  0  0  0
  -18.2829  -21.4978   20.9015 C   0  0  0  0  0  0  0  0  0  0  0  0
  -25.6912  -14.9737   17.8952 C   0  0  0  0  0  0  0  0  0  0  0  0
  -29.6390  -26.1598   18.3661 C   0  0  0  0  0  0  0  0  0  0  0  0
  -24.0907  -29.4553   19.9565 C   0  0  0  0  0  0  0  0  0  0  0  0
  -28.4393  -26.2761   19.0938 C   0  0  0  0  0  0  0  0  0  0  0  0
  -23.6075  -29.5215   21.2711 C   0  0  0  0  0  0  0  0  0  0  0  0
  -20.0615  -20.2182   19.8838 C   0  0  0  0  0  0  0  0  0  0  0  0
  -25.1209  -11.3090   21.5448 C   0  0  0  0  0  0  0  0  0  0  0  0
  -21.6053  -28.3270   20.5823 C   0  0  0  0  0  0  0  0  0  0  0  0
  -24.4215   -9.0719   21.7130 C   0  0  0  0  0  0  0  0  0  0  0  0
  -23.1567   -6.8669   20.5637 C   0  0  0  0  0  0  0  0  0  0  0  0
  -17.3422  -20.6244   20.3556 C   0  0  0  0  0  0  0  0  0  0  0  0
  -23.3001   -8.5132   22.3261 C   0  0  0  0  0  0  0  0  0  0  0  0
  -25.3397  -14.8587   19.2535 C   0  0  0  0  0  0  0  0  0  0  0  0
  -25.6109  -16.3195   17.6325 C   0  0  0  0  0  0  0  0  0  0  0  0
  -17.8456  -22.6357   21.7269 C   0  0  0  0  0  0  0  0  0  0  0  0
  -18.5456  -23.1678   22.7409 C   0  0  0  0  0  0  0  0  0  0  0  0
  -26.0575  -13.9552   16.9549 C   0  0  0  0  0  0  0  0  0  0  0  0
  -26.9642  -28.9239   21.2072 C   0  0  0  0  0  0  0  0  0  0  0  0
  -26.3682  -31.7030   22.7705 C   0  0  0  0  0  0  0  0  0  0  0  0
  -24.0636  -33.9202   23.9620 C   0  0  0  0  0  0  0  0  0  0  0  0
  -22.5060  -20.7839   20.1091 C   0  0  0  0  0  0  0  0  0  0  0  0
  -30.9398  -26.7179   18.8866 C   0  0  0  0  0  0  0  0  0  0  0  0
  -25.4091  -30.0836   19.5969 C   0  0  0  0  0  0  0  0  0  0  0  0
  -24.3918  -30.1862   22.3717 C   0  0  0  0  0  0  0  0  0  0  0  0
  -30.7587  -27.7560   19.9911 C   0  0  0  0  0  0  0  0  0  0  0  0
  -26.0445  -20.5840   19.7678 C   0  0  0  0  0  0  0  0  0  0  0  0
  -29.7550  -27.2623   21.0283 C   0  0  0  0  0  0  0  0  0  0  0  0
  -26.2968  -19.1047   19.4676 C   0  0  0  0  0  0  0  0  0  0  0  0
  -24.9028  -20.7737   20.7650 C   0  0  0  0  0  0  0  0  0  0  0  0
  -23.8997  -18.6221   20.1064 C   0  0  0  0  0  0  0  0  0  0  0  0
  -28.3747  -27.0406   20.3983 C   0  0  1  0  0  0  0  0  0  0  0  0
  -26.3471  -30.2292   20.7913 C   0  0  1  0  0  0  0  0  0  0  0  0
  -24.9979  -18.3835   19.0573 C   0  0  2  0  0  0  0  0  0  0  0  0
  -23.8779  -36.0781   25.2294 C   0  0  0  0  0  0  0  0  0  0  0  0
  -26.9763  -30.2257   25.3700 C   0  0  0  0  0  0  0  0  0  0  0  0
  -25.8752  -32.1004   26.6115 C   0  0  0  0  0  0  0  0  0  0  0  0
  -27.9132  -32.5409   25.2421 C   0  0  0  0  0  0  0  0  0  0  0  0
  -22.7400  -35.2760   21.6885 C   0  0  0  0  0  0  0  0  0  0  0  0
  -18.0571  -24.3263   23.5642 C   0  0  0  0  0  0  0  0  0  0  0  0
  -19.0312  -25.5086   23.5658 C   0  0  0  0  0  0  0  0  0  0  0  0
  -19.2375  -26.1168   22.1778 C   0  0  0  0  0  0  0  0  0  0  0  0
  -20.2400  -27.2623   22.2127 C   0  0  0  0  0  0  0  0  0  1  0  0
  -25.7166  -32.0741   24.0807 C   0  0  1  0  0  0  0  0  0  0  0  0
  -23.9714  -35.4317   23.8560 C   0  0  2  0  0  0  0  0  0  0  0  0
  -26.6062  -31.7210   25.3060 C   0  0  0  0  0  0  0  0  0  0  0  0
  -25.0572  -16.0374   19.8146 N   0  0  0  0  0  0  0  0  0  0  0  0
  -25.2313  -16.9059   18.8039 N   0  0  0  0  0  0  0  0  0  0  0  0
  -25.6780  -30.7804   21.9715 N   0  0  0  0  0  0  0  0  0  0  0  0
  -23.7045  -20.0664   20.3084 N   0  0  0  0  0  0  0  0  0  0  0  0
  -25.8288  -17.0466   16.5162 N   0  0  0  0  0  0  0  0  0  0  0  0
  -26.0895  -12.6236   17.3910 N   0  0  0  0  0  0  0  0  0  0  0  0
  -21.4425  -20.0118   19.6428 N   0  0  0  0  0  0  0  0  0  0  0  0
  -27.6954  -28.3047   20.2115 N   0  0  0  0  0  0  0  0  0  0  0  0
  -25.3730  -33.4884   23.9795 N   0  0  0  0  0  0  0  0  0  0  0  0
  -22.7678  -35.8234   23.0693 N   0  3  0  0  0  0  0  0  0  0  0  0
  -26.3636  -14.2198   15.7676 O   0  0  0  0  0  0  0  0  0  0  0  0
  -26.7910  -28.5099   22.3475 O   0  0  0  0  0  0  0  0  0  0  0  0
  -27.4462  -32.2183   22.4639 O   0  0  0  0  0  0  0  0  0  0  0  0
  -23.0732  -33.1954   24.0268 O   0  0  0  0  0  0  0  0  0  0  0  0
  -22.4363  -21.9992   20.3096 O   0  0  0  0  0  0  0  0  0  0  0  0
  -25.0500  -10.1669   22.2818 O   0  0  0  0  0  0  0  0  0  0  0  0
  -20.4000  -27.7757   20.8909 O   0  0  0  0  0  0  0  0  0  1  0  0
  -22.5486   -5.8092   20.0109 F   0  0  0  0  0  0  0  0  0  0  0  0
  -16.0314  -20.8066   20.5729 F   0  0  0  0  0  0  0  0  0  0  0  0
  -22.8250   -9.0320   23.4667 F   0  0  0  0  0  0  0  0  0  0  0  0
  1  2  1  0  0  0  0
  1  5  2  0  0  0  0
  2  6  2  0  0  0  0
  3  9  2  0  0  0  0
  3 18  1  0  0  0  0
  4 10  1  0  0  0  0
  4 18  2  0  0  0  0
  5 21  1  0  0  0  0
  6 23  1  0  0  0  0
  7 11  2  0  0  0  0
  7 22  1  0  0  0  0
  8 13  2  0  0  0  0
  8 25  1  0  0  0  0
  9 26  1  0  0  0  0
 10 26  2  0  0  0  0
 11 27  1  0  0  0  0
 12 14  2  0  0  0  0
 12 28  1  0  0  0  0
 13 30  1  0  0  0  0
 14 29  1  0  0  0  0
 15 19  1  0  0  0  0
 15 25  2  0  0  0  0
 16 24  1  0  0  0  0
 16 27  2  0  0  0  0
 17 29  2  0  0  0  0
 17 31  1  0  0  0  0
 18 32  1  0  0  0  0
 19 30  2  0  0  0  0
 19 34  1  0  0  0  0
 20 32  1  0  0  0  0
 20 33  2  0  0  0  0
 20 36  1  0  0  0  0
 21 23  2  0  0  0  0
 21 41  1  0  0  0  0
 22 24  2  0  0  0  0
 22 42  1  0  0  0  0
 23 50  1  0  0  0  0
 24 43  1  0  0  0  0
 25 71  1  0  0  0  0
 26 80  1  0  0  0  0
 27 81  1  0  0  0  0
 28 31  2  0  0  0  0
 28 80  1  0  0  0  0
 29 82  1  0  0  0  0
 30 83  1  0  0  0  0
 31 84  1  0  0  0  0
 32 65  2  0  0  0  0
 33 66  1  0  0  0  0
 33 69  1  0  0  0  0
 34 35  2  0  0  0  0
 35 58  1  0  0  0  0
 36 70  1  0  0  0  0
 36 75  2  0  0  0  0
 37 51  1  0  0  0  0
 37 72  1  0  0  0  0
 37 76  2  0  0  0  0
 38 62  1  0  0  0  0
 38 67  1  0  0  0  0
 38 77  2  0  0  0  0
 39 63  1  0  0  0  0
 39 73  1  0  0  0  0
 39 78  2  0  0  0  0
 40 68  1  0  0  0  0
 40 71  1  0  0  0  0
 40 79  2  0  0  0  0
 41 44  1  0  0  0  0
 42 51  1  0  0  0  0
 43 67  1  0  0  0  0
 44 46  1  0  0  0  0
 45 47  1  0  0  0  0
 45 48  1  0  0  0  0
 46 50  1  0  0  0  0
 47 52  1  0  0  0  0
 48 68  1  0  0  0  0
 49 52  1  0  0  0  0
 49 68  1  0  0  0  0
 50 72  1  0  0  0  0
 51 67  1  0  0  0  0
 52 66  1  0  0  0  0
 53 63  1  0  0  0  0
 54 64  1  0  0  0  0
 55 64  1  0  0  0  0
 56 64  1  0  0  0  0
 57 74  1  0  0  0  0
 58 59  1  0  0  0  0
 59 60  1  0  0  0  0
 60 61  1  0  0  0  0
 61 81  1  0  0  0  0
 62 64  1  0  0  0  0
 62 73  1  0  0  0  0
 63 74  1  0  0  0  0
 65 66  1  0  0  0  0
M  CHG  1  74   1
M  ISO  4  40 100  61 101  71 100  81 101
M  END
> <Batch ID>
0121

> <Smiles>
CNC(C)C(=O)NC(C(=O)N1Cc2cc([101O:1][101CH2:1]CCCC=Cc3cc([100NH:0][100C:0](=O)N4CCCC(n5nc(-c6ccc(Oc7ccc(F)cc7F)cc6)c(C(N)=O)c5N)C4)ccc3F)ccc2CC1C(=O)NC1CCCc2ccccc21)C(C)(C)C

> <Shape>
0.264

> <Color>
0.084

> <Negative vol penalty>
0.000

$$$$

  -OEChem-04052301573D

 84 92  0     1  0  0  0  0  0999 V2000
  -26.9483  -31.3264   28.6849 C   0  0  0  0  0  0  0  0  0  0  0  0
  -27.3742  -30.5643   27.6018 C   0  0  0  0  0  0  0  0  0  0  0  0
  -24.6718   -8.2503   20.7152 C   0  0  0  0  0  0  0  0  0  0  0  0
  -23.3815  -10.2879   20.8593 C   0  0  0  0  0  0  0  0  0  0  0  0
  -25.5870  -31.5520   28.8848 C   0  0  0  0  0  0  0  0  0  0  0  0
  -26.4389  -30.0264   26.7184 C   0  0  0  0  0  0  0  0  0  0  0  0
  -27.1025  -29.2443   20.6807 C   0  0  0  0  0  0  0  0  0  0  0  0
  -23.5444   -7.5111   21.0732 C   0  0  0  0  0  0  0  0  0  0  0  0
  -22.2541   -9.5486   21.2173 C   0  0  0  0  0  0  0  0  0  0  0  0
  -27.4444  -28.1334   19.9108 C   0  0  0  0  0  0  0  0  0  0  0  0
  -21.8492   -6.7671   23.9011 C   0  0  0  0  0  0  0  0  0  0  0  0
  -22.0091   -5.7656   24.8587 C   0  0  0  0  0  0  0  0  0  0  0  0
  -25.1049  -27.6866   19.5278 C   0  0  0  0  0  0  0  0  0  0  0  0
  -29.5989  -18.9500   18.4647 C   0  0  0  0  0  0  0  0  0  0  0  0
  -30.4755  -18.2006   21.0050 C   0  0  0  0  0  0  0  0  0  0  0  0
  -21.2564   -4.1174   23.2605 C   0  0  0  0  0  0  0  0  0  0  0  0
  -24.5903   -9.6387   20.6083 C   0  0  0  0  0  0  0  0  0  0  0  0
  -26.1637  -10.7542   18.9386 C   0  0  0  0  0  0  0  0  0  0  0  0
  -24.6351  -31.0247   27.9980 C   0  0  0  0  0  0  0  0  0  0  0  0
  -25.7568  -29.5789   20.8893 C   0  0  0  0  0  0  0  0  0  0  0  0
  -25.0635  -30.2441   26.9073 C   0  0  0  0  0  0  0  0  0  0  0  0
  -24.7487  -28.8037   20.2986 C   0  0  0  0  0  0  0  0  0  0  0  0
  -29.5033  -17.6191   18.8710 C   0  0  0  0  0  0  0  0  0  0  0  0
  -29.9416  -17.2444   20.1411 C   0  0  0  0  0  0  0  0  0  0  0  0
  -22.3356   -8.1602   21.3243 C   0  0  0  0  0  0  0  0  0  0  0  0
  -26.4455  -27.3527   19.3365 C   0  0  0  0  0  0  0  0  0  0  0  0
  -21.3928   -6.4438   22.6232 C   0  0  0  0  0  0  0  0  0  0  0  0
  -30.1328  -19.9063   19.3286 C   0  0  0  0  0  0  0  0  0  0  0  0
  -21.7127   -4.4407   24.5384 C   0  0  0  0  0  0  0  0  0  0  0  0
  -30.5711  -19.5316   20.5986 C   0  0  0  0  0  0  0  0  0  0  0  0
  -21.0965   -5.1190   22.3030 C   0  0  0  0  0  0  0  0  0  0  0  0
  -25.7547  -10.4030   20.2390 C   0  0  0  0  0  0  0  0  0  0  0  0
  -27.3189  -11.4735   19.1245 C   0  0  0  0  0  0  0  0  0  0  0  0
  -25.5539  -10.4568   17.6754 C   0  0  0  0  0  0  0  0  0  0  0  0
  -23.8707  -29.8049   23.4379 C   0  0  0  0  0  0  0  0  0  0  0  0
  -21.7436  -30.9577   21.2771 C   0  0  0  0  0  0  0  0  0  0  0  0
  -20.7169  -31.1232   18.0267 C   0  0  0  0  0  0  0  0  0  0  0  0
  -30.2478  -15.3775   21.8047 C   0  0  0  0  0  0  0  0  0  0  0  0
  -23.1720  -31.2559   28.2819 C   0  0  0  0  0  0  0  0  0  0  0  0
  -25.4053  -30.7959   21.7003 C   0  0  0  0  0  0  0  0  0  0  0  0
  -23.2895  -29.1322   20.4754 C   0  0  0  0  0  0  0  0  0  0  0  0
  -22.2664  -30.9638   27.0882 C   0  0  0  0  0  0  0  0  0  0  0  0
  -30.1608  -12.1299   23.2615 C   0  0  0  0  0  0  0  0  0  0  0  0
  -22.6431  -29.6327   26.4454 C   0  0  0  0  0  0  0  0  0  0  0  0
  -29.0404  -11.4200   22.4980 C   0  0  0  0  0  0  0  0  0  0  0  0
  -29.8401  -13.6047   23.4976 C   0  0  0  0  0  0  0  0  0  0  0  0
  -28.3599  -13.6526   21.5288 C   0  0  0  0  0  0  0  0  0  0  0  0
  -24.0808  -29.6644   25.9131 C   0  0  1  0  0  0  0  0  0  0  0  0
  -23.9918  -30.7451   22.2720 C   0  0  1  0  0  0  0  0  0  0  0  0
  -28.6664  -12.1801   21.2104 C   0  0  2  0  0  0  0  0  0  0  0  0
  -28.9272  -16.6161   17.9249 C   0  0  0  0  0  0  0  0  0  0  0  0
  -18.9242  -32.1112   16.5750 C   0  0  0  0  0  0  0  0  0  0  0  0
  -19.7760  -28.8509   22.2772 C   0  0  0  0  0  0  0  0  0  0  0  0
  -18.4152  -29.2421   20.2124 C   0  0  0  0  0  0  0  0  0  0  0  0
  -18.7671  -31.0976   21.8422 C   0  0  0  0  0  0  0  0  0  0  0  0
  -22.6847  -32.6771   16.4544 C   0  0  0  0  0  0  0  0  0  0  0  0
  -27.8739  -24.1169   18.5525 C   0  0  0  0  0  0  0  0  0  0  0  0
  -29.1409  -23.3487   18.9120 C   0  0  0  0  0  0  0  0  0  0  0  0
  -27.9872  -25.5905   18.9197 C   0  0  0  0  0  0  0  0  0  1  0  0
  -29.0123  -21.8677   18.5848 C   0  0  0  0  0  0  0  0  0  0  0  0
  -20.6909  -30.3480   20.3831 C   0  0  1  0  0  0  0  0  0  0  0  0
  -20.3171  -32.3002   17.1553 C   0  0  2  0  0  0  0  0  0  0  0  0
  -19.4397  -29.8771   21.1768 C   0  0  0  0  0  0  0  0  0  0  0  0
  -26.5828  -10.8613   21.1814 N   0  0  0  0  0  0  0  0  0  0  0  0
  -27.5238  -11.5078   20.4725 N   0  0  0  0  0  0  0  0  0  0  0  0
  -22.9964  -30.3283   21.2822 N   0  0  0  0  0  0  0  0  0  0  0  0
  -29.4993  -14.2609   22.2334 N   0  0  0  0  0  0  0  0  0  0  0  0
  -28.1693  -12.0737   18.2648 N   0  0  0  0  0  0  0  0  0  0  0  0
  -24.3700   -9.7069   17.6652 N   0  0  0  0  0  0  0  0  0  0  0  0
  -29.8530  -15.8976   20.5725 N   0  0  0  0  0  0  0  0  0  0  0  0
  -24.1404  -30.3881   24.6612 N   0  0  0  0  0  0  0  0  0  0  0  0
  -20.4061  -31.3404   19.3524 N   0  0  0  0  0  0  0  0  0  0  0  0
  -21.2783  -32.4600   16.0277 N   0  3  0  0  0  0  0  0  0  0  0  0
  -26.0533  -10.8307   16.5872 O   0  0  0  0  0  0  0  0  0  0  0  0
  -23.5544  -28.6373   23.2421 O   0  0  0  0  0  0  0  0  0  0  0  0
  -21.4666  -31.9599   21.9409 O   0  0  0  0  0  0  0  0  0  0  0  0
  -21.2481  -30.1108   17.5758 O   0  0  0  0  0  0  0  0  0  0  0  0
  -31.1885  -15.8217   22.4679 O   0  0  0  0  0  0  0  0  0  0  0  0
  -21.2353   -7.4392   21.6734 O   0  0  0  0  0  0  0  0  0  0  0  0
  -26.7763  -26.2674   18.5851 O   0  0  0  0  0  0  0  0  0  1  0  0
  -30.2263  -21.2139   18.9283 O   0  0  0  0  0  0  0  0  0  0  0  0
  -21.8678   -3.4788   25.4576 F   0  0  0  0  0  0  0  0  0  0  0  0
  -31.0850  -20.4458   21.4330 F   0  0  0  0  0  0  0  0  0  0  0  0
  -20.6588   -4.8021   21.0766 F   0  0  0  0  0  0  0  0  0  0  0  0
  1  2  1  0  0  0  0
  1  5  2  0  0  0  0
  2  6  2  0  0  0  0
  3  8  2  0  0  0  0
  3 17  1  0  0  0  0
  4  9  1  0  0  0  0
  4 17  2  0  0  0  0
  5 19  1  0  0  0  0
  6 21  1  0  0  0  0
  7 10  2  0  0  0  0
  7 20  1  0  0  0  0
  8 25  1  0  0  0  0
  9 25  2  0  0  0  0
 10 26  1  0  0  0  0
 11 12  2  0  0  0  0
 11 27  1  0  0  0  0
 12 29  1  0  0  0  0
 13 22  1  0  0  0  0
 13 26  2  0  0  0  0
 14 23  2  0  0  0  0
 14 28  1  0  0  0  0
 15 24  2  0  0  0  0
 15 30  1  0  0  0  0
 16 29  2  0  0  0  0
 16 31  1  0  0  0  0
 17 32  1  0  0  0  0
 18 32  1  0  0  0  0
 18 33  2  0  0  0  0
 18 34  1  0  0  0  0
 19 21  2  0  0  0  0
 19 39  1  0  0  0  0
 20 22  2  0  0  0  0
 20 40  1  0  0  0  0
 21 48  1  0  0  0  0
 22 41  1  0  0  0  0
 23 24  1  0  0  0  0
 23 51  1  0  0  0  0
 24 70  1  0  0  0  0
 25 79  1  0  0  0  0
 26 80  1  0  0  0  0
 27 31  2  0  0  0  0
 27 79  1  0  0  0  0
 28 30  2  0  0  0  0
 28 81  1  0  0  0  0
 29 82  1  0  0  0  0
 30 83  1  0  0  0  0
 31 84  1  0  0  0  0
 32 64  2  0  0  0  0
 33 65  1  0  0  0  0
 33 68  1  0  0  0  0
 34 69  1  0  0  0  0
 34 74  2  0  0  0  0
 35 49  1  0  0  0  0
 35 71  1  0  0  0  0
 35 75  2  0  0  0  0
 36 61  1  0  0  0  0
 36 66  1  0  0  0  0
 36 76  2  0  0  0  0
 37 62  1  0  0  0  0
 37 72  1  0  0  0  0
 37 77  2  0  0  0  0
 38 67  1  0  0  0  0
 38 70  1  0  0  0  0
 38 78  2  0  0  0  0
 39 42  1  0  0  0  0
 40 49  1  0  0  0  0
 41 66  1  0  0  0  0
 42 44  1  0  0  0  0
 43 45  1  0  0  0  0
 43 46  1  0  0  0  0
 44 48  1  0  0  0  0
 45 50  1  0  0  0  0
 46 67  1  0  0  0  0
 47 50  1  0  0  0  0
 47 67  1  0  0  0  0
 48 71  1  0  0  0  0
 49 66  1  0  0  0  0
 50 65  1  0  0  0  0
 52 62  1  0  0  0  0
 53 63  1  0  0  0  0
 54 63  1  0  0  0  0
 55 63  1  0  0  0  0
 56 73  1  0  0  0  0
 57 58  1  0  0  0  0
 57 59  1  0  0  0  0
 58 60  1  0  0  0  0
 59 80  1  0  0  0  0
 60 81  1  0  0  0  0
 61 63  1  0  0  0  0
 61 72  1  0  0  0  0
 62 73  1  0  0  0  0
 64 65  1  0  0  0  0
M  CHG  1  73   1
M  ISO  4  38 100  59 101  70 100  80 101
M  END
> <Batch ID>
0121

> <Smiles>
CNC(C)C(=O)NC(C(=O)N1Cc2cc([101O:1][101CH2:1]CCCOc3cc(C)c([100NH:0][100C:0](=O)N4CCCC(n5nc(-c6ccc(Oc7ccc(F)cc7F)cc6)c(C(N)=O)c5N)C4)cc3F)ccc2CC1C(=O)NC1CCCc2ccccc21)C(C)(C)C

> <Shape>
0.282

> <Color>
0.108

> <Negative vol penalty>
0.000

$$$$

  -OEChem-04052301573D

 85 93  0     1  0  0  0  0  0999 V2000
  -25.4335  -38.0645   22.6428 C   0  0  0  0  0  0  0  0  0  0  0  0
  -26.1722  -37.1952   21.8465 C   0  0  0  0  0  0  0  0  0  0  0  0
  -23.4071  -10.3168   22.0272 C   0  0  0  0  0  0  0  0  0  0  0  0
  -23.9673   -9.4097   19.8592 C   0  0  0  0  0  0  0  0  0  0  0  0
  -24.7580  -37.5794   23.7617 C   0  0  0  0  0  0  0  0  0  0  0  0
  -26.2366  -35.8402   22.1695 C   0  0  0  0  0  0  0  0  0  0  0  0
  -26.7258  -29.3864   19.0994 C   0  0  0  0  0  0  0  0  0  0  0  0
  -22.5367   -9.2496   22.2488 C   0  0  0  0  0  0  0  0  0  0  0  0
  -23.0968   -8.3425   20.0808 C   0  0  0  0  0  0  0  0  0  0  0  0
  -27.4915  -28.2226   19.1547 C   0  0  0  0  0  0  0  0  0  0  0  0
  -20.4392   -6.5737   23.5355 C   0  0  0  0  0  0  0  0  0  0  0  0
  -20.4826   -5.9496   24.7821 C   0  0  0  0  0  0  0  0  0  0  0  0
  -29.8493  -19.0916   16.8726 C   0  0  0  0  0  0  0  0  0  0  0  0
  -26.2192  -27.4835   21.0663 C   0  0  0  0  0  0  0  0  0  0  0  0
  -31.5213  -17.9051   18.7645 C   0  0  0  0  0  0  0  0  0  0  0  0
  -22.8014   -5.3784   24.4155 C   0  0  0  0  0  0  0  0  0  0  0  0
  -24.1224  -10.3968   20.8324 C   0  0  0  0  0  0  0  0  0  0  0  0
  -30.5708  -19.8874   17.7624 C   0  0  0  0  0  0  0  0  0  0  0  0
  -26.3891  -11.5630   20.9291 C   0  0  0  0  0  0  0  0  0  0  0  0
  -24.8062  -36.2161   24.0931 C   0  0  0  0  0  0  0  0  0  0  0  0
  -25.7065  -29.6129   20.0354 C   0  0  0  0  0  0  0  0  0  0  0  0
  -25.5622  -35.3366   23.2947 C   0  0  0  0  0  0  0  0  0  0  0  0
  -25.4403  -28.6498   21.0191 C   0  0  0  0  0  0  0  0  0  0  0  0
  -29.9637  -17.7026   16.9288 C   0  0  0  0  0  0  0  0  0  0  0  0
  -31.4068  -19.2942   18.7083 C   0  0  0  0  0  0  0  0  0  0  0  0
  -30.7997  -17.1093   17.8747 C   0  0  0  0  0  0  0  0  0  0  0  0
  -22.3815   -8.2625   21.2757 C   0  0  0  0  0  0  0  0  0  0  0  0
  -27.2402  -27.2723   20.1400 C   0  0  0  0  0  0  0  0  0  0  0  0
  -21.5769   -6.6001   22.7288 C   0  0  0  0  0  0  0  0  0  0  0  0
  -21.6637   -5.3519   25.2222 C   0  0  0  0  0  0  0  0  0  0  0  0
  -22.7579   -6.0025   23.1688 C   0  0  0  0  0  0  0  0  0  0  0  0
  -25.0212  -11.4993   20.6026 C   0  0  0  0  0  0  0  0  0  0  0  0
  -26.7847  -12.8094   20.5089 C   0  0  0  0  0  0  0  0  0  0  0  0
  -30.4287  -21.3506   17.6781 C   0  0  0  0  0  0  0  0  0  0  0  0
  -29.2848  -22.0294   17.8585 C   0  0  0  0  0  0  0  0  0  0  0  0
  -27.2273  -10.5832   21.5561 C   0  0  0  0  0  0  0  0  0  0  0  0
  -25.1551  -31.8118   22.2635 C   0  0  0  0  0  0  0  0  0  0  0  0
  -22.3222  -30.2567   22.5433 C   0  0  0  0  0  0  0  0  0  0  0  0
  -20.5440  -27.3755   22.1149 C   0  0  0  0  0  0  0  0  0  0  0  0
  -26.8071  -16.8773   16.6882 C   0  0  0  0  0  0  0  0  0  0  0  0
  -24.0982  -35.7464   25.3392 C   0  0  0  0  0  0  0  0  0  0  0  0
  -24.8719  -30.8610   19.9458 C   0  0  0  0  0  0  0  0  0  0  0  0
  -24.3441  -28.8358   22.0351 C   0  0  0  0  0  0  0  0  0  0  0  0
  -23.9111  -34.2326   25.3994 C   0  0  0  0  0  0  0  0  0  0  0  0
  -24.0606  -16.7770   18.9517 C   0  0  0  0  0  0  0  0  0  0  0  0
  -25.2083  -33.5192   25.0319 C   0  0  0  0  0  0  0  0  0  0  0  0
  -24.1751  -15.3984   19.6049 C   0  0  0  0  0  0  0  0  0  0  0  0
  -24.4637  -16.7390   17.4793 C   0  0  0  0  0  0  0  0  0  0  0  0
  -25.9086  -14.7810   17.8693 C   0  0  0  0  0  0  0  0  0  0  0  0
  -25.6360  -33.8558   23.5983 C   0  0  1  0  0  0  0  0  0  0  0  0
  -24.1978  -31.2250   21.2651 C   0  0  1  0  0  0  0  0  0  0  0  0
  -25.5661  -14.7799   19.3689 C   0  0  2  0  0  0  0  0  0  0  0  0
  -32.1949  -20.1157   19.6774 C   0  0  0  0  0  0  0  0  0  0  0  0
  -30.9380  -15.6243   17.9538 C   0  0  0  0  0  0  0  0  0  0  0  0
  -18.2600  -26.3988   22.4709 C   0  0  0  0  0  0  0  0  0  0  0  0
  -22.8976  -30.0057   25.5293 C   0  0  0  0  0  0  0  0  0  0  0  0
  -21.1188  -28.2483   25.6534 C   0  0  0  0  0  0  0  0  0  0  0  0
  -20.5274  -30.5726   24.9677 C   0  0  0  0  0  0  0  0  0  0  0  0
  -20.1838  -26.8662   19.2218 C   0  0  0  0  0  0  0  0  0  0  0  0
  -29.1814  -16.8707   15.9661 C   0  0  0  0  0  0  0  0  0  0  0  0
  -29.1887  -23.5260   17.7670 C   0  0  0  0  0  0  0  0  0  0  0  0
  -28.6478  -24.1265   19.0632 C   0  0  0  0  0  0  0  0  0  0  0  0
  -28.5083  -25.6393   18.9647 C   0  0  0  0  0  0  0  0  0  1  0  0
  -21.8154  -29.0982   23.3680 C   0  0  1  0  0  0  0  0  0  0  0  0
  -19.1824  -27.1147   21.4965 C   0  0  2  0  0  0  0  0  0  0  0  0
  -21.6118  -29.4783   24.8618 C   0  0  0  0  0  0  0  0  0  0  0  0
  -24.5775  -12.6163   20.0201 N   0  0  0  0  0  0  0  0  0  0  0  0
  -25.6729  -13.3938   19.9773 N   0  0  0  0  0  0  0  0  0  0  0  0
  -23.5598  -30.0755   21.9099 N   0  0  0  0  0  0  0  0  0  0  0  0
  -25.7928  -16.1429   17.3246 N   0  0  0  0  0  0  0  0  0  0  0  0
  -27.9715  -13.4516   20.5461 N   0  0  0  0  0  0  0  0  0  0  0  0
  -26.6599   -9.3556   21.9240 N   0  0  0  0  0  0  0  0  0  0  0  0
  -24.8476  -33.1036   22.6459 N   0  0  0  0  0  0  0  0  0  0  0  0
  -20.6078  -28.6211   22.7028 N   0  0  0  0  0  0  0  0  0  0  0  0
  -28.0384  -16.2411   16.5888 N   0  0  0  0  0  0  0  0  0  0  0  0
  -19.3210  -26.2720   20.2751 N   0  3  0  0  0  0  0  0  0  0  0  0
  -28.4395  -10.7965   21.7983 O   0  0  0  0  0  0  0  0  0  0  0  0
  -26.1018  -31.1416   22.6589 O   0  0  0  0  0  0  0  0  0  0  0  0
  -21.6415  -31.2820   22.4584 O   0  0  0  0  0  0  0  0  0  0  0  0
  -21.4583  -26.5548   22.0830 O   0  0  0  0  0  0  0  0  0  0  0  0
  -26.6300  -18.0177   16.2465 O   0  0  0  0  0  0  0  0  0  0  0  0
  -21.5325   -7.2209   21.4917 O   0  0  0  0  0  0  0  0  0  0  0  0
  -27.9865  -26.1358   20.1966 O   0  0  0  0  0  0  0  0  0  1  0  0
  -21.7056   -4.7540   26.4200 F   0  0  0  0  0  0  0  0  0  0  0  0
  -23.8544   -6.0257   22.3987 F   0  0  0  0  0  0  0  0  0  0  0  0
  1  2  1  0  0  0  0
  1  5  2  0  0  0  0
  2  6  2  0  0  0  0
  3  8  2  0  0  0  0
  3 17  1  0  0  0  0
  4  9  1  0  0  0  0
  4 17  2  0  0  0  0
  5 20  1  0  0  0  0
  6 22  1  0  0  0  0
  7 10  2  0  0  0  0
  7 21  1  0  0  0  0
  8 27  1  0  0  0  0
  9 27  2  0  0  0  0
 10 28  1  0  0  0  0
 11 12  2  0  0  0  0
 11 29  1  0  0  0  0
 12 30  1  0  0  0  0
 13 18  1  0  0  0  0
 13 24  2  0  0  0  0
 14 23  1  0  0  0  0
 14 28  2  0  0  0  0
 15 25  1  0  0  0  0
 15 26  2  0  0  0  0
 16 30  2  0  0  0  0
 16 31  1  0  0  0  0
 17 32  1  0  0  0  0
 18 25  2  0  0  0  0
 18 34  1  0  0  0  0
 19 32  1  0  0  0  0
 19 33  2  0  0  0  0
 19 36  1  0  0  0  0
 20 22  2  0  0  0  0
 20 41  1  0  0  0  0
 21 23  2  0  0  0  0
 21 42  1  0  0  0  0
 22 50  1  0  0  0  0
 23 43  1  0  0  0  0
 24 26  1  0  0  0  0
 24 60  1  0  0  0  0
 25 53  1  0  0  0  0
 26 54  1  0  0  0  0
 27 82  1  0  0  0  0
 28 83  1  0  0  0  0
 29 31  2  0  0  0  0
 29 82  1  0  0  0  0
 30 84  1  0  0  0  0
 31 85  1  0  0  0  0
 32 67  2  0  0  0  0
 33 68  1  0  0  0  0
 33 71  1  0  0  0  0
 34 35  2  0  0  0  0
 35 61  1  0  0  0  0
 36 72  1  0  0  0  0
 36 77  2  0  0  0  0
 37 51  1  0  0  0  0
 37 73  1  0  0  0  0
 37 78  2  0  0  0  0
 38 64  1  0  0  0  0
 38 69  1  0  0  0  0
 38 79  2  0  0  0  0
 39 65  1  0  0  0  0
 39 74  1  0  0  0  0
 39 80  2  0  0  0  0
 40 70  1  0  0  0  0
 40 75  1  0  0  0  0
 40 81  2  0  0  0  0
 41 44  1  0  0  0  0
 42 51  1  0  0  0  0
 43 69  1  0  0  0  0
 44 46  1  0  0  0  0
 45 47  1  0  0  0  0
 45 48  1  0  0  0  0
 46 50  1  0  0  0  0
 47 52  1  0  0  0  0
 48 70  1  0  0  0  0
 49 52  1  0  0  0  0
 49 70  1  0  0  0  0
 50 73  1  0  0  0  0
 51 69  1  0  0  0  0
 52 68  1  0  0  0  0
 55 65  1  0  0  0  0
 56 66  1  0  0  0  0
 57 66  1  0  0  0  0
 58 66  1  0  0  0  0
 59 76  1  0  0  0  0
 60 75  1  0  0  0  0
 61 62  1  0  0  0  0
 62 63  1  0  0  0  0
 63 83  1  0  0  0  0
 64 66  1  0  0  0  0
 64 74  1  0  0  0  0
 65 76  1  0  0  0  0
 67 68  1  0  0  0  0
M  CHG  1  76   1
M  ISO  4  40 100  63 101  75 100  83 101
M  END
> <Batch ID>
0121

> <Smiles>
CNC(C)C(=O)NC(C(=O)N1Cc2cc([101O:1][101CH2:1]CCC=Cc3cc(C[100NH:0][100C:0](=O)N4CCCC(n5nc(-c6ccc(Oc7ccc(F)cc7F)cc6)c(C(N)=O)c5N)C4)c(C)cc3C)ccc2CC1C(=O)NC1CCCc2ccccc21)C(C)(C)C

> <Shape>
0.313

> <Color>
0.119

> <Negative vol penalty>
0.000

$$$$

  -OEChem-04052301573D

 82 90  0     1  0  0  0  0  0999 V2000
  -16.8154  -29.3130   24.4991 C   0  0  0  0  0  0  0  0  0  0  0  0
  -17.9178  -28.4767   24.6431 C   0  0  0  0  0  0  0  0  0  0  0  0
  -23.4047   -9.5601   21.4952 C   0  0  0  0  0  0  0  0  0  0  0  0
  -23.9471  -10.6866   23.5626 C   0  0  0  0  0  0  0  0  0  0  0  0
  -16.8093  -30.2919   23.5064 C   0  0  0  0  0  0  0  0  0  0  0  0
  -19.0144  -28.6182   23.7935 C   0  0  0  0  0  0  0  0  0  0  0  0
  -24.9090  -27.7628   25.2175 C   0  0  0  0  0  0  0  0  0  0  0  0
  -22.7573   -8.5545   22.2130 C   0  0  0  0  0  0  0  0  0  0  0  0
  -23.2997   -9.6809   24.2804 C   0  0  0  0  0  0  0  0  0  0  0  0
  -25.7734  -26.6857   25.0263 C   0  0  0  0  0  0  0  0  0  0  0  0
  -19.7806   -8.1171   23.7559 C   0  0  0  0  0  0  0  0  0  0  0  0
  -18.5344   -7.6918   23.2958 C   0  0  0  0  0  0  0  0  0  0  0  0
  -29.2559  -18.8187   20.5936 C   0  0  0  0  0  0  0  0  0  0  0  0
  -26.5988  -27.7144   23.0065 C   0  0  0  0  0  0  0  0  0  0  0  0
  -19.3999   -5.4529   23.0209 C   0  0  0  0  0  0  0  0  0  0  0  0
  -23.9997  -10.6262   22.1701 C   0  0  0  0  0  0  0  0  0  0  0  0
  -30.1105  -19.8981   20.2653 C   0  0  0  0  0  0  0  0  0  0  0  0
  -24.1027  -12.8534   20.9305 C   0  0  0  0  0  0  0  0  0  0  0  0
  -17.9105  -30.4518   22.6504 C   0  0  0  0  0  0  0  0  0  0  0  0
  -24.8752  -28.8203   24.2972 C   0  0  0  0  0  0  0  0  0  0  0  0
  -19.0226  -29.5993   22.7874 C   0  0  0  0  0  0  0  0  0  0  0  0
  -25.7349  -28.8049   23.1896 C   0  0  0  0  0  0  0  0  0  0  0  0
  -22.7047   -8.6149   23.6055 C   0  0  0  0  0  0  0  0  0  0  0  0
  -26.6164  -26.6600   23.9192 C   0  0  0  0  0  0  0  0  0  0  0  0
  -20.8365   -7.2103   23.8485 C   0  0  0  0  0  0  0  0  0  0  0  0
  -18.3440   -6.3597   22.9283 C   0  0  0  0  0  0  0  0  0  0  0  0
  -20.6462   -5.8783   23.4810 C   0  0  0  0  0  0  0  0  0  0  0  0
  -24.6691  -11.6650   21.4292 C   0  0  0  0  0  0  0  0  0  0  0  0
  -31.2899  -19.3349   19.8366 C   0  0  0  0  0  0  0  0  0  0  0  0
  -25.1450  -13.4957   20.3081 C   0  0  0  0  0  0  0  0  0  0  0  0
  -29.9739  -17.6728   20.3418 C   0  0  0  0  0  0  0  0  0  0  0  0
  -29.8229  -21.3395   20.3549 C   0  0  0  0  0  0  0  0  0  0  0  0
  -28.6749  -21.8740   20.7997 C   0  0  0  0  0  0  0  0  0  0  0  0
  -22.7549  -13.3338   21.0219 C   0  0  0  0  0  0  0  0  0  0  0  0
  -22.6665  -30.0438   22.3663 C   0  0  0  0  0  0  0  0  0  0  0  0
  -24.9444  -32.2881   21.8218 C   0  0  0  0  0  0  0  0  0  0  0  0
  -28.2550  -33.1169   21.8279 C   0  0  0  0  0  0  0  0  0  0  0  0
  -30.4439  -15.2022   20.1946 C   0  0  0  0  0  0  0  0  0  0  0  0
  -17.8384  -31.4929   21.5616 C   0  0  0  0  0  0  0  0  0  0  0  0
  -23.9562  -29.9876   24.5319 C   0  0  0  0  0  0  0  0  0  0  0  0
  -25.7517  -29.9252   22.1831 C   0  0  0  0  0  0  0  0  0  0  0  0
  -19.1949  -31.8239   20.9446 C   0  0  0  0  0  0  0  0  0  0  0  0
  -29.7921  -11.8649   19.1389 C   0  0  0  0  0  0  0  0  0  0  0  0
  -19.9634  -30.5450   20.6273 C   0  0  0  0  0  0  0  0  0  0  0  0
  -28.3546  -11.6131   19.5996 C   0  0  0  0  0  0  0  0  0  0  0  0
  -30.5666  -12.7209   20.1394 C   0  0  0  0  0  0  0  0  0  0  0  0
  -28.4797  -13.7334   20.9691 C   0  0  0  0  0  0  0  0  0  0  0  0
  -20.2414  -29.7380   21.9012 C   0  0  1  0  0  0  0  0  0  0  0  0
  -23.6387  -30.7638   23.2575 C   0  0  1  0  0  0  0  0  0  0  0  0
  -27.6403  -12.9299   19.9624 C   0  0  2  0  0  0  0  0  0  0  0  0
  -32.5659  -19.8907   19.3583 C   0  0  0  0  0  0  0  0  0  0  0  0
  -29.8124  -35.0113   21.2961 C   0  0  0  0  0  0  0  0  0  0  0  0
  -24.6153  -31.7191   18.8422 C   0  0  0  0  0  0  0  0  0  0  0  0
  -26.7907  -32.8941   18.4486 C   0  0  0  0  0  0  0  0  0  0  0  0
  -24.8606  -34.1396   19.4212 C   0  0  0  0  0  0  0  0  0  0  0  0
  -29.2264  -33.2552   24.6201 C   0  0  0  0  0  0  0  0  0  0  0  0
  -28.4279  -23.3541   20.8775 C   0  0  0  0  0  0  0  0  0  0  0  0
  -28.0821  -23.7837   22.3020 C   0  0  0  0  0  0  0  0  0  0  0  0
  -27.7899  -25.2757   22.3822 C   0  0  0  0  0  0  0  0  0  1  0  0
  -26.0817  -32.4410   20.8409 C   0  0  1  0  0  0  0  0  0  0  0  0
  -28.9894  -34.3269   22.3764 C   0  0  2  0  0  0  0  0  0  0  0  0
  -25.5856  -32.7762   19.4060 C   0  0  0  0  0  0  0  0  0  0  0  0
  -25.9702  -11.5561   21.1477 N   0  0  0  0  0  0  0  0  0  0  0  0
  -26.2300  -12.6844   20.4653 N   0  0  0  0  0  0  0  0  0  0  0  0
  -24.8304  -31.0414   22.4530 N   0  0  0  0  0  0  0  0  0  0  0  0
  -29.8317  -13.9534   20.4321 N   0  0  0  0  0  0  0  0  0  0  0  0
  -25.2302  -14.6696   19.6470 N   0  0  0  0  0  0  0  0  0  0  0  0
  -21.8100  -12.5488   21.6966 N   0  0  0  0  0  0  0  0  0  0  0  0
  -29.6371  -16.3034   20.4795 N   0  0  0  0  0  0  0  0  0  0  0  0
  -21.3407  -30.3218   22.6395 N   0  0  0  0  0  0  0  0  0  0  0  0
  -26.9808  -33.4387   21.4106 N   0  0  0  0  0  0  0  0  0  0  0  0
  -29.9061  -33.9206   23.4789 N   0  3  0  0  0  0  0  0  0  0  0  0
  -22.3953  -14.4191   20.5058 O   0  0  0  0  0  0  0  0  0  0  0  0
  -23.0879  -29.2929   21.4945 O   0  0  0  0  0  0  0  0  0  0  0  0
  -24.1895  -33.2421   22.0260 O   0  0  0  0  0  0  0  0  0  0  0  0
  -28.7623  -31.9988   21.7716 O   0  0  0  0  0  0  0  0  0  0  0  0
  -31.5892  -15.2883   19.7441 O   0  0  0  0  0  0  0  0  0  0  0  0
  -31.2148  -17.9788   19.8801 O   0  0  0  0  0  0  0  0  0  0  0  0
  -22.0729   -7.6339   24.3062 O   0  0  0  0  0  0  0  0  0  0  0  0
  -27.4607  -25.6096   23.7299 O   0  0  0  0  0  0  0  0  0  1  0  0
  -17.1469   -5.9511   22.4879 F   0  0  0  0  0  0  0  0  0  0  0  0
  -21.6565   -5.0023   23.5689 F   0  0  0  0  0  0  0  0  0  0  0  0
  1  2  1  0  0  0  0
  1  5  2  0  0  0  0
  2  6  2  0  0  0  0
  3  8  2  0  0  0  0
  3 16  1  0  0  0  0
  4  9  1  0  0  0  0
  4 16  2  0  0  0  0
  5 19  1  0  0  0  0
  6 21  1  0  0  0  0
  7 10  2  0  0  0  0
  7 20  1  0  0  0  0
  8 23  1  0  0  0  0
  9 23  2  0  0  0  0
 10 24  1  0  0  0  0
 11 12  2  0  0  0  0
 11 25  1  0  0  0  0
 12 26  1  0  0  0  0
 13 17  1  0  0  0  0
 13 31  2  0  0  0  0
 14 22  1  0  0  0  0
 14 24  2  0  0  0  0
 15 26  2  0  0  0  0
 15 27  1  0  0  0  0
 16 28  1  0  0  0  0
 17 29  2  0  0  0  0
 17 32  1  0  0  0  0
 18 28  1  0  0  0  0
 18 30  2  0  0  0  0
 18 34  1  0  0  0  0
 19 21  2  0  0  0  0
 19 39  1  0  0  0  0
 20 22  2  0  0  0  0
 20 40  1  0  0  0  0
 21 48  1  0  0  0  0
 22 41  1  0  0  0  0
 23 79  1  0  0  0  0
 24 80  1  0  0  0  0
 25 27  2  0  0  0  0
 25 79  1  0  0  0  0
 26 81  1  0  0  0  0
 27 82  1  0  0  0  0
 28 63  2  0  0  0  0
 29 51  1  0  0  0  0
 29 78  1  0  0  0  0
 30 64  1  0  0  0  0
 30 67  1  0  0  0  0
 31 69  1  0  0  0  0
 31 78  1  0  0  0  0
 32 33  2  0  0  0  0
 33 57  1  0  0  0  0
 34 68  1  0  0  0  0
 34 73  2  0  0  0  0
 35 49  1  0  0  0  0
 35 70  1  0  0  0  0
 35 74  2  0  0  0  0
 36 60  1  0  0  0  0
 36 65  1  0  0  0  0
 36 75  2  0  0  0  0
 37 61  1  0  0  0  0
 37 71  1  0  0  0  0
 37 76  2  0  0  0  0
 38 66  1  0  0  0  0
 38 69  1  0  0  0  0
 38 77  2  0  0  0  0
 39 42  1  0  0  0  0
 40 49  1  0  0  0  0
 41 65  1  0  0  0  0
 42 44  1  0  0  0  0
 43 45  1  0  0  0  0
 43 46  1  0  0  0  0
 44 48  1  0  0  0  0
 45 50  1  0  0  0  0
 46 66  1  0  0  0  0
 47 50  1  0  0  0  0
 47 66  1  0  0  0  0
 48 70  1  0  0  0  0
 49 65  1  0  0  0  0
 50 64  1  0  0  0  0
 52 61  1  0  0  0  0
 53 62  1  0  0  0  0
 54 62  1  0  0  0  0
 55 62  1  0  0  0  0
 56 72  1  0  0  0  0
 57 58  1  0  0  0  0
 58 59  1  0  0  0  0
 59 80  1  0  0  0  0
 60 62  1  0  0  0  0
 60 71  1  0  0  0  0
 61 72  1  0  0  0  0
 63 64  1  0  0  0  0
M  CHG  1  72   1
M  ISO  4  38 100  59 101  69 100  80 101
M  END
> <Batch ID>
0121

> <Smiles>
CNC(C)C(=O)NC(C(=O)N1Cc2cc([101O:1][101CH2:1]CCC=Cc3cc([100NH:0][100C:0](=O)N4CCCC(n5nc(-c6ccc(Oc7ccc(F)cc7F)cc6)c(C(N)=O)c5N)C4)oc3C)ccc2CC1C(=O)NC1CCCc2ccccc21)C(C)(C)C

> <Shape>
0.268

> <Color>
0.158

> <Negative vol penalty>
0.000

$$$$

  -OEChem-04052301573D

 85 93  0     1  0  0  0  0  0999 V2000
  -27.7972  -32.7234   27.5010 C   0  0  0  0  0  0  0  0  0  0  0  0
  -27.9549  -31.6528   26.6268 C   0  0  0  0  0  0  0  0  0  0  0  0
  -24.2960   -8.9744   21.4399 C   0  0  0  0  0  0  0  0  0  0  0  0
  -24.8336  -10.2623   23.4121 C   0  0  0  0  0  0  0  0  0  0  0  0
  -26.5248  -33.2355   27.7518 C   0  0  0  0  0  0  0  0  0  0  0  0
  -26.8401  -31.0929   26.0037 C   0  0  0  0  0  0  0  0  0  0  0  0
  -27.6004  -30.2296   21.0720 C   0  0  0  0  0  0  0  0  0  0  0  0
  -23.9857   -7.8761   22.2418 C   0  0  0  0  0  0  0  0  0  0  0  0
  -24.5232   -9.1640   24.2139 C   0  0  0  0  0  0  0  0  0  0  0  0
  -28.3479  -29.1033   20.7306 C   0  0  0  0  0  0  0  0  0  0  0  0
  -22.7059   -4.8461   23.7900 C   0  0  0  0  0  0  0  0  0  0  0  0
  -21.5393   -4.1393   23.4984 C   0  0  0  0  0  0  0  0  0  0  0  0
  -26.3107  -27.9049   20.2480 C   0  0  0  0  0  0  0  0  0  0  0  0
  -30.1491  -18.7864   19.9412 C   0  0  0  0  0  0  0  0  0  0  0  0
  -27.9663  -20.3654   20.6656 C   0  0  0  0  0  0  0  0  0  0  0  0
  -20.2348   -6.1381   23.8731 C   0  0  0  0  0  0  0  0  0  0  0  0
  -24.7200  -10.1675   22.0251 C   0  0  0  0  0  0  0  0  0  0  0  0
  -24.1658  -12.3193   20.7719 C   0  0  0  0  0  0  0  0  0  0  0  0
  -25.3950  -32.6879   27.1240 C   0  0  0  0  0  0  0  0  0  0  0  0
  -26.1996  -30.1984   21.0143 C   0  0  0  0  0  0  0  0  0  0  0  0
  -25.5514  -31.5973   26.2473 C   0  0  0  0  0  0  0  0  0  0  0  0
  -25.5478  -29.0329   20.5867 C   0  0  0  0  0  0  0  0  0  0  0  0
  -30.3418  -20.1205   20.2996 C   0  0  0  0  0  0  0  0  0  0  0  0
  -27.7736  -19.0312   20.3071 C   0  0  0  0  0  0  0  0  0  0  0  0
  -28.8649  -18.2417   19.9449 C   0  0  0  0  0  0  0  0  0  0  0  0
  -24.0992   -7.9709   23.6288 C   0  0  0  0  0  0  0  0  0  0  0  0
  -27.7030  -27.9398   20.3213 C   0  0  0  0  0  0  0  0  0  0  0  0
  -22.6370   -6.1989   24.1231 C   0  0  0  0  0  0  0  0  0  0  0  0
  -29.2505  -20.9100   20.6618 C   0  0  0  0  0  0  0  0  0  0  0  0
  -20.3038   -4.7853   23.5399 C   0  0  0  0  0  0  0  0  0  0  0  0
  -21.4015   -6.8449   24.1646 C   0  0  0  0  0  0  0  0  0  0  0  0
  -25.0413  -11.3022   21.1973 C   0  0  0  0  0  0  0  0  0  0  0  0
  -24.9509  -13.1535   20.0142 C   0  0  0  0  0  0  0  0  0  0  0  0
  -22.7678  -12.4944   21.0381 C   0  0  0  0  0  0  0  0  0  0  0  0
  -23.8591  -30.5388   23.1379 C   0  0  0  0  0  0  0  0  0  0  0  0
  -28.8754  -24.5159   20.5044 C   0  0  0  0  0  0  0  0  0  0  0  0
  -21.9738  -30.3920   20.5023 C   0  0  0  0  0  0  0  0  0  0  0  0
  -21.5878  -29.3686   17.2696 C   0  0  0  0  0  0  0  0  0  0  0  0
  -29.6781  -15.9788   19.1935 C   0  0  0  0  0  0  0  0  0  0  0  0
  -24.0349  -33.2446   27.4628 C   0  0  0  0  0  0  0  0  0  0  0  0
  -25.4088  -31.4302   21.3603 C   0  0  0  0  0  0  0  0  0  0  0  0
  -24.0470  -28.9543   20.4883 C   0  0  0  0  0  0  0  0  0  0  0  0
  -22.9460  -32.8365   26.4739 C   0  0  0  0  0  0  0  0  0  0  0  0
  -29.6560  -12.5458   18.2496 C   0  0  0  0  0  0  0  0  0  0  0  0
  -23.0263  -31.3422   26.1781 C   0  0  0  0  0  0  0  0  0  0  0  0
  -28.3815  -11.9999   18.8973 C   0  0  0  0  0  0  0  0  0  0  0  0
  -30.3419  -13.5849   19.1348 C   0  0  0  0  0  0  0  0  0  0  0  0
  -28.2053  -14.1413   20.2279 C   0  0  0  0  0  0  0  0  0  0  0  0
  -24.3692  -30.9788   25.5331 C   0  0  1  0  0  0  0  0  0  0  0  0
  -23.9683  -31.1232   21.7579 C   0  0  1  0  0  0  0  0  0  0  0  0
  -27.4444  -13.1389   19.3448 C   0  0  2  0  0  0  0  0  0  0  0  0
  -31.7234  -20.6868   20.2882 C   0  0  0  0  0  0  0  0  0  0  0  0
  -25.8002  -18.3526   18.9172 C   0  0  0  0  0  0  0  0  0  0  0  0
  -19.9233  -29.3593   15.3916 C   0  0  0  0  0  0  0  0  0  0  0  0
  -20.4307  -28.1516   21.8843 C   0  0  0  0  0  0  0  0  0  0  0  0
  -19.4422  -27.5564   19.6624 C   0  0  0  0  0  0  0  0  0  0  0  0
  -19.0033  -29.8003   20.6599 C   0  0  0  0  0  0  0  0  0  0  0  0
  -23.3782  -30.9478   15.5203 C   0  0  0  0  0  0  0  0  0  0  0  0
  -26.3872  -18.4737   20.3199 C   0  0  0  0  0  0  0  0  0  0  0  0
  -27.8238  -25.5671   20.2140 C   0  0  0  0  0  0  0  0  0  1  0  0
  -28.3577  -23.1127   20.7451 C   0  0  0  0  0  0  0  0  0  0  0  0
  -21.2976  -29.2837   19.7319 C   0  0  1  0  0  0  0  0  0  0  0  0
  -21.0870  -30.0969   16.0354 C   0  0  2  0  0  0  0  0  0  0  0  0
  -20.0717  -28.6985   20.4882 C   0  0  0  0  0  0  0  0  0  0  0  0
  -26.2871  -11.4727   20.7469 N   0  0  0  0  0  0  0  0  0  0  0  0
  -26.2001  -12.6065   20.0307 N   0  0  0  0  0  0  0  0  0  0  0  0
  -23.3176  -30.1829   20.8433 N   0  0  0  0  0  0  0  0  0  0  0  0
  -29.3946  -14.6348   19.5159 N   0  0  0  0  0  0  0  0  0  0  0  0
  -24.6875  -14.2942   19.3419 N   0  0  0  0  0  0  0  0  0  0  0  0
  -22.1154  -11.5442   21.8355 N   0  0  0  0  0  0  0  0  0  0  0  0
  -28.6896  -16.8846   19.5770 N   0  0  0  0  0  0  0  0  0  0  0  0
  -24.3737  -31.3471   24.1335 N   0  0  0  0  0  0  0  0  0  0  0  0
  -20.9823  -29.8334   18.4178 N   0  0  0  0  0  0  0  0  0  0  0  0
  -22.1789  -30.2217   15.0288 N   0  3  0  0  0  0  0  0  0  0  0  0
  -22.1129  -13.4558   20.5688 O   0  0  0  0  0  0  0  0  0  0  0  0
  -23.3446  -29.4368   23.2884 O   0  0  0  0  0  0  0  0  0  0  0  0
  -30.0750  -24.7854   20.5430 O   0  0  0  0  0  0  0  0  0  0  0  0
  -21.3352  -31.4089   20.7847 O   0  0  0  0  0  0  0  0  0  0  0  0
  -22.4291  -28.4740   17.2195 O   0  0  0  0  0  0  0  0  0  0  0  0
  -30.7084  -16.2993   18.5953 O   0  0  0  0  0  0  0  0  0  0  0  0
  -23.7962   -6.8994   24.4115 O   0  0  0  0  0  0  0  0  0  0  0  0
  -28.4302  -26.8389   19.9881 O   0  0  0  0  0  0  0  0  0  1  0  0
  -29.4231  -22.2268   21.0172 O   0  0  0  0  0  0  0  0  0  0  0  0
  -19.1837   -4.1068   23.2584 F   0  0  0  0  0  0  0  0  0  0  0  0
  -21.3290   -8.1446   24.4829 F   0  0  0  0  0  0  0  0  0  0  0  0
  1  2  1  0  0  0  0
  1  5  2  0  0  0  0
  2  6  2  0  0  0  0
  3  8  2  0  0  0  0
  3 17  1  0  0  0  0
  4  9  1  0  0  0  0
  4 17  2  0  0  0  0
  5 19  1  0  0  0  0
  6 21  1  0  0  0  0
  7 10  2  0  0  0  0
  7 20  1  0  0  0  0
  8 26  1  0  0  0  0
  9 26  2  0  0  0  0
 10 27  1  0  0  0  0
 11 12  2  0  0  0  0
 11 28  1  0  0  0  0
 12 30  1  0  0  0  0
 13 22  1  0  0  0  0
 13 27  2  0  0  0  0
 14 23  2  0  0  0  0
 14 25  1  0  0  0  0
 15 24  1  0  0  0  0
 15 29  2  0  0  0  0
 16 30  2  0  0  0  0
 16 31  1  0  0  0  0
 17 32  1  0  0  0  0
 18 32  1  0  0  0  0
 18 33  2  0  0  0  0
 18 34  1  0  0  0  0
 19 21  2  0  0  0  0
 19 40  1  0  0  0  0
 20 22  2  0  0  0  0
 20 41  1  0  0  0  0
 21 49  1  0  0  0  0
 22 42  1  0  0  0  0
 23 29  1  0  0  0  0
 23 52  1  0  0  0  0
 24 25  2  0  0  0  0
 24 59  1  0  0  0  0
 25 71  1  0  0  0  0
 26 81  1  0  0  0  0
 27 82  1  0  0  0  0
 28 31  2  0  0  0  0
 28 81  1  0  0  0  0
 29 83  1  0  0  0  0
 30 84  1  0  0  0  0
 31 85  1  0  0  0  0
 32 65  2  0  0  0  0
 33 66  1  0  0  0  0
 33 69  1  0  0  0  0
 34 70  1  0  0  0  0
 34 75  2  0  0  0  0
 35 50  1  0  0  0  0
 35 72  1  0  0  0  0
 35 76  2  0  0  0  0
 36 60  1  0  0  0  0
 36 61  1  0  0  0  0
 36 77  2  0  0  0  0
 37 62  1  0  0  0  0
 37 67  1  0  0  0  0
 37 78  2  0  0  0  0
 38 63  1  0  0  0  0
 38 73  1  0  0  0  0
 38 79  2  0  0  0  0
 39 68  1  0  0  0  0
 39 71  1  0  0  0  0
 39 80  2  0  0  0  0
 40 43  1  0  0  0  0
 41 50  1  0  0  0  0
 42 67  1  0  0  0  0
 43 45  1  0  0  0  0
 44 46  1  0  0  0  0
 44 47  1  0  0  0  0
 45 49  1  0  0  0  0
 46 51  1  0  0  0  0
 47 68  1  0  0  0  0
 48 51  1  0  0  0  0
 48 68  1  0  0  0  0
 49 72  1  0  0  0  0
 50 67  1  0  0  0  0
 51 66  1  0  0  0  0
 53 59  1  0  0  0  0
 54 63  1  0  0  0  0
 55 64  1  0  0  0  0
 56 64  1  0  0  0  0
 57 64  1  0  0  0  0
 58 74  1  0  0  0  0
 60 82  1  0  0  0  0
 61 83  1  0  0  0  0
 62 64  1  0  0  0  0
 62 73  1  0  0  0  0
 63 74  1  0  0  0  0
 65 66  1  0  0  0  0
M  CHG  1  74   1
M  ISO  4  39 100  60 101  71 100  82 101
M  END
> <Batch ID>
0121

> <Smiles>
CCc1cc(OCC(=O)[101CH2:1][101O:1]c2ccc3c(c2)CN(C(=O)C(NC(=O)C(C)NC)C(C)(C)C)C(C(=O)NC2CCCc4ccccc42)C3)c(C)cc1[100NH:0][100C:0](=O)N1CCCC(n2nc(-c3ccc(Oc4ccc(F)cc4F)cc3)c(C(N)=O)c2N)C1

> <Shape>
0.341

> <Color>
0.134

> <Negative vol penalty>
0.000

$$$$

  -OEChem-04052301573D

 85 93  0     1  0  0  0  0  0999 V2000
  -26.2187  -23.7461   17.3294 C   0  0  0  0  0  0  0  0  0  0  0  0
  -25.1570  -24.1791   18.1172 C   0  0  0  0  0  0  0  0  0  0  0  0
  -22.7648  -10.3780   22.2562 C   0  0  0  0  0  0  0  0  0  0  0  0
  -22.3713  -10.4014   19.8726 C   0  0  0  0  0  0  0  0  0  0  0  0
  -27.5223  -24.1223   17.6504 C   0  0  0  0  0  0  0  0  0  0  0  0
  -25.3984  -24.9878   19.2272 C   0  0  0  0  0  0  0  0  0  0  0  0
  -22.1698  -28.8770   19.5364 C   0  0  0  0  0  0  0  0  0  0  0  0
  -22.2396   -9.0880   22.3303 C   0  0  0  0  0  0  0  0  0  0  0  0
  -21.8462   -9.1113   19.9467 C   0  0  0  0  0  0  0  0  0  0  0  0
  -20.8910  -28.6059   20.0211 C   0  0  0  0  0  0  0  0  0  0  0  0
  -23.2736   -5.9361   21.6747 C   0  0  0  0  0  0  0  0  0  0  0  0
  -23.9693   -4.9956   22.4343 C   0  0  0  0  0  0  0  0  0  0  0  0
  -21.6033  -23.0598   23.5436 C   0  0  0  0  0  0  0  0  0  0  0  0
  -21.5387  -29.4512   22.1856 C   0  0  0  0  0  0  0  0  0  0  0  0
  -22.0332   -4.7072   23.8505 C   0  0  0  0  0  0  0  0  0  0  0  0
  -23.7574  -23.6841   23.3435 C   0  0  0  0  0  0  0  0  0  0  0  0
  -22.8306  -11.0348   21.0274 C   0  0  0  0  0  0  0  0  0  0  0  0
  -22.9283  -22.5848   23.3824 C   0  0  0  0  0  0  0  0  0  0  0  0
  -24.7158  -12.7279   20.7319 C   0  0  0  0  0  0  0  0  0  0  0  0
  -27.7789  -24.9439   18.7593 C   0  0  0  0  0  0  0  0  0  0  0  0
  -23.1476  -29.4280   20.3771 C   0  0  0  0  0  0  0  0  0  0  0  0
  -26.7067  -25.3743   19.5642 C   0  0  0  0  0  0  0  0  0  0  0  0
  -22.8284  -29.7307   21.7085 C   0  0  0  0  0  0  0  0  0  0  0  0
  -21.7803   -8.4546   21.1756 C   0  0  0  0  0  0  0  0  0  0  0  0
  -20.5761  -28.8904   21.3466 C   0  0  0  0  0  0  0  0  0  0  0  0
  -21.9577   -6.2623   22.0030 C   0  0  0  0  0  0  0  0  0  0  0  0
  -23.3491   -4.3811   23.5221 C   0  0  0  0  0  0  0  0  0  0  0  0
  -21.3375   -5.6478   23.0909 C   0  0  0  0  0  0  0  0  0  0  0  0
  -23.3725  -12.3676   20.9503 C   0  0  0  0  0  0  0  0  0  0  0  0
  -21.6631  -24.4349   23.5981 C   0  0  0  0  0  0  0  0  0  0  0  0
  -24.7095  -14.1013   20.7455 C   0  0  0  0  0  0  0  0  0  0  0  0
  -23.3552  -21.2445   23.2778 C   0  0  0  0  0  0  0  0  0  0  0  0
  -20.6275  -25.4694   23.7525 C   0  0  0  0  0  0  0  0  0  0  0  0
  -22.5639  -20.1193   23.3117 C   0  0  0  0  0  0  0  0  0  0  0  0
  -19.3546  -25.3540   23.3423 C   0  0  0  0  0  0  0  0  0  0  0  0
  -25.8663  -11.8954   20.5342 C   0  0  0  0  0  0  0  0  0  0  0  0
  -23.1635  -18.7763   23.1784 C   0  0  0  0  0  0  0  0  0  0  0  0
  -25.9874  -28.4751   21.4405 C   0  0  0  0  0  0  0  0  0  0  0  0
  -26.0926  -31.4697   22.6829 C   0  0  0  0  0  0  0  0  0  0  0  0
  -24.3844  -34.2161   23.7720 C   0  0  0  0  0  0  0  0  0  0  0  0
  -29.2092  -25.2855   19.0942 C   0  0  0  0  0  0  0  0  0  0  0  0
  -24.5144  -29.7393   19.8318 C   0  0  0  0  0  0  0  0  0  0  0  0
  -23.8361  -30.3416   22.6464 C   0  0  0  0  0  0  0  0  0  0  0  0
  -29.3445  -26.4521   20.0694 C   0  0  0  0  0  0  0  0  0  0  0  0
  -20.8880  -17.3906   20.6617 C   0  0  0  0  0  0  0  0  0  0  0  0
  -28.3825  -26.2828   21.2411 C   0  0  0  0  0  0  0  0  0  0  0  0
  -21.4227  -15.9666   20.5348 C   0  0  0  0  0  0  0  0  0  0  0  0
  -21.0185  -17.9254   22.0870 C   0  0  0  0  0  0  0  0  0  0  0  0
  -22.9397  -16.4168   22.5035 C   0  0  0  0  0  0  0  0  0  0  0  0
  -26.9259  -26.2729   20.7619 C   0  0  1  0  0  0  0  0  0  0  0  0
  -25.5849  -29.8241   20.9154 C   0  0  1  0  0  0  0  0  0  0  0  0
  -22.8615  -15.8759   21.0673 C   0  0  1  0  0  0  0  0  0  0  0  0
  -24.7423  -36.4921   24.7666 C   0  0  0  0  0  0  0  0  0  0  0  0
  -26.6870  -30.1912   25.3888 C   0  0  0  0  0  0  0  0  0  0  0  0
  -26.0952  -32.3703   26.4702 C   0  0  0  0  0  0  0  0  0  0  0  0
  -28.0218  -32.2465   24.8904 C   0  0  0  0  0  0  0  0  0  0  0  0
  -16.8857  -25.7543   21.5368 C   0  0  0  0  0  0  0  0  0  0  0  0
  -16.5770  -27.9818   22.6255 C   0  0  0  0  0  0  0  0  0  0  0  0
  -23.5019  -26.1533   23.4802 C   0  0  0  0  0  0  0  0  0  0  0  0
  -23.1033  -35.5537   21.4636 C   0  0  0  0  0  0  0  0  0  0  0  0
  -18.3224  -26.4339   23.5329 C   0  0  0  0  0  0  0  0  0  0  0  0
  -18.6259  -27.5341   21.2310 C   0  0  0  0  0  0  0  0  0  1  0  0
  -25.6655  -32.1024   23.9853 C   0  0  1  0  0  0  0  0  0  0  0  0
  -24.5661  -35.6953   23.4833 C   0  0  2  0  0  0  0  0  0  0  0  0
  -26.5987  -31.7143   25.1668 C   0  0  0  0  0  0  0  0  0  0  0  0
  -17.6218  -26.9163   22.2301 C   0  0  0  0  0  0  0  0  0  0  0  0
  -22.5712  -13.4267   21.0924 N   0  0  0  0  0  0  0  0  0  0  0  0
  -22.9774  -24.8032   23.4752 N   0  0  0  0  0  0  0  0  0  0  0  0
  -23.4135  -14.4660   20.9631 N   0  0  0  0  0  0  0  0  0  0  0  0
  -22.3902  -17.7741   22.5952 N   0  0  0  0  0  0  0  0  0  0  0  0
  -25.1607  -30.6216   22.0679 N   0  0  0  0  0  0  0  0  0  0  0  0
  -25.6863  -15.0205   20.5925 N   0  0  0  0  0  0  0  0  0  0  0  0
  -25.6952  -10.5045   20.5496 N   0  0  0  0  0  0  0  0  0  0  0  0
  -26.4794  -27.6190   20.4738 N   0  0  0  0  0  0  0  0  0  0  0  0
  -25.5840  -33.5373   23.7346 N   0  0  0  0  0  0  0  0  0  0  0  0
  -23.3803  -36.2307   22.7567 N   0  3  0  0  0  0  0  0  0  0  0  0
  -27.0148  -12.3709   20.3658 O   0  0  0  0  0  0  0  0  0  0  0  0
  -24.3124  -18.6225   23.5967 O   0  0  0  0  0  0  0  0  0  0  0  0
  -25.8624  -28.2296   22.6345 O   0  0  0  0  0  0  0  0  0  0  0  0
  -27.2091  -31.7243   22.2243 O   0  0  0  0  0  0  0  0  0  0  0  0
  -23.2884  -33.7138   24.0108 O   0  0  0  0  0  0  0  0  0  0  0  0
  -21.2680   -7.1956   21.2475 O   0  0  0  0  0  0  0  0  0  0  0  0
  -19.3288  -28.6262   21.8224 O   0  0  0  0  0  0  0  0  0  1  0  0
  -24.0169   -3.4769   24.2505 F   0  0  0  0  0  0  0  0  0  0  0  0
  -20.0732   -5.9561   23.4105 F   0  0  0  0  0  0  0  0  0  0  0  0
  1  2  1  0  0  0  0
  1  5  2  0  0  0  0
  2  6  2  0  0  0  0
  3  8  2  0  0  0  0
  3 17  1  0  0  0  0
  4  9  1  0  0  0  0
  4 17  2  0  0  0  0
  5 20  1  0  0  0  0
  6 22  1  0  0  0  0
  7 10  2  0  0  0  0
  7 21  1  0  0  0  0
  8 24  1  0  0  0  0
  9 24  2  0  0  0  0
 10 25  1  0  0  0  0
 11 12  2  0  0  0  0
 11 26  1  0  0  0  0
 12 27  1  0  0  0  0
 13 18  1  0  0  0  0
 13 30  2  0  0  0  0
 14 23  1  0  0  0  0
 14 25  2  0  0  0  0
 15 27  2  0  0  0  0
 15 28  1  0  0  0  0
 16 18  2  0  0  0  0
 16 68  1  0  0  0  0
 17 29  1  0  0  0  0
 18 32  1  0  0  0  0
 19 29  1  0  0  0  0
 19 31  2  0  0  0  0
 19 36  1  0  0  0  0
 20 22  2  0  0  0  0
 20 41  1  0  0  0  0
 21 23  2  0  0  0  0
 21 42  1  0  0  0  0
 22 50  1  0  0  0  0
 23 43  1  0  0  0  0
 24 82  1  0  0  0  0
 25 83  1  0  0  0  0
 26 28  2  0  0  0  0
 26 82  1  0  0  0  0
 27 84  1  0  0  0  0
 28 85  1  0  0  0  0
 29 67  2  0  0  0  0
 30 33  1  0  0  0  0
 30 68  1  0  0  0  0
 31 69  1  0  0  0  0
 31 72  1  0  0  0  0
 32 34  2  0  0  0  0
 33 35  2  0  0  0  0
 34 37  1  0  0  0  0
 35 61  1  0  0  0  0
 36 73  1  0  0  0  0
 36 77  2  0  0  0  0
 37 70  1  0  0  0  0
 37 78  2  0  0  0  0
 38 51  1  0  0  0  0
 38 74  1  0  0  0  0
 38 79  2  0  0  0  0
 39 63  1  0  0  0  0
 39 71  1  0  0  0  0
 39 80  2  0  0  0  0
 40 64  1  0  0  0  0
 40 75  1  0  0  0  0
 40 81  2  0  0  0  0
 41 44  1  0  0  0  0
 42 51  1  0  0  0  0
 43 71  1  0  0  0  0
 44 46  1  0  0  0  0
 45 47  1  0  0  0  0
 45 48  1  0  0  0  0
 46 50  1  0  0  0  0
 47 52  1  0  0  0  0
 48 70  1  0  0  0  0
 49 52  1  0  0  0  0
 49 70  1  0  0  0  0
 50 74  1  0  0  0  0
 51 71  1  0  0  0  0
 52 69  1  0  0  0  0
 53 64  1  0  0  0  0
 54 65  1  0  0  0  0
 55 65  1  0  0  0  0
 56 65  1  0  0  0  0
 57 66  1  0  0  0  0
 58 66  1  0  0  0  0
 59 68  1  0  0  0  0
 60 76  1  0  0  0  0
 61 66  1  0  0  0  0
 62 66  1  0  0  0  0
 62 83  1  0  0  0  0
 63 65  1  0  0  0  0
 63 75  1  0  0  0  0
 64 76  1  0  0  0  0
 67 69  1  0  0  0  0
M  CHG  1  76   1
M  ISO  4  34 100  37 100  62 101  83 101
M  END
> <Batch ID>
0121

> <Smiles>
CNC(C)C(=O)NC(C(=O)N1Cc2cc([101O:1][101CH2:1]C(C)(C)CC=Cc3cc(C=[100CH:0][100C:0](=O)N4CCCC(n5nc(-c6ccc(Oc7ccc(F)cc7F)cc6)c(C(N)=O)c5N)C4)cn3C)ccc2CC1C(=O)NC1CCCc2ccccc21)C(C)(C)C

> <Shape>
0.314

> <Color>
0.121

> <Negative vol penalty>
0.000

$$$$

  -OEChem-04052301573D

 86 95  0     1  0  0  0  0  0999 V2000
  -28.4265  -35.4144   25.2059 C   0  0  0  0  0  0  0  0  0  0  0  0
  -28.7962  -34.3115   24.4428 C   0  0  0  0  0  0  0  0  0  0  0  0
  -24.8843   -9.0572   22.0292 C   0  0  0  0  0  0  0  0  0  0  0  0
  -23.3894  -10.1270   20.4614 C   0  0  0  0  0  0  0  0  0  0  0  0
  -27.2570  -35.3758   25.9639 C   0  0  0  0  0  0  0  0  0  0  0  0
  -27.9971  -33.1687   24.4383 C   0  0  0  0  0  0  0  0  0  0  0  0
  -27.0262  -29.3740   19.7305 C   0  0  0  0  0  0  0  0  0  0  0  0
  -23.7944   -8.4544   22.6571 C   0  0  0  0  0  0  0  0  0  0  0  0
  -22.2995   -9.5242   21.0893 C   0  0  0  0  0  0  0  0  0  0  0  0
  -27.5868  -28.1451   19.3853 C   0  0  0  0  0  0  0  0  0  0  0  0
  -21.7526   -5.8149   22.1124 C   0  0  0  0  0  0  0  0  0  0  0  0
  -21.8564   -4.4614   22.4333 C   0  0  0  0  0  0  0  0  0  0  0  0
  -33.6585  -18.8874   18.8563 C   0  0  0  0  0  0  0  0  0  0  0  0
  -31.4216  -19.7883   19.0022 C   0  0  0  0  0  0  0  0  0  0  0  0
  -25.7393  -27.0117   20.4443 C   0  0  0  0  0  0  0  0  0  0  0  0
  -33.2839  -21.2507   18.5222 C   0  0  0  0  0  0  0  0  0  0  0  0
  -21.5387   -4.9909   24.7691 C   0  0  0  0  0  0  0  0  0  0  0  0
  -24.6818   -9.8936   20.9314 C   0  0  0  0  0  0  0  0  0  0  0  0
  -32.2922  -18.7003   19.0650 C   0  0  0  0  0  0  0  0  0  0  0  0
  -26.8978   -9.8732   19.6678 C   0  0  0  0  0  0  0  0  0  0  0  0
  -26.4381  -34.2355   25.9611 C   0  0  0  0  0  0  0  0  0  0  0  0
  -25.8215  -29.4310   20.4459 C   0  0  0  0  0  0  0  0  0  0  0  0
  -26.8163  -33.1143   25.1981 C   0  0  0  0  0  0  0  0  0  0  0  0
  -25.1642  -28.2426   20.7951 C   0  0  0  0  0  0  0  0  0  0  0  0
  -34.1544  -20.1627   18.5850 C   0  0  0  0  0  0  0  0  0  0  0  0
  -31.9174  -21.0636   18.7308 C   0  0  0  0  0  0  0  0  0  0  0  0
  -22.5020   -8.6879   22.1872 C   0  0  0  0  0  0  0  0  0  0  0  0
  -26.9449  -26.9636   19.7447 C   0  0  0  0  0  0  0  0  0  0  0  0
  -21.5419   -6.7564   23.1199 C   0  0  0  0  0  0  0  0  0  0  0  0
  -21.7494   -4.0494   23.7617 C   0  0  0  0  0  0  0  0  0  0  0  0
  -21.4349   -6.3444   24.4482 C   0  0  0  0  0  0  0  0  0  0  0  0
  -25.8073  -10.5170   20.2826 C   0  0  0  0  0  0  0  0  0  0  0  0
  -27.6864  -10.8988   19.2065 C   0  0  0  0  0  0  0  0  0  0  0  0
  -31.7750  -17.3709   19.3493 C   0  0  0  0  0  0  0  0  0  0  0  0
  -30.5878  -17.1005   19.9324 C   0  0  0  0  0  0  0  0  0  0  0  0
  -27.1733   -8.4733   19.5261 C   0  0  0  0  0  0  0  0  0  0  0  0
  -30.1980  -15.6921   20.1454 C   0  0  0  0  0  0  0  0  0  0  0  0
  -24.9506  -30.5615   23.2862 C   0  0  0  0  0  0  0  0  0  0  0  0
  -21.9779  -29.7756   22.2530 C   0  0  0  0  0  0  0  0  0  0  0  0
  -20.0361  -27.8665   20.1959 C   0  0  0  0  0  0  0  0  0  0  0  0
  -25.2080  -34.2231   26.8336 C   0  0  0  0  0  0  0  0  0  0  0  0
  -25.2161  -30.7649   20.7874 C   0  0  0  0  0  0  0  0  0  0  0  0
  -23.8585  -28.2497   21.5457 C   0  0  0  0  0  0  0  0  0  0  0  0
  -24.2219  -33.1126   26.4804 C   0  0  0  0  0  0  0  0  0  0  0  0
  -26.7847  -15.8453   18.8198 C   0  0  0  0  0  0  0  0  0  0  0  0
  -24.9538  -31.7864   26.2998 C   0  0  0  0  0  0  0  0  0  0  0  0
  -26.3041  -14.4203   19.0807 C   0  0  0  0  0  0  0  0  0  0  0  0
  -30.4878  -24.3283   17.6433 C   0  0  0  0  0  0  0  0  0  0  0  0
  -29.3388  -23.5822   19.7375 C   0  0  0  0  0  0  0  0  0  0  0  0
  -27.7391  -16.3350   19.9078 C   0  0  0  0  0  0  0  0  0  0  0  0
  -30.9778  -22.9011   17.4069 C   0  0  0  0  0  0  0  0  0  0  0  0
  -29.8351  -22.1564   19.5010 C   0  0  0  0  0  0  0  0  0  0  0  0
  -28.4211  -14.0029   20.3938 C   0  0  0  0  0  0  0  0  0  0  0  0
  -25.9628  -31.8656   25.1478 C   0  0  1  0  0  0  0  0  0  0  0  0
  -24.2484  -30.6981   21.9649 C   0  0  1  0  0  0  0  0  0  0  0  0
  -29.1720  -24.3522   18.4253 C   0  0  0  0  0  0  0  0  0  0  0  0
  -27.4966  -13.4728   19.2867 C   0  0  1  0  0  0  0  0  0  0  0  0
  -35.6157  -20.3629   18.3635 C   0  0  0  0  0  0  0  0  0  0  0  0
  -17.6384  -27.4210   19.6045 C   0  0  0  0  0  0  0  0  0  0  0  0
  -21.6440  -28.1700   24.8261 C   0  0  0  0  0  0  0  0  0  0  0  0
  -19.6907  -27.0143   23.7692 C   0  0  0  0  0  0  0  0  0  0  0  0
  -19.6255  -29.4796   24.1443 C   0  0  0  0  0  0  0  0  0  0  0  0
  -20.4493  -28.7151   17.3909 C   0  0  0  0  0  0  0  0  0  0  0  0
  -28.7221  -25.7871   18.6896 C   0  0  0  0  0  0  0  0  0  1  0  0
  -21.1118  -28.5413   22.3271 C   0  0  1  0  0  0  0  0  0  0  0  0
  -18.8843  -28.2287   19.2758 C   0  0  2  0  0  0  0  0  0  0  0  0
  -20.5436  -28.3008   23.7542 C   0  0  0  0  0  0  0  0  0  0  0  0
  -25.8921  -11.8485   20.2196 N   0  0  0  0  0  0  0  0  0  0  0  0
  -27.0454  -12.0497   19.5597 N   0  0  0  0  0  0  0  0  0  0  0  0
  -31.0442  -22.1571   18.6715 N   0  0  0  0  0  0  0  0  0  0  0  0
  -28.8390  -15.3837   20.1271 N   0  0  0  0  0  0  0  0  0  0  0  0
  -23.3099  -29.5787   21.8623 N   0  0  0  0  0  0  0  0  0  0  0  0
  -28.8587  -10.9194   18.5374 N   0  0  0  0  0  0  0  0  0  0  0  0
  -26.2580   -7.5550   20.0583 N   0  0  0  0  0  0  0  0  0  0  0  0
  -25.2839  -31.7671   23.8735 N   0  0  0  0  0  0  0  0  0  0  0  0
  -20.0915  -28.6961   21.2959 N   0  0  0  0  0  0  0  0  0  0  0  0
  -19.2534  -27.9665   17.8560 N   0  3  0  0  0  0  0  0  0  0  0  0
  -28.2089   -8.0495   18.9592 O   0  0  0  0  0  0  0  0  0  0  0  0
  -31.1009  -14.8742   20.3317 O   0  0  0  0  0  0  0  0  0  0  0  0
  -25.1722  -29.4449   23.7400 O   0  0  0  0  0  0  0  0  0  0  0  0
  -21.4885  -30.8749   22.5247 O   0  0  0  0  0  0  0  0  0  0  0  0
  -20.8072  -26.9379   19.9640 O   0  0  0  0  0  0  0  0  0  0  0  0
  -21.4382   -8.0996   22.7995 O   0  0  0  0  0  0  0  0  0  0  0  0
  -27.4902  -25.7627   19.4095 O   0  0  0  0  0  0  0  0  0  1  0  0
  -21.8476   -2.7495   24.0695 F   0  0  0  0  0  0  0  0  0  0  0  0
  -21.2313   -7.2441   25.4202 F   0  0  0  0  0  0  0  0  0  0  0  0
  1  2  1  0  0  0  0
  1  5  2  0  0  0  0
  2  6  2  0  0  0  0
  3  8  2  0  0  0  0
  3 18  1  0  0  0  0
  4  9  1  0  0  0  0
  4 18  2  0  0  0  0
  5 21  1  0  0  0  0
  6 23  1  0  0  0  0
  7 10  2  0  0  0  0
  7 22  1  0  0  0  0
  8 27  1  0  0  0  0
  9 27  2  0  0  0  0
 10 28  1  0  0  0  0
 11 12  2  0  0  0  0
 11 29  1  0  0  0  0
 12 30  1  0  0  0  0
 13 19  2  0  0  0  0
 13 25  1  0  0  0  0
 14 19  1  0  0  0  0
 14 26  2  0  0  0  0
 15 24  1  0  0  0  0
 15 28  2  0  0  0  0
 16 25  2  0  0  0  0
 16 26  1  0  0  0  0
 17 30  2  0  0  0  0
 17 31  1  0  0  0  0
 18 32  1  0  0  0  0
 19 34  1  0  0  0  0
 20 32  1  0  0  0  0
 20 33  2  0  0  0  0
 20 36  1  0  0  0  0
 21 23  2  0  0  0  0
 21 41  1  0  0  0  0
 22 24  2  0  0  0  0
 22 42  1  0  0  0  0
 23 54  1  0  0  0  0
 24 43  1  0  0  0  0
 25 58  1  0  0  0  0
 26 70  1  0  0  0  0
 27 83  1  0  0  0  0
 28 84  1  0  0  0  0
 29 31  2  0  0  0  0
 29 83  1  0  0  0  0
 30 85  1  0  0  0  0
 31 86  1  0  0  0  0
 32 68  2  0  0  0  0
 33 69  1  0  0  0  0
 33 73  1  0  0  0  0
 34 35  2  0  0  0  0
 35 37  1  0  0  0  0
 36 74  1  0  0  0  0
 36 78  2  0  0  0  0
 37 71  1  0  0  0  0
 37 79  2  0  0  0  0
 38 55  1  0  0  0  0
 38 75  1  0  0  0  0
 38 80  2  0  0  0  0
 39 65  1  0  0  0  0
 39 72  1  0  0  0  0
 39 81  2  0  0  0  0
 40 66  1  0  0  0  0
 40 76  1  0  0  0  0
 40 82  2  0  0  0  0
 41 44  1  0  0  0  0
 42 55  1  0  0  0  0
 43 72  1  0  0  0  0
 44 46  1  0  0  0  0
 45 47  1  0  0  0  0
 45 50  1  0  0  0  0
 46 54  1  0  0  0  0
 47 57  1  0  0  0  0
 48 51  1  0  0  0  0
 48 56  1  0  0  0  0
 49 52  1  0  0  0  0
 49 56  1  0  0  0  0
 50 71  1  0  0  0  0
 51 70  1  0  0  0  0
 52 70  1  0  0  0  0
 53 57  1  0  0  0  0
 53 71  1  0  0  0  0
 54 75  1  0  0  0  0
 55 72  1  0  0  0  0
 56 64  1  0  0  0  0
 57 69  1  0  0  0  0
 59 66  1  0  0  0  0
 60 67  1  0  0  0  0
 61 67  1  0  0  0  0
 62 67  1  0  0  0  0
 63 77  1  0  0  0  0
 64 84  1  0  0  0  0
 65 67  1  0  0  0  0
 65 76  1  0  0  0  0
 66 77  1  0  0  0  0
 68 69  1  0  0  0  0
M  CHG  1  77   1
M  ISO  4  35 100  37 100  64 101  84 101
M  END
> <Batch ID>
0121

> <Smiles>
CNC(C)C(=O)NC(C(=O)N1Cc2cc([101O:1][101CH2:1]C3CCN(c4cc(C)cc(C=[100CH:0][100C:0](=O)N5CCCC(n6nc(-c7ccc(Oc8ccc(F)cc8F)cc7)c(C(N)=O)c6N)C5)c4)CC3)ccc2CC1C(=O)NC1CCCc2ccccc21)C(C)(C)C

> <Shape>
0.334

> <Color>
0.098

> <Negative vol penalty>
0.000

$$$$

  -OEChem-04052301573D

 83 91  0     1  0  0  0  0  0999 V2000
  -27.8891  -31.7571   17.8291 C   0  0  0  0  0  0  0  0  0  0  0  0
  -27.9218  -30.4548   18.3173 C   0  0  0  0  0  0  0  0  0  0  0  0
  -22.9500   -9.9869   19.9580 C   0  0  0  0  0  0  0  0  0  0  0  0
  -23.7481   -9.9087   22.2370 C   0  0  0  0  0  0  0  0  0  0  0  0
  -26.7488  -32.5392   18.0083 C   0  0  0  0  0  0  0  0  0  0  0  0
  -26.8145  -29.9342   18.9860 C   0  0  0  0  0  0  0  0  0  0  0  0
  -25.6754  -25.2322   17.4896 C   0  0  0  0  0  0  0  0  0  0  0  0
  -29.9302  -19.0876   22.5119 C   0  0  0  0  0  0  0  0  0  0  0  0
  -29.7130  -17.7104   22.4722 C   0  0  0  0  0  0  0  0  0  0  0  0
  -22.1701   -8.8544   20.1922 C   0  0  0  0  0  0  0  0  0  0  0  0
  -22.9682   -8.7762   22.4713 C   0  0  0  0  0  0  0  0  0  0  0  0
  -26.4590  -24.1958   17.9951 C   0  0  0  0  0  0  0  0  0  0  0  0
  -23.1320   -5.4614   21.8261 C   0  0  0  0  0  0  0  0  0  0  0  0
  -23.7228   -4.3972   22.5072 C   0  0  0  0  0  0  0  0  0  0  0  0
  -31.3070  -17.5111   20.6675 C   0  0  0  0  0  0  0  0  0  0  0  0
  -24.7440  -23.6983   19.6170 C   0  0  0  0  0  0  0  0  0  0  0  0
  -22.0575   -4.5864   24.2473 C   0  0  0  0  0  0  0  0  0  0  0  0
  -23.7390  -10.5140   20.9804 C   0  0  0  0  0  0  0  0  0  0  0  0
  -31.5241  -18.8884   20.7072 C   0  0  0  0  0  0  0  0  0  0  0  0
  -24.1679  -13.0279   20.9174 C   0  0  0  0  0  0  0  0  0  0  0  0
  -25.6234  -32.0245   18.6710 C   0  0  0  0  0  0  0  0  0  0  0  0
  -24.4228  -25.5170   18.0521 C   0  0  0  0  0  0  0  0  0  0  0  0
  -25.6586  -30.7105   19.1754 C   0  0  0  0  0  0  0  0  0  0  0  0
  -23.9454  -24.7372   19.1152 C   0  0  0  0  0  0  0  0  0  0  0  0
  -30.8357  -19.6767   21.6293 C   0  0  0  0  0  0  0  0  0  0  0  0
  -30.4014  -16.9221   21.5501 C   0  0  0  0  0  0  0  0  0  0  0  0
  -22.1792   -8.2491   21.4488 C   0  0  0  0  0  0  0  0  0  0  0  0
  -25.9946  -23.4305   19.0608 C   0  0  0  0  0  0  0  0  0  0  0  0
  -22.0040   -6.0882   22.3556 C   0  0  0  0  0  0  0  0  0  0  0  0
  -23.1856   -3.9597   23.7178 C   0  0  0  0  0  0  0  0  0  0  0  0
  -21.4667   -5.6507   23.5662 C   0  0  0  0  0  0  0  0  0  0  0  0
  -24.5453  -11.6835   20.7389 C   0  0  0  0  0  0  0  0  0  0  0  0
  -25.2796  -13.7479   20.5537 C   0  0  0  0  0  0  0  0  0  0  0  0
  -32.3343  -19.4263   18.4557 C   0  0  0  0  0  0  0  0  0  0  0  0
  -32.4757  -19.4737   19.7718 C   0  0  0  0  0  0  0  0  0  0  0  0
  -22.9237  -13.5769   21.3715 C   0  0  0  0  0  0  0  0  0  0  0  0
  -23.1437  -28.0261   19.5257 C   0  0  0  0  0  0  0  0  0  0  0  0
  -20.4389  -26.2416   19.3791 C   0  0  0  0  0  0  0  0  0  0  0  0
  -19.0186  -23.1484   19.1312 C   0  0  0  0  0  0  0  0  0  0  0  0
  -30.7815  -14.5971   20.6578 C   0  0  0  0  0  0  0  0  0  0  0  0
  -24.4312  -32.9237   18.8823 C   0  0  0  0  0  0  0  0  0  0  0  0
  -23.5781  -26.6212   17.4780 C   0  0  0  0  0  0  0  0  0  0  0  0
  -22.5989  -24.9892   19.7412 C   0  0  0  0  0  0  0  0  0  0  0  0
  -23.1620  -32.1707   19.2728 C   0  0  0  0  0  0  0  0  0  0  0  0
  -29.5428  -12.2850   18.2500 C   0  0  0  0  0  0  0  0  0  0  0  0
  -23.4613  -31.1521   20.3681 C   0  0  0  0  0  0  0  0  0  0  0  0
  -28.1012  -12.0330   18.6976 C   0  0  0  0  0  0  0  0  0  0  0  0
  -30.4855  -12.4509   19.4407 C   0  0  0  0  0  0  0  0  0  0  0  0
  -28.6289  -13.2060   20.8731 C   0  0  0  0  0  0  0  0  0  0  0  0
  -24.4683  -30.1017   19.8844 C   0  0  1  0  0  0  0  0  0  0  0  0
  -22.5407  -27.1531   18.4619 C   0  0  1  0  0  0  0  0  0  0  0  0
  -27.6309  -13.0970   19.7087 C   0  0  2  0  0  0  0  0  0  0  0  0
  -16.7855  -22.0048   19.0757 C   0  0  0  0  0  0  0  0  0  0  0  0
  -20.1641  -26.6371   22.3920 C   0  0  0  0  0  0  0  0  0  0  0  0
  -18.5243  -24.7454   22.4205 C   0  0  0  0  0  0  0  0  0  0  0  0
  -18.0196  -26.8116   21.1171 C   0  0  0  0  0  0  0  0  0  0  0  0
  -19.5163  -22.0543   16.4268 C   0  0  0  0  0  0  0  0  0  0  0  0
  -31.0449  -21.1683   21.7006 C   0  0  0  0  0  0  0  0  0  0  0  0
  -30.3497  -21.9454   20.5772 C   0  0  0  0  0  0  0  0  0  0  0  0
  -28.8264  -21.8144   20.6125 C   0  0  0  0  0  0  0  0  0  0  0  0
  -28.1738  -22.5658   19.4600 C   0  0  0  0  0  0  0  0  0  1  0  0
  -19.7867  -25.2134   20.2715 C   0  0  1  0  0  0  0  0  0  0  0  0
  -17.9029  -22.6201   18.2477 C   0  0  2  0  0  0  0  0  0  0  0  0
  -19.1499  -25.8481   21.5400 C   0  0  0  0  0  0  0  0  0  0  0  0
  -25.7988  -11.5543   20.2961 N   0  0  0  0  0  0  0  0  0  0  0  0
  -26.2187  -12.8268   20.1932 N   0  0  0  0  0  0  0  0  0  0  0  0
  -21.8129  -26.0840   19.1487 N   0  0  0  0  0  0  0  0  0  0  0  0
  -29.9782  -13.4778   20.3533 N   0  0  0  0  0  0  0  0  0  0  0  0
  -25.5357  -15.0726   20.5103 N   0  0  0  0  0  0  0  0  0  0  0  0
  -21.8860  -12.6953   21.7038 N   0  0  0  0  0  0  0  0  0  0  0  0
  -30.1811  -15.5229   21.5104 N   0  0  0  0  0  0  0  0  0  0  0  0
  -23.8153  -29.1293   19.0343 N   0  0  0  0  0  0  0  0  0  0  0  0
  -18.8440  -24.4828   19.4313 N   0  0  0  0  0  0  0  0  0  0  0  0
  -18.4269  -21.5796   17.3183 N   0  3  0  0  0  0  0  0  0  0  0  0
  -22.7321  -14.8132   21.4637 O   0  0  0  0  0  0  0  0  0  0  0  0
  -23.0084  -27.7223   20.7052 O   0  0  0  0  0  0  0  0  0  0  0  0
  -19.7529  -27.1470   18.8981 O   0  0  0  0  0  0  0  0  0  0  0  0
  -19.9497  -22.4465   19.5197 O   0  0  0  0  0  0  0  0  0  0  0  0
  -31.9079  -14.7381   20.1746 O   0  0  0  0  0  0  0  0  0  0  0  0
  -21.4181   -7.1442   21.6778 O   0  0  0  0  0  0  0  0  0  0  0  0
  -26.7577  -22.4186   19.5566 O   0  0  0  0  0  0  0  0  0  1  0  0
  -23.7521   -2.9367   24.3710 F   0  0  0  0  0  0  0  0  0  0  0  0
  -20.3825   -6.2482   24.0793 F   0  0  0  0  0  0  0  0  0  0  0  0
  1  2  1  0  0  0  0
  1  5  2  0  0  0  0
  2  6  2  0  0  0  0
  3 10  2  0  0  0  0
  3 18  1  0  0  0  0
  4 11  1  0  0  0  0
  4 18  2  0  0  0  0
  5 21  1  0  0  0  0
  6 23  1  0  0  0  0
  7 12  2  0  0  0  0
  7 22  1  0  0  0  0
  8  9  2  0  0  0  0
  8 25  1  0  0  0  0
  9 26  1  0  0  0  0
 10 27  1  0  0  0  0
 11 27  2  0  0  0  0
 12 28  1  0  0  0  0
 13 14  2  0  0  0  0
 13 29  1  0  0  0  0
 14 30  1  0  0  0  0
 15 19  1  0  0  0  0
 15 26  2  0  0  0  0
 16 24  1  0  0  0  0
 16 28  2  0  0  0  0
 17 30  2  0  0  0  0
 17 31  1  0  0  0  0
 18 32  1  0  0  0  0
 19 25  2  0  0  0  0
 19 35  1  0  0  0  0
 20 32  1  0  0  0  0
 20 33  2  0  0  0  0
 20 36  1  0  0  0  0
 21 23  2  0  0  0  0
 21 41  1  0  0  0  0
 22 24  2  0  0  0  0
 22 42  1  0  0  0  0
 23 50  1  0  0  0  0
 24 43  1  0  0  0  0
 25 58  1  0  0  0  0
 26 71  1  0  0  0  0
 27 80  1  0  0  0  0
 28 81  1  0  0  0  0
 29 31  2  0  0  0  0
 29 80  1  0  0  0  0
 30 82  1  0  0  0  0
 31 83  1  0  0  0  0
 32 65  2  0  0  0  0
 33 66  1  0  0  0  0
 33 69  1  0  0  0  0
 34 35  2  0  0  0  0
 36 70  1  0  0  0  0
 36 75  2  0  0  0  0
 37 51  1  0  0  0  0
 37 72  1  0  0  0  0
 37 76  2  0  0  0  0
 38 62  1  0  0  0  0
 38 67  1  0  0  0  0
 38 77  2  0  0  0  0
 39 63  1  0  0  0  0
 39 73  1  0  0  0  0
 39 78  2  0  0  0  0
 40 68  1  0  0  0  0
 40 71  1  0  0  0  0
 40 79  2  0  0  0  0
 41 44  1  0  0  0  0
 42 51  1  0  0  0  0
 43 67  1  0  0  0  0
 44 46  1  0  0  0  0
 45 47  1  0  0  0  0
 45 48  1  0  0  0  0
 46 50  1  0  0  0  0
 47 52  1  0  0  0  0
 48 68  1  0  0  0  0
 49 52  1  0  0  0  0
 49 68  1  0  0  0  0
 50 72  1  0  0  0  0
 51 67  1  0  0  0  0
 52 66  1  0  0  0  0
 53 63  1  0  0  0  0
 54 64  1  0  0  0  0
 55 64  1  0  0  0  0
 56 64  1  0  0  0  0
 57 74  1  0  0  0  0
 58 59  1  0  0  0  0
 59 60  1  0  0  0  0
 60 61  1  0  0  0  0
 61 81  1  0  0  0  0
 62 64  1  0  0  0  0
 62 73  1  0  0  0  0
 63 74  1  0  0  0  0
 65 66  1  0  0  0  0
M  CHG  1  74   1
M  ISO  4  40 100  61 101  71 100  81 101
M  END
> <Batch ID>
0121

> <Smiles>
C=Cc1cc([100NH:0][100C:0](=O)N2CCCC(n3nc(-c4ccc(Oc5ccc(F)cc5F)cc4)c(C(N)=O)c3N)C2)ccc1CCC[101CH2:1][101O:1]c1ccc2c(c1)CN(C(=O)C(NC(=O)C(C)NC)C(C)(C)C)C(C(=O)NC1CCCc3ccccc31)C2

> <Shape>
0.272

> <Color>
0.199

> <Negative vol penalty>
0.000

$$$$

  -OEChem-04052301573D

 84 92  0     1  0  0  0  0  0999 V2000
  -28.6016  -35.7817   24.0597 C   0  0  0  0  0  0  0  0  0  0  0  0
  -28.7503  -34.4234   23.7981 C   0  0  0  0  0  0  0  0  0  0  0  0
  -23.8474   -9.6395   21.8695 C   0  0  0  0  0  0  0  0  0  0  0  0
  -24.5911  -10.9772   23.7389 C   0  0  0  0  0  0  0  0  0  0  0  0
  -31.2819  -19.7794   19.8717 C   0  0  0  0  0  0  0  0  0  0  0  0
  -27.3480  -36.2931   24.3927 C   0  0  0  0  0  0  0  0  0  0  0  0
  -27.6456  -33.5756   23.8704 C   0  0  0  0  0  0  0  0  0  0  0  0
  -27.4072  -30.3583   19.9669 C   0  0  0  0  0  0  0  0  0  0  0  0
  -30.9075  -18.4615   19.6103 C   0  0  0  0  0  0  0  0  0  0  0  0
  -23.4122   -8.6498   22.7508 C   0  0  0  0  0  0  0  0  0  0  0  0
  -24.1559   -9.9874   24.6202 C   0  0  0  0  0  0  0  0  0  0  0  0
  -28.2515  -29.2495   20.0032 C   0  0  0  0  0  0  0  0  0  0  0  0
  -20.7577   -8.1077   24.7737 C   0  0  0  0  0  0  0  0  0  0  0  0
  -19.5007   -7.5464   24.5487 C   0  0  0  0  0  0  0  0  0  0  0  0
  -28.9677  -20.3623   20.2482 C   0  0  0  0  0  0  0  0  0  0  0  0
  -26.4146  -27.8832   20.7635 C   0  0  0  0  0  0  0  0  0  0  0  0
  -20.5176   -5.3689   24.3003 C   0  0  0  0  0  0  0  0  0  0  0  0
  -24.4369  -10.8032   22.3636 C   0  0  0  0  0  0  0  0  0  0  0  0
  -30.3120  -20.7299   20.1907 C   0  0  0  0  0  0  0  0  0  0  0  0
  -24.1442  -12.9183   20.9677 C   0  0  0  0  0  0  0  0  0  0  0  0
  -26.2255  -35.4527   24.4596 C   0  0  0  0  0  0  0  0  0  0  0  0
  -26.0605  -30.2400   20.3397 C   0  0  0  0  0  0  0  0  0  0  0  0
  -26.3761  -34.0760   24.2059 C   0  0  0  0  0  0  0  0  0  0  0  0
  -25.5546  -28.9915   20.7286 C   0  0  0  0  0  0  0  0  0  0  0  0
  -28.5932  -19.0443   19.9868 C   0  0  0  0  0  0  0  0  0  0  0  0
  -29.5631  -18.0939   19.6678 C   0  0  0  0  0  0  0  0  0  0  0  0
  -23.5664   -8.8237   24.1261 C   0  0  0  0  0  0  0  0  0  0  0  0
  -27.7560  -28.0123   20.4043 C   0  0  0  0  0  0  0  0  0  0  0  0
  -21.8946   -7.2996   24.7620 C   0  0  0  0  0  0  0  0  0  0  0  0
  -19.3807   -6.1770   24.3120 C   0  0  0  0  0  0  0  0  0  0  0  0
  -21.7746   -5.9303   24.5253 C   0  0  0  0  0  0  0  0  0  0  0  0
  -24.8871  -11.8257   21.4537 C   0  0  0  0  0  0  0  0  0  0  0  0
  -25.0161  -13.5869   20.1436 C   0  0  0  0  0  0  0  0  0  0  0  0
  -30.7079  -22.1206   20.4665 C   0  0  0  0  0  0  0  0  0  0  0  0
  -29.8896  -23.1834   20.4082 C   0  0  0  0  0  0  0  0  0  0  0  0
  -28.7559  -26.2964   21.6399 C   0  0  0  0  0  0  0  0  0  1  0  0
  -22.7874  -13.2952   21.2373 C   0  0  0  0  0  0  0  0  0  0  0  0
  -29.5362  -25.2194   21.8198 C   0  0  0  0  0  0  0  0  0  0  0  0
  -24.2442  -31.5091   22.6188 C   0  0  0  0  0  0  0  0  0  0  0  0
  -21.8679  -29.9585   21.0468 C   0  0  0  0  0  0  0  0  0  0  0  0
  -20.9505  -27.4170   18.9622 C   0  0  0  0  0  0  0  0  0  0  0  0
  -30.0556  -15.6969   19.0691 C   0  0  0  0  0  0  0  0  0  0  0  0
  -24.8999  -36.0435   24.8698 C   0  0  0  0  0  0  0  0  0  0  0  0
  -25.1564  -31.4400   20.2695 C   0  0  0  0  0  0  0  0  0  0  0  0
  -24.1117  -28.8072   21.1192 C   0  0  0  0  0  0  0  0  0  0  0  0
  -23.7085  -35.1412   24.5586 C   0  0  0  0  0  0  0  0  0  0  0  0
  -29.5623  -12.2405   18.3712 C   0  0  0  0  0  0  0  0  0  0  0  0
  -23.9932  -33.7095   25.0015 C   0  0  0  0  0  0  0  0  0  0  0  0
  -28.2409  -11.9144   19.0709 C   0  0  0  0  0  0  0  0  0  0  0  0
  -30.3973  -13.2377   19.1725 C   0  0  0  0  0  0  0  0  0  0  0  0
  -28.3760  -14.1465   20.2484 C   0  0  0  0  0  0  0  0  0  0  0  0
  -25.1969  -33.1285   24.2499 C   0  0  1  0  0  0  0  0  0  0  0  0
  -23.9263  -31.3145   21.1632 C   0  0  1  0  0  0  0  0  0  0  0  0
  -27.4714  -13.1956   19.4476 C   0  0  2  0  0  0  0  0  0  0  0  0
  -27.1460  -18.6783   20.0556 C   0  0  0  0  0  0  0  0  0  0  0  0
  -29.6778  -24.5953   23.1810 C   0  0  0  0  0  0  0  0  0  0  0  0
  -18.9326  -26.3798   17.8898 C   0  0  0  0  0  0  0  0  0  0  0  0
  -21.1204  -28.6668   23.7082 C   0  0  0  0  0  0  0  0  0  0  0  0
  -19.7785  -26.9809   22.4335 C   0  0  0  0  0  0  0  0  0  0  0  0
  -19.1729  -29.3981   22.3202 C   0  0  0  0  0  0  0  0  0  0  0  0
  -21.9724  -27.9644   16.2392 C   0  0  0  0  0  0  0  0  0  0  0  0
  -30.3375  -24.5879   20.7045 C   0  0  0  0  0  0  0  0  0  0  0  0
  -21.2500  -28.5836   21.1309 C   0  0  1  0  0  0  0  0  0  0  0  0
  -20.0561  -27.3931   17.7358 C   0  0  2  0  0  0  0  0  0  0  0  0
  -20.3581  -28.4109   22.3928 C   0  0  0  0  0  0  0  0  0  0  0  0
  -26.1348  -11.7980   20.9778 N   0  0  0  0  0  0  0  0  0  0  0  0
  -26.1827  -12.8815   20.1841 N   0  0  0  0  0  0  0  0  0  0  0  0
  -23.2689  -30.0118   21.0402 N   0  0  0  0  0  0  0  0  0  0  0  0
  -29.6046  -14.4277   19.4893 N   0  0  0  0  0  0  0  0  0  0  0  0
  -24.8910  -14.7036   19.3953 N   0  0  0  0  0  0  0  0  0  0  0  0
  -22.0326  -12.4971   22.1077 N   0  0  0  0  0  0  0  0  0  0  0  0
  -29.2031  -16.7500   19.3991 N   0  0  0  0  0  0  0  0  0  0  0  0
  -24.8143  -32.7334   22.9113 N   0  0  0  0  0  0  0  0  0  0  0  0
  -20.5477  -28.3739   19.8695 N   0  0  0  0  0  0  0  0  0  0  0  0
  -20.8475  -27.0369   16.5244 N   0  3  0  0  0  0  0  0  0  0  0  0
  -22.2549  -14.3005   20.7087 O   0  0  0  0  0  0  0  0  0  0  0  0
  -23.9896  -30.6154   23.4176 O   0  0  0  0  0  0  0  0  0  0  0  0
  -21.1344  -30.9482   20.9820 O   0  0  0  0  0  0  0  0  0  0  0  0
  -21.9082  -26.6597   19.1030 O   0  0  0  0  0  0  0  0  0  0  0  0
  -31.1063  -15.8360   18.4376 O   0  0  0  0  0  0  0  0  0  0  0  0
  -23.1417   -7.8583   24.9864 O   0  0  0  0  0  0  0  0  0  0  0  0
  -28.5781  -26.9285   20.4413 O   0  0  0  0  0  0  0  0  0  1  0  0
  -18.1734   -5.6379   24.0974 F   0  0  0  0  0  0  0  0  0  0  0  0
  -22.8631   -5.1487   24.5141 F   0  0  0  0  0  0  0  0  0  0  0  0
  1  2  1  0  0  0  0
  1  6  2  0  0  0  0
  2  7  2  0  0  0  0
  3 10  2  0  0  0  0
  3 18  1  0  0  0  0
  4 11  1  0  0  0  0
  4 18  2  0  0  0  0
  5  9  2  0  0  0  0
  5 19  1  0  0  0  0
  6 21  1  0  0  0  0
  7 23  1  0  0  0  0
  8 12  2  0  0  0  0
  8 22  1  0  0  0  0
  9 26  1  0  0  0  0
 10 27  1  0  0  0  0
 11 27  2  0  0  0  0
 12 28  1  0  0  0  0
 13 14  2  0  0  0  0
 13 29  1  0  0  0  0
 14 30  1  0  0  0  0
 15 19  2  0  0  0  0
 15 25  1  0  0  0  0
 16 24  1  0  0  0  0
 16 28  2  0  0  0  0
 17 30  2  0  0  0  0
 17 31  1  0  0  0  0
 18 32  1  0  0  0  0
 19 34  1  0  0  0  0
 20 32  1  0  0  0  0
 20 33  2  0  0  0  0
 20 37  1  0  0  0  0
 21 23  2  0  0  0  0
 21 43  1  0  0  0  0
 22 24  2  0  0  0  0
 22 44  1  0  0  0  0
 23 52  1  0  0  0  0
 24 45  1  0  0  0  0
 25 26  2  0  0  0  0
 25 55  1  0  0  0  0
 26 72  1  0  0  0  0
 27 81  1  0  0  0  0
 28 82  1  0  0  0  0
 29 31  2  0  0  0  0
 29 81  1  0  0  0  0
 30 83  1  0  0  0  0
 31 84  1  0  0  0  0
 32 66  2  0  0  0  0
 33 67  1  0  0  0  0
 33 70  1  0  0  0  0
 34 35  2  0  0  0  0
 35 62  1  0  0  0  0
 36 38  2  0  0  0  0
 36 82  1  0  0  0  0
 37 71  1  0  0  0  0
 37 76  2  0  0  0  0
 38 56  1  0  0  0  0
 38 62  1  0  0  0  0
 39 53  1  0  0  0  0
 39 73  1  0  0  0  0
 39 77  2  0  0  0  0
 40 63  1  0  0  0  0
 40 68  1  0  0  0  0
 40 78  2  0  0  0  0
 41 64  1  0  0  0  0
 41 74  1  0  0  0  0
 41 79  2  0  0  0  0
 42 69  1  0  0  0  0
 42 72  1  0  0  0  0
 42 80  2  0  0  0  0
 43 46  1  0  0  0  0
 44 53  1  0  0  0  0
 45 68  1  0  0  0  0
 46 48  1  0  0  0  0
 47 49  1  0  0  0  0
 47 50  1  0  0  0  0
 48 52  1  0  0  0  0
 49 54  1  0  0  0  0
 50 69  1  0  0  0  0
 51 54  1  0  0  0  0
 51 69  1  0  0  0  0
 52 73  1  0  0  0  0
 53 68  1  0  0  0  0
 54 67  1  0  0  0  0
 57 64  1  0  0  0  0
 58 65  1  0  0  0  0
 59 65  1  0  0  0  0
 60 65  1  0  0  0  0
 61 75  1  0  0  0  0
 63 65  1  0  0  0  0
 63 74  1  0  0  0  0
 64 75  1  0  0  0  0
 66 67  1  0  0  0  0
M  CHG  1  75   1
M  ISO  4  36 101  42 100  72 100  82 101
M  END
> <Batch ID>
0121

> <Smiles>
CNC(C)C(=O)NC(C(=O)N1Cc2cc([101O:1][101CH:1]=C(C)CC=Cc3ccc([100NH:0][100C:0](=O)N4CCCC(n5nc(-c6ccc(Oc7ccc(F)cc7F)cc6)c(C(N)=O)c5N)C4)c(C)c3)ccc2CC1C(=O)NC1CCCc2ccccc21)C(C)(C)C

> <Shape>
0.352

> <Color>
0.143

> <Negative vol penalty>
0.000

$$$$

  -OEChem-04052301573D

 85 93  0     1  0  0  0  0  0999 V2000
  -16.8101  -30.3523   20.8561 C   0  0  0  0  0  0  0  0  0  0  0  0
  -17.8528  -29.8836   20.0634 C   0  0  0  0  0  0  0  0  0  0  0  0
  -24.5682   -9.2617   21.8720 C   0  0  0  0  0  0  0  0  0  0  0  0
  -23.1745  -10.2857   20.1849 C   0  0  0  0  0  0  0  0  0  0  0  0
  -17.0805  -30.8997   22.1096 C   0  0  0  0  0  0  0  0  0  0  0  0
  -19.1668  -29.9630   20.5233 C   0  0  0  0  0  0  0  0  0  0  0  0
  -21.7693  -25.6947   19.7145 C   0  0  0  0  0  0  0  0  0  0  0  0
  -23.6578   -8.2112   21.9865 C   0  0  0  0  0  0  0  0  0  0  0  0
  -22.2641   -9.2351   20.2994 C   0  0  0  0  0  0  0  0  0  0  0  0
  -22.2427  -25.4729   18.4220 C   0  0  0  0  0  0  0  0  0  0  0  0
  -20.6741   -7.6524   23.4728 C   0  0  0  0  0  0  0  0  0  0  0  0
  -20.3257   -7.2349   24.7573 C   0  0  0  0  0  0  0  0  0  0  0  0
  -24.4278  -26.2401   19.0971 C   0  0  0  0  0  0  0  0  0  0  0  0
  -30.2876  -23.2761   19.0100 C   0  0  0  0  0  0  0  0  0  0  0  0
  -30.1554  -21.3641   20.4630 C   0  0  0  0  0  0  0  0  0  0  0  0
  -21.1721   -5.0254   24.2686 C   0  0  0  0  0  0  0  0  0  0  0  0
  -24.3265  -10.2990   20.9712 C   0  0  0  0  0  0  0  0  0  0  0  0
  -26.3723  -11.4611   19.9852 C   0  0  0  0  0  0  0  0  0  0  0  0
  -18.3976  -30.9770   22.5891 C   0  0  0  0  0  0  0  0  0  0  0  0
  -22.6203  -26.2021   20.7068 C   0  0  0  0  0  0  0  0  0  0  0  0
  -19.4553  -30.5131   21.7838 C   0  0  0  0  0  0  0  0  0  0  0  0
  -23.9634  -26.4651   20.4020 C   0  0  0  0  0  0  0  0  0  0  0  0
  -30.7728  -22.5543   20.0949 C   0  0  0  0  0  0  0  0  0  0  0  0
  -22.5058   -8.1978   21.2002 C   0  0  0  0  0  0  0  0  0  0  0  0
  -23.5714  -25.7483   18.1124 C   0  0  0  0  0  0  0  0  0  0  0  0
  -21.2714   -6.7564   22.5862 C   0  0  0  0  0  0  0  0  0  0  0  0
  -20.5747   -5.9214   25.1552 C   0  0  0  0  0  0  0  0  0  0  0  0
  -21.5204   -5.4429   22.9840 C   0  0  0  0  0  0  0  0  0  0  0  0
  -25.2663  -11.3848   20.8528 C   0  0  0  0  0  0  0  0  0  0  0  0
  -29.1913  -22.7687   18.3316 C   0  0  0  0  0  0  0  0  0  0  0  0
  -29.0648  -20.9424   19.7196 C   0  0  0  0  0  0  0  0  0  0  0  0
  -26.9386  -12.6824   20.2574 C   0  0  0  0  0  0  0  0  0  0  0  0
  -28.6402  -23.4958   17.1758 C   0  0  0  0  0  0  0  0  0  0  0  0
  -27.5704  -23.1156   16.4598 C   0  0  0  0  0  0  0  0  0  0  0  0
  -26.8453  -10.5128   19.0195 C   0  0  0  0  0  0  0  0  0  0  0  0
  -22.6723  -28.8363   22.4850 C   0  0  0  0  0  0  0  0  0  0  0  0
  -26.3552  -18.1658   21.1961 C   0  0  0  0  0  0  0  0  0  0  0  0
  -25.1712  -27.3485   23.9219 C   0  0  0  0  0  0  0  0  0  0  0  0
  -27.6797  -25.0440   23.7138 C   0  0  0  0  0  0  0  0  0  0  0  0
  -18.6451  -31.6200   23.9307 C   0  0  0  0  0  0  0  0  0  0  0  0
  -22.1011  -26.4107   22.1030 C   0  0  0  0  0  0  0  0  0  0  0  0
  -24.9229  -26.9918   21.4366 C   0  0  0  0  0  0  0  0  0  0  0  0
  -20.0298  -31.3249   24.5015 C   0  0  0  0  0  0  0  0  0  0  0  0
  -26.0799  -15.9577   24.0048 C   0  0  0  0  0  0  0  0  0  0  0  0
  -21.1007  -31.5220   23.4332 C   0  0  0  0  0  0  0  0  0  0  0  0
  -25.9043  -14.5817   23.3638 C   0  0  0  0  0  0  0  0  0  0  0  0
  -25.3985  -17.0476   23.1832 C   0  0  0  0  0  0  0  0  0  0  0  0
  -25.6611  -15.7199   21.1120 C   0  0  0  0  0  0  0  0  0  0  0  0
  -20.8916  -30.5592   22.2581 C   0  0  1  0  0  0  0  0  0  0  0  0
  -22.9247  -27.4153   22.9029 C   0  0  1  0  0  0  0  0  0  0  0  0
  -26.3607  -14.5942   21.8941 C   0  0  2  0  0  0  0  0  0  0  0  0
  -31.9500  -23.0543   20.8608 C   0  0  0  0  0  0  0  0  0  0  0  0
  -29.5822  -24.0784   25.0349 C   0  0  0  0  0  0  0  0  0  0  0  0
  -26.8115  -29.8669   23.3957 C   0  0  0  0  0  0  0  0  0  0  0  0
  -28.8796  -28.5305   23.8487 C   0  0  0  0  0  0  0  0  0  0  0  0
  -27.1756  -28.8358   25.6448 C   0  0  0  0  0  0  0  0  0  0  0  0
  -26.5107  -22.3263   23.6307 C   0  0  0  0  0  0  0  0  0  0  0  0
  -27.0407  -23.8936   15.2887 C   0  0  0  0  0  0  0  0  0  0  0  0
  -26.7945  -18.0501   19.7582 C   0  0  0  0  0  0  0  0  0  0  0  0
  -25.5803  -24.2883   15.5010 C   0  0  0  0  0  0  0  0  0  0  0  0
  -27.3248  -19.3856   19.2673 C   0  0  0  0  0  0  0  0  0  0  0  0
  -25.4142  -25.1893   16.7169 C   0  0  0  0  0  0  0  0  0  1  0  0
  -26.6634  -27.3070   23.6974 C   0  0  1  0  0  0  0  0  0  0  0  0
  -28.1147  -23.9402   24.6609 C   0  0  2  0  0  0  0  0  0  0  0  0
  -27.3642  -28.6270   24.1264 C   0  0  0  0  0  0  0  0  0  0  0  0
  -25.1361  -12.4711   21.6190 N   0  0  0  0  0  0  0  0  0  0  0  0
  -28.5651  -21.6164   18.6596 N   0  0  0  0  0  0  0  0  0  0  0  0
  -26.1677  -13.2415   21.2337 N   0  0  0  0  0  0  0  0  0  0  0  0
  -24.3660  -27.1853   22.7857 N   0  0  0  0  0  0  0  0  0  0  0  0
  -25.8419  -17.0118   21.7885 N   0  0  0  0  0  0  0  0  0  0  0  0
  -28.0159  -13.3219   19.7544 N   0  0  0  0  0  0  0  0  0  0  0  0
  -26.1453   -9.3081   18.8676 N   0  0  0  0  0  0  0  0  0  0  0  0
  -21.3537  -29.2320   22.6038 N   0  0  0  0  0  0  0  0  0  0  0  0
  -27.1480  -26.1197   24.3930 N   0  0  0  0  0  0  0  0  0  0  0  0
  -27.9146  -22.6059   24.0280 N   0  3  0  0  0  0  0  0  0  0  0  0
  -27.8682  -10.7203   18.3237 O   0  0  0  0  0  0  0  0  0  0  0  0
  -23.6052  -29.5234   22.0858 O   0  0  0  0  0  0  0  0  0  0  0  0
  -26.4683  -19.2496   21.7748 O   0  0  0  0  0  0  0  0  0  0  0  0
  -24.7359  -27.5123   25.0644 O   0  0  0  0  0  0  0  0  0  0  0  0
  -27.8029  -24.9617   22.4937 O   0  0  0  0  0  0  0  0  0  0  0  0
  -21.6173   -7.1727   21.3115 O   0  0  0  0  0  0  0  0  0  0  0  0
  -24.0358  -25.5332   16.8515 O   0  0  0  0  0  0  0  0  0  1  0  0
  -28.4388  -19.7728   20.0629 O   0  0  0  0  0  0  0  0  0  0  0  0
  -20.2416   -5.5209   26.3892 F   0  0  0  0  0  0  0  0  0  0  0  0
  -22.0950   -4.5780   22.1371 F   0  0  0  0  0  0  0  0  0  0  0  0
  1  2  1  0  0  0  0
  1  5  2  0  0  0  0
  2  6  2  0  0  0  0
  3  8  2  0  0  0  0
  3 17  1  0  0  0  0
  4  9  1  0  0  0  0
  4 17  2  0  0  0  0
  5 19  1  0  0  0  0
  6 21  1  0  0  0  0
  7 10  2  0  0  0  0
  7 20  1  0  0  0  0
  8 24  1  0  0  0  0
  9 24  2  0  0  0  0
 10 25  1  0  0  0  0
 11 12  2  0  0  0  0
 11 26  1  0  0  0  0
 12 27  1  0  0  0  0
 13 22  1  0  0  0  0
 13 25  2  0  0  0  0
 14 23  2  0  0  0  0
 14 30  1  0  0  0  0
 15 23  1  0  0  0  0
 15 31  2  0  0  0  0
 16 27  2  0  0  0  0
 16 28  1  0  0  0  0
 17 29  1  0  0  0  0
 18 29  1  0  0  0  0
 18 32  2  0  0  0  0
 18 35  1  0  0  0  0
 19 21  2  0  0  0  0
 19 40  1  0  0  0  0
 20 22  2  0  0  0  0
 20 41  1  0  0  0  0
 21 49  1  0  0  0  0
 22 42  1  0  0  0  0
 23 52  1  0  0  0  0
 24 81  1  0  0  0  0
 25 82  1  0  0  0  0
 26 28  2  0  0  0  0
 26 81  1  0  0  0  0
 27 84  1  0  0  0  0
 28 85  1  0  0  0  0
 29 66  2  0  0  0  0
 30 33  1  0  0  0  0
 30 67  2  0  0  0  0
 31 67  1  0  0  0  0
 31 83  1  0  0  0  0
 32 68  1  0  0  0  0
 32 71  1  0  0  0  0
 33 34  2  0  0  0  0
 34 58  1  0  0  0  0
 35 72  1  0  0  0  0
 35 76  2  0  0  0  0
 36 50  1  0  0  0  0
 36 73  1  0  0  0  0
 36 77  2  0  0  0  0
 37 59  1  0  0  0  0
 37 70  1  0  0  0  0
 37 78  2  0  0  0  0
 38 63  1  0  0  0  0
 38 69  1  0  0  0  0
 38 79  2  0  0  0  0
 39 64  1  0  0  0  0
 39 74  1  0  0  0  0
 39 80  2  0  0  0  0
 40 43  1  0  0  0  0
 41 50  1  0  0  0  0
 42 69  1  0  0  0  0
 43 45  1  0  0  0  0
 44 46  1  0  0  0  0
 44 47  1  0  0  0  0
 45 49  1  0  0  0  0
 46 51  1  0  0  0  0
 47 70  1  0  0  0  0
 48 51  1  0  0  0  0
 48 70  1  0  0  0  0
 49 73  1  0  0  0  0
 50 69  1  0  0  0  0
 51 68  1  0  0  0  0
 53 64  1  0  0  0  0
 54 65  1  0  0  0  0
 55 65  1  0  0  0  0
 56 65  1  0  0  0  0
 57 75  1  0  0  0  0
 58 60  1  0  0  0  0
 59 61  1  0  0  0  0
 60 62  1  0  0  0  0
 61 83  1  0  0  0  0
 62 82  1  0  0  0  0
 63 65  1  0  0  0  0
 63 74  1  0  0  0  0
 64 75  1  0  0  0  0
 66 68  1  0  0  0  0
M  CHG  1  75   1
M  ISO  4  37 100  59 100  62 101  82 101
M  END
> <Batch ID>
0121

> <Smiles>
CNC(C)C(=O)NC(C(=O)N1Cc2cc([101O:1][101CH2:1]CCC=Cc3cc(C)cc(OC[100CH2:0][100C:0](=O)N4CCCC(n5nc(-c6ccc(Oc7ccc(F)cc7F)cc6)c(C(N)=O)c5N)C4)n3)ccc2CC1C(=O)NC1CCCc2ccccc21)C(C)(C)C

> <Shape>
0.223

> <Color>
0.080

> <Negative vol penalty>
0.000

$$$$

  -OEChem-04052301573D

 82 90  0     1  0  0  0  0  0999 V2000
  -18.9551  -33.6253   24.5085 C   0  0  0  0  0  0  0  0  0  0  0  0
  -20.2446  -33.6699   23.9884 C   0  0  0  0  0  0  0  0  0  0  0  0
  -25.3181   -9.2403   21.5305 C   0  0  0  0  0  0  0  0  0  0  0  0
  -22.9496   -9.6935   21.6794 C   0  0  0  0  0  0  0  0  0  0  0  0
  -18.4066  -32.4064   24.9054 C   0  0  0  0  0  0  0  0  0  0  0  0
  -20.9868  -32.4958   23.8659 C   0  0  0  0  0  0  0  0  0  0  0  0
  -25.9366  -29.4299   19.6926 C   0  0  0  0  0  0  0  0  0  0  0  0
  -25.1773   -8.2021   22.4513 C   0  0  0  0  0  0  0  0  0  0  0  0
  -22.8088   -8.6553   22.6002 C   0  0  0  0  0  0  0  0  0  0  0  0
  -27.1813  -28.8077   19.7772 C   0  0  0  0  0  0  0  0  0  0  0  0
  -22.6140   -5.2820   22.5376 C   0  0  0  0  0  0  0  0  0  0  0  0
  -21.5443   -4.4041   22.3635 C   0  0  0  0  0  0  0  0  0  0  0  0
  -26.1017  -26.7490   20.4216 C   0  0  0  0  0  0  0  0  0  0  0  0
  -28.3688  -22.6862   16.9074 C   0  0  0  0  0  0  0  0  0  0  0  0
  -20.6917   -5.0112   24.5411 C   0  0  0  0  0  0  0  0  0  0  0  0
  -24.2042   -9.9861   21.1446 C   0  0  0  0  0  0  0  0  0  0  0  0
  -24.2444  -10.9731   18.7926 C   0  0  0  0  0  0  0  0  0  0  0  0
  -19.1389  -31.2155   24.7787 C   0  0  0  0  0  0  0  0  0  0  0  0
  -24.7638  -28.7180   19.9829 C   0  0  0  0  0  0  0  0  0  0  0  0
  -20.4481  -31.2601   24.2627 C   0  0  0  0  0  0  0  0  0  0  0  0
  -24.8431  -27.3637   20.3374 C   0  0  0  0  0  0  0  0  0  0  0  0
  -27.8836  -21.3890   16.5727 C   0  0  0  0  0  0  0  0  0  0  0  0
  -23.9227   -7.9095   22.9861 C   0  0  0  0  0  0  0  0  0  0  0  0
  -27.2643  -27.4678   20.1446 C   0  0  0  0  0  0  0  0  0  0  0  0
  -22.7227   -6.0245   23.7135 C   0  0  0  0  0  0  0  0  0  0  0  0
  -20.5831   -4.2686   23.3652 C   0  0  0  0  0  0  0  0  0  0  0  0
  -21.7615   -5.8891   24.7152 C   0  0  0  0  0  0  0  0  0  0  0  0
  -24.3491  -11.0590   20.1938 C   0  0  0  0  0  0  0  0  0  0  0  0
  -29.0863  -22.6829   18.0832 C   0  0  0  0  0  0  0  0  0  0  0  0
  -28.2491  -20.4434   17.5056 C   0  0  0  0  0  0  0  0  0  0  0  0
  -24.4614  -12.2561   18.3528 C   0  0  0  0  0  0  0  0  0  0  0  0
  -29.7450  -23.8120   18.7607 C   0  0  0  0  0  0  0  0  0  0  0  0
  -27.9648  -19.0602   17.5305 C   0  0  0  0  0  0  0  0  0  0  0  0
  -27.7977  -18.2718   18.6445 C   0  0  0  0  0  0  0  0  0  0  0  0
  -29.7684  -25.0764   18.3106 C   0  0  0  0  0  0  0  0  0  0  0  0
  -23.9749   -9.8354   17.9627 C   0  0  0  0  0  0  0  0  0  0  0  0
  -27.4925  -16.8337   18.5052 C   0  0  0  0  0  0  0  0  0  0  0  0
  -22.4549  -28.9873   22.1508 C   0  0  0  0  0  0  0  0  0  0  0  0
  -21.0982  -26.5926   20.4341 C   0  0  0  0  0  0  0  0  0  0  0  0
  -21.5134  -23.9689   18.2915 C   0  0  0  0  0  0  0  0  0  0  0  0
  -18.5214  -29.9284   25.2652 C   0  0  0  0  0  0  0  0  0  0  0  0
  -23.4269  -29.3965   19.8609 C   0  0  0  0  0  0  0  0  0  0  0  0
  -23.6124  -26.5497   20.6394 C   0  0  0  0  0  0  0  0  0  0  0  0
  -19.2346  -28.6793   24.7540 C   0  0  0  0  0  0  0  0  0  0  0  0
  -24.7027  -16.6179   20.8722 C   0  0  0  0  0  0  0  0  0  0  0  0
  -20.7447  -28.8240   24.9132 C   0  0  0  0  0  0  0  0  0  0  0  0
  -24.3890  -15.1250   20.8209 C   0  0  0  0  0  0  0  0  0  0  0  0
  -26.1959  -16.8944   20.7032 C   0  0  0  0  0  0  0  0  0  0  0  0
  -26.4660  -14.7900   19.4230 C   0  0  0  0  0  0  0  0  0  0  0  0
  -21.2755  -30.0047   24.0911 C   0  0  1  0  0  0  0  0  0  0  0  0
  -22.3340  -28.7145   20.6782 C   0  0  1  0  0  0  0  0  0  0  0  0
  -24.9634  -14.4916   19.5438 C   0  0  1  0  0  0  0  0  0  0  0  0
  -27.0798  -21.1117   15.3561 C   0  0  0  0  0  0  0  0  0  0  0  0
  -20.2236  -22.1785   17.0964 C   0  0  0  0  0  0  0  0  0  0  0  0
  -20.8595  -25.0270   23.0422 C   0  0  0  0  0  0  0  0  0  0  0  0
  -20.4727  -22.9593   21.6844 C   0  0  0  0  0  0  0  0  0  0  0  0
  -18.8664  -24.8624   21.5405 C   0  0  0  0  0  0  0  0  0  0  0  0
  -22.3306  -24.9902   15.6367 C   0  0  0  0  0  0  0  0  0  0  0  0
  -30.4653  -26.1990   19.0296 C   0  0  0  0  0  0  0  0  0  0  0  0
  -29.5061  -27.3359   19.3619 C   0  0  0  0  0  0  0  0  0  1  0  0
  -21.1495  -25.0844   20.4773 C   0  0  1  0  0  0  0  0  0  0  0  0
  -20.7887  -23.5879   17.0132 C   0  0  2  0  0  0  0  0  0  0  0  0
  -20.3605  -24.4989   21.6824 C   0  0  0  0  0  0  0  0  0  0  0  0
  -24.6123  -12.2985   20.6162 N   0  0  0  0  0  0  0  0  0  0  0  0
  -24.6749  -13.0033   19.4737 N   0  0  0  0  0  0  0  0  0  0  0  0
  -26.7344  -16.2300   19.5069 N   0  0  0  0  0  0  0  0  0  0  0  0
  -22.3289  -27.2596   20.5124 N   0  0  0  0  0  0  0  0  0  0  0  0
  -24.4885  -12.8067   17.1205 N   0  0  0  0  0  0  0  0  0  0  0  0
  -23.7764   -8.5918   18.5778 N   0  0  0  0  0  0  0  0  0  0  0  0
  -21.3673  -29.6457   22.6921 N   0  0  0  0  0  0  0  0  0  0  0  0
  -20.6808  -24.6226   19.1752 N   0  0  0  0  0  0  0  0  0  0  0  0
  -21.7192  -23.6533   15.8510 N   0  3  0  0  0  0  0  0  0  0  0  0
  -23.9284   -9.9160   16.7118 O   0  0  0  0  0  0  0  0  0  0  0  0
  -27.9322  -16.2528   17.5113 O   0  0  0  0  0  0  0  0  0  0  0  0
  -23.4598  -28.6257   22.7518 O   0  0  0  0  0  0  0  0  0  0  0  0
  -20.0070  -27.1577   20.3274 O   0  0  0  0  0  0  0  0  0  0  0  0
  -22.6984  -23.7090   18.4882 O   0  0  0  0  0  0  0  0  0  0  0  0
  -23.7849   -6.8964   23.8845 O   0  0  0  0  0  0  0  0  0  0  0  0
  -28.4780  -26.8582   20.2286 O   0  0  0  0  0  0  0  0  0  1  0  0
  -19.5550   -3.4266   23.1973 F   0  0  0  0  0  0  0  0  0  0  0  0
  -21.8599   -6.6007   25.8465 F   0  0  0  0  0  0  0  0  0  0  0  0
  -29.1730  -21.1204   18.7785 S   0  0  0  0  0  0  0  0  0  0  0  0
  1  2  1  0  0  0  0
  1  5  2  0  0  0  0
  2  6  2  0  0  0  0
  3  8  2  0  0  0  0
  3 16  1  0  0  0  0
  4  9  1  0  0  0  0
  4 16  2  0  0  0  0
  5 18  1  0  0  0  0
  6 20  1  0  0  0  0
  7 10  2  0  0  0  0
  7 19  1  0  0  0  0
  8 23  1  0  0  0  0
  9 23  2  0  0  0  0
 10 24  1  0  0  0  0
 11 12  2  0  0  0  0
 11 25  1  0  0  0  0
 12 26  1  0  0  0  0
 13 21  1  0  0  0  0
 13 24  2  0  0  0  0
 14 22  1  0  0  0  0
 14 29  2  0  0  0  0
 15 26  2  0  0  0  0
 15 27  1  0  0  0  0
 16 28  1  0  0  0  0
 17 28  1  0  0  0  0
 17 31  2  0  0  0  0
 17 36  1  0  0  0  0
 18 20  2  0  0  0  0
 18 41  1  0  0  0  0
 19 21  2  0  0  0  0
 19 42  1  0  0  0  0
 20 50  1  0  0  0  0
 21 43  1  0  0  0  0
 22 30  2  0  0  0  0
 22 53  1  0  0  0  0
 23 78  1  0  0  0  0
 24 79  1  0  0  0  0
 25 27  2  0  0  0  0
 25 78  1  0  0  0  0
 26 80  1  0  0  0  0
 27 81  1  0  0  0  0
 28 64  2  0  0  0  0
 29 32  1  0  0  0  0
 29 82  1  0  0  0  0
 30 33  1  0  0  0  0
 30 82  1  0  0  0  0
 31 65  1  0  0  0  0
 31 68  1  0  0  0  0
 32 35  2  0  0  0  0
 33 34  2  0  0  0  0
 34 37  1  0  0  0  0
 35 59  1  0  0  0  0
 36 69  1  0  0  0  0
 36 73  2  0  0  0  0
 37 66  1  0  0  0  0
 37 74  2  0  0  0  0
 38 51  1  0  0  0  0
 38 70  1  0  0  0  0
 38 75  2  0  0  0  0
 39 61  1  0  0  0  0
 39 67  1  0  0  0  0
 39 76  2  0  0  0  0
 40 62  1  0  0  0  0
 40 71  1  0  0  0  0
 40 77  2  0  0  0  0
 41 44  1  0  0  0  0
 42 51  1  0  0  0  0
 43 67  1  0  0  0  0
 44 46  1  0  0  0  0
 45 47  1  0  0  0  0
 45 48  1  0  0  0  0
 46 50  1  0  0  0  0
 47 52  1  0  0  0  0
 48 66  1  0  0  0  0
 49 52  1  0  0  0  0
 49 66  1  0  0  0  0
 50 70  1  0  0  0  0
 51 67  1  0  0  0  0
 52 65  1  0  0  0  0
 54 62  1  0  0  0  0
 55 63  1  0  0  0  0
 56 63  1  0  0  0  0
 57 63  1  0  0  0  0
 58 72  1  0  0  0  0
 59 60  1  0  0  0  0
 60 79  1  0  0  0  0
 61 63  1  0  0  0  0
 61 71  1  0  0  0  0
 62 72  1  0  0  0  0
 64 65  1  0  0  0  0
M  CHG  1  72   1
M  ISO  4  34 100  37 100  60 101  79 101
M  END
> <Batch ID>
0121

> <Smiles>
CNC(C)C(=O)NC(C(=O)N1Cc2cc([101O:1][101CH2:1]CC=Cc3cc(C)c(C=[100CH:0][100C:0](=O)N4CCCC(n5nc(-c6ccc(Oc7ccc(F)cc7F)cc6)c(C(N)=O)c5N)C4)s3)ccc2CC1C(=O)NC1CCCc2ccccc21)C(C)(C)C

> <Shape>
0.234

> <Color>
0.100

> <Negative vol penalty>
0.000

$$$$

  -OEChem-04052301573D

 83 91  0     1  0  0  0  0  0999 V2000
  -29.9197  -34.4319   23.1187 C   0  0  0  0  0  0  0  0  0  0  0  0
  -29.7422  -33.0606   22.9653 C   0  0  0  0  0  0  0  0  0  0  0  0
  -24.7846   -8.9375   21.3176 C   0  0  0  0  0  0  0  0  0  0  0  0
  -23.2624  -10.2980   20.0256 C   0  0  0  0  0  0  0  0  0  0  0  0
  -28.7809  -19.4522   14.9089 C   0  0  0  0  0  0  0  0  0  0  0  0
  -28.8598  -35.2265   23.5535 C   0  0  0  0  0  0  0  0  0  0  0  0
  -28.5049  -32.4830   23.2477 C   0  0  0  0  0  0  0  0  0  0  0  0
  -27.0592  -29.1604   19.7100 C   0  0  0  0  0  0  0  0  0  0  0  0
  -28.7068  -18.0873   14.6314 C   0  0  0  0  0  0  0  0  0  0  0  0
  -23.7125   -8.1705   21.7732 C   0  0  0  0  0  0  0  0  0  0  0  0
  -22.1902   -9.5309   20.4812 C   0  0  0  0  0  0  0  0  0  0  0  0
  -27.6485  -27.8973   19.7441 C   0  0  0  0  0  0  0  0  0  0  0  0
  -21.2698   -8.4348   24.0944 C   0  0  0  0  0  0  0  0  0  0  0  0
  -21.2259   -8.1266   25.4540 C   0  0  0  0  0  0  0  0  0  0  0  0
  -28.7548  -18.9723   17.2766 C   0  0  0  0  0  0  0  0  0  0  0  0
  -25.6885  -27.0191   20.8425 C   0  0  0  0  0  0  0  0  0  0  0  0
  -21.2913   -5.7708   24.9221 C   0  0  0  0  0  0  0  0  0  0  0  0
  -24.5596  -10.0014   20.4439 C   0  0  0  0  0  0  0  0  0  0  0  0
  -28.8050  -19.8948   16.2315 C   0  0  0  0  0  0  0  0  0  0  0  0
  -26.4440  -10.5704   18.8212 C   0  0  0  0  0  0  0  0  0  0  0  0
  -27.6061  -34.6597   23.8322 C   0  0  0  0  0  0  0  0  0  0  0  0
  -25.7824  -29.3650   20.2527 C   0  0  0  0  0  0  0  0  0  0  0  0
  -27.4276  -33.2706   23.6880 C   0  0  0  0  0  0  0  0  0  0  0  0
  -25.0842  -28.2852   20.8118 C   0  0  0  0  0  0  0  0  0  0  0  0
  -28.6566  -17.1648   15.6765 C   0  0  0  0  0  0  0  0  0  0  0  0
  -28.6807  -17.6073   16.9991 C   0  0  0  0  0  0  0  0  0  0  0  0
  -22.4152   -8.4671   21.3549 C   0  0  0  0  0  0  0  0  0  0  0  0
  -26.9644  -26.8270   20.3129 C   0  0  0  0  0  0  0  0  0  0  0  0
  -21.3244   -7.4110   23.1486 C   0  0  0  0  0  0  0  0  0  0  0  0
  -21.2367   -6.7946   25.8679 C   0  0  0  0  0  0  0  0  0  0  0  0
  -21.3352   -6.0790   23.5625 C   0  0  0  0  0  0  0  0  0  0  0  0
  -25.6667  -10.7945   19.9733 C   0  0  0  0  0  0  0  0  0  0  0  0
  -27.3592  -11.5946   18.8199 C   0  0  0  0  0  0  0  0  0  0  0  0
  -28.8838  -21.3360   16.5228 C   0  0  0  0  0  0  0  0  0  0  0  0
  -29.2885  -21.8701   17.6858 C   0  0  0  0  0  0  0  0  0  0  0  0
  -26.3474   -9.5296   17.8399 C   0  0  0  0  0  0  0  0  0  0  0  0
  -24.6057  -31.1423   22.6107 C   0  0  0  0  0  0  0  0  0  0  0  0
  -21.7629  -30.0580   21.4859 C   0  0  0  0  0  0  0  0  0  0  0  0
  -20.0532  -27.6561   19.7672 C   0  0  0  0  0  0  0  0  0  0  0  0
  -28.6477  -16.9761   19.4377 C   0  0  0  0  0  0  0  0  0  0  0  0
  -26.5037  -35.5522   24.3449 C   0  0  0  0  0  0  0  0  0  0  0  0
  -25.1497  -30.7278   20.1841 C   0  0  0  0  0  0  0  0  0  0  0  0
  -23.7028  -28.4478   21.3896 C   0  0  0  0  0  0  0  0  0  0  0  0
  -25.1182  -34.9168   24.2637 C   0  0  0  0  0  0  0  0  0  0  0  0
  -28.5042  -14.9935   22.3917 C   0  0  0  0  0  0  0  0  0  0  0  0
  -25.1540  -33.4880   24.7968 C   0  0  0  0  0  0  0  0  0  0  0  0
  -27.8171  -13.7059   21.9311 C   0  0  0  0  0  0  0  0  0  0  0  0
  -27.9280  -16.2245   21.6943 C   0  0  0  0  0  0  0  0  0  0  0  0
  -27.2160  -14.8649   19.7672 C   0  0  0  0  0  0  0  0  0  0  0  0
  -26.0933  -32.6106   23.9605 C   0  0  1  0  0  0  0  0  0  0  0  0
  -24.0562  -30.9321   21.2281 C   0  0  1  0  0  0  0  0  0  0  0  0
  -27.8068  -13.5915   20.3941 C   0  0  2  0  0  0  0  0  0  0  0  0
  -28.5763  -15.7089   15.3497 C   0  0  0  0  0  0  0  0  0  0  0  0
  -17.7342  -27.0239   19.0461 C   0  0  0  0  0  0  0  0  0  0  0  0
  -21.1356  -29.1310   24.3244 C   0  0  0  0  0  0  0  0  0  0  0  0
  -19.3066  -27.7059   23.3802 C   0  0  0  0  0  0  0  0  0  0  0  0
  -19.2126  -30.1853   23.1224 C   0  0  0  0  0  0  0  0  0  0  0  0
  -20.7813  -27.7943   16.9019 C   0  0  0  0  0  0  0  0  0  0  0  0
  -29.3569  -23.3501   17.9361 C   0  0  0  0  0  0  0  0  0  0  0  0
  -28.4141  -23.7651   19.0641 C   0  0  0  0  0  0  0  0  0  0  0  0
  -28.4466  -25.2693   19.2969 C   0  0  0  0  0  0  0  0  0  1  0  0
  -20.8877  -28.8610   21.7687 C   0  0  1  0  0  0  0  0  0  0  0  0
  -19.0132  -27.7534   18.6657 C   0  0  2  0  0  0  0  0  0  0  0  0
  -20.1624  -28.9678   23.1399 C   0  0  0  0  0  0  0  0  0  0  0  0
  -26.0544  -11.8760   20.6545 N   0  0  0  0  0  0  0  0  0  0  0  0
  -27.0853  -12.3406   19.9283 N   0  0  0  0  0  0  0  0  0  0  0  0
  -23.1293  -29.8011   21.3045 N   0  0  0  0  0  0  0  0  0  0  0  0
  -27.9544  -16.0461   20.2409 N   0  0  0  0  0  0  0  0  0  0  0  0
  -28.3634  -11.9208   17.9787 N   0  0  0  0  0  0  0  0  0  0  0  0
  -25.3495   -8.5574   17.9931 N   0  0  0  0  0  0  0  0  0  0  0  0
  -28.6312  -16.6854   18.0740 N   0  0  0  0  0  0  0  0  0  0  0  0
  -25.4551  -32.2268   22.7196 N   0  0  0  0  0  0  0  0  0  0  0  0
  -19.9897  -28.7328   20.6261 N   0  0  0  0  0  0  0  0  0  0  0  0
  -19.5371  -27.1569   17.4045 N   0  3  0  0  0  0  0  0  0  0  0  0
  -27.1333   -9.4543   16.8651 O   0  0  0  0  0  0  0  0  0  0  0  0
  -24.2819  -30.3781   23.5122 O   0  0  0  0  0  0  0  0  0  0  0  0
  -21.2520  -31.1789   21.4211 O   0  0  0  0  0  0  0  0  0  0  0  0
  -20.8405  -26.7168   19.8588 O   0  0  0  0  0  0  0  0  0  0  0  0
  -29.2373  -17.9433   19.9266 O   0  0  0  0  0  0  0  0  0  0  0  0
  -21.3688   -7.7186   21.7991 O   0  0  0  0  0  0  0  0  0  0  0  0
  -27.5375  -25.5933   20.3480 O   0  0  0  0  0  0  0  0  0  1  0  0
  -21.1960   -6.4988   27.1737 F   0  0  0  0  0  0  0  0  0  0  0  0
  -21.3888   -5.0912   22.6585 F   0  0  0  0  0  0  0  0  0  0  0  0
  1  2  1  0  0  0  0
  1  6  2  0  0  0  0
  2  7  2  0  0  0  0
  3 10  2  0  0  0  0
  3 18  1  0  0  0  0
  4 11  1  0  0  0  0
  4 18  2  0  0  0  0
  5  9  2  0  0  0  0
  5 19  1  0  0  0  0
  6 21  1  0  0  0  0
  7 23  1  0  0  0  0
  8 12  2  0  0  0  0
  8 22  1  0  0  0  0
  9 25  1  0  0  0  0
 10 27  1  0  0  0  0
 11 27  2  0  0  0  0
 12 28  1  0  0  0  0
 13 14  2  0  0  0  0
 13 29  1  0  0  0  0
 14 30  1  0  0  0  0
 15 19  2  0  0  0  0
 15 26  1  0  0  0  0
 16 24  1  0  0  0  0
 16 28  2  0  0  0  0
 17 30  2  0  0  0  0
 17 31  1  0  0  0  0
 18 32  1  0  0  0  0
 19 34  1  0  0  0  0
 20 32  1  0  0  0  0
 20 33  2  0  0  0  0
 20 36  1  0  0  0  0
 21 23  2  0  0  0  0
 21 41  1  0  0  0  0
 22 24  2  0  0  0  0
 22 42  1  0  0  0  0
 23 50  1  0  0  0  0
 24 43  1  0  0  0  0
 25 26  2  0  0  0  0
 25 53  1  0  0  0  0
 26 71  1  0  0  0  0
 27 80  1  0  0  0  0
 28 81  1  0  0  0  0
 29 31  2  0  0  0  0
 29 80  1  0  0  0  0
 30 82  1  0  0  0  0
 31 83  1  0  0  0  0
 32 65  2  0  0  0  0
 33 66  1  0  0  0  0
 33 69  1  0  0  0  0
 34 35  2  0  0  0  0
 35 59  1  0  0  0  0
 36 70  1  0  0  0  0
 36 75  2  0  0  0  0
 37 51  1  0  0  0  0
 37 72  1  0  0  0  0
 37 76  2  0  0  0  0
 38 62  1  0  0  0  0
 38 67  1  0  0  0  0
 38 77  2  0  0  0  0
 39 63  1  0  0  0  0
 39 73  1  0  0  0  0
 39 78  2  0  0  0  0
 40 68  1  0  0  0  0
 40 71  1  0  0  0  0
 40 79  2  0  0  0  0
 41 44  1  0  0  0  0
 42 51  1  0  0  0  0
 43 67  1  0  0  0  0
 44 46  1  0  0  0  0
 45 47  1  0  0  0  0
 45 48  1  0  0  0  0
 46 50  1  0  0  0  0
 47 52  1  0  0  0  0
 48 68  1  0  0  0  0
 49 52  1  0  0  0  0
 49 68  1  0  0  0  0
 50 72  1  0  0  0  0
 51 67  1  0  0  0  0
 52 66  1  0  0  0  0
 54 63  1  0  0  0  0
 55 64  1  0  0  0  0
 56 64  1  0  0  0  0
 57 64  1  0  0  0  0
 58 74  1  0  0  0  0
 59 60  1  0  0  0  0
 60 61  1  0  0  0  0
 61 81  1  0  0  0  0
 62 64  1  0  0  0  0
 62 73  1  0  0  0  0
 63 74  1  0  0  0  0
 65 66  1  0  0  0  0
M  CHG  1  74   1
M  ISO  4  40 100  61 101  71 100  81 101
M  END
> <Batch ID>
0121

> <Smiles>
CNC(C)C(=O)NC(C(=O)N1Cc2cc([101O:1][101CH2:1]CCC=Cc3ccc(C)c([100NH:0][100C:0](=O)N4CCCC(n5nc(-c6ccc(Oc7ccc(F)cc7F)cc6)c(C(N)=O)c5N)C4)c3)ccc2CC1C(=O)NC1CCCc2ccccc21)C(C)(C)C

> <Shape>
0.301

> <Color>
0.085

> <Negative vol penalty>
0.000

$$$$

  -OEChem-04052301573D

 84 92  0     1  0  0  0  0  0999 V2000
  -16.4821  -29.9002   22.2643 C   0  0  0  0  0  0  0  0  0  0  0  0
  -17.4406  -30.8597   22.5742 C   0  0  0  0  0  0  0  0  0  0  0  0
  -27.0356  -19.8922   22.3540 C   0  0  0  0  0  0  0  0  0  0  0  0
  -28.9456  -21.1202   23.1794 C   0  0  0  0  0  0  0  0  0  0  0  0
  -16.8159  -28.5469   22.2977 C   0  0  0  0  0  0  0  0  0  0  0  0
  -18.7333  -30.4664   22.9187 C   0  0  0  0  0  0  0  0  0  0  0  0
  -25.5495  -32.6031   22.3795 C   0  0  0  0  0  0  0  0  0  0  0  0
  -27.7212  -19.6219   21.1697 C   0  0  0  0  0  0  0  0  0  0  0  0
  -29.6312  -20.8498   21.9952 C   0  0  0  0  0  0  0  0  0  0  0  0
  -26.6761  -32.8198   23.1716 C   0  0  0  0  0  0  0  0  0  0  0  0
  -29.1015  -18.3026   18.0763 C   0  0  0  0  0  0  0  0  0  0  0  0
  -29.0477  -17.0007   17.5785 C   0  0  0  0  0  0  0  0  0  0  0  0
  -27.1601  -30.4572   23.1191 C   0  0  0  0  0  0  0  0  0  0  0  0
  -28.0737  -27.8570   27.6545 C   0  0  0  0  0  0  0  0  0  0  0  0
  -26.0615  -29.1477   27.3052 C   0  0  0  0  0  0  0  0  0  0  0  0
  -30.0633  -16.1812   19.6118 C   0  0  0  0  0  0  0  0  0  0  0  0
  -27.6478  -20.6414   23.3588 C   0  0  0  0  0  0  0  0  0  0  0  0
  -28.1701  -30.2710   27.6639 C   0  0  0  0  0  0  0  0  0  0  0  0
  -26.9317  -20.1452   25.7565 C   0  0  0  0  0  0  0  0  0  0  0  0
  -18.1159  -28.1372   22.6335 C   0  0  0  0  0  0  0  0  0  0  0  0
  -25.2130  -31.3081   21.9596 C   0  0  0  0  0  0  0  0  0  0  0  0
  -19.0844  -29.1063   22.9580 C   0  0  0  0  0  0  0  0  0  0  0  0
  -26.0301  -30.2270   22.3196 C   0  0  0  0  0  0  0  0  0  0  0  0
  -28.8087  -29.0361   27.7771 C   0  0  0  0  0  0  0  0  0  0  0  0
  -26.7001  -27.9128   27.4184 C   0  0  0  0  0  0  0  0  0  0  0  0
  -29.0190  -20.1006   20.9903 C   0  0  0  0  0  0  0  0  0  0  0  0
  -27.4801  -31.7464   23.5439 C   0  0  0  0  0  0  0  0  0  0  0  0
  -29.6363  -18.5438   19.3418 C   0  0  0  0  0  0  0  0  0  0  0  0
  -29.5285  -15.9400   18.3462 C   0  0  0  0  0  0  0  0  0  0  0  0
  -26.7965  -30.3269   27.4279 C   0  0  0  0  0  0  0  0  0  0  0  0
  -30.1172  -17.4831   20.1096 C   0  0  0  0  0  0  0  0  0  0  0  0
  -26.9399  -20.9215   24.5821 C   0  0  0  0  0  0  0  0  0  0  0  0
  -26.1160  -20.8359   26.6190 C   0  0  0  0  0  0  0  0  0  0  0  0
  -28.9362  -31.5459   27.7908 C   0  0  0  0  0  0  0  0  0  0  0  0
  -27.6017  -18.9102   26.0421 C   0  0  0  0  0  0  0  0  0  0  0  0
  -22.7289  -29.3775   22.4131 C   0  0  0  0  0  0  0  0  0  0  0  0
  -24.2892  -27.5062   20.2714 C   0  0  0  0  0  0  0  0  0  0  0  0
  -27.2403  -26.6314   18.7975 C   0  0  0  0  0  0  0  0  0  0  0  0
  -24.5836  -26.5947   27.0588 C   0  0  0  0  0  0  0  0  0  0  0  0
  -18.4168  -26.6609   22.7021 C   0  0  0  0  0  0  0  0  0  0  0  0
  -24.0093  -31.0945   21.0833 C   0  0  0  0  0  0  0  0  0  0  0  0
  -25.7238  -28.8200   21.8781 C   0  0  0  0  0  0  0  0  0  0  0  0
  -19.9099  -26.3435   22.7126 C   0  0  0  0  0  0  0  0  0  0  0  0
  -22.3781  -23.8295   26.6498 C   0  0  0  0  0  0  0  0  0  0  0  0
  -20.6402  -27.2438   23.7041 C   0  0  0  0  0  0  0  0  0  0  0  0
  -23.2979  -22.6977   26.1859 C   0  0  0  0  0  0  0  0  0  0  0  0
  -22.7993  -25.1775   26.0673 C   0  0  0  0  0  0  0  0  0  0  0  0
  -25.1259  -24.4048   25.8234 C   0  0  0  0  0  0  0  0  0  0  0  0
  -20.5041  -28.7201   23.3124 C   0  0  1  0  0  0  0  0  0  0  0  0
  -23.4741  -29.6671   21.1408 C   0  0  1  0  0  0  0  0  0  0  0  0
  -24.7802  -23.0378   26.4361 C   0  0  2  0  0  0  0  0  0  0  0  0
  -30.2785  -28.9472   28.0301 C   0  0  0  0  0  0  0  0  0  0  0  0
  -28.2053  -25.0430   17.1114 C   0  0  0  0  0  0  0  0  0  0  0  0
  -24.0952  -25.2369   22.3018 C   0  0  0  0  0  0  0  0  0  0  0  0
  -25.8550  -24.0181   21.0034 C   0  0  0  0  0  0  0  0  0  0  0  0
  -23.6670  -24.5572   19.9335 C   0  0  0  0  0  0  0  0  0  0  0  0
  -28.1684  -28.8473   17.0692 C   0  0  0  0  0  0  0  0  0  0  0  0
  -30.0674  -31.8190   26.8109 C   0  0  0  0  0  0  0  0  0  0  0  0
  -29.8405  -33.0988   26.0087 C   0  0  0  0  0  0  0  0  0  0  0  0
  -28.5332  -33.0504   25.2310 C   0  0  0  0  0  0  0  0  0  1  0  0
  -25.3278  -26.4145   20.3627 C   0  0  1  0  0  0  0  0  0  0  0  0
  -27.6171  -26.4264   17.3414 C   0  0  2  0  0  0  0  0  0  0  0  0
  -24.7412  -25.0828   20.9104 C   0  0  0  0  0  0  0  0  0  0  0  0
  -26.1888  -22.0212   24.6857 N   0  0  0  0  0  0  0  0  0  0  0  0
  -25.7010  -21.9407   25.9354 N   0  0  0  0  0  0  0  0  0  0  0  0
  -24.5325  -28.6616   21.0276 N   0  0  0  0  0  0  0  0  0  0  0  0
  -24.2139  -25.4339   26.3468 N   0  0  0  0  0  0  0  0  0  0  0  0
  -25.7203  -20.5998   27.8879 N   0  0  0  0  0  0  0  0  0  0  0  0
  -28.4008  -18.3371   25.0434 N   0  0  0  0  0  0  0  0  0  0  0  0
  -25.9529  -26.7154   27.2935 N   0  0  0  0  0  0  0  0  0  0  0  0
  -21.4026  -29.0391   22.2237 N   0  0  0  0  0  0  0  0  0  0  0  0
  -25.9220  -26.3043   19.0349 N   0  0  0  0  0  0  0  0  0  0  0  0
  -28.6235  -27.4412   16.9190 N   0  3  0  0  0  0  0  0  0  0  0  0
  -28.6358  -32.3405   28.6788 O   0  0  0  0  0  0  0  0  0  0  0  0
  -27.4818  -18.3236   27.1444 O   0  0  0  0  0  0  0  0  0  0  0  0
  -23.3144  -29.4538   23.4869 O   0  0  0  0  0  0  0  0  0  0  0  0
  -23.3020  -27.3429   19.5501 O   0  0  0  0  0  0  0  0  0  0  0  0
  -28.0368  -27.0372   19.6410 O   0  0  0  0  0  0  0  0  0  0  0  0
  -23.7445  -27.4070   27.4563 O   0  0  0  0  0  0  0  0  0  0  0  0
  -29.6884  -19.8368   19.8350 O   0  0  0  0  0  0  0  0  0  0  0  0
  -28.5800  -31.9551   24.3175 O   0  0  0  0  0  0  0  0  0  1  0  0
  -29.4753  -14.6897   17.8687 F   0  0  0  0  0  0  0  0  0  0  0  0
  -26.1712  -31.5076   27.3167 F   0  0  0  0  0  0  0  0  0  0  0  0
  -30.6310  -17.7085   21.3265 F   0  0  0  0  0  0  0  0  0  0  0  0
  1  2  1  0  0  0  0
  1  5  2  0  0  0  0
  2  6  2  0  0  0  0
  3  8  2  0  0  0  0
  3 17  1  0  0  0  0
  4  9  1  0  0  0  0
  4 17  2  0  0  0  0
  5 20  1  0  0  0  0
  6 22  1  0  0  0  0
  7 10  2  0  0  0  0
  7 21  1  0  0  0  0
  8 26  1  0  0  0  0
  9 26  2  0  0  0  0
 10 27  1  0  0  0  0
 11 12  2  0  0  0  0
 11 28  1  0  0  0  0
 12 29  1  0  0  0  0
 13 23  1  0  0  0  0
 13 27  2  0  0  0  0
 14 24  2  0  0  0  0
 14 25  1  0  0  0  0
 15 25  2  0  0  0  0
 15 30  1  0  0  0  0
 16 29  2  0  0  0  0
 16 31  1  0  0  0  0
 17 32  1  0  0  0  0
 18 24  1  0  0  0  0
 18 30  2  0  0  0  0
 18 34  1  0  0  0  0
 19 32  1  0  0  0  0
 19 33  2  0  0  0  0
 19 35  1  0  0  0  0
 20 22  2  0  0  0  0
 20 40  1  0  0  0  0
 21 23  2  0  0  0  0
 21 41  1  0  0  0  0
 22 49  1  0  0  0  0
 23 42  1  0  0  0  0
 24 52  1  0  0  0  0
 25 70  1  0  0  0  0
 26 80  1  0  0  0  0
 27 81  1  0  0  0  0
 28 31  2  0  0  0  0
 28 80  1  0  0  0  0
 29 82  1  0  0  0  0
 30 83  1  0  0  0  0
 31 84  1  0  0  0  0
 32 64  2  0  0  0  0
 33 65  1  0  0  0  0
 33 68  1  0  0  0  0
 34 58  1  0  0  0  0
 34 74  2  0  0  0  0
 35 69  1  0  0  0  0
 35 75  2  0  0  0  0
 36 50  1  0  0  0  0
 36 71  1  0  0  0  0
 36 76  2  0  0  0  0
 37 61  1  0  0  0  0
 37 66  1  0  0  0  0
 37 77  2  0  0  0  0
 38 62  1  0  0  0  0
 38 72  1  0  0  0  0
 38 78  2  0  0  0  0
 39 67  1  0  0  0  0
 39 70  1  0  0  0  0
 39 79  2  0  0  0  0
 40 43  1  0  0  0  0
 41 50  1  0  0  0  0
 42 66  1  0  0  0  0
 43 45  1  0  0  0  0
 44 46  1  0  0  0  0
 44 47  1  0  0  0  0
 45 49  1  0  0  0  0
 46 51  1  0  0  0  0
 47 67  1  0  0  0  0
 48 51  1  0  0  0  0
 48 67  1  0  0  0  0
 49 71  1  0  0  0  0
 50 66  1  0  0  0  0
 51 65  1  0  0  0  0
 53 62  1  0  0  0  0
 54 63  1  0  0  0  0
 55 63  1  0  0  0  0
 56 63  1  0  0  0  0
 57 73  1  0  0  0  0
 58 59  1  0  0  0  0
 59 60  1  0  0  0  0
 60 81  1  0  0  0  0
 61 63  1  0  0  0  0
 61 72  1  0  0  0  0
 62 73  1  0  0  0  0
 64 65  1  0  0  0  0
M  CHG  1  73   1
M  ISO  4  39 100  60 101  70 100  81 101
M  END
> <Batch ID>
0121

> <Smiles>
CNC(C)C(=O)NC(C(=O)N1Cc2cc([101O:1][101CH2:1]CCC(=O)c3c(C)cc([100NH:0][100C:0](=O)N4CCCC(n5nc(-c6ccc(Oc7ccc(F)cc7F)cc6)c(C(N)=O)c5N)C4)cc3F)ccc2CC1C(=O)NC1CCCc2ccccc21)C(C)(C)C

> <Shape>
0.211

> <Color>
0.097

> <Negative vol penalty>
0.000

$$$$

  -OEChem-04052301573D

 84 92  0     1  0  0  0  0  0999 V2000
  -26.6047  -35.1150   24.1910 C   0  0  0  0  0  0  0  0  0  0  0  0
  -27.0470  -33.8470   23.8276 C   0  0  0  0  0  0  0  0  0  0  0  0
  -24.4615   -9.1718   21.6599 C   0  0  0  0  0  0  0  0  0  0  0  0
  -22.7869   -9.9968   20.1263 C   0  0  0  0  0  0  0  0  0  0  0  0
  -25.2944  -35.2950   24.6323 C   0  0  0  0  0  0  0  0  0  0  0  0
  -26.1795  -32.7581   23.9065 C   0  0  0  0  0  0  0  0  0  0  0  0
  -26.4115  -29.7889   19.8107 C   0  0  0  0  0  0  0  0  0  0  0  0
  -23.6944   -8.0283   21.8824 C   0  0  0  0  0  0  0  0  0  0  0  0
  -22.0198   -8.8533   20.3488 C   0  0  0  0  0  0  0  0  0  0  0  0
  -27.4919  -28.9124   19.7201 C   0  0  0  0  0  0  0  0  0  0  0  0
  -20.9710   -7.1693   23.6906 C   0  0  0  0  0  0  0  0  0  0  0  0
  -20.8127   -6.7424   25.0091 C   0  0  0  0  0  0  0  0  0  0  0  0
  -29.0413  -21.5450   23.0091 C   0  0  0  0  0  0  0  0  0  0  0  0
  -26.0867  -27.1099   20.4917 C   0  0  0  0  0  0  0  0  0  0  0  0
  -21.8479   -4.6322   24.4501 C   0  0  0  0  0  0  0  0  0  0  0  0
  -24.0077  -10.1561   20.7819 C   0  0  0  0  0  0  0  0  0  0  0  0
  -28.9811  -22.6159   23.9326 C   0  0  0  0  0  0  0  0  0  0  0  0
  -25.7897  -11.5196   19.5682 C   0  0  0  0  0  0  0  0  0  0  0  0
  -24.4076  -34.2094   24.7074 C   0  0  0  0  0  0  0  0  0  0  0  0
  -25.1611  -29.3340   20.2537 C   0  0  0  0  0  0  0  0  0  0  0  0
  -24.8566  -32.9236   24.3505 C   0  0  0  0  0  0  0  0  0  0  0  0
  -24.9913  -27.9821   20.5846 C   0  0  0  0  0  0  0  0  0  0  0  0
  -22.4736   -7.8690   21.2268 C   0  0  0  0  0  0  0  0  0  0  0  0
  -27.3303  -27.5733   20.0633 C   0  0  0  0  0  0  0  0  0  0  0  0
  -21.5677   -6.3276   22.7519 C   0  0  0  0  0  0  0  0  0  0  0  0
  -21.2511   -5.4739   25.3888 C   0  0  0  0  0  0  0  0  0  0  0  0
  -22.0061   -5.0591   23.1316 C   0  0  0  0  0  0  0  0  0  0  0  0
  -24.7994  -11.3379   20.5521 C   0  0  0  0  0  0  0  0  0  0  0  0
  -28.6313  -20.4255   23.6952 C   0  0  0  0  0  0  0  0  0  0  0  0
  -28.5384  -22.0746   25.1170 C   0  0  0  0  0  0  0  0  0  0  0  0
  -26.2391  -12.8023   19.7662 C   0  0  0  0  0  0  0  0  0  0  0  0
  -28.5225  -19.1068   23.1969 C   0  0  0  0  0  0  0  0  0  0  0  0
  -28.0913  -17.9989   23.8857 C   0  0  0  0  0  0  0  0  0  0  0  0
  -29.7815  -24.4411   22.3537 C   0  0  0  0  0  0  0  0  0  0  0  0
  -30.1121  -25.7160   22.1054 C   0  0  0  0  0  0  0  0  0  0  0  0
  -29.3171  -24.0430   23.7100 C   0  0  0  0  0  0  0  0  0  0  0  0
  -26.2612  -10.6103   18.5649 C   0  0  0  0  0  0  0  0  0  0  0  0
  -28.0240  -16.6831   23.2185 C   0  0  0  0  0  0  0  0  0  0  0  0
  -23.2723  -30.0114   22.7189 C   0  0  0  0  0  0  0  0  0  0  0  0
  -21.2146  -28.0259   21.1872 C   0  0  0  0  0  0  0  0  0  0  0  0
  -20.7649  -25.4537   18.9898 C   0  0  0  0  0  0  0  0  0  0  0  0
  -23.0147  -34.4451   25.2355 C   0  0  0  0  0  0  0  0  0  0  0  0
  -23.9989  -30.2864   20.3205 C   0  0  0  0  0  0  0  0  0  0  0  0
  -23.6644  -27.4393   21.0465 C   0  0  0  0  0  0  0  0  0  0  0  0
  -22.0476  -33.3032   24.9338 C   0  0  0  0  0  0  0  0  0  0  0  0
  -24.4122  -16.5428   22.6125 C   0  0  0  0  0  0  0  0  0  0  0  0
  -22.6909  -31.9589   25.2589 C   0  0  0  0  0  0  0  0  0  0  0  0
  -24.2739  -15.1600   21.9812 C   0  0  0  0  0  0  0  0  0  0  0  0
  -25.5138  -16.5806   23.6707 C   0  0  0  0  0  0  0  0  0  0  0  0
  -26.6976  -14.7201   22.5404 C   0  0  0  0  0  0  0  0  0  0  0  0
  -23.9382  -31.7218   24.3988 C   0  0  1  0  0  0  0  0  0  0  0  0
  -22.9019  -29.8245   21.2748 C   0  0  1  0  0  0  0  0  0  0  0  0
  -25.6266  -14.6712   21.4395 C   0  0  1  0  0  0  0  0  0  0  0  0
  -28.2646  -22.6382   26.4478 C   0  0  0  0  0  0  0  0  0  0  0  0
  -18.9718  -24.0249   17.9699 C   0  0  0  0  0  0  0  0  0  0  0  0
  -20.9889  -26.4537   23.7925 C   0  0  0  0  0  0  0  0  0  0  0  0
  -19.9876  -24.5673   22.4860 C   0  0  0  0  0  0  0  0  0  0  0  0
  -18.8271  -26.7736   22.5764 C   0  0  0  0  0  0  0  0  0  0  0  0
  -21.4262  -26.3727   16.2554 C   0  0  0  0  0  0  0  0  0  0  0  0
  -30.6029  -26.1970   20.7677 C   0  0  0  0  0  0  0  0  0  0  0  0
  -29.6853  -27.2632   20.1808 C   0  0  0  0  0  0  0  0  0  1  0  0
  -20.9432  -26.5411   21.2125 C   0  0  1  0  0  0  0  0  0  0  0  0
  -19.8127  -25.2832   17.8200 C   0  0  2  0  0  0  0  0  0  0  0  0
  -20.2123  -26.0942   22.5100 C   0  0  0  0  0  0  0  0  0  0  0  0
  -24.6294  -12.4186   21.3183 N   0  0  0  0  0  0  0  0  0  0  0  0
  -25.5190  -13.2917   20.8160 N   0  0  0  0  0  0  0  0  0  0  0  0
  -26.7826  -16.0538   23.1459 N   0  0  0  0  0  0  0  0  0  0  0  0
  -22.5599  -28.4113   21.1012 N   0  0  0  0  0  0  0  0  0  0  0  0
  -27.1762  -13.5480   19.1430 N   0  0  0  0  0  0  0  0  0  0  0  0
  -25.6908   -9.3316   18.5010 N   0  0  0  0  0  0  0  0  0  0  0  0
  -23.5605  -31.3188   23.0611 N   0  0  0  0  0  0  0  0  0  0  0  0
  -20.2180  -26.2377   19.9835 N   0  0  0  0  0  0  0  0  0  0  0  0
  -20.5736  -25.1904   16.5419 N   0  3  0  0  0  0  0  0  0  0  0  0
  -29.2303  -24.8404   24.6373 O   0  0  0  0  0  0  0  0  0  0  0  0
  -27.1730  -10.9167   17.7598 O   0  0  0  0  0  0  0  0  0  0  0  0
  -29.0736  -16.2188   22.7698 O   0  0  0  0  0  0  0  0  0  0  0  0
  -23.2935  -29.0415   23.4676 O   0  0  0  0  0  0  0  0  0  0  0  0
  -20.2674  -28.8147   21.2347 O   0  0  0  0  0  0  0  0  0  0  0  0
  -21.8809  -24.9397   19.0208 O   0  0  0  0  0  0  0  0  0  0  0  0
  -28.3228  -20.7398   24.9807 O   0  0  0  0  0  0  0  0  0  0  0  0
  -21.7249   -6.7532   21.4435 O   0  0  0  0  0  0  0  0  0  0  0  0
  -28.3834  -26.7159   19.9763 O   0  0  0  0  0  0  0  0  0  1  0  0
  -21.1004   -5.0647   26.6553 F   0  0  0  0  0  0  0  0  0  0  0  0
  -22.5812   -4.2464   22.2345 F   0  0  0  0  0  0  0  0  0  0  0  0
  1  2  1  0  0  0  0
  1  5  2  0  0  0  0
  2  6  2  0  0  0  0
  3  8  2  0  0  0  0
  3 16  1  0  0  0  0
  4  9  1  0  0  0  0
  4 16  2  0  0  0  0
  5 19  1  0  0  0  0
  6 21  1  0  0  0  0
  7 10  2  0  0  0  0
  7 20  1  0  0  0  0
  8 23  1  0  0  0  0
  9 23  2  0  0  0  0
 10 24  1  0  0  0  0
 11 12  2  0  0  0  0
 11 25  1  0  0  0  0
 12 26  1  0  0  0  0
 13 17  1  0  0  0  0
 13 29  2  0  0  0  0
 14 22  1  0  0  0  0
 14 24  2  0  0  0  0
 15 26  2  0  0  0  0
 15 27  1  0  0  0  0
 16 28  1  0  0  0  0
 17 30  2  0  0  0  0
 17 36  1  0  0  0  0
 18 28  1  0  0  0  0
 18 31  2  0  0  0  0
 18 37  1  0  0  0  0
 19 21  2  0  0  0  0
 19 42  1  0  0  0  0
 20 22  2  0  0  0  0
 20 43  1  0  0  0  0
 21 51  1  0  0  0  0
 22 44  1  0  0  0  0
 23 81  1  0  0  0  0
 24 82  1  0  0  0  0
 25 27  2  0  0  0  0
 25 81  1  0  0  0  0
 26 83  1  0  0  0  0
 27 84  1  0  0  0  0
 28 65  2  0  0  0  0
 29 32  1  0  0  0  0
 29 80  1  0  0  0  0
 30 54  1  0  0  0  0
 30 80  1  0  0  0  0
 31 66  1  0  0  0  0
 31 69  1  0  0  0  0
 32 33  2  0  0  0  0
 33 38  1  0  0  0  0
 34 35  2  0  0  0  0
 34 36  1  0  0  0  0
 35 60  1  0  0  0  0
 36 74  2  0  0  0  0
 37 70  1  0  0  0  0
 37 75  2  0  0  0  0
 38 67  1  0  0  0  0
 38 76  2  0  0  0  0
 39 52  1  0  0  0  0
 39 71  1  0  0  0  0
 39 77  2  0  0  0  0
 40 62  1  0  0  0  0
 40 68  1  0  0  0  0
 40 78  2  0  0  0  0
 41 63  1  0  0  0  0
 41 72  1  0  0  0  0
 41 79  2  0  0  0  0
 42 45  1  0  0  0  0
 43 52  1  0  0  0  0
 44 68  1  0  0  0  0
 45 47  1  0  0  0  0
 46 48  1  0  0  0  0
 46 49  1  0  0  0  0
 47 51  1  0  0  0  0
 48 53  1  0  0  0  0
 49 67  1  0  0  0  0
 50 53  1  0  0  0  0
 50 67  1  0  0  0  0
 51 71  1  0  0  0  0
 52 68  1  0  0  0  0
 53 66  1  0  0  0  0
 55 63  1  0  0  0  0
 56 64  1  0  0  0  0
 57 64  1  0  0  0  0
 58 64  1  0  0  0  0
 59 73  1  0  0  0  0
 60 61  1  0  0  0  0
 61 82  1  0  0  0  0
 62 64  1  0  0  0  0
 62 72  1  0  0  0  0
 63 73  1  0  0  0  0
 65 66  1  0  0  0  0
M  CHG  1  73   1
M  ISO  4  33 100  38 100  61 101  82 101
M  END
> <Batch ID>
0121

> <Smiles>
CNC(C)C(=O)NC(C(=O)N1Cc2cc([101O:1][101CH2:1]CC=CC(=O)c3cc(C=[100CH:0][100C:0](=O)N4CCCC(n5nc(-c6ccc(Oc7ccc(F)cc7F)cc6)c(C(N)=O)c5N)C4)oc3C)ccc2CC1C(=O)NC1CCCc2ccccc21)C(C)(C)C

> <Shape>
0.288

> <Color>
0.126

> <Negative vol penalty>
0.000

$$$$

  -OEChem-04052301573D

 85 94  0     1  0  0  0  0  0999 V2000
  -33.2336  -36.0255   22.1335 C   0  0  0  0  0  0  0  0  0  0  0  0
  -32.9455  -34.6734   21.9772 C   0  0  0  0  0  0  0  0  0  0  0  0
  -24.3204   -9.3953   22.1469 C   0  0  0  0  0  0  0  0  0  0  0  0
  -24.0425   -8.9841   19.7824 C   0  0  0  0  0  0  0  0  0  0  0  0
  -29.6454  -20.6568   20.1174 C   0  0  0  0  0  0  0  0  0  0  0  0
  -31.8977  -20.2905   20.9110 C   0  0  0  0  0  0  0  0  0  0  0  0
  -32.5939  -36.7628   23.1290 C   0  0  0  0  0  0  0  0  0  0  0  0
  -32.0183  -34.0576   22.8171 C   0  0  0  0  0  0  0  0  0  0  0  0
  -28.7943  -31.0748   20.2965 C   0  0  0  0  0  0  0  0  0  0  0  0
  -29.9503  -21.9951   19.8696 C   0  0  0  0  0  0  0  0  0  0  0  0
  -32.2027  -21.6289   20.6632 C   0  0  0  0  0  0  0  0  0  0  0  0
  -23.2128   -8.5915   22.4169 C   0  0  0  0  0  0  0  0  0  0  0  0
  -22.9349   -8.1803   20.0524 C   0  0  0  0  0  0  0  0  0  0  0  0
  -29.2609  -29.8209   19.9042 C   0  0  0  0  0  0  0  0  0  0  0  0
  -20.6764   -6.3567   23.7537 C   0  0  0  0  0  0  0  0  0  0  0  0
  -20.7826   -5.4347   24.7949 C   0  0  0  0  0  0  0  0  0  0  0  0
  -28.1357  -28.8195   21.7884 C   0  0  0  0  0  0  0  0  0  0  0  0
  -22.6275   -4.3650   23.6595 C   0  0  0  0  0  0  0  0  0  0  0  0
  -24.7352   -9.5917   20.8297 C   0  0  0  0  0  0  0  0  0  0  0  0
  -30.6191  -19.8044   20.6382 C   0  0  0  0  0  0  0  0  0  0  0  0
  -27.2238  -10.0157   20.4626 C   0  0  0  0  0  0  0  0  0  0  0  0
  -31.6512  -36.1580   23.9753 C   0  0  0  0  0  0  0  0  0  0  0  0
  -28.0026  -31.2121   21.4457 C   0  0  0  0  0  0  0  0  0  0  0  0
  -31.3664  -34.7872   23.8257 C   0  0  0  0  0  0  0  0  0  0  0  0
  -27.6581  -30.0758   22.1916 C   0  0  0  0  0  0  0  0  0  0  0  0
  -31.2289  -22.4812   20.1425 C   0  0  0  0  0  0  0  0  0  0  0  0
  -22.5201   -7.9840   21.3696 C   0  0  0  0  0  0  0  0  0  0  0  0
  -28.9340  -28.6934   20.6518 C   0  0  0  0  0  0  0  0  0  0  0  0
  -21.5457   -6.2828   22.6653 C   0  0  0  0  0  0  0  0  0  0  0  0
  -21.7581   -4.4388   24.7479 C   0  0  0  0  0  0  0  0  0  0  0  0
  -22.5212   -5.2870   22.6182 C   0  0  0  0  0  0  0  0  0  0  0  0
  -25.8789  -10.4223   20.5501 C   0  0  0  0  0  0  0  0  0  0  0  0
  -27.9136  -11.1693   20.1801 C   0  0  0  0  0  0  0  0  0  0  0  0
  -31.2976  -26.1158   19.8404 C   0  0  0  0  0  0  0  0  0  0  0  0
  -30.3011  -18.4090   20.8965 C   0  0  0  0  0  0  0  0  0  0  0  0
  -30.7401  -27.2769   20.2018 C   0  0  0  0  0  0  0  0  0  1  0  0
  -29.0580  -17.9034   21.0450 C   0  0  0  0  0  0  0  0  0  0  0  0
  -27.7982   -8.7117   20.6223 C   0  0  0  0  0  0  0  0  0  0  0  0
  -28.8976  -16.4566   21.2941 C   0  0  0  0  0  0  0  0  0  0  0  0
  -28.3143  -32.7412   24.2149 C   0  0  0  0  0  0  0  0  0  0  0  0
  -25.2625  -31.7387   24.6663 C   0  0  0  0  0  0  0  0  0  0  0  0
  -22.8074  -29.4944   23.9033 C   0  0  0  0  0  0  0  0  0  0  0  0
  -31.0204  -36.9847   25.0676 C   0  0  0  0  0  0  0  0  0  0  0  0
  -27.4850  -32.5681   21.8403 C   0  0  0  0  0  0  0  0  0  0  0  0
  -26.7943  -30.1668   23.4220 C   0  0  0  0  0  0  0  0  0  0  0  0
  -32.7683  -25.8495   19.7896 C   0  0  0  0  0  0  0  0  0  0  0  0
  -29.7738  -36.3447   25.6731 C   0  0  0  0  0  0  0  0  0  0  0  0
  -26.2866  -15.7454   18.8226 C   0  0  0  0  0  0  0  0  0  0  0  0
  -30.0253  -34.8718   25.9798 C   0  0  0  0  0  0  0  0  0  0  0  0
  -26.0290  -14.2641   19.0855 C   0  0  0  0  0  0  0  0  0  0  0  0
  -32.8578  -24.3736   20.1643 C   0  0  0  0  0  0  0  0  0  0  0  0
  -26.6402  -16.5003   20.1030 C   0  0  0  0  0  0  0  0  0  0  0  0
  -27.5239  -14.4185   21.1157 C   0  0  0  0  0  0  0  0  0  0  0  0
  -30.3482  -34.0893   24.7012 C   0  0  1  0  0  0  0  0  0  0  0  0
  -30.5469  -24.8419   19.5481 C   0  0  1  0  0  0  0  0  0  0  0  0
  -27.1123  -32.6589   23.3169 C   0  0  1  0  0  0  0  0  0  0  0  0
  -27.2124  -13.6303   19.8339 C   0  0  1  0  0  0  0  0  0  0  0  0
  -30.1785  -24.7661   18.0673 C   0  0  0  0  0  0  0  0  0  0  0  0
  -20.4315  -28.9088   24.4597 C   0  0  0  0  0  0  0  0  0  0  0  0
  -26.1819  -30.5361   27.3155 C   0  0  0  0  0  0  0  0  0  0  0  0
  -24.0725  -29.1882   27.3558 C   0  0  0  0  0  0  0  0  0  0  0  0
  -23.9595  -31.6797   27.4044 C   0  0  0  0  0  0  0  0  0  0  0  0
  -21.9271  -29.9156   21.1093 C   0  0  0  0  0  0  0  0  0  0  0  0
  -24.6177  -30.5104   25.2616 C   0  0  1  0  0  0  0  0  0  0  0  0
  -21.3489  -29.6856   23.5283 C   0  0  2  0  0  0  0  0  0  0  0  0
  -24.7258  -30.4768   26.8123 C   0  0  0  0  0  0  0  0  0  0  0  0
  -25.7214  -11.7320   20.3404 N   0  0  0  0  0  0  0  0  0  0  0  0
  -26.9764  -12.1583   20.1183 N   0  0  0  0  0  0  0  0  0  0  0  0
  -31.5318  -23.8098   19.8965 N   0  0  3  0  0  0  0  0  0  0  0  0
  -27.7356  -15.8421   20.8308 N   0  0  0  0  0  0  0  0  0  0  0  0
  -26.3179  -31.5156   23.7707 N   0  0  0  0  0  0  0  0  0  0  0  0
  -29.2242  -11.4241   19.9810 N   0  0  0  0  0  0  0  0  0  0  0  0
  -26.9460   -7.6369   20.9101 N   0  0  0  0  0  0  0  0  0  0  0  0
  -29.1382  -33.8196   23.9545 N   0  0  0  0  0  0  0  0  0  0  0  0
  -23.2490  -30.4828   24.7573 N   0  0  0  0  0  0  0  0  0  0  0  0
  -21.1072  -29.2190   22.1337 N   0  3  0  0  0  0  0  0  0  0  0  0
  -29.0325   -8.5087   20.5292 O   0  0  0  0  0  0  0  0  0  0  0  0
  -29.8015  -15.8807   21.9024 O   0  0  0  0  0  0  0  0  0  0  0  0
  -28.4810  -31.8903   25.0808 O   0  0  0  0  0  0  0  0  0  0  0  0
  -24.8404  -32.8549   24.9787 O   0  0  0  0  0  0  0  0  0  0  0  0
  -23.4859  -28.5594   23.4838 O   0  0  0  0  0  0  0  0  0  0  0  0
  -21.4395   -7.1994   21.6327 O   0  0  0  0  0  0  0  0  0  0  0  0
  -29.3887  -27.4684   20.2716 O   0  0  0  0  0  0  0  0  0  1  0  0
  -21.8610   -3.5544   25.7486 F   0  0  0  0  0  0  0  0  0  0  0  0
  -23.3600   -5.2117   21.5758 F   0  0  0  0  0  0  0  0  0  0  0  0
  1  2  1  0  0  0  0
  1  7  2  0  0  0  0
  2  8  2  0  0  0  0
  3 12  2  0  0  0  0
  3 19  1  0  0  0  0
  4 13  1  0  0  0  0
  4 19  2  0  0  0  0
  5 10  2  0  0  0  0
  5 20  1  0  0  0  0
  6 11  1  0  0  0  0
  6 20  2  0  0  0  0
  7 22  1  0  0  0  0
  8 24  1  0  0  0  0
  9 14  2  0  0  0  0
  9 23  1  0  0  0  0
 10 26  1  0  0  0  0
 11 26  2  0  0  0  0
 12 27  1  0  0  0  0
 13 27  2  0  0  0  0
 14 28  1  0  0  0  0
 15 16  2  0  0  0  0
 15 29  1  0  0  0  0
 16 30  1  0  0  0  0
 17 25  1  0  0  0  0
 17 28  2  0  0  0  0
 18 30  2  0  0  0  0
 18 31  1  0  0  0  0
 19 32  1  0  0  0  0
 20 35  1  0  0  0  0
 21 32  1  0  0  0  0
 21 33  2  0  0  0  0
 21 38  1  0  0  0  0
 22 24  2  0  0  0  0
 22 43  1  0  0  0  0
 23 25  2  0  0  0  0
 23 44  1  0  0  0  0
 24 54  1  0  0  0  0
 25 45  1  0  0  0  0
 26 69  1  0  0  0  0
 27 82  1  0  0  0  0
 28 83  1  0  0  0  0
 29 31  2  0  0  0  0
 29 82  1  0  0  0  0
 30 84  1  0  0  0  0
 31 85  1  0  0  0  0
 32 67  2  0  0  0  0
 33 68  1  0  0  0  0
 33 72  1  0  0  0  0
 34 36  2  0  0  0  0
 34 46  1  0  0  0  0
 34 55  1  0  0  0  0
 35 37  2  0  0  0  0
 36 83  1  0  0  0  0
 37 39  1  0  0  0  0
 38 73  1  0  0  0  0
 38 77  2  0  0  0  0
 39 70  1  0  0  0  0
 39 78  2  0  0  0  0
 40 56  1  0  0  0  0
 40 74  1  0  0  0  0
 40 79  2  0  0  0  0
 41 64  1  0  0  0  0
 41 71  1  0  0  0  0
 41 80  2  0  0  0  0
 42 65  1  0  0  0  0
 42 75  1  0  0  0  0
 42 81  2  0  0  0  0
 43 47  1  0  0  0  0
 44 56  1  0  0  0  0
 45 71  1  0  0  0  0
 46 51  1  0  0  0  0
 47 49  1  0  0  0  0
 48 50  1  0  0  0  0
 48 52  1  0  0  0  0
 49 54  1  0  0  0  0
 50 57  1  0  0  0  0
 51 69  1  0  0  0  0
 52 70  1  0  0  0  0
 53 57  1  0  0  0  0
 53 70  1  0  0  0  0
 54 74  1  0  0  0  0
 55 58  1  0  0  0  0
 55 69  1  0  0  0  0
 56 71  1  0  0  0  0
 57 68  1  0  0  0  0
 59 65  1  0  0  0  0
 60 66  1  0  0  0  0
 61 66  1  0  0  0  0
 62 66  1  0  0  0  0
 63 76  1  0  0  0  0
 64 66  1  0  0  0  0
 64 75  1  0  0  0  0
 65 76  1  0  0  0  0
 67 68  1  0  0  0  0
M  CHG  1  76   1
M  ISO  4  36 101  37 100  39 100  83 101
M  END
> <Batch ID>
0121

> <Smiles>
CNC(C)C(=O)NC(C(=O)N1Cc2cc([101O:1][101CH:1]=C3CCN(c4ccc(C=[100CH:0][100C:0](=O)N5CCCC(n6nc(-c7ccc(Oc8ccc(F)cc8F)cc7)c(C(N)=O)c6N)C5)cc4)C3C)ccc2CC1C(=O)NC1CCCc2ccccc21)C(C)(C)C

> <Shape>
0.290

> <Color>
0.110

> <Negative vol penalty>
0.000

$$$$

  -OEChem-04052301573D

 86 94  0     1  0  0  0  0  0999 V2000
  -20.2659  -26.9840   15.0477 C   0  0  0  0  0  0  0  0  0  0  0  0
  -20.8690  -27.6496   16.1089 C   0  0  0  0  0  0  0  0  0  0  0  0
  -26.7474  -12.9826   20.9711 C   0  0  0  0  0  0  0  0  0  0  0  0
  -26.9452  -13.0524   18.5642 C   0  0  0  0  0  0  0  0  0  0  0  0
  -20.7880  -25.7710   14.6037 C   0  0  0  0  0  0  0  0  0  0  0  0
  -22.0014  -27.1085   16.7186 C   0  0  0  0  0  0  0  0  0  0  0  0
  -24.2657  -29.8838   20.0911 C   0  0  0  0  0  0  0  0  0  0  0  0
  -26.2641  -11.6765   20.8935 C   0  0  0  0  0  0  0  0  0  0  0  0
  -26.4620  -11.7462   18.4866 C   0  0  0  0  0  0  0  0  0  0  0  0
  -23.7263  -30.1255   21.3538 C   0  0  0  0  0  0  0  0  0  0  0  0
  -24.6384   -8.4497   21.3040 C   0  0  0  0  0  0  0  0  0  0  0  0
  -23.5270   -8.1207   22.0798 C   0  0  0  0  0  0  0  0  0  0  0  0
  -21.8753  -23.9493   23.2158 C   0  0  0  0  0  0  0  0  0  0  0  0
  -25.2662  -28.5336   22.3096 C   0  0  0  0  0  0  0  0  0  0  0  0
  -20.3921  -25.5319   22.1516 C   0  0  0  0  0  0  0  0  0  0  0  0
  -22.2303   -9.8097   20.9383 C   0  0  0  0  0  0  0  0  0  0  0  0
  -27.0879  -13.6706   19.8064 C   0  0  0  0  0  0  0  0  0  0  0  0
  -21.8222  -23.1375   22.0828 C   0  0  0  0  0  0  0  0  0  0  0  0
  -28.9296  -15.4242   20.0077 C   0  0  0  0  0  0  0  0  0  0  0  0
  -21.9199  -25.2092   15.2170 C   0  0  0  0  0  0  0  0  0  0  0  0
  -25.3038  -28.9556   19.9263 C   0  0  0  0  0  0  0  0  0  0  0  0
  -22.5576  -25.8971   16.2694 C   0  0  0  0  0  0  0  0  0  0  0  0
  -25.8187  -28.2838   21.0442 C   0  0  0  0  0  0  0  0  0  0  0  0
  -20.3390  -24.7202   21.0185 C   0  0  0  0  0  0  0  0  0  0  0  0
  -21.0541  -23.5230   20.9841 C   0  0  0  0  0  0  0  0  0  0  0  0
  -26.1214  -11.0583   19.6514 C   0  0  0  0  0  0  0  0  0  0  0  0
  -24.2246  -29.4482   22.4629 C   0  0  0  0  0  0  0  0  0  0  0  0
  -24.5459   -9.4587   20.3453 C   0  0  0  0  0  0  0  0  0  0  0  0
  -21.1602  -25.1465   23.2502 C   0  0  0  0  0  0  0  0  0  0  0  0
  -22.3229   -8.8007   21.8970 C   0  0  0  0  0  0  0  0  0  0  0  0
  -23.3418  -10.1387   20.1625 C   0  0  0  0  0  0  0  0  0  0  0  0
  -27.5866  -15.0201   19.8858 C   0  0  0  0  0  0  0  0  0  0  0  0
  -28.8736  -16.7961   20.0420 C   0  0  0  0  0  0  0  0  0  0  0  0
  -22.5820  -21.8939   22.0800 C   0  0  0  0  0  0  0  0  0  0  0  0
  -23.8623  -21.7625   21.6778 C   0  0  0  0  0  0  0  0  0  0  0  0
  -30.1213  -14.6305   20.0831 C   0  0  0  0  0  0  0  0  0  0  0  0
  -24.4993  -20.4319   21.7448 C   0  0  0  0  0  0  0  0  0  0  0  0
  -25.6415  -26.2281   18.3292 C   0  0  0  0  0  0  0  0  0  0  0  0
  -28.7190  -26.4797   19.3231 C   0  0  0  0  0  0  0  0  0  0  0  0
  -30.9382  -27.7418   21.5878 C   0  0  0  0  0  0  0  0  0  0  0  0
  -22.4477  -23.8976   14.6911 C   0  0  0  0  0  0  0  0  0  0  0  0
  -25.8927  -28.7259   18.5615 C   0  0  0  0  0  0  0  0  0  0  0  0
  -26.9462  -27.2924   20.9237 C   0  0  0  0  0  0  0  0  0  0  0  0
  -23.3716  -23.1903   15.6773 C   0  0  0  0  0  0  0  0  0  0  0  0
  -26.2560  -20.4858   18.5287 C   0  0  0  0  0  0  0  0  0  0  0  0
  -24.4239  -24.1612   16.1916 C   0  0  0  0  0  0  0  0  0  0  0  0
  -26.8817  -19.0937   18.5126 C   0  0  0  0  0  0  0  0  0  0  0  0
  -24.8953  -20.4930   19.2237 C   0  0  0  0  0  0  0  0  0  0  0  0
  -25.5527  -18.5297   20.5852 C   0  0  0  0  0  0  0  0  0  0  0  0
  -23.7719  -25.3125   16.9678 C   0  0  1  0  0  0  0  0  0  0  0  0
  -26.6002  -27.3802   18.4347 C   0  0  1  0  0  0  0  0  0  0  0  0
  -26.9436  -18.5082   19.9322 C   0  0  1  0  0  0  0  0  0  0  0  0
  -19.5099  -25.1578   19.8554 C   0  0  0  0  0  0  0  0  0  0  0  0
  -19.6865  -21.8753   19.6797 C   0  0  0  0  0  0  0  0  0  0  0  0
  -33.3811  -27.7431   22.1617 C   0  0  0  0  0  0  0  0  0  0  0  0
  -28.4511  -23.6606   20.4593 C   0  0  0  0  0  0  0  0  0  0  0  0
  -30.5179  -24.0828   21.8078 C   0  0  0  0  0  0  0  0  0  0  0  0
  -30.6269  -24.1221   19.3159 C   0  0  0  0  0  0  0  0  0  0  0  0
  -31.1380  -30.6736   21.2363 C   0  0  0  0  0  0  0  0  0  0  0  0
  -20.9903  -22.6606   19.7617 C   0  0  0  0  0  0  0  0  0  0  0  0
  -21.7197  -29.5964   25.0761 C   0  0  0  0  0  0  0  0  0  0  0  0
  -21.8254  -28.0848   25.2456 C   0  0  0  0  0  0  0  0  0  0  0  0
  -22.3241  -30.0572   23.7564 C   0  0  0  0  0  0  0  0  0  1  0  0
  -21.0619  -27.3424   24.1580 C   0  0  0  0  0  0  0  0  0  0  0  0
  -29.4912  -26.0224   20.5370 C   0  0  1  0  0  0  0  0  0  0  0  0
  -32.2674  -28.4524   21.4072 C   0  0  2  0  0  0  0  0  0  0  0  0
  -29.7492  -24.4892   20.5323 C   0  0  0  0  0  0  0  0  0  0  0  0
  -26.7393  -16.0518   19.8455 N   0  0  0  0  0  0  0  0  0  0  0  0
  -27.5519  -17.1178   19.9427 N   0  0  0  0  0  0  0  0  0  0  0  0
  -24.9682  -19.8751   20.5563 N   0  0  0  0  0  0  0  0  0  0  0  0
  -27.4843  -27.0976   19.5673 N   0  0  0  0  0  0  0  0  0  0  0  0
  -29.8264  -17.7467   20.1471 N   0  0  0  0  0  0  0  0  0  0  0  0
  -29.9989  -13.2352   20.0334 N   0  0  0  0  0  0  0  0  0  0  0  0
  -24.7743  -26.3143   17.2568 N   0  0  0  0  0  0  0  0  0  0  0  0
  -30.7039  -26.8323   20.5783 N   0  0  0  0  0  0  0  0  0  0  0  0
  -32.1783  -29.8531   21.9082 N   0  3  0  0  0  0  0  0  0  0  0  0
  -31.2594  -15.1429   20.2079 O   0  0  0  0  0  0  0  0  0  0  0  0
  -24.5731  -19.8918   22.8500 O   0  0  0  0  0  0  0  0  0  0  0  0
  -25.6862  -25.3270   19.1584 O   0  0  0  0  0  0  0  0  0  0  0  0
  -29.1970  -26.3018   18.1999 O   0  0  0  0  0  0  0  0  0  0  0  0
  -30.1848  -27.9681   22.5322 O   0  0  0  0  0  0  0  0  0  0  0  0
  -25.6501   -9.7836   19.5753 O   0  0  0  0  0  0  0  0  0  0  0  0
  -23.6995  -29.6818   23.6965 O   0  0  0  0  0  0  0  0  0  1  0  0
  -21.2120  -25.9444   24.3636 O   0  0  0  0  0  0  0  0  0  0  0  0
  -21.2551   -8.4836   22.6410 F   0  0  0  0  0  0  0  0  0  0  0  0
  -23.2465  -11.1082   19.2423 F   0  0  0  0  0  0  0  0  0  0  0  0
  1  2  1  0  0  0  0
  1  5  2  0  0  0  0
  2  6  2  0  0  0  0
  3  8  2  0  0  0  0
  3 17  1  0  0  0  0
  4  9  1  0  0  0  0
  4 17  2  0  0  0  0
  5 20  1  0  0  0  0
  6 22  1  0  0  0  0
  7 10  2  0  0  0  0
  7 21  1  0  0  0  0
  8 26  1  0  0  0  0
  9 26  2  0  0  0  0
 10 27  1  0  0  0  0
 11 12  2  0  0  0  0
 11 28  1  0  0  0  0
 12 30  1  0  0  0  0
 13 18  1  0  0  0  0
 13 29  2  0  0  0  0
 14 23  1  0  0  0  0
 14 27  2  0  0  0  0
 15 24  2  0  0  0  0
 15 29  1  0  0  0  0
 16 30  2  0  0  0  0
 16 31  1  0  0  0  0
 17 32  1  0  0  0  0
 18 25  2  0  0  0  0
 18 34  1  0  0  0  0
 19 32  1  0  0  0  0
 19 33  2  0  0  0  0
 19 36  1  0  0  0  0
 20 22  2  0  0  0  0
 20 41  1  0  0  0  0
 21 23  2  0  0  0  0
 21 42  1  0  0  0  0
 22 50  1  0  0  0  0
 23 43  1  0  0  0  0
 24 25  1  0  0  0  0
 24 53  1  0  0  0  0
 25 60  1  0  0  0  0
 26 82  1  0  0  0  0
 27 83  1  0  0  0  0
 28 31  2  0  0  0  0
 28 82  1  0  0  0  0
 29 84  1  0  0  0  0
 30 85  1  0  0  0  0
 31 86  1  0  0  0  0
 32 68  2  0  0  0  0
 33 69  1  0  0  0  0
 33 72  1  0  0  0  0
 34 35  2  0  0  0  0
 35 37  1  0  0  0  0
 36 73  1  0  0  0  0
 36 77  2  0  0  0  0
 37 70  1  0  0  0  0
 37 78  2  0  0  0  0
 38 51  1  0  0  0  0
 38 74  1  0  0  0  0
 38 79  2  0  0  0  0
 39 65  1  0  0  0  0
 39 71  1  0  0  0  0
 39 80  2  0  0  0  0
 40 66  1  0  0  0  0
 40 75  1  0  0  0  0
 40 81  2  0  0  0  0
 41 44  1  0  0  0  0
 42 51  1  0  0  0  0
 43 71  1  0  0  0  0
 44 46  1  0  0  0  0
 45 47  1  0  0  0  0
 45 48  1  0  0  0  0
 46 50  1  0  0  0  0
 47 52  1  0  0  0  0
 48 70  1  0  0  0  0
 49 52  1  0  0  0  0
 49 70  1  0  0  0  0
 50 74  1  0  0  0  0
 51 71  1  0  0  0  0
 52 69  1  0  0  0  0
 54 60  1  0  0  0  0
 55 66  1  0  0  0  0
 56 67  1  0  0  0  0
 57 67  1  0  0  0  0
 58 67  1  0  0  0  0
 59 76  1  0  0  0  0
 61 62  1  0  0  0  0
 61 63  1  0  0  0  0
 62 64  1  0  0  0  0
 63 83  1  0  0  0  0
 64 84  1  0  0  0  0
 65 67  1  0  0  0  0
 65 75  1  0  0  0  0
 66 76  1  0  0  0  0
 68 69  1  0  0  0  0
M  CHG  1  76   1
M  ISO  4  35 100  37 100  63 101  83 101
M  END
> <Batch ID>
0121

> <Smiles>
CCc1c(C)cc(OCCC[101CH2:1][101O:1]c2ccc3c(c2)CN(C(=O)C(NC(=O)C(C)NC)C(C)(C)C)C(C(=O)NC2CCCc4ccccc42)C3)cc1C=[100CH:0][100C:0](=O)N1CCCC(n2nc(-c3ccc(Oc4ccc(F)cc4F)cc3)c(C(N)=O)c2N)C1

> <Shape>
0.214

> <Color>
0.077

> <Negative vol penalty>
0.000

$$$$

  -OEChem-04052301573D

 85 93  0     1  0  0  0  0  0999 V2000
  -31.5927  -25.7781   13.9286 C   0  0  0  0  0  0  0  0  0  0  0  0
  -32.0062  -25.3961   15.2009 C   0  0  0  0  0  0  0  0  0  0  0  0
  -23.1714   -9.6908   20.0593 C   0  0  0  0  0  0  0  0  0  0  0  0
  -23.8881   -9.9079   22.3563 C   0  0  0  0  0  0  0  0  0  0  0  0
  -30.5960  -15.2733   23.7901 C   0  0  0  0  0  0  0  0  0  0  0  0
  -30.5482  -26.6897   13.7808 C   0  0  0  0  0  0  0  0  0  0  0  0
  -31.3761  -25.9265   16.3261 C   0  0  0  0  0  0  0  0  0  0  0  0
  -30.3416  -22.4043   19.8145 C   0  0  0  0  0  0  0  0  0  0  0  0
  -31.1015  -15.5998   25.0484 C   0  0  0  0  0  0  0  0  0  0  0  0
  -22.4807   -8.5236   20.3851 C   0  0  0  0  0  0  0  0  0  0  0  0
  -23.1974   -8.7407   22.6821 C   0  0  0  0  0  0  0  0  0  0  0  0
  -31.3971  -21.9740   20.6173 C   0  0  0  0  0  0  0  0  0  0  0  0
  -20.0020   -7.8285   23.2966 C   0  0  0  0  0  0  0  0  0  0  0  0
  -19.2268   -7.8382   24.4561 C   0  0  0  0  0  0  0  0  0  0  0  0
  -30.6327  -23.4227   22.3882 C   0  0  0  0  0  0  0  0  0  0  0  0
  -20.5484   -6.0265   25.3551 C   0  0  0  0  0  0  0  0  0  0  0  0
  -23.8751  -10.3830   21.0448 C   0  0  0  0  0  0  0  0  0  0  0  0
  -30.4461  -16.2644   22.8200 C   0  0  0  0  0  0  0  0  0  0  0  0
  -24.0944  -12.9060   20.7388 C   0  0  0  0  0  0  0  0  0  0  0  0
  -29.8985  -27.2241   14.9046 C   0  0  0  0  0  0  0  0  0  0  0  0
  -29.4285  -23.3568   20.2894 C   0  0  0  0  0  0  0  0  0  0  0  0
  -30.3228  -26.8472   16.1931 C   0  0  0  0  0  0  0  0  0  0  0  0
  -29.5651  -23.8615   21.5904 C   0  0  0  0  0  0  0  0  0  0  0  0
  -31.4570  -16.9174   25.3368 C   0  0  0  0  0  0  0  0  0  0  0  0
  -30.8015  -17.5820   23.1084 C   0  0  0  0  0  0  0  0  0  0  0  0
  -22.4937   -8.0485   21.6965 C   0  0  0  0  0  0  0  0  0  0  0  0
  -31.5445  -22.4853   21.9033 C   0  0  0  0  0  0  0  0  0  0  0  0
  -21.0504   -6.9176   23.1663 C   0  0  0  0  0  0  0  0  0  0  0  0
  -31.3070  -17.9086   24.3668 C   0  0  0  0  0  0  0  0  0  0  0  0
  -19.5000   -6.9373   25.4854 C   0  0  0  0  0  0  0  0  0  0  0  0
  -21.3236   -6.0167   24.1955 C   0  0  0  0  0  0  0  0  0  0  0  0
  -24.5892  -11.5885   20.7088 C   0  0  0  0  0  0  0  0  0  0  0  0
  -25.1548  -13.6803   20.3357 C   0  0  0  0  0  0  0  0  0  0  0  0
  -34.1291  -21.3558   25.6829 C   0  0  0  0  0  0  0  0  0  0  0  0
  -29.9159  -15.8932   21.5149 C   0  0  0  0  0  0  0  0  0  0  0  0
  -22.7927  -13.3871   21.0991 C   0  0  0  0  0  0  0  0  0  0  0  0
  -33.2103  -21.0173   24.7645 C   0  0  0  0  0  0  0  0  0  0  0  0
  -30.6045  -14.8999   20.6591 C   0  0  0  0  0  0  0  0  0  0  0  0
  -28.5880  -26.2929   19.4082 C   0  0  0  0  0  0  0  0  0  0  0  0
  -26.3494  -25.9277   21.7271 C   0  0  0  0  0  0  0  0  0  0  0  0
  -25.3879  -24.3674   24.6059 C   0  0  0  0  0  0  0  0  0  0  0  0
  -28.8058  -28.2424   14.6955 C   0  0  0  0  0  0  0  0  0  0  0  0
  -28.2799  -23.7907   19.4206 C   0  0  0  0  0  0  0  0  0  0  0  0
  -28.6000  -24.8708   22.1548 C   0  0  0  0  0  0  0  0  0  0  0  0
  -27.9423  -28.4721   15.9331 C   0  0  0  0  0  0  0  0  0  0  0  0
  -29.5934  -12.4001   18.2957 C   0  0  0  0  0  0  0  0  0  0  0  0
  -28.8176  -28.6429   17.1706 C   0  0  0  0  0  0  0  0  0  0  0  0
  -28.1744  -12.0471   18.7405 C   0  0  0  0  0  0  0  0  0  0  0  0
  -30.4845  -12.7364   19.4870 C   0  0  0  0  0  0  0  0  0  0  0  0
  -28.5192  -13.4747   20.8066 C   0  0  0  0  0  0  0  0  0  0  0  0
  -29.6477  -27.3815   17.4377 C   0  0  1  0  0  0  0  0  0  0  0  0
  -27.7076  -25.1472   19.8203 C   0  0  1  0  0  0  0  0  0  0  0  0
  -27.5822  -13.1559   19.6285 C   0  0  2  0  0  0  0  0  0  0  0  0
  -31.9960  -17.2468   26.6899 C   0  0  0  0  0  0  0  0  0  0  0  0
  -30.6439  -18.6502   22.0728 C   0  0  0  0  0  0  0  0  0  0  0  0
  -23.5240  -24.3053   26.2850 C   0  0  0  0  0  0  0  0  0  0  0  0
  -27.3509  -28.5459   22.9320 C   0  0  0  0  0  0  0  0  0  0  0  0
  -26.1524  -27.9498   25.0477 C   0  0  0  0  0  0  0  0  0  0  0  0
  -24.8643  -28.2791   22.9370 C   0  0  0  0  0  0  0  0  0  0  0  0
  -24.8115  -21.5214   24.0338 C   0  0  0  0  0  0  0  0  0  0  0  0
  -32.3548  -22.0622   24.0989 C   0  0  0  0  0  0  0  0  0  1  0  0
  -32.9980  -19.5808   24.3717 C   0  0  0  0  0  0  0  0  0  0  0  0
  -26.2896  -26.2086   23.2091 C   0  0  1  0  0  0  0  0  0  0  0  0
  -24.0818  -23.7041   25.0043 C   0  0  2  0  0  0  0  0  0  0  0  0
  -26.1838  -27.7283   23.5204 C   0  0  0  0  0  0  0  0  0  0  0  0
  -25.8647  -11.5255   20.3173 N   0  0  0  0  0  0  0  0  0  0  0  0
  -28.8196  -16.3974   21.0196 N   0  0  0  0  0  0  0  0  0  0  0  0
  -26.1802  -12.8132   20.0975 N   0  0  0  0  0  0  0  0  0  0  0  0
  -29.8765  -13.7656   20.3280 N   0  0  0  0  0  0  0  0  0  0  0  0
  -27.4971  -25.2685   21.2644 N   0  0  0  0  0  0  0  0  0  0  0  0
  -25.3007  -15.0115   20.1650 N   0  0  0  0  0  0  0  0  0  0  0  0
  -21.8207  -12.4558   21.4896 N   0  0  0  0  0  0  0  0  0  0  0  0
  -28.8281  -26.3572   18.0489 N   0  0  0  0  0  0  0  0  0  0  0  0
  -25.1835  -25.4134   23.7310 N   0  0  0  0  0  0  0  0  0  0  0  0
  -24.2873  -22.2441   25.2212 N   0  3  0  0  0  0  0  0  0  0  0  0
  -22.4951  -14.6050   21.0596 O   0  0  0  0  0  0  0  0  0  0  0  0
  -31.7490  -15.1872   20.3338 O   0  0  0  0  0  0  0  0  0  0  0  0
  -29.0166  -27.0625   20.2601 O   0  0  0  0  0  0  0  0  0  0  0  0
  -25.4091  -26.2738   21.0075 O   0  0  0  0  0  0  0  0  0  0  0  0
  -26.4799  -23.9971   25.0313 O   0  0  0  0  0  0  0  0  0  0  0  0
  -21.8197   -6.9097   22.0148 O   0  0  0  0  0  0  0  0  0  0  0  0
  -32.5742  -22.0675   22.6888 O   0  0  0  0  0  0  0  0  0  1  0  0
  -31.6569  -19.2026   24.6522 O   0  0  0  0  0  0  0  0  0  0  0  0
  -18.7564   -6.9479   26.5994 F   0  0  0  0  0  0  0  0  0  0  0  0
  -22.3303   -5.1402   24.0765 F   0  0  0  0  0  0  0  0  0  0  0  0
  1  2  1  0  0  0  0
  1  6  2  0  0  0  0
  2  7  2  0  0  0  0
  3 10  2  0  0  0  0
  3 17  1  0  0  0  0
  4 11  1  0  0  0  0
  4 17  2  0  0  0  0
  5  9  1  0  0  0  0
  5 18  2  0  0  0  0
  6 20  1  0  0  0  0
  7 22  1  0  0  0  0
  8 12  2  0  0  0  0
  8 21  1  0  0  0  0
  9 24  2  0  0  0  0
 10 26  1  0  0  0  0
 11 26  2  0  0  0  0
 12 27  1  0  0  0  0
 13 14  2  0  0  0  0
 13 28  1  0  0  0  0
 14 30  1  0  0  0  0
 15 23  1  0  0  0  0
 15 27  2  0  0  0  0
 16 30  2  0  0  0  0
 16 31  1  0  0  0  0
 17 32  1  0  0  0  0
 18 25  1  0  0  0  0
 18 35  1  0  0  0  0
 19 32  1  0  0  0  0
 19 33  2  0  0  0  0
 19 36  1  0  0  0  0
 20 22  2  0  0  0  0
 20 42  1  0  0  0  0
 21 23  2  0  0  0  0
 21 43  1  0  0  0  0
 22 51  1  0  0  0  0
 23 44  1  0  0  0  0
 24 29  1  0  0  0  0
 24 54  1  0  0  0  0
 25 29  2  0  0  0  0
 25 55  1  0  0  0  0
 26 81  1  0  0  0  0
 27 82  1  0  0  0  0
 28 31  2  0  0  0  0
 28 81  1  0  0  0  0
 29 83  1  0  0  0  0
 30 84  1  0  0  0  0
 31 85  1  0  0  0  0
 32 66  2  0  0  0  0
 33 68  1  0  0  0  0
 33 71  1  0  0  0  0
 34 37  2  0  0  0  0
 35 38  1  0  0  0  0
 35 67  2  0  0  0  0
 36 72  1  0  0  0  0
 36 76  2  0  0  0  0
 37 61  1  0  0  0  0
 37 62  1  0  0  0  0
 38 69  1  0  0  0  0
 38 77  2  0  0  0  0
 39 52  1  0  0  0  0
 39 73  1  0  0  0  0
 39 78  2  0  0  0  0
 40 63  1  0  0  0  0
 40 70  1  0  0  0  0
 40 79  2  0  0  0  0
 41 64  1  0  0  0  0
 41 74  1  0  0  0  0
 41 80  2  0  0  0  0
 42 45  1  0  0  0  0
 43 52  1  0  0  0  0
 44 70  1  0  0  0  0
 45 47  1  0  0  0  0
 46 48  1  0  0  0  0
 46 49  1  0  0  0  0
 47 51  1  0  0  0  0
 48 53  1  0  0  0  0
 49 69  1  0  0  0  0
 50 53  1  0  0  0  0
 50 69  1  0  0  0  0
 51 73  1  0  0  0  0
 52 70  1  0  0  0  0
 53 68  1  0  0  0  0
 56 64  1  0  0  0  0
 57 65  1  0  0  0  0
 58 65  1  0  0  0  0
 59 65  1  0  0  0  0
 60 75  1  0  0  0  0
 61 82  1  0  0  0  0
 62 83  1  0  0  0  0
 63 65  1  0  0  0  0
 63 74  1  0  0  0  0
 64 75  1  0  0  0  0
 66 68  1  0  0  0  0
M  CHG  1  75   1
M  ISO  4  35 100  38 100  61 101  82 101
M  END
> <Batch ID>
0121

> <Smiles>
C=C(COc1c(C)ccc([100C:0](=N)[100C:0](=O)N2CCCC(n3nc(-c4ccc(Oc5ccc(F)cc5F)cc4)c(C(N)=O)c3N)C2)c1C)[101CH2:1][101O:1]c1ccc2c(c1)CN(C(=O)C(NC(=O)C(C)NC)C(C)(C)C)C(C(=O)NC1CCCc3ccccc31)C2

> <Shape>
0.226

> <Color>
0.189

> <Negative vol penalty>
0.000

$$$$
