
  -OEChem-04052302003D

 86 94  0     1  0  0  0  0  0999 V2000
  -30.0812  -35.8612   24.8030 C   0  0  0  0  0  0  0  0  0  0  0  0
  -29.8270  -34.7046   24.0729 C   0  0  0  0  0  0  0  0  0  0  0  0
  -24.5135   -8.7384   20.7348 C   0  0  0  0  0  0  0  0  0  0  0  0
  -22.9036  -10.5247   20.9685 C   0  0  0  0  0  0  0  0  0  0  0  0
  -29.1483  -36.3153   25.7345 C   0  0  0  0  0  0  0  0  0  0  0  0
  -28.6403  -34.0007   24.2746 C   0  0  0  0  0  0  0  0  0  0  0  0
  -25.4021  -30.9590   20.0594 C   0  0  0  0  0  0  0  0  0  0  0  0
  -23.5215   -7.8050   21.0354 C   0  0  0  0  0  0  0  0  0  0  0  0
  -21.9116   -9.5912   21.2691 C   0  0  0  0  0  0  0  0  0  0  0  0
  -25.3384  -29.6082   19.7203 C   0  0  0  0  0  0  0  0  0  0  0  0
  -21.4929   -4.9790   22.0945 C   0  0  0  0  0  0  0  0  0  0  0  0
  -21.8080   -3.9635   22.9973 C   0  0  0  0  0  0  0  0  0  0  0  0
  -23.3993  -29.3514   21.1321 C   0  0  0  0  0  0  0  0  0  0  0  0
  -28.5930  -19.4746   21.6488 C   0  0  0  0  0  0  0  0  0  0  0  0
  -22.2696   -5.6175   24.6968 C   0  0  0  0  0  0  0  0  0  0  0  0
  -24.2045  -10.0983   20.7014 C   0  0  0  0  0  0  0  0  0  0  0  0
  -25.5823  -11.5484   19.1182 C   0  0  0  0  0  0  0  0  0  0  0  0
  -27.9452  -35.6220   25.9408 C   0  0  0  0  0  0  0  0  0  0  0  0
  -24.4698  -31.5147   20.9475 C   0  0  0  0  0  0  0  0  0  0  0  0
  -27.6911  -34.4452   25.2107 C   0  0  0  0  0  0  0  0  0  0  0  0
  -23.4518  -30.7101   21.4789 C   0  0  0  0  0  0  0  0  0  0  0  0
  -27.7427  -18.8647   19.4712 C   0  0  0  0  0  0  0  0  0  0  0  0
  -27.6204  -20.2144   19.1409 C   0  0  0  0  0  0  0  0  0  0  0  0
  -28.2290  -18.4949   20.7252 C   0  0  0  0  0  0  0  0  0  0  0  0
  -22.2206   -8.2314   21.3025 C   0  0  0  0  0  0  0  0  0  0  0  0
  -24.3387  -28.8035   20.2589 C   0  0  0  0  0  0  0  0  0  0  0  0
  -21.5662   -6.3138   22.4928 C   0  0  0  0  0  0  0  0  0  0  0  0
  -27.9843  -21.1942   20.0646 C   0  0  0  0  0  0  0  0  0  0  0  0
  -22.1963   -4.2827   24.2984 C   0  0  0  0  0  0  0  0  0  0  0  0
  -28.4706  -20.8243   21.3186 C   0  0  0  0  0  0  0  0  0  0  0  0
  -21.9545   -6.6330   23.7940 C   0  0  0  0  0  0  0  0  0  0  0  0
  -25.2289  -11.0630   20.3915 C   0  0  0  0  0  0  0  0  0  0  0  0
  -26.6016  -12.4366   19.3601 C   0  0  0  0  0  0  0  0  0  0  0  0
  -25.0378  -11.2254   17.8318 C   0  0  0  0  0  0  0  0  0  0  0  0
  -24.6424  -32.9062   23.8001 C   0  0  0  0  0  0  0  0  0  0  0  0
  -21.4812  -33.4354   23.3006 C   0  0  0  0  0  0  0  0  0  0  0  0
  -18.6048  -32.5129   21.7126 C   0  0  0  0  0  0  0  0  0  0  0  0
  -28.8291  -16.6144   22.2905 C   0  0  0  0  0  0  0  0  0  0  0  0
  -26.9885  -36.1253   26.9924 C   0  0  0  0  0  0  0  0  0  0  0  0
  -24.5361  -32.9796   21.2823 C   0  0  0  0  0  0  0  0  0  0  0  0
  -22.4146  -31.2627   22.4209 C   0  0  0  0  0  0  0  0  0  0  0  0
  -25.5881  -35.5288   26.8774 C   0  0  0  0  0  0  0  0  0  0  0  0
  -29.2707  -13.3209   23.5691 C   0  0  0  0  0  0  0  0  0  0  0  0
  -25.6658  -34.0181   26.6808 C   0  0  0  0  0  0  0  0  0  0  0  0
  -28.2876  -12.4798   22.7517 C   0  0  0  0  0  0  0  0  0  0  0  0
  -28.7094  -14.7074   23.8793 C   0  0  0  0  0  0  0  0  0  0  0  0
  -27.2537  -14.6203   21.8936 C   0  0  0  0  0  0  0  0  0  0  0  0
  -26.4042  -33.6679   25.3833 C   0  0  1  0  0  0  0  0  0  0  0  0
  -23.8441  -33.3237   22.5976 C   0  0  1  0  0  0  0  0  0  0  0  0
  -27.8011  -13.2383   21.5012 C   0  0  2  0  0  0  0  0  0  0  0  0
  -27.0997  -20.6198   17.7986 C   0  0  0  0  0  0  0  0  0  0  0  0
  -28.5622  -17.1796   17.8053 C   0  0  0  0  0  0  0  0  0  0  0  0
  -16.1741  -33.1109   21.5345 C   0  0  0  0  0  0  0  0  0  0  0  0
  -20.9615  -32.1169   26.0027 C   0  0  0  0  0  0  0  0  0  0  0  0
  -18.5562  -31.8838   25.3479 C   0  0  0  0  0  0  0  0  0  0  0  0
  -19.5778  -34.1505   25.5508 C   0  0  0  0  0  0  0  0  0  0  0  0
  -18.8441  -33.1105   18.8239 C   0  0  0  0  0  0  0  0  0  0  0  0
  -27.3511  -17.8155   18.4781 C   0  0  0  0  0  0  0  0  0  0  0  0
  -25.4115  -25.3548   19.9751 C   0  0  0  0  0  0  0  0  0  0  0  0
  -26.7142  -24.6207   19.6770 C   0  0  0  0  0  0  0  0  0  0  0  0
  -25.5050  -26.8324   19.6185 C   0  0  0  0  0  0  0  0  0  1  0  0
  -26.6359  -23.1531   20.0730 C   0  0  0  0  0  0  0  0  0  0  0  0
  -20.2104  -32.6763   23.5967 C   0  0  1  0  0  0  0  0  0  0  0  0
  -17.5657  -33.3234   20.9591 C   0  0  2  0  0  0  0  0  0  0  0  0
  -19.8470  -32.6957   25.1083 C   0  0  0  0  0  0  0  0  0  0  0  0
  -25.9641  -11.5983   21.3697 N   0  0  0  0  0  0  0  0  0  0  0  0
  -26.7898  -12.4292   20.7109 N   0  0  0  0  0  0  0  0  0  0  0  0
  -22.5254  -32.6994   22.7227 N   0  0  0  0  0  0  0  0  0  0  0  0
  -28.2727  -15.3678   22.6472 N   0  0  0  0  0  0  0  0  0  0  0  0
  -27.3465  -13.2153   18.5469 N   0  0  0  0  0  0  0  0  0  0  0  0
  -23.9940  -10.2926   17.7632 N   0  0  0  0  0  0  0  0  0  0  0  0
  -28.3614  -17.1300   21.0822 N   0  0  0  0  0  0  0  0  0  0  0  0
  -25.5379  -33.8621   24.2405 N   0  0  0  0  0  0  0  0  0  0  0  0
  -19.1844  -33.2435   22.7282 N   0  0  0  0  0  0  0  0  0  0  0  0
  -17.5449  -32.9307   19.5216 N   0  3  0  0  0  0  0  0  0  0  0  0
  -25.4752  -11.7361   16.7729 O   0  0  0  0  0  0  0  0  0  0  0  0
  -24.4584  -31.7994   24.2929 O   0  0  0  0  0  0  0  0  0  0  0  0
  -21.5427  -34.6386   23.5654 O   0  0  0  0  0  0  0  0  0  0  0  0
  -18.8726  -31.3469   21.4309 O   0  0  0  0  0  0  0  0  0  0  0  0
  -29.6794  -17.1698   22.9908 O   0  0  0  0  0  0  0  0  0  0  0  0
  -21.2523   -7.3208   21.5956 O   0  0  0  0  0  0  0  0  0  0  0  0
  -24.2746  -27.4846   19.9301 O   0  0  0  0  0  0  0  0  0  1  0  0
  -27.8707  -22.5252   19.7570 O   0  0  0  0  0  0  0  0  0  0  0  0
  -22.4973   -3.3073   25.1657 F   0  0  0  0  0  0  0  0  0  0  0  0
  -28.8223  -21.7607   22.2106 F   0  0  0  0  0  0  0  0  0  0  0  0
  -22.0257   -7.9135   24.1828 F   0  0  0  0  0  0  0  0  0  0  0  0
  1  2  1  0  0  0  0
  1  5  2  0  0  0  0
  2  6  2  0  0  0  0
  3  8  2  0  0  0  0
  3 16  1  0  0  0  0
  4  9  1  0  0  0  0
  4 16  2  0  0  0  0
  5 18  1  0  0  0  0
  6 20  1  0  0  0  0
  7 10  2  0  0  0  0
  7 19  1  0  0  0  0
  8 25  1  0  0  0  0
  9 25  2  0  0  0  0
 10 26  1  0  0  0  0
 11 12  2  0  0  0  0
 11 27  1  0  0  0  0
 12 29  1  0  0  0  0
 13 21  1  0  0  0  0
 13 26  2  0  0  0  0
 14 24  2  0  0  0  0
 14 30  1  0  0  0  0
 15 29  2  0  0  0  0
 15 31  1  0  0  0  0
 16 32  1  0  0  0  0
 17 32  1  0  0  0  0
 17 33  2  0  0  0  0
 17 34  1  0  0  0  0
 18 20  2  0  0  0  0
 18 39  1  0  0  0  0
 19 21  2  0  0  0  0
 19 40  1  0  0  0  0
 20 48  1  0  0  0  0
 21 41  1  0  0  0  0
 22 23  2  0  0  0  0
 22 24  1  0  0  0  0
 22 58  1  0  0  0  0
 23 28  1  0  0  0  0
 23 51  1  0  0  0  0
 24 72  1  0  0  0  0
 25 81  1  0  0  0  0
 26 82  1  0  0  0  0
 27 31  2  0  0  0  0
 27 81  1  0  0  0  0
 28 30  2  0  0  0  0
 28 83  1  0  0  0  0
 29 84  1  0  0  0  0
 30 85  1  0  0  0  0
 31 86  1  0  0  0  0
 32 66  2  0  0  0  0
 33 67  1  0  0  0  0
 33 70  1  0  0  0  0
 34 71  1  0  0  0  0
 34 76  2  0  0  0  0
 35 49  1  0  0  0  0
 35 73  1  0  0  0  0
 35 77  2  0  0  0  0
 36 63  1  0  0  0  0
 36 68  1  0  0  0  0
 36 78  2  0  0  0  0
 37 64  1  0  0  0  0
 37 74  1  0  0  0  0
 37 79  2  0  0  0  0
 38 69  1  0  0  0  0
 38 72  1  0  0  0  0
 38 80  2  0  0  0  0
 39 42  1  0  0  0  0
 40 49  1  0  0  0  0
 41 68  1  0  0  0  0
 42 44  1  0  0  0  0
 43 45  1  0  0  0  0
 43 46  1  0  0  0  0
 44 48  1  0  0  0  0
 45 50  1  0  0  0  0
 46 69  1  0  0  0  0
 47 50  1  0  0  0  0
 47 69  1  0  0  0  0
 48 73  1  0  0  0  0
 49 68  1  0  0  0  0
 50 67  1  0  0  0  0
 52 58  1  0  0  0  0
 53 64  1  0  0  0  0
 54 65  1  0  0  0  0
 55 65  1  0  0  0  0
 56 65  1  0  0  0  0
 57 75  1  0  0  0  0
 59 60  1  0  0  0  0
 59 61  1  0  0  0  0
 60 62  1  0  0  0  0
 61 82  1  0  0  0  0
 62 83  1  0  0  0  0
 63 65  1  0  0  0  0
 63 74  1  0  0  0  0
 64 75  1  0  0  0  0
 66 67  1  0  0  0  0
M  CHG  1  75   1
M  ISO  4  38 100  61 101  72 100  82 101
M  END
> <Batch ID>
0122

> <Smiles>
CCc1c([100NH:0][100C:0](=O)N2CCCC(n3nc(-c4ccc(Oc5ccc(F)cc5F)cc4)c(C(N)=O)c3N)C2)cc(F)c(OCCC[101CH2:1][101O:1]c2ccc3c(c2)CN(C(=O)C(NC(=O)C(C)NC)C(C)(C)C)C(C(=O)NC2CCCc4ccccc42)C3)c1C

> <Shape>
0.259

> <Color>
0.108

> <Negative vol penalty>
0.000

$$$$

  -OEChem-04052302003D

 85 93  0     1  0  0  0  0  0999 V2000
  -28.1975  -37.9556   24.3833 C   0  0  0  0  0  0  0  0  0  0  0  0
  -28.7526  -36.8110   23.8201 C   0  0  0  0  0  0  0  0  0  0  0  0
  -24.3817   -7.4498   21.3393 C   0  0  0  0  0  0  0  0  0  0  0  0
  -22.2111   -8.0857   22.1886 C   0  0  0  0  0  0  0  0  0  0  0  0
  -27.0797  -37.8525   25.2102 C   0  0  0  0  0  0  0  0  0  0  0  0
  -28.1908  -35.5625   24.0844 C   0  0  0  0  0  0  0  0  0  0  0  0
  -27.8421  -30.7969   20.2538 C   0  0  0  0  0  0  0  0  0  0  0  0
  -24.3269   -6.2705   22.0821 C   0  0  0  0  0  0  0  0  0  0  0  0
  -22.1562   -6.9063   22.9314 C   0  0  0  0  0  0  0  0  0  0  0  0
  -28.6206  -29.6492   20.1112 C   0  0  0  0  0  0  0  0  0  0  0  0
  -22.8458   -3.2405   21.8399 C   0  0  0  0  0  0  0  0  0  0  0  0
  -23.2209   -2.0565   21.2051 C   0  0  0  0  0  0  0  0  0  0  0  0
  -27.3509  -19.8711   17.6597 C   0  0  0  0  0  0  0  0  0  0  0  0
  -28.6690  -19.2327   19.5811 C   0  0  0  0  0  0  0  0  0  0  0  0
  -27.0591  -28.4266   21.4846 C   0  0  0  0  0  0  0  0  0  0  0  0
  -24.9732   -1.7366   22.8374 C   0  0  0  0  0  0  0  0  0  0  0  0
  -23.3238   -8.3574   21.3926 C   0  0  0  0  0  0  0  0  0  0  0  0
  -27.7816  -18.8958   18.5590 C   0  0  0  0  0  0  0  0  0  0  0  0
  -22.9227   -9.7740   19.3093 C   0  0  0  0  0  0  0  0  0  0  0  0
  -26.4981  -36.6030   25.4771 C   0  0  0  0  0  0  0  0  0  0  0  0
  -26.6700  -30.7708   21.0231 C   0  0  0  0  0  0  0  0  0  0  0  0
  -27.0649  -35.4424   24.9168 C   0  0  0  0  0  0  0  0  0  0  0  0
  -26.2661  -29.5747   21.6333 C   0  0  0  0  0  0  0  0  0  0  0  0
  -27.8076  -21.1834   17.7824 C   0  0  0  0  0  0  0  0  0  0  0  0
  -29.1257  -20.5450   19.7038 C   0  0  0  0  0  0  0  0  0  0  0  0
  -23.2142   -5.9987   22.8782 C   0  0  0  0  0  0  0  0  0  0  0  0
  -28.2307  -28.4645   20.7290 C   0  0  0  0  0  0  0  0  0  0  0  0
  -23.5344   -3.6726   22.9734 C   0  0  0  0  0  0  0  0  0  0  0  0
  -28.6950  -21.5203   18.8044 C   0  0  0  0  0  0  0  0  0  0  0  0
  -24.2846   -1.3045   21.7039 C   0  0  0  0  0  0  0  0  0  0  0  0
  -24.5981   -2.9206   23.4722 C   0  0  0  0  0  0  0  0  0  0  0  0
  -23.3801   -9.5761   20.6259 C   0  0  0  0  0  0  0  0  0  0  0  0
  -23.2035  -11.0918   19.0427 C   0  0  0  0  0  0  0  0  0  0  0  0
  -27.3064  -17.5274   18.4295 C   0  0  0  0  0  0  0  0  0  0  0  0
  -27.3231  -16.5965   19.4073 C   0  0  0  0  0  0  0  0  0  0  0  0
  -22.2996   -8.8494   18.4079 C   0  0  0  0  0  0  0  0  0  0  0  0
  -26.7932  -15.2478   19.1222 C   0  0  0  0  0  0  0  0  0  0  0  0
  -25.6770  -32.2612   23.6493 C   0  0  0  0  0  0  0  0  0  0  0  0
  -29.0236  -25.0606   19.7852 C   0  0  0  0  0  0  0  0  0  0  0  0
  -22.8854  -30.7503   22.9812 C   0  0  0  0  0  0  0  0  0  0  0  0
  -21.2938  -28.1458   21.4547 C   0  0  0  0  0  0  0  0  0  0  0  0
  -25.3190  -36.5366   26.4151 C   0  0  0  0  0  0  0  0  0  0  0  0
  -25.8271  -32.0106   21.1452 C   0  0  0  0  0  0  0  0  0  0  0  0
  -25.0057  -29.4890   22.4533 C   0  0  0  0  0  0  0  0  0  0  0  0
  -24.5577  -35.2154   26.3440 C   0  0  0  0  0  0  0  0  0  0  0  0
  -24.6702  -14.8394   22.0815 C   0  0  0  0  0  0  0  0  0  0  0  0
  -25.5277  -34.0384   26.3698 C   0  0  0  0  0  0  0  0  0  0  0  0
  -24.1461  -13.4210   21.8735 C   0  0  0  0  0  0  0  0  0  0  0  0
  -26.0994  -15.0022   21.5665 C   0  0  0  0  0  0  0  0  0  0  0  0
  -25.7465  -13.1704   19.9354 C   0  0  0  0  0  0  0  0  0  0  0  0
  -26.4691  -34.0727   25.1598 C   0  0  1  0  0  0  0  0  0  0  0  0
  -24.9245  -32.0009   22.3751 C   0  0  1  0  0  0  0  0  0  0  0  0
  -24.2933  -12.9965   20.4037 C   0  0  1  0  0  0  0  0  0  0  0  0
  -27.3341  -22.2142   16.8110 C   0  0  0  0  0  0  0  0  0  0  0  0
  -30.0762  -20.8863   20.8040 C   0  0  0  0  0  0  0  0  0  0  0  0
  -19.0124  -27.1565   21.1173 C   0  0  0  0  0  0  0  0  0  0  0  0
  -22.9427  -29.6533   25.8279 C   0  0  0  0  0  0  0  0  0  0  0  0
  -21.2218  -27.9702   25.1395 C   0  0  0  0  0  0  0  0  0  0  0  0
  -20.6898  -30.4055   25.0450 C   0  0  0  0  0  0  0  0  0  0  0  0
  -21.4547  -28.4829   18.5188 C   0  0  0  0  0  0  0  0  0  0  0  0
  -28.3089  -26.0894   20.6374 C   0  0  0  0  0  0  0  0  0  1  0  0
  -28.3870  -23.6869   19.7356 C   0  0  0  0  0  0  0  0  0  0  0  0
  -22.2780  -29.4168   23.3443 C   0  0  1  0  0  0  0  0  0  0  0  0
  -20.0680  -28.0991   20.5605 C   0  0  2  0  0  0  0  0  0  0  0  0
  -21.8079  -29.3632   24.8254 C   0  0  0  0  0  0  0  0  0  0  0  0
  -23.9113  -10.6797   21.1586 N   0  0  0  0  0  0  0  0  0  0  0  0
  -23.7895  -11.5838   20.1717 N   0  0  0  0  0  0  0  0  0  0  0  0
  -26.2277  -14.5350   20.1779 N   0  0  0  0  0  0  0  0  0  0  0  0
  -24.2187  -30.7296   22.5481 N   0  0  0  0  0  0  0  0  0  0  0  0
  -23.0039  -11.8660   17.9550 N   0  0  0  0  0  0  0  0  0  0  0  0
  -22.0852   -7.5342   18.8424 N   0  0  0  0  0  0  0  0  0  0  0  0
  -25.7864  -33.5997   23.9747 N   0  0  0  0  0  0  0  0  0  0  0  0
  -21.2182  -29.1727   22.3718 N   0  0  0  0  0  0  0  0  0  0  0  0
  -20.4405  -27.6335   19.1948 N   0  3  0  0  0  0  0  0  0  0  0  0
  -21.9585   -9.1752   17.2456 O   0  0  0  0  0  0  0  0  0  0  0  0
  -26.8883  -14.8322   17.9660 O   0  0  0  0  0  0  0  0  0  0  0  0
  -26.1240  -31.3174   24.2906 O   0  0  0  0  0  0  0  0  0  0  0  0
  -30.0568  -25.3245   19.1722 O   0  0  0  0  0  0  0  0  0  0  0  0
  -22.1998  -31.7718   23.0716 O   0  0  0  0  0  0  0  0  0  0  0  0
  -22.2236  -27.3486   21.3525 O   0  0  0  0  0  0  0  0  0  0  0  0
  -23.1602   -4.8479   23.6030 O   0  0  0  0  0  0  0  0  0  0  0  0
  -28.9892  -27.3430   20.5920 O   0  0  0  0  0  0  0  0  0  1  0  0
  -29.1452  -22.8137   18.9254 O   0  0  0  0  0  0  0  0  0  0  0  0
  -24.6437   -0.1667   21.0951 F   0  0  0  0  0  0  0  0  0  0  0  0
  -25.2626   -3.3301   24.5615 F   0  0  0  0  0  0  0  0  0  0  0  0
  1  2  1  0  0  0  0
  1  5  2  0  0  0  0
  2  6  2  0  0  0  0
  3  8  2  0  0  0  0
  3 17  1  0  0  0  0
  4  9  1  0  0  0  0
  4 17  2  0  0  0  0
  5 20  1  0  0  0  0
  6 22  1  0  0  0  0
  7 10  2  0  0  0  0
  7 21  1  0  0  0  0
  8 26  1  0  0  0  0
  9 26  2  0  0  0  0
 10 27  1  0  0  0  0
 11 12  2  0  0  0  0
 11 28  1  0  0  0  0
 12 30  1  0  0  0  0
 13 18  1  0  0  0  0
 13 24  2  0  0  0  0
 14 18  2  0  0  0  0
 14 25  1  0  0  0  0
 15 23  1  0  0  0  0
 15 27  2  0  0  0  0
 16 30  2  0  0  0  0
 16 31  1  0  0  0  0
 17 32  1  0  0  0  0
 18 34  1  0  0  0  0
 19 32  1  0  0  0  0
 19 33  2  0  0  0  0
 19 36  1  0  0  0  0
 20 22  2  0  0  0  0
 20 42  1  0  0  0  0
 21 23  2  0  0  0  0
 21 43  1  0  0  0  0
 22 51  1  0  0  0  0
 23 44  1  0  0  0  0
 24 29  1  0  0  0  0
 24 54  1  0  0  0  0
 25 29  2  0  0  0  0
 25 55  1  0  0  0  0
 26 81  1  0  0  0  0
 27 82  1  0  0  0  0
 28 31  2  0  0  0  0
 28 81  1  0  0  0  0
 29 83  1  0  0  0  0
 30 84  1  0  0  0  0
 31 85  1  0  0  0  0
 32 66  2  0  0  0  0
 33 67  1  0  0  0  0
 33 70  1  0  0  0  0
 34 35  2  0  0  0  0
 35 37  1  0  0  0  0
 36 71  1  0  0  0  0
 36 75  2  0  0  0  0
 37 68  1  0  0  0  0
 37 76  2  0  0  0  0
 38 52  1  0  0  0  0
 38 72  1  0  0  0  0
 38 77  2  0  0  0  0
 39 61  1  0  0  0  0
 39 62  1  0  0  0  0
 39 78  2  0  0  0  0
 40 63  1  0  0  0  0
 40 69  1  0  0  0  0
 40 79  2  0  0  0  0
 41 64  1  0  0  0  0
 41 73  1  0  0  0  0
 41 80  2  0  0  0  0
 42 45  1  0  0  0  0
 43 52  1  0  0  0  0
 44 69  1  0  0  0  0
 45 47  1  0  0  0  0
 46 48  1  0  0  0  0
 46 49  1  0  0  0  0
 47 51  1  0  0  0  0
 48 53  1  0  0  0  0
 49 68  1  0  0  0  0
 50 53  1  0  0  0  0
 50 68  1  0  0  0  0
 51 72  1  0  0  0  0
 52 69  1  0  0  0  0
 53 67  1  0  0  0  0
 56 64  1  0  0  0  0
 57 65  1  0  0  0  0
 58 65  1  0  0  0  0
 59 65  1  0  0  0  0
 60 74  1  0  0  0  0
 61 82  1  0  0  0  0
 62 83  1  0  0  0  0
 63 65  1  0  0  0  0
 63 73  1  0  0  0  0
 64 74  1  0  0  0  0
 66 67  1  0  0  0  0
M  CHG  1  74   1
M  ISO  4  35 100  37 100  61 101  82 101
M  END
> <Batch ID>
0122

> <Smiles>
CNC(C)C(=O)NC(C(=O)N1Cc2cc([101O:1][101CH2:1]C(=O)COc3c(C)cc(C=[100CH:0][100C:0](=O)N4CCCC(n5nc(-c6ccc(Oc7ccc(F)cc7F)cc6)c(C(N)=O)c5N)C4)cc3C)ccc2CC1C(=O)NC1CCCc2ccccc21)C(C)(C)C

> <Shape>
0.299

> <Color>
0.080

> <Negative vol penalty>
0.000

$$$$

  -OEChem-04052302003D

 86 94  0     1  0  0  0  0  0999 V2000
  -34.4516  -29.5704   26.0502 C   0  0  0  0  0  0  0  0  0  0  0  0
  -33.2170  -28.9292   26.0359 C   0  0  0  0  0  0  0  0  0  0  0  0
  -23.2105   -9.6929   20.1967 C   0  0  0  0  0  0  0  0  0  0  0  0
  -23.7694  -10.1162   22.5088 C   0  0  0  0  0  0  0  0  0  0  0  0
  -34.5129  -30.9602   26.1424 C   0  0  0  0  0  0  0  0  0  0  0  0
  -32.0430  -29.6775   26.1149 C   0  0  0  0  0  0  0  0  0  0  0  0
  -28.5376  -28.1483   22.7955 C   0  0  0  0  0  0  0  0  0  0  0  0
  -31.6329  -17.2767   22.3336 C   0  0  0  0  0  0  0  0  0  0  0  0
  -22.4997   -8.5546   20.5770 C   0  0  0  0  0  0  0  0  0  0  0  0
  -23.0585   -8.9779   22.8890 C   0  0  0  0  0  0  0  0  0  0  0  0
  -27.8173  -26.9980   23.1146 C   0  0  0  0  0  0  0  0  0  0  0  0
  -23.5430   -5.6320   22.9173 C   0  0  0  0  0  0  0  0  0  0  0  0
  -32.1011  -18.3287   23.1208 C   0  0  0  0  0  0  0  0  0  0  0  0
  -24.1393   -4.7742   23.8416 C   0  0  0  0  0  0  0  0  0  0  0  0
  -29.3710  -18.0823   22.6021 C   0  0  0  0  0  0  0  0  0  0  0  0
  -25.9775  -28.3656   23.8655 C   0  0  0  0  0  0  0  0  0  0  0  0
  -22.2915   -5.1240   25.3583 C   0  0  0  0  0  0  0  0  0  0  0  0
  -23.8454  -10.4737   21.1626 C   0  0  0  0  0  0  0  0  0  0  0  0
  -29.8392  -19.1343   23.3894 C   0  0  0  0  0  0  0  0  0  0  0  0
  -24.0841  -12.9613   20.6503 C   0  0  0  0  0  0  0  0  0  0  0  0
  -33.3388  -31.7266   26.2128 C   0  0  0  0  0  0  0  0  0  0  0  0
  -27.9865  -29.4182   23.0195 C   0  0  0  0  0  0  0  0  0  0  0  0
  -32.0887  -31.0788   26.2094 C   0  0  0  0  0  0  0  0  0  0  0  0
  -26.6918  -29.5304   23.5460 C   0  0  0  0  0  0  0  0  0  0  0  0
  -30.2678  -17.1536   22.0742 C   0  0  0  0  0  0  0  0  0  0  0  0
  -22.4236   -8.1971   21.9231 C   0  0  0  0  0  0  0  0  0  0  0  0
  -26.5382  -27.1066   23.6524 C   0  0  0  0  0  0  0  0  0  0  0  0
  -22.3210   -6.2358   23.2135 C   0  0  0  0  0  0  0  0  0  0  0  0
  -23.5136   -4.5202   25.0620 C   0  0  0  0  0  0  0  0  0  0  0  0
  -31.2042  -19.2575   23.6488 C   0  0  0  0  0  0  0  0  0  0  0  0
  -21.6953   -5.9818   24.4340 C   0  0  0  0  0  0  0  0  0  0  0  0
  -24.5803  -11.6493   20.7704 C   0  0  0  0  0  0  0  0  0  0  0  0
  -25.1692  -13.7037   20.2530 C   0  0  0  0  0  0  0  0  0  0  0  0
  -25.9845  -22.1866   23.9032 C   0  0  0  0  0  0  0  0  0  0  0  0
  -27.1702  -21.8459   23.3814 C   0  0  0  0  0  0  0  0  0  0  0  0
  -28.8769  -20.1266   23.9532 C   0  0  0  0  0  0  0  0  0  0  0  0
  -22.7608  -13.4639   20.8778 C   0  0  0  0  0  0  0  0  0  0  0  0
  -25.5423  -23.5942   24.1098 C   0  0  0  0  0  0  0  0  0  0  0  0
  -28.7666  -31.9153   24.8250 C   0  0  0  0  0  0  0  0  0  0  0  0
  -26.3001  -33.3242   23.2585 C   0  0  0  0  0  0  0  0  0  0  0  0
  -23.3815  -32.9606   21.5275 C   0  0  0  0  0  0  0  0  0  0  0  0
  -30.5485  -15.0782   20.6740 C   0  0  0  0  0  0  0  0  0  0  0  0
  -33.4564  -33.2231   26.3589 C   0  0  0  0  0  0  0  0  0  0  0  0
  -28.7659  -30.6489   22.6450 C   0  0  0  0  0  0  0  0  0  0  0  0
  -26.0470  -30.8701   23.7868 C   0  0  0  0  0  0  0  0  0  0  0  0
  -32.1577  -33.9681   26.0611 C   0  0  0  0  0  0  0  0  0  0  0  0
  -29.7497  -12.2514   18.6619 C   0  0  0  0  0  0  0  0  0  0  0  0
  -30.9832  -33.2958   26.7649 C   0  0  0  0  0  0  0  0  0  0  0  0
  -28.2928  -11.9507   19.0212 C   0  0  0  0  0  0  0  0  0  0  0  0
  -30.5471  -12.7249   19.8759 C   0  0  0  0  0  0  0  0  0  0  0  0
  -28.4983  -13.5526   20.9651 C   0  0  0  0  0  0  0  0  0  0  0  0
  -30.7925  -31.8575   26.2683 C   0  0  1  0  0  0  0  0  0  0  0  0
  -28.3085  -31.8968   23.3941 C   0  0  1  0  0  0  0  0  0  0  0  0
  -27.6390  -13.1343   19.7609 C   0  0  2  0  0  0  0  0  0  0  0  0
  -21.5756  -34.2960   20.4082 C   0  0  0  0  0  0  0  0  0  0  0  0
  -25.1342  -34.0310   25.9882 C   0  0  0  0  0  0  0  0  0  0  0  0
  -22.9471  -34.4870   24.8584 C   0  0  0  0  0  0  0  0  0  0  0  0
  -24.9567  -35.8455   24.2764 C   0  0  0  0  0  0  0  0  0  0  0  0
  -23.9494  -31.7376   18.8930 C   0  0  0  0  0  0  0  0  0  0  0  0
  -27.6000  -20.4225   23.1765 C   0  0  0  0  0  0  0  0  0  0  0  0
  -26.4652  -24.7304   23.7166 C   0  0  0  0  0  0  0  0  0  1  0  0
  -24.8139  -33.4456   23.4941 C   0  0  1  0  0  0  0  0  0  0  0  0
  -22.9005  -33.5724   20.2241 C   0  0  2  0  0  0  0  0  0  0  0  0
  -24.4756  -34.4269   24.6517 C   0  0  0  0  0  0  0  0  0  0  0  0
  -25.8794  -11.5602   20.4732 N   0  0  0  0  0  0  0  0  0  0  0  0
  -26.2088  -12.8255   20.1624 N   0  0  0  0  0  0  0  0  0  0  0  0
  -26.8517  -32.0441   23.4102 N   0  0  0  0  0  0  0  0  0  0  0  0
  -29.8697  -13.8505   20.5232 N   0  0  0  0  0  0  0  0  0  0  0  0
  -25.3260  -15.0156   19.9756 N   0  0  0  0  0  0  0  0  0  0  0  0
  -21.7648  -12.5646   21.2824 N   0  0  0  0  0  0  0  0  0  0  0  0
  -29.7928  -16.0849   21.2741 N   0  0  0  0  0  0  0  0  0  0  0  0
  -30.1385  -31.8510   24.9773 N   0  0  0  0  0  0  0  0  0  0  0  0
  -24.2256  -33.8109   22.2100 N   0  0  0  0  0  0  0  0  0  0  0  0
  -22.7183  -32.5138   19.1911 N   0  3  0  0  0  0  0  0  0  0  0  0
  -29.1367  -20.6649   25.0272 O   0  0  0  0  0  0  0  0  0  0  0  0
  -22.4662  -14.6718   20.7107 O   0  0  0  0  0  0  0  0  0  0  0  0
  -24.4312  -23.7977   24.6000 O   0  0  0  0  0  0  0  0  0  0  0  0
  -27.9369  -31.9843   25.7241 O   0  0  0  0  0  0  0  0  0  0  0  0
  -26.9465  -34.3267   22.9444 O   0  0  0  0  0  0  0  0  0  0  0  0
  -23.0395  -31.8419   21.9044 O   0  0  0  0  0  0  0  0  0  0  0  0
  -31.7050  -15.2338   20.2737 O   0  0  0  0  0  0  0  0  0  0  0  0
  -21.7299   -7.0865   22.2945 O   0  0  0  0  0  0  0  0  0  0  0  0
  -25.8333  -25.9854   23.9654 O   0  0  0  0  0  0  0  0  0  1  0  0
  -24.0856   -3.6953   25.9489 F   0  0  0  0  0  0  0  0  0  0  0  0
  -31.6650  -20.2645   24.4039 F   0  0  0  0  0  0  0  0  0  0  0  0
  -20.5206   -6.5581   24.7237 F   0  0  0  0  0  0  0  0  0  0  0  0
  1  2  1  0  0  0  0
  1  5  2  0  0  0  0
  2  6  2  0  0  0  0
  3  9  2  0  0  0  0
  3 18  1  0  0  0  0
  4 10  1  0  0  0  0
  4 18  2  0  0  0  0
  5 21  1  0  0  0  0
  6 23  1  0  0  0  0
  7 11  2  0  0  0  0
  7 22  1  0  0  0  0
  8 13  2  0  0  0  0
  8 25  1  0  0  0  0
  9 26  1  0  0  0  0
 10 26  2  0  0  0  0
 11 27  1  0  0  0  0
 12 14  2  0  0  0  0
 12 28  1  0  0  0  0
 13 30  1  0  0  0  0
 14 29  1  0  0  0  0
 15 19  1  0  0  0  0
 15 25  2  0  0  0  0
 16 24  1  0  0  0  0
 16 27  2  0  0  0  0
 17 29  2  0  0  0  0
 17 31  1  0  0  0  0
 18 32  1  0  0  0  0
 19 30  2  0  0  0  0
 19 36  1  0  0  0  0
 20 32  1  0  0  0  0
 20 33  2  0  0  0  0
 20 37  1  0  0  0  0
 21 23  2  0  0  0  0
 21 43  1  0  0  0  0
 22 24  2  0  0  0  0
 22 44  1  0  0  0  0
 23 52  1  0  0  0  0
 24 45  1  0  0  0  0
 25 71  1  0  0  0  0
 26 82  1  0  0  0  0
 27 83  1  0  0  0  0
 28 31  2  0  0  0  0
 28 82  1  0  0  0  0
 29 84  1  0  0  0  0
 30 85  1  0  0  0  0
 31 86  1  0  0  0  0
 32 65  2  0  0  0  0
 33 66  1  0  0  0  0
 33 69  1  0  0  0  0
 34 35  2  0  0  0  0
 34 38  1  0  0  0  0
 35 60  1  0  0  0  0
 36 60  1  0  0  0  0
 36 75  2  0  0  0  0
 37 70  1  0  0  0  0
 37 76  2  0  0  0  0
 38 61  1  0  0  0  0
 38 77  2  0  0  0  0
 39 53  1  0  0  0  0
 39 72  1  0  0  0  0
 39 78  2  0  0  0  0
 40 62  1  0  0  0  0
 40 67  1  0  0  0  0
 40 79  2  0  0  0  0
 41 63  1  0  0  0  0
 41 73  1  0  0  0  0
 41 80  2  0  0  0  0
 42 68  1  0  0  0  0
 42 71  1  0  0  0  0
 42 81  2  0  0  0  0
 43 46  1  0  0  0  0
 44 53  1  0  0  0  0
 45 67  1  0  0  0  0
 46 48  1  0  0  0  0
 47 49  1  0  0  0  0
 47 50  1  0  0  0  0
 48 52  1  0  0  0  0
 49 54  1  0  0  0  0
 50 68  1  0  0  0  0
 51 54  1  0  0  0  0
 51 68  1  0  0  0  0
 52 72  1  0  0  0  0
 53 67  1  0  0  0  0
 54 66  1  0  0  0  0
 55 63  1  0  0  0  0
 56 64  1  0  0  0  0
 57 64  1  0  0  0  0
 58 64  1  0  0  0  0
 59 74  1  0  0  0  0
 61 83  1  0  0  0  0
 62 64  1  0  0  0  0
 62 73  1  0  0  0  0
 63 74  1  0  0  0  0
 65 66  1  0  0  0  0
M  CHG  1  74   1
M  ISO  4  42 100  61 101  71 100  83 101
M  END
> <Batch ID>
0122

> <Smiles>
CNC(C)C(=O)NC(C(=O)N1Cc2cc([101O:1][101CH2:1]C(=O)CC=CC(=O)c3cc([100NH:0][100C:0](=O)N4CCCC(n5nc(-c6ccc(Oc7ccc(F)cc7F)cc6)c(C(N)=O)c5N)C4)ccc3F)ccc2CC1C(=O)NC1CCCc2ccccc21)C(C)(C)C

> <Shape>
0.253

> <Color>
0.183

> <Negative vol penalty>
0.000

$$$$

  -OEChem-04052302003D

 85 93  0     1  0  0  0  0  0999 V2000
  -28.8036  -37.0478   18.5973 C   0  0  0  0  0  0  0  0  0  0  0  0
  -28.9036  -35.6808   18.3591 C   0  0  0  0  0  0  0  0  0  0  0  0
  -24.7129   -8.5881   21.7307 C   0  0  0  0  0  0  0  0  0  0  0  0
  -23.0885   -9.6585   20.2980 C   0  0  0  0  0  0  0  0  0  0  0  0
  -28.4386  -37.5091   19.8614 C   0  0  0  0  0  0  0  0  0  0  0  0
  -28.6396  -34.7743   19.3852 C   0  0  0  0  0  0  0  0  0  0  0  0
  -26.0474  -29.2523   18.8428 C   0  0  0  0  0  0  0  0  0  0  0  0
  -23.6804   -8.0288   22.4835 C   0  0  0  0  0  0  0  0  0  0  0  0
  -22.0560   -9.0992   21.0508 C   0  0  0  0  0  0  0  0  0  0  0  0
  -26.5832  -27.9668   18.7786 C   0  0  0  0  0  0  0  0  0  0  0  0
  -21.5322   -5.4308   22.2225 C   0  0  0  0  0  0  0  0  0  0  0  0
  -21.6373   -4.0831   22.5666 C   0  0  0  0  0  0  0  0  0  0  0  0
  -24.5986  -17.0745   16.8663 C   0  0  0  0  0  0  0  0  0  0  0  0
  -26.2202  -27.7036   21.1488 C   0  0  0  0  0  0  0  0  0  0  0  0
  -26.4303  -18.5050   17.5265 C   0  0  0  0  0  0  0  0  0  0  0  0
  -21.5764   -4.6762   24.9079 C   0  0  0  0  0  0  0  0  0  0  0  0
  -24.4170   -9.4030   20.6379 C   0  0  0  0  0  0  0  0  0  0  0  0
  -24.0771  -18.1039   16.0827 C   0  0  0  0  0  0  0  0  0  0  0  0
  -26.1110   -9.4230   18.7307 C   0  0  0  0  0  0  0  0  0  0  0  0
  -28.1606  -36.6076   20.9009 C   0  0  0  0  0  0  0  0  0  0  0  0
  -25.6032  -29.7781   20.0646 C   0  0  0  0  0  0  0  0  0  0  0  0
  -28.2718  -35.2240   20.6648 C   0  0  0  0  0  0  0  0  0  0  0  0
  -25.6768  -28.9950   21.2255 C   0  0  0  0  0  0  0  0  0  0  0  0
  -24.7322  -19.3338   16.0210 C   0  0  0  0  0  0  0  0  0  0  0  0
  -25.7752  -17.2751   17.5883 C   0  0  0  0  0  0  0  0  0  0  0  0
  -22.3520   -8.2844   22.1436 C   0  0  0  0  0  0  0  0  0  0  0  0
  -26.6723  -27.1933   19.9322 C   0  0  0  0  0  0  0  0  0  0  0  0
  -21.4493   -6.4012   23.2211 C   0  0  0  0  0  0  0  0  0  0  0  0
  -25.9088  -19.5344   16.7429 C   0  0  0  0  0  0  0  0  0  0  0  0
  -21.6594   -3.7058   23.9093 C   0  0  0  0  0  0  0  0  0  0  0  0
  -21.4714   -6.0239   24.5638 C   0  0  0  0  0  0  0  0  0  0  0  0
  -25.4831   -9.9814   19.8602 C   0  0  0  0  0  0  0  0  0  0  0  0
  -27.0492  -10.3563   18.3629 C   0  0  0  0  0  0  0  0  0  0  0  0
  -22.7079  -16.8959   14.4453 C   0  0  0  0  0  0  0  0  0  0  0  0
  -22.8464  -17.8616   15.3410 C   0  0  0  0  0  0  0  0  0  0  0  0
  -25.8679   -8.1725   18.0728 C   0  0  0  0  0  0  0  0  0  0  0  0
  -26.4322  -32.2565   21.8741 C   0  0  0  0  0  0  0  0  0  0  0  0
  -23.8427  -31.3581   23.6089 C   0  0  0  0  0  0  0  0  0  0  0  0
  -21.6765  -28.8794   24.5091 C   0  0  0  0  0  0  0  0  0  0  0  0
  -27.4622  -16.2636   19.1621 C   0  0  0  0  0  0  0  0  0  0  0  0
  -27.8157  -37.1546   22.2634 C   0  0  0  0  0  0  0  0  0  0  0  0
  -25.0031  -31.1565   20.1123 C   0  0  0  0  0  0  0  0  0  0  0  0
  -25.1951  -29.5054   22.5581 C   0  0  0  0  0  0  0  0  0  0  0  0
  -27.1883  -36.1201   23.1942 C   0  0  0  0  0  0  0  0  0  0  0  0
  -29.8201  -13.8047   20.1972 C   0  0  0  0  0  0  0  0  0  0  0  0
  -27.9790  -34.8162   23.1535 C   0  0  0  0  0  0  0  0  0  0  0  0
  -29.0345  -12.4937   20.1196 C   0  0  0  0  0  0  0  0  0  0  0  0
  -28.9452  -14.9629   20.6735 C   0  0  0  0  0  0  0  0  0  0  0  0
  -26.9161  -13.8429   19.8384 C   0  0  0  0  0  0  0  0  0  0  0  0
  -27.9693  -34.2088   21.7455 C   0  0  1  0  0  0  0  0  0  0  0  0
  -25.0555  -31.7832   21.5023 C   0  0  1  0  0  0  0  0  0  0  0  0
  -27.7391  -12.6606   19.3013 C   0  0  2  0  0  0  0  0  0  0  0  0
  -24.1869  -20.4496   15.1851 C   0  0  0  0  0  0  0  0  0  0  0  0
  -19.6866  -28.4378   25.9730 C   0  0  0  0  0  0  0  0  0  0  0  0
  -25.6614  -31.2953   26.0581 C   0  0  0  0  0  0  0  0  0  0  0  0
  -23.9022  -29.9659   27.2439 C   0  0  0  0  0  0  0  0  0  0  0  0
  -23.3992  -32.2813   26.4636 C   0  0  0  0  0  0  0  0  0  0  0  0
  -19.9823  -28.1670   22.1894 C   0  0  0  0  0  0  0  0  0  0  0  0
  -26.9369  -23.7297   18.9317 C   0  0  0  0  0  0  0  0  0  0  0  0
  -26.7791  -22.9229   17.6476 C   0  0  0  0  0  0  0  0  0  0  0  0
  -27.0297  -25.2233   18.6488 C   0  0  0  0  0  0  0  0  0  1  0  0
  -26.7294  -21.4272   17.9259 C   0  0  0  0  0  0  0  0  0  0  0  0
  -23.6049  -30.4186   24.7665 C   0  0  1  0  0  0  0  0  0  0  0  0
  -20.1608  -28.8452   24.5867 C   0  0  2  0  0  0  0  0  0  0  0  0
  -24.1529  -30.9811   26.1084 C   0  0  0  0  0  0  0  0  0  0  0  0
  -25.9805  -11.1767   20.1885 N   0  0  0  0  0  0  0  0  0  0  0  0
  -26.9310  -11.3771   19.2597 N   0  0  0  0  0  0  0  0  0  0  0  0
  -24.6221  -30.8616   22.5545 N   0  0  0  0  0  0  0  0  0  0  0  0
  -27.7387  -15.0627   19.8493 N   0  0  0  0  0  0  0  0  0  0  0  0
  -27.9555  -10.3952   17.3632 N   0  0  0  0  0  0  0  0  0  0  0  0
  -24.8673   -7.3333   18.5815 N   0  0  0  0  0  0  0  0  0  0  0  0
  -26.3052  -16.2297   18.3845 N   0  0  0  0  0  0  0  0  0  0  0  0
  -26.7048  -33.5544   21.4861 N   0  0  0  0  0  0  0  0  0  0  0  0
  -22.1734  -30.1375   24.7766 N   0  0  0  0  0  0  0  0  0  0  0  0
  -19.6133  -27.8735   23.5982 N   0  3  0  0  0  0  0  0  0  0  0  0
  -26.5299   -7.8028   17.0735 O   0  0  0  0  0  0  0  0  0  0  0  0
  -27.1905  -31.5006   22.4702 O   0  0  0  0  0  0  0  0  0  0  0  0
  -23.3490  -32.4882   23.6360 O   0  0  0  0  0  0  0  0  0  0  0  0
  -22.3523  -27.8881   24.2420 O   0  0  0  0  0  0  0  0  0  0  0  0
  -28.2122  -17.2404   19.2351 O   0  0  0  0  0  0  0  0  0  0  0  0
  -21.3442   -7.7386   22.8778 O   0  0  0  0  0  0  0  0  0  0  0  0
  -27.1955  -25.9385   19.8724 O   0  0  0  0  0  0  0  0  0  1  0  0
  -26.5672  -20.7357   16.6952 O   0  0  0  0  0  0  0  0  0  0  0  0
  -21.7588   -2.4115   24.2396 F   0  0  0  0  0  0  0  0  0  0  0  0
  -21.3909   -6.9515   25.5275 F   0  0  0  0  0  0  0  0  0  0  0  0
  1  2  1  0  0  0  0
  1  5  2  0  0  0  0
  2  6  2  0  0  0  0
  3  8  2  0  0  0  0
  3 17  1  0  0  0  0
  4  9  1  0  0  0  0
  4 17  2  0  0  0  0
  5 20  1  0  0  0  0
  6 22  1  0  0  0  0
  7 10  2  0  0  0  0
  7 21  1  0  0  0  0
  8 26  1  0  0  0  0
  9 26  2  0  0  0  0
 10 27  1  0  0  0  0
 11 12  2  0  0  0  0
 11 28  1  0  0  0  0
 12 30  1  0  0  0  0
 13 18  1  0  0  0  0
 13 25  2  0  0  0  0
 14 23  1  0  0  0  0
 14 27  2  0  0  0  0
 15 25  1  0  0  0  0
 15 29  2  0  0  0  0
 16 30  2  0  0  0  0
 16 31  1  0  0  0  0
 17 32  1  0  0  0  0
 18 24  2  0  0  0  0
 18 35  1  0  0  0  0
 19 32  1  0  0  0  0
 19 33  2  0  0  0  0
 19 36  1  0  0  0  0
 20 22  2  0  0  0  0
 20 41  1  0  0  0  0
 21 23  2  0  0  0  0
 21 42  1  0  0  0  0
 22 50  1  0  0  0  0
 23 43  1  0  0  0  0
 24 29  1  0  0  0  0
 24 53  1  0  0  0  0
 25 72  1  0  0  0  0
 26 81  1  0  0  0  0
 27 82  1  0  0  0  0
 28 31  2  0  0  0  0
 28 81  1  0  0  0  0
 29 83  1  0  0  0  0
 30 84  1  0  0  0  0
 31 85  1  0  0  0  0
 32 66  2  0  0  0  0
 33 67  1  0  0  0  0
 33 70  1  0  0  0  0
 34 35  2  0  0  0  0
 36 71  1  0  0  0  0
 36 76  2  0  0  0  0
 37 51  1  0  0  0  0
 37 73  1  0  0  0  0
 37 77  2  0  0  0  0
 38 63  1  0  0  0  0
 38 68  1  0  0  0  0
 38 78  2  0  0  0  0
 39 64  1  0  0  0  0
 39 74  1  0  0  0  0
 39 79  2  0  0  0  0
 40 69  1  0  0  0  0
 40 72  1  0  0  0  0
 40 80  2  0  0  0  0
 41 44  1  0  0  0  0
 42 51  1  0  0  0  0
 43 68  1  0  0  0  0
 44 46  1  0  0  0  0
 45 47  1  0  0  0  0
 45 48  1  0  0  0  0
 46 50  1  0  0  0  0
 47 52  1  0  0  0  0
 48 69  1  0  0  0  0
 49 52  1  0  0  0  0
 49 69  1  0  0  0  0
 50 73  1  0  0  0  0
 51 68  1  0  0  0  0
 52 67  1  0  0  0  0
 54 64  1  0  0  0  0
 55 65  1  0  0  0  0
 56 65  1  0  0  0  0
 57 65  1  0  0  0  0
 58 75  1  0  0  0  0
 59 60  1  0  0  0  0
 59 61  1  0  0  0  0
 60 62  1  0  0  0  0
 61 82  1  0  0  0  0
 62 83  1  0  0  0  0
 63 65  1  0  0  0  0
 63 74  1  0  0  0  0
 64 75  1  0  0  0  0
 66 67  1  0  0  0  0
M  CHG  1  75   1
M  ISO  4  40 100  61 101  72 100  82 101
M  END
> <Batch ID>
0122

> <Smiles>
C=Cc1cc([100NH:0][100C:0](=O)N2CCCC(n3nc(-c4ccc(Oc5ccc(F)cc5F)cc4)c(C(N)=O)c3N)C2)cc(OCCC[101CH2:1][101O:1]c2ccc3c(c2)CN(C(=O)C(NC(=O)C(C)NC)C(C)(C)C)C(C(=O)NC2CCCc4ccccc42)C3)c1C

> <Shape>
0.242

> <Color>
0.105

> <Negative vol penalty>
0.000

$$$$

  -OEChem-04052302003D

 85 93  0     1  0  0  0  0  0999 V2000
  -19.0272  -24.1898   23.4756 C   0  0  0  0  0  0  0  0  0  0  0  0
  -20.3480  -24.3008   23.0531 C   0  0  0  0  0  0  0  0  0  0  0  0
  -23.3990   -9.9455   22.1398 C   0  0  0  0  0  0  0  0  0  0  0  0
  -24.3705   -9.0751   20.1061 C   0  0  0  0  0  0  0  0  0  0  0  0
  -18.1951  -25.3085   23.4596 C   0  0  0  0  0  0  0  0  0  0  0  0
  -20.8373  -25.5302   22.6133 C   0  0  0  0  0  0  0  0  0  0  0  0
  -25.4100  -26.5931   24.5121 C   0  0  0  0  0  0  0  0  0  0  0  0
  -22.5284   -8.8568   22.1898 C   0  0  0  0  0  0  0  0  0  0  0  0
  -23.4999   -7.9864   20.1562 C   0  0  0  0  0  0  0  0  0  0  0  0
  -26.5051  -25.9570   23.9291 C   0  0  0  0  0  0  0  0  0  0  0  0
  -20.2944   -6.1209   23.0494 C   0  0  0  0  0  0  0  0  0  0  0  0
  -20.1222   -5.4841   24.2784 C   0  0  0  0  0  0  0  0  0  0  0  0
  -23.7209  -23.5392   20.1332 C   0  0  0  0  0  0  0  0  0  0  0  0
  -26.2472  -22.3733   20.3359 C   0  0  0  0  0  0  0  0  0  0  0  0
  -26.9781  -27.9509   22.6564 C   0  0  0  0  0  0  0  0  0  0  0  0
  -22.4818   -4.9687   24.3418 C   0  0  0  0  0  0  0  0  0  0  0  0
  -24.3200  -10.0546   21.0979 C   0  0  0  0  0  0  0  0  0  0  0  0
  -24.8576  -24.2760   19.8009 C   0  0  0  0  0  0  0  0  0  0  0  0
  -25.1104  -21.6365   20.6682 C   0  0  0  0  0  0  0  0  0  0  0  0
  -26.5016  -11.2698   21.6189 C   0  0  0  0  0  0  0  0  0  0  0  0
  -18.6771  -26.5544   23.0285 C   0  0  0  0  0  0  0  0  0  0  0  0
  -25.0838  -27.9115   24.1629 C   0  0  0  0  0  0  0  0  0  0  0  0
  -20.0105  -26.6663   22.5903 C   0  0  0  0  0  0  0  0  0  0  0  0
  -25.8799  -28.6023   23.2383 C   0  0  0  0  0  0  0  0  0  0  0  0
  -23.8472  -22.2194   20.5669 C   0  0  0  0  0  0  0  0  0  0  0  0
  -22.5788   -7.8773   21.1980 C   0  0  0  0  0  0  0  0  0  0  0  0
  -27.2876  -26.6348   22.9989 C   0  0  0  0  0  0  0  0  0  0  0  0
  -21.5602   -6.1815   22.4665 C   0  0  0  0  0  0  0  0  0  0  0  0
  -26.1208  -23.6931   19.9022 C   0  0  0  0  0  0  0  0  0  0  0  0
  -21.2159   -4.9081   24.9246 C   0  0  0  0  0  0  0  0  0  0  0  0
  -22.6539   -5.6055   23.1128 C   0  0  0  0  0  0  0  0  0  0  0  0
  -25.2192  -11.1792   21.0453 C   0  0  0  0  0  0  0  0  0  0  0  0
  -26.9379  -12.5293   21.2873 C   0  0  0  0  0  0  0  0  0  0  0  0
  -24.1713  -26.6117   20.0984 C   0  0  0  0  0  0  0  0  0  0  0  0
  -24.6995  -25.6530   19.3524 C   0  0  0  0  0  0  0  0  0  0  0  0
  -25.2752  -20.2604   21.1177 C   0  0  0  0  0  0  0  0  0  0  0  0
  -25.8601  -19.2727   20.4098 C   0  0  0  0  0  0  0  0  0  0  0  0
  -27.2331  -10.3020   22.3831 C   0  0  0  0  0  0  0  0  0  0  0  0
  -25.9606  -17.9267   21.0091 C   0  0  0  0  0  0  0  0  0  0  0  0
  -22.5732  -29.3188   22.8138 C   0  0  0  0  0  0  0  0  0  0  0  0
  -24.2081  -32.0311   23.5154 C   0  0  0  0  0  0  0  0  0  0  0  0
  -27.2114  -33.5198   24.1568 C   0  0  0  0  0  0  0  0  0  0  0  0
  -17.7268  -27.7247   22.9844 C   0  0  0  0  0  0  0  0  0  0  0  0
  -23.9151  -28.5926   24.8207 C   0  0  0  0  0  0  0  0  0  0  0  0
  -25.5841  -30.0257   22.8445 C   0  0  0  0  0  0  0  0  0  0  0  0
  -18.4283  -29.0746   22.8577 C   0  0  0  0  0  0  0  0  0  0  0  0
  -25.0742  -15.9316   18.0654 C   0  0  0  0  0  0  0  0  0  0  0  0
  -19.5042  -29.0178   21.7779 C   0  0  0  0  0  0  0  0  0  0  0  0
  -25.0942  -14.5216   18.6494 C   0  0  0  0  0  0  0  0  0  0  0  0
  -24.5906  -16.9648   19.0819 C   0  0  0  0  0  0  0  0  0  0  0  0
  -25.3754  -15.5337   20.9465 C   0  0  0  0  0  0  0  0  0  0  0  0
  -20.5850  -27.9884   22.1297 C   0  0  1  0  0  0  0  0  0  0  0  0
  -23.3704  -29.7628   24.0075 C   0  0  1  0  0  0  0  0  0  0  0  0
  -25.9035  -14.4848   19.9554 C   0  0  1  0  0  0  0  0  0  0  0  0
  -22.6079  -21.4587   20.9140 C   0  0  0  0  0  0  0  0  0  0  0  0
  -28.2348  -35.7561   24.6555 C   0  0  0  0  0  0  0  0  0  0  0  0
  -23.9206  -32.8146   20.5805 C   0  0  0  0  0  0  0  0  0  0  0  0
  -25.7246  -34.5151   20.9299 C   0  0  0  0  0  0  0  0  0  0  0  0
  -23.5843  -34.6912   22.1990 C   0  0  0  0  0  0  0  0  0  0  0  0
  -28.2200  -32.6021   26.7834 C   0  0  0  0  0  0  0  0  0  0  0  0
  -29.3609  -25.2565   20.3696 C   0  0  0  0  0  0  0  0  0  0  0  0
  -28.7086  -26.4171   21.1044 C   0  0  0  0  0  0  0  0  0  1  0  0
  -28.4411  -24.0487   20.2836 C   0  0  0  0  0  0  0  0  0  0  0  0
  -25.2364  -32.8746   22.8012 C   0  0  1  0  0  0  0  0  0  0  0  0
  -27.6453  -34.4845   25.2456 C   0  0  2  0  0  0  0  0  0  0  0  0
  -24.6212  -33.6964   21.6334 C   0  0  0  0  0  0  0  0  0  0  0  0
  -24.8639  -12.2925   20.3985 N   0  0  0  0  0  0  0  0  0  0  0  0
  -25.9295  -13.0946   20.5637 N   0  0  0  0  0  0  0  0  0  0  0  0
  -25.3408  -16.8707   20.3433 N   0  0  0  0  0  0  0  0  0  0  0  0
  -24.4271  -30.6463   23.5106 N   0  0  0  0  0  0  0  0  0  0  0  0
  -28.0819  -13.1972   21.5471 N   0  0  0  0  0  0  0  0  0  0  0  0
  -26.6372   -9.0581   22.6317 N   0  0  0  0  0  0  0  0  0  0  0  0
  -21.4873  -28.5235   23.1266 N   0  0  0  0  0  0  0  0  0  0  0  0
  -25.8828  -33.6859   23.8270 N   0  0  0  0  0  0  0  0  0  0  0  0
  -28.6733  -33.8512   26.1192 N   0  3  0  0  0  0  0  0  0  0  0  0
  -28.3745  -10.5395   22.8461 O   0  0  0  0  0  0  0  0  0  0  0  0
  -26.5840  -17.8203   22.0668 O   0  0  0  0  0  0  0  0  0  0  0  0
  -22.9169  -29.6728   21.6921 O   0  0  0  0  0  0  0  0  0  0  0  0
  -23.2499  -32.5813   24.0637 O   0  0  0  0  0  0  0  0  0  0  0  0
  -27.9755  -32.7033   23.6469 O   0  0  0  0  0  0  0  0  0  0  0  0
  -21.7296   -6.8147   21.2467 O   0  0  0  0  0  0  0  0  0  0  0  0
  -28.3567  -26.0160   22.4279 O   0  0  0  0  0  0  0  0  0  1  0  0
  -27.2539  -24.3954   19.5836 O   0  0  0  0  0  0  0  0  0  0  0  0
  -21.0508   -4.2980   26.1056 F   0  0  0  0  0  0  0  0  0  0  0  0
  -23.8726   -5.6616   22.5583 F   0  0  0  0  0  0  0  0  0  0  0  0
  1  2  1  0  0  0  0
  1  5  2  0  0  0  0
  2  6  2  0  0  0  0
  3  8  2  0  0  0  0
  3 17  1  0  0  0  0
  4  9  1  0  0  0  0
  4 17  2  0  0  0  0
  5 21  1  0  0  0  0
  6 23  1  0  0  0  0
  7 10  2  0  0  0  0
  7 22  1  0  0  0  0
  8 26  1  0  0  0  0
  9 26  2  0  0  0  0
 10 27  1  0  0  0  0
 11 12  2  0  0  0  0
 11 28  1  0  0  0  0
 12 30  1  0  0  0  0
 13 18  1  0  0  0  0
 13 25  2  0  0  0  0
 14 19  2  0  0  0  0
 14 29  1  0  0  0  0
 15 24  1  0  0  0  0
 15 27  2  0  0  0  0
 16 30  2  0  0  0  0
 16 31  1  0  0  0  0
 17 32  1  0  0  0  0
 18 29  2  0  0  0  0
 18 35  1  0  0  0  0
 19 25  1  0  0  0  0
 19 36  1  0  0  0  0
 20 32  1  0  0  0  0
 20 33  2  0  0  0  0
 20 38  1  0  0  0  0
 21 23  2  0  0  0  0
 21 43  1  0  0  0  0
 22 24  2  0  0  0  0
 22 44  1  0  0  0  0
 23 52  1  0  0  0  0
 24 45  1  0  0  0  0
 25 55  1  0  0  0  0
 26 81  1  0  0  0  0
 27 82  1  0  0  0  0
 28 31  2  0  0  0  0
 28 81  1  0  0  0  0
 29 83  1  0  0  0  0
 30 84  1  0  0  0  0
 31 85  1  0  0  0  0
 32 67  2  0  0  0  0
 33 68  1  0  0  0  0
 33 71  1  0  0  0  0
 34 35  2  0  0  0  0
 36 37  2  0  0  0  0
 37 39  1  0  0  0  0
 38 72  1  0  0  0  0
 38 76  2  0  0  0  0
 39 69  1  0  0  0  0
 39 77  2  0  0  0  0
 40 53  1  0  0  0  0
 40 73  1  0  0  0  0
 40 78  2  0  0  0  0
 41 64  1  0  0  0  0
 41 70  1  0  0  0  0
 41 79  2  0  0  0  0
 42 65  1  0  0  0  0
 42 74  1  0  0  0  0
 42 80  2  0  0  0  0
 43 46  1  0  0  0  0
 44 53  1  0  0  0  0
 45 70  1  0  0  0  0
 46 48  1  0  0  0  0
 47 49  1  0  0  0  0
 47 50  1  0  0  0  0
 48 52  1  0  0  0  0
 49 54  1  0  0  0  0
 50 69  1  0  0  0  0
 51 54  1  0  0  0  0
 51 69  1  0  0  0  0
 52 73  1  0  0  0  0
 53 70  1  0  0  0  0
 54 68  1  0  0  0  0
 56 65  1  0  0  0  0
 57 66  1  0  0  0  0
 58 66  1  0  0  0  0
 59 66  1  0  0  0  0
 60 75  1  0  0  0  0
 61 62  1  0  0  0  0
 61 63  1  0  0  0  0
 62 82  1  0  0  0  0
 63 83  1  0  0  0  0
 64 66  1  0  0  0  0
 64 74  1  0  0  0  0
 65 75  1  0  0  0  0
 67 68  1  0  0  0  0
M  CHG  1  75   1
M  ISO  4  37 100  39 100  62 101  82 101
M  END
> <Batch ID>
0122

> <Smiles>
C=Cc1cc(C)c(C=[100CH:0][100C:0](=O)N2CCCC(n3nc(-c4ccc(Oc5ccc(F)cc5F)cc4)c(C(N)=O)c3N)C2)cc1OCC[101CH2:1][101O:1]c1ccc2c(c1)CN(C(=O)C(NC(=O)C(C)NC)C(C)(C)C)C(C(=O)NC1CCCc3ccccc31)C2

> <Shape>
0.251

> <Color>
0.122

> <Negative vol penalty>
0.000

$$$$

  -OEChem-04052302003D

 83 91  0     1  0  0  0  0  0999 V2000
  -28.4600  -37.5165   20.3308 C   0  0  0  0  0  0  0  0  0  0  0  0
  -28.8454  -36.2041   20.0770 C   0  0  0  0  0  0  0  0  0  0  0  0
  -26.9853   -7.7351   22.3592 C   0  0  0  0  0  0  0  0  0  0  0  0
  -25.2740   -7.6192   20.6576 C   0  0  0  0  0  0  0  0  0  0  0  0
  -27.5392  -37.7883   21.3418 C   0  0  0  0  0  0  0  0  0  0  0  0
  -28.3110  -35.1627   20.8349 C   0  0  0  0  0  0  0  0  0  0  0  0
  -27.0036  -29.4995   18.9052 C   0  0  0  0  0  0  0  0  0  0  0  0
  -26.3466   -6.7196   23.0708 C   0  0  0  0  0  0  0  0  0  0  0  0
  -24.6353   -6.6036   21.3692 C   0  0  0  0  0  0  0  0  0  0  0  0
  -27.6960  -28.2931   18.9998 C   0  0  0  0  0  0  0  0  0  0  0  0
  -22.6070   -6.3441   24.0617 C   0  0  0  0  0  0  0  0  0  0  0  0
  -21.2226   -6.4286   24.2099 C   0  0  0  0  0  0  0  0  0  0  0  0
  -30.5847  -19.9410   20.0826 C   0  0  0  0  0  0  0  0  0  0  0  0
  -28.9252  -21.1664   18.2045 C   0  0  0  0  0  0  0  0  0  0  0  0
  -26.4201  -27.7218   20.9658 C   0  0  0  0  0  0  0  0  0  0  0  0
  -20.9713   -4.3156   23.0656 C   0  0  0  0  0  0  0  0  0  0  0  0
  -26.4490   -8.1850   21.1526 C   0  0  0  0  0  0  0  0  0  0  0  0
  -29.7897  -19.1627   19.2413 C   0  0  0  0  0  0  0  0  0  0  0  0
  -29.7202  -21.9447   19.0459 C   0  0  0  0  0  0  0  0  0  0  0  0
  -28.1000   -9.0864   19.4295 C   0  0  0  0  0  0  0  0  0  0  0  0
  -26.9860  -36.7489   22.1061 C   0  0  0  0  0  0  0  0  0  0  0  0
  -26.0202  -29.8315   19.8481 C   0  0  0  0  0  0  0  0  0  0  0  0
  -27.3830  -35.4210   21.8580 C   0  0  0  0  0  0  0  0  0  0  0  0
  -25.7149  -28.9319   20.8794 C   0  0  0  0  0  0  0  0  0  0  0  0
  -28.9599  -19.7754   18.3023 C   0  0  0  0  0  0  0  0  0  0  0  0
  -30.5499  -21.3320   19.9850 C   0  0  0  0  0  0  0  0  0  0  0  0
  -25.1716   -6.1539   22.5758 C   0  0  0  0  0  0  0  0  0  0  0  0
  -27.4064  -27.4053   20.0318 C   0  0  0  0  0  0  0  0  0  0  0  0
  -23.1735   -5.2455   23.4154 C   0  0  0  0  0  0  0  0  0  0  0  0
  -20.4048   -5.4143   23.7118 C   0  0  0  0  0  0  0  0  0  0  0  0
  -22.3557   -4.2312   22.9174 C   0  0  0  0  0  0  0  0  0  0  0  0
  -27.1080   -9.2343   20.4174 C   0  0  0  0  0  0  0  0  0  0  0  0
  -28.3950  -10.3713   19.0441 C   0  0  0  0  0  0  0  0  0  0  0  0
  -29.8477  -17.7123   19.3676 C   0  0  0  0  0  0  0  0  0  0  0  0
  -29.6625  -23.4105   18.9176 C   0  0  0  0  0  0  0  0  0  0  0  0
  -29.5232  -17.0113   20.4731 C   0  0  0  0  0  0  0  0  0  0  0  0
  -28.5570  -24.1574   19.0633 C   0  0  0  0  0  0  0  0  0  0  0  0
  -28.7010   -7.8942   18.9069 C   0  0  0  0  0  0  0  0  0  0  0  0
  -29.6253  -15.5385   20.4412 C   0  0  0  0  0  0  0  0  0  0  0  0
  -25.6541  -32.1579   21.9830 C   0  0  0  0  0  0  0  0  0  0  0  0
  -22.7358  -30.7996   22.3845 C   0  0  0  0  0  0  0  0  0  0  0  0
  -20.7724  -28.0208   22.1201 C   0  0  0  0  0  0  0  0  0  0  0  0
  -26.0300  -37.0962   23.2197 C   0  0  0  0  0  0  0  0  0  0  0  0
  -25.2636  -31.1249   19.7166 C   0  0  0  0  0  0  0  0  0  0  0  0
  -24.6538  -29.2321   21.9053 C   0  0  0  0  0  0  0  0  0  0  0  0
  -25.2275  -35.9013   23.7284 C   0  0  0  0  0  0  0  0  0  0  0  0
  -26.0723  -14.7360   20.0364 C   0  0  0  0  0  0  0  0  0  0  0  0
  -26.1415  -34.7008   23.9523 C   0  0  0  0  0  0  0  0  0  0  0  0
  -26.1104  -13.2104   20.0674 C   0  0  0  0  0  0  0  0  0  0  0  0
  -27.1306  -15.3530   20.9495 C   0  0  0  0  0  0  0  0  0  0  0  0
  -28.5507  -13.3368   20.7072 C   0  0  0  0  0  0  0  0  0  0  0  0
  -26.8068  -34.2620   22.6422 C   0  0  1  0  0  0  0  0  0  0  0  0
  -24.6413  -31.5892   21.0298 C   0  0  1  0  0  0  0  0  0  0  0  0
  -27.5252  -12.6950   19.7596 C   0  0  1  0  0  0  0  0  0  0  0  0
  -28.0947  -18.9730   17.3844 C   0  0  0  0  0  0  0  0  0  0  0  0
  -31.4153  -22.1348   20.9022 C   0  0  0  0  0  0  0  0  0  0  0  0
  -18.4397  -27.2078   22.5615 C   0  0  0  0  0  0  0  0  0  0  0  0
  -23.3565  -30.6456   25.3680 C   0  0  0  0  0  0  0  0  0  0  0  0
  -21.4742  -29.0118   25.6042 C   0  0  0  0  0  0  0  0  0  0  0  0
  -21.0153  -31.3362   24.8238 C   0  0  0  0  0  0  0  0  0  0  0  0
  -20.3208  -27.4073   19.2603 C   0  0  0  0  0  0  0  0  0  0  0  0
  -28.5450  -25.6446   18.9097 C   0  0  0  0  0  0  0  0  0  1  0  0
  -22.1749  -29.7134   23.2702 C   0  0  1  0  0  0  0  0  0  0  0  0
  -19.3845  -27.8197   21.5389 C   0  0  2  0  0  0  0  0  0  0  0  0
  -22.0266  -30.1716   24.7485 C   0  0  0  0  0  0  0  0  0  0  0  0
  -26.7940  -10.5124   20.6455 N   0  0  0  0  0  0  0  0  0  0  0  0
  -27.5933  -11.1792   19.7955 N   0  0  0  0  0  0  0  0  0  0  0  0
  -28.4660  -14.8012   20.6754 N   0  0  0  0  0  0  0  0  0  0  0  0
  -23.9462  -30.5123   21.7378 N   0  0  0  0  0  0  0  0  0  0  0  0
  -29.2595  -10.8775   18.1392 N   0  0  0  0  0  0  0  0  0  0  0  0
  -28.2815   -6.6569   19.4142 N   0  0  0  0  0  0  0  0  0  0  0  0
  -25.8740  -33.5132   21.8276 N   0  0  0  0  0  0  0  0  0  0  0  0
  -20.9262  -29.2847   22.6494 N   0  0  0  0  0  0  0  0  0  0  0  0
  -19.4446  -26.9164   20.3550 N   0  3  0  0  0  0  0  0  0  0  0  0
  -29.5956   -7.9260   18.0282 O   0  0  0  0  0  0  0  0  0  0  0  0
  -30.7336  -15.0501   20.2136 O   0  0  0  0  0  0  0  0  0  0  0  0
  -26.1949  -31.4218   22.8000 O   0  0  0  0  0  0  0  0  0  0  0  0
  -22.1190  -31.8612   22.2651 O   0  0  0  0  0  0  0  0  0  0  0  0
  -21.6327  -27.1432   22.1093 O   0  0  0  0  0  0  0  0  0  0  0  0
  -24.5482   -5.1627   23.2698 O   0  0  0  0  0  0  0  0  0  0  0  0
  -28.0812  -26.2274   20.1269 O   0  0  0  0  0  0  0  0  0  1  0  0
  -19.0755   -5.4947   23.8556 F   0  0  0  0  0  0  0  0  0  0  0  0
  -22.8943   -3.1727   22.2966 F   0  0  0  0  0  0  0  0  0  0  0  0
  1  2  1  0  0  0  0
  1  5  2  0  0  0  0
  2  6  2  0  0  0  0
  3  8  2  0  0  0  0
  3 17  1  0  0  0  0
  4  9  1  0  0  0  0
  4 17  2  0  0  0  0
  5 21  1  0  0  0  0
  6 23  1  0  0  0  0
  7 10  2  0  0  0  0
  7 22  1  0  0  0  0
  8 27  1  0  0  0  0
  9 27  2  0  0  0  0
 10 28  1  0  0  0  0
 11 12  2  0  0  0  0
 11 29  1  0  0  0  0
 12 30  1  0  0  0  0
 13 18  2  0  0  0  0
 13 26  1  0  0  0  0
 14 19  1  0  0  0  0
 14 25  2  0  0  0  0
 15 24  1  0  0  0  0
 15 28  2  0  0  0  0
 16 30  2  0  0  0  0
 16 31  1  0  0  0  0
 17 32  1  0  0  0  0
 18 25  1  0  0  0  0
 18 34  1  0  0  0  0
 19 26  2  0  0  0  0
 19 35  1  0  0  0  0
 20 32  1  0  0  0  0
 20 33  2  0  0  0  0
 20 38  1  0  0  0  0
 21 23  2  0  0  0  0
 21 43  1  0  0  0  0
 22 24  2  0  0  0  0
 22 44  1  0  0  0  0
 23 52  1  0  0  0  0
 24 45  1  0  0  0  0
 25 55  1  0  0  0  0
 26 56  1  0  0  0  0
 27 80  1  0  0  0  0
 28 81  1  0  0  0  0
 29 31  2  0  0  0  0
 29 80  1  0  0  0  0
 30 82  1  0  0  0  0
 31 83  1  0  0  0  0
 32 66  2  0  0  0  0
 33 67  1  0  0  0  0
 33 70  1  0  0  0  0
 34 36  2  0  0  0  0
 35 37  2  0  0  0  0
 36 39  1  0  0  0  0
 37 62  1  0  0  0  0
 38 71  1  0  0  0  0
 38 75  2  0  0  0  0
 39 68  1  0  0  0  0
 39 76  2  0  0  0  0
 40 53  1  0  0  0  0
 40 72  1  0  0  0  0
 40 77  2  0  0  0  0
 41 63  1  0  0  0  0
 41 69  1  0  0  0  0
 41 78  2  0  0  0  0
 42 64  1  0  0  0  0
 42 73  1  0  0  0  0
 42 79  2  0  0  0  0
 43 46  1  0  0  0  0
 44 53  1  0  0  0  0
 45 69  1  0  0  0  0
 46 48  1  0  0  0  0
 47 49  1  0  0  0  0
 47 50  1  0  0  0  0
 48 52  1  0  0  0  0
 49 54  1  0  0  0  0
 50 68  1  0  0  0  0
 51 54  1  0  0  0  0
 51 68  1  0  0  0  0
 52 72  1  0  0  0  0
 53 69  1  0  0  0  0
 54 67  1  0  0  0  0
 57 64  1  0  0  0  0
 58 65  1  0  0  0  0
 59 65  1  0  0  0  0
 60 65  1  0  0  0  0
 61 74  1  0  0  0  0
 62 81  1  0  0  0  0
 63 65  1  0  0  0  0
 63 73  1  0  0  0  0
 64 74  1  0  0  0  0
 66 67  1  0  0  0  0
M  CHG  1  74   1
M  ISO  4  36 100  39 100  62 101  81 101
M  END
> <Batch ID>
0122

> <Smiles>
CNC(C)C(=O)NC(C(=O)N1Cc2cc([101O:1][101CH2:1]C=Cc3cc(C)c(C=[100CH:0][100C:0](=O)N4CCCC(n5nc(-c6ccc(Oc7ccc(F)cc7F)cc6)c(C(N)=O)c5N)C4)cc3C)ccc2CC1C(=O)NC1CCCc2ccccc21)C(C)(C)C

> <Shape>
0.288

> <Color>
0.087

> <Negative vol penalty>
0.000

$$$$

  -OEChem-04052302003D

 86 94  0     1  0  0  0  0  0999 V2000
  -28.4760  -34.4498   21.3610 C   0  0  0  0  0  0  0  0  0  0  0  0
  -28.0678  -33.1231   21.2684 C   0  0  0  0  0  0  0  0  0  0  0  0
  -24.2810   -9.5380   22.2060 C   0  0  0  0  0  0  0  0  0  0  0  0
  -24.3599   -8.9073   19.8751 C   0  0  0  0  0  0  0  0  0  0  0  0
  -27.8371  -35.3142   22.2489 C   0  0  0  0  0  0  0  0  0  0  0  0
  -27.0209  -32.6597   22.0646 C   0  0  0  0  0  0  0  0  0  0  0  0
  -23.7229  -29.8185   19.4770 C   0  0  0  0  0  0  0  0  0  0  0  0
  -23.1638   -8.7232   22.3887 C   0  0  0  0  0  0  0  0  0  0  0  0
  -23.2427   -8.0924   20.0578 C   0  0  0  0  0  0  0  0  0  0  0  0
  -24.0915  -28.5012   19.2076 C   0  0  0  0  0  0  0  0  0  0  0  0
  -22.5235   -5.4280   22.7943 C   0  0  0  0  0  0  0  0  0  0  0  0
  -22.4988   -4.6046   23.9199 C   0  0  0  0  0  0  0  0  0  0  0  0
  -31.7176  -20.5391   21.0525 C   0  0  0  0  0  0  0  0  0  0  0  0
  -29.5972  -20.7527   19.9145 C   0  0  0  0  0  0  0  0  0  0  0  0
  -22.7280  -27.7492   21.0501 C   0  0  0  0  0  0  0  0  0  0  0  0
  -20.4850   -5.7027   24.6789 C   0  0  0  0  0  0  0  0  0  0  0  0
  -24.8791   -9.6301   20.9492 C   0  0  0  0  0  0  0  0  0  0  0  0
  -30.5036  -19.9854   20.6462 C   0  0  0  0  0  0  0  0  0  0  0  0
  -27.3848  -10.1069   20.9041 C   0  0  0  0  0  0  0  0  0  0  0  0
  -26.7755  -34.8637   23.0494 C   0  0  0  0  0  0  0  0  0  0  0  0
  -22.8613  -30.1126   20.5436 C   0  0  0  0  0  0  0  0  0  0  0  0
  -26.3680  -33.5186   22.9650 C   0  0  0  0  0  0  0  0  0  0  0  0
  -22.3480  -29.0708   21.3294 C   0  0  0  0  0  0  0  0  0  0  0  0
  -32.0254  -21.8601   20.7272 C   0  0  0  0  0  0  0  0  0  0  0  0
  -31.1190  -22.6275   19.9955 C   0  0  0  0  0  0  0  0  0  0  0  0
  -22.6446   -8.0004   21.3146 C   0  0  0  0  0  0  0  0  0  0  0  0
  -23.5964  -27.4666   19.9960 C   0  0  0  0  0  0  0  0  0  0  0  0
  -21.5291   -6.3888   22.6110 C   0  0  0  0  0  0  0  0  0  0  0  0
  -29.9049  -22.0738   19.5892 C   0  0  0  0  0  0  0  0  0  0  0  0
  -21.4796   -4.7419   24.8622 C   0  0  0  0  0  0  0  0  0  0  0  0
  -20.5098   -6.5261   23.5533 C   0  0  0  0  0  0  0  0  0  0  0  0
  -26.0329  -10.4721   20.7597 C   0  0  0  0  0  0  0  0  0  0  0  0
  -28.0830  -11.2541   20.6164 C   0  0  0  0  0  0  0  0  0  0  0  0
  -30.1818  -18.6081   20.9860 C   0  0  0  0  0  0  0  0  0  0  0  0
  -28.9417  -18.0746   21.0016 C   0  0  0  0  0  0  0  0  0  0  0  0
  -27.9581   -8.8435   21.2658 C   0  0  0  0  0  0  0  0  0  0  0  0
  -28.7784  -16.6513   21.3596 C   0  0  0  0  0  0  0  0  0  0  0  0
  -23.1062  -31.8023   23.2247 C   0  0  0  0  0  0  0  0  0  0  0  0
  -19.9437  -31.1266   23.4791 C   0  0  0  0  0  0  0  0  0  0  0  0
  -17.3445  -29.0737   22.6568 C   0  0  0  0  0  0  0  0  0  0  0  0
  -26.1467  -35.8231   24.0285 C   0  0  0  0  0  0  0  0  0  0  0  0
  -22.4521  -31.5363   20.8045 C   0  0  0  0  0  0  0  0  0  0  0  0
  -21.4039  -29.3316   22.4735 C   0  0  0  0  0  0  0  0  0  0  0  0
  -24.7990  -35.3487   24.5660 C   0  0  0  0  0  0  0  0  0  0  0  0
  -26.5718  -15.6302   18.6173 C   0  0  0  0  0  0  0  0  0  0  0  0
  -24.8776  -33.8848   24.9874 C   0  0  0  0  0  0  0  0  0  0  0  0
  -26.3111  -14.1702   18.9783 C   0  0  0  0  0  0  0  0  0  0  0  0
  -26.7184  -16.5087   19.8588 C   0  0  0  0  0  0  0  0  0  0  0  0
  -27.4902  -14.5583   21.1781 C   0  0  0  0  0  0  0  0  0  0  0  0
  -25.2200  -32.9848   23.7940 C   0  0  1  0  0  0  0  0  0  0  0  0
  -21.9760  -31.7685   22.2352 C   0  0  1  0  0  0  0  0  0  0  0  0
  -27.3862  -13.6480   19.9444 C   0  0  1  0  0  0  0  0  0  0  0  0
  -31.4436  -24.0442   19.6440 C   0  0  0  0  0  0  0  0  0  0  0  0
  -34.3490  -22.5033   20.0389 C   0  0  0  0  0  0  0  0  0  0  0  0
  -14.8858  -28.7561   23.0461 C   0  0  0  0  0  0  0  0  0  0  0  0
  -20.5286  -30.0381   26.2689 C   0  0  0  0  0  0  0  0  0  0  0  0
  -18.2987  -28.9010   26.2168 C   0  0  0  0  0  0  0  0  0  0  0  0
  -18.4311  -31.3890   26.0947 C   0  0  0  0  0  0  0  0  0  0  0  0
  -16.7319  -29.3722   19.7768 C   0  0  0  0  0  0  0  0  0  0  0  0
  -33.3319  -22.4300   21.1737 C   0  0  0  0  0  0  0  0  0  0  0  0
  -25.7786  -24.6051   19.5771 C   0  0  0  0  0  0  0  0  0  0  0  0
  -27.1658  -24.3448   19.0002 C   0  0  0  0  0  0  0  0  0  0  0  0
  -25.2437  -25.9687   19.1601 C   0  0  0  0  0  0  0  0  0  1  0  0
  -27.7191  -23.0005   19.4514 C   0  0  0  0  0  0  0  0  0  0  0  0
  -19.1351  -30.0108   24.0955 C   0  0  1  0  0  0  0  0  0  0  0  0
  -15.9461  -29.3736   22.1477 C   0  0  2  0  0  0  0  0  0  0  0  0
  -19.1177  -30.0797   25.6487 C   0  0  0  0  0  0  0  0  0  0  0  0
  -25.8792  -11.7514   20.4078 N   0  0  0  0  0  0  0  0  0  0  0  0
  -27.1435  -12.2000   20.3288 N   0  0  0  0  0  0  0  0  0  0  0  0
  -27.7100  -15.9572   20.7944 N   0  0  0  0  0  0  0  0  0  0  0  0
  -21.0385  -30.7409   22.6927 N   0  0  0  0  0  0  0  0  0  0  0  0
  -29.4028  -11.5360   20.5841 N   0  0  0  0  0  0  0  0  0  0  0  0
  -27.0967   -7.7694   21.5281 N   0  0  0  0  0  0  0  0  0  0  0  0
  -24.0513  -32.7767   22.9663 N   0  0  0  0  0  0  0  0  0  0  0  0
  -17.8142  -30.0755   23.4796 N   0  0  0  0  0  0  0  0  0  0  0  0
  -15.7690  -28.8319   20.7707 N   0  3  0  0  0  0  0  0  0  0  0  0
  -29.1969   -8.6764   21.3699 O   0  0  0  0  0  0  0  0  0  0  0  0
  -29.5962  -16.1643   22.1423 O   0  0  0  0  0  0  0  0  0  0  0  0
  -23.1190  -31.0045   24.1548 O   0  0  0  0  0  0  0  0  0  0  0  0
  -19.6118  -32.2973   23.6819 O   0  0  0  0  0  0  0  0  0  0  0  0
  -17.9572  -28.0512   22.3577 O   0  0  0  0  0  0  0  0  0  0  0  0
  -21.5546   -7.2050   21.4926 O   0  0  0  0  0  0  0  0  0  0  0  0
  -23.9550  -26.1799   19.7356 O   0  0  0  0  0  0  0  0  0  1  0  0
  -29.0019  -22.8128   18.8699 O   0  0  0  0  0  0  0  0  0  0  0  0
  -21.4551   -3.9501   25.9423 F   0  0  0  0  0  0  0  0  0  0  0  0
  -19.5510   -7.4465   23.3821 F   0  0  0  0  0  0  0  0  0  0  0  0
  1  2  1  0  0  0  0
  1  5  2  0  0  0  0
  2  6  2  0  0  0  0
  3  8  2  0  0  0  0
  3 17  1  0  0  0  0
  4  9  1  0  0  0  0
  4 17  2  0  0  0  0
  5 20  1  0  0  0  0
  6 22  1  0  0  0  0
  7 10  2  0  0  0  0
  7 21  1  0  0  0  0
  8 26  1  0  0  0  0
  9 26  2  0  0  0  0
 10 27  1  0  0  0  0
 11 12  2  0  0  0  0
 11 28  1  0  0  0  0
 12 30  1  0  0  0  0
 13 18  2  0  0  0  0
 13 24  1  0  0  0  0
 14 18  1  0  0  0  0
 14 29  2  0  0  0  0
 15 23  1  0  0  0  0
 15 27  2  0  0  0  0
 16 30  2  0  0  0  0
 16 31  1  0  0  0  0
 17 32  1  0  0  0  0
 18 34  1  0  0  0  0
 19 32  1  0  0  0  0
 19 33  2  0  0  0  0
 19 36  1  0  0  0  0
 20 22  2  0  0  0  0
 20 41  1  0  0  0  0
 21 23  2  0  0  0  0
 21 42  1  0  0  0  0
 22 50  1  0  0  0  0
 23 43  1  0  0  0  0
 24 25  2  0  0  0  0
 24 60  1  0  0  0  0
 25 29  1  0  0  0  0
 25 53  1  0  0  0  0
 26 82  1  0  0  0  0
 27 83  1  0  0  0  0
 28 31  2  0  0  0  0
 28 82  1  0  0  0  0
 29 84  1  0  0  0  0
 30 85  1  0  0  0  0
 31 86  1  0  0  0  0
 32 68  2  0  0  0  0
 33 69  1  0  0  0  0
 33 72  1  0  0  0  0
 34 35  2  0  0  0  0
 35 37  1  0  0  0  0
 36 73  1  0  0  0  0
 36 77  2  0  0  0  0
 37 70  1  0  0  0  0
 37 78  2  0  0  0  0
 38 51  1  0  0  0  0
 38 74  1  0  0  0  0
 38 79  2  0  0  0  0
 39 65  1  0  0  0  0
 39 71  1  0  0  0  0
 39 80  2  0  0  0  0
 40 66  1  0  0  0  0
 40 75  1  0  0  0  0
 40 81  2  0  0  0  0
 41 44  1  0  0  0  0
 42 51  1  0  0  0  0
 43 71  1  0  0  0  0
 44 46  1  0  0  0  0
 45 47  1  0  0  0  0
 45 48  1  0  0  0  0
 46 50  1  0  0  0  0
 47 52  1  0  0  0  0
 48 70  1  0  0  0  0
 49 52  1  0  0  0  0
 49 70  1  0  0  0  0
 50 74  1  0  0  0  0
 51 71  1  0  0  0  0
 52 69  1  0  0  0  0
 54 60  1  0  0  0  0
 55 66  1  0  0  0  0
 56 67  1  0  0  0  0
 57 67  1  0  0  0  0
 58 67  1  0  0  0  0
 59 76  1  0  0  0  0
 61 62  1  0  0  0  0
 61 63  1  0  0  0  0
 62 64  1  0  0  0  0
 63 83  1  0  0  0  0
 64 84  1  0  0  0  0
 65 67  1  0  0  0  0
 65 75  1  0  0  0  0
 66 76  1  0  0  0  0
 68 69  1  0  0  0  0
M  CHG  1  76   1
M  ISO  4  35 100  37 100  63 101  83 101
M  END
> <Batch ID>
0122

> <Smiles>
CCc1cc(C=[100CH:0][100C:0](=O)N2CCCC(n3nc(-c4ccc(Oc5ccc(F)cc5F)cc4)c(C(N)=O)c3N)C2)cc(OCCC[101CH2:1][101O:1]c2ccc3c(c2)CN(C(=O)C(NC(=O)C(C)NC)C(C)(C)C)C(C(=O)NC2CCCc4ccccc42)C3)c1C

> <Shape>
0.299

> <Color>
0.089

> <Negative vol penalty>
0.000

$$$$

  -OEChem-04052302003D

 84 92  0     1  0  0  0  0  0999 V2000
  -29.4302  -35.9346   22.6256 C   0  0  0  0  0  0  0  0  0  0  0  0
  -29.3083  -34.5682   22.8569 C   0  0  0  0  0  0  0  0  0  0  0  0
  -23.8316   -9.6496   22.1500 C   0  0  0  0  0  0  0  0  0  0  0  0
  -23.4579  -11.8624   23.0448 C   0  0  0  0  0  0  0  0  0  0  0  0
  -28.7730  -19.3934   21.2296 C   0  0  0  0  0  0  0  0  0  0  0  0
  -28.3006  -36.7508   22.6666 C   0  0  0  0  0  0  0  0  0  0  0  0
  -28.0568  -34.0174   23.1305 C   0  0  0  0  0  0  0  0  0  0  0  0
  -27.2135  -29.7376   20.5581 C   0  0  0  0  0  0  0  0  0  0  0  0
  -28.7297  -18.0151   21.4397 C   0  0  0  0  0  0  0  0  0  0  0  0
  -23.1776   -9.0944   23.2498 C   0  0  0  0  0  0  0  0  0  0  0  0
  -22.8038  -11.3072   24.1446 C   0  0  0  0  0  0  0  0  0  0  0  0
  -27.8206  -28.5772   21.0361 C   0  0  0  0  0  0  0  0  0  0  0  0
  -19.9904   -8.6292   24.2787 C   0  0  0  0  0  0  0  0  0  0  0  0
  -19.0606   -7.6180   24.0373 C   0  0  0  0  0  0  0  0  0  0  0  0
  -25.7435  -27.9258   22.0755 C   0  0  0  0  0  0  0  0  0  0  0  0
  -30.5941  -17.7265   19.9305 C   0  0  0  0  0  0  0  0  0  0  0  0
  -20.3562   -6.1013   25.4005 C   0  0  0  0  0  0  0  0  0  0  0  0
  -23.9719  -11.0336   22.0476 C   0  0  0  0  0  0  0  0  0  0  0  0
  -29.7268  -19.9382   20.3699 C   0  0  0  0  0  0  0  0  0  0  0  0
  -24.0713  -12.0044   19.6906 C   0  0  0  0  0  0  0  0  0  0  0  0
  -27.0332  -36.2083   22.9312 C   0  0  0  0  0  0  0  0  0  0  0  0
  -25.8674  -30.0066   20.8448 C   0  0  0  0  0  0  0  0  0  0  0  0
  -26.9094  -34.8274   23.1764 C   0  0  0  0  0  0  0  0  0  0  0  0
  -25.1209  -29.0891   21.5978 C   0  0  0  0  0  0  0  0  0  0  0  0
  -30.6373  -19.1048   19.7204 C   0  0  0  0  0  0  0  0  0  0  0  0
  -29.6402  -17.1817   20.7902 C   0  0  0  0  0  0  0  0  0  0  0  0
  -22.6636   -9.9232   24.2471 C   0  0  0  0  0  0  0  0  0  0  0  0
  -27.0864  -27.6725   21.7974 C   0  0  0  0  0  0  0  0  0  0  0  0
  -21.1032   -8.3765   25.0809 C   0  0  0  0  0  0  0  0  0  0  0  0
  -19.2434   -6.3540   24.5982 C   0  0  0  0  0  0  0  0  0  0  0  0
  -21.2861   -7.1125   25.6418 C   0  0  0  0  0  0  0  0  0  0  0  0
  -24.6479  -11.6077   20.9120 C   0  0  0  0  0  0  0  0  0  0  0  0
  -25.1262  -12.4821   18.9520 C   0  0  0  0  0  0  0  0  0  0  0  0
  -29.7470  -21.3967   20.1694 C   0  0  0  0  0  0  0  0  0  0  0  0
  -29.9120  -22.3093   21.1399 C   0  0  0  0  0  0  0  0  0  0  0  0
  -22.7043  -11.9464   19.2620 C   0  0  0  0  0  0  0  0  0  0  0  0
  -24.3223  -32.3043   22.4059 C   0  0  0  0  0  0  0  0  0  0  0  0
  -28.8128  -24.4839   21.6670 C   0  0  0  0  0  0  0  0  0  0  0  0
  -21.6971  -30.7647   21.2831 C   0  0  0  0  0  0  0  0  0  0  0  0
  -20.3090  -27.8678   20.1308 C   0  0  0  0  0  0  0  0  0  0  0  0
  -30.4240  -14.8139   20.4355 C   0  0  0  0  0  0  0  0  0  0  0  0
  -25.8482  -37.1377   23.0119 C   0  0  0  0  0  0  0  0  0  0  0  0
  -25.2199  -31.2498   20.2992 C   0  0  0  0  0  0  0  0  0  0  0  0
  -23.6673  -29.3214   21.9164 C   0  0  0  0  0  0  0  0  0  0  0  0
  -24.5038  -36.4183   22.9383 C   0  0  0  0  0  0  0  0  0  0  0  0
  -29.8531  -11.9517   18.3962 C   0  0  0  0  0  0  0  0  0  0  0  0
  -24.4953  -35.2066   23.8649 C   0  0  0  0  0  0  0  0  0  0  0  0
  -28.3991  -11.5784   18.6942 C   0  0  0  0  0  0  0  0  0  0  0  0
  -30.5739  -12.4639   19.6420 C   0  0  0  0  0  0  0  0  0  0  0  0
  -28.4421  -13.1876   20.6424 C   0  0  0  0  0  0  0  0  0  0  0  0
  -25.5654  -34.1888   23.4519 C   0  0  1  0  0  0  0  0  0  0  0  0
  -23.9829  -31.6734   21.0851 C   0  0  1  0  0  0  0  0  0  0  0  0
  -27.6563  -12.7275   19.4036 C   0  0  2  0  0  0  0  0  0  0  0  0
  -31.6733  -19.6536   18.7928 C   0  0  0  0  0  0  0  0  0  0  0  0
  -18.1334  -26.9092   19.3274 C   0  0  0  0  0  0  0  0  0  0  0  0
  -20.6885  -30.6487   24.1605 C   0  0  0  0  0  0  0  0  0  0  0  0
  -19.0481  -28.8994   23.4413 C   0  0  0  0  0  0  0  0  0  0  0  0
  -18.9352  -31.1906   22.4615 C   0  0  0  0  0  0  0  0  0  0  0  0
  -21.4394  -27.2283   17.4714 C   0  0  0  0  0  0  0  0  0  0  0  0
  -29.9190  -23.7861   20.8881 C   0  0  0  0  0  0  0  0  0  0  0  0
  -28.7352  -25.9875   21.4838 C   0  0  0  0  0  0  0  0  0  1  0  0
  -20.8181  -29.6448   21.7853 C   0  0  1  0  0  0  0  0  0  0  0  0
  -19.4368  -27.5798   18.9222 C   0  0  2  0  0  0  0  0  0  0  0  0
  -19.9004  -30.0921   22.9579 C   0  0  0  0  0  0  0  0  0  0  0  0
  -25.9668  -11.8152   20.9510 N   0  0  0  0  0  0  0  0  0  0  0  0
  -26.2277  -12.3474   19.7449 N   0  0  0  0  0  0  0  0  0  0  0  0
  -23.0809  -30.5544   21.3656 N   0  0  0  0  0  0  0  0  0  0  0  0
  -29.8144  -13.5539   20.2583 N   0  0  0  0  0  0  0  0  0  0  0  0
  -25.2097  -13.0000   17.7081 N   0  0  0  0  0  0  0  0  0  0  0  0
  -21.7485  -11.4268   20.1457 N   0  0  0  0  0  0  0  0  0  0  0  0
  -29.5944  -15.7813   21.0015 N   0  0  0  0  0  0  0  0  0  0  0  0
  -25.1218  -33.4267   22.3043 N   0  0  0  0  0  0  0  0  0  0  0  0
  -20.0975  -29.1386   20.6222 N   0  0  0  0  0  0  0  0  0  0  0  0
  -20.1507  -26.6828   17.9701 N   0  3  0  0  0  0  0  0  0  0  0  0
  -22.3437  -12.3283   18.1229 O   0  0  0  0  0  0  0  0  0  0  0  0
  -23.8895  -31.8102   23.4404 O   0  0  0  0  0  0  0  0  0  0  0  0
  -28.0188  -23.8804   22.3876 O   0  0  0  0  0  0  0  0  0  0  0  0
  -21.1752  -31.7853   20.8276 O   0  0  0  0  0  0  0  0  0  0  0  0
  -21.0963  -27.0461   20.5950 O   0  0  0  0  0  0  0  0  0  0  0  0
  -31.5872  -15.0273   20.0841 O   0  0  0  0  0  0  0  0  0  0  0  0
  -22.0251   -9.3818   25.3203 O   0  0  0  0  0  0  0  0  0  0  0  0
  -27.6768  -26.5394   22.2659 O   0  0  0  0  0  0  0  0  0  1  0  0
  -18.3496   -5.3834   24.3676 F   0  0  0  0  0  0  0  0  0  0  0  0
  -22.3525   -6.8641   26.4143 F   0  0  0  0  0  0  0  0  0  0  0  0
  1  2  1  0  0  0  0
  1  6  2  0  0  0  0
  2  7  2  0  0  0  0
  3 10  2  0  0  0  0
  3 18  1  0  0  0  0
  4 11  1  0  0  0  0
  4 18  2  0  0  0  0
  5  9  2  0  0  0  0
  5 19  1  0  0  0  0
  6 21  1  0  0  0  0
  7 23  1  0  0  0  0
  8 12  2  0  0  0  0
  8 22  1  0  0  0  0
  9 26  1  0  0  0  0
 10 27  1  0  0  0  0
 11 27  2  0  0  0  0
 12 28  1  0  0  0  0
 13 14  2  0  0  0  0
 13 29  1  0  0  0  0
 14 30  1  0  0  0  0
 15 24  1  0  0  0  0
 15 28  2  0  0  0  0
 16 25  1  0  0  0  0
 16 26  2  0  0  0  0
 17 30  2  0  0  0  0
 17 31  1  0  0  0  0
 18 32  1  0  0  0  0
 19 25  2  0  0  0  0
 19 34  1  0  0  0  0
 20 32  1  0  0  0  0
 20 33  2  0  0  0  0
 20 36  1  0  0  0  0
 21 23  2  0  0  0  0
 21 42  1  0  0  0  0
 22 24  2  0  0  0  0
 22 43  1  0  0  0  0
 23 51  1  0  0  0  0
 24 44  1  0  0  0  0
 25 54  1  0  0  0  0
 26 71  1  0  0  0  0
 27 81  1  0  0  0  0
 28 82  1  0  0  0  0
 29 31  2  0  0  0  0
 29 81  1  0  0  0  0
 30 83  1  0  0  0  0
 31 84  1  0  0  0  0
 32 65  2  0  0  0  0
 33 66  1  0  0  0  0
 33 69  1  0  0  0  0
 34 35  2  0  0  0  0
 35 60  1  0  0  0  0
 36 70  1  0  0  0  0
 36 75  2  0  0  0  0
 37 52  1  0  0  0  0
 37 72  1  0  0  0  0
 37 76  2  0  0  0  0
 38 60  1  0  0  0  0
 38 61  1  0  0  0  0
 38 77  2  0  0  0  0
 39 62  1  0  0  0  0
 39 67  1  0  0  0  0
 39 78  2  0  0  0  0
 40 63  1  0  0  0  0
 40 73  1  0  0  0  0
 40 79  2  0  0  0  0
 41 68  1  0  0  0  0
 41 71  1  0  0  0  0
 41 80  2  0  0  0  0
 42 45  1  0  0  0  0
 43 52  1  0  0  0  0
 44 67  1  0  0  0  0
 45 47  1  0  0  0  0
 46 48  1  0  0  0  0
 46 49  1  0  0  0  0
 47 51  1  0  0  0  0
 48 53  1  0  0  0  0
 49 68  1  0  0  0  0
 50 53  1  0  0  0  0
 50 68  1  0  0  0  0
 51 72  1  0  0  0  0
 52 67  1  0  0  0  0
 53 66  1  0  0  0  0
 55 63  1  0  0  0  0
 56 64  1  0  0  0  0
 57 64  1  0  0  0  0
 58 64  1  0  0  0  0
 59 74  1  0  0  0  0
 61 82  1  0  0  0  0
 62 64  1  0  0  0  0
 62 73  1  0  0  0  0
 63 74  1  0  0  0  0
 65 66  1  0  0  0  0
M  CHG  1  74   1
M  ISO  4  41 100  61 101  71 100  82 101
M  END
> <Batch ID>
0122

> <Smiles>
CNC(C)C(=O)NC(C(=O)N1Cc2cc([101O:1][101CH2:1]C(=O)CC=Cc3ccc([100NH:0][100C:0](=O)N4CCCC(n5nc(-c6ccc(Oc7ccc(F)cc7F)cc6)c(C(N)=O)c5N)C4)cc3C)ccc2CC1C(=O)NC1CCCc2ccccc21)C(C)(C)C

> <Shape>
0.299

> <Color>
0.098

> <Negative vol penalty>
0.000

$$$$

  -OEChem-04052302003D

 85 94  0     1  0  0  0  0  0999 V2000
  -29.7898  -11.8072   20.1166 C   0  0  0  0  0  0  0  0  0  0  0  0
  -30.2432  -13.1171   19.9983 C   0  0  0  0  0  0  0  0  0  0  0  0
  -23.9185  -29.2482   22.8846 C   0  0  0  0  0  0  0  0  0  0  0  0
  -22.5233  -27.5945   21.8097 C   0  0  0  0  0  0  0  0  0  0  0  0
  -28.5048  -11.4743   19.6902 C   0  0  0  0  0  0  0  0  0  0  0  0
  -29.4121  -14.0947   19.4525 C   0  0  0  0  0  0  0  0  0  0  0  0
  -29.1314  -19.9997   21.0519 C   0  0  0  0  0  0  0  0  0  0  0  0
  -30.8188  -30.9199   17.0893 C   0  0  0  0  0  0  0  0  0  0  0  0
  -31.5869  -29.8164   17.4605 C   0  0  0  0  0  0  0  0  0  0  0  0
  -22.8743  -29.5646   23.7534 C   0  0  0  0  0  0  0  0  0  0  0  0
  -21.4790  -27.9108   22.6786 C   0  0  0  0  0  0  0  0  0  0  0  0
  -29.6941  -21.1491   20.4987 C   0  0  0  0  0  0  0  0  0  0  0  0
  -19.1424  -30.3349   22.9871 C   0  0  0  0  0  0  0  0  0  0  0  0
  -17.8689  -30.4909   22.4400 C   0  0  0  0  0  0  0  0  0  0  0  0
  -30.0548  -28.3575   16.2936 C   0  0  0  0  0  0  0  0  0  0  0  0
  -27.6454  -21.5656   19.2952 C   0  0  0  0  0  0  0  0  0  0  0  0
  -17.0515  -28.6917   23.8299 C   0  0  0  0  0  0  0  0  0  0  0  0
  -23.7430  -28.2632   21.9127 C   0  0  0  0  0  0  0  0  0  0  0  0
  -29.2867  -29.4611   15.9225 C   0  0  0  0  0  0  0  0  0  0  0  0
  -26.0982  -27.4543   21.3591 C   0  0  0  0  0  0  0  0  0  0  0  0
  -27.6540  -12.4504   19.1479 C   0  0  0  0  0  0  0  0  0  0  0  0
  -27.8230  -19.6181   20.7219 C   0  0  0  0  0  0  0  0  0  0  0  0
  -28.1150  -13.7744   19.0173 C   0  0  0  0  0  0  0  0  0  0  0  0
  -27.0675  -20.4123   19.8476 C   0  0  0  0  0  0  0  0  0  0  0  0
  -29.6687  -30.7423   16.3203 C   0  0  0  0  0  0  0  0  0  0  0  0
  -31.2049  -28.5352   17.0627 C   0  0  0  0  0  0  0  0  0  0  0  0
  -21.6545  -28.8959   23.6505 C   0  0  0  0  0  0  0  0  0  0  0  0
  -28.9521  -21.9307   19.6180 C   0  0  0  0  0  0  0  0  0  0  0  0
  -19.3705  -29.3573   23.9556 C   0  0  0  0  0  0  0  0  0  0  0  0
  -16.8234  -29.6693   22.8614 C   0  0  0  0  0  0  0  0  0  0  0  0
  -18.3251  -28.5357   24.3770 C   0  0  0  0  0  0  0  0  0  0  0  0
  -24.8212  -27.9363   21.0145 C   0  0  0  0  0  0  0  0  0  0  0  0
  -26.7442  -27.3030   20.1564 C   0  0  0  0  0  0  0  0  0  0  0  0
  -28.0811  -29.2460   15.1119 C   0  0  0  0  0  0  0  0  0  0  0  0
  -26.6510  -27.1687   22.6508 C   0  0  0  0  0  0  0  0  0  0  0  0
  -26.5130  -17.0915   19.3063 C   0  0  0  0  0  0  0  0  0  0  0  0
  -23.7388  -18.5514   20.1397 C   0  0  0  0  0  0  0  0  0  0  0  0
  -22.1134  -21.4438   20.9388 C   0  0  0  0  0  0  0  0  0  0  0  0
  -26.2903  -12.0331   18.6572 C   0  0  0  0  0  0  0  0  0  0  0  0
  -27.2212  -18.3899   21.3479 C   0  0  0  0  0  0  0  0  0  0  0  0
  -25.6516  -20.0571   19.4768 C   0  0  0  0  0  0  0  0  0  0  0  0
  -25.3378  -13.2053   18.4355 C   0  0  0  0  0  0  0  0  0  0  0  0
  -24.9913  -27.4847   15.4160 C   0  0  0  0  0  0  0  0  0  0  0  0
  -33.6562  -26.1167   18.4236 C   0  0  0  0  0  0  0  0  0  0  0  0
  -26.0361  -14.3226   17.6668 C   0  0  0  0  0  0  0  0  0  0  0  0
  -24.7637  -27.4210   16.9274 C   0  0  0  0  0  0  0  0  0  0  0  0
  -33.1362  -25.4160   17.1795 C   0  0  0  0  0  0  0  0  0  0  0  0
  -33.1846  -27.5559   18.2362 C   0  0  0  0  0  0  0  0  0  0  0  0
  -25.6531  -28.7961   15.0005 C   0  0  0  0  0  0  0  0  0  0  0  0
  -26.6827  -29.0410   17.2331 C   0  0  0  0  0  0  0  0  0  0  0  0
  -27.2342  -14.8681   18.4533 C   0  0  1  0  0  0  0  0  0  0  0  0
  -26.0599  -17.8164   20.5419 C   0  0  1  0  0  0  0  0  0  0  0  0
  -26.0636  -27.7133   17.7001 C   0  0  1  0  0  0  0  0  0  0  0  0
  -31.7675  -26.0713   16.9426 C   0  0  1  0  0  0  0  0  0  0  0  0
  -28.8646  -31.9415   15.9367 C   0  0  0  0  0  0  0  0  0  0  0  0
  -19.8408  -22.3268   21.5331 C   0  0  0  0  0  0  0  0  0  0  0  0
  -22.8941  -18.3386   17.2154 C   0  0  0  0  0  0  0  0  0  0  0  0
  -21.1119  -20.0348   17.6792 C   0  0  0  0  0  0  0  0  0  0  0  0
  -21.0809  -17.8397   18.8640 C   0  0  0  0  0  0  0  0  0  0  0  0
  -23.0465  -22.3954   23.5813 C   0  0  0  0  0  0  0  0  0  0  0  0
  -30.6646  -25.3683   17.7325 C   0  0  0  0  0  0  0  0  0  0  0  0
  -30.1750  -24.1137   17.0148 C   0  0  0  0  0  0  0  0  0  0  0  0
  -29.0455  -23.4348   17.7782 C   0  0  0  0  0  0  0  0  0  1  0  0
  -22.8244  -19.5608   19.4886 C   0  0  1  0  0  0  0  0  0  0  0  0
  -21.1565  -21.7828   22.0676 C   0  0  2  0  0  0  0  0  0  0  0  0
  -22.0051  -18.9494   18.3171 C   0  0  0  0  0  0  0  0  0  0  0  0
  -24.6635  -28.0818   19.6961 N   0  0  0  0  0  0  0  0  0  0  0  0
  -25.8498  -27.6890   19.2018 N   0  0  0  0  0  0  0  0  0  0  0  0
  -31.9664  -27.4423   17.4306 N   0  0  3  0  0  0  0  0  0  0  0  0
  -26.8711  -29.0293   15.7756 N   0  0  0  0  0  0  0  0  0  0  0  0
  -25.1098  -18.8435   20.1101 N   0  0  0  0  0  0  0  0  0  0  0  0
  -27.9843  -26.8790   19.8330 N   0  0  0  0  0  0  0  0  0  0  0  0
  -26.4929  -25.8784   23.1748 N   0  0  0  0  0  0  0  0  0  0  0  0
  -26.7861  -15.7520   19.5081 N   0  0  0  0  0  0  0  0  0  0  0  0
  -22.0080  -20.1224   20.5594 N   0  0  0  0  0  0  0  0  0  0  0  0
  -21.7584  -22.8077   22.9666 N   0  3  0  0  0  0  0  0  0  0  0  0
  -28.2366  -29.2621   13.8917 O   0  0  0  0  0  0  0  0  0  0  0  0
  -27.2528  -28.0366   23.3276 O   0  0  0  0  0  0  0  0  0  0  0  0
  -26.6065  -17.7019   18.2478 O   0  0  0  0  0  0  0  0  0  0  0  0
  -23.2539  -17.5444   20.6617 O   0  0  0  0  0  0  0  0  0  0  0  0
  -22.8753  -22.2697   20.4409 O   0  0  0  0  0  0  0  0  0  0  0  0
  -20.6353  -29.2042   24.4983 O   0  0  0  0  0  0  0  0  0  0  0  0
  -29.4992  -23.0527   19.0761 O   0  0  0  0  0  0  0  0  0  1  0  0
  -15.6001  -29.8202   22.3370 F   0  0  0  0  0  0  0  0  0  0  0  0
  -18.5378  -27.5955   25.3079 F   0  0  0  0  0  0  0  0  0  0  0  0
  1  2  1  0  0  0  0
  1  5  2  0  0  0  0
  2  6  2  0  0  0  0
  3 10  2  0  0  0  0
  3 18  1  0  0  0  0
  4 11  1  0  0  0  0
  4 18  2  0  0  0  0
  5 21  1  0  0  0  0
  6 23  1  0  0  0  0
  7 12  2  0  0  0  0
  7 22  1  0  0  0  0
  8  9  2  0  0  0  0
  8 25  1  0  0  0  0
  9 26  1  0  0  0  0
 10 27  1  0  0  0  0
 11 27  2  0  0  0  0
 12 28  1  0  0  0  0
 13 14  2  0  0  0  0
 13 29  1  0  0  0  0
 14 30  1  0  0  0  0
 15 19  1  0  0  0  0
 15 26  2  0  0  0  0
 16 24  1  0  0  0  0
 16 28  2  0  0  0  0
 17 30  2  0  0  0  0
 17 31  1  0  0  0  0
 18 32  1  0  0  0  0
 19 25  2  0  0  0  0
 19 34  1  0  0  0  0
 20 32  1  0  0  0  0
 20 33  2  0  0  0  0
 20 35  1  0  0  0  0
 21 23  2  0  0  0  0
 21 39  1  0  0  0  0
 22 24  2  0  0  0  0
 22 40  1  0  0  0  0
 23 51  1  0  0  0  0
 24 41  1  0  0  0  0
 25 55  1  0  0  0  0
 26 69  1  0  0  0  0
 27 82  1  0  0  0  0
 28 83  1  0  0  0  0
 29 31  2  0  0  0  0
 29 82  1  0  0  0  0
 30 84  1  0  0  0  0
 31 85  1  0  0  0  0
 32 67  2  0  0  0  0
 33 68  1  0  0  0  0
 33 72  1  0  0  0  0
 34 70  1  0  0  0  0
 34 77  2  0  0  0  0
 35 73  1  0  0  0  0
 35 78  2  0  0  0  0
 36 52  1  0  0  0  0
 36 74  1  0  0  0  0
 36 79  2  0  0  0  0
 37 64  1  0  0  0  0
 37 71  1  0  0  0  0
 37 80  2  0  0  0  0
 38 65  1  0  0  0  0
 38 75  1  0  0  0  0
 38 81  2  0  0  0  0
 39 42  1  0  0  0  0
 40 52  1  0  0  0  0
 41 71  1  0  0  0  0
 42 45  1  0  0  0  0
 43 46  1  0  0  0  0
 43 49  1  0  0  0  0
 44 47  1  0  0  0  0
 44 48  1  0  0  0  0
 45 51  1  0  0  0  0
 46 53  1  0  0  0  0
 47 54  1  0  0  0  0
 48 69  1  0  0  0  0
 49 70  1  0  0  0  0
 50 53  1  0  0  0  0
 50 70  1  0  0  0  0
 51 74  1  0  0  0  0
 52 71  1  0  0  0  0
 53 68  1  0  0  0  0
 54 61  1  0  0  0  0
 54 69  1  0  0  0  0
 56 65  1  0  0  0  0
 57 66  1  0  0  0  0
 58 66  1  0  0  0  0
 59 66  1  0  0  0  0
 60 76  1  0  0  0  0
 61 62  1  0  0  0  0
 62 63  1  0  0  0  0
 63 83  1  0  0  0  0
 64 66  1  0  0  0  0
 64 75  1  0  0  0  0
 65 76  1  0  0  0  0
 67 68  1  0  0  0  0
M  CHG  1  76   1
M  ISO  4  19 100  34 100  63 101  83 101
M  END
> <Batch ID>
0122

> <Smiles>
CNC(C)C(=O)NC(C(=O)N1Cc2cc([101O:1][101CH2:1]CCC3CCCN3c3ccc(C)[100c:0]([100C:0](=O)N4CCCC(n5nc(-c6ccc(Oc7ccc(F)cc7F)cc6)c(C(N)=O)c5N)C4)c3)ccc2CC1C(=O)NC1CCCc2ccccc21)C(C)(C)C

> <Shape>
0.183

> <Color>
0.082

> <Negative vol penalty>
0.000

$$$$

  -OEChem-04052302003D

 86 94  0     1  0  0  0  0  0999 V2000
  -26.5546  -28.6261   12.4891 C   0  0  0  0  0  0  0  0  0  0  0  0
  -26.4397  -27.7719   13.5811 C   0  0  0  0  0  0  0  0  0  0  0  0
  -22.9970   -9.9499   19.9245 C   0  0  0  0  0  0  0  0  0  0  0  0
  -23.8761   -9.8037   22.1701 C   0  0  0  0  0  0  0  0  0  0  0  0
  -27.2546  -29.8254   12.6142 C   0  0  0  0  0  0  0  0  0  0  0  0
  -27.0259  -28.1160   14.7987 C   0  0  0  0  0  0  0  0  0  0  0  0
  -23.9498  -27.2942   18.7366 C   0  0  0  0  0  0  0  0  0  0  0  0
  -22.2373   -8.8015   20.1471 C   0  0  0  0  0  0  0  0  0  0  0  0
  -23.1163   -8.6553   22.3928 C   0  0  0  0  0  0  0  0  0  0  0  0
  -23.8197  -25.9786   19.1793 C   0  0  0  0  0  0  0  0  0  0  0  0
  -19.9044   -7.8983   23.1213 C   0  0  0  0  0  0  0  0  0  0  0  0
  -19.2091   -7.8068   24.3271 C   0  0  0  0  0  0  0  0  0  0  0  0
  -29.8884  -17.2455   20.0917 C   0  0  0  0  0  0  0  0  0  0  0  0
  -25.3775  -26.4317   20.9646 C   0  0  0  0  0  0  0  0  0  0  0  0
  -27.8790  -18.2785   21.7282 C   0  0  0  0  0  0  0  0  0  0  0  0
  -20.4361   -5.8010   24.8824 C   0  0  0  0  0  0  0  0  0  0  0  0
  -23.8165  -10.4510   20.9359 C   0  0  0  0  0  0  0  0  0  0  0  0
  -29.5673  -16.6069   21.2894 C   0  0  0  0  0  0  0  0  0  0  0  0
  -24.2178  -12.9702   20.9437 C   0  0  0  0  0  0  0  0  0  0  0  0
  -27.8413  -30.1889   13.8366 C   0  0  0  0  0  0  0  0  0  0  0  0
  -24.8044  -28.1870   19.3992 C   0  0  0  0  0  0  0  0  0  0  0  0
  -27.7355  -29.3207   14.9399 C   0  0  0  0  0  0  0  0  0  0  0  0
  -25.5147  -27.7588   20.5298 C   0  0  0  0  0  0  0  0  0  0  0  0
  -28.5626  -17.1233   22.1077 C   0  0  0  0  0  0  0  0  0  0  0  0
  -22.2969   -8.1542   21.3813 C   0  0  0  0  0  0  0  0  0  0  0  0
  -24.5359  -25.5463   20.2917 C   0  0  0  0  0  0  0  0  0  0  0  0
  -20.8655   -6.9411   22.7961 C   0  0  0  0  0  0  0  0  0  0  0  0
  -28.2002  -18.9172   20.5304 C   0  0  0  0  0  0  0  0  0  0  0  0
  -19.4750   -6.7582   25.2076 C   0  0  0  0  0  0  0  0  0  0  0  0
  -29.2049  -18.4007   19.7122 C   0  0  0  0  0  0  0  0  0  0  0  0
  -21.1313   -5.8925   23.6766 C   0  0  0  0  0  0  0  0  0  0  0  0
  -24.6020  -11.6369   20.7063 C   0  0  0  0  0  0  0  0  0  0  0  0
  -25.3087  -13.7143   20.5660 C   0  0  0  0  0  0  0  0  0  0  0  0
  -24.6659  -21.9594   20.2065 C   0  0  0  0  0  0  0  0  0  0  0  0
  -25.5840  -21.2536   19.5302 C   0  0  0  0  0  0  0  0  0  0  0  0
  -30.2987  -15.4035   21.6623 C   0  0  0  0  0  0  0  0  0  0  0  0
  -22.9850  -13.4896   21.4596 C   0  0  0  0  0  0  0  0  0  0  0  0
  -30.8483  -14.4882   20.6360 C   0  0  0  0  0  0  0  0  0  0  0  0
  -27.4016  -29.8285   18.5846 C   0  0  0  0  0  0  0  0  0  0  0  0
  -27.0366  -31.1198   21.5378 C   0  0  0  0  0  0  0  0  0  0  0  0
  -25.7943  -30.8114   24.7014 C   0  0  0  0  0  0  0  0  0  0  0  0
  -28.6284  -31.4733   13.9104 C   0  0  0  0  0  0  0  0  0  0  0  0
  -24.9132  -29.6103   18.9252 C   0  0  0  0  0  0  0  0  0  0  0  0
  -26.4300  -28.6836   21.2885 C   0  0  0  0  0  0  0  0  0  0  0  0
  -28.9008  -31.9395   15.3383 C   0  0  0  0  0  0  0  0  0  0  0  0
  -29.4885  -12.4083   18.0511 C   0  0  0  0  0  0  0  0  0  0  0  0
  -29.3939  -30.7773   16.1944 C   0  0  0  0  0  0  0  0  0  0  0  0
  -28.0776  -12.1004   18.5514 C   0  0  0  0  0  0  0  0  0  0  0  0
  -30.4790  -12.5167   19.2059 C   0  0  0  0  0  0  0  0  0  0  0  0
  -28.6690  -13.2082   20.7533 C   0  0  0  0  0  0  0  0  0  0  0  0
  -28.3363  -29.6705   16.2841 C   0  0  1  0  0  0  0  0  0  0  0  0
  -26.2052  -30.2903   19.3675 C   0  0  1  0  0  0  0  0  0  0  0  0
  -27.6352  -13.1187   19.6172 C   0  0  2  0  0  0  0  0  0  0  0  0
  -28.7715  -17.1937   24.6053 C   0  0  0  0  0  0  0  0  0  0  0  0
  -25.6886  -32.0128   26.9020 C   0  0  0  0  0  0  0  0  0  0  0  0
  -29.9325  -30.3403   22.0997 C   0  0  0  0  0  0  0  0  0  0  0  0
  -29.4780  -30.6811   24.5380 C   0  0  0  0  0  0  0  0  0  0  0  0
  -29.2752  -32.5971   22.9536 C   0  0  0  0  0  0  0  0  0  0  0  0
  -22.8395  -30.9544   24.6132 C   0  0  0  0  0  0  0  0  0  0  0  0
  -28.2000  -16.4597   23.3961 C   0  0  0  0  0  0  0  0  0  0  0  0
  -24.1202  -23.2701   19.7423 C   0  0  0  0  0  0  0  0  0  1  0  0
  -26.1214  -19.9372   19.9883 C   0  0  0  0  0  0  0  0  0  0  0  0
  -27.5244  -30.7735   22.9238 C   0  0  1  0  0  0  0  0  0  0  0  0
  -24.9983  -31.7697   25.5689 C   0  0  2  0  0  0  0  0  0  0  0  0
  -29.0368  -31.0798   23.1136 C   0  0  0  0  0  0  0  0  0  0  0  0
  -25.8403  -11.5366   20.2156 N   0  0  0  0  0  0  0  0  0  0  0  0
  -30.5182  -15.0559   22.9003 N   0  0  0  0  0  0  0  0  0  0  0  0
  -26.2435  -12.8165   20.1416 N   0  0  0  0  0  0  0  0  0  0  0  0
  -30.0115  -13.4637   20.2162 N   0  0  0  0  0  0  0  0  0  0  0  0
  -26.5074  -30.0639   20.7823 N   0  0  0  0  0  0  0  0  0  0  0  0
  -25.5499  -15.0426   20.5588 N   0  0  0  0  0  0  0  0  0  0  0  0
  -21.9687  -12.5858   21.7979 N   0  0  0  0  0  0  0  0  0  0  0  0
  -27.2980  -30.0385   17.2227 N   0  0  0  0  0  0  0  0  0  0  0  0
  -26.6502  -31.4813   23.8529 N   0  0  0  0  0  0  0  0  0  0  0  0
  -23.6395  -31.2193   25.8366 N   0  3  0  0  0  0  0  0  0  0  0  0
  -22.7845  -14.7199   21.6006 O   0  0  0  0  0  0  0  0  0  0  0  0
  -31.9888  -14.7346   20.2660 O   0  0  0  0  0  0  0  0  0  0  0  0
  -28.3493  -29.3208   19.1726 O   0  0  0  0  0  0  0  0  0  0  0  0
  -27.1154  -32.2858   21.1428 O   0  0  0  0  0  0  0  0  0  0  0  0
  -25.6718  -29.5905   24.7721 O   0  0  0  0  0  0  0  0  0  0  0  0
  -21.5554   -7.0338   21.5990 O   0  0  0  0  0  0  0  0  0  0  0  0
  -24.4113  -24.2625   20.7255 O   0  0  0  0  0  0  0  0  0  1  0  0
  -27.5271  -20.0522   20.1590 O   0  0  0  0  0  0  0  0  0  0  0  0
  -18.8083   -6.6713   26.3661 F   0  0  0  0  0  0  0  0  0  0  0  0
  -29.5191  -19.0109   18.5611 F   0  0  0  0  0  0  0  0  0  0  0  0
  -22.0544   -4.9706   23.3701 F   0  0  0  0  0  0  0  0  0  0  0  0
  1  2  1  0  0  0  0
  1  5  2  0  0  0  0
  2  6  2  0  0  0  0
  3  8  2  0  0  0  0
  3 17  1  0  0  0  0
  4  9  1  0  0  0  0
  4 17  2  0  0  0  0
  5 20  1  0  0  0  0
  6 22  1  0  0  0  0
  7 10  2  0  0  0  0
  7 21  1  0  0  0  0
  8 25  1  0  0  0  0
  9 25  2  0  0  0  0
 10 26  1  0  0  0  0
 11 12  2  0  0  0  0
 11 27  1  0  0  0  0
 12 29  1  0  0  0  0
 13 18  1  0  0  0  0
 13 30  2  0  0  0  0
 14 23  1  0  0  0  0
 14 26  2  0  0  0  0
 15 24  1  0  0  0  0
 15 28  2  0  0  0  0
 16 29  2  0  0  0  0
 16 31  1  0  0  0  0
 17 32  1  0  0  0  0
 18 24  2  0  0  0  0
 18 36  1  0  0  0  0
 19 32  1  0  0  0  0
 19 33  2  0  0  0  0
 19 37  1  0  0  0  0
 20 22  2  0  0  0  0
 20 42  1  0  0  0  0
 21 23  2  0  0  0  0
 21 43  1  0  0  0  0
 22 51  1  0  0  0  0
 23 44  1  0  0  0  0
 24 60  1  0  0  0  0
 25 81  1  0  0  0  0
 26 82  1  0  0  0  0
 27 31  2  0  0  0  0
 27 81  1  0  0  0  0
 28 30  1  0  0  0  0
 28 83  1  0  0  0  0
 29 84  1  0  0  0  0
 30 85  1  0  0  0  0
 31 86  1  0  0  0  0
 32 66  2  0  0  0  0
 33 68  1  0  0  0  0
 33 71  1  0  0  0  0
 34 35  2  0  0  0  0
 34 61  1  0  0  0  0
 35 62  1  0  0  0  0
 36 38  1  0  0  0  0
 36 67  2  0  0  0  0
 37 72  1  0  0  0  0
 37 76  2  0  0  0  0
 38 69  1  0  0  0  0
 38 77  2  0  0  0  0
 39 52  1  0  0  0  0
 39 73  1  0  0  0  0
 39 78  2  0  0  0  0
 40 63  1  0  0  0  0
 40 70  1  0  0  0  0
 40 79  2  0  0  0  0
 41 64  1  0  0  0  0
 41 74  1  0  0  0  0
 41 80  2  0  0  0  0
 42 45  1  0  0  0  0
 43 52  1  0  0  0  0
 44 70  1  0  0  0  0
 45 47  1  0  0  0  0
 46 48  1  0  0  0  0
 46 49  1  0  0  0  0
 47 51  1  0  0  0  0
 48 53  1  0  0  0  0
 49 69  1  0  0  0  0
 50 53  1  0  0  0  0
 50 69  1  0  0  0  0
 51 73  1  0  0  0  0
 52 70  1  0  0  0  0
 53 68  1  0  0  0  0
 54 60  1  0  0  0  0
 55 64  1  0  0  0  0
 56 65  1  0  0  0  0
 57 65  1  0  0  0  0
 58 65  1  0  0  0  0
 59 75  1  0  0  0  0
 61 82  1  0  0  0  0
 62 83  1  0  0  0  0
 63 65  1  0  0  0  0
 63 74  1  0  0  0  0
 64 75  1  0  0  0  0
 66 68  1  0  0  0  0
M  CHG  1  75   1
M  ISO  4  36 100  38 100  61 101  82 101
M  END
> <Batch ID>
0122

> <Smiles>
CCc1cc(OCC=C[101CH2:1][101O:1]c2ccc3c(c2)CN(C(=O)C(NC(=O)C(C)NC)C(C)(C)C)C(C(=O)NC2CCCc4ccccc42)C3)c(F)cc1[100C:0](=N)[100C:0](=O)N1CCCC(n2nc(-c3ccc(Oc4ccc(F)cc4F)cc3)c(C(N)=O)c2N)C1

> <Shape>
0.308

> <Color>
0.195

> <Negative vol penalty>
0.000

$$$$

  -OEChem-04052302003D

 86 94  0     1  0  0  0  0  0999 V2000
  -37.3738  -21.0338   25.6432 C   0  0  0  0  0  0  0  0  0  0  0  0
  -36.5395  -21.1868   24.5405 C   0  0  0  0  0  0  0  0  0  0  0  0
  -23.0059   -9.8888   19.9791 C   0  0  0  0  0  0  0  0  0  0  0  0
  -23.7291   -9.9417   22.2837 C   0  0  0  0  0  0  0  0  0  0  0  0
  -37.0288  -21.6148   26.8628 C   0  0  0  0  0  0  0  0  0  0  0  0
  -35.3592  -21.9201   24.6570 C   0  0  0  0  0  0  0  0  0  0  0  0
  -34.6530  -25.0944   20.7750 C   0  0  0  0  0  0  0  0  0  0  0  0
  -22.2416   -8.7527   20.2450 C   0  0  0  0  0  0  0  0  0  0  0  0
  -22.9648   -8.8056   22.5497 C   0  0  0  0  0  0  0  0  0  0  0  0
  -34.1861  -24.5463   19.5811 C   0  0  0  0  0  0  0  0  0  0  0  0
  -23.2167   -5.4671   22.0785 C   0  0  0  0  0  0  0  0  0  0  0  0
  -23.8058   -4.4514   22.8313 C   0  0  0  0  0  0  0  0  0  0  0  0
  -31.1857  -17.6005   20.5687 C   0  0  0  0  0  0  0  0  0  0  0  0
  -31.9560  -25.2935   20.1172 C   0  0  0  0  0  0  0  0  0  0  0  0
  -29.7365  -19.2694   22.2709 C   0  0  0  0  0  0  0  0  0  0  0  0
  -22.0801   -4.6909   24.5051 C   0  0  0  0  0  0  0  0  0  0  0  0
  -23.7497  -10.4833   20.9984 C   0  0  0  0  0  0  0  0  0  0  0  0
  -31.3875  -18.9801   20.5308 C   0  0  0  0  0  0  0  0  0  0  0  0
  -24.1298  -12.9997   20.8223 C   0  0  0  0  0  0  0  0  0  0  0  0
  -35.8485  -22.3637   26.9918 C   0  0  0  0  0  0  0  0  0  0  0  0
  -33.7714  -25.7377   21.6556 C   0  0  0  0  0  0  0  0  0  0  0  0
  -34.9975  -22.5106   25.8798 C   0  0  0  0  0  0  0  0  0  0  0  0
  -32.4146  -25.8512   21.3204 C   0  0  0  0  0  0  0  0  0  0  0  0
  -30.6629  -19.8146   21.3819 C   0  0  0  0  0  0  0  0  0  0  0  0
  -29.5346  -17.8897   22.3087 C   0  0  0  0  0  0  0  0  0  0  0  0
  -30.2592  -17.0553   21.4576 C   0  0  0  0  0  0  0  0  0  0  0  0
  -22.2210   -8.2111   21.5303 C   0  0  0  0  0  0  0  0  0  0  0  0
  -32.8370  -24.6432   19.2534 C   0  0  0  0  0  0  0  0  0  0  0  0
  -22.0593   -6.0949   22.5391 C   0  0  0  0  0  0  0  0  0  0  0  0
  -23.2375   -4.0632   24.0446 C   0  0  0  0  0  0  0  0  0  0  0  0
  -21.4910   -5.7067   23.7524 C   0  0  0  0  0  0  0  0  0  0  0  0
  -24.5399  -11.6565   20.7242 C   0  0  0  0  0  0  0  0  0  0  0  0
  -25.2383  -13.7246   20.4586 C   0  0  0  0  0  0  0  0  0  0  0  0
  -32.3715  -19.5254   19.5814 C   0  0  0  0  0  0  0  0  0  0  0  0
  -32.3273  -19.3693   18.2491 C   0  0  0  0  0  0  0  0  0  0  0  0
  -22.8603  -13.5434   21.2077 C   0  0  0  0  0  0  0  0  0  0  0  0
  -32.8273  -25.2361   24.6490 C   0  0  0  0  0  0  0  0  0  0  0  0
  -31.3050  -28.0699   24.2315 C   0  0  0  0  0  0  0  0  0  0  0  0
  -29.9442  -30.3374   22.0743 C   0  0  0  0  0  0  0  0  0  0  0  0
  -30.7155  -14.6975   20.6967 C   0  0  0  0  0  0  0  0  0  0  0  0
  -35.4941  -22.9333   28.3426 C   0  0  0  0  0  0  0  0  0  0  0  0
  -34.2956  -26.3472   22.9269 C   0  0  0  0  0  0  0  0  0  0  0  0
  -31.4308  -26.5496   22.2219 C   0  0  0  0  0  0  0  0  0  0  0  0
  -34.4129  -24.0094   28.2853 C   0  0  0  0  0  0  0  0  0  0  0  0
  -29.6043  -12.2418   18.3703 C   0  0  0  0  0  0  0  0  0  0  0  0
  -33.2550  -23.5562   27.4017 C   0  0  0  0  0  0  0  0  0  0  0  0
  -28.1539  -11.9811   18.7834 C   0  0  0  0  0  0  0  0  0  0  0  0
  -30.5033  -12.4873   19.5808 C   0  0  0  0  0  0  0  0  0  0  0  0
  -28.5852  -13.2723   20.9127 C   0  0  0  0  0  0  0  0  0  0  0  0
  -33.7211  -23.3195   25.9601 C   0  0  1  0  0  0  0  0  0  0  0  0
  -33.2176  -26.5293   23.9910 C   0  0  1  0  0  0  0  0  0  0  0  0
  -27.6289  -13.0837   19.7238 C   0  0  2  0  0  0  0  0  0  0  0  0
  -28.5364  -17.3331   23.2713 C   0  0  0  0  0  0  0  0  0  0  0  0
  -29.7234  -22.0169   20.6380 C   0  0  0  0  0  0  0  0  0  0  0  0
  -28.7394  -32.5383   22.0314 C   0  0  0  0  0  0  0  0  0  0  0  0
  -28.7387  -26.6797   25.1213 C   0  0  0  0  0  0  0  0  0  0  0  0
  -27.4490  -28.6010   24.1655 C   0  0  0  0  0  0  0  0  0  0  0  0
  -29.0490  -28.9848   26.0404 C   0  0  0  0  0  0  0  0  0  0  0  0
  -32.1035  -31.6207   20.5093 C   0  0  0  0  0  0  0  0  0  0  0  0
  -30.8527  -21.2975   21.3681 C   0  0  0  0  0  0  0  0  0  0  0  0
  -33.3592  -19.9372   17.3156 C   0  0  0  0  0  0  0  0  0  0  0  0
  -32.7549  -20.8495   16.2435 C   0  0  0  0  0  0  0  0  0  0  0  0
  -32.0765  -22.0904   16.8259 C   0  0  0  0  0  0  0  0  0  0  0  0
  -33.0659  -22.9642   17.5848 C   0  0  0  0  0  0  0  0  0  1  0  0
  -29.9445  -28.4888   23.7287 C   0  0  1  0  0  0  0  0  0  0  0  0
  -30.0915  -31.8448   21.9723 C   0  0  2  0  0  0  0  0  0  0  0  0
  -28.8133  -28.1736   24.7477 C   0  0  0  0  0  0  0  0  0  0  0  0
  -25.8097  -11.5327   20.3291 N   0  0  0  0  0  0  0  0  0  0  0  0
  -26.2071  -12.8073   20.1755 N   0  0  0  0  0  0  0  0  0  0  0  0
  -31.9907  -27.1237   23.4566 N   0  0  0  0  0  0  0  0  0  0  0  0
  -29.9454  -13.5472   20.4235 N   0  0  0  0  0  0  0  0  0  0  0  0
  -25.4690  -15.0508   20.3565 N   0  0  0  0  0  0  0  0  0  0  0  0
  -21.8302  -12.6571   21.5506 N   0  0  0  0  0  0  0  0  0  0  0  0
  -30.0685  -15.6514   21.4816 N   0  0  0  0  0  0  0  0  0  0  0  0
  -33.8755  -24.5797   25.2655 N   0  0  0  0  0  0  0  0  0  0  0  0
  -30.0561  -29.9003   23.3773 N   0  0  0  0  0  0  0  0  0  0  0  0
  -30.7539  -32.2149   20.6897 N   0  3  0  0  0  0  0  0  0  0  0  0
  -22.6410  -14.7783   21.2311 O   0  0  0  0  0  0  0  0  0  0  0  0
  -31.6612  -24.8622   24.6023 O   0  0  0  0  0  0  0  0  0  0  0  0
  -31.7461  -28.5693   25.2696 O   0  0  0  0  0  0  0  0  0  0  0  0
  -29.7456  -29.6199   21.0965 O   0  0  0  0  0  0  0  0  0  0  0  0
  -31.8542  -14.8388   20.2436 O   0  0  0  0  0  0  0  0  0  0  0  0
  -21.4751   -7.1027   21.7902 O   0  0  0  0  0  0  0  0  0  0  0  0
  -32.3785  -24.1085   18.0890 O   0  0  0  0  0  0  0  0  0  1  0  0
  -23.8025   -3.0866   24.7666 F   0  0  0  0  0  0  0  0  0  0  0  0
  -20.3784   -6.3053   24.1994 F   0  0  0  0  0  0  0  0  0  0  0  0
  1  2  1  0  0  0  0
  1  5  2  0  0  0  0
  2  6  2  0  0  0  0
  3  8  2  0  0  0  0
  3 17  1  0  0  0  0
  4  9  1  0  0  0  0
  4 17  2  0  0  0  0
  5 20  1  0  0  0  0
  6 22  1  0  0  0  0
  7 10  2  0  0  0  0
  7 21  1  0  0  0  0
  8 27  1  0  0  0  0
  9 27  2  0  0  0  0
 10 28  1  0  0  0  0
 11 12  2  0  0  0  0
 11 29  1  0  0  0  0
 12 30  1  0  0  0  0
 13 18  1  0  0  0  0
 13 26  2  0  0  0  0
 14 23  1  0  0  0  0
 14 28  2  0  0  0  0
 15 24  1  0  0  0  0
 15 25  2  0  0  0  0
 16 30  2  0  0  0  0
 16 31  1  0  0  0  0
 17 32  1  0  0  0  0
 18 24  2  0  0  0  0
 18 34  1  0  0  0  0
 19 32  1  0  0  0  0
 19 33  2  0  0  0  0
 19 36  1  0  0  0  0
 20 22  2  0  0  0  0
 20 41  1  0  0  0  0
 21 23  2  0  0  0  0
 21 42  1  0  0  0  0
 22 50  1  0  0  0  0
 23 43  1  0  0  0  0
 24 60  1  0  0  0  0
 25 26  1  0  0  0  0
 25 53  1  0  0  0  0
 26 74  1  0  0  0  0
 27 83  1  0  0  0  0
 28 84  1  0  0  0  0
 29 31  2  0  0  0  0
 29 83  1  0  0  0  0
 30 85  1  0  0  0  0
 31 86  1  0  0  0  0
 32 68  2  0  0  0  0
 33 69  1  0  0  0  0
 33 72  1  0  0  0  0
 34 35  2  0  0  0  0
 35 61  1  0  0  0  0
 36 73  1  0  0  0  0
 36 78  2  0  0  0  0
 37 51  1  0  0  0  0
 37 75  1  0  0  0  0
 37 79  2  0  0  0  0
 38 65  1  0  0  0  0
 38 70  1  0  0  0  0
 38 80  2  0  0  0  0
 39 66  1  0  0  0  0
 39 76  1  0  0  0  0
 39 81  2  0  0  0  0
 40 71  1  0  0  0  0
 40 74  1  0  0  0  0
 40 82  2  0  0  0  0
 41 44  1  0  0  0  0
 42 51  1  0  0  0  0
 43 70  1  0  0  0  0
 44 46  1  0  0  0  0
 45 47  1  0  0  0  0
 45 48  1  0  0  0  0
 46 50  1  0  0  0  0
 47 52  1  0  0  0  0
 48 71  1  0  0  0  0
 49 52  1  0  0  0  0
 49 71  1  0  0  0  0
 50 75  1  0  0  0  0
 51 70  1  0  0  0  0
 52 69  1  0  0  0  0
 54 60  1  0  0  0  0
 55 66  1  0  0  0  0
 56 67  1  0  0  0  0
 57 67  1  0  0  0  0
 58 67  1  0  0  0  0
 59 77  1  0  0  0  0
 61 62  1  0  0  0  0
 62 63  1  0  0  0  0
 63 64  1  0  0  0  0
 64 84  1  0  0  0  0
 65 67  1  0  0  0  0
 65 76  1  0  0  0  0
 66 77  1  0  0  0  0
 68 69  1  0  0  0  0
M  CHG  1  77   1
M  ISO  4  40 100  64 101  74 100  84 101
M  END
> <Batch ID>
0122

> <Smiles>
CCc1cc(C)c([100NH:0][100C:0](=O)N2CCCC(n3nc(-c4ccc(Oc5ccc(F)cc5F)cc4)c(C(N)=O)c3N)C2)cc1C=CCCC[101CH2:1][101O:1]c1ccc2c(c1)CN(C(=O)C(NC(=O)C(C)NC)C(C)(C)C)C(C(=O)NC1CCCc3ccccc31)C2

> <Shape>
0.207

> <Color>
0.198

> <Negative vol penalty>
0.000

$$$$

  -OEChem-04052302003D

 83 91  0     1  0  0  0  0  0999 V2000
  -25.8053  -35.0774   20.0710 C   0  0  0  0  0  0  0  0  0  0  0  0
  -26.3321  -33.8176   20.3370 C   0  0  0  0  0  0  0  0  0  0  0  0
  -23.0851   -9.8475   19.9600 C   0  0  0  0  0  0  0  0  0  0  0  0
  -23.8691   -9.8795   22.2451 C   0  0  0  0  0  0  0  0  0  0  0  0
  -24.6017  -35.4664   20.6574 C   0  0  0  0  0  0  0  0  0  0  0  0
  -25.6561  -32.9464   21.1906 C   0  0  0  0  0  0  0  0  0  0  0  0
  -25.3693  -26.8448   20.7503 C   0  0  0  0  0  0  0  0  0  0  0  0
  -22.3390   -8.7008   20.2320 C   0  0  0  0  0  0  0  0  0  0  0  0
  -23.1230   -8.7328   22.5171 C   0  0  0  0  0  0  0  0  0  0  0  0
  -26.0729  -25.8242   21.3883 C   0  0  0  0  0  0  0  0  0  0  0  0
  -19.8980   -7.9566   23.1632 C   0  0  0  0  0  0  0  0  0  0  0  0
  -19.1532   -7.9345   24.3424 C   0  0  0  0  0  0  0  0  0  0  0  0
  -24.2900  -25.6100   22.9990 C   0  0  0  0  0  0  0  0  0  0  0  0
  -28.8367  -17.7183   21.8460 C   0  0  0  0  0  0  0  0  0  0  0  0
  -20.3941   -6.0009   25.0898 C   0  0  0  0  0  0  0  0  0  0  0  0
  -23.8502  -10.4368   20.9665 C   0  0  0  0  0  0  0  0  0  0  0  0
  -24.2015  -12.9588   20.8116 C   0  0  0  0  0  0  0  0  0  0  0  0
  -23.9057  -34.5959   21.5110 C   0  0  0  0  0  0  0  0  0  0  0  0
  -24.1235  -27.2638   21.2391 C   0  0  0  0  0  0  0  0  0  0  0  0
  -24.4427  -33.3247   21.7900 C   0  0  0  0  0  0  0  0  0  0  0  0
  -23.5713  -26.6344   22.3639 C   0  0  0  0  0  0  0  0  0  0  0  0
  -22.3579   -8.1434   21.5106 C   0  0  0  0  0  0  0  0  0  0  0  0
  -25.5347  -25.2086   22.5145 C   0  0  0  0  0  0  0  0  0  0  0  0
  -20.8907   -7.0008   22.9473 C   0  0  0  0  0  0  0  0  0  0  0  0
  -28.2857  -18.5786   20.8664 C   0  0  0  0  0  0  0  0  0  0  0  0
  -19.4012   -6.9566   25.3057 C   0  0  0  0  0  0  0  0  0  0  0  0
  -21.1388   -6.0230   23.9106 C   0  0  0  0  0  0  0  0  0  0  0  0
  -24.6216  -11.6210   20.6860 C   0  0  0  0  0  0  0  0  0  0  0  0
  -29.4714  -16.7114   21.1567 C   0  0  0  0  0  0  0  0  0  0  0  0
  -28.6232  -18.0361   19.6483 C   0  0  0  0  0  0  0  0  0  0  0  0
  -25.2929  -13.6989   20.4277 C   0  0  0  0  0  0  0  0  0  0  0  0
  -22.9376  -13.4853   21.2374 C   0  0  0  0  0  0  0  0  0  0  0  0
  -30.1970  -15.5731   21.6080 C   0  0  0  0  0  0  0  0  0  0  0  0
  -30.8082  -14.6005   20.6732 C   0  0  0  0  0  0  0  0  0  0  0  0
  -22.9691  -29.9907   22.3947 C   0  0  0  0  0  0  0  0  0  0  0  0
  -20.1614  -28.3666   22.3542 C   0  0  0  0  0  0  0  0  0  0  0  0
  -18.5552  -25.3557   22.3938 C   0  0  0  0  0  0  0  0  0  0  0  0
  -22.6321  -35.0787   22.1588 C   0  0  0  0  0  0  0  0  0  0  0  0
  -23.3649  -28.3478   20.5237 C   0  0  0  0  0  0  0  0  0  0  0  0
  -22.2282  -27.0334   22.9164 C   0  0  0  0  0  0  0  0  0  0  0  0
  -21.7886  -33.9552   22.7559 C   0  0  0  0  0  0  0  0  0  0  0  0
  -29.6021  -12.3138   18.1886 C   0  0  0  0  0  0  0  0  0  0  0  0
  -22.6622  -33.0076   23.5718 C   0  0  0  0  0  0  0  0  0  0  0  0
  -28.1772  -12.0102   18.6503 C   0  0  0  0  0  0  0  0  0  0  0  0
  -30.5396  -12.5255   19.3730 C   0  0  0  0  0  0  0  0  0  0  0  0
  -28.6513  -13.2831   20.7904 C   0  0  0  0  0  0  0  0  0  0  0  0
  -23.7264  -32.3421   22.6910 C   0  0  1  0  0  0  0  0  0  0  0  0
  -22.3388  -29.0449   21.4118 C   0  0  1  0  0  0  0  0  0  0  0  0
  -27.6694  -13.0906   19.6215 C   0  0  2  0  0  0  0  0  0  0  0  0
  -28.3619  -18.4364   18.2579 C   0  0  0  0  0  0  0  0  0  0  0  0
  -16.2564  -24.3492   22.3902 C   0  0  0  0  0  0  0  0  0  0  0  0
  -19.8369  -29.1031   25.2973 C   0  0  0  0  0  0  0  0  0  0  0  0
  -18.0807  -27.3277   25.4760 C   0  0  0  0  0  0  0  0  0  0  0  0
  -17.7404  -29.2666   23.9438 C   0  0  0  0  0  0  0  0  0  0  0  0
  -19.0502  -23.9461   19.8391 C   0  0  0  0  0  0  0  0  0  0  0  0
  -26.2097  -21.8922   23.8071 C   0  0  0  0  0  0  0  0  0  0  0  0
  -26.5197  -21.4174   22.3918 C   0  0  0  0  0  0  0  0  0  0  0  0
  -25.4490  -23.2116   23.8030 C   0  0  0  0  0  0  0  0  0  1  0  0
  -27.3172  -20.1209   22.3958 C   0  0  0  0  0  0  0  0  0  0  0  0
  -19.4235  -27.4825   23.3304 C   0  0  1  0  0  0  0  0  0  0  0  0
  -17.4308  -24.8025   21.5370 C   0  0  2  0  0  0  0  0  0  0  0  0
  -18.7966  -28.2885   24.5029 C   0  0  0  0  0  0  0  0  0  0  0  0
  -25.8815  -11.5145   20.2558 N   0  0  0  0  0  0  0  0  0  0  0  0
  -30.3993  -15.2715   22.8802 N   0  0  0  0  0  0  0  0  0  0  0  0
  -26.2625  -12.7948   20.1076 N   0  0  0  0  0  0  0  0  0  0  0  0
  -30.0105  -13.5304   20.2929 N   0  0  0  0  0  0  0  0  0  0  0  0
  -21.5280  -28.1026   22.1856 N   0  0  0  0  0  0  0  0  0  0  0  0
  -25.5082  -15.0285   20.3359 N   0  0  0  0  0  0  0  0  0  0  0  0
  -21.9255  -12.5848   21.5965 N   0  0  0  0  0  0  0  0  0  0  0  0
  -23.1405  -31.2735   21.9105 N   0  0  0  0  0  0  0  0  0  0  0  0
  -18.4578  -26.7230   22.5438 N   0  0  0  0  0  0  0  0  0  0  0  0
  -17.9110  -23.6375   20.7413 N   0  3  0  0  0  0  0  0  0  0  0  0
  -22.7072  -14.7175   21.2819 O   0  0  0  0  0  0  0  0  0  0  0  0
  -31.9585  -14.8460   20.3345 O   0  0  0  0  0  0  0  0  0  0  0  0
  -23.2758  -29.5868   23.5103 O   0  0  0  0  0  0  0  0  0  0  0  0
  -19.5463  -29.2539   21.7576 O   0  0  0  0  0  0  0  0  0  0  0  0
  -19.4301  -24.6455   22.8844 O   0  0  0  0  0  0  0  0  0  0  0  0
  -29.3460  -16.8977   19.8165 O   0  0  0  0  0  0  0  0  0  0  0  0
  -21.6298   -7.0246   21.7764 O   0  0  0  0  0  0  0  0  0  0  0  0
  -26.2197  -24.2127   23.1396 O   0  0  0  0  0  0  0  0  0  1  0  0
  -27.5595  -19.7261   21.0525 O   0  0  0  0  0  0  0  0  0  0  0  0
  -18.6870   -6.9364   26.4386 F   0  0  0  0  0  0  0  0  0  0  0  0
  -22.0921   -5.1029   23.7093 F   0  0  0  0  0  0  0  0  0  0  0  0
  1  2  1  0  0  0  0
  1  5  2  0  0  0  0
  2  6  2  0  0  0  0
  3  8  2  0  0  0  0
  3 16  1  0  0  0  0
  4  9  1  0  0  0  0
  4 16  2  0  0  0  0
  5 18  1  0  0  0  0
  6 20  1  0  0  0  0
  7 10  2  0  0  0  0
  7 19  1  0  0  0  0
  8 22  1  0  0  0  0
  9 22  2  0  0  0  0
 10 23  1  0  0  0  0
 11 12  2  0  0  0  0
 11 24  1  0  0  0  0
 12 26  1  0  0  0  0
 13 21  1  0  0  0  0
 13 23  2  0  0  0  0
 14 25  1  0  0  0  0
 14 29  2  0  0  0  0
 15 26  2  0  0  0  0
 15 27  1  0  0  0  0
 16 28  1  0  0  0  0
 17 28  1  0  0  0  0
 17 31  2  0  0  0  0
 17 32  1  0  0  0  0
 18 20  2  0  0  0  0
 18 38  1  0  0  0  0
 19 21  2  0  0  0  0
 19 39  1  0  0  0  0
 20 47  1  0  0  0  0
 21 40  1  0  0  0  0
 22 79  1  0  0  0  0
 23 80  1  0  0  0  0
 24 27  2  0  0  0  0
 24 79  1  0  0  0  0
 25 30  2  0  0  0  0
 25 81  1  0  0  0  0
 26 82  1  0  0  0  0
 27 83  1  0  0  0  0
 28 63  2  0  0  0  0
 29 33  1  0  0  0  0
 29 78  1  0  0  0  0
 30 50  1  0  0  0  0
 30 78  1  0  0  0  0
 31 65  1  0  0  0  0
 31 68  1  0  0  0  0
 32 69  1  0  0  0  0
 32 73  2  0  0  0  0
 33 34  1  0  0  0  0
 33 64  2  0  0  0  0
 34 66  1  0  0  0  0
 34 74  2  0  0  0  0
 35 48  1  0  0  0  0
 35 70  1  0  0  0  0
 35 75  2  0  0  0  0
 36 60  1  0  0  0  0
 36 67  1  0  0  0  0
 36 76  2  0  0  0  0
 37 61  1  0  0  0  0
 37 71  1  0  0  0  0
 37 77  2  0  0  0  0
 38 41  1  0  0  0  0
 39 48  1  0  0  0  0
 40 67  1  0  0  0  0
 41 43  1  0  0  0  0
 42 44  1  0  0  0  0
 42 45  1  0  0  0  0
 43 47  1  0  0  0  0
 44 49  1  0  0  0  0
 45 66  1  0  0  0  0
 46 49  1  0  0  0  0
 46 66  1  0  0  0  0
 47 70  1  0  0  0  0
 48 67  1  0  0  0  0
 49 65  1  0  0  0  0
 51 61  1  0  0  0  0
 52 62  1  0  0  0  0
 53 62  1  0  0  0  0
 54 62  1  0  0  0  0
 55 72  1  0  0  0  0
 56 57  1  0  0  0  0
 56 58  1  0  0  0  0
 57 59  1  0  0  0  0
 58 80  1  0  0  0  0
 59 81  1  0  0  0  0
 60 62  1  0  0  0  0
 60 71  1  0  0  0  0
 61 72  1  0  0  0  0
 63 65  1  0  0  0  0
M  CHG  1  72   1
M  ISO  4  33 100  34 100  58 101  80 101
M  END
> <Batch ID>
0122

> <Smiles>
CNC(C)C(=O)NC(C(=O)N1Cc2cc([101O:1][101CH2:1]CCCOc3cc([100C:0](=N)[100C:0](=O)N4CCCC(n5nc(-c6ccc(Oc7ccc(F)cc7F)cc6)c(C(N)=O)c5N)C4)oc3C)ccc2CC1C(=O)NC1CCCc2ccccc21)C(C)(C)C

> <Shape>
0.312

> <Color>
0.202

> <Negative vol penalty>
0.000

$$$$

  -OEChem-04052302003D

 85 93  0     1  0  0  0  0  0999 V2000
  -32.1738  -13.6199   21.5614 C   0  0  0  0  0  0  0  0  0  0  0  0
  -31.3293  -14.6302   22.0101 C   0  0  0  0  0  0  0  0  0  0  0  0
  -29.0517  -25.6799   19.0816 C   0  0  0  0  0  0  0  0  0  0  0  0
  -27.3388  -24.1944   19.9160 C   0  0  0  0  0  0  0  0  0  0  0  0
  -31.7229  -12.7084   20.6075 C   0  0  0  0  0  0  0  0  0  0  0  0
  -30.0337  -14.7303   21.5044 C   0  0  0  0  0  0  0  0  0  0  0  0
  -26.5913  -15.5441   25.1283 C   0  0  0  0  0  0  0  0  0  0  0  0
  -25.4894  -27.7642   25.6241 C   0  0  0  0  0  0  0  0  0  0  0  0
  -30.0234  -24.7218   19.3704 C   0  0  0  0  0  0  0  0  0  0  0  0
  -28.3104  -23.2362   20.2048 C   0  0  0  0  0  0  0  0  0  0  0  0
  -26.4883  -16.8412   25.6290 C   0  0  0  0  0  0  0  0  0  0  0  0
  -25.6357  -26.4708   25.1229 C   0  0  0  0  0  0  0  0  0  0  0  0
  -30.2995  -20.2576   20.8285 C   0  0  0  0  0  0  0  0  0  0  0  0
  -30.0364  -18.9365   20.4665 C   0  0  0  0  0  0  0  0  0  0  0  0
  -24.5618  -17.2225   24.2282 C   0  0  0  0  0  0  0  0  0  0  0  0
  -23.7185  -26.8084   23.6920 C   0  0  0  0  0  0  0  0  0  0  0  0
  -29.8513  -19.6075   18.1529 C   0  0  0  0  0  0  0  0  0  0  0  0
  -27.7094  -25.4163   19.3544 C   0  0  0  0  0  0  0  0  0  0  0  0
  -25.9894  -26.5555   17.8539 C   0  0  0  0  0  0  0  0  0  0  0  0
  -30.4179  -12.7915   20.0970 C   0  0  0  0  0  0  0  0  0  0  0  0
  -25.6853  -15.0793   24.1641 C   0  0  0  0  0  0  0  0  0  0  0  0
  -29.5653  -13.8199   20.5419 C   0  0  0  0  0  0  0  0  0  0  0  0
  -24.6539  -15.9183   23.7188 C   0  0  0  0  0  0  0  0  0  0  0  0
  -24.4576  -28.5797   25.1594 C   0  0  0  0  0  0  0  0  0  0  0  0
  -23.5721  -28.1018   24.1933 C   0  0  0  0  0  0  0  0  0  0  0  0
  -29.6527  -23.4999   19.9320 C   0  0  0  0  0  0  0  0  0  0  0  0
  -25.4753  -17.6816   25.1769 C   0  0  0  0  0  0  0  0  0  0  0  0
  -24.7503  -25.9929   24.1568 C   0  0  0  0  0  0  0  0  0  0  0  0
  -30.3384  -21.2536   19.8528 C   0  0  0  0  0  0  0  0  0  0  0  0
  -29.8123  -18.6114   19.1287 C   0  0  0  0  0  0  0  0  0  0  0  0
  -30.1143  -20.9286   18.5150 C   0  0  0  0  0  0  0  0  0  0  0  0
  -26.7053  -26.4059   19.0568 C   0  0  0  0  0  0  0  0  0  0  0  0
  -25.1643  -27.6307   18.0769 C   0  0  0  0  0  0  0  0  0  0  0  0
  -20.1569  -29.3166   23.3769 C   0  0  0  0  0  0  0  0  0  0  0  0
  -21.1648  -28.5655   23.8262 C   0  0  0  0  0  0  0  0  0  0  0  0
  -26.0635  -25.7908   16.6434 C   0  0  0  0  0  0  0  0  0  0  0  0
  -25.9309  -14.0528   21.1659 C   0  0  0  0  0  0  0  0  0  0  0  0
  -22.7782  -13.3905   21.5460 C   0  0  0  0  0  0  0  0  0  0  0  0
  -19.8585  -14.0419   23.1884 C   0  0  0  0  0  0  0  0  0  0  0  0
  -22.8147  -30.0769   22.9213 C   0  0  0  0  0  0  0  0  0  0  0  0
  -29.9911  -11.8121   19.0324 C   0  0  0  0  0  0  0  0  0  0  0  0
  -25.7937  -13.6686   23.6538 C   0  0  0  0  0  0  0  0  0  0  0  0
  -23.6436  -15.4607   22.6997 C   0  0  0  0  0  0  0  0  0  0  0  0
  -28.4799  -11.7601   18.8232 C   0  0  0  0  0  0  0  0  0  0  0  0
  -24.8688  -31.6772   20.5958 C   0  0  0  0  0  0  0  0  0  0  0  0
  -27.9043  -13.1699   18.7352 C   0  0  0  0  0  0  0  0  0  0  0  0
  -25.5129  -30.5285   19.8202 C   0  0  0  0  0  0  0  0  0  0  0  0
  -24.7733  -31.3485   22.0812 C   0  0  0  0  0  0  0  0  0  0  0  0
  -24.6686  -28.9229   21.6027 C   0  0  0  0  0  0  0  0  0  0  0  0
  -28.1449  -13.9463   20.0355 C   0  0  1  0  0  0  0  0  0  0  0  0
  -25.1280  -13.4718   22.2953 C   0  0  1  0  0  0  0  0  0  0  0  0
  -24.7821  -29.2014   20.0904 C   0  0  2  0  0  0  0  0  0  0  0  0
  -24.3250  -29.9608   25.7142 C   0  0  0  0  0  0  0  0  0  0  0  0
  -17.4419  -13.3684   23.2528 C   0  0  0  0  0  0  0  0  0  0  0  0
  -22.2598  -15.0176   19.0174 C   0  0  0  0  0  0  0  0  0  0  0  0
  -19.8410  -15.1108   19.6570 C   0  0  0  0  0  0  0  0  0  0  0  0
  -20.9233  -12.9113   19.1949 C   0  0  0  0  0  0  0  0  0  0  0  0
  -20.0754  -13.1004   25.9858 C   0  0  0  0  0  0  0  0  0  0  0  0
  -25.4417  -21.2955   25.1009 C   0  0  0  0  0  0  0  0  0  0  0  0
  -24.8711  -22.3886   24.2040 C   0  0  0  0  0  0  0  0  0  0  0  0
  -24.8270  -19.9370   24.7912 C   0  0  0  0  0  0  0  0  0  1  0  0
  -25.4533  -23.7538   24.5418 C   0  0  0  0  0  0  0  0  0  0  0  0
  -21.4921  -14.1494   21.3245 C   0  0  1  0  0  0  0  0  0  0  0  0
  -18.8309  -13.1203   23.8203 C   0  0  2  0  0  0  0  0  0  0  0  0
  -21.1491  -14.3069   19.8162 C   0  0  0  0  0  0  0  0  0  0  0  0
  -26.3650  -27.3136   19.9757 N   0  0  0  0  0  0  0  0  0  0  0  0
  -25.4263  -28.0439   19.3500 N   0  0  0  0  0  0  0  0  0  0  0  0
  -23.7954  -14.0749   22.2262 N   0  0  0  0  0  0  0  0  0  0  0  0
  -24.0773  -30.0793   22.2957 N   0  0  0  0  0  0  0  0  0  0  0  0
  -24.2477  -28.2536   17.3061 N   0  0  0  0  0  0  0  0  0  0  0  0
  -26.9649  -24.7193   16.5841 N   0  0  0  0  0  0  0  0  0  0  0  0
  -27.2050  -13.5297   21.0541 N   0  0  0  0  0  0  0  0  0  0  0  0
  -20.4700  -13.4556   22.1005 N   0  0  0  0  0  0  0  0  0  0  0  0
  -22.4944  -28.9329   23.6978 N   0  0  0  0  0  0  0  0  0  0  0  0
  -18.7813  -13.3331   25.2944 N   0  3  0  0  0  0  0  0  0  0  0  0
  -25.3631  -26.0603   15.6382 O   0  0  0  0  0  0  0  0  0  0  0  0
  -25.4309  -14.9109   20.4480 O   0  0  0  0  0  0  0  0  0  0  0  0
  -22.8741  -12.2307   21.1370 O   0  0  0  0  0  0  0  0  0  0  0  0
  -20.0924  -15.1706   23.6148 O   0  0  0  0  0  0  0  0  0  0  0  0
  -22.0342  -31.0319   22.8164 O   0  0  0  0  0  0  0  0  0  0  0  0
  -30.6005  -22.5646   20.2138 O   0  0  0  0  0  0  0  0  0  0  0  0
  -25.3729  -18.9483   25.6634 O   0  0  0  0  0  0  0  0  0  1  0  0
  -24.8945  -24.7218   23.6644 O   0  0  0  0  0  0  0  0  0  0  0  0
  -29.5612  -17.3425   18.7809 F   0  0  0  0  0  0  0  0  0  0  0  0
  -30.1516  -21.8810   17.5730 F   0  0  0  0  0  0  0  0  0  0  0  0
  1  2  1  0  0  0  0
  1  5  2  0  0  0  0
  2  6  2  0  0  0  0
  3  9  2  0  0  0  0
  3 18  1  0  0  0  0
  4 10  1  0  0  0  0
  4 18  2  0  0  0  0
  5 20  1  0  0  0  0
  6 22  1  0  0  0  0
  7 11  2  0  0  0  0
  7 21  1  0  0  0  0
  8 12  2  0  0  0  0
  8 24  1  0  0  0  0
  9 26  1  0  0  0  0
 10 26  2  0  0  0  0
 11 27  1  0  0  0  0
 12 28  1  0  0  0  0
 13 14  2  0  0  0  0
 13 29  1  0  0  0  0
 14 30  1  0  0  0  0
 15 23  1  0  0  0  0
 15 27  2  0  0  0  0
 16 25  1  0  0  0  0
 16 28  2  0  0  0  0
 17 30  2  0  0  0  0
 17 31  1  0  0  0  0
 18 32  1  0  0  0  0
 19 32  1  0  0  0  0
 19 33  2  0  0  0  0
 19 36  1  0  0  0  0
 20 22  2  0  0  0  0
 20 41  1  0  0  0  0
 21 23  2  0  0  0  0
 21 42  1  0  0  0  0
 22 50  1  0  0  0  0
 23 43  1  0  0  0  0
 24 25  2  0  0  0  0
 24 53  1  0  0  0  0
 25 74  1  0  0  0  0
 26 81  1  0  0  0  0
 27 82  1  0  0  0  0
 28 83  1  0  0  0  0
 29 31  2  0  0  0  0
 29 81  1  0  0  0  0
 30 84  1  0  0  0  0
 31 85  1  0  0  0  0
 32 66  2  0  0  0  0
 33 67  1  0  0  0  0
 33 70  1  0  0  0  0
 34 35  2  0  0  0  0
 35 74  1  0  0  0  0
 36 71  1  0  0  0  0
 36 76  2  0  0  0  0
 37 51  1  0  0  0  0
 37 72  1  0  0  0  0
 37 77  2  0  0  0  0
 38 63  1  0  0  0  0
 38 68  1  0  0  0  0
 38 78  2  0  0  0  0
 39 64  1  0  0  0  0
 39 73  1  0  0  0  0
 39 79  2  0  0  0  0
 40 69  1  0  0  0  0
 40 74  1  0  0  0  0
 40 80  2  0  0  0  0
 41 44  1  0  0  0  0
 42 51  1  0  0  0  0
 43 68  1  0  0  0  0
 44 46  1  0  0  0  0
 45 47  1  0  0  0  0
 45 48  1  0  0  0  0
 46 50  1  0  0  0  0
 47 52  1  0  0  0  0
 48 69  1  0  0  0  0
 49 52  1  0  0  0  0
 49 69  1  0  0  0  0
 50 72  1  0  0  0  0
 51 68  1  0  0  0  0
 52 67  1  0  0  0  0
 54 64  1  0  0  0  0
 55 65  1  0  0  0  0
 56 65  1  0  0  0  0
 57 65  1  0  0  0  0
 58 75  1  0  0  0  0
 59 60  1  0  0  0  0
 59 61  1  0  0  0  0
 60 62  1  0  0  0  0
 61 82  1  0  0  0  0
 62 83  1  0  0  0  0
 63 65  1  0  0  0  0
 63 73  1  0  0  0  0
 64 75  1  0  0  0  0
 66 67  1  0  0  0  0
M  CHG  1  75   1
M  ISO  4  40 100  61 101  74 100  82 101
M  END
> <Batch ID>
0122

> <Smiles>
C=C[100N:0](c1cc(OCCC[101CH2:1][101O:1]c2ccc3c(c2)CN(C(=O)C(NC(=O)C(C)NC)C(C)(C)C)C(C(=O)NC2CCCc4ccccc42)C3)ccc1C)[100C:0](=O)N1CCCC(n2nc(-c3ccc(Oc4ccc(F)cc4F)cc3)c(C(N)=O)c2N)C1

> <Shape>
0.231

> <Color>
0.059

> <Negative vol penalty>
0.000

$$$$

  -OEChem-04052302003D

 83 91  0     1  0  0  0  0  0999 V2000
  -25.6018  -19.8906   16.5720 C   0  0  0  0  0  0  0  0  0  0  0  0
  -24.9965  -21.0209   17.1119 C   0  0  0  0  0  0  0  0  0  0  0  0
  -24.3813  -15.4728   19.2928 C   0  0  0  0  0  0  0  0  0  0  0  0
  -26.2191  -16.1461   20.7092 C   0  0  0  0  0  0  0  0  0  0  0  0
  -26.8494  -19.4792   17.0389 C   0  0  0  0  0  0  0  0  0  0  0  0
  -25.6381  -21.7399   18.1198 C   0  0  0  0  0  0  0  0  0  0  0  0
  -25.4765  -27.7992   18.9938 C   0  0  0  0  0  0  0  0  0  0  0  0
  -25.2606  -14.7302   18.5049 C   0  0  0  0  0  0  0  0  0  0  0  0
  -27.0984  -15.4035   19.9213 C   0  0  0  0  0  0  0  0  0  0  0  0
  -24.7247  -28.6039   19.8488 C   0  0  0  0  0  0  0  0  0  0  0  0
  -27.9818  -12.1621   19.5556 C   0  0  0  0  0  0  0  0  0  0  0  0
  -28.9184  -11.3622   20.2102 C   0  0  0  0  0  0  0  0  0  0  0  0
  -20.2941  -27.1879   22.6442 C   0  0  0  0  0  0  0  0  0  0  0  0
  -17.9382  -26.8637   22.2186 C   0  0  0  0  0  0  0  0  0  0  0  0
  -18.7713  -29.0577   22.7924 C   0  0  0  0  0  0  0  0  0  0  0  0
  -26.5424  -28.6067   21.4347 C   0  0  0  0  0  0  0  0  0  0  0  0
  -30.7085  -12.5920   19.1517 C   0  0  0  0  0  0  0  0  0  0  0  0
  -24.8605  -16.1808   20.3950 C   0  0  0  0  0  0  0  0  0  0  0  0
  -19.2311  -26.3485   22.3111 C   0  0  0  0  0  0  0  0  0  0  0  0
  -20.0642  -28.5425   22.8849 C   0  0  0  0  0  0  0  0  0  0  0  0
  -22.8396  -16.4688   21.9249 C   0  0  0  0  0  0  0  0  0  0  0  0
  -27.5110  -20.1990   18.0463 C   0  0  0  0  0  0  0  0  0  0  0  0
  -26.7649  -27.3826   19.3582 C   0  0  0  0  0  0  0  0  0  0  0  0
  -26.8951  -21.3369   18.6016 C   0  0  0  0  0  0  0  0  0  0  0  0
  -27.3095  -27.7989   20.5814 C   0  0  0  0  0  0  0  0  0  0  0  0
  -17.7083  -28.2183   22.4592 C   0  0  0  0  0  0  0  0  0  0  0  0
  -26.6192  -14.6955   18.8191 C   0  0  0  0  0  0  0  0  0  0  0  0
  -25.2565  -29.0053   21.0708 C   0  0  0  0  0  0  0  0  0  0  0  0
  -28.4085  -13.1770   18.6990 C   0  0  0  0  0  0  0  0  0  0  0  0
  -30.2817  -11.5772   20.0083 C   0  0  0  0  0  0  0  0  0  0  0  0
  -29.7719  -13.3920   18.4971 C   0  0  0  0  0  0  0  0  0  0  0  0
  -23.9528  -16.9486   21.2091 C   0  0  0  0  0  0  0  0  0  0  0  0
  -22.3138  -17.5842   22.5299 C   0  0  0  0  0  0  0  0  0  0  0  0
  -19.4708  -24.9360   22.0596 C   0  0  0  0  0  0  0  0  0  0  0  0
  -21.1863  -29.4287   23.2360 C   0  0  0  0  0  0  0  0  0  0  0  0
  -20.5521  -24.2399   22.4705 C   0  0  0  0  0  0  0  0  0  0  0  0
  -22.3701  -29.0221   23.7207 C   0  0  0  0  0  0  0  0  0  0  0  0
  -22.3268  -15.1343   22.0333 C   0  0  0  0  0  0  0  0  0  0  0  0
  -20.6461  -22.8029   22.1434 C   0  0  0  0  0  0  0  0  0  0  0  0
  -28.1488  -24.5690   19.8801 C   0  0  0  0  0  0  0  0  0  0  0  0
  -30.8313  -26.3747   20.1371 C   0  0  0  0  0  0  0  0  0  0  0  0
  -32.2205  -29.4223   20.7921 C   0  0  0  0  0  0  0  0  0  0  0  0
  -28.8371  -19.6885   18.5518 C   0  0  0  0  0  0  0  0  0  0  0  0
  -27.5733  -26.5368   18.4129 C   0  0  0  0  0  0  0  0  0  0  0  0
  -28.6958  -27.3956   21.0105 C   0  0  0  0  0  0  0  0  0  0  0  0
  -29.6190  -20.7206   19.3603 C   0  0  0  0  0  0  0  0  0  0  0  0
  -24.1578  -22.2505   23.0349 C   0  0  0  0  0  0  0  0  0  0  0  0
  -28.7091  -21.4033   20.3766 C   0  0  0  0  0  0  0  0  0  0  0  0
  -24.3318  -20.7843   22.6482 C   0  0  0  0  0  0  0  0  0  0  0  0
  -23.1924  -22.9777   22.1001 C   0  0  0  0  0  0  0  0  0  0  0  0
  -22.0375  -20.8447   21.5934 C   0  0  0  0  0  0  0  0  0  0  0  0
  -27.5706  -22.1574   19.6789 C   0  0  1  0  0  0  0  0  0  0  0  0
  -28.6762  -25.7475   19.1116 C   0  0  1  0  0  0  0  0  0  0  0  0
  -22.9683  -20.0820   22.5490 C   0  0  1  0  0  0  0  0  0  0  0  0
  -16.3261  -28.7695   22.3596 C   0  0  0  0  0  0  0  0  0  0  0  0
  -34.4407  -30.5796   20.9620 C   0  0  0  0  0  0  0  0  0  0  0  0
  -31.3084  -25.0564   22.8472 C   0  0  0  0  0  0  0  0  0  0  0  0
  -32.9395  -26.8824   23.3701 C   0  0  0  0  0  0  0  0  0  0  0  0
  -33.3633  -25.3455   21.4515 C   0  0  0  0  0  0  0  0  0  0  0  0
  -31.5391  -31.3007   18.6090 C   0  0  0  0  0  0  0  0  0  0  0  0
  -23.4867  -29.9645   24.0786 C   0  0  0  0  0  0  0  0  0  0  0  0
  -24.7618  -29.6454   23.3072 C   0  0  0  0  0  0  0  0  0  1  0  0
  -31.5379  -27.0849   21.2664 C   0  0  1  0  0  0  0  0  0  0  0  0
  -33.2727  -30.2295   20.0533 C   0  0  2  0  0  0  0  0  0  0  0  0
  -32.2604  -26.0985   22.2268 C   0  0  0  0  0  0  0  0  0  0  0  0
  -24.1248  -18.2661   21.3455 N   0  0  0  0  0  0  0  0  0  0  0  0
  -23.1126  -18.6237   22.1540 N   0  0  0  0  0  0  0  0  0  0  0  0
  -21.9171  -22.2560   21.9759 N   0  0  0  0  0  0  0  0  0  0  0  0
  -29.4444  -26.5630   20.0545 N   0  0  0  0  0  0  0  0  0  0  0  0
  -21.2505  -17.7672   23.3414 N   0  0  0  0  0  0  0  0  0  0  0  0
  -22.8042  -14.3170   23.0670 N   0  0  0  0  0  0  0  0  0  0  0  0
  -28.0522  -23.4091   19.1352 N   0  0  0  0  0  0  0  0  0  0  0  0
  -32.4197  -28.0660   20.6434 N   0  0  0  0  0  0  0  0  0  0  0  0
  -32.6840  -31.4967   19.5352 N   0  3  0  0  0  0  0  0  0  0  0  0
  -21.4827  -14.6746   21.2273 O   0  0  0  0  0  0  0  0  0  0  0  0
  -19.5916  -22.1746   22.0335 O   0  0  0  0  0  0  0  0  0  0  0  0
  -27.8529  -24.7018   21.0619 O   0  0  0  0  0  0  0  0  0  0  0  0
  -31.4868  -25.6843   19.3527 O   0  0  0  0  0  0  0  0  0  0  0  0
  -31.3149  -29.9428   21.4398 O   0  0  0  0  0  0  0  0  0  0  0  0
  -27.4774  -13.9708   18.0505 O   0  0  0  0  0  0  0  0  0  0  0  0
  -24.5246  -29.7902   21.9075 O   0  0  0  0  0  0  0  0  0  1  0  0
  -31.1811  -10.8099   20.6381 F   0  0  0  0  0  0  0  0  0  0  0  0
  -30.1879  -14.3662   17.6763 F   0  0  0  0  0  0  0  0  0  0  0  0
  1  2  1  0  0  0  0
  1  5  2  0  0  0  0
  2  6  2  0  0  0  0
  3  8  2  0  0  0  0
  3 18  1  0  0  0  0
  4  9  1  0  0  0  0
  4 18  2  0  0  0  0
  5 22  1  0  0  0  0
  6 24  1  0  0  0  0
  7 10  2  0  0  0  0
  7 23  1  0  0  0  0
  8 27  1  0  0  0  0
  9 27  2  0  0  0  0
 10 28  1  0  0  0  0
 11 12  2  0  0  0  0
 11 29  1  0  0  0  0
 12 30  1  0  0  0  0
 13 19  1  0  0  0  0
 13 20  2  0  0  0  0
 14 19  2  0  0  0  0
 14 26  1  0  0  0  0
 15 20  1  0  0  0  0
 15 26  2  0  0  0  0
 16 25  1  0  0  0  0
 16 28  2  0  0  0  0
 17 30  2  0  0  0  0
 17 31  1  0  0  0  0
 18 32  1  0  0  0  0
 19 34  1  0  0  0  0
 20 35  1  0  0  0  0
 21 32  1  0  0  0  0
 21 33  2  0  0  0  0
 21 38  1  0  0  0  0
 22 24  2  0  0  0  0
 22 43  1  0  0  0  0
 23 25  2  0  0  0  0
 23 44  1  0  0  0  0
 24 52  1  0  0  0  0
 25 45  1  0  0  0  0
 26 55  1  0  0  0  0
 27 80  1  0  0  0  0
 28 81  1  0  0  0  0
 29 31  2  0  0  0  0
 29 80  1  0  0  0  0
 30 82  1  0  0  0  0
 31 83  1  0  0  0  0
 32 66  2  0  0  0  0
 33 67  1  0  0  0  0
 33 70  1  0  0  0  0
 34 36  2  0  0  0  0
 35 37  2  0  0  0  0
 36 39  1  0  0  0  0
 37 61  1  0  0  0  0
 38 71  1  0  0  0  0
 38 75  2  0  0  0  0
 39 68  1  0  0  0  0
 39 76  2  0  0  0  0
 40 53  1  0  0  0  0
 40 72  1  0  0  0  0
 40 77  2  0  0  0  0
 41 63  1  0  0  0  0
 41 69  1  0  0  0  0
 41 78  2  0  0  0  0
 42 64  1  0  0  0  0
 42 73  1  0  0  0  0
 42 79  2  0  0  0  0
 43 46  1  0  0  0  0
 44 53  1  0  0  0  0
 45 69  1  0  0  0  0
 46 48  1  0  0  0  0
 47 49  1  0  0  0  0
 47 50  1  0  0  0  0
 48 52  1  0  0  0  0
 49 54  1  0  0  0  0
 50 68  1  0  0  0  0
 51 54  1  0  0  0  0
 51 68  1  0  0  0  0
 52 72  1  0  0  0  0
 53 69  1  0  0  0  0
 54 67  1  0  0  0  0
 56 64  1  0  0  0  0
 57 65  1  0  0  0  0
 58 65  1  0  0  0  0
 59 65  1  0  0  0  0
 60 74  1  0  0  0  0
 61 62  1  0  0  0  0
 62 81  1  0  0  0  0
 63 65  1  0  0  0  0
 63 73  1  0  0  0  0
 64 74  1  0  0  0  0
 66 67  1  0  0  0  0
M  CHG  1  74   1
M  ISO  4  36 100  39 100  62 101  81 101
M  END
> <Batch ID>
0122

> <Smiles>
CNC(C)C(=O)NC(C(=O)N1Cc2cc([101O:1][101CH2:1]CC=Cc3cc(C)cc(C=[100CH:0][100C:0](=O)N4CCCC(n5nc(-c6ccc(Oc7ccc(F)cc7F)cc6)c(C(N)=O)c5N)C4)c3)ccc2CC1C(=O)NC1CCCc2ccccc21)C(C)(C)C

> <Shape>
0.230

> <Color>
0.071

> <Negative vol penalty>
0.000

$$$$

  -OEChem-04052302003D

 82 91  0     1  0  0  0  0  0999 V2000
  -26.8370  -36.8766   16.4843 C   0  0  0  0  0  0  0  0  0  0  0  0
  -26.9606  -35.5006   16.3208 C   0  0  0  0  0  0  0  0  0  0  0  0
  -23.2739   -9.8173   19.8524 C   0  0  0  0  0  0  0  0  0  0  0  0
  -24.1872   -9.5392   22.0718 C   0  0  0  0  0  0  0  0  0  0  0  0
  -27.1389  -20.8749   19.3929 C   0  0  0  0  0  0  0  0  0  0  0  0
  -26.9398  -37.4384   17.7562 C   0  0  0  0  0  0  0  0  0  0  0  0
  -27.1881  -34.6856   17.4292 C   0  0  0  0  0  0  0  0  0  0  0  0
  -27.3047  -19.5355   19.7520 C   0  0  0  0  0  0  0  0  0  0  0  0
  -25.0879  -29.0010   18.3121 C   0  0  0  0  0  0  0  0  0  0  0  0
  -22.6597   -8.5687   19.9487 C   0  0  0  0  0  0  0  0  0  0  0  0
  -23.5729   -8.2906   22.1681 C   0  0  0  0  0  0  0  0  0  0  0  0
  -25.6715  -27.7473   18.1348 C   0  0  0  0  0  0  0  0  0  0  0  0
  -20.4826   -7.0791   22.8028 C   0  0  0  0  0  0  0  0  0  0  0  0
  -19.8158   -6.7764   23.9899 C   0  0  0  0  0  0  0  0  0  0  0  0
  -27.6336  -20.3614   17.0654 C   0  0  0  0  0  0  0  0  0  0  0  0
  -26.2609  -27.6976   20.4734 C   0  0  0  0  0  0  0  0  0  0  0  0
  -21.2801   -4.8851   24.3303 C   0  0  0  0  0  0  0  0  0  0  0  0
  -24.0377  -10.3026   20.9140 C   0  0  0  0  0  0  0  0  0  0  0  0
  -27.3013  -21.2847   18.0594 C   0  0  0  0  0  0  0  0  0  0  0  0
  -24.1340  -12.8365   21.1928 C   0  0  0  0  0  0  0  0  0  0  0  0
  -27.1591  -36.6289   18.8819 C   0  0  0  0  0  0  0  0  0  0  0  0
  -25.0960  -29.6182   19.5712 C   0  0  0  0  0  0  0  0  0  0  0  0
  -27.6359  -18.6296   18.7597 C   0  0  0  0  0  0  0  0  0  0  0  0
  -27.2952  -35.2373   18.7172 C   0  0  0  0  0  0  0  0  0  0  0  0
  -27.7980  -19.0374   17.4320 C   0  0  0  0  0  0  0  0  0  0  0  0
  -25.6744  -28.9580   20.6646 C   0  0  0  0  0  0  0  0  0  0  0  0
  -22.8091   -7.8053   21.1065 C   0  0  0  0  0  0  0  0  0  0  0  0
  -26.2607  -27.0967   19.2149 C   0  0  0  0  0  0  0  0  0  0  0  0
  -21.5482   -6.2847   22.3793 C   0  0  0  0  0  0  0  0  0  0  0  0
  -20.2145   -5.6795   24.7537 C   0  0  0  0  0  0  0  0  0  0  0  0
  -21.9470   -5.1878   23.1431 C   0  0  0  0  0  0  0  0  0  0  0  0
  -24.6729  -11.5921   20.8149 C   0  0  0  0  0  0  0  0  0  0  0  0
  -25.1238  -13.7425   20.9000 C   0  0  0  0  0  0  0  0  0  0  0  0
  -27.1217  -22.6859   17.7102 C   0  0  0  0  0  0  0  0  0  0  0  0
  -26.4504  -23.6040   18.4415 C   0  0  0  0  0  0  0  0  0  0  0  0
  -22.8532  -13.1457   21.7582 C   0  0  0  0  0  0  0  0  0  0  0  0
  -26.3254  -32.3044   20.7446 C   0  0  0  0  0  0  0  0  0  0  0  0
  -24.6801  -31.4370   23.4022 C   0  0  0  0  0  0  0  0  0  0  0  0
  -23.2485  -28.9413   25.2376 C   0  0  0  0  0  0  0  0  0  0  0  0
  -28.9054  -15.5719   17.1542 C   0  0  0  0  0  0  0  0  0  0  0  0
  -27.3102  -37.2867   20.2307 C   0  0  0  0  0  0  0  0  0  0  0  0
  -24.4386  -30.9590   19.7517 C   0  0  0  0  0  0  0  0  0  0  0  0
  -27.8442  -17.1548   18.8794 C   0  0  0  0  0  0  0  0  0  0  0  0
  -28.1562  -17.8723   16.5726 C   0  0  0  0  0  0  0  0  0  0  0  0
  -25.6916  -29.5688   22.0413 C   0  0  0  0  0  0  0  0  0  0  0  0
  -27.1783  -36.3149   21.4005 C   0  0  0  0  0  0  0  0  0  0  0  0
  -29.9638  -13.0496   19.5973 C   0  0  0  0  0  0  0  0  0  0  0  0
  -28.0072  -35.0596   21.1477 C   0  0  0  0  0  0  0  0  0  0  0  0
  -28.6301  -12.5198   20.1288 C   0  0  0  0  0  0  0  0  0  0  0  0
  -29.8573  -13.5216   18.1486 C   0  0  0  0  0  0  0  0  0  0  0  0
  -27.4467  -13.9457   18.4214 C   0  0  0  0  0  0  0  0  0  0  0  0
  -27.5177  -34.3175   19.8982 C   0  0  1  0  0  0  0  0  0  0  0  0
  -24.9588  -31.7208   20.9668 C   0  0  1  0  0  0  0  0  0  0  0  0
  -27.4943  -13.5356   19.8992 C   0  0  1  0  0  0  0  0  0  0  0  0
  -22.0116  -28.5347   27.3829 C   0  0  0  0  0  0  0  0  0  0  0  0
  -27.2904  -31.7162   24.9573 C   0  0  0  0  0  0  0  0  0  0  0  0
  -26.2395  -30.4132   26.8190 C   0  0  0  0  0  0  0  0  0  0  0  0
  -25.2735  -32.6092   26.1357 C   0  0  0  0  0  0  0  0  0  0  0  0
  -20.8711  -27.9115   23.8071 C   0  0  0  0  0  0  0  0  0  0  0  0
  -26.2805  -25.0325   18.0340 C   0  0  0  0  0  0  0  0  0  1  0  0
  -24.9845  -30.6037   24.6236 C   0  0  1  0  0  0  0  0  0  0  0  0
  -21.8854  -28.8303   25.8965 C   0  0  2  0  0  0  0  0  0  0  0  0
  -25.9485  -31.3246   25.6077 C   0  0  0  0  0  0  0  0  0  0  0  0
  -25.9091  -11.6945   20.3196 N   0  0  0  0  0  0  0  0  0  0  0  0
  -26.1551  -13.0142   20.3842 N   0  0  0  0  0  0  0  0  0  0  0  0
  -25.0416  -30.8839   22.1656 N   0  0  0  0  0  0  0  0  0  0  0  0
  -28.2347  -16.7433   17.5145 N   0  0  0  0  0  0  0  0  0  0  0  0
  -28.7487  -14.4614   17.9894 N   0  0  0  0  0  0  0  0  0  0  0  0
  -25.2039  -15.0832   21.0358 N   0  0  0  0  0  0  0  0  0  0  0  0
  -21.9561  -12.0952   21.9949 N   0  0  0  0  0  0  0  0  0  0  0  0
  -26.3133  -33.5713   20.1930 N   0  0  0  0  0  0  0  0  0  0  0  0
  -23.6954  -30.2453   25.2050 N   0  0  0  0  0  0  0  0  0  0  0  0
  -21.0926  -27.7374   25.2657 N   0  3  0  0  0  0  0  0  0  0  0  0
  -22.5080  -14.3207   22.0297 O   0  0  0  0  0  0  0  0  0  0  0  0
  -27.3174  -31.6540   21.0523 O   0  0  0  0  0  0  0  0  0  0  0  0
  -24.1349  -32.5349   23.5398 O   0  0  0  0  0  0  0  0  0  0  0  0
  -23.8577  -27.9680   24.7994 O   0  0  0  0  0  0  0  0  0  0  0  0
  -29.6515  -15.5347   16.1674 O   0  0  0  0  0  0  0  0  0  0  0  0
  -22.2097   -6.5870   21.2009 O   0  0  0  0  0  0  0  0  0  0  0  0
  -26.8359  -25.8642   19.0432 O   0  0  0  0  0  0  0  0  0  1  0  0
  -19.5751   -5.3898   25.8945 F   0  0  0  0  0  0  0  0  0  0  0  0
  -22.9707   -4.4217   22.7420 F   0  0  0  0  0  0  0  0  0  0  0  0
  1  2  1  0  0  0  0
  1  6  2  0  0  0  0
  2  7  2  0  0  0  0
  3 10  2  0  0  0  0
  3 18  1  0  0  0  0
  4 11  1  0  0  0  0
  4 18  2  0  0  0  0
  5  8  2  0  0  0  0
  5 19  1  0  0  0  0
  6 21  1  0  0  0  0
  7 24  1  0  0  0  0
  8 23  1  0  0  0  0
  9 12  2  0  0  0  0
  9 22  1  0  0  0  0
 10 27  1  0  0  0  0
 11 27  2  0  0  0  0
 12 28  1  0  0  0  0
 13 14  2  0  0  0  0
 13 29  1  0  0  0  0
 14 30  1  0  0  0  0
 15 19  2  0  0  0  0
 15 25  1  0  0  0  0
 16 26  1  0  0  0  0
 16 28  2  0  0  0  0
 17 30  2  0  0  0  0
 17 31  1  0  0  0  0
 18 32  1  0  0  0  0
 19 34  1  0  0  0  0
 20 32  1  0  0  0  0
 20 33  2  0  0  0  0
 20 36  1  0  0  0  0
 21 24  2  0  0  0  0
 21 41  1  0  0  0  0
 22 26  2  0  0  0  0
 22 42  1  0  0  0  0
 23 25  2  0  0  0  0
 23 43  1  0  0  0  0
 24 52  1  0  0  0  0
 25 44  1  0  0  0  0
 26 45  1  0  0  0  0
 27 79  1  0  0  0  0
 28 80  1  0  0  0  0
 29 31  2  0  0  0  0
 29 79  1  0  0  0  0
 30 81  1  0  0  0  0
 31 82  1  0  0  0  0
 32 64  2  0  0  0  0
 33 65  1  0  0  0  0
 33 69  1  0  0  0  0
 34 35  2  0  0  0  0
 35 60  1  0  0  0  0
 36 70  1  0  0  0  0
 36 74  2  0  0  0  0
 37 53  1  0  0  0  0
 37 71  1  0  0  0  0
 37 75  2  0  0  0  0
 38 61  1  0  0  0  0
 38 66  1  0  0  0  0
 38 76  2  0  0  0  0
 39 62  1  0  0  0  0
 39 72  1  0  0  0  0
 39 77  2  0  0  0  0
 40 67  1  0  0  0  0
 40 68  1  0  0  0  0
 40 78  2  0  0  0  0
 41 46  1  0  0  0  0
 42 53  1  0  0  0  0
 43 67  1  0  0  0  0
 44 67  1  0  0  0  0
 45 66  1  0  0  0  0
 46 48  1  0  0  0  0
 47 49  1  0  0  0  0
 47 50  1  0  0  0  0
 48 52  1  0  0  0  0
 49 54  1  0  0  0  0
 50 68  1  0  0  0  0
 51 54  1  0  0  0  0
 51 68  1  0  0  0  0
 52 71  1  0  0  0  0
 53 66  1  0  0  0  0
 54 65  1  0  0  0  0
 55 62  1  0  0  0  0
 56 63  1  0  0  0  0
 57 63  1  0  0  0  0
 58 63  1  0  0  0  0
 59 73  1  0  0  0  0
 60 80  1  0  0  0  0
 61 63  1  0  0  0  0
 61 72  1  0  0  0  0
 62 73  1  0  0  0  0
 64 65  1  0  0  0  0
M  CHG  1  73   1
M  ISO  4  40 100  60 101  67 100  80 101
M  END
> <Batch ID>
0122

> <Smiles>
CNC(C)C(=O)NC(C(=O)N1Cc2cc([101O:1][101CH2:1]C=Cc3ccc4c(c3)C[100N:0]([100C:0](=O)N3CCCC(n5nc(-c6ccc(Oc7ccc(F)cc7F)cc6)c(C(N)=O)c5N)C3)C4)ccc2CC1C(=O)NC1CCCc2ccccc21)C(C)(C)C

> <Shape>
0.286

> <Color>
0.192

> <Negative vol penalty>
0.000

$$$$

  -OEChem-04052302003D

 86 94  0     1  0  0  0  0  0999 V2000
  -28.5960  -24.6941   28.2019 C   0  0  0  0  0  0  0  0  0  0  0  0
  -28.6856  -25.9338   27.5769 C   0  0  0  0  0  0  0  0  0  0  0  0
  -26.0170  -12.9206   21.6853 C   0  0  0  0  0  0  0  0  0  0  0  0
  -24.3440  -12.8506   19.9437 C   0  0  0  0  0  0  0  0  0  0  0  0
  -28.9104  -25.0216   17.6434 C   0  0  0  0  0  0  0  0  0  0  0  0
  -28.8623  -26.4125   17.5520 C   0  0  0  0  0  0  0  0  0  0  0  0
  -27.9722  -23.6303   27.5513 C   0  0  0  0  0  0  0  0  0  0  0  0
  -28.1526  -26.1101   26.3005 C   0  0  0  0  0  0  0  0  0  0  0  0
  -24.9882  -31.0648   22.2074 C   0  0  0  0  0  0  0  0  0  0  0  0
  -25.3588  -11.8917   22.3589 C   0  0  0  0  0  0  0  0  0  0  0  0
  -23.6858  -11.8217   20.6173 C   0  0  0  0  0  0  0  0  0  0  0  0
  -25.1061  -31.6606   20.9524 C   0  0  0  0  0  0  0  0  0  0  0  0
  -21.7636   -8.9307   21.6969 C   0  0  0  0  0  0  0  0  0  0  0  0
  -21.3281   -7.8382   20.9470 C   0  0  0  0  0  0  0  0  0  0  0  0
  -28.9041  -25.1797   20.0542 C   0  0  0  0  0  0  0  0  0  0  0  0
  -23.9812  -29.7728   19.9574 C   0  0  0  0  0  0  0  0  0  0  0  0
  -23.6056   -7.3911   20.2758 C   0  0  0  0  0  0  0  0  0  0  0  0
  -25.5095  -13.4001   20.4777 C   0  0  0  0  0  0  0  0  0  0  0  0
  -28.9312  -24.4051   18.8945 C   0  0  0  0  0  0  0  0  0  0  0  0
  -28.8351  -27.1872   18.7116 C   0  0  0  0  0  0  0  0  0  0  0  0
  -27.2020  -14.3341   18.8132 C   0  0  0  0  0  0  0  0  0  0  0  0
  -27.4227  -23.7963   26.2703 C   0  0  0  0  0  0  0  0  0  0  0  0
  -24.3746  -29.8115   22.3456 C   0  0  0  0  0  0  0  0  0  0  0  0
  -27.5221  -25.0472   25.6317 C   0  0  0  0  0  0  0  0  0  0  0  0
  -23.8545  -29.1645   21.2156 C   0  0  0  0  0  0  0  0  0  0  0  0
  -28.8561  -26.5708   19.9628 C   0  0  0  0  0  0  0  0  0  0  0  0
  -24.1933  -11.3422   21.8249 C   0  0  0  0  0  0  0  0  0  0  0  0
  -24.6051  -31.0132   19.8268 C   0  0  0  0  0  0  0  0  0  0  0  0
  -23.1201   -9.2535   21.7362 C   0  0  0  0  0  0  0  0  0  0  0  0
  -22.2491   -7.0684   20.2365 C   0  0  0  0  0  0  0  0  0  0  0  0
  -24.0410   -8.4837   21.0257 C   0  0  0  0  0  0  0  0  0  0  0  0
  -26.1886  -14.4634   19.7817 C   0  0  0  0  0  0  0  0  0  0  0  0
  -27.5102  -15.6263   18.4641 C   0  0  0  0  0  0  0  0  0  0  0  0
  -28.9811  -22.9545   18.9885 C   0  0  0  0  0  0  0  0  0  0  0  0
  -28.6295  -22.2272   20.0703 C   0  0  0  0  0  0  0  0  0  0  0  0
  -27.6083  -29.2372   17.8633 C   0  0  0  0  0  0  0  0  0  0  0  0
  -27.7134  -30.3778   17.1681 C   0  0  0  0  0  0  0  0  0  0  0  0
  -28.7833  -28.6703   18.5844 C   0  0  0  0  0  0  0  0  0  0  0  0
  -27.8104  -13.1517   18.2769 C   0  0  0  0  0  0  0  0  0  0  0  0
  -28.7271  -20.7551   20.0068 C   0  0  0  0  0  0  0  0  0  0  0  0
  -25.3214  -26.9494   23.3532 C   0  0  0  0  0  0  0  0  0  0  0  0
  -22.1842  -26.2124   22.9830 C   0  0  0  0  0  0  0  0  0  0  0  0
  -19.2076  -26.8963   21.4601 C   0  0  0  0  0  0  0  0  0  0  0  0
  -26.8000  -22.6043   25.5875 C   0  0  0  0  0  0  0  0  0  0  0  0
  -24.2316  -29.1946   23.7099 C   0  0  0  0  0  0  0  0  0  0  0  0
  -23.1689  -27.8270   21.3130 C   0  0  0  0  0  0  0  0  0  0  0  0
  -25.9296  -22.9747   24.3894 C   0  0  0  0  0  0  0  0  0  0  0  0
  -25.1812  -19.9765   19.5042 C   0  0  0  0  0  0  0  0  0  0  0  0
  -26.6485  -23.9829   23.4986 C   0  0  0  0  0  0  0  0  0  0  0  0
  -25.2132  -18.4505   19.5010 C   0  0  0  0  0  0  0  0  0  0  0  0
  -26.2210  -20.5682   20.4547 C   0  0  0  0  0  0  0  0  0  0  0  0
  -27.6390  -18.5523   20.1979 C   0  0  0  0  0  0  0  0  0  0  0  0
  -26.9341  -25.2844   24.2576 C   0  0  1  0  0  0  0  0  0  0  0  0
  -24.0465  -27.6809   23.6647 C   0  0  1  0  0  0  0  0  0  0  0  0
  -26.6328  -17.9364   19.2132 C   0  0  1  0  0  0  0  0  0  0  0  0
  -28.8270  -27.3774   21.2202 C   0  0  0  0  0  0  0  0  0  0  0  0
  -16.8321  -26.0980   21.3303 C   0  0  0  0  0  0  0  0  0  0  0  0
  -23.0690  -23.8703   21.2390 C   0  0  0  0  0  0  0  0  0  0  0  0
  -20.7195  -23.7052   20.3901 C   0  0  0  0  0  0  0  0  0  0  0  0
  -21.1963  -23.3500   22.8127 C   0  0  0  0  0  0  0  0  0  0  0  0
  -18.1633  -29.4778   22.4623 C   0  0  0  0  0  0  0  0  0  0  0  0
  -26.5682  -30.9925   16.4150 C   0  0  0  0  0  0  0  0  0  0  0  0
  -26.2185  -32.3969   16.9091 C   0  0  0  0  0  0  0  0  0  0  0  0
  -25.8451  -32.4426   18.3862 C   0  0  0  0  0  0  0  0  0  1  0  0
  -21.3365  -25.6840   21.8511 C   0  0  1  0  0  0  0  0  0  0  0  0
  -17.8030  -27.0468   22.0158 C   0  0  2  0  0  0  0  0  0  0  0  0
  -21.5949  -24.1767   21.5708 C   0  0  0  0  0  0  0  0  0  0  0  0
  -25.8740  -15.7371   20.0320 N   0  0  0  0  0  0  0  0  0  0  0  0
  -29.7060  -29.3911   19.1379 N   0  0  0  0  0  0  0  0  0  0  0  0
  -26.6946  -16.4200   19.2157 N   0  0  0  0  0  0  0  0  0  0  0  0
  -27.5602  -20.0173   20.1979 N   0  0  0  0  0  0  0  0  0  0  0  0
  -23.0592  -27.2617   22.6679 N   0  0  0  0  0  0  0  0  0  0  0  0
  -28.3965  -16.1495   17.5906 N   0  0  0  0  0  0  0  0  0  0  0  0
  -27.3751  -11.9048   18.7461 N   0  0  0  0  0  0  0  0  0  0  0  0
  -25.7343  -26.0882   24.3519 N   0  0  0  0  0  0  0  0  0  0  0  0
  -19.9541  -25.9995   22.1947 N   0  0  0  0  0  0  0  0  0  0  0  0
  -17.3150  -28.4412   21.8197 N   0  3  0  0  0  0  0  0  0  0  0  0
  -28.7246  -13.2000   17.4194 O   0  0  0  0  0  0  0  0  0  0  0  0
  -29.8385  -20.2675   19.7928 O   0  0  0  0  0  0  0  0  0  0  0  0
  -25.8877  -27.1501   22.2852 O   0  0  0  0  0  0  0  0  0  0  0  0
  -22.0690  -25.7174   24.1070 O   0  0  0  0  0  0  0  0  0  0  0  0
  -19.6019  -27.5099   20.4709 O   0  0  0  0  0  0  0  0  0  0  0  0
  -23.5509  -10.3380   22.4818 O   0  0  0  0  0  0  0  0  0  0  0  0
  -24.7194  -31.5922   18.6005 O   0  0  0  0  0  0  0  0  0  1  0  0
  -21.8309   -6.0183   19.5176 F   0  0  0  0  0  0  0  0  0  0  0  0
  -25.3456   -8.7882   21.0606 F   0  0  0  0  0  0  0  0  0  0  0  0
  1  2  1  0  0  0  0
  1  7  2  0  0  0  0
  2  8  2  0  0  0  0
  3 10  2  0  0  0  0
  3 18  1  0  0  0  0
  4 11  1  0  0  0  0
  4 18  2  0  0  0  0
  5  6  2  0  0  0  0
  5 19  1  0  0  0  0
  6 20  1  0  0  0  0
  7 22  1  0  0  0  0
  8 24  1  0  0  0  0
  9 12  2  0  0  0  0
  9 23  1  0  0  0  0
 10 27  1  0  0  0  0
 11 27  2  0  0  0  0
 12 28  1  0  0  0  0
 13 14  2  0  0  0  0
 13 29  1  0  0  0  0
 14 30  1  0  0  0  0
 15 19  2  0  0  0  0
 15 26  1  0  0  0  0
 16 25  1  0  0  0  0
 16 28  2  0  0  0  0
 17 30  2  0  0  0  0
 17 31  1  0  0  0  0
 18 32  1  0  0  0  0
 19 34  1  0  0  0  0
 20 26  2  0  0  0  0
 20 38  1  0  0  0  0
 21 32  1  0  0  0  0
 21 33  2  0  0  0  0
 21 39  1  0  0  0  0
 22 24  2  0  0  0  0
 22 44  1  0  0  0  0
 23 25  2  0  0  0  0
 23 45  1  0  0  0  0
 24 53  1  0  0  0  0
 25 46  1  0  0  0  0
 26 56  1  0  0  0  0
 27 83  1  0  0  0  0
 28 84  1  0  0  0  0
 29 31  2  0  0  0  0
 29 83  1  0  0  0  0
 30 85  1  0  0  0  0
 31 86  1  0  0  0  0
 32 68  2  0  0  0  0
 33 70  1  0  0  0  0
 33 73  1  0  0  0  0
 34 35  2  0  0  0  0
 35 40  1  0  0  0  0
 36 37  2  0  0  0  0
 36 38  1  0  0  0  0
 37 62  1  0  0  0  0
 38 69  2  0  0  0  0
 39 74  1  0  0  0  0
 39 78  2  0  0  0  0
 40 71  1  0  0  0  0
 40 79  2  0  0  0  0
 41 54  1  0  0  0  0
 41 75  1  0  0  0  0
 41 80  2  0  0  0  0
 42 65  1  0  0  0  0
 42 72  1  0  0  0  0
 42 81  2  0  0  0  0
 43 66  1  0  0  0  0
 43 76  1  0  0  0  0
 43 82  2  0  0  0  0
 44 47  1  0  0  0  0
 45 54  1  0  0  0  0
 46 72  1  0  0  0  0
 47 49  1  0  0  0  0
 48 50  1  0  0  0  0
 48 51  1  0  0  0  0
 49 53  1  0  0  0  0
 50 55  1  0  0  0  0
 51 71  1  0  0  0  0
 52 55  1  0  0  0  0
 52 71  1  0  0  0  0
 53 75  1  0  0  0  0
 54 72  1  0  0  0  0
 55 70  1  0  0  0  0
 57 66  1  0  0  0  0
 58 67  1  0  0  0  0
 59 67  1  0  0  0  0
 60 67  1  0  0  0  0
 61 77  1  0  0  0  0
 62 63  1  0  0  0  0
 63 64  1  0  0  0  0
 64 84  1  0  0  0  0
 65 67  1  0  0  0  0
 65 76  1  0  0  0  0
 66 77  1  0  0  0  0
 68 70  1  0  0  0  0
M  CHG  1  77   1
M  ISO  4  35 100  40 100  64 101  84 101
M  END
> <Batch ID>
0122

> <Smiles>
CNC(C)C(=O)NC(C(=O)N1Cc2cc([101O:1][101CH2:1]CCC=CC(=N)c3ccc(C=[100CH:0][100C:0](=O)N4CCCC(n5nc(-c6ccc(Oc7ccc(F)cc7F)cc6)c(C(N)=O)c5N)C4)cc3C)ccc2CC1C(=O)NC1CCCc2ccccc21)C(C)(C)C

> <Shape>
0.236

> <Color>
0.058

> <Negative vol penalty>
0.000

$$$$

  -OEChem-04052302003D

 84 92  0     1  0  0  0  0  0999 V2000
  -26.1171  -26.1831   28.6538 C   0  0  0  0  0  0  0  0  0  0  0  0
  -26.5191  -24.9771   28.0885 C   0  0  0  0  0  0  0  0  0  0  0  0
  -31.0034  -12.7282   27.9260 C   0  0  0  0  0  0  0  0  0  0  0  0
  -23.2861   -9.7989   19.9112 C   0  0  0  0  0  0  0  0  0  0  0  0
  -23.7289   -9.9408   22.2821 C   0  0  0  0  0  0  0  0  0  0  0  0
  -30.6502  -13.8585   27.1890 C   0  0  0  0  0  0  0  0  0  0  0  0
  -24.8745  -26.2787   29.2789 C   0  0  0  0  0  0  0  0  0  0  0  0
  -25.6791  -23.8657   28.1490 C   0  0  0  0  0  0  0  0  0  0  0  0
  -25.3981  -21.4002   23.7346 C   0  0  0  0  0  0  0  0  0  0  0  0
  -31.6574  -11.6654   27.3027 C   0  0  0  0  0  0  0  0  0  0  0  0
  -22.5563   -8.6282   20.1176 C   0  0  0  0  0  0  0  0  0  0  0  0
  -22.9990   -8.7701   22.4884 C   0  0  0  0  0  0  0  0  0  0  0  0
  -26.4650  -20.5667   23.4018 C   0  0  0  0  0  0  0  0  0  0  0  0
  -19.4691   -7.7760   21.2017 C   0  0  0  0  0  0  0  0  0  0  0  0
  -18.2421   -7.6536   20.5497 C   0  0  0  0  0  0  0  0  0  0  0  0
  -25.1891  -18.6531   24.1292 C   0  0  0  0  0  0  0  0  0  0  0  0
  -19.0430   -5.6779   19.4131 C   0  0  0  0  0  0  0  0  0  0  0  0
  -23.8725  -10.4551   20.9935 C   0  0  0  0  0  0  0  0  0  0  0  0
  -30.9509  -13.9261   25.8286 C   0  0  0  0  0  0  0  0  0  0  0  0
  -24.1384  -12.9843   20.7933 C   0  0  0  0  0  0  0  0  0  0  0  0
  -24.0149  -25.1705   29.3387 C   0  0  0  0  0  0  0  0  0  0  0  0
  -24.2208  -20.8667   24.2783 C   0  0  0  0  0  0  0  0  0  0  0  0
  -24.4245  -23.9463   28.7768 C   0  0  0  0  0  0  0  0  0  0  0  0
  -24.1077  -19.4817   24.4657 C   0  0  0  0  0  0  0  0  0  0  0  0
  -31.9580  -11.7329   25.9422 C   0  0  0  0  0  0  0  0  0  0  0  0
  -31.6048  -12.8632   25.2052 C   0  0  0  0  0  0  0  0  0  0  0  0
  -22.4127   -8.1139   21.4062 C   0  0  0  0  0  0  0  0  0  0  0  0
  -26.3617  -19.1933   23.6017 C   0  0  0  0  0  0  0  0  0  0  0  0
  -20.4831   -6.8493   20.9593 C   0  0  0  0  0  0  0  0  0  0  0  0
  -18.0290   -6.6046   19.6554 C   0  0  0  0  0  0  0  0  0  0  0  0
  -20.2701   -5.8003   20.0650 C   0  0  0  0  0  0  0  0  0  0  0  0
  -24.6269  -11.6641   20.7809 C   0  0  0  0  0  0  0  0  0  0  0  0
  -25.2425  -13.7614   20.5415 C   0  0  0  0  0  0  0  0  0  0  0  0
  -30.5630  -15.1351   25.0807 C   0  0  0  0  0  0  0  0  0  0  0  0
  -29.3024  -15.5649   24.9297 C   0  0  0  0  0  0  0  0  0  0  0  0
  -22.8057  -13.4652   21.0129 C   0  0  0  0  0  0  0  0  0  0  0  0
  -29.0141  -16.7993   24.1432 C   0  0  0  0  0  0  0  0  0  0  0  0
  -22.6656  -21.2064   27.0297 C   0  0  0  0  0  0  0  0  0  0  0  0
  -31.1121  -12.7864   21.3835 C   0  0  0  0  0  0  0  0  0  0  0  0
  -20.4425  -19.3634   25.5521 C   0  0  0  0  0  0  0  0  0  0  0  0
  -19.7312  -17.0545   23.1417 C   0  0  0  0  0  0  0  0  0  0  0  0
  -22.7012  -25.3093   30.0665 C   0  0  0  0  0  0  0  0  0  0  0  0
  -23.0689  -21.7763   24.6072 C   0  0  0  0  0  0  0  0  0  0  0  0
  -22.8577  -18.8568   25.0274 C   0  0  0  0  0  0  0  0  0  0  0  0
  -21.7130  -24.1871   29.7590 C   0  0  0  0  0  0  0  0  0  0  0  0
  -29.4712  -13.6655   18.3217 C   0  0  0  0  0  0  0  0  0  0  0  0
  -22.4053  -22.8301   29.8364 C   0  0  0  0  0  0  0  0  0  0  0  0
  -28.0026  -13.3451   18.5967 C   0  0  0  0  0  0  0  0  0  0  0  0
  -30.3988  -12.6750   19.0186 C   0  0  0  0  0  0  0  0  0  0  0  0
  -28.7042  -12.2430   20.7688 C   0  0  0  0  0  0  0  0  0  0  0  0
  -23.5310  -22.7251   28.8004 C   0  0  1  0  0  0  0  0  0  0  0  0
  -22.1107  -21.1799   25.6336 C   0  0  1  0  0  0  0  0  0  0  0  0
  -27.7338  -13.2381   20.1082 C   0  0  2  0  0  0  0  0  0  0  0  0
  -32.6585  -10.5804   25.2999 C   0  0  0  0  0  0  0  0  0  0  0  0
  -17.8324  -15.7111   22.1997 C   0  0  0  0  0  0  0  0  0  0  0  0
  -20.5743  -17.4936   27.9596 C   0  0  0  0  0  0  0  0  0  0  0  0
  -19.4270  -15.7483   26.5790 C   0  0  0  0  0  0  0  0  0  0  0  0
  -18.2689  -17.9003   27.0796 C   0  0  0  0  0  0  0  0  0  0  0  0
  -20.0200  -18.3014   20.4732 C   0  0  0  0  0  0  0  0  0  0  0  0
  -31.9325  -12.9242   23.7453 C   0  0  0  0  0  0  0  0  0  0  0  0
  -27.5528  -17.1829   24.0441 C   0  0  0  0  0  0  0  0  0  1  0  0
  -30.7236  -12.6819   22.8368 C   0  0  0  0  0  0  0  0  0  0  0  0
  -20.1898  -17.8796   25.4359 C   0  0  1  0  0  0  0  0  0  0  0  0
  -18.6352  -16.9983   22.0928 C   0  0  2  0  0  0  0  0  0  0  0  0
  -19.6394  -17.2671   26.7547 C   0  0  0  0  0  0  0  0  0  0  0  0
  -25.9393  -11.6022   20.5401 N   0  0  0  0  0  0  0  0  0  0  0  0
  -26.2847  -12.8932   20.3987 N   0  0  0  0  0  0  0  0  0  0  0  0
  -21.7614  -19.7887   25.3392 N   0  0  0  0  0  0  0  0  0  0  0  0
  -30.0968  -12.5855   20.4482 N   0  0  0  0  0  0  0  0  0  0  0  0
  -25.4139  -15.0958   20.4303 N   0  0  0  0  0  0  0  0  0  0  0  0
  -21.7901  -12.5309   21.2578 N   0  0  0  0  0  0  0  0  0  0  0  0
  -22.9847  -22.4716   27.4844 N   0  0  0  0  0  0  0  0  0  0  0  0
  -19.3124  -17.7040   24.2836 N   0  0  0  0  0  0  0  0  0  0  0  0
  -19.2227  -17.0735   20.7252 N   0  3  0  0  0  0  0  0  0  0  0  0
  -22.5207  -14.6863   20.9764 O   0  0  0  0  0  0  0  0  0  0  0  0
  -29.9048  -17.4581   23.6132 O   0  0  0  0  0  0  0  0  0  0  0  0
  -22.7935  -20.1567   27.6490 O   0  0  0  0  0  0  0  0  0  0  0  0
  -32.2830  -13.0419   21.0903 O   0  0  0  0  0  0  0  0  0  0  0  0
  -19.5027  -20.1181   25.8147 O   0  0  0  0  0  0  0  0  0  0  0  0
  -20.8460  -16.5676   22.9670 O   0  0  0  0  0  0  0  0  0  0  0  0
  -21.7005   -6.9717   21.6079 O   0  0  0  0  0  0  0  0  0  0  0  0
  -27.4018  -18.3775   23.2783 O   0  0  0  0  0  0  0  0  0  1  0  0
  -16.8501   -6.4863   19.0306 F   0  0  0  0  0  0  0  0  0  0  0  0
  -21.2401   -4.9063   19.8290 F   0  0  0  0  0  0  0  0  0  0  0  0
  1  2  1  0  0  0  0
  1  7  2  0  0  0  0
  2  8  2  0  0  0  0
  3  6  2  0  0  0  0
  3 10  1  0  0  0  0
  4 11  2  0  0  0  0
  4 18  1  0  0  0  0
  5 12  1  0  0  0  0
  5 18  2  0  0  0  0
  6 19  1  0  0  0  0
  7 21  1  0  0  0  0
  8 23  1  0  0  0  0
  9 13  2  0  0  0  0
  9 22  1  0  0  0  0
 10 25  2  0  0  0  0
 11 27  1  0  0  0  0
 12 27  2  0  0  0  0
 13 28  1  0  0  0  0
 14 15  2  0  0  0  0
 14 29  1  0  0  0  0
 15 30  1  0  0  0  0
 16 24  1  0  0  0  0
 16 28  2  0  0  0  0
 17 30  2  0  0  0  0
 17 31  1  0  0  0  0
 18 32  1  0  0  0  0
 19 26  2  0  0  0  0
 19 34  1  0  0  0  0
 20 32  1  0  0  0  0
 20 33  2  0  0  0  0
 20 36  1  0  0  0  0
 21 23  2  0  0  0  0
 21 42  1  0  0  0  0
 22 24  2  0  0  0  0
 22 43  1  0  0  0  0
 23 51  1  0  0  0  0
 24 44  1  0  0  0  0
 25 26  1  0  0  0  0
 25 54  1  0  0  0  0
 26 60  1  0  0  0  0
 27 81  1  0  0  0  0
 28 82  1  0  0  0  0
 29 31  2  0  0  0  0
 29 81  1  0  0  0  0
 30 83  1  0  0  0  0
 31 84  1  0  0  0  0
 32 66  2  0  0  0  0
 33 67  1  0  0  0  0
 33 70  1  0  0  0  0
 34 35  2  0  0  0  0
 35 37  1  0  0  0  0
 36 71  1  0  0  0  0
 36 75  2  0  0  0  0
 37 61  1  0  0  0  0
 37 76  2  0  0  0  0
 38 52  1  0  0  0  0
 38 72  1  0  0  0  0
 38 77  2  0  0  0  0
 39 62  1  0  0  0  0
 39 69  1  0  0  0  0
 39 78  2  0  0  0  0
 40 63  1  0  0  0  0
 40 68  1  0  0  0  0
 40 79  2  0  0  0  0
 41 64  1  0  0  0  0
 41 73  1  0  0  0  0
 41 80  2  0  0  0  0
 42 45  1  0  0  0  0
 43 52  1  0  0  0  0
 44 68  1  0  0  0  0
 45 47  1  0  0  0  0
 46 48  1  0  0  0  0
 46 49  1  0  0  0  0
 47 51  1  0  0  0  0
 48 53  1  0  0  0  0
 49 69  1  0  0  0  0
 50 53  1  0  0  0  0
 50 69  1  0  0  0  0
 51 72  1  0  0  0  0
 52 68  1  0  0  0  0
 53 67  1  0  0  0  0
 55 64  1  0  0  0  0
 56 65  1  0  0  0  0
 57 65  1  0  0  0  0
 58 65  1  0  0  0  0
 59 74  1  0  0  0  0
 60 62  1  0  0  0  0
 61 82  1  0  0  0  0
 63 65  1  0  0  0  0
 63 73  1  0  0  0  0
 64 74  1  0  0  0  0
 66 67  1  0  0  0  0
M  CHG  1  74   1
M  ISO  4  39 100  61 101  62 100  82 101
M  END
> <Batch ID>
0122

> <Smiles>
CNC(C)C(=O)NC(C(=O)N1Cc2cc([101O:1][101CH2:1]C(=O)C=Cc3cccc(C)c3C[100CH2:0][100C:0](=O)N3CCCC(n4nc(-c5ccc(Oc6ccc(F)cc6F)cc5)c(C(N)=O)c4N)C3)ccc2CC1C(=O)NC1CCCc2ccccc21)C(C)(C)C

> <Shape>
0.120

> <Color>
0.181

> <Negative vol penalty>
0.000

$$$$

  -OEChem-04052302003D

 84 92  0     1  0  0  0  0  0999 V2000
  -28.3437  -36.3557   22.8231 C   0  0  0  0  0  0  0  0  0  0  0  0
  -28.6168  -34.9953   22.7229 C   0  0  0  0  0  0  0  0  0  0  0  0
  -24.0476   -9.7938   22.2611 C   0  0  0  0  0  0  0  0  0  0  0  0
  -24.6320  -11.4297   23.9403 C   0  0  0  0  0  0  0  0  0  0  0  0
  -30.7039  -20.1463   19.0051 C   0  0  0  0  0  0  0  0  0  0  0  0
  -27.0902  -36.7837   23.2582 C   0  0  0  0  0  0  0  0  0  0  0  0
  -27.6368  -34.0620   23.0589 C   0  0  0  0  0  0  0  0  0  0  0  0
  -27.2925  -30.3050   19.6808 C   0  0  0  0  0  0  0  0  0  0  0  0
  -30.4426  -18.7787   18.9216 C   0  0  0  0  0  0  0  0  0  0  0  0
  -23.6689   -8.9005   23.2632 C   0  0  0  0  0  0  0  0  0  0  0  0
  -24.2533  -10.5363   24.9424 C   0  0  0  0  0  0  0  0  0  0  0  0
  -28.2588  -29.3020   19.7433 C   0  0  0  0  0  0  0  0  0  0  0  0
  -21.0123   -8.4213   25.2993 C   0  0  0  0  0  0  0  0  0  0  0  0
  -19.8105   -7.7330   25.1338 C   0  0  0  0  0  0  0  0  0  0  0  0
  -28.3414  -20.5821   19.2613 C   0  0  0  0  0  0  0  0  0  0  0  0
  -26.7037  -27.8857   20.9246 C   0  0  0  0  0  0  0  0  0  0  0  0
  -21.0035   -5.6332   25.2034 C   0  0  0  0  0  0  0  0  0  0  0  0
  -24.5292  -11.0584   22.5997 C   0  0  0  0  0  0  0  0  0  0  0  0
  -29.6533  -21.0480   19.1750 C   0  0  0  0  0  0  0  0  0  0  0  0
  -24.1071  -12.9329   20.9217 C   0  0  0  0  0  0  0  0  0  0  0  0
  -26.0911  -35.8552   23.5904 C   0  0  0  0  0  0  0  0  0  0  0  0
  -26.0260  -30.1096   20.2502 C   0  0  0  0  0  0  0  0  0  0  0  0
  -26.3691  -34.4779   23.5001 C   0  0  0  0  0  0  0  0  0  0  0  0
  -25.7222  -28.8869   20.8657 C   0  0  0  0  0  0  0  0  0  0  0  0
  -28.0800  -19.2145   19.1777 C   0  0  0  0  0  0  0  0  0  0  0  0
  -29.1306  -18.3128   19.0079 C   0  0  0  0  0  0  0  0  0  0  0  0
  -23.7717   -9.2717   24.6038 C   0  0  0  0  0  0  0  0  0  0  0  0
  -27.9655  -28.0932   20.3678 C   0  0  0  0  0  0  0  0  0  0  0  0
  -22.2098   -7.7156   25.4168 C   0  0  0  0  0  0  0  0  0  0  0  0
  -19.8060   -6.3389   25.0859 C   0  0  0  0  0  0  0  0  0  0  0  0
  -22.2053   -6.3216   25.3689 C   0  0  0  0  0  0  0  0  0  0  0  0
  -24.9211  -11.9815   21.5650 C   0  0  0  0  0  0  0  0  0  0  0  0
  -24.9450  -13.5530   20.0272 C   0  0  0  0  0  0  0  0  0  0  0  0
  -29.9301  -22.4927   19.2632 C   0  0  0  0  0  0  0  0  0  0  0  0
  -29.0946  -23.3967   19.7933 C   0  0  0  0  0  0  0  0  0  0  0  0
  -22.7179  -13.2298   21.1153 C   0  0  0  0  0  0  0  0  0  0  0  0
  -29.4660  -24.8412   19.8258 C   0  0  0  0  0  0  0  0  0  0  0  0
  -24.3716  -31.5102   22.5752 C   0  0  0  0  0  0  0  0  0  0  0  0
  -22.0162  -29.5210   21.5666 C   0  0  0  0  0  0  0  0  0  0  0  0
  -21.1503  -26.6260   19.9804 C   0  0  0  0  0  0  0  0  0  0  0  0
  -29.8280  -15.9055   18.7525 C   0  0  0  0  0  0  0  0  0  0  0  0
  -24.7668  -36.3654   24.1011 C   0  0  0  0  0  0  0  0  0  0  0  0
  -24.9857  -31.1915   20.1509 C   0  0  0  0  0  0  0  0  0  0  0  0
  -24.3708  -28.6197   21.4746 C   0  0  0  0  0  0  0  0  0  0  0  0
  -23.6600  -35.3143   24.0798 C   0  0  0  0  0  0  0  0  0  0  0  0
  -29.6299  -12.3576   18.5289 C   0  0  0  0  0  0  0  0  0  0  0  0
  -24.1633  -33.9972   24.6617 C   0  0  0  0  0  0  0  0  0  0  0  0
  -28.3202  -12.0217   19.2460 C   0  0  0  0  0  0  0  0  0  0  0  0
  -30.3611  -13.5198   19.1985 C   0  0  0  0  0  0  0  0  0  0  0  0
  -28.2458  -14.3965   20.1072 C   0  0  0  0  0  0  0  0  0  0  0  0
  -25.3238  -33.4351   23.8317 C   0  0  1  0  0  0  0  0  0  0  0  0
  -23.8999  -31.0761   21.2163 C   0  0  1  0  0  0  0  0  0  0  0  0
  -27.4415  -13.2745   19.4306 C   0  0  2  0  0  0  0  0  0  0  0  0
  -26.0879  -18.3682   17.9121 C   0  0  0  0  0  0  0  0  0  0  0  0
  -19.1501  -25.2502   19.3451 C   0  0  0  0  0  0  0  0  0  0  0  0
  -21.7627  -28.5615   24.4519 C   0  0  0  0  0  0  0  0  0  0  0  0
  -20.4792  -26.5844   23.6083 C   0  0  0  0  0  0  0  0  0  0  0  0
  -19.5852  -28.8879   23.2660 C   0  0  0  0  0  0  0  0  0  0  0  0
  -21.7538  -26.8709   17.0934 C   0  0  0  0  0  0  0  0  0  0  0  0
  -26.6652  -18.7432   19.2733 C   0  0  0  0  0  0  0  0  0  0  0  0
  -28.4405  -25.7643   20.4493 C   0  0  0  0  0  0  0  0  0  1  0  0
  -21.5790  -28.1187   21.9150 C   0  0  1  0  0  0  0  0  0  0  0  0
  -20.1191  -26.3364   18.9047 C   0  0  2  0  0  0  0  0  0  0  0  0
  -20.8777  -28.0436   23.3006 C   0  0  0  0  0  0  0  0  0  0  0  0
  -26.1795  -11.9923   21.1172 N   0  0  0  0  0  0  0  0  0  0  0  0
  -26.1624  -12.9581   20.1829 N   0  0  0  0  0  0  0  0  0  0  0  0
  -23.3895  -29.7109   21.3574 N   0  0  0  0  0  0  0  0  0  0  0  0
  -29.4681  -14.6724   19.3361 N   0  0  0  0  0  0  0  0  0  0  0  0
  -24.7518  -14.5435   19.1306 N   0  0  0  0  0  0  0  0  0  0  0  0
  -22.0057  -12.4978   22.0752 N   0  0  0  0  0  0  0  0  0  0  0  0
  -28.8859  -16.9198   18.9209 N   0  0  0  0  0  0  0  0  0  0  0  0
  -24.8263  -32.8142   22.6228 N   0  0  0  0  0  0  0  0  0  0  0  0
  -20.7544  -27.6599   20.8023 N   0  0  0  0  0  0  0  0  0  0  0  0
  -20.7897  -25.8881   17.6516 N   0  3  0  0  0  0  0  0  0  0  0  0
  -22.1216  -14.1067   20.4452 O   0  0  0  0  0  0  0  0  0  0  0  0
  -30.5330  -25.2507   19.3764 O   0  0  0  0  0  0  0  0  0  0  0  0
  -24.3251  -30.7210   23.5115 O   0  0  0  0  0  0  0  0  0  0  0  0
  -21.1695  -30.4135   21.4762 O   0  0  0  0  0  0  0  0  0  0  0  0
  -22.2002  -25.9955   20.0837 O   0  0  0  0  0  0  0  0  0  0  0  0
  -30.8809  -16.0436   18.1245 O   0  0  0  0  0  0  0  0  0  0  0  0
  -23.4020   -8.4004   25.5818 O   0  0  0  0  0  0  0  0  0  0  0  0
  -28.9071  -27.1128   20.4308 O   0  0  0  0  0  0  0  0  0  1  0  0
  -18.6516   -5.6780   24.9285 F   0  0  0  0  0  0  0  0  0  0  0  0
  -23.3524   -5.6381   25.4824 F   0  0  0  0  0  0  0  0  0  0  0  0
  1  2  1  0  0  0  0
  1  6  2  0  0  0  0
  2  7  2  0  0  0  0
  3 10  2  0  0  0  0
  3 18  1  0  0  0  0
  4 11  1  0  0  0  0
  4 18  2  0  0  0  0
  5  9  2  0  0  0  0
  5 19  1  0  0  0  0
  6 21  1  0  0  0  0
  7 23  1  0  0  0  0
  8 12  2  0  0  0  0
  8 22  1  0  0  0  0
  9 26  1  0  0  0  0
 10 27  1  0  0  0  0
 11 27  2  0  0  0  0
 12 28  1  0  0  0  0
 13 14  2  0  0  0  0
 13 29  1  0  0  0  0
 14 30  1  0  0  0  0
 15 19  2  0  0  0  0
 15 25  1  0  0  0  0
 16 24  1  0  0  0  0
 16 28  2  0  0  0  0
 17 30  2  0  0  0  0
 17 31  1  0  0  0  0
 18 32  1  0  0  0  0
 19 34  1  0  0  0  0
 20 32  1  0  0  0  0
 20 33  2  0  0  0  0
 20 36  1  0  0  0  0
 21 23  2  0  0  0  0
 21 42  1  0  0  0  0
 22 24  2  0  0  0  0
 22 43  1  0  0  0  0
 23 51  1  0  0  0  0
 24 44  1  0  0  0  0
 25 26  2  0  0  0  0
 25 60  1  0  0  0  0
 26 71  1  0  0  0  0
 27 81  1  0  0  0  0
 28 82  1  0  0  0  0
 29 31  2  0  0  0  0
 29 81  1  0  0  0  0
 30 83  1  0  0  0  0
 31 84  1  0  0  0  0
 32 65  2  0  0  0  0
 33 66  1  0  0  0  0
 33 69  1  0  0  0  0
 34 35  2  0  0  0  0
 35 37  1  0  0  0  0
 36 70  1  0  0  0  0
 36 75  2  0  0  0  0
 37 61  1  0  0  0  0
 37 76  2  0  0  0  0
 38 52  1  0  0  0  0
 38 72  1  0  0  0  0
 38 77  2  0  0  0  0
 39 62  1  0  0  0  0
 39 67  1  0  0  0  0
 39 78  2  0  0  0  0
 40 63  1  0  0  0  0
 40 73  1  0  0  0  0
 40 79  2  0  0  0  0
 41 68  1  0  0  0  0
 41 71  1  0  0  0  0
 41 80  2  0  0  0  0
 42 45  1  0  0  0  0
 43 52  1  0  0  0  0
 44 67  1  0  0  0  0
 45 47  1  0  0  0  0
 46 48  1  0  0  0  0
 46 49  1  0  0  0  0
 47 51  1  0  0  0  0
 48 53  1  0  0  0  0
 49 68  1  0  0  0  0
 50 53  1  0  0  0  0
 50 68  1  0  0  0  0
 51 72  1  0  0  0  0
 52 67  1  0  0  0  0
 53 66  1  0  0  0  0
 54 60  1  0  0  0  0
 55 63  1  0  0  0  0
 56 64  1  0  0  0  0
 57 64  1  0  0  0  0
 58 64  1  0  0  0  0
 59 74  1  0  0  0  0
 61 82  1  0  0  0  0
 62 64  1  0  0  0  0
 62 73  1  0  0  0  0
 63 74  1  0  0  0  0
 65 66  1  0  0  0  0
M  CHG  1  74   1
M  ISO  4  41 100  61 101  71 100  82 101
M  END
> <Batch ID>
0122

> <Smiles>
CCc1cc(C=CC(=O)[101CH2:1][101O:1]c2ccc3c(c2)CN(C(=O)C(NC(=O)C(C)NC)C(C)(C)C)C(C(=O)NC2CCCc4ccccc42)C3)ccc1[100NH:0][100C:0](=O)N1CCCC(n2nc(-c3ccc(Oc4ccc(F)cc4F)cc3)c(C(N)=O)c2N)C1

> <Shape>
0.348

> <Color>
0.138

> <Negative vol penalty>
0.000

$$$$

  -OEChem-04052302003D

 85 94  0     1  0  0  0  0  0999 V2000
  -18.7950  -33.4402   21.0011 C   0  0  0  0  0  0  0  0  0  0  0  0
  -20.0911  -33.1567   20.5825 C   0  0  0  0  0  0  0  0  0  0  0  0
  -28.7774  -17.7231   19.9639 C   0  0  0  0  0  0  0  0  0  0  0  0
  -31.0178  -17.9917   20.8271 C   0  0  0  0  0  0  0  0  0  0  0  0
  -18.2833  -32.8278   22.1443 C   0  0  0  0  0  0  0  0  0  0  0  0
  -20.8767  -32.2615   21.3077 C   0  0  0  0  0  0  0  0  0  0  0  0
  -25.0212  -28.3489   19.0670 C   0  0  0  0  0  0  0  0  0  0  0  0
  -28.7882  -16.3836   20.3525 C   0  0  0  0  0  0  0  0  0  0  0  0
  -31.0287  -16.6521   21.2157 C   0  0  0  0  0  0  0  0  0  0  0  0
  -26.4099  -28.4121   18.9617 C   0  0  0  0  0  0  0  0  0  0  0  0
  -30.0602  -13.4687   19.2078 C   0  0  0  0  0  0  0  0  0  0  0  0
  -29.5828  -12.5266   18.2968 C   0  0  0  0  0  0  0  0  0  0  0  0
  -26.6165  -27.1693   21.0188 C   0  0  0  0  0  0  0  0  0  0  0  0
  -36.1875  -26.0837   19.0110 C   0  0  0  0  0  0  0  0  0  0  0  0
  -35.0975  -27.3220   20.7761 C   0  0  0  0  0  0  0  0  0  0  0  0
  -33.8665  -26.7160   18.7875 C   0  0  0  0  0  0  0  0  0  0  0  0
  -27.8851  -11.8562   19.8797 C   0  0  0  0  0  0  0  0  0  0  0  0
  -29.8922  -18.5272   20.2011 C   0  0  0  0  0  0  0  0  0  0  0  0
  -29.4557  -21.0145   20.5626 C   0  0  0  0  0  0  0  0  0  0  0  0
  -19.0596  -31.9173   22.8784 C   0  0  0  0  0  0  0  0  0  0  0  0
  -24.4186  -27.7038   20.1566 C   0  0  0  0  0  0  0  0  0  0  0  0
  -20.3753  -31.6374   22.4626 C   0  0  0  0  0  0  0  0  0  0  0  0
  -25.2199  -27.0971   21.1344 C   0  0  0  0  0  0  0  0  0  0  0  0
  -36.2346  -26.6985   20.2622 C   0  0  0  0  0  0  0  0  0  0  0  0
  -35.0035  -26.0925   18.2737 C   0  0  0  0  0  0  0  0  0  0  0  0
  -33.9134  -27.3307   20.0388 C   0  0  0  0  0  0  0  0  0  0  0  0
  -29.9138  -15.8480   20.9784 C   0  0  0  0  0  0  0  0  0  0  0  0
  -27.2079  -27.8248   19.9391 C   0  0  0  0  0  0  0  0  0  0  0  0
  -29.4501  -13.6046   20.4548 C   0  0  0  0  0  0  0  0  0  0  0  0
  -28.4952  -11.7203   18.6327 C   0  0  0  0  0  0  0  0  0  0  0  0
  -28.3625  -12.7983   20.7907 C   0  0  0  0  0  0  0  0  0  0  0  0
  -29.8818  -19.9109   19.7995 C   0  0  0  0  0  0  0  0  0  0  0  0
  -29.6449  -22.0961   19.7375 C   0  0  0  0  0  0  0  0  0  0  0  0
  -30.5882  -28.6172   20.8506 C   0  0  0  0  0  0  0  0  0  0  0  0
  -29.2561  -28.4998   20.8446 C   0  0  0  0  0  0  0  0  0  1  0  0
  -28.9355  -21.0580   21.8980 C   0  0  0  0  0  0  0  0  0  0  0  0
  -22.4986  -28.6139   22.5206 C   0  0  0  0  0  0  0  0  0  0  0  0
  -22.4453  -25.4379   23.1781 C   0  0  0  0  0  0  0  0  0  0  0  0
  -23.9814  -22.4008   22.9258 C   0  0  0  0  0  0  0  0  0  0  0  0
  -33.3043  -24.0520   15.7005 C   0  0  0  0  0  0  0  0  0  0  0  0
  -18.4798  -31.3163   24.1343 C   0  0  0  0  0  0  0  0  0  0  0  0
  -22.9192  -27.6211   20.2417 C   0  0  0  0  0  0  0  0  0  0  0  0
  -24.6223  -26.3749   22.3132 C   0  0  0  0  0  0  0  0  0  0  0  0
  -31.3887  -29.2794   21.9270 C   0  0  0  0  0  0  0  0  0  0  0  0
  -31.5102  -28.0022   19.8411 C   0  0  0  0  0  0  0  0  0  0  0  0
  -19.2459  -30.0945   24.6348 C   0  0  0  0  0  0  0  0  0  0  0  0
  -30.1151  -22.7136   14.8549 C   0  0  0  0  0  0  0  0  0  0  0  0
  -20.7469  -30.3661   24.6286 C   0  0  0  0  0  0  0  0  0  0  0  0
  -29.6903  -21.9570   16.1147 C   0  0  0  0  0  0  0  0  0  0  0  0
  -32.7051  -28.5082   21.8944 C   0  0  0  0  0  0  0  0  0  0  0  0
  -31.6182  -22.6017   14.6094 C   0  0  0  0  0  0  0  0  0  0  0  0
  -32.0386  -22.2417   17.0109 C   0  0  0  0  0  0  0  0  0  0  0  0
  -21.2497  -30.6530   23.2086 C   0  0  1  0  0  0  0  0  0  0  0  0
  -22.4135  -27.3842   21.6614 C   0  0  1  0  0  0  0  0  0  0  0  0
  -30.5396  -22.3719   17.3311 C   0  0  2  0  0  0  0  0  0  0  0  0
  -37.5006  -26.6892   21.0505 C   0  0  0  0  0  0  0  0  0  0  0  0
  -23.7148  -19.9969   23.5946 C   0  0  0  0  0  0  0  0  0  0  0  0
  -23.2760  -26.1413   26.0285 C   0  0  0  0  0  0  0  0  0  0  0  0
  -23.9075  -23.7417   26.3624 C   0  0  0  0  0  0  0  0  0  0  0  0
  -21.5406  -24.3485   25.8600 C   0  0  0  0  0  0  0  0  0  0  0  0
  -23.9215  -21.5025   20.1065 C   0  0  0  0  0  0  0  0  0  0  0  0
  -34.9534  -25.4352   16.9359 C   0  0  0  0  0  0  0  0  0  0  0  0
  -23.2764  -24.5081   24.0288 C   0  0  1  0  0  0  0  0  0  0  0  0
  -23.4556  -21.0370   22.5159 C   0  0  2  0  0  0  0  0  0  0  0  0
  -23.0117  -24.7001   25.5489 C   0  0  0  0  0  0  0  0  0  0  0  0
  -30.3093  -20.2594   18.5830 N   0  0  0  0  0  0  0  0  0  0  0  0
  -30.1526  -21.5942   18.5754 N   0  0  0  0  0  0  0  0  0  0  0  0
  -32.7876  -27.9480   20.5476 N   0  0  3  0  0  0  0  0  0  0  0  0
  -23.1514  -26.3267   22.3552 N   0  0  0  0  0  0  0  0  0  0  0  0
  -32.3663  -23.0112   15.8004 N   0  0  0  0  0  0  0  0  0  0  0  0
  -29.4246  -23.4180   19.8999 N   0  0  0  0  0  0  0  0  0  0  0  0
  -28.8068  -19.8544   22.6044 N   0  0  0  0  0  0  0  0  0  0  0  0
  -21.3789  -29.4214   22.4597 N   0  0  0  0  0  0  0  0  0  0  0  0
  -23.0083  -23.1595   23.5413 N   0  0  0  0  0  0  0  0  0  0  0  0
  -33.9647  -24.3817   16.8777 N   0  0  0  0  0  0  0  0  0  0  0  0
  -24.1147  -20.5843   21.2583 N   0  3  0  0  0  0  0  0  0  0  0  0
  -28.5796  -22.1305   22.4425 O   0  0  0  0  0  0  0  0  0  0  0  0
  -23.5049  -28.8145   23.1905 O   0  0  0  0  0  0  0  0  0  0  0  0
  -21.2148  -25.3729   23.2360 O   0  0  0  0  0  0  0  0  0  0  0  0
  -25.1405  -22.7561   22.7238 O   0  0  0  0  0  0  0  0  0  0  0  0
  -33.5321  -24.6471   14.6418 O   0  0  0  0  0  0  0  0  0  0  0  0
  -29.9247  -14.5410   21.3579 O   0  0  0  0  0  0  0  0  0  0  0  0
  -28.5636  -27.8856   19.8391 O   0  0  0  0  0  0  0  0  0  1  0  0
  -28.0359  -10.8166   17.7571 F   0  0  0  0  0  0  0  0  0  0  0  0
  -27.7715  -12.9251   21.9868 F   0  0  0  0  0  0  0  0  0  0  0  0
  1  2  1  0  0  0  0
  1  5  2  0  0  0  0
  2  6  2  0  0  0  0
  3  8  2  0  0  0  0
  3 18  1  0  0  0  0
  4  9  1  0  0  0  0
  4 18  2  0  0  0  0
  5 20  1  0  0  0  0
  6 22  1  0  0  0  0
  7 10  2  0  0  0  0
  7 21  1  0  0  0  0
  8 27  1  0  0  0  0
  9 27  2  0  0  0  0
 10 28  1  0  0  0  0
 11 12  2  0  0  0  0
 11 29  1  0  0  0  0
 12 30  1  0  0  0  0
 13 23  1  0  0  0  0
 13 28  2  0  0  0  0
 14 24  1  0  0  0  0
 14 25  2  0  0  0  0
 15 24  2  0  0  0  0
 15 26  1  0  0  0  0
 16 25  1  0  0  0  0
 16 26  2  0  0  0  0
 17 30  2  0  0  0  0
 17 31  1  0  0  0  0
 18 32  1  0  0  0  0
 19 32  1  0  0  0  0
 19 33  2  0  0  0  0
 19 36  1  0  0  0  0
 20 22  2  0  0  0  0
 20 41  1  0  0  0  0
 21 23  2  0  0  0  0
 21 42  1  0  0  0  0
 22 53  1  0  0  0  0
 23 43  1  0  0  0  0
 24 56  1  0  0  0  0
 25 62  1  0  0  0  0
 26 68  1  0  0  0  0
 27 82  1  0  0  0  0
 28 83  1  0  0  0  0
 29 31  2  0  0  0  0
 29 82  1  0  0  0  0
 30 84  1  0  0  0  0
 31 85  1  0  0  0  0
 32 66  2  0  0  0  0
 33 67  1  0  0  0  0
 33 71  1  0  0  0  0
 34 35  2  0  0  0  0
 34 44  1  0  0  0  0
 34 45  1  0  0  0  0
 35 83  1  0  0  0  0
 36 72  1  0  0  0  0
 36 77  2  0  0  0  0
 37 54  1  0  0  0  0
 37 73  1  0  0  0  0
 37 78  2  0  0  0  0
 38 63  1  0  0  0  0
 38 69  1  0  0  0  0
 38 79  2  0  0  0  0
 39 64  1  0  0  0  0
 39 74  1  0  0  0  0
 39 80  2  0  0  0  0
 40 70  1  0  0  0  0
 40 75  1  0  0  0  0
 40 81  2  0  0  0  0
 41 46  1  0  0  0  0
 42 54  1  0  0  0  0
 43 69  1  0  0  0  0
 44 50  1  0  0  0  0
 45 68  1  0  0  0  0
 46 48  1  0  0  0  0
 47 49  1  0  0  0  0
 47 51  1  0  0  0  0
 48 53  1  0  0  0  0
 49 55  1  0  0  0  0
 50 68  1  0  0  0  0
 51 70  1  0  0  0  0
 52 55  1  0  0  0  0
 52 70  1  0  0  0  0
 53 73  1  0  0  0  0
 54 69  1  0  0  0  0
 55 67  1  0  0  0  0
 57 64  1  0  0  0  0
 58 65  1  0  0  0  0
 59 65  1  0  0  0  0
 60 65  1  0  0  0  0
 61 76  1  0  0  0  0
 62 75  1  0  0  0  0
 63 65  1  0  0  0  0
 63 74  1  0  0  0  0
 64 76  1  0  0  0  0
 66 67  1  0  0  0  0
M  CHG  1  76   1
M  ISO  4  35 101  40 100  75 100  83 101
M  END
> <Batch ID>
0122

> <Smiles>
CNC(C)C(=O)NC(C(=O)N1Cc2cc([101O:1][101CH:1]=C3CCN(c4cc(C)cc(C[100NH:0][100C:0](=O)N5CCCC(n6nc(-c7ccc(Oc8ccc(F)cc8F)cc7)c(C(N)=O)c6N)C5)c4)C3)ccc2CC1C(=O)NC1CCCc2ccccc21)C(C)(C)C

> <Shape>
0.200

> <Color>
0.084

> <Negative vol penalty>
0.000

$$$$

  -OEChem-04052302003D

 82 91  0     1  0  0  0  0  0999 V2000
  -27.8474  -33.2215   27.0005 C   0  0  0  0  0  0  0  0  0  0  0  0
  -27.5874  -31.9435   26.5161 C   0  0  0  0  0  0  0  0  0  0  0  0
  -23.7418   -9.6341   19.8006 C   0  0  0  0  0  0  0  0  0  0  0  0
  -24.4824   -9.6953   22.0995 C   0  0  0  0  0  0  0  0  0  0  0  0
  -27.9123  -20.1846   22.8338 C   0  0  0  0  0  0  0  0  0  0  0  0
  -26.9883  -34.2734   26.6852 C   0  0  0  0  0  0  0  0  0  0  0  0
  -26.4675  -31.7166   25.7169 C   0  0  0  0  0  0  0  0  0  0  0  0
  -27.5121  -28.8439   21.6794 C   0  0  0  0  0  0  0  0  0  0  0  0
  -28.0957  -18.8028   22.7364 C   0  0  0  0  0  0  0  0  0  0  0  0
  -23.2935   -8.3256   19.9798 C   0  0  0  0  0  0  0  0  0  0  0  0
  -24.0340   -8.3867   22.2787 C   0  0  0  0  0  0  0  0  0  0  0  0
  -27.6320  -27.4707   21.8888 C   0  0  0  0  0  0  0  0  0  0  0  0
  -21.0887   -6.8142   22.8010 C   0  0  0  0  0  0  0  0  0  0  0  0
  -20.3649   -6.5317   23.9594 C   0  0  0  0  0  0  0  0  0  0  0  0
  -29.7273  -19.1040   20.9629 C   0  0  0  0  0  0  0  0  0  0  0  0
  -25.3850  -27.1557   21.0695 C   0  0  0  0  0  0  0  0  0  0  0  0
  -22.0321   -4.9065   24.6047 C   0  0  0  0  0  0  0  0  0  0  0  0
  -24.3364  -10.3190   20.8604 C   0  0  0  0  0  0  0  0  0  0  0  0
  -28.6431  -21.0132   21.9932 C   0  0  0  0  0  0  0  0  0  0  0  0
  -24.0687  -12.8559   20.8801 C   0  0  0  0  0  0  0  0  0  0  0  0
  -25.8627  -34.0612   25.8738 C   0  0  0  0  0  0  0  0  0  0  0  0
  -26.3219  -29.3854   21.1728 C   0  0  0  0  0  0  0  0  0  0  0  0
  -25.5918  -32.7664   25.3915 C   0  0  0  0  0  0  0  0  0  0  0  0
  -29.5447  -20.4752   21.0701 C   0  0  0  0  0  0  0  0  0  0  0  0
  -25.2535  -28.5358   20.8521 C   0  0  0  0  0  0  0  0  0  0  0  0
  -28.9976  -18.2658   21.8071 C   0  0  0  0  0  0  0  0  0  0  0  0
  -23.4395   -7.7018   21.2189 C   0  0  0  0  0  0  0  0  0  0  0  0
  -26.5673  -26.6267   21.5866 C   0  0  0  0  0  0  0  0  0  0  0  0
  -22.2841   -6.1428   22.5443 C   0  0  0  0  0  0  0  0  0  0  0  0
  -20.8366   -5.5779   24.8612 C   0  0  0  0  0  0  0  0  0  0  0  0
  -22.7559   -5.1890   23.4462 C   0  0  0  0  0  0  0  0  0  0  0  0
  -24.8003  -11.6706   20.6758 C   0  0  0  0  0  0  0  0  0  0  0  0
  -24.9510  -13.8617   20.5700 C   0  0  0  0  0  0  0  0  0  0  0  0
  -28.6674  -22.4684   21.8797 C   0  0  0  0  0  0  0  0  0  0  0  0
  -27.8388  -23.3305   22.4774 C   0  0  0  0  0  0  0  0  0  0  0  0
  -22.7128  -13.0319   21.3118 C   0  0  0  0  0  0  0  0  0  0  0  0
  -24.1542  -31.4426   22.2556 C   0  0  0  0  0  0  0  0  0  0  0  0
  -22.9343  -31.1308   19.2662 C   0  0  0  0  0  0  0  0  0  0  0  0
  -22.6398  -29.2410   16.4397 C   0  0  0  0  0  0  0  0  0  0  0  0
  -30.0129  -16.1627   20.8625 C   0  0  0  0  0  0  0  0  0  0  0  0
  -24.9370  -35.2198   25.5990 C   0  0  0  0  0  0  0  0  0  0  0  0
  -26.2180  -30.8657   20.9275 C   0  0  0  0  0  0  0  0  0  0  0  0
  -30.1959  -21.5317   20.2330 C   0  0  0  0  0  0  0  0  0  0  0  0
  -23.9616  -29.0649   20.2870 C   0  0  0  0  0  0  0  0  0  0  0  0
  -29.7821  -22.8364   20.9318 C   0  0  0  0  0  0  0  0  0  0  0  0
  -23.9781  -34.9711   24.4376 C   0  0  0  0  0  0  0  0  0  0  0  0
  -29.4993  -13.6872   18.3555 C   0  0  0  0  0  0  0  0  0  0  0  0
  -23.3397  -33.5910   24.5585 C   0  0  0  0  0  0  0  0  0  0  0  0
  -28.1708  -13.0393   18.7524 C   0  0  0  0  0  0  0  0  0  0  0  0
  -30.3360  -14.0602   19.5780 C   0  0  0  0  0  0  0  0  0  0  0  0
  -28.3141  -14.2348   20.9745 C   0  0  0  0  0  0  0  0  0  0  0  0
  -24.4008  -32.4854   24.5012 C   0  0  1  0  0  0  0  0  0  0  0  0
  -24.7771  -31.3656   20.8904 C   0  0  1  0  0  0  0  0  0  0  0  0
  -27.4081  -13.9006   19.7781 C   0  0  2  0  0  0  0  0  0  0  0  0
  -21.5473  -29.2326   14.1806 C   0  0  0  0  0  0  0  0  0  0  0  0
  -20.2605  -30.4415   20.5644 C   0  0  0  0  0  0  0  0  0  0  0  0
  -19.5013  -29.5361   18.3572 C   0  0  0  0  0  0  0  0  0  0  0  0
  -20.0966  -31.9487   18.5754 C   0  0  0  0  0  0  0  0  0  0  0  0
  -25.2505  -29.1425   15.0492 C   0  0  0  0  0  0  0  0  0  0  0  0
  -27.9204  -24.8124   22.3170 C   0  0  0  0  0  0  0  0  0  1  0  0
  -21.9326  -30.2109   18.6108 C   0  0  1  0  0  0  0  0  0  0  0  0
  -22.7951  -29.5937   14.9714 C   0  0  2  0  0  0  0  0  0  0  0  0
  -20.4713  -30.5242   19.0394 C   0  0  0  0  0  0  0  0  0  0  0  0
  -26.0510  -11.9006   20.2673 N   0  0  0  0  0  0  0  0  0  0  0  0
  -26.1121  -13.2420   20.2124 N   0  0  0  0  0  0  0  0  0  0  0  0
  -23.9065  -30.5202   20.0710 N   0  0  0  0  0  0  0  0  0  0  0  0
  -29.5499  -14.8793   20.5031 N   0  0  0  0  0  0  0  0  0  0  0  0
  -24.8391  -15.2071   20.5711 N   0  0  0  0  0  0  0  0  0  0  0  0
  -21.9463  -11.8915   21.5882 N   0  0  0  0  0  0  0  0  0  0  0  0
  -29.1659  -16.8615   21.7220 N   0  0  0  0  0  0  0  0  0  0  0  0
  -24.8291  -32.2662   23.1363 N   0  0  0  0  0  0  0  0  0  0  0  0
  -22.1679  -30.3082   17.1743 N   0  0  0  0  0  0  0  0  0  0  0  0
  -23.9526  -28.8627   14.3827 N   0  3  0  0  0  0  0  0  0  0  0  0
  -22.1912  -14.1663   21.4325 O   0  0  0  0  0  0  0  0  0  0  0  0
  -23.1357  -30.8034   22.4920 O   0  0  0  0  0  0  0  0  0  0  0  0
  -22.8613  -32.3457   19.0655 O   0  0  0  0  0  0  0  0  0  0  0  0
  -22.9067  -28.1287   16.8894 O   0  0  0  0  0  0  0  0  0  0  0  0
  -31.0689  -16.6198   20.4174 O   0  0  0  0  0  0  0  0  0  0  0  0
  -23.0019   -6.4250   21.3942 O   0  0  0  0  0  0  0  0  0  0  0  0
  -26.6815  -25.2861   21.7906 O   0  0  0  0  0  0  0  0  0  1  0  0
  -20.1423   -5.3078   25.9744 F   0  0  0  0  0  0  0  0  0  0  0  0
  -23.9043   -4.5416   23.2056 F   0  0  0  0  0  0  0  0  0  0  0  0
  1  2  1  0  0  0  0
  1  6  2  0  0  0  0
  2  7  2  0  0  0  0
  3 10  2  0  0  0  0
  3 18  1  0  0  0  0
  4 11  1  0  0  0  0
  4 18  2  0  0  0  0
  5  9  2  0  0  0  0
  5 19  1  0  0  0  0
  6 21  1  0  0  0  0
  7 23  1  0  0  0  0
  8 12  2  0  0  0  0
  8 22  1  0  0  0  0
  9 26  1  0  0  0  0
 10 27  1  0  0  0  0
 11 27  2  0  0  0  0
 12 28  1  0  0  0  0
 13 14  2  0  0  0  0
 13 29  1  0  0  0  0
 14 30  1  0  0  0  0
 15 24  1  0  0  0  0
 15 26  2  0  0  0  0
 16 25  1  0  0  0  0
 16 28  2  0  0  0  0
 17 30  2  0  0  0  0
 17 31  1  0  0  0  0
 18 32  1  0  0  0  0
 19 24  2  0  0  0  0
 19 34  1  0  0  0  0
 20 32  1  0  0  0  0
 20 33  2  0  0  0  0
 20 36  1  0  0  0  0
 21 23  2  0  0  0  0
 21 41  1  0  0  0  0
 22 25  2  0  0  0  0
 22 42  1  0  0  0  0
 23 52  1  0  0  0  0
 24 43  1  0  0  0  0
 25 44  1  0  0  0  0
 26 70  1  0  0  0  0
 27 79  1  0  0  0  0
 28 80  1  0  0  0  0
 29 31  2  0  0  0  0
 29 79  1  0  0  0  0
 30 81  1  0  0  0  0
 31 82  1  0  0  0  0
 32 64  2  0  0  0  0
 33 65  1  0  0  0  0
 33 68  1  0  0  0  0
 34 35  2  0  0  0  0
 34 45  1  0  0  0  0
 35 60  1  0  0  0  0
 36 69  1  0  0  0  0
 36 74  2  0  0  0  0
 37 53  1  0  0  0  0
 37 71  1  0  0  0  0
 37 75  2  0  0  0  0
 38 61  1  0  0  0  0
 38 66  1  0  0  0  0
 38 76  2  0  0  0  0
 39 62  1  0  0  0  0
 39 72  1  0  0  0  0
 39 77  2  0  0  0  0
 40 67  1  0  0  0  0
 40 70  1  0  0  0  0
 40 78  2  0  0  0  0
 41 46  1  0  0  0  0
 42 53  1  0  0  0  0
 43 45  1  0  0  0  0
 44 66  1  0  0  0  0
 46 48  1  0  0  0  0
 47 49  1  0  0  0  0
 47 50  1  0  0  0  0
 48 52  1  0  0  0  0
 49 54  1  0  0  0  0
 50 67  1  0  0  0  0
 51 54  1  0  0  0  0
 51 67  1  0  0  0  0
 52 71  1  0  0  0  0
 53 66  1  0  0  0  0
 54 65  1  0  0  0  0
 55 62  1  0  0  0  0
 56 63  1  0  0  0  0
 57 63  1  0  0  0  0
 58 63  1  0  0  0  0
 59 73  1  0  0  0  0
 60 80  1  0  0  0  0
 61 63  1  0  0  0  0
 61 72  1  0  0  0  0
 62 73  1  0  0  0  0
 64 65  1  0  0  0  0
M  CHG  1  73   1
M  ISO  4  40 100  60 101  70 100  80 101
M  END
> <Batch ID>
0122

> <Smiles>
CNC(C)C(=O)NC(C(=O)N1Cc2cc([101O:1][101CH2:1]C=C3CCc4cc([100NH:0][100C:0](=O)N5CCCC(n6nc(-c7ccc(Oc8ccc(F)cc8F)cc7)c(C(N)=O)c6N)C5)ccc43)ccc2CC1C(=O)NC1CCCc2ccccc21)C(C)(C)C

> <Shape>
0.323

> <Color>
0.141

> <Negative vol penalty>
0.000

$$$$

  -OEChem-04052302003D

 85 93  0     1  0  0  0  0  0999 V2000
  -18.0187  -24.7498   22.8070 C   0  0  0  0  0  0  0  0  0  0  0  0
  -19.1189  -24.7643   21.9557 C   0  0  0  0  0  0  0  0  0  0  0  0
  -23.5000   -9.1331   20.3173 C   0  0  0  0  0  0  0  0  0  0  0  0
  -23.0163  -10.9386   21.8481 C   0  0  0  0  0  0  0  0  0  0  0  0
  -17.5379  -25.9436   23.3432 C   0  0  0  0  0  0  0  0  0  0  0  0
  -19.7383  -25.9729   21.6391 C   0  0  0  0  0  0  0  0  0  0  0  0
  -24.7890  -25.6866   21.8706 C   0  0  0  0  0  0  0  0  0  0  0  0
  -22.6396   -8.2982   21.0302 C   0  0  0  0  0  0  0  0  0  0  0  0
  -22.1558  -10.1037   22.5610 C   0  0  0  0  0  0  0  0  0  0  0  0
  -25.4421  -25.0795   20.7988 C   0  0  0  0  0  0  0  0  0  0  0  0
  -22.7198   -6.4946   23.8876 C   0  0  0  0  0  0  0  0  0  0  0  0
  -23.1608   -5.2025   24.1732 C   0  0  0  0  0  0  0  0  0  0  0  0
  -28.5587  -19.9331   19.0600 C   0  0  0  0  0  0  0  0  0  0  0  0
  -25.9759  -27.2537   19.9004 C   0  0  0  0  0  0  0  0  0  0  0  0
  -30.5199  -18.2687   20.1398 C   0  0  0  0  0  0  0  0  0  0  0  0
  -21.2896   -4.2924   22.9453 C   0  0  0  0  0  0  0  0  0  0  0  0
  -23.6884  -10.4533   20.7264 C   0  0  0  0  0  0  0  0  0  0  0  0
  -29.6859  -20.4864   19.6672 C   0  0  0  0  0  0  0  0  0  0  0  0
  -24.2484  -12.1491   18.9047 C   0  0  0  0  0  0  0  0  0  0  0  0
  -18.1576  -27.1664   23.0407 C   0  0  0  0  0  0  0  0  0  0  0  0
  -24.7149  -27.0841   21.9597 C   0  0  0  0  0  0  0  0  0  0  0  0
  -19.2644  -27.1843   22.1707 C   0  0  0  0  0  0  0  0  0  0  0  0
  -25.3235  -27.8761   20.9756 C   0  0  0  0  0  0  0  0  0  0  0  0
  -28.4119  -18.5476   18.9927 C   0  0  0  0  0  0  0  0  0  0  0  0
  -29.3925  -17.7154   19.5326 C   0  0  0  0  0  0  0  0  0  0  0  0
  -21.9674   -8.7834   22.1519 C   0  0  0  0  0  0  0  0  0  0  0  0
  -26.0332  -25.8631   19.8120 C   0  0  0  0  0  0  0  0  0  0  0  0
  -21.5636   -6.6856   23.1309 C   0  0  0  0  0  0  0  0  0  0  0  0
  -22.4457   -4.1014   23.7020 C   0  0  0  0  0  0  0  0  0  0  0  0
  -30.6666  -19.6542   20.2070 C   0  0  0  0  0  0  0  0  0  0  0  0
  -20.8486   -5.5846   22.6598 C   0  0  0  0  0  0  0  0  0  0  0  0
  -24.5776  -11.3161   19.9908 C   0  0  0  0  0  0  0  0  0  0  0  0
  -25.4332  -12.7553   18.5654 C   0  0  0  0  0  0  0  0  0  0  0  0
  -29.2242  -22.7733   18.6565 C   0  0  0  0  0  0  0  0  0  0  0  0
  -29.3455  -24.1081   18.6691 C   0  0  0  0  0  0  0  0  0  0  0  0
  -29.8368  -21.9598   19.7411 C   0  0  0  0  0  0  0  0  0  0  0  0
  -22.9845  -12.3563   18.2601 C   0  0  0  0  0  0  0  0  0  0  0  0
  -22.3501  -29.2081   21.9823 C   0  0  0  0  0  0  0  0  0  0  0  0
  -24.7558  -31.2990   22.5850 C   0  0  0  0  0  0  0  0  0  0  0  0
  -28.0811  -32.0327   22.3597 C   0  0  0  0  0  0  0  0  0  0  0  0
  -30.1526  -15.3540   19.9715 C   0  0  0  0  0  0  0  0  0  0  0  0
  -17.5728  -28.4361   23.6068 C   0  0  0  0  0  0  0  0  0  0  0  0
  -24.0298  -27.7238   23.1362 C   0  0  0  0  0  0  0  0  0  0  0  0
  -25.2896  -29.3807   21.0356 C   0  0  0  0  0  0  0  0  0  0  0  0
  -18.5162  -29.6331   23.5193 C   0  0  0  0  0  0  0  0  0  0  0  0
  -30.1720  -11.7948   20.0633 C   0  0  0  0  0  0  0  0  0  0  0  0
  -19.1410  -29.7198   22.1304 C   0  0  0  0  0  0  0  0  0  0  0  0
  -28.6911  -11.4215   19.9633 C   0  0  0  0  0  0  0  0  0  0  0  0
  -30.3833  -13.0586   20.8950 C   0  0  0  0  0  0  0  0  0  0  0  0
  -28.1080  -13.8461   20.3733 C   0  0  0  0  0  0  0  0  0  0  0  0
  -19.9785  -28.4725   21.8234 C   0  0  1  0  0  0  0  0  0  0  0  0
  -23.5709  -29.1515   22.8566 C   0  0  1  0  0  0  0  0  0  0  0  0
  -27.8395  -12.6161   19.4909 C   0  0  2  0  0  0  0  0  0  0  0  0
  -27.1939  -17.9826   18.3368 C   0  0  0  0  0  0  0  0  0  0  0  0
  -29.7428  -33.8321   22.9060 C   0  0  0  0  0  0  0  0  0  0  0  0
  -23.7586  -32.9370   20.2117 C   0  0  0  0  0  0  0  0  0  0  0  0
  -25.9495  -34.1487   20.2167 C   0  0  0  0  0  0  0  0  0  0  0  0
  -24.4431  -34.2910   22.1999 C   0  0  0  0  0  0  0  0  0  0  0  0
  -29.6048  -30.2414   24.1565 C   0  0  0  0  0  0  0  0  0  0  0  0
  -28.7688  -25.0004   17.6048 C   0  0  0  0  0  0  0  0  0  0  0  0
  -27.7603  -25.9869   18.1819 C   0  0  0  0  0  0  0  0  0  1  0  0
  -25.6821  -32.1364   21.7366 C   0  0  1  0  0  0  0  0  0  0  0  0
  -29.0690  -32.5563   23.3866 C   0  0  2  0  0  0  0  0  0  0  0  0
  -24.9575  -33.3500   21.0888 C   0  0  0  0  0  0  0  0  0  0  0  0
  -25.8703  -11.3843   20.3196 N   0  0  0  0  0  0  0  0  0  0  0  0
  -26.3639  -12.2673   19.4348 N   0  0  0  0  0  0  0  0  0  0  0  0
  -24.6025  -29.9589   22.2022 N   0  0  0  0  0  0  0  0  0  0  0  0
  -29.5478  -14.1488   20.3869 N   0  0  0  0  0  0  0  0  0  0  0  0
  -25.7594  -13.6527   17.6111 N   0  0  0  0  0  0  0  0  0  0  0  0
  -21.8689  -11.6535   18.7354 N   0  0  0  0  0  0  0  0  0  0  0  0
  -29.2615  -16.3056   19.4766 N   0  0  0  0  0  0  0  0  0  0  0  0
  -21.2558  -28.5421   22.5003 N   0  0  0  0  0  0  0  0  0  0  0  0
  -26.8050  -32.4993   22.5944 N   0  0  0  0  0  0  0  0  0  0  0  0
  -30.1249  -31.5395   23.6550 N   0  3  0  0  0  0  0  0  0  0  0  0
  -30.4720  -22.4610   20.6623 O   0  0  0  0  0  0  0  0  0  0  0  0
  -22.8519  -13.1291   17.2810 O   0  0  0  0  0  0  0  0  0  0  0  0
  -22.3972  -29.8126   20.9174 O   0  0  0  0  0  0  0  0  0  0  0  0
  -24.1948  -31.8130   23.5559 O   0  0  0  0  0  0  0  0  0  0  0  0
  -28.4095  -31.2876   21.4391 O   0  0  0  0  0  0  0  0  0  0  0  0
  -31.3741  -15.5188   20.0238 O   0  0  0  0  0  0  0  0  0  0  0  0
  -21.1276   -7.9691   22.8476 O   0  0  0  0  0  0  0  0  0  0  0  0
  -26.6707  -25.2731   18.7645 O   0  0  0  0  0  0  0  0  0  1  0  0
  -22.8702   -2.8606   23.9750 F   0  0  0  0  0  0  0  0  0  0  0  0
  -31.7522  -20.1758   20.7958 F   0  0  0  0  0  0  0  0  0  0  0  0
  -19.7378   -5.7619   21.9314 F   0  0  0  0  0  0  0  0  0  0  0  0
  1  2  1  0  0  0  0
  1  5  2  0  0  0  0
  2  6  2  0  0  0  0
  3  8  2  0  0  0  0
  3 17  1  0  0  0  0
  4  9  1  0  0  0  0
  4 17  2  0  0  0  0
  5 20  1  0  0  0  0
  6 22  1  0  0  0  0
  7 10  2  0  0  0  0
  7 21  1  0  0  0  0
  8 26  1  0  0  0  0
  9 26  2  0  0  0  0
 10 27  1  0  0  0  0
 11 12  2  0  0  0  0
 11 28  1  0  0  0  0
 12 29  1  0  0  0  0
 13 18  1  0  0  0  0
 13 24  2  0  0  0  0
 14 23  1  0  0  0  0
 14 27  2  0  0  0  0
 15 25  2  0  0  0  0
 15 30  1  0  0  0  0
 16 29  2  0  0  0  0
 16 31  1  0  0  0  0
 17 32  1  0  0  0  0
 18 30  2  0  0  0  0
 18 36  1  0  0  0  0
 19 32  1  0  0  0  0
 19 33  2  0  0  0  0
 19 37  1  0  0  0  0
 20 22  2  0  0  0  0
 20 42  1  0  0  0  0
 21 23  2  0  0  0  0
 21 43  1  0  0  0  0
 22 51  1  0  0  0  0
 23 44  1  0  0  0  0
 24 25  1  0  0  0  0
 24 54  1  0  0  0  0
 25 71  1  0  0  0  0
 26 81  1  0  0  0  0
 27 82  1  0  0  0  0
 28 31  2  0  0  0  0
 28 81  1  0  0  0  0
 29 83  1  0  0  0  0
 30 84  1  0  0  0  0
 31 85  1  0  0  0  0
 32 65  2  0  0  0  0
 33 66  1  0  0  0  0
 33 69  1  0  0  0  0
 34 35  2  0  0  0  0
 34 36  1  0  0  0  0
 35 60  1  0  0  0  0
 36 75  2  0  0  0  0
 37 70  1  0  0  0  0
 37 76  2  0  0  0  0
 38 52  1  0  0  0  0
 38 72  1  0  0  0  0
 38 77  2  0  0  0  0
 39 62  1  0  0  0  0
 39 67  1  0  0  0  0
 39 78  2  0  0  0  0
 40 63  1  0  0  0  0
 40 73  1  0  0  0  0
 40 79  2  0  0  0  0
 41 68  1  0  0  0  0
 41 71  1  0  0  0  0
 41 80  2  0  0  0  0
 42 45  1  0  0  0  0
 43 52  1  0  0  0  0
 44 67  1  0  0  0  0
 45 47  1  0  0  0  0
 46 48  1  0  0  0  0
 46 49  1  0  0  0  0
 47 51  1  0  0  0  0
 48 53  1  0  0  0  0
 49 68  1  0  0  0  0
 50 53  1  0  0  0  0
 50 68  1  0  0  0  0
 51 72  1  0  0  0  0
 52 67  1  0  0  0  0
 53 66  1  0  0  0  0
 55 63  1  0  0  0  0
 56 64  1  0  0  0  0
 57 64  1  0  0  0  0
 58 64  1  0  0  0  0
 59 74  1  0  0  0  0
 60 61  1  0  0  0  0
 61 82  1  0  0  0  0
 62 64  1  0  0  0  0
 62 73  1  0  0  0  0
 63 74  1  0  0  0  0
 65 66  1  0  0  0  0
M  CHG  1  74   1
M  ISO  4  41 100  61 101  71 100  82 101
M  END
> <Batch ID>
0122

> <Smiles>
CNC(C)C(=O)NC(C(=O)N1Cc2cc([101O:1][101CH2:1]CC=CC(=O)c3cc(C)c([100NH:0][100C:0](=O)N4CCCC(n5nc(-c6ccc(Oc7ccc(F)cc7F)cc6)c(C(N)=O)c5N)C4)cc3F)ccc2CC1C(=O)NC1CCCc2ccccc21)C(C)(C)C

> <Shape>
0.331

> <Color>
0.106

> <Negative vol penalty>
0.000

$$$$

  -OEChem-04052302003D

 86 94  0     1  0  0  0  0  0999 V2000
  -28.5888  -33.9038   26.6501 C   0  0  0  0  0  0  0  0  0  0  0  0
  -28.6305  -32.7057   25.9442 C   0  0  0  0  0  0  0  0  0  0  0  0
  -23.5989   -9.7385   22.0980 C   0  0  0  0  0  0  0  0  0  0  0  0
  -24.3716  -11.1709   23.8835 C   0  0  0  0  0  0  0  0  0  0  0  0
  -27.3618  -34.5022   26.9335 C   0  0  0  0  0  0  0  0  0  0  0  0
  -27.4451  -32.1047   25.5224 C   0  0  0  0  0  0  0  0  0  0  0  0
  -27.6953  -30.4615   20.7388 C   0  0  0  0  0  0  0  0  0  0  0  0
  -23.0526   -8.8632   23.0365 C   0  0  0  0  0  0  0  0  0  0  0  0
  -23.8253  -10.2956   24.8221 C   0  0  0  0  0  0  0  0  0  0  0  0
  -28.3743  -29.2653   20.5112 C   0  0  0  0  0  0  0  0  0  0  0  0
  -20.2859   -8.6972   24.9732 C   0  0  0  0  0  0  0  0  0  0  0  0
  -18.9985   -8.2150   24.7376 C   0  0  0  0  0  0  0  0  0  0  0  0
  -30.9860  -20.1243   19.8129 C   0  0  0  0  0  0  0  0  0  0  0  0
  -26.2672  -28.0949   20.4129 C   0  0  0  0  0  0  0  0  0  0  0  0
  -31.4173  -17.7752   19.4484 C   0  0  0  0  0  0  0  0  0  0  0  0
  -19.8493   -5.9539   24.7156 C   0  0  0  0  0  0  0  0  0  0  0  0
  -24.2585  -10.8924   22.5214 C   0  0  0  0  0  0  0  0  0  0  0  0
  -29.6151  -19.8686   19.8391 C   0  0  0  0  0  0  0  0  0  0  0  0
  -24.1889  -12.8966   20.9448 C   0  0  0  0  0  0  0  0  0  0  0  0
  -26.1612  -33.9132   26.5065 C   0  0  0  0  0  0  0  0  0  0  0  0
  -26.2953  -30.4816   20.8162 C   0  0  0  0  0  0  0  0  0  0  0  0
  -26.2008  -32.6951   25.8015 C   0  0  0  0  0  0  0  0  0  0  0  0
  -25.5727  -29.2931   20.6391 C   0  0  0  0  0  0  0  0  0  0  0  0
  -29.1452  -18.5661   19.6700 C   0  0  0  0  0  0  0  0  0  0  0  0
  -30.0463  -17.5194   19.4746 C   0  0  0  0  0  0  0  0  0  0  0  0
  -23.1658   -9.1417   24.3986 C   0  0  0  0  0  0  0  0  0  0  0  0
  -27.6605  -28.0813   20.3511 C   0  0  0  0  0  0  0  0  0  0  0  0
  -21.3552   -7.8077   25.0800 C   0  0  0  0  0  0  0  0  0  0  0  0
  -18.7802   -6.8434   24.6088 C   0  0  0  0  0  0  0  0  0  0  0  0
  -31.8871  -19.0776   19.6174 C   0  0  0  0  0  0  0  0  0  0  0  0
  -21.1368   -6.4361   24.9513 C   0  0  0  0  0  0  0  0  0  0  0  0
  -24.8235  -11.7966   21.5523 C   0  0  0  0  0  0  0  0  0  0  0  0
  -25.1426  -13.4249   20.1094 C   0  0  0  0  0  0  0  0  0  0  0  0
  -28.6931  -20.9976   20.0463 C   0  0  0  0  0  0  0  0  0  0  0  0
  -28.6097  -22.0832   19.2611 C   0  0  0  0  0  0  0  0  0  0  0  0
  -22.8565  -13.3962   21.1200 C   0  0  0  0  0  0  0  0  0  0  0  0
  -24.1839  -31.2442   23.0666 C   0  0  0  0  0  0  0  0  0  0  0  0
  -28.4014  -24.5260   19.7125 C   0  0  0  0  0  0  0  0  0  0  0  0
  -22.0466  -30.7743   20.6721 C   0  0  0  0  0  0  0  0  0  0  0  0
  -21.3183  -29.2832   17.6900 C   0  0  0  0  0  0  0  0  0  0  0  0
  -30.3713  -15.0499   19.0978 C   0  0  0  0  0  0  0  0  0  0  0  0
  -24.8567  -34.5730   26.8776 C   0  0  0  0  0  0  0  0  0  0  0  0
  -25.5765  -31.7846   21.0357 C   0  0  0  0  0  0  0  0  0  0  0  0
  -24.0678  -29.2644   20.6931 C   0  0  0  0  0  0  0  0  0  0  0  0
  -23.6655  -34.0644   26.0698 C   0  0  0  0  0  0  0  0  0  0  0  0
  -29.6346  -11.5935   18.6639 C   0  0  0  0  0  0  0  0  0  0  0  0
  -23.6750  -32.5404   26.0065 C   0  0  0  0  0  0  0  0  0  0  0  0
  -28.2651  -11.4287   19.3267 C   0  0  0  0  0  0  0  0  0  0  0  0
  -30.5135  -12.5897   19.4181 C   0  0  0  0  0  0  0  0  0  0  0  0
  -28.5294  -13.7367   20.3220 C   0  0  0  0  0  0  0  0  0  0  0  0
  -24.9378  -32.0252   25.3055 C   0  0  1  0  0  0  0  0  0  0  0  0
  -24.1739  -31.6042   21.6078 C   0  0  1  0  0  0  0  0  0  0  0  0
  -27.5849  -12.7918   19.5613 C   0  0  2  0  0  0  0  0  0  0  0  0
  -27.1062  -18.0664   18.2991 C   0  0  0  0  0  0  0  0  0  0  0  0
  -19.4785  -29.0562   15.9985 C   0  0  0  0  0  0  0  0  0  0  0  0
  -20.5845  -28.8411   22.5254 C   0  0  0  0  0  0  0  0  0  0  0  0
  -19.3674  -27.9538   20.5255 C   0  0  0  0  0  0  0  0  0  0  0  0
  -19.0906  -30.3411   21.1941 C   0  0  0  0  0  0  0  0  0  0  0  0
  -22.9722  -30.4967   15.5567 C   0  0  0  0  0  0  0  0  0  0  0  0
  -27.6739  -18.2842   19.6964 C   0  0  0  0  0  0  0  0  0  0  0  0
  -27.6584  -23.2120   19.5161 C   0  0  0  0  0  0  0  0  0  0  0  0
  -27.5264  -25.7369   19.9745 C   0  0  0  0  0  0  0  0  0  1  0  0
  -21.2679  -29.5905   20.1512 C   0  0  1  0  0  0  0  0  0  0  0  0
  -20.7196  -29.8338   16.4082 C   0  0  2  0  0  0  0  0  0  0  0  0
  -20.1060  -29.1815   21.0999 C   0  0  0  0  0  0  0  0  0  0  0  0
  -26.0829  -11.6345   21.1381 N   0  0  0  0  0  0  0  0  0  0  0  0
  -26.2473  -12.6396   20.2612 N   0  0  0  0  0  0  0  0  0  0  0  0
  -23.4110  -30.5630   20.9163 N   0  0  0  0  0  0  0  0  0  0  0  0
  -29.8053  -13.8587   19.5996 N   0  0  0  0  0  0  0  0  0  0  0  0
  -25.1356  -14.4798   19.2671 N   0  0  0  0  0  0  0  0  0  0  0  0
  -22.0073  -12.7344   22.0174 N   0  0  0  0  0  0  0  0  0  0  0  0
  -29.5922  -16.1885   19.3008 N   0  0  0  0  0  0  0  0  0  0  0  0
  -24.8156  -32.1733   23.8710 N   0  0  0  0  0  0  0  0  0  0  0  0
  -20.8411  -29.9446   18.8018 N   0  0  0  0  0  0  0  0  0  0  0  0
  -21.7109  -29.7556   15.2982 N   0  3  0  0  0  0  0  0  0  0  0  0
  -22.4261  -14.3900   20.4869 O   0  0  0  0  0  0  0  0  0  0  0  0
  -23.6562  -30.2014   23.4352 O   0  0  0  0  0  0  0  0  0  0  0  0
  -29.6284  -24.6123   19.6791 O   0  0  0  0  0  0  0  0  0  0  0  0
  -21.4672  -31.8488   20.8488 O   0  0  0  0  0  0  0  0  0  0  0  0
  -22.1255  -28.3565   17.7038 O   0  0  0  0  0  0  0  0  0  0  0  0
  -31.4537  -15.0549   18.5059 O   0  0  0  0  0  0  0  0  0  0  0  0
  -22.6326   -8.2879   25.3148 O   0  0  0  0  0  0  0  0  0  0  0  0
  -28.3208  -26.9122   20.1295 O   0  0  0  0  0  0  0  0  0  1  0  0
  -17.5435   -6.3804   24.3841 F   0  0  0  0  0  0  0  0  0  0  0  0
  -33.2037  -19.3230   19.5931 F   0  0  0  0  0  0  0  0  0  0  0  0
  -22.1599   -5.5766   25.0541 F   0  0  0  0  0  0  0  0  0  0  0  0
  1  2  1  0  0  0  0
  1  5  2  0  0  0  0
  2  6  2  0  0  0  0
  3  8  2  0  0  0  0
  3 17  1  0  0  0  0
  4  9  1  0  0  0  0
  4 17  2  0  0  0  0
  5 20  1  0  0  0  0
  6 22  1  0  0  0  0
  7 10  2  0  0  0  0
  7 21  1  0  0  0  0
  8 26  1  0  0  0  0
  9 26  2  0  0  0  0
 10 27  1  0  0  0  0
 11 12  2  0  0  0  0
 11 28  1  0  0  0  0
 12 29  1  0  0  0  0
 13 18  2  0  0  0  0
 13 30  1  0  0  0  0
 14 23  1  0  0  0  0
 14 27  2  0  0  0  0
 15 25  1  0  0  0  0
 15 30  2  0  0  0  0
 16 29  2  0  0  0  0
 16 31  1  0  0  0  0
 17 32  1  0  0  0  0
 18 24  1  0  0  0  0
 18 34  1  0  0  0  0
 19 32  1  0  0  0  0
 19 33  2  0  0  0  0
 19 36  1  0  0  0  0
 20 22  2  0  0  0  0
 20 42  1  0  0  0  0
 21 23  2  0  0  0  0
 21 43  1  0  0  0  0
 22 51  1  0  0  0  0
 23 44  1  0  0  0  0
 24 25  2  0  0  0  0
 24 60  1  0  0  0  0
 25 72  1  0  0  0  0
 26 82  1  0  0  0  0
 27 83  1  0  0  0  0
 28 31  2  0  0  0  0
 28 82  1  0  0  0  0
 29 84  1  0  0  0  0
 30 85  1  0  0  0  0
 31 86  1  0  0  0  0
 32 66  2  0  0  0  0
 33 67  1  0  0  0  0
 33 70  1  0  0  0  0
 34 35  2  0  0  0  0
 35 61  1  0  0  0  0
 36 71  1  0  0  0  0
 36 76  2  0  0  0  0
 37 52  1  0  0  0  0
 37 73  1  0  0  0  0
 37 77  2  0  0  0  0
 38 61  1  0  0  0  0
 38 62  1  0  0  0  0
 38 78  2  0  0  0  0
 39 63  1  0  0  0  0
 39 68  1  0  0  0  0
 39 79  2  0  0  0  0
 40 64  1  0  0  0  0
 40 74  1  0  0  0  0
 40 80  2  0  0  0  0
 41 69  1  0  0  0  0
 41 72  1  0  0  0  0
 41 81  2  0  0  0  0
 42 45  1  0  0  0  0
 43 52  1  0  0  0  0
 44 68  1  0  0  0  0
 45 47  1  0  0  0  0
 46 48  1  0  0  0  0
 46 49  1  0  0  0  0
 47 51  1  0  0  0  0
 48 53  1  0  0  0  0
 49 69  1  0  0  0  0
 50 53  1  0  0  0  0
 50 69  1  0  0  0  0
 51 73  1  0  0  0  0
 52 68  1  0  0  0  0
 53 67  1  0  0  0  0
 54 60  1  0  0  0  0
 55 64  1  0  0  0  0
 56 65  1  0  0  0  0
 57 65  1  0  0  0  0
 58 65  1  0  0  0  0
 59 75  1  0  0  0  0
 62 83  1  0  0  0  0
 63 65  1  0  0  0  0
 63 74  1  0  0  0  0
 64 75  1  0  0  0  0
 66 67  1  0  0  0  0
M  CHG  1  75   1
M  ISO  4  41 100  62 101  72 100  83 101
M  END
> <Batch ID>
0122

> <Smiles>
CCc1c(C=CCC(=O)[101CH2:1][101O:1]c2ccc3c(c2)CN(C(=O)C(NC(=O)C(C)NC)C(C)(C)C)C(C(=O)NC2CCCc4ccccc42)C3)cc(F)cc1[100NH:0][100C:0](=O)N1CCCC(n2nc(-c3ccc(Oc4ccc(F)cc4F)cc3)c(C(N)=O)c2N)C1

> <Shape>
0.318

> <Color>
0.149

> <Negative vol penalty>
0.000

$$$$

  -OEChem-04052302003D

 85 93  0     1  0  0  0  0  0999 V2000
  -26.6835  -40.0117   24.7931 C   0  0  0  0  0  0  0  0  0  0  0  0
  -27.4090  -39.2876   23.8525 C   0  0  0  0  0  0  0  0  0  0  0  0
  -24.5004   -9.0537   22.0670 C   0  0  0  0  0  0  0  0  0  0  0  0
  -24.2974   -8.4935   19.7256 C   0  0  0  0  0  0  0  0  0  0  0  0
  -26.1334  -39.3627   25.8978 C   0  0  0  0  0  0  0  0  0  0  0  0
  -27.5857  -37.9142   24.0165 C   0  0  0  0  0  0  0  0  0  0  0  0
  -28.2345  -31.8758   20.2174 C   0  0  0  0  0  0  0  0  0  0  0  0
  -23.3206   -8.3597   22.3354 C   0  0  0  0  0  0  0  0  0  0  0  0
  -23.1176   -7.7995   19.9940 C   0  0  0  0  0  0  0  0  0  0  0  0
  -29.0749  -30.7712   20.0857 C   0  0  0  0  0  0  0  0  0  0  0  0
  -22.3572   -5.1423   22.7263 C   0  0  0  0  0  0  0  0  0  0  0  0
  -22.3430   -4.2907   23.8309 C   0  0  0  0  0  0  0  0  0  0  0  0
  -28.1011  -20.5165   20.0637 C   0  0  0  0  0  0  0  0  0  0  0  0
  -29.8932  -20.3310   21.6732 C   0  0  0  0  0  0  0  0  0  0  0  0
  -28.0119  -29.7429   21.9915 C   0  0  0  0  0  0  0  0  0  0  0  0
  -20.5408   -5.5762   24.7989 C   0  0  0  0  0  0  0  0  0  0  0  0
  -24.9888   -9.1207   20.7621 C   0  0  0  0  0  0  0  0  0  0  0  0
  -28.8126  -19.7637   20.9979 C   0  0  0  0  0  0  0  0  0  0  0  0
  -29.5508  -22.4038   20.4801 C   0  0  0  0  0  0  0  0  0  0  0  0
  -27.5176   -9.3233   20.4935 C   0  0  0  0  0  0  0  0  0  0  0  0
  -26.2954  -37.9790   26.0704 C   0  0  0  0  0  0  0  0  0  0  0  0
  -27.2823  -31.9271   21.2455 C   0  0  0  0  0  0  0  0  0  0  0  0
  -27.0385  -37.2463   25.1252 C   0  0  0  0  0  0  0  0  0  0  0  0
  -27.1589  -30.8482   22.1325 C   0  0  0  0  0  0  0  0  0  0  0  0
  -28.4702  -21.8365   19.8048 C   0  0  0  0  0  0  0  0  0  0  0  0
  -30.2624  -21.6510   21.4144 C   0  0  0  0  0  0  0  0  0  0  0  0
  -22.6292   -7.7326   21.2989 C   0  0  0  0  0  0  0  0  0  0  0  0
  -28.9656  -29.7058   20.9746 C   0  0  0  0  0  0  0  0  0  0  0  0
  -21.4633   -6.2109   22.6580 C   0  0  0  0  0  0  0  0  0  0  0  0
  -21.4348   -4.5076   24.8672 C   0  0  0  0  0  0  0  0  0  0  0  0
  -20.5551   -6.4279   23.6943 C   0  0  0  0  0  0  0  0  0  0  0  0
  -26.2072   -9.8379   20.4842 C   0  0  0  0  0  0  0  0  0  0  0  0
  -28.3102  -10.3965   20.1671 C   0  0  0  0  0  0  0  0  0  0  0  0
  -28.4286  -18.3870   21.2681 C   0  0  0  0  0  0  0  0  0  0  0  0
  -29.9409  -23.7979   20.2052 C   0  0  0  0  0  0  0  0  0  0  0  0
  -27.6871  -17.6065   20.4534 C   0  0  0  0  0  0  0  0  0  0  0  0
  -29.4458  -24.8670   20.8443 C   0  0  0  0  0  0  0  0  0  0  0  0
  -27.9772   -7.9941   20.7721 C   0  0  0  0  0  0  0  0  0  0  0  0
  -29.9009  -26.2410   20.4831 C   0  0  0  0  0  0  0  0  0  0  0  0
  -27.3886  -16.2202   20.8656 C   0  0  0  0  0  0  0  0  0  0  0  0
  -26.7747  -33.8310   23.7398 C   0  0  0  0  0  0  0  0  0  0  0  0
  -24.0788  -32.0543   24.0526 C   0  0  0  0  0  0  0  0  0  0  0  0
  -22.4592  -29.1140   23.4375 C   0  0  0  0  0  0  0  0  0  0  0  0
  -25.7224  -37.3295   27.3051 C   0  0  0  0  0  0  0  0  0  0  0  0
  -26.3652  -33.1141   21.3577 C   0  0  0  0  0  0  0  0  0  0  0  0
  -26.1393  -30.8454   23.2410 C   0  0  0  0  0  0  0  0  0  0  0  0
  -25.6377  -35.8083   27.2096 C   0  0  0  0  0  0  0  0  0  0  0  0
  -28.2553  -14.5055   17.7446 C   0  0  0  0  0  0  0  0  0  0  0  0
  -26.9437  -35.2337   26.6700 C   0  0  0  0  0  0  0  0  0  0  0  0
  -27.8969  -13.0632   18.0927 C   0  0  0  0  0  0  0  0  0  0  0  0
  -27.3157  -15.5060   18.4159 C   0  0  0  0  0  0  0  0  0  0  0  0
  -26.8646  -13.8941   20.2431 C   0  0  0  0  0  0  0  0  0  0  0  0
  -27.2310  -35.7509   25.2552 C   0  0  1  0  0  0  0  0  0  0  0  0
  -25.7787  -33.2861   22.7555 C   0  0  1  0  0  0  0  0  0  0  0  0
  -27.8261  -12.8724   19.6161 C   0  0  1  0  0  0  0  0  0  0  0  0
  -27.6826  -22.6103   18.7964 C   0  0  0  0  0  0  0  0  0  0  0  0
  -31.4268  -22.2230   22.1585 C   0  0  0  0  0  0  0  0  0  0  0  0
  -20.2787  -27.9424   23.8499 C   0  0  0  0  0  0  0  0  0  0  0  0
  -24.9099  -31.5295   26.9412 C   0  0  0  0  0  0  0  0  0  0  0  0
  -23.2629  -29.6448   26.9993 C   0  0  0  0  0  0  0  0  0  0  0  0
  -22.4706  -31.9800   26.6229 C   0  0  0  0  0  0  0  0  0  0  0  0
  -21.8983  -28.8905   20.5402 C   0  0  0  0  0  0  0  0  0  0  0  0
  -29.2695  -27.3663   21.2754 C   0  0  0  0  0  0  0  0  0  1  0  0
  -23.7158  -30.7810   24.7779 C   0  0  1  0  0  0  0  0  0  0  0  0
  -21.0713  -28.8226   22.8961 C   0  0  2  0  0  0  0  0  0  0  0  0
  -23.6104  -30.9844   26.3157 C   0  0  0  0  0  0  0  0  0  0  0  0
  -26.1655  -11.1369   20.1765 N   0  0  0  0  0  0  0  0  0  0  0  0
  -27.4596  -11.4478   19.9895 N   0  0  0  0  0  0  0  0  0  0  0  0
  -27.2194  -15.2663   19.8637 N   0  0  0  0  0  0  0  0  0  0  0  0
  -25.2699  -32.0314   23.3132 N   0  0  0  0  0  0  0  0  0  0  0  0
  -29.6448  -10.5341   20.0178 N   0  0  0  0  0  0  0  0  0  0  0  0
  -27.0289   -7.0122   21.0900 N   0  0  0  0  0  0  0  0  0  0  0  0
  -26.4175  -35.0492   24.2856 N   0  0  0  0  0  0  0  0  0  0  0  0
  -22.4910  -30.2913   24.1546 N   0  0  0  0  0  0  0  0  0  0  0  0
  -21.1636  -28.1269   21.5815 N   0  3  0  0  0  0  0  0  0  0  0  0
  -29.1941   -7.6901   20.7562 O   0  0  0  0  0  0  0  0  0  0  0  0
  -30.7322  -26.4424   19.6020 O   0  0  0  0  0  0  0  0  0  0  0  0
  -27.3024  -15.9922   22.0736 O   0  0  0  0  0  0  0  0  0  0  0  0
  -27.7912  -33.1928   23.9869 O   0  0  0  0  0  0  0  0  0  0  0  0
  -23.3295  -33.0308   24.1331 O   0  0  0  0  0  0  0  0  0  0  0  0
  -23.4184  -28.3696   23.2468 O   0  0  0  0  0  0  0  0  0  0  0  0
  -21.4781   -7.0551   21.5604 O   0  0  0  0  0  0  0  0  0  0  0  0
  -29.7851  -28.6267   20.8487 O   0  0  0  0  0  0  0  0  0  1  0  0
  -21.4202   -3.6887   25.9271 F   0  0  0  0  0  0  0  0  0  0  0  0
  -19.6931   -7.4521   23.6338 F   0  0  0  0  0  0  0  0  0  0  0  0
  1  2  1  0  0  0  0
  1  5  2  0  0  0  0
  2  6  2  0  0  0  0
  3  8  2  0  0  0  0
  3 17  1  0  0  0  0
  4  9  1  0  0  0  0
  4 17  2  0  0  0  0
  5 21  1  0  0  0  0
  6 23  1  0  0  0  0
  7 10  2  0  0  0  0
  7 22  1  0  0  0  0
  8 27  1  0  0  0  0
  9 27  2  0  0  0  0
 10 28  1  0  0  0  0
 11 12  2  0  0  0  0
 11 29  1  0  0  0  0
 12 30  1  0  0  0  0
 13 18  1  0  0  0  0
 13 25  2  0  0  0  0
 14 18  2  0  0  0  0
 14 26  1  0  0  0  0
 15 24  1  0  0  0  0
 15 28  2  0  0  0  0
 16 30  2  0  0  0  0
 16 31  1  0  0  0  0
 17 32  1  0  0  0  0
 18 34  1  0  0  0  0
 19 25  1  0  0  0  0
 19 26  2  0  0  0  0
 19 35  1  0  0  0  0
 20 32  1  0  0  0  0
 20 33  2  0  0  0  0
 20 38  1  0  0  0  0
 21 23  2  0  0  0  0
 21 44  1  0  0  0  0
 22 24  2  0  0  0  0
 22 45  1  0  0  0  0
 23 53  1  0  0  0  0
 24 46  1  0  0  0  0
 25 56  1  0  0  0  0
 26 57  1  0  0  0  0
 27 82  1  0  0  0  0
 28 83  1  0  0  0  0
 29 31  2  0  0  0  0
 29 82  1  0  0  0  0
 30 84  1  0  0  0  0
 31 85  1  0  0  0  0
 32 67  2  0  0  0  0
 33 68  1  0  0  0  0
 33 71  1  0  0  0  0
 34 36  2  0  0  0  0
 35 37  2  0  0  0  0
 36 40  1  0  0  0  0
 37 39  1  0  0  0  0
 38 72  1  0  0  0  0
 38 76  2  0  0  0  0
 39 63  1  0  0  0  0
 39 77  2  0  0  0  0
 40 69  1  0  0  0  0
 40 78  2  0  0  0  0
 41 54  1  0  0  0  0
 41 73  1  0  0  0  0
 41 79  2  0  0  0  0
 42 64  1  0  0  0  0
 42 70  1  0  0  0  0
 42 80  2  0  0  0  0
 43 65  1  0  0  0  0
 43 74  1  0  0  0  0
 43 81  2  0  0  0  0
 44 47  1  0  0  0  0
 45 54  1  0  0  0  0
 46 70  1  0  0  0  0
 47 49  1  0  0  0  0
 48 50  1  0  0  0  0
 48 51  1  0  0  0  0
 49 53  1  0  0  0  0
 50 55  1  0  0  0  0
 51 69  1  0  0  0  0
 52 55  1  0  0  0  0
 52 69  1  0  0  0  0
 53 73  1  0  0  0  0
 54 70  1  0  0  0  0
 55 68  1  0  0  0  0
 58 65  1  0  0  0  0
 59 66  1  0  0  0  0
 60 66  1  0  0  0  0
 61 66  1  0  0  0  0
 62 75  1  0  0  0  0
 63 83  1  0  0  0  0
 64 66  1  0  0  0  0
 64 74  1  0  0  0  0
 65 75  1  0  0  0  0
 67 68  1  0  0  0  0
M  CHG  1  75   1
M  ISO  4  36 100  40 100  63 101  83 101
M  END
> <Batch ID>
0122

> <Smiles>
CNC(C)C(=O)NC(C(=O)N1Cc2cc([101O:1][101CH2:1]C(=O)C=Cc3c(C)cc(C=[100CH:0][100C:0](=O)N4CCCC(n5nc(-c6ccc(Oc7ccc(F)cc7F)cc6)c(C(N)=O)c5N)C4)cc3C)ccc2CC1C(=O)NC1CCCc2ccccc21)C(C)(C)C

> <Shape>
0.309

> <Color>
0.092

> <Negative vol penalty>
0.000

$$$$

  -OEChem-04052302003D

 85 93  0     1  0  0  0  0  0999 V2000
  -34.7445  -32.4443   18.6838 C   0  0  0  0  0  0  0  0  0  0  0  0
  -33.4639  -32.6525   19.1859 C   0  0  0  0  0  0  0  0  0  0  0  0
  -27.6594  -13.2351   18.6940 C   0  0  0  0  0  0  0  0  0  0  0  0
  -28.0847  -13.3715   21.0683 C   0  0  0  0  0  0  0  0  0  0  0  0
  -17.2199  -21.5199   18.5453 C   0  0  0  0  0  0  0  0  0  0  0  0
  -16.5364  -22.7353   18.5770 C   0  0  0  0  0  0  0  0  0  0  0  0
  -34.9712  -31.4298   17.7546 C   0  0  0  0  0  0  0  0  0  0  0  0
  -32.4090  -31.8471   18.7582 C   0  0  0  0  0  0  0  0  0  0  0  0
  -26.2846  -28.9604   21.0981 C   0  0  0  0  0  0  0  0  0  0  0  0
  -28.9506  -12.7482   18.4906 C   0  0  0  0  0  0  0  0  0  0  0  0
  -29.3759  -12.8845   20.8650 C   0  0  0  0  0  0  0  0  0  0  0  0
  -24.9370  -28.8673   20.7533 C   0  0  0  0  0  0  0  0  0  0  0  0
  -32.9050  -12.0178   20.9314 C   0  0  0  0  0  0  0  0  0  0  0  0
  -33.9511  -12.6564   21.5973 C   0  0  0  0  0  0  0  0  0  0  0  0
  -19.2753  -22.6611   19.1021 C   0  0  0  0  0  0  0  0  0  0  0  0
  -25.4619  -27.0942   19.2042 C   0  0  0  0  0  0  0  0  0  0  0  0
  -33.4020  -14.7250   20.4763 C   0  0  0  0  0  0  0  0  0  0  0  0
  -27.2265  -13.5468   19.9829 C   0  0  0  0  0  0  0  0  0  0  0  0
  -18.5894  -21.4828   18.8079 C   0  0  0  0  0  0  0  0  0  0  0  0
  -17.2223  -23.9137   18.8713 C   0  0  0  0  0  0  0  0  0  0  0  0
  -24.7301  -13.2980   20.4452 C   0  0  0  0  0  0  0  0  0  0  0  0
  -33.9204  -30.6054   17.3225 C   0  0  0  0  0  0  0  0  0  0  0  0
  -27.2342  -28.1271   20.4895 C   0  0  0  0  0  0  0  0  0  0  0  0
  -32.6216  -30.8216   17.8213 C   0  0  0  0  0  0  0  0  0  0  0  0
  -26.8207  -27.1769   19.5449 C   0  0  0  0  0  0  0  0  0  0  0  0
  -29.8088  -12.5729   19.5761 C   0  0  0  0  0  0  0  0  0  0  0  0
  -24.5258  -27.9361   19.8041 C   0  0  0  0  0  0  0  0  0  0  0  0
  -32.1074  -12.7328   20.0378 C   0  0  0  0  0  0  0  0  0  0  0  0
  -18.5918  -23.8766   19.1339 C   0  0  0  0  0  0  0  0  0  0  0  0
  -34.1996  -14.0100   21.3698 C   0  0  0  0  0  0  0  0  0  0  0  0
  -32.3559  -14.0864   19.8103 C   0  0  0  0  0  0  0  0  0  0  0  0
  -25.8930  -14.0504   20.1935 C   0  0  0  0  0  0  0  0  0  0  0  0
  -23.7347  -14.2360   20.5706 C   0  0  0  0  0  0  0  0  0  0  0  0
  -15.4904  -25.4195   19.7363 C   0  0  0  0  0  0  0  0  0  0  0  0
  -19.3017  -20.2151   18.7747 C   0  0  0  0  0  0  0  0  0  0  0  0
  -16.4856  -25.1702   18.8984 C   0  0  0  0  0  0  0  0  0  0  0  0
  -20.6361  -20.0700   18.6292 C   0  0  0  0  0  0  0  0  0  0  0  0
  -24.5645  -11.8781   20.5560 C   0  0  0  0  0  0  0  0  0  0  0  0
  -21.2131  -18.7107   18.6251 C   0  0  0  0  0  0  0  0  0  0  0  0
  -29.7902  -28.6008   18.6602 C   0  0  0  0  0  0  0  0  0  0  0  0
  -21.2741  -26.3921   19.4192 C   0  0  0  0  0  0  0  0  0  0  0  0
  -30.1700  -25.4014   19.0370 C   0  0  0  0  0  0  0  0  0  0  0  0
  -28.7459  -22.3745   19.7128 C   0  0  0  0  0  0  0  0  0  0  0  0
  -34.2051  -29.5523   16.2810 C   0  0  0  0  0  0  0  0  0  0  0  0
  -28.6804  -28.2216   20.8919 C   0  0  0  0  0  0  0  0  0  0  0  0
  -27.7977  -26.2451   18.8772 C   0  0  0  0  0  0  0  0  0  0  0  0
  -33.1050  -28.5008   16.1614 C   0  0  0  0  0  0  0  0  0  0  0  0
  -23.9574  -19.2563   20.9922 C   0  0  0  0  0  0  0  0  0  0  0  0
  -31.7333  -29.1664   16.1134 C   0  0  0  0  0  0  0  0  0  0  0  0
  -24.6372  -17.8898   20.9737 C   0  0  0  0  0  0  0  0  0  0  0  0
  -23.3756  -19.6240   19.6280 C   0  0  0  0  0  0  0  0  0  0  0  0
  -23.1308  -17.2248   19.0583 C   0  0  0  0  0  0  0  0  0  0  0  0
  -31.4563  -29.9528   17.4004 C   0  0  1  0  0  0  0  0  0  0  0  0
  -29.6324  -27.6746   19.8328 C   0  0  1  0  0  0  0  0  0  0  0  0
  -23.6822  -16.8141   20.4326 C   0  0  1  0  0  0  0  0  0  0  0  0
  -29.3031  -19.9358   19.9118 C   0  0  0  0  0  0  0  0  0  0  0  0
  -30.2967  -25.1847   15.9961 C   0  0  0  0  0  0  0  0  0  0  0  0
  -29.8961  -22.7239   16.2244 C   0  0  0  0  0  0  0  0  0  0  0  0
  -31.9436  -23.7496   17.2138 C   0  0  0  0  0  0  0  0  0  0  0  0
  -27.9089  -22.2959   22.5504 C   0  0  0  0  0  0  0  0  0  0  0  0
  -22.7347  -26.5627   19.0548 C   0  0  0  0  0  0  0  0  0  1  0  0
  -20.6528  -25.0604   19.0511 C   0  0  0  0  0  0  0  0  0  0  0  0
  -29.6981  -24.1741   18.2953 C   0  0  1  0  0  0  0  0  0  0  0  0
  -29.1565  -21.2556   20.6530 C   0  0  2  0  0  0  0  0  0  0  0  0
  -30.4402  -23.9768   16.9434 C   0  0  0  0  0  0  0  0  0  0  0  0
  -25.6595  -15.3651   20.1604 N   0  0  0  0  0  0  0  0  0  0  0  0
  -24.3383  -15.4461   20.3928 N   0  0  0  0  0  0  0  0  0  0  0  0
  -22.5122  -18.5544   19.1051 N   0  0  0  0  0  0  0  0  0  0  0  0
  -29.2015  -26.3806   19.2997 N   0  0  0  0  0  0  0  0  0  0  0  0
  -22.4107  -14.1356   20.8142 N   0  0  0  0  0  0  0  0  0  0  0  0
  -25.6916  -11.0598   20.4003 N   0  0  0  0  0  0  0  0  0  0  0  0
  -31.0818  -29.0540   18.4711 N   0  0  0  0  0  0  0  0  0  0  0  0
  -29.8393  -23.0571   19.2231 N   0  0  0  0  0  0  0  0  0  0  0  0
  -28.1376  -21.0810   21.7265 N   0  3  0  0  0  0  0  0  0  0  0  0
  -23.4471  -11.3498   20.7699 O   0  0  0  0  0  0  0  0  0  0  0  0
  -20.5102  -17.7959   18.1917 O   0  0  0  0  0  0  0  0  0  0  0  0
  -28.8128  -28.8822   17.9768 O   0  0  0  0  0  0  0  0  0  0  0  0
  -20.6326  -27.2800   19.9788 O   0  0  0  0  0  0  0  0  0  0  0  0
  -31.3528  -25.4849   19.3772 O   0  0  0  0  0  0  0  0  0  0  0  0
  -27.5728  -22.6163   19.4372 O   0  0  0  0  0  0  0  0  0  0  0  0
  -31.0687  -12.0976   19.3781 O   0  0  0  0  0  0  0  0  0  0  0  0
  -23.2111  -27.8437   19.4653 O   0  0  0  0  0  0  0  0  0  1  0  0
  -19.2920  -25.0231   19.4262 O   0  0  0  0  0  0  0  0  0  0  0  0
  -35.2032  -14.6235   22.0106 F   0  0  0  0  0  0  0  0  0  0  0  0
  -31.5923  -14.7787   18.9540 F   0  0  0  0  0  0  0  0  0  0  0  0
  1  2  1  0  0  0  0
  1  7  2  0  0  0  0
  2  8  2  0  0  0  0
  3 10  2  0  0  0  0
  3 18  1  0  0  0  0
  4 11  1  0  0  0  0
  4 18  2  0  0  0  0
  5  6  2  0  0  0  0
  5 19  1  0  0  0  0
  6 20  1  0  0  0  0
  7 22  1  0  0  0  0
  8 24  1  0  0  0  0
  9 12  2  0  0  0  0
  9 23  1  0  0  0  0
 10 26  1  0  0  0  0
 11 26  2  0  0  0  0
 12 27  1  0  0  0  0
 13 14  2  0  0  0  0
 13 28  1  0  0  0  0
 14 30  1  0  0  0  0
 15 19  2  0  0  0  0
 15 29  1  0  0  0  0
 16 25  1  0  0  0  0
 16 27  2  0  0  0  0
 17 30  2  0  0  0  0
 17 31  1  0  0  0  0
 18 32  1  0  0  0  0
 19 35  1  0  0  0  0
 20 29  2  0  0  0  0
 20 36  1  0  0  0  0
 21 32  1  0  0  0  0
 21 33  2  0  0  0  0
 21 38  1  0  0  0  0
 22 24  2  0  0  0  0
 22 44  1  0  0  0  0
 23 25  2  0  0  0  0
 23 45  1  0  0  0  0
 24 53  1  0  0  0  0
 25 46  1  0  0  0  0
 26 81  1  0  0  0  0
 27 82  1  0  0  0  0
 28 31  2  0  0  0  0
 28 81  1  0  0  0  0
 29 83  1  0  0  0  0
 30 84  1  0  0  0  0
 31 85  1  0  0  0  0
 32 66  2  0  0  0  0
 33 67  1  0  0  0  0
 33 70  1  0  0  0  0
 34 36  2  0  0  0  0
 35 37  2  0  0  0  0
 37 39  1  0  0  0  0
 38 71  1  0  0  0  0
 38 75  2  0  0  0  0
 39 68  1  0  0  0  0
 39 76  2  0  0  0  0
 40 54  1  0  0  0  0
 40 72  1  0  0  0  0
 40 77  2  0  0  0  0
 41 61  1  0  0  0  0
 41 62  1  0  0  0  0
 41 78  2  0  0  0  0
 42 63  1  0  0  0  0
 42 69  1  0  0  0  0
 42 79  2  0  0  0  0
 43 64  1  0  0  0  0
 43 73  1  0  0  0  0
 43 80  2  0  0  0  0
 44 47  1  0  0  0  0
 45 54  1  0  0  0  0
 46 69  1  0  0  0  0
 47 49  1  0  0  0  0
 48 50  1  0  0  0  0
 48 51  1  0  0  0  0
 49 53  1  0  0  0  0
 50 55  1  0  0  0  0
 51 68  1  0  0  0  0
 52 55  1  0  0  0  0
 52 68  1  0  0  0  0
 53 72  1  0  0  0  0
 54 69  1  0  0  0  0
 55 67  1  0  0  0  0
 56 64  1  0  0  0  0
 57 65  1  0  0  0  0
 58 65  1  0  0  0  0
 59 65  1  0  0  0  0
 60 74  1  0  0  0  0
 61 82  1  0  0  0  0
 62 83  1  0  0  0  0
 63 65  1  0  0  0  0
 63 73  1  0  0  0  0
 64 74  1  0  0  0  0
 66 67  1  0  0  0  0
M  CHG  1  74   1
M  ISO  4  37 100  39 100  61 101  82 101
M  END
> <Batch ID>
0122

> <Smiles>
C=Cc1ccc(C=[100CH:0][100C:0](=O)N2CCCC(n3nc(-c4ccc(Oc5ccc(F)cc5F)cc4)c(C(N)=O)c3N)C2)cc1OCC(=O)[101CH2:1][101O:1]c1ccc2c(c1)CN(C(=O)C(NC(=O)C(C)NC)C(C)(C)C)C(C(=O)NC1CCCc3ccccc31)C2

> <Shape>
0.223

> <Color>
0.079

> <Negative vol penalty>
0.000

$$$$

  -OEChem-04052302003D

 83 91  0     1  0  0  0  0  0999 V2000
  -24.5655  -33.0675   14.1948 C   0  0  0  0  0  0  0  0  0  0  0  0
  -25.3775  -32.1986   14.9166 C   0  0  0  0  0  0  0  0  0  0  0  0
  -24.3979   -9.2075   22.0329 C   0  0  0  0  0  0  0  0  0  0  0  0
  -23.4204   -9.3995   19.8318 C   0  0  0  0  0  0  0  0  0  0  0  0
  -24.0052  -34.1794   14.8222 C   0  0  0  0  0  0  0  0  0  0  0  0
  -25.6306  -32.4417   16.2662 C   0  0  0  0  0  0  0  0  0  0  0  0
  -25.2357  -28.2636   19.1003 C   0  0  0  0  0  0  0  0  0  0  0  0
  -23.3671   -8.3493   22.4158 C   0  0  0  0  0  0  0  0  0  0  0  0
  -22.3897   -8.5412   20.2147 C   0  0  0  0  0  0  0  0  0  0  0  0
  -26.3047  -27.3692   19.0684 C   0  0  0  0  0  0  0  0  0  0  0  0
  -22.5530   -5.0937   22.0015 C   0  0  0  0  0  0  0  0  0  0  0  0
  -22.8980   -3.9395   22.7046 C   0  0  0  0  0  0  0  0  0  0  0  0
  -29.6153  -20.6769   21.3123 C   0  0  0  0  0  0  0  0  0  0  0  0
  -31.9727  -20.1492   21.2886 C   0  0  0  0  0  0  0  0  0  0  0  0
  -31.2512  -22.4548   21.3097 C   0  0  0  0  0  0  0  0  0  0  0  0
  -27.1086  -28.2648   21.1590 C   0  0  0  0  0  0  0  0  0  0  0  0
  -21.5356   -4.6645   24.5634 C   0  0  0  0  0  0  0  0  0  0  0  0
  -24.4245   -9.7326   20.7409 C   0  0  0  0  0  0  0  0  0  0  0  0
  -30.6416  -19.7325   21.2973 C   0  0  0  0  0  0  0  0  0  0  0  0
  -29.9200  -22.0381   21.3184 C   0  0  0  0  0  0  0  0  0  0  0  0
  -26.7215  -10.2632   19.7662 C   0  0  0  0  0  0  0  0  0  0  0  0
  -24.2438  -34.4310   16.1825 C   0  0  0  0  0  0  0  0  0  0  0  0
  -25.1009  -29.1743   20.1581 C   0  0  0  0  0  0  0  0  0  0  0  0
  -25.0741  -33.5588   16.9120 C   0  0  0  0  0  0  0  0  0  0  0  0
  -26.0356  -29.1680   21.2033 C   0  0  0  0  0  0  0  0  0  0  0  0
  -22.3630   -8.0161   21.5067 C   0  0  0  0  0  0  0  0  0  0  0  0
  -27.2429  -27.3716   20.0963 C   0  0  0  0  0  0  0  0  0  0  0  0
  -21.6994   -6.0335   22.5794 C   0  0  0  0  0  0  0  0  0  0  0  0
  -22.3893   -3.7249   23.9855 C   0  0  0  0  0  0  0  0  0  0  0  0
  -32.2776  -21.5103   21.2948 C   0  0  0  0  0  0  0  0  0  0  0  0
  -21.1907   -5.8188   23.8604 C   0  0  0  0  0  0  0  0  0  0  0  0
  -25.4887  -10.6197   20.3449 C   0  0  0  0  0  0  0  0  0  0  0  0
  -27.3721  -11.4585   19.5806 C   0  0  0  0  0  0  0  0  0  0  0  0
  -30.3234  -18.3132   21.2914 C   0  0  0  0  0  0  0  0  0  0  0  0
  -29.1471  -17.7727   21.6747 C   0  0  0  0  0  0  0  0  0  0  0  0
  -29.0863  -24.3541   20.6819 C   0  0  0  0  0  0  0  0  0  0  0  0
  -28.1228  -25.2782   20.6568 C   0  0  0  0  0  0  0  0  0  1  0  0
  -28.8293  -23.0427   21.3333 C   0  0  0  0  0  0  0  0  0  0  0  0
  -27.2328   -8.9674   19.4266 C   0  0  0  0  0  0  0  0  0  0  0  0
  -28.9735  -16.3080   21.6012 C   0  0  0  0  0  0  0  0  0  0  0  0
  -25.0864  -32.3435   20.4015 C   0  0  0  0  0  0  0  0  0  0  0  0
  -24.3295  -31.7133   23.4921 C   0  0  0  0  0  0  0  0  0  0  0  0
  -24.4149  -29.5220   26.1070 C   0  0  0  0  0  0  0  0  0  0  0  0
  -23.6546  -35.6718   16.8055 C   0  0  0  0  0  0  0  0  0  0  0  0
  -23.9274  -30.1145   20.1913 C   0  0  0  0  0  0  0  0  0  0  0  0
  -25.9249  -30.1118   22.3718 C   0  0  0  0  0  0  0  0  0  0  0  0
  -23.6683  -35.6523   18.3319 C   0  0  0  0  0  0  0  0  0  0  0  0
  -25.7180  -16.2102   19.9209 C   0  0  0  0  0  0  0  0  0  0  0  0
  -25.0311  -35.2010   18.8478 C   0  0  0  0  0  0  0  0  0  0  0  0
  -25.4534  -14.7075   19.8805 C   0  0  0  0  0  0  0  0  0  0  0  0
  -26.4754  -16.6237   21.1817 C   0  0  0  0  0  0  0  0  0  0  0  0
  -27.4796  -14.3645   21.3492 C   0  0  0  0  0  0  0  0  0  0  0  0
  -25.3520  -33.7751   18.3838 C   0  0  1  0  0  0  0  0  0  0  0  0
  -24.1731  -31.3465   21.0569 C   0  0  1  0  0  0  0  0  0  0  0  0
  -26.7598  -13.9196   20.0665 C   0  0  1  0  0  0  0  0  0  0  0  0
  -23.7500  -29.3038   28.5169 C   0  0  0  0  0  0  0  0  0  0  0  0
  -26.6777  -33.4872   24.2980 C   0  0  0  0  0  0  0  0  0  0  0  0
  -26.5556  -32.4880   26.5904 C   0  0  0  0  0  0  0  0  0  0  0  0
  -24.6216  -33.7816   25.6910 C   0  0  0  0  0  0  0  0  0  0  0  0
  -22.6298  -27.2336   25.5277 C   0  0  0  0  0  0  0  0  0  0  0  0
  -25.1161  -31.4837   24.7600 C   0  0  1  0  0  0  0  0  0  0  0  0
  -23.3372  -29.0640   27.0730 C   0  0  2  0  0  0  0  0  0  0  0  0
  -25.7462  -32.7935   25.3120 C   0  0  0  0  0  0  0  0  0  0  0  0
  -25.3615  -11.9382   20.5159 N   0  0  0  0  0  0  0  0  0  0  0  0
  -26.5227  -12.4207   20.0418 N   0  0  0  0  0  0  0  0  0  0  0  0
  -27.6902  -15.8163   21.3690 N   0  0  0  0  0  0  0  0  0  0  0  0
  -24.7633  -31.0162   22.3556 N   0  0  0  0  0  0  0  0  0  0  0  0
  -28.5822  -11.7698   19.0696 N   0  0  0  0  0  0  0  0  0  0  0  0
  -26.4337   -7.8453   19.6844 N   0  0  0  0  0  0  0  0  0  0  0  0
  -24.6296  -32.8089   19.1831 N   0  0  0  0  0  0  0  0  0  0  0  0
  -24.2082  -30.8196   25.6890 N   0  0  0  0  0  0  0  0  0  0  0  0
  -23.0679  -27.6089   26.8967 N   0  3  0  0  0  0  0  0  0  0  0  0
  -27.7526  -22.7649   21.8503 O   0  0  0  0  0  0  0  0  0  0  0  0
  -28.3714   -8.8081   18.9249 O   0  0  0  0  0  0  0  0  0  0  0  0
  -29.9762  -15.6082   21.7549 O   0  0  0  0  0  0  0  0  0  0  0  0
  -26.1276  -32.6678   20.9604 O   0  0  0  0  0  0  0  0  0  0  0  0
  -23.3613  -32.4775   23.5112 O   0  0  0  0  0  0  0  0  0  0  0  0
  -25.3489  -28.8019   25.7608 O   0  0  0  0  0  0  0  0  0  0  0  0
  -21.3572   -7.1785   21.8799 O   0  0  0  0  0  0  0  0  0  0  0  0
  -28.2877  -26.5001   20.0673 O   0  0  0  0  0  0  0  0  0  1  0  0
  -22.7194   -2.6156   24.6599 F   0  0  0  0  0  0  0  0  0  0  0  0
  -33.5558  -21.9114   21.2873 F   0  0  0  0  0  0  0  0  0  0  0  0
  -20.3692   -6.7174   24.4203 F   0  0  0  0  0  0  0  0  0  0  0  0
  1  2  1  0  0  0  0
  1  5  2  0  0  0  0
  2  6  2  0  0  0  0
  3  8  2  0  0  0  0
  3 18  1  0  0  0  0
  4  9  1  0  0  0  0
  4 18  2  0  0  0  0
  5 22  1  0  0  0  0
  6 24  1  0  0  0  0
  7 10  2  0  0  0  0
  7 23  1  0  0  0  0
  8 26  1  0  0  0  0
  9 26  2  0  0  0  0
 10 27  1  0  0  0  0
 11 12  2  0  0  0  0
 11 28  1  0  0  0  0
 12 29  1  0  0  0  0
 13 19  1  0  0  0  0
 13 20  2  0  0  0  0
 14 19  2  0  0  0  0
 14 30  1  0  0  0  0
 15 20  1  0  0  0  0
 15 30  2  0  0  0  0
 16 25  1  0  0  0  0
 16 27  2  0  0  0  0
 17 29  2  0  0  0  0
 17 31  1  0  0  0  0
 18 32  1  0  0  0  0
 19 34  1  0  0  0  0
 20 38  1  0  0  0  0
 21 32  1  0  0  0  0
 21 33  2  0  0  0  0
 21 39  1  0  0  0  0
 22 24  2  0  0  0  0
 22 44  1  0  0  0  0
 23 25  2  0  0  0  0
 23 45  1  0  0  0  0
 24 53  1  0  0  0  0
 25 46  1  0  0  0  0
 26 79  1  0  0  0  0
 27 80  1  0  0  0  0
 28 31  2  0  0  0  0
 28 79  1  0  0  0  0
 29 81  1  0  0  0  0
 30 82  1  0  0  0  0
 31 83  1  0  0  0  0
 32 64  2  0  0  0  0
 33 65  1  0  0  0  0
 33 68  1  0  0  0  0
 34 35  2  0  0  0  0
 35 40  1  0  0  0  0
 36 37  2  0  0  0  0
 36 38  1  0  0  0  0
 37 80  1  0  0  0  0
 38 73  2  0  0  0  0
 39 69  1  0  0  0  0
 39 74  2  0  0  0  0
 40 66  1  0  0  0  0
 40 75  2  0  0  0  0
 41 54  1  0  0  0  0
 41 70  1  0  0  0  0
 41 76  2  0  0  0  0
 42 61  1  0  0  0  0
 42 67  1  0  0  0  0
 42 77  2  0  0  0  0
 43 62  1  0  0  0  0
 43 71  1  0  0  0  0
 43 78  2  0  0  0  0
 44 47  1  0  0  0  0
 45 54  1  0  0  0  0
 46 67  1  0  0  0  0
 47 49  1  0  0  0  0
 48 50  1  0  0  0  0
 48 51  1  0  0  0  0
 49 53  1  0  0  0  0
 50 55  1  0  0  0  0
 51 66  1  0  0  0  0
 52 55  1  0  0  0  0
 52 66  1  0  0  0  0
 53 70  1  0  0  0  0
 54 67  1  0  0  0  0
 55 65  1  0  0  0  0
 56 62  1  0  0  0  0
 57 63  1  0  0  0  0
 58 63  1  0  0  0  0
 59 63  1  0  0  0  0
 60 72  1  0  0  0  0
 61 63  1  0  0  0  0
 61 71  1  0  0  0  0
 62 72  1  0  0  0  0
 64 65  1  0  0  0  0
M  CHG  1  72   1
M  ISO  4  35 100  37 101  40 100  80 101
M  END
> <Batch ID>
0122

> <Smiles>
CNC(C)C(=O)NC(C(=O)N1Cc2cc([101O:1][101CH:1]=CC(=O)c3cc(F)cc(C=[100CH:0][100C:0](=O)N4CCCC(n5nc(-c6ccc(Oc7ccc(F)cc7F)cc6)c(C(N)=O)c5N)C4)c3)ccc2CC1C(=O)NC1CCCc2ccccc21)C(C)(C)C

> <Shape>
0.285

> <Color>
0.139

> <Negative vol penalty>
0.000

$$$$

  -OEChem-04052302003D

 86 94  0     1  0  0  0  0  0999 V2000
  -28.9139  -11.2232   19.4792 C   0  0  0  0  0  0  0  0  0  0  0  0
  -28.4689  -11.8846   20.6193 C   0  0  0  0  0  0  0  0  0  0  0  0
  -23.9934  -32.4980   21.0509 C   0  0  0  0  0  0  0  0  0  0  0  0
  -25.3576  -31.1264   22.4983 C   0  0  0  0  0  0  0  0  0  0  0  0
  -19.7833  -21.4895   25.0846 C   0  0  0  0  0  0  0  0  0  0  0  0
  -29.8271  -11.8427   18.6270 C   0  0  0  0  0  0  0  0  0  0  0  0
  -28.9377  -13.1657   20.9084 C   0  0  0  0  0  0  0  0  0  0  0  0
  -25.2356  -16.3131   22.3347 C   0  0  0  0  0  0  0  0  0  0  0  0
  -19.6558  -22.7466   25.6752 C   0  0  0  0  0  0  0  0  0  0  0  0
  -24.7555  -33.6154   21.3915 C   0  0  0  0  0  0  0  0  0  0  0  0
  -26.1198  -32.2439   22.8389 C   0  0  0  0  0  0  0  0  0  0  0  0
  -24.7694  -16.1961   23.6434 C   0  0  0  0  0  0  0  0  0  0  0  0
  -27.7565  -34.9319   20.5584 C   0  0  0  0  0  0  0  0  0  0  0  0
  -28.1596  -35.7804   19.5273 C   0  0  0  0  0  0  0  0  0  0  0  0
  -26.1214  -18.0873   24.2875 C   0  0  0  0  0  0  0  0  0  0  0  0
  -21.9661  -23.2253   25.1549 C   0  0  0  0  0  0  0  0  0  0  0  0
  -26.9727  -37.6093   20.5683 C   0  0  0  0  0  0  0  0  0  0  0  0
  -24.2944  -31.2534   21.6043 C   0  0  0  0  0  0  0  0  0  0  0  0
  -21.0022  -21.1001   24.5293 C   0  0  0  0  0  0  0  0  0  0  0  0
  -23.7365  -29.2048   20.1904 C   0  0  0  0  0  0  0  0  0  0  0  0
  -30.2999  -13.1358   18.9007 C   0  0  0  0  0  0  0  0  0  0  0  0
  -26.1581  -17.3129   21.9943 C   0  0  0  0  0  0  0  0  0  0  0  0
  -29.8590  -13.8026   20.0597 C   0  0  0  0  0  0  0  0  0  0  0  0
  -26.5958  -18.2164   22.9733 C   0  0  0  0  0  0  0  0  0  0  0  0
  -20.7471  -23.6146   25.7104 C   0  0  0  0  0  0  0  0  0  0  0  0
  -22.0935  -21.9681   24.5644 C   0  0  0  0  0  0  0  0  0  0  0  0
  -25.8187  -33.4884   22.2854 C   0  0  0  0  0  0  0  0  0  0  0  0
  -25.2145  -17.0815   24.6207 C   0  0  0  0  0  0  0  0  0  0  0  0
  -26.9615  -35.4221   21.5944 C   0  0  0  0  0  0  0  0  0  0  0  0
  -27.7677  -37.1191   19.5323 C   0  0  0  0  0  0  0  0  0  0  0  0
  -26.5696  -36.7607   21.5994 C   0  0  0  0  0  0  0  0  0  0  0  0
  -23.5072  -30.0988   21.2534 C   0  0  0  0  0  0  0  0  0  0  0  0
  -22.7168  -28.2895   20.2855 C   0  0  0  0  0  0  0  0  0  0  0  0
  -21.5289  -18.6349   24.7989 C   0  0  0  0  0  0  0  0  0  0  0  0
  -21.7760  -18.8498   26.0981 C   0  0  0  0  0  0  0  0  0  0  0  0
  -21.1100  -19.7520   23.9052 C   0  0  0  0  0  0  0  0  0  0  0  0
  -24.7781  -29.2018   19.2051 C   0  0  0  0  0  0  0  0  0  0  0  0
  -29.1318  -17.3331   20.8716 C   0  0  0  0  0  0  0  0  0  0  0  0
  -28.6372  -20.5354   20.7186 C   0  0  0  0  0  0  0  0  0  0  0  0
  -26.9262  -23.2603   21.8562 C   0  0  0  0  0  0  0  0  0  0  0  0
  -19.3028  -26.4483   24.8469 C   0  0  0  0  0  0  0  0  0  0  0  0
  -31.3225  -13.7459   17.9751 C   0  0  0  0  0  0  0  0  0  0  0  0
  -26.6309  -17.4424   20.5723 C   0  0  0  0  0  0  0  0  0  0  0  0
  -27.5702  -19.3199   22.6550 C   0  0  0  0  0  0  0  0  0  0  0  0
  -31.4841  -15.2532   18.1546 C   0  0  0  0  0  0  0  0  0  0  0  0
  -18.1904  -27.8682   21.7772 C   0  0  0  0  0  0  0  0  0  0  0  0
  -31.5950  -15.6056   19.6345 C   0  0  0  0  0  0  0  0  0  0  0  0
  -19.4476  -28.5202   21.1989 C   0  0  0  0  0  0  0  0  0  0  0  0
  -18.1390  -27.9923   23.2984 C   0  0  0  0  0  0  0  0  0  0  0  0
  -20.5953  -28.1505   23.4226 C   0  0  0  0  0  0  0  0  0  0  0  0
  -30.3254  -15.2028   20.3943 C   0  0  1  0  0  0  0  0  0  0  0  0
  -27.9623  -18.1770   20.4499 C   0  0  1  0  0  0  0  0  0  0  0  0
  -20.7196  -28.0019   21.8966 C   0  0  2  0  0  0  0  0  0  0  0  0
  -23.4101  -21.5770   23.9765 C   0  0  0  0  0  0  0  0  0  0  0  0
  -26.1692  -25.6496   21.9796 C   0  0  0  0  0  0  0  0  0  0  0  0
  -31.1945  -20.8818   22.3466 C   0  0  0  0  0  0  0  0  0  0  0  0
  -30.4847  -23.2333   22.8311 C   0  0  0  0  0  0  0  0  0  0  0  0
  -30.9162  -22.5221   20.4794 C   0  0  0  0  0  0  0  0  0  0  0  0
  -24.7670  -22.7994   19.8853 C   0  0  0  0  0  0  0  0  0  0  0  0
  -20.6105  -24.9593   26.3409 C   0  0  0  0  0  0  0  0  0  0  0  0
  -22.1923  -17.7637   27.0486 C   0  0  0  0  0  0  0  0  0  0  0  0
  -23.5578  -18.0241   27.6862 C   0  0  0  0  0  0  0  0  0  0  0  0
  -24.6827  -18.1687   26.6679 C   0  0  0  0  0  0  0  0  0  1  0  0
  -28.8412  -21.6950   21.6635 C   0  0  1  0  0  0  0  0  0  0  0  0
  -26.2373  -24.3960   21.1214 C   0  0  2  0  0  0  0  0  0  0  0  0
  -30.3423  -22.0612   21.8369 C   0  0  0  0  0  0  0  0  0  0  0  0
  -22.4266  -29.7804   21.9710 N   0  0  0  0  0  0  0  0  0  0  0  0
  -20.7910  -19.5978   22.6596 N   0  0  0  0  0  0  0  0  0  0  0  0
  -21.9677  -28.6761   21.3577 N   0  0  0  0  0  0  0  0  0  0  0  0
  -28.0081  -19.4014   21.2517 N   0  0  0  0  0  0  0  0  0  0  0  0
  -19.3741  -27.4820   23.8985 N   0  0  0  0  0  0  0  0  0  0  0  0
  -22.3968  -27.1998   19.5558 N   0  0  0  0  0  0  0  0  0  0  0  0
  -25.7453  -30.2150   19.2524 N   0  0  0  0  0  0  0  0  0  0  0  0
  -29.2672  -16.1602   20.1536 N   0  0  0  0  0  0  0  0  0  0  0  0
  -28.0149  -22.7851   21.1561 N   0  0  0  0  0  0  0  0  0  0  0  0
  -20.5201  -26.0191   25.3614 N   0  0  0  0  0  0  0  0  0  0  0  0
  -24.8481  -24.0050   20.7495 N   0  3  0  0  0  0  0  0  0  0  0  0
  -24.8396  -28.3361   18.2995 O   0  0  0  0  0  0  0  0  0  0  0  0
  -29.8584  -17.7183   21.7800 O   0  0  0  0  0  0  0  0  0  0  0  0
  -29.0155  -20.6348   19.5487 O   0  0  0  0  0  0  0  0  0  0  0  0
  -26.5396  -22.8394   22.9443 O   0  0  0  0  0  0  0  0  0  0  0  0
  -18.2341  -25.9415   25.2044 O   0  0  0  0  0  0  0  0  0  0  0  0
  -26.5628  -34.5786   22.6178 O   0  0  0  0  0  0  0  0  0  0  0  0
  -24.7616  -16.9692   25.8990 O   0  0  0  0  0  0  0  0  0  1  0  0
  -28.1561  -37.9342   18.5428 F   0  0  0  0  0  0  0  0  0  0  0  0
  -25.8069  -37.2377   22.5927 F   0  0  0  0  0  0  0  0  0  0  0  0
  1  2  1  0  0  0  0
  1  6  2  0  0  0  0
  2  7  2  0  0  0  0
  3 10  2  0  0  0  0
  3 18  1  0  0  0  0
  4 11  1  0  0  0  0
  4 18  2  0  0  0  0
  5  9  2  0  0  0  0
  5 19  1  0  0  0  0
  6 21  1  0  0  0  0
  7 23  1  0  0  0  0
  8 12  2  0  0  0  0
  8 22  1  0  0  0  0
  9 25  1  0  0  0  0
 10 27  1  0  0  0  0
 11 27  2  0  0  0  0
 12 28  1  0  0  0  0
 13 14  2  0  0  0  0
 13 29  1  0  0  0  0
 14 30  1  0  0  0  0
 15 24  1  0  0  0  0
 15 28  2  0  0  0  0
 16 25  2  0  0  0  0
 16 26  1  0  0  0  0
 17 30  2  0  0  0  0
 17 31  1  0  0  0  0
 18 32  1  0  0  0  0
 19 26  2  0  0  0  0
 19 36  1  0  0  0  0
 20 32  1  0  0  0  0
 20 33  2  0  0  0  0
 20 37  1  0  0  0  0
 21 23  2  0  0  0  0
 21 42  1  0  0  0  0
 22 24  2  0  0  0  0
 22 43  1  0  0  0  0
 23 51  1  0  0  0  0
 24 44  1  0  0  0  0
 25 60  1  0  0  0  0
 26 54  1  0  0  0  0
 27 83  1  0  0  0  0
 28 84  1  0  0  0  0
 29 31  2  0  0  0  0
 29 83  1  0  0  0  0
 30 85  1  0  0  0  0
 31 86  1  0  0  0  0
 32 67  2  0  0  0  0
 33 69  1  0  0  0  0
 33 72  1  0  0  0  0
 34 35  2  0  0  0  0
 34 36  1  0  0  0  0
 35 61  1  0  0  0  0
 36 68  2  0  0  0  0
 37 73  1  0  0  0  0
 37 78  2  0  0  0  0
 38 52  1  0  0  0  0
 38 74  1  0  0  0  0
 38 79  2  0  0  0  0
 39 64  1  0  0  0  0
 39 70  1  0  0  0  0
 39 80  2  0  0  0  0
 40 65  1  0  0  0  0
 40 75  1  0  0  0  0
 40 81  2  0  0  0  0
 41 71  1  0  0  0  0
 41 76  1  0  0  0  0
 41 82  2  0  0  0  0
 42 45  1  0  0  0  0
 43 52  1  0  0  0  0
 44 70  1  0  0  0  0
 45 47  1  0  0  0  0
 46 48  1  0  0  0  0
 46 49  1  0  0  0  0
 47 51  1  0  0  0  0
 48 53  1  0  0  0  0
 49 71  1  0  0  0  0
 50 53  1  0  0  0  0
 50 71  1  0  0  0  0
 51 74  1  0  0  0  0
 52 70  1  0  0  0  0
 53 69  1  0  0  0  0
 55 65  1  0  0  0  0
 56 66  1  0  0  0  0
 57 66  1  0  0  0  0
 58 66  1  0  0  0  0
 59 77  1  0  0  0  0
 60 76  1  0  0  0  0
 61 62  1  0  0  0  0
 62 63  1  0  0  0  0
 63 84  1  0  0  0  0
 64 66  1  0  0  0  0
 64 75  1  0  0  0  0
 65 77  1  0  0  0  0
 67 69  1  0  0  0  0
M  CHG  1  77   1
M  ISO  4  41 100  63 101  76 100  84 101
M  END
> <Batch ID>
0122

> <Smiles>
CNC(C)C(=O)NC(C(=O)N1Cc2cc([101O:1][101CH2:1]CCC=CC(=N)c3ccc(C[100NH:0][100C:0](=O)N4CCCC(n5nc(-c6ccc(Oc7ccc(F)cc7F)cc6)c(C(N)=O)c5N)C4)cc3C)ccc2CC1C(=O)NC1CCCc2ccccc21)C(C)(C)C

> <Shape>
0.204

> <Color>
0.064

> <Negative vol penalty>
0.000

$$$$

  -OEChem-04052302003D

 87 95  0     1  0  0  0  0  0999 V2000
  -32.1529  -13.9334   21.4285 C   0  0  0  0  0  0  0  0  0  0  0  0
  -31.3060  -14.9242   21.9122 C   0  0  0  0  0  0  0  0  0  0  0  0
  -28.4934  -25.3872   18.2575 C   0  0  0  0  0  0  0  0  0  0  0  0
  -27.2050  -24.0117   19.7691 C   0  0  0  0  0  0  0  0  0  0  0  0
  -31.6568  -12.9573   20.5669 C   0  0  0  0  0  0  0  0  0  0  0  0
  -29.9601  -14.9323   21.5442 C   0  0  0  0  0  0  0  0  0  0  0  0
  -25.5353  -18.9300   22.7957 C   0  0  0  0  0  0  0  0  0  0  0  0
  -29.5743  -24.5149   18.3850 C   0  0  0  0  0  0  0  0  0  0  0  0
  -28.2859  -23.1394   19.8966 C   0  0  0  0  0  0  0  0  0  0  0  0
  -24.9866  -20.0728   22.2155 C   0  0  0  0  0  0  0  0  0  0  0  0
  -30.5823  -20.3556   20.3382 C   0  0  0  0  0  0  0  0  0  0  0  0
  -30.3237  -18.9867   20.2687 C   0  0  0  0  0  0  0  0  0  0  0  0
  -20.8089  -29.0710   22.9602 C   0  0  0  0  0  0  0  0  0  0  0  0
  -23.2444  -18.7278   21.2280 C   0  0  0  0  0  0  0  0  0  0  0  0
  -19.4413  -27.1325   22.5030 C   0  0  0  0  0  0  0  0  0  0  0  0
  -29.4342  -19.2681   18.0400 C   0  0  0  0  0  0  0  0  0  0  0  0
  -27.3087  -25.1357   18.9496 C   0  0  0  0  0  0  0  0  0  0  0  0
  -21.8591  -28.2388   23.3476 C   0  0  0  0  0  0  0  0  0  0  0  0
  -25.1522  -25.9699   17.8721 C   0  0  0  0  0  0  0  0  0  0  0  0
  -30.3069  -12.9614   20.1787 C   0  0  0  0  0  0  0  0  0  0  0  0
  -24.9479  -17.6738   22.5871 C   0  0  0  0  0  0  0  0  0  0  0  0
  -29.4350  -13.9418   20.6946 C   0  0  0  0  0  0  0  0  0  0  0  0
  -23.7861  -17.5709   21.8088 C   0  0  0  0  0  0  0  0  0  0  0  0
  -21.7004  -26.8534   23.3126 C   0  0  0  0  0  0  0  0  0  0  0  0
  -29.4706  -23.3910   19.2046 C   0  0  0  0  0  0  0  0  0  0  0  0
  -23.8427  -19.9715   21.4291 C   0  0  0  0  0  0  0  0  0  0  0  0
  -30.2669  -21.1808   19.2587 C   0  0  0  0  0  0  0  0  0  0  0  0
  -20.4915  -26.3002   22.8903 C   0  0  0  0  0  0  0  0  0  0  0  0
  -29.7496  -18.4429   19.1195 C   0  0  0  0  0  0  0  0  0  0  0  0
  -19.6000  -28.5178   22.5380 C   0  0  0  0  0  0  0  0  0  0  0  0
  -29.6929  -20.6370   18.1096 C   0  0  0  0  0  0  0  0  0  0  0  0
  -26.1919  -26.0367   18.8188 C   0  0  0  0  0  0  0  0  0  0  0  0
  -24.3495  -27.0446   18.1672 C   0  0  0  0  0  0  0  0  0  0  0  0
  -21.4099  -22.5043   20.6832 C   0  0  0  0  0  0  0  0  0  0  0  0
  -20.5043  -22.9621   21.5599 C   0  0  0  0  0  0  0  0  0  0  0  0
  -23.1099  -28.8451   23.7841 C   0  0  0  0  0  0  0  0  0  0  0  0
  -24.9316  -25.0211   16.8200 C   0  0  0  0  0  0  0  0  0  0  0  0
  -23.5579  -30.1525   23.2517 C   0  0  0  0  0  0  0  0  0  0  0  0
  -25.8941  -14.9491   21.2513 C   0  0  0  0  0  0  0  0  0  0  0  0
  -23.0561  -13.8610   22.3846 C   0  0  0  0  0  0  0  0  0  0  0  0
  -19.8778  -14.5739   23.4029 C   0  0  0  0  0  0  0  0  0  0  0  0
  -29.8211  -11.8766   19.2501 C   0  0  0  0  0  0  0  0  0  0  0  0
  -25.5366  -16.4543   23.2419 C   0  0  0  0  0  0  0  0  0  0  0  0
  -23.1056  -16.2486   21.5708 C   0  0  0  0  0  0  0  0  0  0  0  0
  -28.5007  -12.2234   18.5700 C   0  0  0  0  0  0  0  0  0  0  0  0
  -24.4920  -31.4369   20.0370 C   0  0  0  0  0  0  0  0  0  0  0  0
  -27.4925  -12.7001   19.6049 C   0  0  0  0  0  0  0  0  0  0  0  0
  -24.9756  -30.1957   19.2877 C   0  0  0  0  0  0  0  0  0  0  0  0
  -24.8305  -31.3598   21.5222 C   0  0  0  0  0  0  0  0  0  0  0  0
  -24.7957  -28.8815   21.4478 C   0  0  0  0  0  0  0  0  0  0  0  0
  -27.9744  -13.9885   20.2837 C   0  0  1  0  0  0  0  0  0  0  0  0
  -25.1514  -15.1551   22.5412 C   0  0  1  0  0  0  0  0  0  0  0  0
  -24.4472  -28.9106   19.9494 C   0  0  2  0  0  0  0  0  0  0  0  0
  -23.7241  -24.4306   25.5353 C   0  0  0  0  0  0  0  0  0  0  0  0
  -17.7826  -13.4727   24.2363 C   0  0  0  0  0  0  0  0  0  0  0  0
  -22.4326  -12.9098   19.5533 C   0  0  0  0  0  0  0  0  0  0  0  0
  -20.0302  -12.7022   20.2268 C   0  0  0  0  0  0  0  0  0  0  0  0
  -21.7659  -11.3146   21.3602 C   0  0  0  0  0  0  0  0  0  0  0  0
  -19.9771  -16.0580   25.9615 C   0  0  0  0  0  0  0  0  0  0  0  0
  -22.8212  -25.9533   23.7268 C   0  0  0  0  0  0  0  0  0  0  0  0
  -21.8939  -21.0915   20.6523 C   0  0  0  0  0  0  0  0  0  1  0  0
  -20.0113  -24.3720   21.5837 C   0  0  0  0  0  0  0  0  0  0  0  0
  -22.6004  -25.3710   25.1294 C   0  0  0  0  0  0  0  0  0  0  0  0
  -21.6465  -13.7923   21.8488 C   0  0  1  0  0  0  0  0  0  0  0  0
  -19.0914  -14.1413   24.6271 C   0  0  2  0  0  0  0  0  0  0  0  0
  -21.4825  -12.7045   20.7500 C   0  0  0  0  0  0  0  0  0  0  0  0
  -26.0642  -27.0721   19.6528 N   0  0  0  0  0  0  0  0  0  0  0  0
  -23.9050  -28.2918   24.6575 N   0  0  0  0  0  0  0  0  0  0  0  0
  -24.9347  -27.6658   19.2311 N   0  0  0  0  0  0  0  0  0  0  0  0
  -24.3467  -30.1125   22.1105 N   0  0  0  0  0  0  0  0  0  0  0  0
  -23.7228  -15.0843   22.2273 N   0  0  0  0  0  0  0  0  0  0  0  0
  -23.2074  -27.5095   17.6179 N   0  0  0  0  0  0  0  0  0  0  0  0
  -25.8539  -23.9786   16.6562 N   0  0  0  0  0  0  0  0  0  0  0  0
  -27.1007  -14.2914   21.3958 N   0  0  0  0  0  0  0  0  0  0  0  0
  -20.7782  -13.6078   23.0065 N   0  0  0  0  0  0  0  0  0  0  0  0
  -18.7795  -15.3192   25.4853 N   0  3  0  0  0  0  0  0  0  0  0  0
  -23.9546  -25.1051   16.0376 O   0  0  0  0  0  0  0  0  0  0  0  0
  -23.1824  -31.1341   23.8792 O   0  0  0  0  0  0  0  0  0  0  0  0
  -25.4077  -15.3554   20.2025 O   0  0  0  0  0  0  0  0  0  0  0  0
  -23.5450  -12.8680   22.9293 O   0  0  0  0  0  0  0  0  0  0  0  0
  -19.7076  -15.6588   22.8509 O   0  0  0  0  0  0  0  0  0  0  0  0
  -30.5251  -22.5395   19.3290 O   0  0  0  0  0  0  0  0  0  0  0  0
  -23.3055  -21.0853   20.8611 O   0  0  0  0  0  0  0  0  0  1  0  0
  -20.3163  -24.9412   22.8491 O   0  0  0  0  0  0  0  0  0  0  0  0
  -29.5027  -17.1282   19.0523 F   0  0  0  0  0  0  0  0  0  0  0  0
  -18.5915  -29.3171   22.1657 F   0  0  0  0  0  0  0  0  0  0  0  0
  -29.3888  -21.4245   17.0689 F   0  0  0  0  0  0  0  0  0  0  0  0
  1  2  1  0  0  0  0
  1  5  2  0  0  0  0
  2  6  2  0  0  0  0
  3  8  2  0  0  0  0
  3 17  1  0  0  0  0
  4  9  1  0  0  0  0
  4 17  2  0  0  0  0
  5 20  1  0  0  0  0
  6 22  1  0  0  0  0
  7 10  2  0  0  0  0
  7 21  1  0  0  0  0
  8 25  1  0  0  0  0
  9 25  2  0  0  0  0
 10 26  1  0  0  0  0
 11 12  2  0  0  0  0
 11 27  1  0  0  0  0
 12 29  1  0  0  0  0
 13 18  1  0  0  0  0
 13 30  2  0  0  0  0
 14 23  1  0  0  0  0
 14 26  2  0  0  0  0
 15 28  2  0  0  0  0
 15 30  1  0  0  0  0
 16 29  2  0  0  0  0
 16 31  1  0  0  0  0
 17 32  1  0  0  0  0
 18 24  2  0  0  0  0
 18 36  1  0  0  0  0
 19 32  1  0  0  0  0
 19 33  2  0  0  0  0
 19 37  1  0  0  0  0
 20 22  2  0  0  0  0
 20 42  1  0  0  0  0
 21 23  2  0  0  0  0
 21 43  1  0  0  0  0
 22 51  1  0  0  0  0
 23 44  1  0  0  0  0
 24 28  1  0  0  0  0
 24 60  1  0  0  0  0
 25 82  1  0  0  0  0
 26 83  1  0  0  0  0
 27 31  2  0  0  0  0
 27 82  1  0  0  0  0
 28 84  1  0  0  0  0
 29 85  1  0  0  0  0
 30 86  1  0  0  0  0
 31 87  1  0  0  0  0
 32 67  2  0  0  0  0
 33 69  1  0  0  0  0
 33 72  1  0  0  0  0
 34 35  2  0  0  0  0
 34 61  1  0  0  0  0
 35 62  1  0  0  0  0
 36 38  1  0  0  0  0
 36 68  2  0  0  0  0
 37 73  1  0  0  0  0
 37 77  2  0  0  0  0
 38 70  1  0  0  0  0
 38 78  2  0  0  0  0
 39 52  1  0  0  0  0
 39 74  1  0  0  0  0
 39 79  2  0  0  0  0
 40 64  1  0  0  0  0
 40 71  1  0  0  0  0
 40 80  2  0  0  0  0
 41 65  1  0  0  0  0
 41 75  1  0  0  0  0
 41 81  2  0  0  0  0
 42 45  1  0  0  0  0
 43 52  1  0  0  0  0
 44 71  1  0  0  0  0
 45 47  1  0  0  0  0
 46 48  1  0  0  0  0
 46 49  1  0  0  0  0
 47 51  1  0  0  0  0
 48 53  1  0  0  0  0
 49 70  1  0  0  0  0
 50 53  1  0  0  0  0
 50 70  1  0  0  0  0
 51 74  1  0  0  0  0
 52 71  1  0  0  0  0
 53 69  1  0  0  0  0
 54 63  1  0  0  0  0
 55 65  1  0  0  0  0
 56 66  1  0  0  0  0
 57 66  1  0  0  0  0
 58 66  1  0  0  0  0
 59 76  1  0  0  0  0
 60 63  1  0  0  0  0
 61 83  1  0  0  0  0
 62 84  1  0  0  0  0
 64 66  1  0  0  0  0
 64 75  1  0  0  0  0
 65 76  1  0  0  0  0
 67 69  1  0  0  0  0
M  CHG  1  76   1
M  ISO  4  36 100  38 100  61 101  83 101
M  END
> <Batch ID>
0122

> <Smiles>
CCCc1c(OCC=C[101CH2:1][101O:1]c2ccc3c(c2)CN(C(=O)C(NC(=O)C(C)NC)C(C)(C)C)C(C(=O)NC2CCCc4ccccc42)C3)cc(F)cc1[100C:0](=N)[100C:0](=O)N1CCCC(n2nc(-c3ccc(Oc4ccc(F)cc4F)cc3)c(C(N)=O)c2N)C1

> <Shape>
0.253

> <Color>
0.065

> <Negative vol penalty>
0.000

$$$$

  -OEChem-04052302003D

 85 93  0     1  0  0  0  0  0999 V2000
  -28.5387  -16.7359   14.3606 C   0  0  0  0  0  0  0  0  0  0  0  0
  -28.9586  -16.1457   15.5483 C   0  0  0  0  0  0  0  0  0  0  0  0
  -26.5531  -28.2576   18.9088 C   0  0  0  0  0  0  0  0  0  0  0  0
  -26.2800  -27.2648   21.0944 C   0  0  0  0  0  0  0  0  0  0  0  0
  -27.3034  -17.3798   14.3021 C   0  0  0  0  0  0  0  0  0  0  0  0
  -28.1438  -16.1999   16.6787 C   0  0  0  0  0  0  0  0  0  0  0  0
  -27.8532  -11.7505   19.0793 C   0  0  0  0  0  0  0  0  0  0  0  0
  -25.4715  -29.1025   19.1574 C   0  0  0  0  0  0  0  0  0  0  0  0
  -25.1983  -28.1097   21.3430 C   0  0  0  0  0  0  0  0  0  0  0  0
  -28.9331  -11.3895   19.8839 C   0  0  0  0  0  0  0  0  0  0  0  0
  -22.5913  -30.2533   22.6946 C   0  0  0  0  0  0  0  0  0  0  0  0
  -22.5308  -30.8817   23.9383 C   0  0  0  0  0  0  0  0  0  0  0  0
  -29.5185  -18.0760   20.7683 C   0  0  0  0  0  0  0  0  0  0  0  0
  -29.7572  -17.4878   23.0994 C   0  0  0  0  0  0  0  0  0  0  0  0
  -27.7093  -12.1034   21.8363 C   0  0  0  0  0  0  0  0  0  0  0  0
  -28.4391  -19.4116   22.4678 C   0  0  0  0  0  0  0  0  0  0  0  0
  -24.6485  -31.9579   23.4977 C   0  0  0  0  0  0  0  0  0  0  0  0
  -26.9574  -27.3387   19.8773 C   0  0  0  0  0  0  0  0  0  0  0  0
  -30.0375  -17.2388   21.7559 C   0  0  0  0  0  0  0  0  0  0  0  0
  -29.4306  -26.7144   19.9038 C   0  0  0  0  0  0  0  0  0  0  0  0
  -26.4688  -17.4335   15.4296 C   0  0  0  0  0  0  0  0  0  0  0  0
  -26.6956  -12.3018   19.6471 C   0  0  0  0  0  0  0  0  0  0  0  0
  -26.8968  -16.8463   16.6355 C   0  0  0  0  0  0  0  0  0  0  0  0
  -26.6152  -12.4683   21.0370 C   0  0  0  0  0  0  0  0  0  0  0  0
  -28.7194  -19.1625   21.1243 C   0  0  0  0  0  0  0  0  0  0  0  0
  -24.7941  -29.0286   20.3745 C   0  0  0  0  0  0  0  0  0  0  0  0
  -28.8623  -11.5686   21.2623 C   0  0  0  0  0  0  0  0  0  0  0  0
  -23.6805  -30.4771   21.8523 C   0  0  0  0  0  0  0  0  0  0  0  0
  -23.5594  -31.7340   24.3399 C   0  0  0  0  0  0  0  0  0  0  0  0
  -28.9580  -18.5743   23.4554 C   0  0  0  0  0  0  0  0  0  0  0  0
  -24.7091  -31.3294   22.2539 C   0  0  0  0  0  0  0  0  0  0  0  0
  -28.0743  -26.4653   19.6209 C   0  0  0  0  0  0  0  0  0  0  0  0
  -30.0840  -25.5854   19.4736 C   0  0  0  0  0  0  0  0  0  0  0  0
  -30.8473  -14.8938   22.2781 C   0  0  0  0  0  0  0  0  0  0  0  0
  -31.9190  -14.1039   22.4296 C   0  0  0  0  0  0  0  0  0  0  0  0
  -30.8931  -16.0800   21.3766 C   0  0  0  0  0  0  0  0  0  0  0  0
  -30.0450  -27.8634   20.5020 C   0  0  0  0  0  0  0  0  0  0  0  0
  -25.1728  -15.0796   19.3851 C   0  0  0  0  0  0  0  0  0  0  0  0
  -22.9692  -13.6035   21.2525 C   0  0  0  0  0  0  0  0  0  0  0  0
  -22.2737  -11.1662   23.5378 C   0  0  0  0  0  0  0  0  0  0  0  0
  -28.3730  -19.9071   18.7427 C   0  0  0  0  0  0  0  0  0  0  0  0
  -25.1630  -18.1817   15.3311 C   0  0  0  0  0  0  0  0  0  0  0  0
  -25.5291  -12.6613   18.7681 C   0  0  0  0  0  0  0  0  0  0  0  0
  -25.3871  -13.0371   21.6978 C   0  0  0  0  0  0  0  0  0  0  0  0
  -24.1950  -17.8698   16.4695 C   0  0  0  0  0  0  0  0  0  0  0  0
  -29.7391  -22.0565   16.2545 C   0  0  0  0  0  0  0  0  0  0  0  0
  -24.9174  -17.9156   17.8122 C   0  0  0  0  0  0  0  0  0  0  0  0
  -29.5962  -23.4531   16.8638 C   0  0  0  0  0  0  0  0  0  0  0  0
  -28.5521  -21.1609   16.6047 C   0  0  0  0  0  0  0  0  0  0  0  0
  -28.1041  -22.4633   18.6473 C   0  0  0  0  0  0  0  0  0  0  0  0
  -26.0303  -16.8625   17.8761 C   0  0  1  0  0  0  0  0  0  0  0  0
  -24.5988  -13.6912   19.4015 C   0  0  1  0  0  0  0  0  0  0  0  0
  -29.3070  -23.3814   18.3760 C   0  0  2  0  0  0  0  0  0  0  0  0
  -20.3911  -10.2291   24.9072 C   0  0  0  0  0  0  0  0  0  0  0  0
  -23.1756  -15.9784   23.1570 C   0  0  0  0  0  0  0  0  0  0  0  0
  -22.0467  -14.5858   24.9047 C   0  0  0  0  0  0  0  0  0  0  0  0
  -20.8497  -15.1372   22.7867 C   0  0  0  0  0  0  0  0  0  0  0  0
  -22.4974   -8.5145   22.2427 C   0  0  0  0  0  0  0  0  0  0  0  0
  -31.9358  -12.9012   23.3293 C   0  0  0  0  0  0  0  0  0  0  0  0
  -32.2240  -11.6012   22.5771 C   0  0  0  0  0  0  0  0  0  0  0  0
  -31.2167  -11.3063   21.4718 C   0  0  0  0  0  0  0  0  0  1  0  0
  -22.7470  -13.4668   22.7394 C   0  0  1  0  0  0  0  0  0  0  0  0
  -21.1644  -10.1318   23.6013 C   0  0  2  0  0  0  0  0  0  0  0  0
  -22.2288  -14.7831   23.3846 C   0  0  0  0  0  0  0  0  0  0  0  0
  -27.8763  -25.2719   19.0546 N   0  0  0  0  0  0  0  0  0  0  0  0
  -31.5806  -16.1261   20.2801 N   0  0  0  0  0  0  0  0  0  0  0  0
  -29.1170  -24.7611   18.9781 N   0  0  0  0  0  0  0  0  0  0  0  0
  -24.2755  -13.3792   20.7951 N   0  0  0  0  0  0  0  0  0  0  0  0
  -28.3408  -21.1380   18.0538 N   0  0  0  0  0  0  0  0  0  0  0  0
  -31.3857  -25.2275   19.4744 N   0  0  0  0  0  0  0  0  0  0  0  0
  -29.2269  -28.9348   20.8856 N   0  0  0  0  0  0  0  0  0  0  0  0
  -28.1919  -20.0132   20.1213 N   0  0  0  0  0  0  0  0  0  0  0  0
  -25.4709  -15.5503   18.1205 N   0  0  0  0  0  0  0  0  0  0  0  0
  -21.8572  -12.3242   22.9159 N   0  0  0  0  0  0  0  0  0  0  0  0
  -21.7306   -8.7577   23.4916 N   0  3  0  0  0  0  0  0  0  0  0  0
  -31.2847  -27.9447   20.6758 O   0  0  0  0  0  0  0  0  0  0  0  0
  -25.3321  -15.6801   20.4414 O   0  0  0  0  0  0  0  0  0  0  0  0
  -22.0172  -13.8913   20.5227 O   0  0  0  0  0  0  0  0  0  0  0  0
  -23.3962  -10.9681   23.9975 O   0  0  0  0  0  0  0  0  0  0  0  0
  -28.5753  -18.8405   18.1567 O   0  0  0  0  0  0  0  0  0  0  0  0
  -23.7387  -29.8530   20.6175 O   0  0  0  0  0  0  0  0  0  0  0  0
  -29.9151  -11.2176   22.0499 O   0  0  0  0  0  0  0  0  0  1  0  0
  -23.5004  -32.3387   25.5337 F   0  0  0  0  0  0  0  0  0  0  0  0
  -28.6913  -18.8153   24.7457 F   0  0  0  0  0  0  0  0  0  0  0  0
  -25.7574  -31.5492   21.4486 F   0  0  0  0  0  0  0  0  0  0  0  0
  1  2  1  0  0  0  0
  1  5  2  0  0  0  0
  2  6  2  0  0  0  0
  3  8  2  0  0  0  0
  3 18  1  0  0  0  0
  4  9  1  0  0  0  0
  4 18  2  0  0  0  0
  5 21  1  0  0  0  0
  6 23  1  0  0  0  0
  7 10  2  0  0  0  0
  7 22  1  0  0  0  0
  8 26  1  0  0  0  0
  9 26  2  0  0  0  0
 10 27  1  0  0  0  0
 11 12  2  0  0  0  0
 11 28  1  0  0  0  0
 12 29  1  0  0  0  0
 13 19  2  0  0  0  0
 13 25  1  0  0  0  0
 14 19  1  0  0  0  0
 14 30  2  0  0  0  0
 15 24  1  0  0  0  0
 15 27  2  0  0  0  0
 16 25  2  0  0  0  0
 16 30  1  0  0  0  0
 17 29  2  0  0  0  0
 17 31  1  0  0  0  0
 18 32  1  0  0  0  0
 19 36  1  0  0  0  0
 20 32  1  0  0  0  0
 20 33  2  0  0  0  0
 20 37  1  0  0  0  0
 21 23  2  0  0  0  0
 21 42  1  0  0  0  0
 22 24  2  0  0  0  0
 22 43  1  0  0  0  0
 23 51  1  0  0  0  0
 24 44  1  0  0  0  0
 25 72  1  0  0  0  0
 26 81  1  0  0  0  0
 27 82  1  0  0  0  0
 28 31  2  0  0  0  0
 28 81  1  0  0  0  0
 29 83  1  0  0  0  0
 30 84  1  0  0  0  0
 31 85  1  0  0  0  0
 32 65  2  0  0  0  0
 33 67  1  0  0  0  0
 33 70  1  0  0  0  0
 34 35  2  0  0  0  0
 34 36  1  0  0  0  0
 35 59  1  0  0  0  0
 36 66  2  0  0  0  0
 37 71  1  0  0  0  0
 37 76  2  0  0  0  0
 38 52  1  0  0  0  0
 38 73  1  0  0  0  0
 38 77  2  0  0  0  0
 39 62  1  0  0  0  0
 39 68  1  0  0  0  0
 39 78  2  0  0  0  0
 40 63  1  0  0  0  0
 40 74  1  0  0  0  0
 40 79  2  0  0  0  0
 41 69  1  0  0  0  0
 41 72  1  0  0  0  0
 41 80  2  0  0  0  0
 42 45  1  0  0  0  0
 43 52  1  0  0  0  0
 44 68  1  0  0  0  0
 45 47  1  0  0  0  0
 46 48  1  0  0  0  0
 46 49  1  0  0  0  0
 47 51  1  0  0  0  0
 48 53  1  0  0  0  0
 49 69  1  0  0  0  0
 50 53  1  0  0  0  0
 50 69  1  0  0  0  0
 51 73  1  0  0  0  0
 52 68  1  0  0  0  0
 53 67  1  0  0  0  0
 54 63  1  0  0  0  0
 55 64  1  0  0  0  0
 56 64  1  0  0  0  0
 57 64  1  0  0  0  0
 58 75  1  0  0  0  0
 59 60  1  0  0  0  0
 60 61  1  0  0  0  0
 61 82  1  0  0  0  0
 62 64  1  0  0  0  0
 62 74  1  0  0  0  0
 63 75  1  0  0  0  0
 65 67  1  0  0  0  0
M  CHG  1  75   1
M  ISO  4  41 100  61 101  72 100  82 101
M  END
> <Batch ID>
0122

> <Smiles>
CNC(C)C(=O)NC(C(=O)N1Cc2cc([101O:1][101CH2:1]CCC=CC(=N)c3cc(F)cc([100NH:0][100C:0](=O)N4CCCC(n5nc(-c6ccc(Oc7ccc(F)cc7F)cc6)c(C(N)=O)c5N)C4)c3)ccc2CC1C(=O)NC1CCCc2ccccc21)C(C)(C)C

> <Shape>
0.271

> <Color>
0.082

> <Negative vol penalty>
0.000

$$$$

  -OEChem-04052302003D

 84 92  0     1  0  0  0  0  0999 V2000
  -25.1171  -17.5646   17.1573 C   0  0  0  0  0  0  0  0  0  0  0  0
  -26.3759  -18.1458   17.0439 C   0  0  0  0  0  0  0  0  0  0  0  0
  -23.2866   -9.7961   19.9056 C   0  0  0  0  0  0  0  0  0  0  0  0
  -23.7169   -9.9335   22.2790 C   0  0  0  0  0  0  0  0  0  0  0  0
  -23.9780  -18.3049   16.8438 C   0  0  0  0  0  0  0  0  0  0  0  0
  -26.4965  -19.4675   16.6159 C   0  0  0  0  0  0  0  0  0  0  0  0
  -29.7761  -22.1242   19.4142 C   0  0  0  0  0  0  0  0  0  0  0  0
  -22.5532   -8.6267   20.1062 C   0  0  0  0  0  0  0  0  0  0  0  0
  -22.9835   -8.7641   22.4797 C   0  0  0  0  0  0  0  0  0  0  0  0
  -31.1333  -21.9268   19.1634 C   0  0  0  0  0  0  0  0  0  0  0  0
  -20.9216   -6.0125   23.6608 C   0  0  0  0  0  0  0  0  0  0  0  0
  -20.0105   -5.9907   24.7168 C   0  0  0  0  0  0  0  0  0  0  0  0
  -33.3027  -18.0044   16.9096 C   0  0  0  0  0  0  0  0  0  0  0  0
  -33.8484  -15.7440   16.2541 C   0  0  0  0  0  0  0  0  0  0  0  0
  -31.1795  -23.9518   17.8533 C   0  0  0  0  0  0  0  0  0  0  0  0
  -18.8179   -7.8436   23.7260 C   0  0  0  0  0  0  0  0  0  0  0  0
  -23.8685  -10.4495   20.9919 C   0  0  0  0  0  0  0  0  0  0  0  0
  -32.9219  -16.6756   16.7224 C   0  0  0  0  0  0  0  0  0  0  0  0
  -34.6099  -18.4015   16.6283 C   0  0  0  0  0  0  0  0  0  0  0  0
  -24.1409  -12.9784   20.7970 C   0  0  0  0  0  0  0  0  0  0  0  0
  -24.0840  -19.6393   16.4210 C   0  0  0  0  0  0  0  0  0  0  0  0
  -29.1068  -23.2330   18.8766 C   0  0  0  0  0  0  0  0  0  0  0  0
  -25.3578  -20.2259   16.2952 C   0  0  0  0  0  0  0  0  0  0  0  0
  -29.8144  -24.1624   18.1010 C   0  0  0  0  0  0  0  0  0  0  0  0
  -35.1557  -16.1411   15.9728 C   0  0  0  0  0  0  0  0  0  0  0  0
  -35.5364  -17.4699   16.1600 C   0  0  0  0  0  0  0  0  0  0  0  0
  -22.4016   -8.1107   21.3933 C   0  0  0  0  0  0  0  0  0  0  0  0
  -31.8345  -22.8391   18.3804 C   0  0  0  0  0  0  0  0  0  0  0  0
  -20.7809   -6.9499   22.6375 C   0  0  0  0  0  0  0  0  0  0  0  0
  -18.9587   -6.9062   24.7494 C   0  0  0  0  0  0  0  0  0  0  0  0
  -19.7291   -7.8655   22.6701 C   0  0  0  0  0  0  0  0  0  0  0  0
  -24.6267  -11.6572   20.7852 C   0  0  0  0  0  0  0  0  0  0  0  0
  -25.2480  -13.7535   20.5522 C   0  0  0  0  0  0  0  0  0  0  0  0
  -31.5590  -16.2605   17.0152 C   0  0  0  0  0  0  0  0  0  0  0  0
  -34.9787  -19.8116   16.8370 C   0  0  0  0  0  0  0  0  0  0  0  0
  -31.1593  -14.9918   17.2464 C   0  0  0  0  0  0  0  0  0  0  0  0
  -34.4227  -20.8576   16.2059 C   0  0  0  0  0  0  0  0  0  0  0  0
  -22.8080  -13.4618   21.0103 C   0  0  0  0  0  0  0  0  0  0  0  0
  -29.7358  -14.7312   17.5408 C   0  0  0  0  0  0  0  0  0  0  0  0
  -26.6849  -23.6284   16.8563 C   0  0  0  0  0  0  0  0  0  0  0  0
  -27.0343  -26.7517   17.6595 C   0  0  0  0  0  0  0  0  0  0  0  0
  -29.0625  -29.2311   18.8366 C   0  0  0  0  0  0  0  0  0  0  0  0
  -22.8271  -20.3847   16.0481 C   0  0  0  0  0  0  0  0  0  0  0  0
  -27.6488  -23.4460   19.1787 C   0  0  0  0  0  0  0  0  0  0  0  0
  -29.1470  -25.3799   17.5173 C   0  0  0  0  0  0  0  0  0  0  0  0
  -23.0187  -21.8967   15.9611 C   0  0  0  0  0  0  0  0  0  0  0  0
  -30.1526  -12.5831   20.4808 C   0  0  0  0  0  0  0  0  0  0  0  0
  -24.2797  -22.2304   15.1703 C   0  0  0  0  0  0  0  0  0  0  0  0
  -28.7018  -12.2232   20.7895 C   0  0  0  0  0  0  0  0  0  0  0  0
  -30.3984  -12.7297   18.9799 C   0  0  0  0  0  0  0  0  0  0  0  0
  -28.0211  -13.3319   18.6244 C   0  0  0  0  0  0  0  0  0  0  0  0
  -25.5280  -21.6647   15.8581 C   0  0  1  0  0  0  0  0  0  0  0  0
  -26.9503  -24.3357   18.1551 C   0  0  1  0  0  0  0  0  0  0  0  0
  -27.7404  -13.2256   20.1315 C   0  0  1  0  0  0  0  0  0  0  0  0
  -36.1274  -15.1229   15.4716 C   0  0  0  0  0  0  0  0  0  0  0  0
  -36.9425  -17.8841   15.8541 C   0  0  0  0  0  0  0  0  0  0  0  0
  -29.0776  -31.6882   19.3465 C   0  0  0  0  0  0  0  0  0  0  0  0
  -27.2341  -27.3668   14.6776 C   0  0  0  0  0  0  0  0  0  0  0  0
  -28.1788  -29.6073   15.2741 C   0  0  0  0  0  0  0  0  0  0  0  0
  -25.8679  -28.9993   15.9903 C   0  0  0  0  0  0  0  0  0  0  0  0
  -29.6378  -28.7515   21.6998 C   0  0  0  0  0  0  0  0  0  0  0  0
  -34.8393  -22.2838   16.4407 C   0  0  0  0  0  0  0  0  0  0  0  0
  -33.6671  -23.1451   16.8959 C   0  0  0  0  0  0  0  0  0  1  0  0
  -27.8452  -27.9083   17.1270 C   0  0  1  0  0  0  0  0  0  0  0  0
  -28.8437  -30.2914   19.9007 C   0  0  2  0  0  0  0  0  0  0  0  0
  -27.2939  -28.4465   15.7765 C   0  0  0  0  0  0  0  0  0  0  0  0
  -25.9401  -11.5928   20.5513 N   0  0  0  0  0  0  0  0  0  0  0  0
  -26.2890  -12.8833   20.4138 N   0  0  0  0  0  0  0  0  0  0  0  0
  -29.4297  -13.6483   18.3631 N   0  0  0  0  0  0  0  0  0  0  0  0
  -27.7186  -25.5407   17.8358 N   0  0  0  0  0  0  0  0  0  0  0  0
  -25.4228  -15.0878   20.4440 N   0  0  0  0  0  0  0  0  0  0  0  0
  -21.7891  -12.5293   21.2482 N   0  0  0  0  0  0  0  0  0  0  0  0
  -25.9055  -22.4943   16.9822 N   0  0  0  0  0  0  0  0  0  0  0  0
  -27.8878  -28.9025   18.1938 N   0  0  0  0  0  0  0  0  0  0  0  0
  -29.7751  -30.0775   21.0443 N   0  3  0  0  0  0  0  0  0  0  0  0
  -22.5258  -14.6836   20.9741 O   0  0  0  0  0  0  0  0  0  0  0  0
  -28.9032  -15.4866   17.0360 O   0  0  0  0  0  0  0  0  0  0  0  0
  -27.1515  -24.0790   15.8166 O   0  0  0  0  0  0  0  0  0  0  0  0
  -25.8394  -26.9185   17.9166 O   0  0  0  0  0  0  0  0  0  0  0  0
  -30.1660  -28.7458   18.5968 O   0  0  0  0  0  0  0  0  0  0  0  0
  -21.6859   -6.9698   21.5895 O   0  0  0  0  0  0  0  0  0  0  0  0
  -33.1591  -22.6484   18.1334 O   0  0  0  0  0  0  0  0  0  1  0  0
  -18.0829   -6.8842   25.7627 F   0  0  0  0  0  0  0  0  0  0  0  0
  -19.5881   -8.7676   21.6893 F   0  0  0  0  0  0  0  0  0  0  0  0
  1  2  1  0  0  0  0
  1  5  2  0  0  0  0
  2  6  2  0  0  0  0
  3  8  2  0  0  0  0
  3 17  1  0  0  0  0
  4  9  1  0  0  0  0
  4 17  2  0  0  0  0
  5 21  1  0  0  0  0
  6 23  1  0  0  0  0
  7 10  2  0  0  0  0
  7 22  1  0  0  0  0
  8 27  1  0  0  0  0
  9 27  2  0  0  0  0
 10 28  1  0  0  0  0
 11 12  2  0  0  0  0
 11 29  1  0  0  0  0
 12 30  1  0  0  0  0
 13 18  2  0  0  0  0
 13 19  1  0  0  0  0
 14 18  1  0  0  0  0
 14 25  2  0  0  0  0
 15 24  1  0  0  0  0
 15 28  2  0  0  0  0
 16 30  2  0  0  0  0
 16 31  1  0  0  0  0
 17 32  1  0  0  0  0
 18 34  1  0  0  0  0
 19 26  2  0  0  0  0
 19 35  1  0  0  0  0
 20 32  1  0  0  0  0
 20 33  2  0  0  0  0
 20 38  1  0  0  0  0
 21 23  2  0  0  0  0
 21 43  1  0  0  0  0
 22 24  2  0  0  0  0
 22 44  1  0  0  0  0
 23 52  1  0  0  0  0
 24 45  1  0  0  0  0
 25 26  1  0  0  0  0
 25 55  1  0  0  0  0
 26 56  1  0  0  0  0
 27 81  1  0  0  0  0
 28 82  1  0  0  0  0
 29 31  2  0  0  0  0
 29 81  1  0  0  0  0
 30 83  1  0  0  0  0
 31 84  1  0  0  0  0
 32 67  2  0  0  0  0
 33 68  1  0  0  0  0
 33 71  1  0  0  0  0
 34 36  2  0  0  0  0
 35 37  2  0  0  0  0
 36 39  1  0  0  0  0
 37 62  1  0  0  0  0
 38 72  1  0  0  0  0
 38 76  2  0  0  0  0
 39 69  1  0  0  0  0
 39 77  2  0  0  0  0
 40 53  1  0  0  0  0
 40 73  1  0  0  0  0
 40 78  2  0  0  0  0
 41 64  1  0  0  0  0
 41 70  1  0  0  0  0
 41 79  2  0  0  0  0
 42 65  1  0  0  0  0
 42 74  1  0  0  0  0
 42 80  2  0  0  0  0
 43 46  1  0  0  0  0
 44 53  1  0  0  0  0
 45 70  1  0  0  0  0
 46 48  1  0  0  0  0
 47 49  1  0  0  0  0
 47 50  1  0  0  0  0
 48 52  1  0  0  0  0
 49 54  1  0  0  0  0
 50 69  1  0  0  0  0
 51 54  1  0  0  0  0
 51 69  1  0  0  0  0
 52 73  1  0  0  0  0
 53 70  1  0  0  0  0
 54 68  1  0  0  0  0
 57 65  1  0  0  0  0
 58 66  1  0  0  0  0
 59 66  1  0  0  0  0
 60 66  1  0  0  0  0
 61 75  1  0  0  0  0
 62 63  1  0  0  0  0
 63 82  1  0  0  0  0
 64 66  1  0  0  0  0
 64 74  1  0  0  0  0
 65 75  1  0  0  0  0
 67 68  1  0  0  0  0
M  CHG  1  75   1
M  ISO  4  36 100  39 100  63 101  82 101
M  END
> <Batch ID>
0122

> <Smiles>
CNC(C)C(=O)NC(C(=O)N1Cc2cc([101O:1][101CH2:1]CC=Cc3cc(C=[100CH:0][100C:0](=O)N4CCCC(n5nc(-c6ccc(Oc7ccc(F)cc7F)cc6)c(C(N)=O)c5N)C4)cc(C)c3C)ccc2CC1C(=O)NC1CCCc2ccccc21)C(C)(C)C

> <Shape>
0.176

> <Color>
0.185

> <Negative vol penalty>
0.000

$$$$

  -OEChem-04052302003D

 86 94  0     1  0  0  0  0  0999 V2000
  -24.7447  -31.3915   19.6030 C   0  0  0  0  0  0  0  0  0  0  0  0
  -25.6199  -30.3568   19.9173 C   0  0  0  0  0  0  0  0  0  0  0  0
  -23.2882   -9.7558   19.8892 C   0  0  0  0  0  0  0  0  0  0  0  0
  -23.7524   -9.8623   22.2578 C   0  0  0  0  0  0  0  0  0  0  0  0
  -23.9471  -31.9548   20.5981 C   0  0  0  0  0  0  0  0  0  0  0  0
  -25.6988  -29.8855   21.2273 C   0  0  0  0  0  0  0  0  0  0  0  0
  -26.7126  -24.1146   23.0090 C   0  0  0  0  0  0  0  0  0  0  0  0
  -22.5680   -8.5771   20.0834 C   0  0  0  0  0  0  0  0  0  0  0  0
  -23.0322   -8.6836   22.4520 C   0  0  0  0  0  0  0  0  0  0  0  0
  -27.8639  -23.4522   23.4327 C   0  0  0  0  0  0  0  0  0  0  0  0
  -19.4967   -7.6870   21.1823 C   0  0  0  0  0  0  0  0  0  0  0  0
  -18.2644   -7.5670   20.5399 C   0  0  0  0  0  0  0  0  0  0  0  0
  -27.2464  -23.8604   25.7287 C   0  0  0  0  0  0  0  0  0  0  0  0
  -32.7284  -15.3389   23.7625 C   0  0  0  0  0  0  0  0  0  0  0  0
  -30.6354  -15.0115   24.9240 C   0  0  0  0  0  0  0  0  0  0  0  0
  -19.0674   -5.6153   19.3639 C   0  0  0  0  0  0  0  0  0  0  0  0
  -23.8805  -10.3983   20.9765 C   0  0  0  0  0  0  0  0  0  0  0  0
  -24.1281  -12.9321   20.8149 C   0  0  0  0  0  0  0  0  0  0  0  0
  -24.0091  -31.4837   21.9190 C   0  0  0  0  0  0  0  0  0  0  0  0
  -25.8236  -24.6652   23.9433 C   0  0  0  0  0  0  0  0  0  0  0  0
  -24.9021  -30.4440   22.2413 C   0  0  0  0  0  0  0  0  0  0  0  0
  -26.0832  -24.5270   25.3143 C   0  0  0  0  0  0  0  0  0  0  0  0
  -31.6810  -14.5044   24.1525 C   0  0  0  0  0  0  0  0  0  0  0  0
  -32.7302  -16.6807   24.1439 C   0  0  0  0  0  0  0  0  0  0  0  0
  -30.6372  -16.3532   25.3054 C   0  0  0  0  0  0  0  0  0  0  0  0
  -22.4400   -8.0410   21.3647 C   0  0  0  0  0  0  0  0  0  0  0  0
  -28.1324  -23.3276   24.7927 C   0  0  0  0  0  0  0  0  0  0  0  0
  -20.5145   -6.7711   20.9154 C   0  0  0  0  0  0  0  0  0  0  0  0
  -31.6846  -17.1878   24.9154 C   0  0  0  0  0  0  0  0  0  0  0  0
  -18.0498   -6.5312   19.6308 C   0  0  0  0  0  0  0  0  0  0  0  0
  -20.2998   -5.7353   20.0062 C   0  0  0  0  0  0  0  0  0  0  0  0
  -24.6251  -11.6156   20.7765 C   0  0  0  0  0  0  0  0  0  0  0  0
  -25.2248  -13.7205   20.5654 C   0  0  0  0  0  0  0  0  0  0  0  0
  -22.7944  -13.4006   21.0548 C   0  0  0  0  0  0  0  0  0  0  0  0
  -24.7885  -27.5988   24.5962 C   0  0  0  0  0  0  0  0  0  0  0  0
  -30.4678  -20.5864   25.1968 C   0  0  0  0  0  0  0  0  0  0  0  0
  -22.8304  -26.0297   26.6519 C   0  0  0  0  0  0  0  0  0  0  0  0
  -22.2445  -23.2509   28.5444 C   0  0  0  0  0  0  0  0  0  0  0  0
  -31.1040  -12.8903   21.3377 C   0  0  0  0  0  0  0  0  0  0  0  0
  -23.1617  -32.1559   22.9700 C   0  0  0  0  0  0  0  0  0  0  0  0
  -24.5724  -25.3533   23.4705 C   0  0  0  0  0  0  0  0  0  0  0  0
  -25.1503  -25.0826   26.3580 C   0  0  0  0  0  0  0  0  0  0  0  0
  -23.0333  -31.3467   24.2581 C   0  0  0  0  0  0  0  0  0  0  0  0
  -29.4339  -13.6692   18.2913 C   0  0  0  0  0  0  0  0  0  0  0  0
  -24.3975  -30.8266   24.6999 C   0  0  0  0  0  0  0  0  0  0  0  0
  -27.9672  -13.3500   18.5862 C   0  0  0  0  0  0  0  0  0  0  0  0
  -30.3754  -12.6831   18.9792 C   0  0  0  0  0  0  0  0  0  0  0  0
  -28.7010  -12.2201   20.7272 C   0  0  0  0  0  0  0  0  0  0  0  0
  -24.9982  -29.8887   23.6458 C   0  0  1  0  0  0  0  0  0  0  0  0
  -23.9994  -26.3239   24.4987 C   0  0  1  0  0  0  0  0  0  0  0  0
  -27.7150  -13.2208   20.1005 C   0  0  2  0  0  0  0  0  0  0  0  0
  -33.8602  -17.5584   23.7164 C   0  0  0  0  0  0  0  0  0  0  0  0
  -29.8930  -17.0423   27.5984 C   0  0  0  0  0  0  0  0  0  0  0  0
  -20.5781  -22.2740   30.1464 C   0  0  0  0  0  0  0  0  0  0  0  0
  -23.8640  -27.8769   28.8496 C   0  0  0  0  0  0  0  0  0  0  0  0
  -22.9252  -26.2817   30.5355 C   0  0  0  0  0  0  0  0  0  0  0  0
  -21.4038  -27.4348   28.9298 C   0  0  0  0  0  0  0  0  0  0  0  0
  -21.7104  -20.9471   26.7651 C   0  0  0  0  0  0  0  0  0  0  0  0
  -29.5088  -16.8778   26.1310 C   0  0  0  0  0  0  0  0  0  0  0  0
  -31.6792  -13.0698   23.7452 C   0  0  0  0  0  0  0  0  0  0  0  0
  -29.7521  -21.6374   24.3731 C   0  0  0  0  0  0  0  0  0  1  0  0
  -31.0589  -19.4280   24.4198 C   0  0  0  0  0  0  0  0  0  0  0  0
  -22.9227  -25.5944   28.0945 C   0  0  1  0  0  0  0  0  0  0  0  0
  -21.0139  -22.3744   28.6929 C   0  0  2  0  0  0  0  0  0  0  0  0
  -22.7977  -26.7881   29.0829 C   0  0  0  0  0  0  0  0  0  0  0  0
  -25.9354  -11.5663   20.5224 N   0  0  0  0  0  0  0  0  0  0  0  0
  -26.2711  -12.8617   20.3989 N   0  0  0  0  0  0  0  0  0  0  0  0
  -23.9434  -25.7523   25.8457 N   0  0  0  0  0  0  0  0  0  0  0  0
  -30.0848  -12.6087   20.4130 N   0  0  0  0  0  0  0  0  0  0  0  0
  -25.3864  -15.0577   20.4743 N   0  0  0  0  0  0  0  0  0  0  0  0
  -21.7873  -12.4557   21.2939 N   0  0  0  0  0  0  0  0  0  0  0  0
  -24.3774  -28.5835   23.7181 N   0  0  0  0  0  0  0  0  0  0  0  0
  -21.9089  -24.5608   28.2746 N   0  0  0  0  0  0  0  0  0  0  0  0
  -30.7425  -12.8028   22.6765 N   0  0  0  0  0  0  0  0  0  0  0  0
  -21.2935  -20.9997   28.1900 N   0  3  0  0  0  0  0  0  0  0  0  0
  -22.5012  -14.6201   21.0408 O   0  0  0  0  0  0  0  0  0  0  0  0
  -25.7017  -27.6835   25.4089 O   0  0  0  0  0  0  0  0  0  0  0  0
  -30.5625  -20.6685   26.4204 O   0  0  0  0  0  0  0  0  0  0  0  0
  -21.8056  -26.5888   26.2533 O   0  0  0  0  0  0  0  0  0  0  0  0
  -23.3888  -22.8177   28.6602 O   0  0  0  0  0  0  0  0  0  0  0  0
  -32.2497  -13.2021   20.9955 O   0  0  0  0  0  0  0  0  0  0  0  0
  -21.7371   -6.8911   21.5545 O   0  0  0  0  0  0  0  0  0  0  0  0
  -29.2558  -22.6821   25.2090 O   0  0  0  0  0  0  0  0  0  1  0  0
  -31.6861  -18.5104   25.2906 O   0  0  0  0  0  0  0  0  0  0  0  0
  -16.8658   -6.4152   19.0152 F   0  0  0  0  0  0  0  0  0  0  0  0
  -21.2733   -4.8517   19.7467 F   0  0  0  0  0  0  0  0  0  0  0  0
  1  2  1  0  0  0  0
  1  5  2  0  0  0  0
  2  6  2  0  0  0  0
  3  8  2  0  0  0  0
  3 17  1  0  0  0  0
  4  9  1  0  0  0  0
  4 17  2  0  0  0  0
  5 19  1  0  0  0  0
  6 21  1  0  0  0  0
  7 10  2  0  0  0  0
  7 20  1  0  0  0  0
  8 26  1  0  0  0  0
  9 26  2  0  0  0  0
 10 27  1  0  0  0  0
 11 12  2  0  0  0  0
 11 28  1  0  0  0  0
 12 30  1  0  0  0  0
 13 22  1  0  0  0  0
 13 27  2  0  0  0  0
 14 23  1  0  0  0  0
 14 24  2  0  0  0  0
 15 23  2  0  0  0  0
 15 25  1  0  0  0  0
 16 30  2  0  0  0  0
 16 31  1  0  0  0  0
 17 32  1  0  0  0  0
 18 32  1  0  0  0  0
 18 33  2  0  0  0  0
 18 34  1  0  0  0  0
 19 21  2  0  0  0  0
 19 40  1  0  0  0  0
 20 22  2  0  0  0  0
 20 41  1  0  0  0  0
 21 49  1  0  0  0  0
 22 42  1  0  0  0  0
 23 60  1  0  0  0  0
 24 29  1  0  0  0  0
 24 52  1  0  0  0  0
 25 29  2  0  0  0  0
 25 59  1  0  0  0  0
 26 82  1  0  0  0  0
 27 83  1  0  0  0  0
 28 31  2  0  0  0  0
 28 82  1  0  0  0  0
 29 84  1  0  0  0  0
 30 85  1  0  0  0  0
 31 86  1  0  0  0  0
 32 66  2  0  0  0  0
 33 67  1  0  0  0  0
 33 70  1  0  0  0  0
 34 71  1  0  0  0  0
 34 76  2  0  0  0  0
 35 50  1  0  0  0  0
 35 72  1  0  0  0  0
 35 77  2  0  0  0  0
 36 61  1  0  0  0  0
 36 62  1  0  0  0  0
 36 78  2  0  0  0  0
 37 63  1  0  0  0  0
 37 68  1  0  0  0  0
 37 79  2  0  0  0  0
 38 64  1  0  0  0  0
 38 73  1  0  0  0  0
 38 80  2  0  0  0  0
 39 69  1  0  0  0  0
 39 74  1  0  0  0  0
 39 81  2  0  0  0  0
 40 43  1  0  0  0  0
 41 50  1  0  0  0  0
 42 68  1  0  0  0  0
 43 45  1  0  0  0  0
 44 46  1  0  0  0  0
 44 47  1  0  0  0  0
 45 49  1  0  0  0  0
 46 51  1  0  0  0  0
 47 69  1  0  0  0  0
 48 51  1  0  0  0  0
 48 69  1  0  0  0  0
 49 72  1  0  0  0  0
 50 68  1  0  0  0  0
 51 67  1  0  0  0  0
 53 59  1  0  0  0  0
 54 64  1  0  0  0  0
 55 65  1  0  0  0  0
 56 65  1  0  0  0  0
 57 65  1  0  0  0  0
 58 75  1  0  0  0  0
 60 74  1  0  0  0  0
 61 83  1  0  0  0  0
 62 84  1  0  0  0  0
 63 65  1  0  0  0  0
 63 73  1  0  0  0  0
 64 75  1  0  0  0  0
 66 67  1  0  0  0  0
M  CHG  1  75   1
M  ISO  4  39 100  61 101  74 100  83 101
M  END
> <Batch ID>
0122

> <Smiles>
CCc1cc(C[100NH:0][100C:0](=O)N2CCCC(n3nc(-c4ccc(Oc5ccc(F)cc5F)cc4)c(C(N)=O)c3N)C2)cc(C)c1OCC(=O)[101CH2:1][101O:1]c1ccc2c(c1)CN(C(=O)C(NC(=O)C(C)NC)C(C)(C)C)C(C(=O)NC1CCCc3ccccc31)C2

> <Shape>
0.166

> <Color>
0.182

> <Negative vol penalty>
0.000

$$$$

  -OEChem-04052302003D

 87 95  0     1  0  0  0  0  0999 V2000
  -29.3904  -17.3536   23.5075 C   0  0  0  0  0  0  0  0  0  0  0  0
  -30.3585  -18.2507   23.0678 C   0  0  0  0  0  0  0  0  0  0  0  0
  -25.8348  -14.1074   20.5966 C   0  0  0  0  0  0  0  0  0  0  0  0
  -26.5460  -12.1170   19.4263 C   0  0  0  0  0  0  0  0  0  0  0  0
  -28.1310  -17.3403   22.9094 C   0  0  0  0  0  0  0  0  0  0  0  0
  -30.0681  -19.1344   22.0289 C   0  0  0  0  0  0  0  0  0  0  0  0
  -32.1282  -24.8658   21.3868 C   0  0  0  0  0  0  0  0  0  0  0  0
  -24.5929  -13.5208   20.8396 C   0  0  0  0  0  0  0  0  0  0  0  0
  -25.3041  -11.5304   19.6693 C   0  0  0  0  0  0  0  0  0  0  0  0
  -33.1696  -25.4097   20.6362 C   0  0  0  0  0  0  0  0  0  0  0  0
  -22.4474   -9.3698   20.2937 C   0  0  0  0  0  0  0  0  0  0  0  0
  -22.4294   -8.0455   20.7312 C   0  0  0  0  0  0  0  0  0  0  0  0
  -31.8606  -23.1571   14.4127 C   0  0  0  0  0  0  0  0  0  0  0  0
  -30.8897  -21.8254   12.6461 C   0  0  0  0  0  0  0  0  0  0  0  0
  -31.6074  -25.9685   18.8850 C   0  0  0  0  0  0  0  0  0  0  0  0
  -23.7153   -8.6713   22.6784 C   0  0  0  0  0  0  0  0  0  0  0  0
  -26.8114  -13.4055   19.8899 C   0  0  0  0  0  0  0  0  0  0  0  0
  -31.1002  -22.0613   14.0047 C   0  0  0  0  0  0  0  0  0  0  0  0
  -32.4105  -24.0172   13.4621 C   0  0  0  0  0  0  0  0  0  0  0  0
  -29.2412  -13.9425   20.4516 C   0  0  0  0  0  0  0  0  0  0  0  0
  -27.8218  -18.2308   21.8692 C   0  0  0  0  0  0  0  0  0  0  0  0
  -30.8181  -24.8594   20.8867 C   0  0  0  0  0  0  0  0  0  0  0  0
  -28.8038  -19.1321   21.4155 C   0  0  0  0  0  0  0  0  0  0  0  0
  -30.5507  -25.4263   19.6324 C   0  0  0  0  0  0  0  0  0  0  0  0
  -32.2001  -23.7814   12.1035 C   0  0  0  0  0  0  0  0  0  0  0  0
  -24.3275  -12.2323   20.3760 C   0  0  0  0  0  0  0  0  0  0  0  0
  -32.9098  -25.9585   19.3839 C   0  0  0  0  0  0  0  0  0  0  0  0
  -23.0995  -10.3449   21.0485 C   0  0  0  0  0  0  0  0  0  0  0  0
  -31.4397  -22.6855   11.6955 C   0  0  0  0  0  0  0  0  0  0  0  0
  -23.0633   -7.6963   21.9236 C   0  0  0  0  0  0  0  0  0  0  0  0
  -23.7334   -9.9957   22.2409 C   0  0  0  0  0  0  0  0  0  0  0  0
  -28.0943  -14.0112   19.6381 C   0  0  0  0  0  0  0  0  0  0  0  0
  -30.1857  -14.6761   19.7761 C   0  0  0  0  0  0  0  0  0  0  0  0
  -30.5250  -21.1646   14.9951 C   0  0  0  0  0  0  0  0  0  0  0  0
  -33.2085  -25.1643   13.9265 C   0  0  0  0  0  0  0  0  0  0  0  0
  -30.1117  -19.9009   14.7611 C   0  0  0  0  0  0  0  0  0  0  0  0
  -34.3422  -25.0809   14.6403 C   0  0  0  0  0  0  0  0  0  0  0  0
  -29.4354  -13.2751   21.7056 C   0  0  0  0  0  0  0  0  0  0  0  0
  -29.5564  -19.1101   15.8779 C   0  0  0  0  0  0  0  0  0  0  0  0
  -28.7144  -22.5976   20.1369 C   0  0  0  0  0  0  0  0  0  0  0  0
  -26.7379  -25.1303   19.6882 C   0  0  0  0  0  0  0  0  0  0  0  0
  -26.4011  -28.4581   19.0105 C   0  0  0  0  0  0  0  0  0  0  0  0
  -26.4622  -18.1470   21.2218 C   0  0  0  0  0  0  0  0  0  0  0  0
  -29.7015  -24.2930   21.7203 C   0  0  0  0  0  0  0  0  0  0  0  0
  -29.1585  -25.4625   19.0590 C   0  0  0  0  0  0  0  0  0  0  0  0
  -26.1124  -19.3707   20.3790 C   0  0  0  0  0  0  0  0  0  0  0  0
  -31.4591  -16.0177   15.3791 C   0  0  0  0  0  0  0  0  0  0  0  0
  -27.2835  -19.7513   19.4787 C   0  0  0  0  0  0  0  0  0  0  0  0
  -30.8703  -15.1310   16.4732 C   0  0  0  0  0  0  0  0  0  0  0  0
  -30.4168  -16.9670   14.7901 C   0  0  0  0  0  0  0  0  0  0  0  0
  -29.1332  -16.9122   16.9090 C   0  0  0  0  0  0  0  0  0  0  0  0
  -28.5187  -20.1231   20.3079 C   0  0  1  0  0  0  0  0  0  0  0  0
  -28.4896  -23.8769   20.8923 C   0  0  1  0  0  0  0  0  0  0  0  0
  -30.1757  -15.9817   17.5483 C   0  0  1  0  0  0  0  0  0  0  0  0
  -34.0136  -24.0933   10.4005 C   0  0  0  0  0  0  0  0  0  0  0  0
  -24.6598  -30.2327   18.6699 C   0  0  0  0  0  0  0  0  0  0  0  0
  -26.1653  -24.0300   16.9005 C   0  0  0  0  0  0  0  0  0  0  0  0
  -25.2191  -26.2657   16.2884 C   0  0  0  0  0  0  0  0  0  0  0  0
  -24.1610  -24.9199   18.1028 C   0  0  0  0  0  0  0  0  0  0  0  0
  -27.3892  -30.0330   21.3131 C   0  0  0  0  0  0  0  0  0  0  0  0
  -30.4341  -21.2968   10.0474 C   0  0  0  0  0  0  0  0  0  0  0  0
  -32.7824  -24.6937   11.0694 C   0  0  0  0  0  0  0  0  0  0  0  0
  -35.1264  -26.2814   15.0891 C   0  0  0  0  0  0  0  0  0  0  0  0
  -35.1891  -26.3638   16.6131 C   0  0  0  0  0  0  0  0  0  0  0  0
  -33.7982  -26.4294   17.2287 C   0  0  0  0  0  0  0  0  0  1  0  0
  -26.3955  -26.0258   18.5221 C   0  0  1  0  0  0  0  0  0  0  0  0
  -25.5703  -29.5420   19.6733 C   0  0  2  0  0  0  0  0  0  0  0  0
  -25.5119  -25.3081   17.4631 C   0  0  0  0  0  0  0  0  0  0  0  0
  -28.2901  -14.7318   18.5306 N   0  0  0  0  0  0  0  0  0  0  0  0
  -29.5709  -15.1226   18.6435 N   0  0  0  0  0  0  0  0  0  0  0  0
  -29.7254  -17.7271   15.8422 N   0  0  0  0  0  0  0  0  0  0  0  0
  -28.1015  -24.8906   19.9095 N   0  0  0  0  0  0  0  0  0  0  0  0
  -31.4737  -14.9765   20.0466 N   0  0  0  0  0  0  0  0  0  0  0  0
  -28.3602  -12.5664   22.2589 N   0  0  0  0  0  0  0  0  0  0  0  0
  -28.3823  -21.4594   20.8466 N   0  0  0  0  0  0  0  0  0  0  0  0
  -25.7902  -27.2247   19.0920 N   0  0  0  0  0  0  0  0  0  0  0  0
  -26.4562  -30.5699   20.2892 N   0  3  0  0  0  0  0  0  0  0  0  0
  -30.5251  -13.3199   22.3253 O   0  0  0  0  0  0  0  0  0  0  0  0
  -28.9717  -19.7229   16.7730 O   0  0  0  0  0  0  0  0  0  0  0  0
  -29.1549  -22.6402   18.9942 O   0  0  0  0  0  0  0  0  0  0  0  0
  -25.8293  -24.6666   20.3817 O   0  0  0  0  0  0  0  0  0  0  0  0
  -27.4821  -28.6837   18.4709 O   0  0  0  0  0  0  0  0  0  0  0  0
  -23.1158  -11.6594   20.6132 O   0  0  0  0  0  0  0  0  0  0  0  0
  -31.2232  -22.4392   10.3729 O   0  0  0  0  0  0  0  0  0  0  0  0
  -33.9245  -26.4895   18.6488 O   0  0  0  0  0  0  0  0  0  1  0  0
  -23.0446   -6.4248   22.3444 F   0  0  0  0  0  0  0  0  0  0  0  0
  -24.3604  -10.9283   22.9709 F   0  0  0  0  0  0  0  0  0  0  0  0
  1  2  1  0  0  0  0
  1  5  2  0  0  0  0
  2  6  2  0  0  0  0
  3  8  2  0  0  0  0
  3 17  1  0  0  0  0
  4  9  1  0  0  0  0
  4 17  2  0  0  0  0
  5 21  1  0  0  0  0
  6 23  1  0  0  0  0
  7 10  2  0  0  0  0
  7 22  1  0  0  0  0
  8 26  1  0  0  0  0
  9 26  2  0  0  0  0
 10 27  1  0  0  0  0
 11 12  2  0  0  0  0
 11 28  1  0  0  0  0
 12 30  1  0  0  0  0
 13 18  1  0  0  0  0
 13 19  2  0  0  0  0
 14 18  2  0  0  0  0
 14 29  1  0  0  0  0
 15 24  1  0  0  0  0
 15 27  2  0  0  0  0
 16 30  2  0  0  0  0
 16 31  1  0  0  0  0
 17 32  1  0  0  0  0
 18 34  1  0  0  0  0
 19 25  1  0  0  0  0
 19 35  1  0  0  0  0
 20 32  1  0  0  0  0
 20 33  2  0  0  0  0
 20 38  1  0  0  0  0
 21 23  2  0  0  0  0
 21 43  1  0  0  0  0
 22 24  2  0  0  0  0
 22 44  1  0  0  0  0
 23 52  1  0  0  0  0
 24 45  1  0  0  0  0
 25 29  2  0  0  0  0
 25 62  1  0  0  0  0
 26 83  1  0  0  0  0
 27 85  1  0  0  0  0
 28 31  2  0  0  0  0
 28 83  1  0  0  0  0
 29 84  1  0  0  0  0
 30 86  1  0  0  0  0
 31 87  1  0  0  0  0
 32 69  2  0  0  0  0
 33 70  1  0  0  0  0
 33 73  1  0  0  0  0
 34 36  2  0  0  0  0
 35 37  2  0  0  0  0
 36 39  1  0  0  0  0
 37 63  1  0  0  0  0
 38 74  1  0  0  0  0
 38 78  2  0  0  0  0
 39 71  1  0  0  0  0
 39 79  2  0  0  0  0
 40 53  1  0  0  0  0
 40 75  1  0  0  0  0
 40 80  2  0  0  0  0
 41 66  1  0  0  0  0
 41 72  1  0  0  0  0
 41 81  2  0  0  0  0
 42 67  1  0  0  0  0
 42 76  1  0  0  0  0
 42 82  2  0  0  0  0
 43 46  1  0  0  0  0
 44 53  1  0  0  0  0
 45 72  1  0  0  0  0
 46 48  1  0  0  0  0
 47 49  1  0  0  0  0
 47 50  1  0  0  0  0
 48 52  1  0  0  0  0
 49 54  1  0  0  0  0
 50 71  1  0  0  0  0
 51 54  1  0  0  0  0
 51 71  1  0  0  0  0
 52 75  1  0  0  0  0
 53 72  1  0  0  0  0
 54 70  1  0  0  0  0
 55 62  1  0  0  0  0
 56 67  1  0  0  0  0
 57 68  1  0  0  0  0
 58 68  1  0  0  0  0
 59 68  1  0  0  0  0
 60 77  1  0  0  0  0
 61 84  1  0  0  0  0
 63 64  1  0  0  0  0
 64 65  1  0  0  0  0
 65 85  1  0  0  0  0
 66 68  1  0  0  0  0
 66 76  1  0  0  0  0
 67 77  1  0  0  0  0
 69 70  1  0  0  0  0
M  CHG  1  77   1
M  ISO  4  36 100  39 100  65 101  85 101
M  END
> <Batch ID>
0122

> <Smiles>
CCc1c(C=CCC[101CH2:1][101O:1]c2ccc3c(c2)CN(C(=O)C(NC(=O)C(C)NC)C(C)(C)C)C(C(=O)NC2CCCc4ccccc42)C3)cc(C=[100CH:0][100C:0](=O)N2CCCC(n3nc(-c4ccc(Oc5ccc(F)cc5F)cc4)c(C(N)=O)c3N)C2)cc1OC

> <Shape>
0.212

> <Color>
0.063

> <Negative vol penalty>
0.000

$$$$

  -OEChem-04052302003D

 84 92  0     1  0  0  0  0  0999 V2000
  -21.9132  -30.5154   29.5477 C   0  0  0  0  0  0  0  0  0  0  0  0
  -23.2764  -30.2705   29.4161 C   0  0  0  0  0  0  0  0  0  0  0  0
  -23.0709   -9.8715   19.9407 C   0  0  0  0  0  0  0  0  0  0  0  0
  -23.8343   -9.8742   22.2329 C   0  0  0  0  0  0  0  0  0  0  0  0
  -21.0280  -29.4514   29.7155 C   0  0  0  0  0  0  0  0  0  0  0  0
  -23.7552  -28.9614   29.4534 C   0  0  0  0  0  0  0  0  0  0  0  0
  -28.9220  -24.8266   26.7104 C   0  0  0  0  0  0  0  0  0  0  0  0
  -22.3262   -8.7187   20.1901 C   0  0  0  0  0  0  0  0  0  0  0  0
  -23.0896   -8.7215   22.4823 C   0  0  0  0  0  0  0  0  0  0  0  0
  -29.9285  -23.9504   27.1142 C   0  0  0  0  0  0  0  0  0  0  0  0
  -19.8615   -7.9262   23.0886 C   0  0  0  0  0  0  0  0  0  0  0  0
  -19.1063   -7.8853   24.2606 C   0  0  0  0  0  0  0  0  0  0  0  0
  -30.5131  -18.3322   24.0479 C   0  0  0  0  0  0  0  0  0  0  0  0
  -28.2976  -22.1860   27.3294 C   0  0  0  0  0  0  0  0  0  0  0  0
  -32.0708  -16.5843   22.5310 C   0  0  0  0  0  0  0  0  0  0  0  0
  -20.3468   -5.9455   24.9923 C   0  0  0  0  0  0  0  0  0  0  0  0
  -23.8250  -10.4492   20.9621 C   0  0  0  0  0  0  0  0  0  0  0  0
  -31.9007  -18.3331   24.1893 C   0  0  0  0  0  0  0  0  0  0  0  0
  -24.1693  -12.9742   20.8453 C   0  0  0  0  0  0  0  0  0  0  0  0
  -21.4952  -28.1279   29.7451 C   0  0  0  0  0  0  0  0  0  0  0  0
  -27.5919  -24.3913   26.6234 C   0  0  0  0  0  0  0  0  0  0  0  0
  -22.8756  -27.8788   29.6231 C   0  0  0  0  0  0  0  0  0  0  0  0
  -27.2766  -23.0580   26.9217 C   0  0  0  0  0  0  0  0  0  0  0  0
  -29.9043  -17.4573   23.1482 C   0  0  0  0  0  0  0  0  0  0  0  0
  -30.6831  -16.5834   22.3897 C   0  0  0  0  0  0  0  0  0  0  0  0
  -22.3355   -8.1438   21.4609 C   0  0  0  0  0  0  0  0  0  0  0  0
  -29.6159  -22.6306   27.4265 C   0  0  0  0  0  0  0  0  0  0  0  0
  -20.8593   -6.9767   22.8684 C   0  0  0  0  0  0  0  0  0  0  0  0
  -19.3490   -6.8950   25.2125 C   0  0  0  0  0  0  0  0  0  0  0  0
  -32.6796  -17.4592   23.4308 C   0  0  0  0  0  0  0  0  0  0  0  0
  -21.1020   -5.9863   23.8202 C   0  0  0  0  0  0  0  0  0  0  0  0
  -24.5950  -11.6397   20.7050 C   0  0  0  0  0  0  0  0  0  0  0  0
  -25.2617  -13.7230   20.4815 C   0  0  0  0  0  0  0  0  0  0  0  0
  -32.5384  -19.2587   25.1404 C   0  0  0  0  0  0  0  0  0  0  0  0
  -31.9718  -19.7231   26.2651 C   0  0  0  0  0  0  0  0  0  0  0  0
  -22.9001  -13.4907   21.2670 C   0  0  0  0  0  0  0  0  0  0  0  0
  -24.8715  -25.1906   28.0602 C   0  0  0  0  0  0  0  0  0  0  0  0
  -23.5861  -23.1202   25.9193 C   0  0  0  0  0  0  0  0  0  0  0  0
  -24.0292  -20.4347   23.8605 C   0  0  0  0  0  0  0  0  0  0  0  0
  -30.7293  -14.7626   20.6493 C   0  0  0  0  0  0  0  0  0  0  0  0
  -20.5054  -27.0137   29.9761 C   0  0  0  0  0  0  0  0  0  0  0  0
  -26.5220  -25.3418   26.1605 C   0  0  0  0  0  0  0  0  0  0  0  0
  -25.8672  -22.5356   26.8248 C   0  0  0  0  0  0  0  0  0  0  0  0
  -21.0524  -25.6314   29.6292 C   0  0  0  0  0  0  0  0  0  0  0  0
  -29.6087  -12.3535   18.2792 C   0  0  0  0  0  0  0  0  0  0  0  0
  -22.4485  -25.4473   30.2155 C   0  0  0  0  0  0  0  0  0  0  0  0
  -28.1694  -12.0628   18.7105 C   0  0  0  0  0  0  0  0  0  0  0  0
  -30.5259  -12.5795   19.4797 C   0  0  0  0  0  0  0  0  0  0  0  0
  -28.6218  -13.3040   20.8650 C   0  0  0  0  0  0  0  0  0  0  0  0
  -23.4307  -26.4710   29.6336 C   0  0  1  0  0  0  0  0  0  0  0  0
  -25.1220  -24.9268   26.6024 C   0  0  1  0  0  0  0  0  0  0  0  0
  -27.6470  -13.1335   19.6884 C   0  0  2  0  0  0  0  0  0  0  0  0
  -27.9567  -18.2040   21.7568 C   0  0  0  0  0  0  0  0  0  0  0  0
  -23.4658  -18.7172   22.1198 C   0  0  0  0  0  0  0  0  0  0  0  0
  -22.2838  -21.6862   28.2768 C   0  0  0  0  0  0  0  0  0  0  0  0
  -21.8713  -19.7303   26.7693 C   0  0  0  0  0  0  0  0  0  0  0  0
  -20.8164  -21.9342   26.2668 C   0  0  0  0  0  0  0  0  0  0  0  0
  -24.9360  -22.1965   21.6622 C   0  0  0  0  0  0  0  0  0  0  0  0
  -28.4157  -17.4774   23.0170 C   0  0  0  0  0  0  0  0  0  0  0  0
  -32.6558  -20.6790   27.2037 C   0  0  0  0  0  0  0  0  0  0  0  0
  -31.9064  -22.0023   27.3044 C   0  0  0  0  0  0  0  0  0  1  0  0
  -23.3009  -21.6378   25.9042 C   0  0  1  0  0  0  0  0  0  0  0  0
  -23.6369  -20.1996   22.4130 C   0  0  2  0  0  0  0  0  0  0  0  0
  -22.0945  -21.2572   26.8081 C   0  0  0  0  0  0  0  0  0  0  0  0
  -25.8591  -11.5431   20.2846 N   0  0  0  0  0  0  0  0  0  0  0  0
  -26.2371  -12.8265   20.1576 N   0  0  0  0  0  0  0  0  0  0  0  0
  -24.8554  -23.5052   26.3737 N   0  0  0  0  0  0  0  0  0  0  0  0
  -29.9693  -13.6097   20.3595 N   0  0  0  0  0  0  0  0  0  0  0  0
  -25.4734  -15.0544   20.4101 N   0  0  0  0  0  0  0  0  0  0  0  0
  -21.8877  -12.5821   21.6044 N   0  0  0  0  0  0  0  0  0  0  0  0
  -30.0842  -15.6871   21.4701 N   0  0  0  0  0  0  0  0  0  0  0  0
  -23.8405  -26.0782   28.3023 N   0  0  0  0  0  0  0  0  0  0  0  0
  -23.1375  -21.2679   24.5025 N   0  0  0  0  0  0  0  0  0  0  0  0
  -24.6813  -20.7421   21.4987 N   0  3  0  0  0  0  0  0  0  0  0  0
  -22.6652  -14.7215   21.3265 O   0  0  0  0  0  0  0  0  0  0  0  0
  -25.5615  -24.6292   28.9031 O   0  0  0  0  0  0  0  0  0  0  0  0
  -22.7173  -23.9071   25.5351 O   0  0  0  0  0  0  0  0  0  0  0  0
  -25.0248  -19.9269   24.3718 O   0  0  0  0  0  0  0  0  0  0  0  0
  -31.8578  -14.9308   20.1802 O   0  0  0  0  0  0  0  0  0  0  0  0
  -21.6087   -7.0191   21.7047 O   0  0  0  0  0  0  0  0  0  0  0  0
  -30.5962  -21.7734   27.8216 O   0  0  0  0  0  0  0  0  0  1  0  0
  -18.6247   -6.8568   26.3386 F   0  0  0  0  0  0  0  0  0  0  0  0
  -34.0149  -17.4481   23.5560 F   0  0  0  0  0  0  0  0  0  0  0  0
  -22.0600   -5.0721   23.6148 F   0  0  0  0  0  0  0  0  0  0  0  0
  1  2  1  0  0  0  0
  1  5  2  0  0  0  0
  2  6  2  0  0  0  0
  3  8  2  0  0  0  0
  3 17  1  0  0  0  0
  4  9  1  0  0  0  0
  4 17  2  0  0  0  0
  5 20  1  0  0  0  0
  6 22  1  0  0  0  0
  7 10  2  0  0  0  0
  7 21  1  0  0  0  0
  8 26  1  0  0  0  0
  9 26  2  0  0  0  0
 10 27  1  0  0  0  0
 11 12  2  0  0  0  0
 11 28  1  0  0  0  0
 12 29  1  0  0  0  0
 13 18  2  0  0  0  0
 13 24  1  0  0  0  0
 14 23  1  0  0  0  0
 14 27  2  0  0  0  0
 15 25  1  0  0  0  0
 15 30  2  0  0  0  0
 16 29  2  0  0  0  0
 16 31  1  0  0  0  0
 17 32  1  0  0  0  0
 18 30  1  0  0  0  0
 18 34  1  0  0  0  0
 19 32  1  0  0  0  0
 19 33  2  0  0  0  0
 19 36  1  0  0  0  0
 20 22  2  0  0  0  0
 20 41  1  0  0  0  0
 21 23  2  0  0  0  0
 21 42  1  0  0  0  0
 22 50  1  0  0  0  0
 23 43  1  0  0  0  0
 24 25  2  0  0  0  0
 24 59  1  0  0  0  0
 25 71  1  0  0  0  0
 26 80  1  0  0  0  0
 27 81  1  0  0  0  0
 28 31  2  0  0  0  0
 28 80  1  0  0  0  0
 29 82  1  0  0  0  0
 30 83  1  0  0  0  0
 31 84  1  0  0  0  0
 32 65  2  0  0  0  0
 33 66  1  0  0  0  0
 33 69  1  0  0  0  0
 34 35  2  0  0  0  0
 35 60  1  0  0  0  0
 36 70  1  0  0  0  0
 36 75  2  0  0  0  0
 37 51  1  0  0  0  0
 37 72  1  0  0  0  0
 37 76  2  0  0  0  0
 38 62  1  0  0  0  0
 38 67  1  0  0  0  0
 38 77  2  0  0  0  0
 39 63  1  0  0  0  0
 39 73  1  0  0  0  0
 39 78  2  0  0  0  0
 40 68  1  0  0  0  0
 40 71  1  0  0  0  0
 40 79  2  0  0  0  0
 41 44  1  0  0  0  0
 42 51  1  0  0  0  0
 43 67  1  0  0  0  0
 44 46  1  0  0  0  0
 45 47  1  0  0  0  0
 45 48  1  0  0  0  0
 46 50  1  0  0  0  0
 47 52  1  0  0  0  0
 48 68  1  0  0  0  0
 49 52  1  0  0  0  0
 49 68  1  0  0  0  0
 50 72  1  0  0  0  0
 51 67  1  0  0  0  0
 52 66  1  0  0  0  0
 53 59  1  0  0  0  0
 54 63  1  0  0  0  0
 55 64  1  0  0  0  0
 56 64  1  0  0  0  0
 57 64  1  0  0  0  0
 58 74  1  0  0  0  0
 60 61  1  0  0  0  0
 61 81  1  0  0  0  0
 62 64  1  0  0  0  0
 62 73  1  0  0  0  0
 63 74  1  0  0  0  0
 65 66  1  0  0  0  0
M  CHG  1  74   1
M  ISO  4  40 100  61 101  71 100  81 101
M  END
> <Batch ID>
0122

> <Smiles>
CCc1cc(C=CC[101CH2:1][101O:1]c2ccc3c(c2)CN(C(=O)C(NC(=O)C(C)NC)C(C)(C)C)C(C(=O)NC2CCCc4ccccc42)C3)c(F)cc1[100NH:0][100C:0](=O)N1CCCC(n2nc(-c3ccc(Oc4ccc(F)cc4F)cc3)c(C(N)=O)c2N)C1

> <Shape>
0.170

> <Color>
0.196

> <Negative vol penalty>
0.000

$$$$

  -OEChem-04052302003D

 86 94  0     1  0  0  0  0  0999 V2000
  -31.2439  -29.7815   25.3209 C   0  0  0  0  0  0  0  0  0  0  0  0
  -30.5430  -29.8447   24.1208 C   0  0  0  0  0  0  0  0  0  0  0  0
  -25.5944  -14.6661   22.2519 C   0  0  0  0  0  0  0  0  0  0  0  0
  -25.4881  -13.8835   19.9687 C   0  0  0  0  0  0  0  0  0  0  0  0
  -30.9669  -28.7666   26.2360 C   0  0  0  0  0  0  0  0  0  0  0  0
  -29.5656  -28.8923   23.8346 C   0  0  0  0  0  0  0  0  0  0  0  0
  -25.3412  -30.9508   21.9473 C   0  0  0  0  0  0  0  0  0  0  0  0
  -24.6506  -13.7088   22.6240 C   0  0  0  0  0  0  0  0  0  0  0  0
  -24.5443  -12.9261   20.3408 C   0  0  0  0  0  0  0  0  0  0  0  0
  -25.3600  -31.3246   20.6043 C   0  0  0  0  0  0  0  0  0  0  0  0
  -24.5276   -9.9023   21.8497 C   0  0  0  0  0  0  0  0  0  0  0  0
  -24.6946   -8.6061   21.3622 C   0  0  0  0  0  0  0  0  0  0  0  0
  -28.7526  -26.3505   18.6740 C   0  0  0  0  0  0  0  0  0  0  0  0
  -31.0019  -26.5413   19.5346 C   0  0  0  0  0  0  0  0  0  0  0  0
  -29.9580  -28.4326   18.4528 C   0  0  0  0  0  0  0  0  0  0  0  0
  -24.1869  -29.2966   20.0296 C   0  0  0  0  0  0  0  0  0  0  0  0
  -22.5440   -8.7401   20.2694 C   0  0  0  0  0  0  0  0  0  0  0  0
  -26.0131  -14.7535   20.9242 C   0  0  0  0  0  0  0  0  0  0  0  0
  -29.8503  -25.7837   19.3214 C   0  0  0  0  0  0  0  0  0  0  0  0
  -28.8064  -27.6749   18.2396 C   0  0  0  0  0  0  0  0  0  0  0  0
  -28.3875  -15.5958   20.5240 C   0  0  0  0  0  0  0  0  0  0  0  0
  -29.9788  -27.8070   25.9651 C   0  0  0  0  0  0  0  0  0  0  0  0
  -24.7536  -29.7399   22.3409 C   0  0  0  0  0  0  0  0  0  0  0  0
  -29.2761  -27.8628   24.7463 C   0  0  0  0  0  0  0  0  0  0  0  0
  -24.1596  -28.9110   21.3786 C   0  0  0  0  0  0  0  0  0  0  0  0
  -31.0558  -27.8658   19.1003 C   0  0  0  0  0  0  0  0  0  0  0  0
  -24.1256  -12.8388   21.6685 C   0  0  0  0  0  0  0  0  0  0  0  0
  -24.7854  -30.4961   19.6448 C   0  0  0  0  0  0  0  0  0  0  0  0
  -23.3688  -10.6174   21.5472 C   0  0  0  0  0  0  0  0  0  0  0  0
  -23.7028   -8.0250   20.5720 C   0  0  0  0  0  0  0  0  0  0  0  0
  -22.3770  -10.0363   20.7570 C   0  0  0  0  0  0  0  0  0  0  0  0
  -26.9875  -15.7426   20.5391 C   0  0  0  0  0  0  0  0  0  0  0  0
  -28.8554  -16.8102   20.0850 C   0  0  0  0  0  0  0  0  0  0  0  0
  -29.7941  -24.4027   19.7749 C   0  0  0  0  0  0  0  0  0  0  0  0
  -27.6479  -28.2733   17.5568 C   0  0  0  0  0  0  0  0  0  0  0  0
  -28.6652  -23.6920   19.9825 C   0  0  0  0  0  0  0  0  0  0  0  0
  -27.6920  -29.3623   16.7732 C   0  0  0  0  0  0  0  0  0  0  0  0
  -29.1931  -14.4629   20.8753 C   0  0  0  0  0  0  0  0  0  0  0  0
  -28.7737  -22.2907   20.4358 C   0  0  0  0  0  0  0  0  0  0  0  0
  -25.8042  -27.0893   23.7461 C   0  0  0  0  0  0  0  0  0  0  0  0
  -22.6569  -26.3040   23.7395 C   0  0  0  0  0  0  0  0  0  0  0  0
  -19.5692  -26.7229   22.3475 C   0  0  0  0  0  0  0  0  0  0  0  0
  -29.7477  -26.7010   26.9641 C   0  0  0  0  0  0  0  0  0  0  0  0
  -24.7179  -29.3638   23.7968 C   0  0  0  0  0  0  0  0  0  0  0  0
  -23.4982  -27.6103   21.7518 C   0  0  0  0  0  0  0  0  0  0  0  0
  -28.4359  -25.9504   26.7492 C   0  0  0  0  0  0  0  0  0  0  0  0
  -26.4395  -20.7501   18.0672 C   0  0  0  0  0  0  0  0  0  0  0  0
  -28.2576  -25.5983   25.2757 C   0  0  0  0  0  0  0  0  0  0  0  0
  -26.4588  -19.2984   18.5381 C   0  0  0  0  0  0  0  0  0  0  0  0
  -26.5952  -21.7302   19.2290 C   0  0  0  0  0  0  0  0  0  0  0  0
  -27.8203  -20.0207   20.5393 C   0  0  0  0  0  0  0  0  0  0  0  0
  -28.1912  -26.8626   24.4105 C   0  0  1  0  0  0  0  0  0  0  0  0
  -24.5472  -27.8647   24.0227 C   0  0  1  0  0  0  0  0  0  0  0  0
  -27.7123  -19.0162   19.3814 C   0  0  1  0  0  0  0  0  0  0  0  0
  -32.2867  -28.6762   19.3288 C   0  0  0  0  0  0  0  0  0  0  0  0
  -17.1998  -25.9171   22.5312 C   0  0  0  0  0  0  0  0  0  0  0  0
  -23.4383  -23.6987   22.3569 C   0  0  0  0  0  0  0  0  0  0  0  0
  -21.0349  -23.3946   21.7247 C   0  0  0  0  0  0  0  0  0  0  0  0
  -21.6918  -23.4555   24.1304 C   0  0  0  0  0  0  0  0  0  0  0  0
  -27.3690  -32.3243   15.9743 C   0  0  0  0  0  0  0  0  0  0  0  0
  -24.9503  -31.8461   15.5701 C   0  0  0  0  0  0  0  0  0  0  0  0
  -18.5717  -29.4384   22.9723 C   0  0  0  0  0  0  0  0  0  0  0  0
  -26.4826  -29.9340   16.0816 C   0  0  0  0  0  0  0  0  0  0  0  0
  -25.9002  -31.6585   17.8950 C   0  0  0  0  0  0  0  0  0  1  0  0
  -21.7346  -25.5921   22.7795 C   0  0  1  0  0  0  0  0  0  0  0  0
  -18.2074  -26.9673   22.9722 C   0  0  2  0  0  0  0  0  0  0  0  0
  -21.9890  -24.0588   22.7403 C   0  0  0  0  0  0  0  0  0  0  0  0
  -26.1875  -31.4294   16.3939 C   0  0  0  0  0  0  0  0  0  0  0  0
  -26.5918  -16.9547   20.1414 N   0  0  0  0  0  0  0  0  0  0  0  0
  -27.7502  -17.5807   19.8725 N   0  0  0  0  0  0  0  0  0  0  0  0
  -27.7678  -21.4045   20.0546 N   0  0  0  0  0  0  0  0  0  0  0  0
  -23.4944  -27.2835   23.1873 N   0  0  0  0  0  0  0  0  0  0  0  0
  -30.1002  -17.2836   19.8640 N   0  0  0  0  0  0  0  0  0  0  0  0
  -28.5507  -13.2943   21.3066 N   0  0  0  0  0  0  0  0  0  0  0  0
  -26.8854  -27.4778   24.5139 N   0  0  0  0  0  0  0  0  0  0  0  0
  -20.3777  -25.9630   23.1661 N   0  0  0  0  0  0  0  0  0  0  0  0
  -17.6905  -28.3088   22.5793 N   0  3  0  0  0  0  0  0  0  0  0  0
  -30.4461  -14.4917   20.8244 O   0  0  0  0  0  0  0  0  0  0  0  0
  -29.7473  -21.9912   21.1294 O   0  0  0  0  0  0  0  0  0  0  0  0
  -25.7935  -26.2031   22.8998 O   0  0  0  0  0  0  0  0  0  0  0  0
  -22.6299  -26.0072   24.9365 O   0  0  0  0  0  0  0  0  0  0  0  0
  -19.8830  -27.1591   21.2422 O   0  0  0  0  0  0  0  0  0  0  0  0
  -23.2048  -11.9044   22.0313 O   0  0  0  0  0  0  0  0  0  0  0  0
  -24.8030  -30.8582   18.3332 O   0  0  0  0  0  0  0  0  0  1  0  0
  -23.8640   -6.7809   20.1027 F   0  0  0  0  0  0  0  0  0  0  0  0
  -21.2621  -10.7187   20.4620 F   0  0  0  0  0  0  0  0  0  0  0  0
  1  2  1  0  0  0  0
  1  5  2  0  0  0  0
  2  6  2  0  0  0  0
  3  8  2  0  0  0  0
  3 18  1  0  0  0  0
  4  9  1  0  0  0  0
  4 18  2  0  0  0  0
  5 22  1  0  0  0  0
  6 24  1  0  0  0  0
  7 10  2  0  0  0  0
  7 23  1  0  0  0  0
  8 27  1  0  0  0  0
  9 27  2  0  0  0  0
 10 28  1  0  0  0  0
 11 12  2  0  0  0  0
 11 29  1  0  0  0  0
 12 30  1  0  0  0  0
 13 19  1  0  0  0  0
 13 20  2  0  0  0  0
 14 19  2  0  0  0  0
 14 26  1  0  0  0  0
 15 20  1  0  0  0  0
 15 26  2  0  0  0  0
 16 25  1  0  0  0  0
 16 28  2  0  0  0  0
 17 30  2  0  0  0  0
 17 31  1  0  0  0  0
 18 32  1  0  0  0  0
 19 34  1  0  0  0  0
 20 35  1  0  0  0  0
 21 32  1  0  0  0  0
 21 33  2  0  0  0  0
 21 38  1  0  0  0  0
 22 24  2  0  0  0  0
 22 43  1  0  0  0  0
 23 25  2  0  0  0  0
 23 44  1  0  0  0  0
 24 52  1  0  0  0  0
 25 45  1  0  0  0  0
 26 55  1  0  0  0  0
 27 83  1  0  0  0  0
 28 84  1  0  0  0  0
 29 31  2  0  0  0  0
 29 83  1  0  0  0  0
 30 85  1  0  0  0  0
 31 86  1  0  0  0  0
 32 69  2  0  0  0  0
 33 70  1  0  0  0  0
 33 73  1  0  0  0  0
 34 36  2  0  0  0  0
 35 37  2  0  0  0  0
 36 39  1  0  0  0  0
 37 63  1  0  0  0  0
 38 74  1  0  0  0  0
 38 78  2  0  0  0  0
 39 71  1  0  0  0  0
 39 79  2  0  0  0  0
 40 53  1  0  0  0  0
 40 75  1  0  0  0  0
 40 80  2  0  0  0  0
 41 65  1  0  0  0  0
 41 72  1  0  0  0  0
 41 81  2  0  0  0  0
 42 66  1  0  0  0  0
 42 76  1  0  0  0  0
 42 82  2  0  0  0  0
 43 46  1  0  0  0  0
 44 53  1  0  0  0  0
 45 72  1  0  0  0  0
 46 48  1  0  0  0  0
 47 49  1  0  0  0  0
 47 50  1  0  0  0  0
 48 52  1  0  0  0  0
 49 54  1  0  0  0  0
 50 71  1  0  0  0  0
 51 54  1  0  0  0  0
 51 71  1  0  0  0  0
 52 75  1  0  0  0  0
 53 72  1  0  0  0  0
 54 70  1  0  0  0  0
 56 66  1  0  0  0  0
 57 67  1  0  0  0  0
 58 67  1  0  0  0  0
 59 67  1  0  0  0  0
 60 68  1  0  0  0  0
 61 68  1  0  0  0  0
 62 77  1  0  0  0  0
 63 68  1  0  0  0  0
 64 68  1  0  0  0  0
 64 84  1  0  0  0  0
 65 67  1  0  0  0  0
 65 76  1  0  0  0  0
 66 77  1  0  0  0  0
 69 70  1  0  0  0  0
M  CHG  1  77   1
M  ISO  4  36 100  39 100  64 101  84 101
M  END
> <Batch ID>
0122

> <Smiles>
CNC(C)C(=O)NC(C(=O)N1Cc2cc([101O:1][101CH2:1]C(C)(C)CC=Cc3cc(C)cc(C=[100CH:0][100C:0](=O)N4CCCC(n5nc(-c6ccc(Oc7ccc(F)cc7F)cc6)c(C(N)=O)c5N)C4)c3)ccc2CC1C(=O)NC1CCCc2ccccc21)C(C)(C)C

> <Shape>
0.247

> <Color>
0.058

> <Negative vol penalty>
0.000

$$$$

  -OEChem-04052302003D

 86 94  0     1  0  0  0  0  0999 V2000
  -18.9601  -26.6756   22.9839 C   0  0  0  0  0  0  0  0  0  0  0  0
  -19.9830  -25.8795   22.4788 C   0  0  0  0  0  0  0  0  0  0  0  0
  -22.8921  -10.3948   21.0998 C   0  0  0  0  0  0  0  0  0  0  0  0
  -24.6024   -8.9934   22.0736 C   0  0  0  0  0  0  0  0  0  0  0  0
  -18.7625  -27.9594   22.4770 C   0  0  0  0  0  0  0  0  0  0  0  0
  -20.8083  -26.3662   21.4656 C   0  0  0  0  0  0  0  0  0  0  0  0
  -25.7052  -25.3933   22.3133 C   0  0  0  0  0  0  0  0  0  0  0  0
  -22.0499   -9.2886   20.9871 C   0  0  0  0  0  0  0  0  0  0  0  0
  -23.7602   -7.8873   21.9610 C   0  0  0  0  0  0  0  0  0  0  0  0
  -26.1529  -24.1001   22.0468 C   0  0  0  0  0  0  0  0  0  0  0  0
  -21.1201   -6.5892   23.6240 C   0  0  0  0  0  0  0  0  0  0  0  0
  -21.0273   -5.7328   24.7210 C   0  0  0  0  0  0  0  0  0  0  0  0
  -30.7215  -16.6320   21.8363 C   0  0  0  0  0  0  0  0  0  0  0  0
  -27.0484  -24.8515   19.9366 C   0  0  0  0  0  0  0  0  0  0  0  0
  -29.8685  -17.5619   23.8966 C   0  0  0  0  0  0  0  0  0  0  0  0
  -21.8346   -3.9052   23.3625 C   0  0  0  0  0  0  0  0  0  0  0  0
  -24.1684  -10.2472   21.6430 C   0  0  0  0  0  0  0  0  0  0  0  0
  -30.8119  -15.3777   22.4398 C   0  0  0  0  0  0  0  0  0  0  0  0
  -25.1417  -12.2726   22.8506 C   0  0  0  0  0  0  0  0  0  0  0  0
  -19.5919  -28.4657   21.4639 C   0  0  0  0  0  0  0  0  0  0  0  0
  -25.9166  -26.4247   21.3870 C   0  0  0  0  0  0  0  0  0  0  0  0
  -20.6208  -27.6574   20.9438 C   0  0  0  0  0  0  0  0  0  0  0  0
  -26.6047  -26.1574   20.1949 C   0  0  0  0  0  0  0  0  0  0  0  0
  -29.9589  -16.3076   24.5001 C   0  0  0  0  0  0  0  0  0  0  0  0
  -30.4306  -15.2155   23.7717 C   0  0  0  0  0  0  0  0  0  0  0  0
  -22.4839   -8.0349   21.4177 C   0  0  0  0  0  0  0  0  0  0  0  0
  -26.8221  -23.8284   20.8570 C   0  0  0  0  0  0  0  0  0  0  0  0
  -21.5700   -6.1036   22.3961 C   0  0  0  0  0  0  0  0  0  0  0  0
  -30.2499  -17.7241   22.5648 C   0  0  0  0  0  0  0  0  0  0  0  0
  -21.3846   -4.3908   24.5903 C   0  0  0  0  0  0  0  0  0  0  0  0
  -21.9273   -4.7617   22.2654 C   0  0  0  0  0  0  0  0  0  0  0  0
  -25.0391  -11.3893   21.7592 C   0  0  0  0  0  0  0  0  0  0  0  0
  -26.1016  -13.1783   22.4703 C   0  0  0  0  0  0  0  0  0  0  0  0
  -31.3099  -14.2564   21.6537 C   0  0  0  0  0  0  0  0  0  0  0  0
  -24.4327  -12.2741   24.0968 C   0  0  0  0  0  0  0  0  0  0  0  0
  -31.1066  -14.1943   20.1880 C   0  0  0  0  0  0  0  0  0  0  0  0
  -24.0282  -28.3321   19.6841 C   0  0  0  0  0  0  0  0  0  0  0  0
  -28.6944  -20.7628   21.3339 C   0  0  0  0  0  0  0  0  0  0  0  0
  -26.8359  -29.7379   18.8699 C   0  0  0  0  0  0  0  0  0  0  0  0
  -30.2187  -29.4606   18.5137 C   0  0  0  0  0  0  0  0  0  0  0  0
  -19.3097  -29.8417   20.9147 C   0  0  0  0  0  0  0  0  0  0  0  0
  -25.4510  -27.8200   21.7014 C   0  0  0  0  0  0  0  0  0  0  0  0
  -26.8748  -27.2339   19.1767 C   0  0  0  0  0  0  0  0  0  0  0  0
  -20.4645  -30.4218   20.1022 C   0  0  0  0  0  0  0  0  0  0  0  0
  -28.2813  -13.9965   17.9891 C   0  0  0  0  0  0  0  0  0  0  0  0
  -21.0018  -29.3840   19.1218 C   0  0  0  0  0  0  0  0  0  0  0  0
  -27.2069  -13.3371   18.8532 C   0  0  0  0  0  0  0  0  0  0  0  0
  -29.6711  -13.4647   18.3238 C   0  0  0  0  0  0  0  0  0  0  0  0
  -28.9599  -12.9335   20.6391 C   0  0  0  0  0  0  0  0  0  0  0  0
  -21.5525  -28.1591   19.8620 C   0  0  1  0  0  0  0  0  0  0  0  0
  -25.2679  -28.6834   20.4570 C   0  0  1  0  0  0  0  0  0  0  0  0
  -27.5456  -13.4655   20.3490 C   0  0  2  0  0  0  0  0  0  0  0  0
  -29.5440  -16.1605   25.9276 C   0  0  0  0  0  0  0  0  0  0  0  0
  -31.7342  -13.7637   25.3463 C   0  0  0  0  0  0  0  0  0  0  0  0
  -32.2372  -30.7661   17.7934 C   0  0  0  0  0  0  0  0  0  0  0  0
  -26.0311  -29.3667   15.9502 C   0  0  0  0  0  0  0  0  0  0  0  0
  -28.4148  -29.7898   15.3119 C   0  0  0  0  0  0  0  0  0  0  0  0
  -27.1000  -31.5680   16.4660 C   0  0  0  0  0  0  0  0  0  0  0  0
  -31.4700  -29.2219   21.1850 C   0  0  0  0  0  0  0  0  0  0  0  0
  -30.5260  -13.8716   24.4226 C   0  0  0  0  0  0  0  0  0  0  0  0
  -27.6156  -21.7565   21.7134 C   0  0  0  0  0  0  0  0  0  1  0  0
  -29.1483  -19.8279   22.4361 C   0  0  0  0  0  0  0  0  0  0  0  0
  -27.8526  -29.5383   17.7720 C   0  0  1  0  0  0  0  0  0  0  0  0
  -31.3560  -30.3594   18.9643 C   0  0  2  0  0  0  0  0  0  0  0  0
  -27.3430  -30.0448   16.3931 C   0  0  0  0  0  0  0  0  0  0  0  0
  -25.8676  -11.7055   20.7604 N   0  0  0  0  0  0  0  0  0  0  0  0
  -31.9575  -13.2513   22.1744 N   0  0  0  0  0  0  0  0  0  0  0  0
  -26.4998  -12.7976   21.2226 N   0  0  0  0  0  0  0  0  0  0  0  0
  -29.9460  -13.5682   19.7555 N   0  0  0  0  0  0  0  0  0  0  0  0
  -26.3943  -28.5807   19.5271 N   0  0  0  0  0  0  0  0  0  0  0  0
  -26.6353  -14.2554   23.0846 N   0  0  0  0  0  0  0  0  0  0  0  0
  -23.4803  -11.2715   24.3249 N   0  0  0  0  0  0  0  0  0  0  0  0
  -22.8596  -28.4467   20.4126 N   0  0  0  0  0  0  0  0  0  0  0  0
  -29.0790  -30.1827   18.2292 N   0  0  0  0  0  0  0  0  0  0  0  0
  -32.2039  -29.6577   19.9691 N   0  3  0  0  0  0  0  0  0  0  0  0
  -24.6260  -13.1485   24.9752 O   0  0  0  0  0  0  0  0  0  0  0  0
  -31.9896  -14.7047   19.5111 O   0  0  0  0  0  0  0  0  0  0  0  0
  -24.1247  -27.9842   18.5130 O   0  0  0  0  0  0  0  0  0  0  0  0
  -29.1723  -20.7184   20.2013 O   0  0  0  0  0  0  0  0  0  0  0  0
  -26.4531  -30.8791   19.1395 O   0  0  0  0  0  0  0  0  0  0  0  0
  -30.3312  -28.2403   18.4197 O   0  0  0  0  0  0  0  0  0  0  0  0
  -21.6622   -6.9553   21.3081 O   0  0  0  0  0  0  0  0  0  0  0  0
  -27.2595  -22.5669   20.5941 O   0  0  0  0  0  0  0  0  0  1  0  0
  -30.1606  -18.9606   21.9704 O   0  0  0  0  0  0  0  0  0  0  0  0
  -21.2970   -3.5688   25.6443 F   0  0  0  0  0  0  0  0  0  0  0  0
  -22.3613   -4.2897   21.0887 F   0  0  0  0  0  0  0  0  0  0  0  0
  1  2  1  0  0  0  0
  1  5  2  0  0  0  0
  2  6  2  0  0  0  0
  3  8  2  0  0  0  0
  3 17  1  0  0  0  0
  4  9  1  0  0  0  0
  4 17  2  0  0  0  0
  5 20  1  0  0  0  0
  6 22  1  0  0  0  0
  7 10  2  0  0  0  0
  7 21  1  0  0  0  0
  8 26  1  0  0  0  0
  9 26  2  0  0  0  0
 10 27  1  0  0  0  0
 11 12  2  0  0  0  0
 11 28  1  0  0  0  0
 12 30  1  0  0  0  0
 13 18  1  0  0  0  0
 13 29  2  0  0  0  0
 14 23  1  0  0  0  0
 14 27  2  0  0  0  0
 15 24  2  0  0  0  0
 15 29  1  0  0  0  0
 16 30  2  0  0  0  0
 16 31  1  0  0  0  0
 17 32  1  0  0  0  0
 18 25  2  0  0  0  0
 18 34  1  0  0  0  0
 19 32  1  0  0  0  0
 19 33  2  0  0  0  0
 19 35  1  0  0  0  0
 20 22  2  0  0  0  0
 20 41  1  0  0  0  0
 21 23  2  0  0  0  0
 21 42  1  0  0  0  0
 22 50  1  0  0  0  0
 23 43  1  0  0  0  0
 24 25  1  0  0  0  0
 24 53  1  0  0  0  0
 25 60  1  0  0  0  0
 26 82  1  0  0  0  0
 27 83  1  0  0  0  0
 28 31  2  0  0  0  0
 28 82  1  0  0  0  0
 29 84  1  0  0  0  0
 30 85  1  0  0  0  0
 31 86  1  0  0  0  0
 32 66  2  0  0  0  0
 33 68  1  0  0  0  0
 33 71  1  0  0  0  0
 34 36  1  0  0  0  0
 34 67  2  0  0  0  0
 35 72  1  0  0  0  0
 35 76  2  0  0  0  0
 36 69  1  0  0  0  0
 36 77  2  0  0  0  0
 37 51  1  0  0  0  0
 37 73  1  0  0  0  0
 37 78  2  0  0  0  0
 38 61  1  0  0  0  0
 38 62  1  0  0  0  0
 38 79  2  0  0  0  0
 39 63  1  0  0  0  0
 39 70  1  0  0  0  0
 39 80  2  0  0  0  0
 40 64  1  0  0  0  0
 40 74  1  0  0  0  0
 40 81  2  0  0  0  0
 41 44  1  0  0  0  0
 42 51  1  0  0  0  0
 43 70  1  0  0  0  0
 44 46  1  0  0  0  0
 45 47  1  0  0  0  0
 45 48  1  0  0  0  0
 46 50  1  0  0  0  0
 47 52  1  0  0  0  0
 48 69  1  0  0  0  0
 49 52  1  0  0  0  0
 49 69  1  0  0  0  0
 50 73  1  0  0  0  0
 51 70  1  0  0  0  0
 52 68  1  0  0  0  0
 54 60  1  0  0  0  0
 55 64  1  0  0  0  0
 56 65  1  0  0  0  0
 57 65  1  0  0  0  0
 58 65  1  0  0  0  0
 59 75  1  0  0  0  0
 61 83  1  0  0  0  0
 62 84  1  0  0  0  0
 63 65  1  0  0  0  0
 63 74  1  0  0  0  0
 64 75  1  0  0  0  0
 66 68  1  0  0  0  0
M  CHG  1  75   1
M  ISO  4  34 100  36 100  61 101  83 101
M  END
> <Batch ID>
0122

> <Smiles>
CCc1c(C)cc(OCC(=O)[101CH2:1][101O:1]c2ccc3c(c2)CN(C(=O)C(NC(=O)C(C)NC)C(C)(C)C)C(C(=O)NC2CCCc4ccccc42)C3)cc1[100C:0](=N)[100C:0](=O)N1CCCC(n2nc(-c3ccc(Oc4ccc(F)cc4F)cc3)c(C(N)=O)c2N)C1

> <Shape>
0.266

> <Color>
0.136

> <Negative vol penalty>
0.000

$$$$

  -OEChem-04052302003D

 83 91  0     1  0  0  0  0  0999 V2000
  -22.5043  -23.5450   21.6511 C   0  0  0  0  0  0  0  0  0  0  0  0
  -23.6998  -22.8354   21.7017 C   0  0  0  0  0  0  0  0  0  0  0  0
  -22.8399  -30.5802   20.2537 C   0  0  0  0  0  0  0  0  0  0  0  0
  -23.0007  -29.3346   22.3176 C   0  0  0  0  0  0  0  0  0  0  0  0
  -21.3147  -22.9331   22.0438 C   0  0  0  0  0  0  0  0  0  0  0  0
  -23.7065  -21.5137   22.1462 C   0  0  0  0  0  0  0  0  0  0  0  0
  -26.5164  -18.4912   19.2112 C   0  0  0  0  0  0  0  0  0  0  0  0
  -21.5914  -31.0648   20.6434 C   0  0  0  0  0  0  0  0  0  0  0  0
  -21.7521  -29.8193   22.7074 C   0  0  0  0  0  0  0  0  0  0  0  0
  -27.8993  -18.5471   19.3790 C   0  0  0  0  0  0  0  0  0  0  0  0
  -18.5042  -29.1598   22.0390 C   0  0  0  0  0  0  0  0  0  0  0  0
  -17.5966  -28.2503   22.5817 C   0  0  0  0  0  0  0  0  0  0  0  0
  -30.8981  -22.3673   20.8853 C   0  0  0  0  0  0  0  0  0  0  0  0
  -27.8113  -16.5446   20.7212 C   0  0  0  0  0  0  0  0  0  0  0  0
  -32.4116  -23.7983   22.7412 C   0  0  0  0  0  0  0  0  0  0  0  0
  -17.5379  -29.5310   24.6296 C   0  0  0  0  0  0  0  0  0  0  0  0
  -23.5446  -29.7150   21.0908 C   0  0  0  0  0  0  0  0  0  0  0  0
  -31.8717  -21.7155   21.6423 C   0  0  0  0  0  0  0  0  0  0  0  0
  -26.0900  -29.7966   20.9428 C   0  0  0  0  0  0  0  0  0  0  0  0
  -21.3053  -21.6002   22.4842 C   0  0  0  0  0  0  0  0  0  0  0  0
  -25.7679  -17.4660   19.8072 C   0  0  0  0  0  0  0  0  0  0  0  0
  -22.5158  -20.8839   22.5465 C   0  0  0  0  0  0  0  0  0  0  0  0
  -26.4193  -16.4765   20.5573 C   0  0  0  0  0  0  0  0  0  0  0  0
  -32.6284  -22.4310   22.5702 C   0  0  0  0  0  0  0  0  0  0  0  0
  -31.4380  -24.4501   21.9842 C   0  0  0  0  0  0  0  0  0  0  0  0
  -30.6813  -23.7346   21.0562 C   0  0  0  0  0  0  0  0  0  0  0  0
  -21.0475  -30.6844   21.8702 C   0  0  0  0  0  0  0  0  0  0  0  0
  -28.5466  -17.5753   20.1365 C   0  0  0  0  0  0  0  0  0  0  0  0
  -18.9288  -30.2549   22.7915 C   0  0  0  0  0  0  0  0  0  0  0  0
  -17.1134  -28.4359   23.8770 C   0  0  0  0  0  0  0  0  0  0  0  0
  -18.4456  -30.4405   24.0868 C   0  0  0  0  0  0  0  0  0  0  0  0
  -24.8341  -29.2136   20.6885 C   0  0  0  0  0  0  0  0  0  0  0  0
  -26.9906  -28.9408   20.3572 C   0  0  0  0  0  0  0  0  0  0  0  0
  -32.0775  -20.2720   21.4384 C   0  0  0  0  0  0  0  0  0  0  0  0
  -31.4536  -19.2983   22.1199 C   0  0  0  0  0  0  0  0  0  0  0  0
  -26.4135  -31.0037   21.6455 C   0  0  0  0  0  0  0  0  0  0  0  0
  -23.4431  -17.3536   21.9719 C   0  0  0  0  0  0  0  0  0  0  0  0
  -23.4144  -14.2013   21.2073 C   0  0  0  0  0  0  0  0  0  0  0  0
  -25.0976  -11.5072   19.9601 C   0  0  0  0  0  0  0  0  0  0  0  0
  -28.8581  -23.7991   19.3189 C   0  0  0  0  0  0  0  0  0  0  0  0
  -20.0017  -20.9965   22.9434 C   0  0  0  0  0  0  0  0  0  0  0  0
  -24.2802  -17.4048   19.5944 C   0  0  0  0  0  0  0  0  0  0  0  0
  -25.6640  -15.3436   21.2011 C   0  0  0  0  0  0  0  0  0  0  0  0
  -20.0386  -19.4739   23.0469 C   0  0  0  0  0  0  0  0  0  0  0  0
  -26.2637  -25.0370   17.2181 C   0  0  0  0  0  0  0  0  0  0  0  0
  -21.3027  -19.0184   23.7689 C   0  0  0  0  0  0  0  0  0  0  0  0
  -25.7638  -26.2819   17.9546 C   0  0  0  0  0  0  0  0  0  0  0  0
  -26.6490  -23.9210   18.1875 C   0  0  0  0  0  0  0  0  0  0  0  0
  -27.0980  -25.5563   19.9746 C   0  0  0  0  0  0  0  0  0  0  0  0
  -22.5601  -19.4406   22.9994 C   0  0  1  0  0  0  0  0  0  0  0  0
  -23.5547  -16.6064   20.6731 C   0  0  1  0  0  0  0  0  0  0  0  0
  -26.7592  -26.7309   19.0423 C   0  0  2  0  0  0  0  0  0  0  0  0
  -33.6806  -21.7655   23.3979 C   0  0  0  0  0  0  0  0  0  0  0  0
  -31.2266  -25.9152   22.1887 C   0  0  0  0  0  0  0  0  0  0  0  0
  -24.8244   -9.0563   19.4955 C   0  0  0  0  0  0  0  0  0  0  0  0
  -23.7265  -13.6048   24.1833 C   0  0  0  0  0  0  0  0  0  0  0  0
  -24.3938  -11.2699   23.5742 C   0  0  0  0  0  0  0  0  0  0  0  0
  -22.1208  -12.1101   22.9826 C   0  0  0  0  0  0  0  0  0  0  0  0
  -25.5477  -11.8884   17.0599 C   0  0  0  0  0  0  0  0  0  0  0  0
  -31.7036  -17.8333   21.8876 C   0  0  0  0  0  0  0  0  0  0  0  0
  -30.4225  -17.0953   21.5173 C   0  0  0  0  0  0  0  0  0  1  0  0
  -24.1300  -12.9720   21.7130 C   0  0  1  0  0  0  0  0  0  0  0  0
  -24.7056  -10.4631   18.9302 C   0  0  2  0  0  0  0  0  0  0  0  0
  -23.6071  -12.5115   23.1029 C   0  0  0  0  0  0  0  0  0  0  0  0
  -24.9247  -28.0755   19.9953 N   0  0  0  0  0  0  0  0  0  0  0  0
  -26.2484  -27.9366   19.8088 N   0  0  0  0  0  0  0  0  0  0  0  0
  -24.2101  -15.3309   20.9693 N   0  0  0  0  0  0  0  0  0  0  0  0
  -27.5974  -24.4186   19.1865 N   0  0  0  0  0  0  0  0  0  0  0  0
  -28.3372  -28.9570   20.2629 N   0  0  0  0  0  0  0  0  0  0  0  0
  -25.3668  -31.7638   22.1849 N   0  0  0  0  0  0  0  0  0  0  0  0
  -29.6875  -24.3789   20.2784 N   0  0  0  0  0  0  0  0  0  0  0  0
  -22.7806  -18.5620   21.8707 N   0  0  0  0  0  0  0  0  0  0  0  0
  -24.0042  -11.9660   20.6639 N   0  0  0  0  0  0  0  0  0  0  0  0
  -25.5841  -10.5633   17.7306 N   0  3  0  0  0  0  0  0  0  0  0  0
  -27.5946  -31.4052   21.7767 O   0  0  0  0  0  0  0  0  0  0  0  0
  -23.9212  -16.8688   22.9908 O   0  0  0  0  0  0  0  0  0  0  0  0
  -22.1954  -14.1586   21.0233 O   0  0  0  0  0  0  0  0  0  0  0  0
  -26.2581  -11.8760   20.1263 O   0  0  0  0  0  0  0  0  0  0  0  0
  -29.1888  -22.8430   18.6129 O   0  0  0  0  0  0  0  0  0  0  0  0
  -19.8293  -31.1573   22.2510 O   0  0  0  0  0  0  0  0  0  0  0  0
  -29.8963  -17.6279   20.3025 O   0  0  0  0  0  0  0  0  0  1  0  0
  -16.2406  -27.5633   24.3975 F   0  0  0  0  0  0  0  0  0  0  0  0
  -18.8489  -31.4912   24.8141 F   0  0  0  0  0  0  0  0  0  0  0  0
  1  2  1  0  0  0  0
  1  5  2  0  0  0  0
  2  6  2  0  0  0  0
  3  8  2  0  0  0  0
  3 17  1  0  0  0  0
  4  9  1  0  0  0  0
  4 17  2  0  0  0  0
  5 20  1  0  0  0  0
  6 22  1  0  0  0  0
  7 10  2  0  0  0  0
  7 21  1  0  0  0  0
  8 27  1  0  0  0  0
  9 27  2  0  0  0  0
 10 28  1  0  0  0  0
 11 12  2  0  0  0  0
 11 29  1  0  0  0  0
 12 30  1  0  0  0  0
 13 18  1  0  0  0  0
 13 26  2  0  0  0  0
 14 23  1  0  0  0  0
 14 28  2  0  0  0  0
 15 24  1  0  0  0  0
 15 25  2  0  0  0  0
 16 30  2  0  0  0  0
 16 31  1  0  0  0  0
 17 32  1  0  0  0  0
 18 24  2  0  0  0  0
 18 34  1  0  0  0  0
 19 32  1  0  0  0  0
 19 33  2  0  0  0  0
 19 36  1  0  0  0  0
 20 22  2  0  0  0  0
 20 41  1  0  0  0  0
 21 23  2  0  0  0  0
 21 42  1  0  0  0  0
 22 50  1  0  0  0  0
 23 43  1  0  0  0  0
 24 53  1  0  0  0  0
 25 26  1  0  0  0  0
 25 54  1  0  0  0  0
 26 71  1  0  0  0  0
 27 80  1  0  0  0  0
 28 81  1  0  0  0  0
 29 31  2  0  0  0  0
 29 80  1  0  0  0  0
 30 82  1  0  0  0  0
 31 83  1  0  0  0  0
 32 65  2  0  0  0  0
 33 66  1  0  0  0  0
 33 69  1  0  0  0  0
 34 35  2  0  0  0  0
 35 60  1  0  0  0  0
 36 70  1  0  0  0  0
 36 75  2  0  0  0  0
 37 51  1  0  0  0  0
 37 72  1  0  0  0  0
 37 76  2  0  0  0  0
 38 62  1  0  0  0  0
 38 67  1  0  0  0  0
 38 77  2  0  0  0  0
 39 63  1  0  0  0  0
 39 73  1  0  0  0  0
 39 78  2  0  0  0  0
 40 68  1  0  0  0  0
 40 71  1  0  0  0  0
 40 79  2  0  0  0  0
 41 44  1  0  0  0  0
 42 51  1  0  0  0  0
 43 67  1  0  0  0  0
 44 46  1  0  0  0  0
 45 47  1  0  0  0  0
 45 48  1  0  0  0  0
 46 50  1  0  0  0  0
 47 52  1  0  0  0  0
 48 68  1  0  0  0  0
 49 52  1  0  0  0  0
 49 68  1  0  0  0  0
 50 72  1  0  0  0  0
 51 67  1  0  0  0  0
 52 66  1  0  0  0  0
 55 63  1  0  0  0  0
 56 64  1  0  0  0  0
 57 64  1  0  0  0  0
 58 64  1  0  0  0  0
 59 74  1  0  0  0  0
 60 61  1  0  0  0  0
 61 81  1  0  0  0  0
 62 64  1  0  0  0  0
 62 73  1  0  0  0  0
 63 74  1  0  0  0  0
 65 66  1  0  0  0  0
M  CHG  1  74   1
M  ISO  4  40 100  61 101  71 100  81 101
M  END
> <Batch ID>
0122

> <Smiles>
CNC(C)C(=O)NC(C(=O)N1Cc2cc([101O:1][101CH2:1]CC=Cc3cc([100NH:0][100C:0](=O)N4CCCC(n5nc(-c6ccc(Oc7ccc(F)cc7F)cc6)c(C(N)=O)c5N)C4)c(C)cc3C)ccc2CC1C(=O)NC1CCCc2ccccc21)C(C)(C)C

> <Shape>
0.230

> <Color>
0.095

> <Negative vol penalty>
0.000

$$$$

  -OEChem-04052302003D

 83 91  0     1  0  0  0  0  0999 V2000
  -23.6199   -8.1590   21.4475 C   0  0  0  0  0  0  0  0  0  0  0  0
  -24.3827   -9.2329   20.9998 C   0  0  0  0  0  0  0  0  0  0  0  0
  -33.6436  -22.9679   18.4814 C   0  0  0  0  0  0  0  0  0  0  0  0
  -22.9389  -30.9083   22.3127 C   0  0  0  0  0  0  0  0  0  0  0  0
  -22.4319  -30.0135   24.4988 C   0  0  0  0  0  0  0  0  0  0  0  0
  -33.3069  -21.6379   18.7329 C   0  0  0  0  0  0  0  0  0  0  0  0
  -32.7387  -23.9856   18.7835 C   0  0  0  0  0  0  0  0  0  0  0  0
  -22.2604   -8.3304   21.7049 C   0  0  0  0  0  0  0  0  0  0  0  0
  -23.7861  -10.4786   20.8083 C   0  0  0  0  0  0  0  0  0  0  0  0
  -26.5662  -14.2730   22.6841 C   0  0  0  0  0  0  0  0  0  0  0  0
  -21.5836  -31.1618   22.1020 C   0  0  0  0  0  0  0  0  0  0  0  0
  -21.0765  -30.2671   24.2883 C   0  0  0  0  0  0  0  0  0  0  0  0
  -27.6633  -14.6908   21.9320 C   0  0  0  0  0  0  0  0  0  0  0  0
  -18.5062  -28.8438   22.6154 C   0  0  0  0  0  0  0  0  0  0  0  0
  -17.5985  -27.8419   22.9587 C   0  0  0  0  0  0  0  0  0  0  0  0
  -31.1603  -22.3431   19.5884 C   0  0  0  0  0  0  0  0  0  0  0  0
  -26.3715  -16.5456   21.0892 C   0  0  0  0  0  0  0  0  0  0  0  0
  -16.5349  -29.3423   24.5254 C   0  0  0  0  0  0  0  0  0  0  0  0
  -23.3631  -30.3341   23.5110 C   0  0  0  0  0  0  0  0  0  0  0  0
  -32.0652  -21.3255   19.2864 C   0  0  0  0  0  0  0  0  0  0  0  0
  -31.4971  -23.6732   19.3370 C   0  0  0  0  0  0  0  0  0  0  0  0
  -25.7112  -30.9385   24.3040 C   0  0  0  0  0  0  0  0  0  0  0  0
  -21.6489   -9.5813   21.5256 C   0  0  0  0  0  0  0  0  0  0  0  0
  -25.3581  -14.9834   22.6359 C   0  0  0  0  0  0  0  0  0  0  0  0
  -22.4169  -10.6666   21.0622 C   0  0  0  0  0  0  0  0  0  0  0  0
  -25.2614  -16.1362   21.8436 C   0  0  0  0  0  0  0  0  0  0  0  0
  -20.6524  -30.8413   23.0898 C   0  0  0  0  0  0  0  0  0  0  0  0
  -27.5651  -15.8256   21.1321 C   0  0  0  0  0  0  0  0  0  0  0  0
  -18.4283  -30.0949   23.2272 C   0  0  0  0  0  0  0  0  0  0  0  0
  -16.6128  -28.0912   23.9136 C   0  0  0  0  0  0  0  0  0  0  0  0
  -17.4427  -30.3442   24.1822 C   0  0  0  0  0  0  0  0  0  0  0  0
  -24.7629  -30.0714   23.7290 C   0  0  0  0  0  0  0  0  0  0  0  0
  -26.8847  -30.2252   24.2852 C   0  0  0  0  0  0  0  0  0  0  0  0
  -31.7104  -19.9201   19.5518 C   0  0  0  0  0  0  0  0  0  0  0  0
  -30.5541  -24.7350   19.6519 C   0  0  0  0  0  0  0  0  0  0  0  0
  -30.4586  -19.4679   19.7099 C   0  0  0  0  0  0  0  0  0  0  0  0
  -29.5176  -24.6327   20.5109 C   0  0  0  0  0  0  0  0  0  0  0  0
  -25.5459  -32.2698   24.8100 C   0  0  0  0  0  0  0  0  0  0  0  0
  -30.2061  -18.0237   19.9857 C   0  0  0  0  0  0  0  0  0  0  0  0
  -28.6518  -25.8082   20.7327 C   0  0  0  0  0  0  0  0  0  0  0  0
  -22.3896  -14.3012   21.7269 C   0  0  0  0  0  0  0  0  0  0  0  0
  -21.7636  -17.2551   22.9121 C   0  0  0  0  0  0  0  0  0  0  0  0
  -22.9286  -20.3596   23.7195 C   0  0  0  0  0  0  0  0  0  0  0  0
  -20.1662   -9.7064   21.7717 C   0  0  0  0  0  0  0  0  0  0  0  0
  -24.1922  -14.5350   23.4738 C   0  0  0  0  0  0  0  0  0  0  0  0
  -23.9932  -16.9456   21.7726 C   0  0  0  0  0  0  0  0  0  0  0  0
  -19.6901  -11.1509   21.9018 C   0  0  0  0  0  0  0  0  0  0  0  0
  -28.5685  -25.7634   24.3964 C   0  0  0  0  0  0  0  0  0  0  0  0
  -20.2800  -12.0099   20.7878 C   0  0  0  0  0  0  0  0  0  0  0  0
  -27.6221  -26.9262   24.6828 C   0  0  0  0  0  0  0  0  0  0  0  0
  -28.1899  -25.0201   23.1163 C   0  0  0  0  0  0  0  0  0  0  0  0
  -27.1347  -27.0702   22.2086 C   0  0  0  0  0  0  0  0  0  0  0  0
  -21.8112  -12.0395   20.8661 C   0  0  1  0  0  0  0  0  0  0  0  0
  -22.8511  -15.0404   22.9509 C   0  0  1  0  0  0  0  0  0  0  0  0
  -27.5250  -27.8612   23.4669 C   0  0  1  0  0  0  0  0  0  0  0  0
  -22.1726  -22.5711   24.6332 C   0  0  0  0  0  0  0  0  0  0  0  0
  -20.4841  -17.9255   20.2244 C   0  0  0  0  0  0  0  0  0  0  0  0
  -20.6159  -20.3475   20.8446 C   0  0  0  0  0  0  0  0  0  0  0  0
  -19.2384  -18.7839   22.2158 C   0  0  0  0  0  0  0  0  0  0  0  0
  -24.7460  -20.1508   26.0459 C   0  0  0  0  0  0  0  0  0  0  0  0
  -28.7514  -17.6349   20.1446 C   0  0  0  0  0  0  0  0  0  1  0  0
  -21.7600  -18.6551   22.3471 C   0  0  1  0  0  0  0  0  0  0  0  0
  -22.7563  -21.2071   24.9671 C   0  0  2  0  0  0  0  0  0  0  0  0
  -20.5481  -18.9119   21.4076 C   0  0  0  0  0  0  0  0  0  0  0  0
  -25.2887  -28.8969   23.3708 N   0  0  0  0  0  0  0  0  0  0  0  0
  -26.5800  -29.0211   23.7216 N   0  0  0  0  0  0  0  0  0  0  0  0
  -28.0458  -25.9431   21.9805 N   0  0  0  0  0  0  0  0  0  0  0  0
  -22.8791  -16.4631   22.6054 N   0  0  0  0  0  0  0  0  0  0  0  0
  -28.1372  -30.5167   24.6958 N   0  0  0  0  0  0  0  0  0  0  0  0
  -24.2728  -32.8532   24.7527 N   0  0  0  0  0  0  0  0  0  0  0  0
  -22.2465  -12.9394   21.9126 N   0  0  0  0  0  0  0  0  0  0  0  0
  -21.8306  -19.5572   23.4915 N   0  0  0  0  0  0  0  0  0  0  0  0
  -24.0699  -21.4101   25.6409 N   0  3  0  0  0  0  0  0  0  0  0  0
  -26.5024  -32.9289   25.2836 O   0  0  0  0  0  0  0  0  0  0  0  0
  -31.1191  -17.2075   20.0767 O   0  0  0  0  0  0  0  0  0  0  0  0
  -28.5140  -26.5976   19.7965 O   0  0  0  0  0  0  0  0  0  0  0  0
  -22.1774  -14.9207   20.6911 O   0  0  0  0  0  0  0  0  0  0  0  0
  -20.8150  -16.8807   23.6061 O   0  0  0  0  0  0  0  0  0  0  0  0
  -23.9348  -20.4075   23.0154 O   0  0  0  0  0  0  0  0  0  0  0  0
  -19.3298  -31.0888   22.8848 O   0  0  0  0  0  0  0  0  0  0  0  0
  -28.6342  -16.2352   20.3965 O   0  0  0  0  0  0  0  0  0  1  0  0
  -15.7402  -27.1295   24.2420 F   0  0  0  0  0  0  0  0  0  0  0  0
  -17.3621  -31.5446   24.7725 F   0  0  0  0  0  0  0  0  0  0  0  0
  1  2  1  0  0  0  0
  1  8  2  0  0  0  0
  2  9  2  0  0  0  0
  3  6  2  0  0  0  0
  3  7  1  0  0  0  0
  4 11  2  0  0  0  0
  4 19  1  0  0  0  0
  5 12  1  0  0  0  0
  5 19  2  0  0  0  0
  6 20  1  0  0  0  0
  7 21  2  0  0  0  0
  8 23  1  0  0  0  0
  9 25  1  0  0  0  0
 10 13  2  0  0  0  0
 10 24  1  0  0  0  0
 11 27  1  0  0  0  0
 12 27  2  0  0  0  0
 13 28  1  0  0  0  0
 14 15  2  0  0  0  0
 14 29  1  0  0  0  0
 15 30  1  0  0  0  0
 16 20  2  0  0  0  0
 16 21  1  0  0  0  0
 17 26  1  0  0  0  0
 17 28  2  0  0  0  0
 18 30  2  0  0  0  0
 18 31  1  0  0  0  0
 19 32  1  0  0  0  0
 20 34  1  0  0  0  0
 21 35  1  0  0  0  0
 22 32  1  0  0  0  0
 22 33  2  0  0  0  0
 22 38  1  0  0  0  0
 23 25  2  0  0  0  0
 23 44  1  0  0  0  0
 24 26  2  0  0  0  0
 24 45  1  0  0  0  0
 25 53  1  0  0  0  0
 26 46  1  0  0  0  0
 27 80  1  0  0  0  0
 28 81  1  0  0  0  0
 29 31  2  0  0  0  0
 29 80  1  0  0  0  0
 30 82  1  0  0  0  0
 31 83  1  0  0  0  0
 32 65  2  0  0  0  0
 33 66  1  0  0  0  0
 33 69  1  0  0  0  0
 34 36  2  0  0  0  0
 35 37  2  0  0  0  0
 36 39  1  0  0  0  0
 37 40  1  0  0  0  0
 38 70  1  0  0  0  0
 38 74  2  0  0  0  0
 39 61  1  0  0  0  0
 39 75  2  0  0  0  0
 40 67  1  0  0  0  0
 40 76  2  0  0  0  0
 41 54  1  0  0  0  0
 41 71  1  0  0  0  0
 41 77  2  0  0  0  0
 42 62  1  0  0  0  0
 42 68  1  0  0  0  0
 42 78  2  0  0  0  0
 43 63  1  0  0  0  0
 43 72  1  0  0  0  0
 43 79  2  0  0  0  0
 44 47  1  0  0  0  0
 45 54  1  0  0  0  0
 46 68  1  0  0  0  0
 47 49  1  0  0  0  0
 48 50  1  0  0  0  0
 48 51  1  0  0  0  0
 49 53  1  0  0  0  0
 50 55  1  0  0  0  0
 51 67  1  0  0  0  0
 52 55  1  0  0  0  0
 52 67  1  0  0  0  0
 53 71  1  0  0  0  0
 54 68  1  0  0  0  0
 55 66  1  0  0  0  0
 56 63  1  0  0  0  0
 57 64  1  0  0  0  0
 58 64  1  0  0  0  0
 59 64  1  0  0  0  0
 60 73  1  0  0  0  0
 61 81  1  0  0  0  0
 62 64  1  0  0  0  0
 62 72  1  0  0  0  0
 63 73  1  0  0  0  0
 65 66  1  0  0  0  0
M  CHG  1  73   1
M  ISO  4  37 100  40 100  61 101  81 101
M  END
> <Batch ID>
0122

> <Smiles>
CNC(C)C(=O)NC(C(=O)N1Cc2cc([101O:1][101CH2:1]C(=O)C=Cc3cccc(C=[100CH:0][100C:0](=O)N4CCCC(n5nc(-c6ccc(Oc7ccc(F)cc7F)cc6)c(C(N)=O)c5N)C4)c3)ccc2CC1C(=O)NC1CCCc2ccccc21)C(C)(C)C

> <Shape>
0.207

> <Color>
0.102

> <Negative vol penalty>
0.000

$$$$

  -OEChem-04052302003D

 87 95  0     1  0  0  0  0  0999 V2000
  -30.6358  -34.3763   24.8365 C   0  0  0  0  0  0  0  0  0  0  0  0
  -30.5378  -33.1963   24.1062 C   0  0  0  0  0  0  0  0  0  0  0  0
  -23.1310   -9.4033   20.7442 C   0  0  0  0  0  0  0  0  0  0  0  0
  -22.7492  -11.6791   21.4598 C   0  0  0  0  0  0  0  0  0  0  0  0
  -29.3270  -17.2467   20.2094 C   0  0  0  0  0  0  0  0  0  0  0  0
  -29.5671  -34.7961   25.6274 C   0  0  0  0  0  0  0  0  0  0  0  0
  -29.3713  -32.4347   24.1673 C   0  0  0  0  0  0  0  0  0  0  0  0
  -26.8714  -29.1596   19.6362 C   0  0  0  0  0  0  0  0  0  0  0  0
  -22.0531   -8.9782   21.5207 C   0  0  0  0  0  0  0  0  0  0  0  0
  -21.6712  -11.2541   22.2363 C   0  0  0  0  0  0  0  0  0  0  0  0
  -29.2741  -18.6152   20.4741 C   0  0  0  0  0  0  0  0  0  0  0  0
  -26.9202  -27.8020   19.3229 C   0  0  0  0  0  0  0  0  0  0  0  0
  -19.6239   -7.2435   23.5976 C   0  0  0  0  0  0  0  0  0  0  0  0
  -19.7955   -6.0998   24.3775 C   0  0  0  0  0  0  0  0  0  0  0  0
  -24.8273  -27.4672   20.4748 C   0  0  0  0  0  0  0  0  0  0  0  0
  -21.6056   -7.1778   25.5601 C   0  0  0  0  0  0  0  0  0  0  0  0
  -23.4791  -10.7537   20.7137 C   0  0  0  0  0  0  0  0  0  0  0  0
  -29.9417  -16.7847   19.0456 C   0  0  0  0  0  0  0  0  0  0  0  0
  -24.5606  -11.6107   18.5682 C   0  0  0  0  0  0  0  0  0  0  0  0
  -28.3833  -34.0443   25.6906 C   0  0  0  0  0  0  0  0  0  0  0  0
  -25.8039  -29.6802   20.3818 C   0  0  0  0  0  0  0  0  0  0  0  0
  -28.2863  -32.8441   24.9608 C   0  0  0  0  0  0  0  0  0  0  0  0
  -24.7660  -28.8322   20.7941 C   0  0  0  0  0  0  0  0  0  0  0  0
  -30.5035  -17.6912   18.1466 C   0  0  0  0  0  0  0  0  0  0  0  0
  -30.4507  -19.0597   18.4113 C   0  0  0  0  0  0  0  0  0  0  0  0
  -21.3232   -9.9036   22.2668 C   0  0  0  0  0  0  0  0  0  0  0  0
  -25.8995  -26.9550   19.7446 C   0  0  0  0  0  0  0  0  0  0  0  0
  -29.8360  -19.5217   19.5751 C   0  0  0  0  0  0  0  0  0  0  0  0
  -20.4432   -8.3543   23.7990 C   0  0  0  0  0  0  0  0  0  0  0  0
  -20.7863   -6.0670   25.3587 C   0  0  0  0  0  0  0  0  0  0  0  0
  -21.4340   -8.3215   24.7802 C   0  0  0  0  0  0  0  0  0  0  0  0
  -24.5929  -11.1933   19.9122 C   0  0  0  0  0  0  0  0  0  0  0  0
  -25.8654  -11.9229   18.2742 C   0  0  0  0  0  0  0  0  0  0  0  0
  -29.9811  -15.3497   18.7969 C   0  0  0  0  0  0  0  0  0  0  0  0
  -23.4504  -11.7076   17.6661 C   0  0  0  0  0  0  0  0  0  0  0  0
  -30.6497  -14.4238   19.7397 C   0  0  0  0  0  0  0  0  0  0  0  0
  -25.5301  -31.1250   23.1998 C   0  0  0  0  0  0  0  0  0  0  0  0
  -22.4398  -31.4800   22.2796 C   0  0  0  0  0  0  0  0  0  0  0  0
  -19.8469  -30.3826   20.3510 C   0  0  0  0  0  0  0  0  0  0  0  0
  -27.2726  -34.5139   26.5964 C   0  0  0  0  0  0  0  0  0  0  0  0
  -25.7527  -31.1518   20.6887 C   0  0  0  0  0  0  0  0  0  0  0  0
  -23.5877  -29.3451   21.5796 C   0  0  0  0  0  0  0  0  0  0  0  0
  -25.9309  -33.8432   26.3132 C   0  0  0  0  0  0  0  0  0  0  0  0
  -30.1291  -11.0496   20.8354 C   0  0  0  0  0  0  0  0  0  0  0  0
  -26.1088  -32.3356   26.1632 C   0  0  0  0  0  0  0  0  0  0  0  0
  -28.6315  -10.8350   20.6184 C   0  0  0  0  0  0  0  0  0  0  0  0
  -30.4334  -12.4866   21.2461 C   0  0  0  0  0  0  0  0  0  0  0  0
  -28.4072  -13.2997   20.0705 C   0  0  0  0  0  0  0  0  0  0  0  0
  -27.0281  -32.0034   24.9817 C   0  0  1  0  0  0  0  0  0  0  0  0
  -24.8772  -31.4806   21.8941 C   0  0  1  0  0  0  0  0  0  0  0  0
  -28.0638  -11.8668   19.6276 C   0  0  2  0  0  0  0  0  0  0  0  0
  -31.0507  -20.0385   17.4527 C   0  0  0  0  0  0  0  0  0  0  0  0
  -30.9593  -16.9227   14.3906 C   0  0  0  0  0  0  0  0  0  0  0  0
  -17.4341  -30.8497   19.8433 C   0  0  0  0  0  0  0  0  0  0  0  0
  -21.6350  -30.1803   24.9202 C   0  0  0  0  0  0  0  0  0  0  0  0
  -19.3515  -29.8111   23.9624 C   0  0  0  0  0  0  0  0  0  0  0  0
  -20.2235  -32.1311   24.2448 C   0  0  0  0  0  0  0  0  0  0  0  0
  -20.4344  -30.9449   17.5054 C   0  0  0  0  0  0  0  0  0  0  0  0
  -31.1634  -17.1970   16.8976 C   0  0  0  0  0  0  0  0  0  0  0  0
  -30.2741  -17.3952   15.6631 C   0  0  0  0  0  0  0  0  0  0  0  0
  -27.1704  -23.5629   19.6827 C   0  0  0  0  0  0  0  0  0  0  0  0
  -28.5359  -22.8932   19.5743 C   0  0  0  0  0  0  0  0  0  0  0  0
  -27.2365  -25.0374   19.3075 C   0  0  0  0  0  0  0  0  0  1  0  0
  -28.4791  -21.4302   19.9903 C   0  0  0  0  0  0  0  0  0  0  0  0
  -21.1803  -30.6605   22.4245 C   0  0  1  0  0  0  0  0  0  0  0  0
  -18.8770  -31.1254   19.4499 C   0  0  2  0  0  0  0  0  0  0  0  0
  -20.6206  -30.6854   23.8748 C   0  0  0  0  0  0  0  0  0  0  0  0
  -25.8209  -11.2351   20.4358 N   0  0  0  0  0  0  0  0  0  0  0  0
  -29.4401  -14.7914   17.7496 N   0  0  0  0  0  0  0  0  0  0  0  0
  -26.5724  -11.6825   19.4155 N   0  0  0  0  0  0  0  0  0  0  0  0
  -29.8500  -13.4403   20.3047 N   0  0  0  0  0  0  0  0  0  0  0  0
  -23.5863  -30.7903   21.8602 N   0  0  0  0  0  0  0  0  0  0  0  0
  -26.4655  -12.3767   17.1533 N   0  0  0  0  0  0  0  0  0  0  0  0
  -22.1783  -11.3472   18.1310 N   0  0  0  0  0  0  0  0  0  0  0  0
  -26.3112  -32.1335   23.7313 N   0  0  0  0  0  0  0  0  0  0  0  0
  -20.2508  -31.1589   21.4166 N   0  0  0  0  0  0  0  0  0  0  0  0
  -19.0652  -30.7088   18.0314 N   0  3  0  0  0  0  0  0  0  0  0  0
  -23.5852  -12.0865   16.4779 O   0  0  0  0  0  0  0  0  0  0  0  0
  -31.8432  -14.6266   19.9210 O   0  0  0  0  0  0  0  0  0  0  0  0
  -25.3381  -30.0183   23.6897 O   0  0  0  0  0  0  0  0  0  0  0  0
  -22.4060  -32.6889   22.5224 O   0  0  0  0  0  0  0  0  0  0  0  0
  -20.2071  -29.2278   20.1336 O   0  0  0  0  0  0  0  0  0  0  0  0
  -20.2711   -9.4893   23.0244 O   0  0  0  0  0  0  0  0  0  0  0  0
  -25.9449  -25.6293   19.4407 O   0  0  0  0  0  0  0  0  0  1  0  0
  -29.7745  -20.8626   19.8529 O   0  0  0  0  0  0  0  0  0  0  0  0
  -20.9499   -4.9692   26.1086 F   0  0  0  0  0  0  0  0  0  0  0  0
  -22.2234   -9.3860   24.9791 F   0  0  0  0  0  0  0  0  0  0  0  0
  1  2  1  0  0  0  0
  1  6  2  0  0  0  0
  2  7  2  0  0  0  0
  3  9  2  0  0  0  0
  3 17  1  0  0  0  0
  4 10  1  0  0  0  0
  4 17  2  0  0  0  0
  5 11  1  0  0  0  0
  5 18  2  0  0  0  0
  6 20  1  0  0  0  0
  7 22  1  0  0  0  0
  8 12  2  0  0  0  0
  8 21  1  0  0  0  0
  9 26  1  0  0  0  0
 10 26  2  0  0  0  0
 11 28  2  0  0  0  0
 12 27  1  0  0  0  0
 13 14  2  0  0  0  0
 13 29  1  0  0  0  0
 14 30  1  0  0  0  0
 15 23  1  0  0  0  0
 15 27  2  0  0  0  0
 16 30  2  0  0  0  0
 16 31  1  0  0  0  0
 17 32  1  0  0  0  0
 18 24  1  0  0  0  0
 18 34  1  0  0  0  0
 19 32  1  0  0  0  0
 19 33  2  0  0  0  0
 19 35  1  0  0  0  0
 20 22  2  0  0  0  0
 20 40  1  0  0  0  0
 21 23  2  0  0  0  0
 21 41  1  0  0  0  0
 22 49  1  0  0  0  0
 23 42  1  0  0  0  0
 24 25  2  0  0  0  0
 24 59  1  0  0  0  0
 25 28  1  0  0  0  0
 25 52  1  0  0  0  0
 26 83  1  0  0  0  0
 27 84  1  0  0  0  0
 28 85  1  0  0  0  0
 29 31  2  0  0  0  0
 29 83  1  0  0  0  0
 30 86  1  0  0  0  0
 31 87  1  0  0  0  0
 32 68  2  0  0  0  0
 33 70  1  0  0  0  0
 33 73  1  0  0  0  0
 34 36  1  0  0  0  0
 34 69  2  0  0  0  0
 35 74  1  0  0  0  0
 35 78  2  0  0  0  0
 36 71  1  0  0  0  0
 36 79  2  0  0  0  0
 37 50  1  0  0  0  0
 37 75  1  0  0  0  0
 37 80  2  0  0  0  0
 38 65  1  0  0  0  0
 38 72  1  0  0  0  0
 38 81  2  0  0  0  0
 39 66  1  0  0  0  0
 39 76  1  0  0  0  0
 39 82  2  0  0  0  0
 40 43  1  0  0  0  0
 41 50  1  0  0  0  0
 42 72  1  0  0  0  0
 43 45  1  0  0  0  0
 44 46  1  0  0  0  0
 44 47  1  0  0  0  0
 45 49  1  0  0  0  0
 46 51  1  0  0  0  0
 47 71  1  0  0  0  0
 48 51  1  0  0  0  0
 48 71  1  0  0  0  0
 49 75  1  0  0  0  0
 50 72  1  0  0  0  0
 51 70  1  0  0  0  0
 53 60  1  0  0  0  0
 54 66  1  0  0  0  0
 55 67  1  0  0  0  0
 56 67  1  0  0  0  0
 57 67  1  0  0  0  0
 58 77  1  0  0  0  0
 59 60  1  0  0  0  0
 61 62  1  0  0  0  0
 61 63  1  0  0  0  0
 62 64  1  0  0  0  0
 63 84  1  0  0  0  0
 64 85  1  0  0  0  0
 65 67  1  0  0  0  0
 65 76  1  0  0  0  0
 66 77  1  0  0  0  0
 68 70  1  0  0  0  0
M  CHG  1  77   1
M  ISO  4  34 100  36 100  63 101  84 101
M  END
> <Batch ID>
0122

> <Smiles>
CCCc1c([100C:0](=N)[100C:0](=O)N2CCCC(n3nc(-c4ccc(Oc5ccc(F)cc5F)cc4)c(C(N)=O)c3N)C2)ccc(OCCC[101CH2:1][101O:1]c2ccc3c(c2)CN(C(=O)C(NC(=O)C(C)NC)C(C)(C)C)C(C(=O)NC2CCCc4ccccc42)C3)c1C

> <Shape>
0.280

> <Color>
0.095

> <Negative vol penalty>
0.000

$$$$

  -OEChem-04052302003D

 83 91  0     1  0  0  0  0  0999 V2000
  -29.0572  -35.2671   26.5606 C   0  0  0  0  0  0  0  0  0  0  0  0
  -29.5567  -34.5995   25.4469 C   0  0  0  0  0  0  0  0  0  0  0  0
  -23.9486   -6.5824   23.5866 C   0  0  0  0  0  0  0  0  0  0  0  0
  -21.6041   -7.1181   23.8178 C   0  0  0  0  0  0  0  0  0  0  0  0
  -27.4153  -18.0677   21.4832 C   0  0  0  0  0  0  0  0  0  0  0  0
  -28.7986  -17.4056   19.6163 C   0  0  0  0  0  0  0  0  0  0  0  0
  -28.0825  -34.6639   27.3543 C   0  0  0  0  0  0  0  0  0  0  0  0
  -29.0826  -33.3278   25.1270 C   0  0  0  0  0  0  0  0  0  0  0  0
  -27.7343  -29.1292   19.4816 C   0  0  0  0  0  0  0  0  0  0  0  0
  -23.8527   -5.6990   24.6618 C   0  0  0  0  0  0  0  0  0  0  0  0
  -21.5082   -6.2347   24.8930 C   0  0  0  0  0  0  0  0  0  0  0  0
  -27.7886  -19.3974   21.2882 C   0  0  0  0  0  0  0  0  0  0  0  0
  -29.1719  -18.7354   19.4213 C   0  0  0  0  0  0  0  0  0  0  0  0
  -28.0170  -27.8531   18.9965 C   0  0  0  0  0  0  0  0  0  0  0  0
  -22.7276   -2.5584   25.2127 C   0  0  0  0  0  0  0  0  0  0  0  0
  -23.3265   -1.3059   25.0780 C   0  0  0  0  0  0  0  0  0  0  0  0
  -26.2750  -26.9423   20.3947 C   0  0  0  0  0  0  0  0  0  0  0  0
  -24.7395   -1.7770   26.9803 C   0  0  0  0  0  0  0  0  0  0  0  0
  -22.8242   -7.2920   23.1646 C   0  0  0  0  0  0  0  0  0  0  0  0
  -27.9204  -17.0718   20.6473 C   0  0  0  0  0  0  0  0  0  0  0  0
  -22.7213   -7.9120   20.6923 C   0  0  0  0  0  0  0  0  0  0  0  0
  -27.5892  -33.3882   27.0385 C   0  0  0  0  0  0  0  0  0  0  0  0
  -26.7255  -29.3203   20.4366 C   0  0  0  0  0  0  0  0  0  0  0  0
  -28.1013  -32.7064   25.9180 C   0  0  0  0  0  0  0  0  0  0  0  0
  -25.9798  -28.2222   20.8884 C   0  0  0  0  0  0  0  0  0  0  0  0
  -22.6326   -5.5252   25.3150 C   0  0  0  0  0  0  0  0  0  0  0  0
  -28.6668  -19.7313   20.2573 C   0  0  0  0  0  0  0  0  0  0  0  0
  -27.2892  -26.7590   19.4552 C   0  0  0  0  0  0  0  0  0  0  0  0
  -23.1347   -3.4202   26.2312 C   0  0  0  0  0  0  0  0  0  0  0  0
  -24.3324   -0.9151   25.9618 C   0  0  0  0  0  0  0  0  0  0  0  0
  -24.1406   -3.0295   27.1150 C   0  0  0  0  0  0  0  0  0  0  0  0
  -22.9227   -8.2051   22.0544 C   0  0  0  0  0  0  0  0  0  0  0  0
  -22.9302   -9.1076   20.0493 C   0  0  0  0  0  0  0  0  0  0  0  0
  -27.5313  -15.6852   20.8506 C   0  0  0  0  0  0  0  0  0  0  0  0
  -26.4385  -15.2693   21.5258 C   0  0  0  0  0  0  0  0  0  0  0  0
  -22.3761   -6.6702   20.0644 C   0  0  0  0  0  0  0  0  0  0  0  0
  -26.1731  -13.8209   21.6373 C   0  0  0  0  0  0  0  0  0  0  0  0
  -26.6403  -30.4058   23.4229 C   0  0  0  0  0  0  0  0  0  0  0  0
  -28.2627  -23.2678   19.5632 C   0  0  0  0  0  0  0  0  0  0  0  0
  -23.4341  -30.1173   23.0231 C   0  0  0  0  0  0  0  0  0  0  0  0
  -20.8422  -28.6266   21.3780 C   0  0  0  0  0  0  0  0  0  0  0  0
  -26.5697  -32.7571   27.9533 C   0  0  0  0  0  0  0  0  0  0  0  0
  -26.4149  -30.7069   20.9300 C   0  0  0  0  0  0  0  0  0  0  0  0
  -24.8729  -28.3767   21.8981 C   0  0  0  0  0  0  0  0  0  0  0  0
  -25.8498  -31.5631   27.3316 C   0  0  0  0  0  0  0  0  0  0  0  0
  -22.6299  -13.8236   20.7005 C   0  0  0  0  0  0  0  0  0  0  0  0
  -26.8500  -30.6263   26.6617 C   0  0  0  0  0  0  0  0  0  0  0  0
  -22.2809  -12.3471   20.8674 C   0  0  0  0  0  0  0  0  0  0  0  0
  -23.6646  -14.2859   21.7253 C   0  0  0  0  0  0  0  0  0  0  0  0
  -24.5558  -11.9804   21.9021 C   0  0  0  0  0  0  0  0  0  0  0  0
  -27.5943  -31.3360   25.5242 C   0  0  1  0  0  0  0  0  0  0  0  0
  -25.7111  -30.7157   22.2835 C   0  0  1  0  0  0  0  0  0  0  0  0
  -23.5513  -11.4823   20.8512 C   0  0  1  0  0  0  0  0  0  0  0  0
  -18.3348  -28.5666   21.2964 C   0  0  0  0  0  0  0  0  0  0  0  0
  -23.3939  -28.4369   25.5695 C   0  0  0  0  0  0  0  0  0  0  0  0
  -21.1116  -27.6367   24.9222 C   0  0  0  0  0  0  0  0  0  0  0  0
  -21.5034  -30.0608   25.3613 C   0  0  0  0  0  0  0  0  0  0  0  0
  -20.7956  -29.5606   18.5701 C   0  0  0  0  0  0  0  0  0  0  0  0
  -28.0974  -22.0341   20.4268 C   0  0  0  0  0  0  0  0  0  0  0  0
  -27.3229  -24.4168   19.8661 C   0  0  0  0  0  0  0  0  0  1  0  0
  -22.4231  -29.0193   23.2491 C   0  0  1  0  0  0  0  0  0  0  0  0
  -19.5954  -29.2023   20.7311 C   0  0  2  0  0  0  0  0  0  0  0  0
  -22.1301  -28.7849   24.7579 C   0  0  0  0  0  0  0  0  0  0  0  0
  -23.2358   -9.4863   22.2653 N   0  0  0  0  0  0  0  0  0  0  0  0
  -23.2327  -10.0089   21.0272 N   0  0  0  0  0  0  0  0  0  0  0  0
  -24.8450  -13.4087   21.7316 N   0  0  0  0  0  0  0  0  0  0  0  0
  -24.6113  -29.7516   22.3550 N   0  0  0  0  0  0  0  0  0  0  0  0
  -22.8830   -9.4653   18.7484 N   0  0  0  0  0  0  0  0  0  0  0  0
  -22.1981   -5.5394   20.8730 N   0  0  0  0  0  0  0  0  0  0  0  0
  -26.7545  -31.4251   24.3489 N   0  0  0  0  0  0  0  0  0  0  0  0
  -21.2488  -29.3771   22.4609 N   0  0  0  0  0  0  0  0  0  0  0  0
  -19.6203  -28.9685   19.2595 N   0  3  0  0  0  0  0  0  0  0  0  0
  -22.2458   -6.5627   18.8214 O   0  0  0  0  0  0  0  0  0  0  0  0
  -27.1452  -13.0635   21.6451 O   0  0  0  0  0  0  0  0  0  0  0  0
  -27.2102  -29.3216   23.4601 O   0  0  0  0  0  0  0  0  0  0  0  0
  -29.1072  -23.3323   18.6712 O   0  0  0  0  0  0  0  0  0  0  0  0
  -23.1854  -31.2591   23.4181 O   0  0  0  0  0  0  0  0  0  0  0  0
  -21.3976  -27.6104   20.9663 O   0  0  0  0  0  0  0  0  0  0  0  0
  -22.5386   -4.6631   26.3641 O   0  0  0  0  0  0  0  0  0  0  0  0
  -29.0347  -21.0420   20.0651 O   0  0  0  0  0  0  0  0  0  0  0  0
  -27.5635  -25.5122   18.9838 O   0  0  0  0  0  0  0  0  0  1  0  0
  -24.9064    0.2883   25.8333 F   0  0  0  0  0  0  0  0  0  0  0  0
  -24.5351   -3.8527   28.0961 F   0  0  0  0  0  0  0  0  0  0  0  0
  1  2  1  0  0  0  0
  1  7  2  0  0  0  0
  2  8  2  0  0  0  0
  3 10  2  0  0  0  0
  3 19  1  0  0  0  0
  4 11  1  0  0  0  0
  4 19  2  0  0  0  0
  5 12  2  0  0  0  0
  5 20  1  0  0  0  0
  6 13  1  0  0  0  0
  6 20  2  0  0  0  0
  7 22  1  0  0  0  0
  8 24  1  0  0  0  0
  9 14  2  0  0  0  0
  9 23  1  0  0  0  0
 10 26  1  0  0  0  0
 11 26  2  0  0  0  0
 12 27  1  0  0  0  0
 13 27  2  0  0  0  0
 14 28  1  0  0  0  0
 15 16  2  0  0  0  0
 15 29  1  0  0  0  0
 16 30  1  0  0  0  0
 17 25  1  0  0  0  0
 17 28  2  0  0  0  0
 18 30  2  0  0  0  0
 18 31  1  0  0  0  0
 19 32  1  0  0  0  0
 20 34  1  0  0  0  0
 21 32  1  0  0  0  0
 21 33  2  0  0  0  0
 21 36  1  0  0  0  0
 22 24  2  0  0  0  0
 22 42  1  0  0  0  0
 23 25  2  0  0  0  0
 23 43  1  0  0  0  0
 24 51  1  0  0  0  0
 25 44  1  0  0  0  0
 26 79  1  0  0  0  0
 27 80  1  0  0  0  0
 28 81  1  0  0  0  0
 29 31  2  0  0  0  0
 29 79  1  0  0  0  0
 30 82  1  0  0  0  0
 31 83  1  0  0  0  0
 32 64  2  0  0  0  0
 33 65  1  0  0  0  0
 33 68  1  0  0  0  0
 34 35  2  0  0  0  0
 35 37  1  0  0  0  0
 36 69  1  0  0  0  0
 36 73  2  0  0  0  0
 37 66  1  0  0  0  0
 37 74  2  0  0  0  0
 38 52  1  0  0  0  0
 38 70  1  0  0  0  0
 38 75  2  0  0  0  0
 39 59  1  0  0  0  0
 39 60  1  0  0  0  0
 39 76  2  0  0  0  0
 40 61  1  0  0  0  0
 40 67  1  0  0  0  0
 40 77  2  0  0  0  0
 41 62  1  0  0  0  0
 41 71  1  0  0  0  0
 41 78  2  0  0  0  0
 42 45  1  0  0  0  0
 43 52  1  0  0  0  0
 44 67  1  0  0  0  0
 45 47  1  0  0  0  0
 46 48  1  0  0  0  0
 46 49  1  0  0  0  0
 47 51  1  0  0  0  0
 48 53  1  0  0  0  0
 49 66  1  0  0  0  0
 50 53  1  0  0  0  0
 50 66  1  0  0  0  0
 51 70  1  0  0  0  0
 52 67  1  0  0  0  0
 53 65  1  0  0  0  0
 54 62  1  0  0  0  0
 55 63  1  0  0  0  0
 56 63  1  0  0  0  0
 57 63  1  0  0  0  0
 58 72  1  0  0  0  0
 59 80  1  0  0  0  0
 60 81  1  0  0  0  0
 61 63  1  0  0  0  0
 61 71  1  0  0  0  0
 62 72  1  0  0  0  0
 64 65  1  0  0  0  0
M  CHG  1  72   1
M  ISO  4  35 100  37 100  60 101  81 101
M  END
> <Batch ID>
0122

> <Smiles>
CNC(C)C(=O)NC(C(=O)N1Cc2cc([101O:1][101CH2:1]C(=O)COc3ccc(C=[100CH:0][100C:0](=O)N4CCCC(n5nc(-c6ccc(Oc7ccc(F)cc7F)cc6)c(C(N)=O)c5N)C4)cc3)ccc2CC1C(=O)NC1CCCc2ccccc21)C(C)(C)C

> <Shape>
0.291

> <Color>
0.088

> <Negative vol penalty>
0.000

$$$$

  -OEChem-04052302003D

 87 95  0     1  0  0  0  0  0999 V2000
  -19.8984  -27.2925   26.4080 C   0  0  0  0  0  0  0  0  0  0  0  0
  -21.0395  -26.8730   25.7316 C   0  0  0  0  0  0  0  0  0  0  0  0
  -24.6154   -9.1238   21.8785 C   0  0  0  0  0  0  0  0  0  0  0  0
  -23.2760   -9.5609   19.9158 C   0  0  0  0  0  0  0  0  0  0  0  0
  -33.4084  -18.9496   19.9323 C   0  0  0  0  0  0  0  0  0  0  0  0
  -18.9317  -28.0448   25.7422 C   0  0  0  0  0  0  0  0  0  0  0  0
  -21.2139  -27.2048   24.3885 C   0  0  0  0  0  0  0  0  0  0  0  0
  -25.9052  -28.8237   23.3806 C   0  0  0  0  0  0  0  0  0  0  0  0
  -33.9022  -20.2539   19.9117 C   0  0  0  0  0  0  0  0  0  0  0  0
  -23.5633   -8.3962   22.4345 C   0  0  0  0  0  0  0  0  0  0  0  0
  -22.2238   -8.8332   20.4718 C   0  0  0  0  0  0  0  0  0  0  0  0
  -26.9014  -27.8555   23.2634 C   0  0  0  0  0  0  0  0  0  0  0  0
  -22.2245   -5.3083   22.1090 C   0  0  0  0  0  0  0  0  0  0  0  0
  -22.5265   -4.0831   22.7032 C   0  0  0  0  0  0  0  0  0  0  0  0
  -31.1999  -19.7934   20.4299 C   0  0  0  0  0  0  0  0  0  0  0  0
  -26.7376  -27.9866   20.8602 C   0  0  0  0  0  0  0  0  0  0  0  0
  -21.6609   -4.8910   24.8092 C   0  0  0  0  0  0  0  0  0  0  0  0
  -24.4717   -9.7062   20.6192 C   0  0  0  0  0  0  0  0  0  0  0  0
  -32.0573  -18.7193   20.1913 C   0  0  0  0  0  0  0  0  0  0  0  0
  -26.5940   -9.9670   19.2278 C   0  0  0  0  0  0  0  0  0  0  0  0
  -19.0989  -28.3941   24.3928 C   0  0  0  0  0  0  0  0  0  0  0  0
  -25.3090  -29.3737   22.2367 C   0  0  0  0  0  0  0  0  0  0  0  0
  -20.2478  -27.9613   23.7036 C   0  0  0  0  0  0  0  0  0  0  0  0
  -25.7358  -28.9635   20.9656 C   0  0  0  0  0  0  0  0  0  0  0  0
  -33.0449  -21.3280   20.1502 C   0  0  0  0  0  0  0  0  0  0  0  0
  -22.3675   -8.2508   21.7312 C   0  0  0  0  0  0  0  0  0  0  0  0
  -27.3158  -27.4346   22.0031 C   0  0  0  0  0  0  0  0  0  0  0  0
  -21.6407   -6.3250   22.8649 C   0  0  0  0  0  0  0  0  0  0  0  0
  -31.6937  -21.0978   20.4093 C   0  0  0  0  0  0  0  0  0  0  0  0
  -22.2447   -3.8744   24.0533 C   0  0  0  0  0  0  0  0  0  0  0  0
  -21.3589   -6.1163   24.2150 C   0  0  0  0  0  0  0  0  0  0  0  0
  -25.5580  -10.4585   20.0445 C   0  0  0  0  0  0  0  0  0  0  0  0
  -27.3630  -11.0700   18.9476 C   0  0  0  0  0  0  0  0  0  0  0  0
  -32.5736  -24.6265   18.8425 C   0  0  0  0  0  0  0  0  0  0  0  0
  -31.5425  -17.3593   20.2136 C   0  0  0  0  0  0  0  0  0  0  0  0
  -30.3949  -16.9656   20.8061 C   0  0  0  0  0  0  0  0  0  0  0  0
  -33.2372  -23.4651   18.8656 C   0  0  0  0  0  0  0  0  0  0  0  0
  -26.8392   -8.6327   18.7639 C   0  0  0  0  0  0  0  0  0  0  0  0
  -30.0012  -15.5442   20.7326 C   0  0  0  0  0  0  0  0  0  0  0  0
  -22.3596  -29.4340   21.0531 C   0  0  0  0  0  0  0  0  0  0  0  0
  -28.8386  -24.2841   21.0460 C   0  0  0  0  0  0  0  0  0  0  0  0
  -23.6948  -31.4276   18.8702 C   0  0  0  0  0  0  0  0  0  0  0  0
  -26.5062  -32.4842   17.2495 C   0  0  0  0  0  0  0  0  0  0  0  0
  -18.0043  -29.1686   23.7024 C   0  0  0  0  0  0  0  0  0  0  0  0
  -24.2544  -30.4366   22.3799 C   0  0  0  0  0  0  0  0  0  0  0  0
  -25.1419  -29.5375   19.7062 C   0  0  0  0  0  0  0  0  0  0  0  0
  -18.4422  -29.7963   22.3817 C   0  0  0  0  0  0  0  0  0  0  0  0
  -26.5064  -15.9794   19.7184 C   0  0  0  0  0  0  0  0  0  0  0  0
  -19.2093  -28.7834   21.5376 C   0  0  0  0  0  0  0  0  0  0  0  0
  -26.0250  -14.5311   19.6943 C   0  0  0  0  0  0  0  0  0  0  0  0
  -27.5410  -16.2199   20.8167 C   0  0  0  0  0  0  0  0  0  0  0  0
  -28.2221  -13.8390   20.7305 C   0  0  0  0  0  0  0  0  0  0  0  0
  -20.4848  -28.3223   22.2531 C   0  0  1  0  0  0  0  0  0  0  0  0
  -23.3550  -30.5550   21.1533 C   0  0  1  0  0  0  0  0  0  0  0  0
  -27.2155  -13.5634   19.6027 C   0  0  1  0  0  0  0  0  0  0  0  0
  -27.2766  -34.1017   15.4925 C   0  0  0  0  0  0  0  0  0  0  0  0
  -22.5674  -29.6032   16.6998 C   0  0  0  0  0  0  0  0  0  0  0  0
  -24.1270  -30.6923   15.0719 C   0  0  0  0  0  0  0  0  0  0  0  0
  -22.3714  -32.0484   16.2128 C   0  0  0  0  0  0  0  0  0  0  0  0
  -28.2661  -33.9014   19.1609 C   0  0  0  0  0  0  0  0  0  0  0  0
  -33.5906  -22.7175   20.1245 C   0  0  0  0  0  0  0  0  0  0  0  0
  -28.8490  -23.2932   19.8913 C   0  0  0  0  0  0  0  0  0  0  0  0
  -28.2327  -25.6401   20.7403 C   0  0  0  0  0  0  0  0  0  1  0  0
  -29.4820  -21.9586   20.2575 C   0  0  0  0  0  0  0  0  0  0  0  0
  -24.3736  -31.2490   17.5337 C   0  0  1  0  0  0  0  0  0  0  0  0
  -27.0502  -33.8753   16.9792 C   0  0  2  0  0  0  0  0  0  0  0  0
  -23.3699  -30.8858   16.4031 C   0  0  0  0  0  0  0  0  0  0  0  0
  -25.6570  -11.7715   20.2687 N   0  0  0  0  0  0  0  0  0  0  0  0
  -26.7644  -12.1144   19.5888 N   0  0  0  0  0  0  0  0  0  0  0  0
  -28.6399  -15.2453   20.7437 N   0  0  0  0  0  0  0  0  0  0  0  0
  -24.1096  -30.5694   19.8985 N   0  0  0  0  0  0  0  0  0  0  0  0
  -28.4861  -11.2386   18.2178 N   0  0  0  0  0  0  0  0  0  0  0  0
  -25.9502   -7.6186   19.1457 N   0  0  0  0  0  0  0  0  0  0  0  0
  -21.5179  -29.3299   22.1441 N   0  0  0  0  0  0  0  0  0  0  0  0
  -25.1280  -32.4741   17.2921 N   0  0  0  0  0  0  0  0  0  0  0  0
  -28.3469  -34.0711   17.6872 N   0  3  0  0  0  0  0  0  0  0  0  0
  -27.8268   -8.3451   18.0459 O   0  0  0  0  0  0  0  0  0  0  0  0
  -30.9031  -14.7068   20.6707 O   0  0  0  0  0  0  0  0  0  0  0  0
  -22.3544  -28.7176   20.0590 O   0  0  0  0  0  0  0  0  0  0  0  0
  -29.2872  -24.0117   22.1583 O   0  0  0  0  0  0  0  0  0  0  0  0
  -22.8335  -32.3012   18.9991 O   0  0  0  0  0  0  0  0  0  0  0  0
  -27.2311  -31.5038   17.4036 O   0  0  0  0  0  0  0  0  0  0  0  0
  -21.3408   -7.5406   22.2733 O   0  0  0  0  0  0  0  0  0  0  0  0
  -28.2875  -26.4892   21.8858 O   0  0  0  0  0  0  0  0  0  1  0  0
  -30.8382  -22.1419   20.6445 O   0  0  0  0  0  0  0  0  0  0  0  0
  -22.5334   -2.6972   24.6234 F   0  0  0  0  0  0  0  0  0  0  0  0
  -20.7970   -7.0888   24.9459 F   0  0  0  0  0  0  0  0  0  0  0  0
  1  2  1  0  0  0  0
  1  6  2  0  0  0  0
  2  7  2  0  0  0  0
  3 10  2  0  0  0  0
  3 18  1  0  0  0  0
  4 11  1  0  0  0  0
  4 18  2  0  0  0  0
  5  9  2  0  0  0  0
  5 19  1  0  0  0  0
  6 21  1  0  0  0  0
  7 23  1  0  0  0  0
  8 12  2  0  0  0  0
  8 22  1  0  0  0  0
  9 25  1  0  0  0  0
 10 26  1  0  0  0  0
 11 26  2  0  0  0  0
 12 27  1  0  0  0  0
 13 14  2  0  0  0  0
 13 28  1  0  0  0  0
 14 30  1  0  0  0  0
 15 19  2  0  0  0  0
 15 29  1  0  0  0  0
 16 24  1  0  0  0  0
 16 27  2  0  0  0  0
 17 30  2  0  0  0  0
 17 31  1  0  0  0  0
 18 32  1  0  0  0  0
 19 35  1  0  0  0  0
 20 32  1  0  0  0  0
 20 33  2  0  0  0  0
 20 38  1  0  0  0  0
 21 23  2  0  0  0  0
 21 44  1  0  0  0  0
 22 24  2  0  0  0  0
 22 45  1  0  0  0  0
 23 53  1  0  0  0  0
 24 46  1  0  0  0  0
 25 29  2  0  0  0  0
 25 61  1  0  0  0  0
 26 83  1  0  0  0  0
 27 84  1  0  0  0  0
 28 31  2  0  0  0  0
 28 83  1  0  0  0  0
 29 85  1  0  0  0  0
 30 86  1  0  0  0  0
 31 87  1  0  0  0  0
 32 68  2  0  0  0  0
 33 69  1  0  0  0  0
 33 72  1  0  0  0  0
 34 37  2  0  0  0  0
 35 36  2  0  0  0  0
 36 39  1  0  0  0  0
 37 61  1  0  0  0  0
 38 73  1  0  0  0  0
 38 77  2  0  0  0  0
 39 70  1  0  0  0  0
 39 78  2  0  0  0  0
 40 54  1  0  0  0  0
 40 74  1  0  0  0  0
 40 79  2  0  0  0  0
 41 62  1  0  0  0  0
 41 63  1  0  0  0  0
 41 80  2  0  0  0  0
 42 65  1  0  0  0  0
 42 71  1  0  0  0  0
 42 81  2  0  0  0  0
 43 66  1  0  0  0  0
 43 75  1  0  0  0  0
 43 82  2  0  0  0  0
 44 47  1  0  0  0  0
 45 54  1  0  0  0  0
 46 71  1  0  0  0  0
 47 49  1  0  0  0  0
 48 50  1  0  0  0  0
 48 51  1  0  0  0  0
 49 53  1  0  0  0  0
 50 55  1  0  0  0  0
 51 70  1  0  0  0  0
 52 55  1  0  0  0  0
 52 70  1  0  0  0  0
 53 74  1  0  0  0  0
 54 71  1  0  0  0  0
 55 69  1  0  0  0  0
 56 66  1  0  0  0  0
 57 67  1  0  0  0  0
 58 67  1  0  0  0  0
 59 67  1  0  0  0  0
 60 76  1  0  0  0  0
 62 64  1  0  0  0  0
 63 84  1  0  0  0  0
 64 85  1  0  0  0  0
 65 67  1  0  0  0  0
 65 75  1  0  0  0  0
 66 76  1  0  0  0  0
 68 69  1  0  0  0  0
M  CHG  1  76   1
M  ISO  4  36 100  39 100  63 101  84 101
M  END
> <Batch ID>
0122

> <Smiles>
C=CCc1ccc(C=[100CH:0][100C:0](=O)N2CCCC(n3nc(-c4ccc(Oc5ccc(F)cc5F)cc4)c(C(N)=O)c3N)C2)cc1OCCC(=O)[101CH2:1][101O:1]c1ccc2c(c1)CN(C(=O)C(NC(=O)C(C)NC)C(C)(C)C)C(C(=O)NC1CCCc3ccccc31)C2

> <Shape>
0.264

> <Color>
0.108

> <Negative vol penalty>
0.000

$$$$

  -OEChem-04052302003D

 84 92  0     1  0  0  0  0  0999 V2000
  -20.3089  -24.4512   23.4439 C   0  0  0  0  0  0  0  0  0  0  0  0
  -21.4403  -24.9187   22.7832 C   0  0  0  0  0  0  0  0  0  0  0  0
  -24.2473  -15.0708   25.9738 C   0  0  0  0  0  0  0  0  0  0  0  0
  -22.1126  -15.5078   24.9301 C   0  0  0  0  0  0  0  0  0  0  0  0
  -19.1790  -25.2614   23.5477 C   0  0  0  0  0  0  0  0  0  0  0  0
  -21.4422  -26.1965   22.2248 C   0  0  0  0  0  0  0  0  0  0  0  0
  -25.7034  -28.7453   23.2200 C   0  0  0  0  0  0  0  0  0  0  0  0
  -23.6005  -14.7797   27.1749 C   0  0  0  0  0  0  0  0  0  0  0  0
  -21.4658  -15.2166   26.1311 C   0  0  0  0  0  0  0  0  0  0  0  0
  -26.8299  -28.4217   22.4651 C   0  0  0  0  0  0  0  0  0  0  0  0
  -20.5583  -12.4618   27.8654 C   0  0  0  0  0  0  0  0  0  0  0  0
  -19.4296  -11.6442   27.8102 C   0  0  0  0  0  0  0  0  0  0  0  0
  -30.2702  -23.0229   18.2415 C   0  0  0  0  0  0  0  0  0  0  0  0
  -31.8286  -23.9013   16.6176 C   0  0  0  0  0  0  0  0  0  0  0  0
  -31.6792  -21.5177   16.9821 C   0  0  0  0  0  0  0  0  0  0  0  0
  -26.4406  -30.3498   21.0686 C   0  0  0  0  0  0  0  0  0  0  0  0
  -18.0978  -13.4182   28.7676 C   0  0  0  0  0  0  0  0  0  0  0  0
  -23.5034  -15.4349   24.8514 C   0  0  0  0  0  0  0  0  0  0  0  0
  -30.8395  -24.1103   17.5787 C   0  0  0  0  0  0  0  0  0  0  0  0
  -30.6901  -21.7266   17.9432 C   0  0  0  0  0  0  0  0  0  0  0  0
  -24.4917  -14.8357   22.5773 C   0  0  0  0  0  0  0  0  0  0  0  0
  -19.1703  -26.5534   22.9988 C   0  0  0  0  0  0  0  0  0  0  0  0
  -24.9294  -29.8694   22.8976 C   0  0  0  0  0  0  0  0  0  0  0  0
  -20.3106  -27.0243   22.3202 C   0  0  0  0  0  0  0  0  0  0  0  0
  -25.3062  -30.6870   21.8226 C   0  0  0  0  0  0  0  0  0  0  0  0
  -32.2484  -22.6050   16.3193 C   0  0  0  0  0  0  0  0  0  0  0  0
  -22.2097  -14.8526   27.2535 C   0  0  0  0  0  0  0  0  0  0  0  0
  -27.1971  -29.2223   21.3874 C   0  0  0  0  0  0  0  0  0  0  0  0
  -20.4568  -13.7576   28.3718 C   0  0  0  0  0  0  0  0  0  0  0  0
  -18.1993  -12.1224   28.2613 C   0  0  0  0  0  0  0  0  0  0  0  0
  -19.2266  -14.2358   28.8228 C   0  0  0  0  0  0  0  0  0  0  0  0
  -24.1710  -15.7363   23.6107 C   0  0  0  0  0  0  0  0  0  0  0  0
  -25.1133  -15.6096   21.6280 C   0  0  0  0  0  0  0  0  0  0  0  0
  -30.3956  -25.4797   17.8934 C   0  0  0  0  0  0  0  0  0  0  0  0
  -30.0962  -20.5926   18.6339 C   0  0  0  0  0  0  0  0  0  0  0  0
  -29.7624  -25.8346   19.0202 C   0  0  0  0  0  0  0  0  0  0  0  0
  -29.4376  -20.6499   19.8110 C   0  0  0  0  0  0  0  0  0  0  0  0
  -24.2493  -13.4257   22.4838 C   0  0  0  0  0  0  0  0  0  0  0  0
  -29.3451  -27.2501   19.2388 C   0  0  0  0  0  0  0  0  0  0  0  0
  -28.8805  -19.4071   20.3818 C   0  0  0  0  0  0  0  0  0  0  0  0
  -21.9186  -30.3347   21.9910 C   0  0  0  0  0  0  0  0  0  0  0  0
  -22.7189  -33.4630   22.2999 C   0  0  0  0  0  0  0  0  0  0  0  0
  -25.1709  -35.8364   22.3349 C   0  0  0  0  0  0  0  0  0  0  0  0
  -17.9090  -27.3747   23.0951 C   0  0  0  0  0  0  0  0  0  0  0  0
  -23.7324  -30.2200   23.7382 C   0  0  0  0  0  0  0  0  0  0  0  0
  -24.5206  -31.9161   21.4477 C   0  0  0  0  0  0  0  0  0  0  0  0
  -18.1236  -28.8573   22.8018 C   0  0  0  0  0  0  0  0  0  0  0  0
  -25.5174  -20.6174   21.1922 C   0  0  0  0  0  0  0  0  0  0  0  0
  -18.9696  -29.0359   21.5451 C   0  0  0  0  0  0  0  0  0  0  0  0
  -24.9129  -19.3826   21.8553 C   0  0  0  0  0  0  0  0  0  0  0  0
  -27.0111  -20.7502   21.4853 C   0  0  0  0  0  0  0  0  0  0  0  0
  -27.1935  -18.2984   21.7951 C   0  0  0  0  0  0  0  0  0  0  0  0
  -20.3599  -28.4139   21.7230 C   0  0  1  0  0  0  0  0  0  0  0  0
  -22.7235  -31.0980   23.0045 C   0  0  1  0  0  0  0  0  0  0  0  0
  -25.7013  -18.1194   21.4748 C   0  0  1  0  0  0  0  0  0  0  0  0
  -33.3054  -22.3813   15.2912 C   0  0  0  0  0  0  0  0  0  0  0  0
  -25.5139  -38.3111   22.5708 C   0  0  0  0  0  0  0  0  0  0  0  0
  -21.7205  -33.8711   19.4457 C   0  0  0  0  0  0  0  0  0  0  0  0
  -22.9361  -36.0594   19.4075 C   0  0  0  0  0  0  0  0  0  0  0  0
  -21.0883  -35.6895   21.0420 C   0  0  0  0  0  0  0  0  0  0  0  0
  -26.8350  -35.4920   24.7579 C   0  0  0  0  0  0  0  0  0  0  0  0
  -28.6385  -27.5267   20.5490 C   0  0  0  0  0  0  0  0  0  1  0  0
  -23.3000  -34.5133   21.3844 C   0  0  1  0  0  0  0  0  0  0  0  0
  -25.4562  -36.9759   23.2965 C   0  0  2  0  0  0  0  0  0  0  0  0
  -22.2751  -35.0092   20.3255 C   0  0  0  0  0  0  0  0  0  0  0  0
  -24.5571  -16.9867   23.3432 N   0  0  0  0  0  0  0  0  0  0  0  0
  -25.1270  -16.8773   22.1310 N   0  0  0  0  0  0  0  0  0  0  0  0
  -27.7343  -19.5096   21.1680 N   0  0  0  0  0  0  0  0  0  0  0  0
  -23.3547  -32.2134   22.2961 N   0  0  0  0  0  0  0  0  0  0  0  0
  -25.6442  -15.3226   20.4204 N   0  0  0  0  0  0  0  0  0  0  0  0
  -23.5988  -12.7875   23.5487 N   0  0  0  0  0  0  0  0  0  0  0  0
  -21.2022  -29.2787   22.5212 N   0  0  0  0  0  0  0  0  0  0  0  0
  -23.8216  -35.5657   22.2498 N   0  0  0  0  0  0  0  0  0  0  0  0
  -26.7599  -36.7585   23.9850 N   0  3  0  0  0  0  0  0  0  0  0  0
  -24.6138  -12.7487   21.4927 O   0  0  0  0  0  0  0  0  0  0  0  0
  -29.5621  -28.1296   18.4096 O   0  0  0  0  0  0  0  0  0  0  0  0
  -29.4678  -18.3531   20.1312 O   0  0  0  0  0  0  0  0  0  0  0  0
  -21.9444  -30.6792   20.8152 O   0  0  0  0  0  0  0  0  0  0  0  0
  -21.7414  -33.7433   22.9982 O   0  0  0  0  0  0  0  0  0  0  0  0
  -26.0562  -35.2480   21.7180 O   0  0  0  0  0  0  0  0  0  0  0  0
  -21.5782  -14.5683   28.4252 O   0  0  0  0  0  0  0  0  0  0  0  0
  -28.2959  -28.9083   20.6485 O   0  0  0  0  0  0  0  0  0  1  0  0
  -17.1151  -11.3377   28.2068 F   0  0  0  0  0  0  0  0  0  0  0  0
  -19.1226  -15.4801   29.3092 F   0  0  0  0  0  0  0  0  0  0  0  0
  1  2  1  0  0  0  0
  1  5  2  0  0  0  0
  2  6  2  0  0  0  0
  3  8  2  0  0  0  0
  3 18  1  0  0  0  0
  4  9  1  0  0  0  0
  4 18  2  0  0  0  0
  5 22  1  0  0  0  0
  6 24  1  0  0  0  0
  7 10  2  0  0  0  0
  7 23  1  0  0  0  0
  8 27  1  0  0  0  0
  9 27  2  0  0  0  0
 10 28  1  0  0  0  0
 11 12  2  0  0  0  0
 11 29  1  0  0  0  0
 12 30  1  0  0  0  0
 13 19  2  0  0  0  0
 13 20  1  0  0  0  0
 14 19  1  0  0  0  0
 14 26  2  0  0  0  0
 15 20  2  0  0  0  0
 15 26  1  0  0  0  0
 16 25  1  0  0  0  0
 16 28  2  0  0  0  0
 17 30  2  0  0  0  0
 17 31  1  0  0  0  0
 18 32  1  0  0  0  0
 19 34  1  0  0  0  0
 20 35  1  0  0  0  0
 21 32  1  0  0  0  0
 21 33  2  0  0  0  0
 21 38  1  0  0  0  0
 22 24  2  0  0  0  0
 22 44  1  0  0  0  0
 23 25  2  0  0  0  0
 23 45  1  0  0  0  0
 24 53  1  0  0  0  0
 25 46  1  0  0  0  0
 26 56  1  0  0  0  0
 27 81  1  0  0  0  0
 28 82  1  0  0  0  0
 29 31  2  0  0  0  0
 29 81  1  0  0  0  0
 30 83  1  0  0  0  0
 31 84  1  0  0  0  0
 32 66  2  0  0  0  0
 33 67  1  0  0  0  0
 33 70  1  0  0  0  0
 34 36  2  0  0  0  0
 35 37  2  0  0  0  0
 36 39  1  0  0  0  0
 37 40  1  0  0  0  0
 38 71  1  0  0  0  0
 38 75  2  0  0  0  0
 39 62  1  0  0  0  0
 39 76  2  0  0  0  0
 40 68  1  0  0  0  0
 40 77  2  0  0  0  0
 41 54  1  0  0  0  0
 41 72  1  0  0  0  0
 41 78  2  0  0  0  0
 42 63  1  0  0  0  0
 42 69  1  0  0  0  0
 42 79  2  0  0  0  0
 43 64  1  0  0  0  0
 43 73  1  0  0  0  0
 43 80  2  0  0  0  0
 44 47  1  0  0  0  0
 45 54  1  0  0  0  0
 46 69  1  0  0  0  0
 47 49  1  0  0  0  0
 48 50  1  0  0  0  0
 48 51  1  0  0  0  0
 49 53  1  0  0  0  0
 50 55  1  0  0  0  0
 51 68  1  0  0  0  0
 52 55  1  0  0  0  0
 52 68  1  0  0  0  0
 53 72  1  0  0  0  0
 54 69  1  0  0  0  0
 55 67  1  0  0  0  0
 57 64  1  0  0  0  0
 58 65  1  0  0  0  0
 59 65  1  0  0  0  0
 60 65  1  0  0  0  0
 61 74  1  0  0  0  0
 62 82  1  0  0  0  0
 63 65  1  0  0  0  0
 63 73  1  0  0  0  0
 64 74  1  0  0  0  0
 66 67  1  0  0  0  0
M  CHG  1  74   1
M  ISO  4  37 100  40 100  62 101  82 101
M  END
> <Batch ID>
0122

> <Smiles>
CNC(C)C(=O)NC(C(=O)N1Cc2cc([101O:1][101CH2:1]C(=O)C=Cc3cc(C)cc(C=[100CH:0][100C:0](=O)N4CCCC(n5nc(-c6ccc(Oc7ccc(F)cc7F)cc6)c(C(N)=O)c5N)C4)c3)ccc2CC1C(=O)NC1CCCc2ccccc21)C(C)(C)C

> <Shape>
0.218

> <Color>
0.120

> <Negative vol penalty>
0.000

$$$$

  -OEChem-04052302003D

 84 92  0     1  0  0  0  0  0999 V2000
  -18.8491  -29.1557   22.7791 C   0  0  0  0  0  0  0  0  0  0  0  0
  -20.1613  -29.3273   23.2083 C   0  0  0  0  0  0  0  0  0  0  0  0
  -24.6134  -14.5958   20.5346 C   0  0  0  0  0  0  0  0  0  0  0  0
  -23.9093  -13.6580   22.6470 C   0  0  0  0  0  0  0  0  0  0  0  0
  -24.8671  -27.3085   24.5285 C   0  0  0  0  0  0  0  0  0  0  0  0
  -25.3454  -28.4503   25.1711 C   0  0  0  0  0  0  0  0  0  0  0  0
  -18.5110  -28.0511   21.9985 C   0  0  0  0  0  0  0  0  0  0  0  0
  -21.1359  -28.3936   22.8580 C   0  0  0  0  0  0  0  0  0  0  0  0
  -25.4400  -30.5665   21.3092 C   0  0  0  0  0  0  0  0  0  0  0  0
  -25.0624  -13.3398   20.1267 C   0  0  0  0  0  0  0  0  0  0  0  0
  -24.3583  -12.4020   22.2390 C   0  0  0  0  0  0  0  0  0  0  0  0
  -26.2882  -31.0719   22.2935 C   0  0  0  0  0  0  0  0  0  0  0  0
  -23.2700   -9.8937   20.2529 C   0  0  0  0  0  0  0  0  0  0  0  0
  -22.4358   -8.8009   20.4885 C   0  0  0  0  0  0  0  0  0  0  0  0
  -26.5664  -25.9824   25.6197 C   0  0  0  0  0  0  0  0  0  0  0  0
  -27.6580  -29.0938   22.1203 C   0  0  0  0  0  0  0  0  0  0  0  0
  -24.1534   -7.7830   21.8489 C   0  0  0  0  0  0  0  0  0  0  0  0
  -24.0369  -14.7549   21.7948 C   0  0  0  0  0  0  0  0  0  0  0  0
  -25.4776  -26.0745   24.7528 C   0  0  0  0  0  0  0  0  0  0  0  0
  -26.4343  -28.3582   26.0381 C   0  0  0  0  0  0  0  0  0  0  0  0
  -22.2890  -16.5979   22.0314 C   0  0  0  0  0  0  0  0  0  0  0  0
  -19.4840  -27.1085   21.6303 C   0  0  0  0  0  0  0  0  0  0  0  0
  -25.6887  -29.3139   20.7298 C   0  0  0  0  0  0  0  0  0  0  0  0
  -20.8103  -27.2746   22.0728 C   0  0  0  0  0  0  0  0  0  0  0  0
  -26.8129  -28.5758   21.1270 C   0  0  0  0  0  0  0  0  0  0  0  0
  -27.0448  -27.1242   26.2624 C   0  0  0  0  0  0  0  0  0  0  0  0
  -24.9349  -12.2429   20.9788 C   0  0  0  0  0  0  0  0  0  0  0  0
  -27.3958  -30.3342   22.7013 C   0  0  0  0  0  0  0  0  0  0  0  0
  -24.5460   -9.9311   20.8152 C   0  0  0  0  0  0  0  0  0  0  0  0
  -22.8775   -7.7456   21.2865 C   0  0  0  0  0  0  0  0  0  0  0  0
  -24.9877   -8.8758   21.6132 C   0  0  0  0  0  0  0  0  0  0  0  0
  -23.5733  -16.0522   22.2170 C   0  0  0  0  0  0  0  0  0  0  0  0
  -22.3581  -17.8426   22.6080 C   0  0  0  0  0  0  0  0  0  0  0  0
  -24.9777  -24.8845   24.0822 C   0  0  0  0  0  0  0  0  0  0  0  0
  -25.6693  -23.7394   23.9001 C   0  0  0  0  0  0  0  0  0  0  0  0
  -26.9253  -29.5974   26.7135 C   0  0  0  0  0  0  0  0  0  0  0  0
  -21.1365  -16.0304   21.3948 C   0  0  0  0  0  0  0  0  0  0  0  0
  -25.0172  -22.6110   23.2056 C   0  0  0  0  0  0  0  0  0  0  0  0
  -24.1196  -26.5528   20.5962 C   0  0  0  0  0  0  0  0  0  0  0  0
  -26.5324  -25.7255   18.5922 C   0  0  0  0  0  0  0  0  0  0  0  0
  -30.1097  -26.1736   18.4519 C   0  0  0  0  0  0  0  0  0  0  0  0
  -19.0613  -25.9056   20.8248 C   0  0  0  0  0  0  0  0  0  0  0  0
  -24.7792  -28.7947   19.6502 C   0  0  0  0  0  0  0  0  0  0  0  0
  -27.1355  -27.2349   20.5218 C   0  0  0  0  0  0  0  0  0  0  0  0
  -20.2294  -25.1607   20.1838 C   0  0  0  0  0  0  0  0  0  0  0  0
  -25.8799  -19.9310   25.5519 C   0  0  0  0  0  0  0  0  0  0  0  0
  -21.3510  -24.9539   21.1967 C   0  0  0  0  0  0  0  0  0  0  0  0
  -25.2853  -18.7172   24.8427 C   0  0  0  0  0  0  0  0  0  0  0  0
  -26.4177  -20.9642   24.5631 C   0  0  0  0  0  0  0  0  0  0  0  0
  -24.8193  -20.1822   22.8386 C   0  0  0  0  0  0  0  0  0  0  0  0
  -21.9008  -26.2967   21.6928 C   0  0  1  0  0  0  0  0  0  0  0  0
  -24.8405  -27.2783   19.4954 C   0  0  1  0  0  0  0  0  0  0  0  0
  -24.2297  -19.1511   23.8135 C   0  0  1  0  0  0  0  0  0  0  0  0
  -28.2119  -26.9983   27.1868 C   0  0  0  0  0  0  0  0  0  0  0  0
  -31.6689  -26.2476   16.4869 C   0  0  0  0  0  0  0  0  0  0  0  0
  -26.9005  -22.7467   19.1408 C   0  0  0  0  0  0  0  0  0  0  0  0
  -29.3238  -23.0122   18.5703 C   0  0  0  0  0  0  0  0  0  0  0  0
  -27.5806  -23.4770   16.8476 C   0  0  0  0  0  0  0  0  0  0  0  0
  -31.1805  -28.8137   19.2533 C   0  0  0  0  0  0  0  0  0  0  0  0
  -28.3521  -30.0857   26.4998 C   0  0  0  0  0  0  0  0  0  0  0  0
  -28.4070  -31.5104   25.9539 C   0  0  0  0  0  0  0  0  0  0  0  0
  -27.6446  -31.6809   24.6456 C   0  0  0  0  0  0  0  0  0  1  0  0
  -27.8954  -25.0988   18.7614 C   0  0  1  0  0  0  0  0  0  0  0  0
  -30.8768  -27.0671   17.4938 C   0  0  2  0  0  0  0  0  0  0  0  0
  -27.9133  -23.5994   18.3506 C   0  0  0  0  0  0  0  0  0  0  0  0
  -24.3981  -16.8823   22.8610 N   0  0  0  0  0  0  0  0  0  0  0  0
  -26.1353  -30.2721   27.4889 N   0  0  0  0  0  0  0  0  0  0  0  0
  -23.6303  -17.9622   23.0850 N   0  0  0  0  0  0  0  0  0  0  0  0
  -25.4088  -21.3196   23.5538 N   0  0  0  0  0  0  0  0  0  0  0  0
  -26.2126  -26.7673   19.4744 N   0  0  0  0  0  0  0  0  0  0  0  0
  -21.4543  -18.8354   22.7484 N   0  0  0  0  0  0  0  0  0  0  0  0
  -21.2382  -14.7408   20.8554 N   0  0  0  0  0  0  0  0  0  0  0  0
  -22.7811  -26.8792   20.7026 N   0  0  0  0  0  0  0  0  0  0  0  0
  -28.8253  -25.9352   18.0104 N   0  0  0  0  0  0  0  0  0  0  0  0
  -31.8271  -27.9359   18.2442 N   0  3  0  0  0  0  0  0  0  0  0  0
  -20.0534  -16.6550   21.2924 O   0  0  0  0  0  0  0  0  0  0  0  0
  -24.1677  -22.8814   22.3548 O   0  0  0  0  0  0  0  0  0  0  0  0
  -24.7320  -25.7549   21.2961 O   0  0  0  0  0  0  0  0  0  0  0  0
  -25.7821  -25.3110   17.7051 O   0  0  0  0  0  0  0  0  0  0  0  0
  -30.6019  -25.7285   19.4863 O   0  0  0  0  0  0  0  0  0  0  0  0
  -25.3727  -11.0171   20.5810 O   0  0  0  0  0  0  0  0  0  0  0  0
  -28.2249  -30.8249   23.6623 O   0  0  0  0  0  0  0  0  0  1  0  0
  -22.0757   -6.6970   21.5140 F   0  0  0  0  0  0  0  0  0  0  0  0
  -26.2120   -8.9067   22.1571 F   0  0  0  0  0  0  0  0  0  0  0  0
  1  2  1  0  0  0  0
  1  7  2  0  0  0  0
  2  8  2  0  0  0  0
  3 10  2  0  0  0  0
  3 18  1  0  0  0  0
  4 11  1  0  0  0  0
  4 18  2  0  0  0  0
  5  6  2  0  0  0  0
  5 19  1  0  0  0  0
  6 20  1  0  0  0  0
  7 22  1  0  0  0  0
  8 24  1  0  0  0  0
  9 12  2  0  0  0  0
  9 23  1  0  0  0  0
 10 27  1  0  0  0  0
 11 27  2  0  0  0  0
 12 28  1  0  0  0  0
 13 14  2  0  0  0  0
 13 29  1  0  0  0  0
 14 30  1  0  0  0  0
 15 19  2  0  0  0  0
 15 26  1  0  0  0  0
 16 25  1  0  0  0  0
 16 28  2  0  0  0  0
 17 30  2  0  0  0  0
 17 31  1  0  0  0  0
 18 32  1  0  0  0  0
 19 34  1  0  0  0  0
 20 26  2  0  0  0  0
 20 36  1  0  0  0  0
 21 32  1  0  0  0  0
 21 33  2  0  0  0  0
 21 37  1  0  0  0  0
 22 24  2  0  0  0  0
 22 42  1  0  0  0  0
 23 25  2  0  0  0  0
 23 43  1  0  0  0  0
 24 51  1  0  0  0  0
 25 44  1  0  0  0  0
 26 54  1  0  0  0  0
 27 81  1  0  0  0  0
 28 82  1  0  0  0  0
 29 31  2  0  0  0  0
 29 81  1  0  0  0  0
 30 83  1  0  0  0  0
 31 84  1  0  0  0  0
 32 66  2  0  0  0  0
 33 68  1  0  0  0  0
 33 71  1  0  0  0  0
 34 35  2  0  0  0  0
 35 38  1  0  0  0  0
 36 60  1  0  0  0  0
 36 67  2  0  0  0  0
 37 72  1  0  0  0  0
 37 76  2  0  0  0  0
 38 69  1  0  0  0  0
 38 77  2  0  0  0  0
 39 52  1  0  0  0  0
 39 73  1  0  0  0  0
 39 78  2  0  0  0  0
 40 63  1  0  0  0  0
 40 70  1  0  0  0  0
 40 79  2  0  0  0  0
 41 64  1  0  0  0  0
 41 74  1  0  0  0  0
 41 80  2  0  0  0  0
 42 45  1  0  0  0  0
 43 52  1  0  0  0  0
 44 70  1  0  0  0  0
 45 47  1  0  0  0  0
 46 48  1  0  0  0  0
 46 49  1  0  0  0  0
 47 51  1  0  0  0  0
 48 53  1  0  0  0  0
 49 69  1  0  0  0  0
 50 53  1  0  0  0  0
 50 69  1  0  0  0  0
 51 73  1  0  0  0  0
 52 70  1  0  0  0  0
 53 68  1  0  0  0  0
 55 64  1  0  0  0  0
 56 65  1  0  0  0  0
 57 65  1  0  0  0  0
 58 65  1  0  0  0  0
 59 75  1  0  0  0  0
 60 61  1  0  0  0  0
 61 62  1  0  0  0  0
 62 82  1  0  0  0  0
 63 65  1  0  0  0  0
 63 74  1  0  0  0  0
 64 75  1  0  0  0  0
 66 68  1  0  0  0  0
M  CHG  1  75   1
M  ISO  4  35 100  38 100  62 101  82 101
M  END
> <Batch ID>
0122

> <Smiles>
CNC(C)C(=O)NC(C(=O)N1Cc2cc([101O:1][101CH2:1]CCC(=N)c3ccc(C=[100CH:0][100C:0](=O)N4CCCC(n5nc(-c6ccc(Oc7ccc(F)cc7F)cc6)c(C(N)=O)c5N)C4)cc3C)ccc2CC1C(=O)NC1CCCc2ccccc21)C(C)(C)C

> <Shape>
0.235

> <Color>
0.070

> <Negative vol penalty>
0.000

$$$$

  -OEChem-04052302003D

 87 95  0     1  0  0  0  0  0999 V2000
  -28.3726  -34.6983   24.4324 C   0  0  0  0  0  0  0  0  0  0  0  0
  -28.4996  -33.3785   24.0111 C   0  0  0  0  0  0  0  0  0  0  0  0
  -24.2134   -9.5172   22.0240 C   0  0  0  0  0  0  0  0  0  0  0  0
  -22.8141  -10.2525   20.1970 C   0  0  0  0  0  0  0  0  0  0  0  0
  -25.7291  -20.2367   16.9227 C   0  0  0  0  0  0  0  0  0  0  0  0
  -27.1480  -35.1609   24.9123 C   0  0  0  0  0  0  0  0  0  0  0  0
  -27.4023  -32.5202   24.0705 C   0  0  0  0  0  0  0  0  0  0  0  0
  -26.8693  -29.7543   19.8621 C   0  0  0  0  0  0  0  0  0  0  0  0
  -25.7189  -19.2640   17.9224 C   0  0  0  0  0  0  0  0  0  0  0  0
  -23.5148   -8.3110   22.0737 C   0  0  0  0  0  0  0  0  0  0  0  0
  -22.1154   -9.0463   20.2466 C   0  0  0  0  0  0  0  0  0  0  0  0
  -27.7126  -28.6542   19.7122 C   0  0  0  0  0  0  0  0  0  0  0  0
  -23.4495   -5.3977   20.3588 C   0  0  0  0  0  0  0  0  0  0  0  0
  -24.1924   -4.2223   20.4696 C   0  0  0  0  0  0  0  0  0  0  0  0
  -25.9356  -27.1992   20.4501 C   0  0  0  0  0  0  0  0  0  0  0  0
  -24.4234  -20.7322   19.3378 C   0  0  0  0  0  0  0  0  0  0  0  0
  -23.0787   -3.7148   22.5527 C   0  0  0  0  0  0  0  0  0  0  0  0
  -23.8631  -10.4880   21.0857 C   0  0  0  0  0  0  0  0  0  0  0  0
  -25.0865  -21.4572   17.1306 C   0  0  0  0  0  0  0  0  0  0  0  0
  -25.7314  -12.0220   20.2709 C   0  0  0  0  0  0  0  0  0  0  0  0
  -26.0326  -34.3104   24.9685 C   0  0  0  0  0  0  0  0  0  0  0  0
  -25.5541  -29.5860   20.3184 C   0  0  0  0  0  0  0  0  0  0  0  0
  -26.1620  -32.9715   24.5528 C   0  0  0  0  0  0  0  0  0  0  0  0
  -25.0769  -28.2985   20.6025 C   0  0  0  0  0  0  0  0  0  0  0  0
  -24.4336  -21.7049   18.3381 C   0  0  0  0  0  0  0  0  0  0  0  0
  -25.0661  -19.5117   19.1299 C   0  0  0  0  0  0  0  0  0  0  0  0
  -22.4658   -8.0755   21.1850 C   0  0  0  0  0  0  0  0  0  0  0  0
  -27.2467  -27.3767   20.0089 C   0  0  0  0  0  0  0  0  0  0  0  0
  -22.5213   -5.7317   21.3450 C   0  0  0  0  0  0  0  0  0  0  0  0
  -24.0070   -3.3809   21.5666 C   0  0  0  0  0  0  0  0  0  0  0  0
  -22.3359   -4.8902   22.4419 C   0  0  0  0  0  0  0  0  0  0  0  0
  -24.5840  -11.7345   21.0342 C   0  0  0  0  0  0  0  0  0  0  0  0
  -26.0249  -13.3297   20.5713 C   0  0  0  0  0  0  0  0  0  0  0  0
  -28.8218  -23.0362   19.0934 C   0  0  0  0  0  0  0  0  0  0  0  0
  -26.9543  -23.7837   16.0779 C   0  0  0  0  0  0  0  0  0  0  0  0
  -25.1139  -22.4759   16.0478 C   0  0  0  0  0  0  0  0  0  0  0  0
  -26.4662  -11.1821   19.3707 C   0  0  0  0  0  0  0  0  0  0  0  0
  -28.3908  -24.2402   18.6834 C   0  0  0  0  0  0  0  0  0  0  0  0
  -23.9143  -30.5817   22.8528 C   0  0  0  0  0  0  0  0  0  0  0  0
  -21.4254  -29.1985   21.2990 C   0  0  0  0  0  0  0  0  0  0  0  0
  -20.3518  -26.8976   19.0187 C   0  0  0  0  0  0  0  0  0  0  0  0
  -24.4555  -18.6072   21.4005 C   0  0  0  0  0  0  0  0  0  0  0  0
  -24.7419  -34.8427   25.5391 C   0  0  0  0  0  0  0  0  0  0  0  0
  -24.6487  -30.7800   20.4492 C   0  0  0  0  0  0  0  0  0  0  0  0
  -23.6669  -28.0620   21.0762 C   0  0  0  0  0  0  0  0  0  0  0  0
  -23.5295  -33.9722   25.2188 C   0  0  0  0  0  0  0  0  0  0  0  0
  -24.1757  -16.3791   24.1635 C   0  0  0  0  0  0  0  0  0  0  0  0
  -23.8445  -32.5023   25.4774 C   0  0  0  0  0  0  0  0  0  0  0  0
  -24.3514  -14.9957   23.5329 C   0  0  0  0  0  0  0  0  0  0  0  0
  -23.3997  -17.3250   23.2487 C   0  0  0  0  0  0  0  0  0  0  0  0
  -24.1079  -16.0629   21.2550 C   0  0  0  0  0  0  0  0  0  0  0  0
  -24.9881  -32.0167   24.5787 C   0  0  1  0  0  0  0  0  0  0  0  0
  -23.4886  -30.5475   21.4123 C   0  0  1  0  0  0  0  0  0  0  0  0
  -24.9399  -15.0948   22.1118 C   0  0  2  0  0  0  0  0  0  0  0  0
  -23.7388  -23.0039   18.5869 C   0  0  0  0  0  0  0  0  0  0  0  0
  -18.2583  -25.9718   17.9904 C   0  0  0  0  0  0  0  0  0  0  0  0
  -20.8767  -27.6143   23.8484 C   0  0  0  0  0  0  0  0  0  0  0  0
  -19.4412  -26.0709   22.4973 C   0  0  0  0  0  0  0  0  0  0  0  0
  -18.8321  -28.4815   22.6987 C   0  0  0  0  0  0  0  0  0  0  0  0
  -21.1687  -27.7509   16.3051 C   0  0  0  0  0  0  0  0  0  0  0  0
  -27.7002  -25.0586   16.3634 C   0  0  0  0  0  0  0  0  0  0  0  0
  -28.8374  -24.8184   17.3569 C   0  0  0  0  0  0  0  0  0  0  0  0
  -27.4548  -25.0559   19.5331 C   0  0  0  0  0  0  0  0  0  1  0  0
  -20.8137  -27.8185   21.2754 C   0  0  1  0  0  0  0  0  0  0  0  0
  -19.3684  -27.0038   17.8670 C   0  0  2  0  0  0  0  0  0  0  0  0
  -20.0181  -27.5006   22.5729 C   0  0  0  0  0  0  0  0  0  0  0  0
  -24.1765  -12.7757   21.7647 N   0  0  0  0  0  0  0  0  0  0  0  0
  -25.6871  -23.6938   16.3222 N   0  0  0  0  0  0  0  0  0  0  0  0
  -25.0727  -13.7303   21.4619 N   0  0  0  0  0  0  0  0  0  0  0  0
  -22.8221  -29.2620   21.1944 N   0  0  0  0  0  0  0  0  0  0  0  0
  -24.0173  -17.3714   21.9216 N   0  0  0  0  0  0  0  0  0  0  0  0
  -27.0019  -14.1645   20.1579 N   0  0  0  0  0  0  0  0  0  0  0  0
  -26.0277   -9.8650   19.1774 N   0  0  0  0  0  0  0  0  0  0  0  0
  -25.0563  -18.5230   20.1449 N   0  0  0  0  0  0  0  0  0  0  0  0
  -24.5062  -31.7699   23.2365 N   0  0  0  0  0  0  0  0  0  0  0  0
  -20.0190  -27.7452   20.0541 N   0  0  0  0  0  0  0  0  0  0  0  0
  -24.5902  -22.2672   14.8918 N   0  3  0  0  0  0  0  0  0  0  0  0
  -20.0669  -26.7897   16.5681 N   0  3  0  0  0  0  0  0  0  0  0  0
  -27.4911  -11.5825   18.7684 O   0  0  0  0  0  0  0  0  0  0  0  0
  -23.7188  -29.6031   23.5640 O   0  0  0  0  0  0  0  0  0  0  0  0
  -20.6905  -30.1841   21.3992 O   0  0  0  0  0  0  0  0  0  0  0  0
  -21.3163  -26.1361   19.0029 O   0  0  0  0  0  0  0  0  0  0  0  0
  -24.3332  -19.6587   22.0340 O   0  0  0  0  0  0  0  0  0  0  0  0
  -21.7839   -6.8985   21.2331 O   0  0  0  0  0  0  0  0  0  0  0  0
  -28.0678  -26.3013   19.8641 O   0  0  0  0  0  0  0  0  0  1  0  0
  -24.7194   -2.2515   21.6721 F   0  0  0  0  0  0  0  0  0  0  0  0
  -21.4447   -5.2052   23.3919 F   0  0  0  0  0  0  0  0  0  0  0  0
  1  2  1  0  0  0  0
  1  6  2  0  0  0  0
  2  7  2  0  0  0  0
  3 10  2  0  0  0  0
  3 18  1  0  0  0  0
  4 11  1  0  0  0  0
  4 18  2  0  0  0  0
  5  9  2  0  0  0  0
  5 19  1  0  0  0  0
  6 21  1  0  0  0  0
  7 23  1  0  0  0  0
  8 12  2  0  0  0  0
  8 22  1  0  0  0  0
  9 26  1  0  0  0  0
 10 27  1  0  0  0  0
 11 27  2  0  0  0  0
 12 28  1  0  0  0  0
 13 14  2  0  0  0  0
 13 29  1  0  0  0  0
 14 30  1  0  0  0  0
 15 24  1  0  0  0  0
 15 28  2  0  0  0  0
 16 25  1  0  0  0  0
 16 26  2  0  0  0  0
 17 30  2  0  0  0  0
 17 31  1  0  0  0  0
 18 32  1  0  0  0  0
 19 25  2  0  0  0  0
 19 36  1  0  0  0  0
 20 32  1  0  0  0  0
 20 33  2  0  0  0  0
 20 37  1  0  0  0  0
 21 23  2  0  0  0  0
 21 43  1  0  0  0  0
 22 24  2  0  0  0  0
 22 44  1  0  0  0  0
 23 52  1  0  0  0  0
 24 45  1  0  0  0  0
 25 55  1  0  0  0  0
 26 74  1  0  0  0  0
 27 84  1  0  0  0  0
 28 85  1  0  0  0  0
 29 31  2  0  0  0  0
 29 84  1  0  0  0  0
 30 86  1  0  0  0  0
 31 87  1  0  0  0  0
 32 67  2  0  0  0  0
 33 69  1  0  0  0  0
 33 72  1  0  0  0  0
 34 38  2  0  0  0  0
 35 61  1  0  0  0  0
 35 68  2  0  0  0  0
 36 68  1  0  0  0  0
 36 77  2  0  0  0  0
 37 73  1  0  0  0  0
 37 79  2  0  0  0  0
 38 62  1  0  0  0  0
 38 63  1  0  0  0  0
 39 53  1  0  0  0  0
 39 75  1  0  0  0  0
 39 80  2  0  0  0  0
 40 64  1  0  0  0  0
 40 70  1  0  0  0  0
 40 81  2  0  0  0  0
 41 65  1  0  0  0  0
 41 76  1  0  0  0  0
 41 82  2  0  0  0  0
 42 71  1  0  0  0  0
 42 74  1  0  0  0  0
 42 83  2  0  0  0  0
 43 46  1  0  0  0  0
 44 53  1  0  0  0  0
 45 70  1  0  0  0  0
 46 48  1  0  0  0  0
 47 49  1  0  0  0  0
 47 50  1  0  0  0  0
 48 52  1  0  0  0  0
 49 54  1  0  0  0  0
 50 71  1  0  0  0  0
 51 54  1  0  0  0  0
 51 71  1  0  0  0  0
 52 75  1  0  0  0  0
 53 70  1  0  0  0  0
 54 69  1  0  0  0  0
 56 65  1  0  0  0  0
 57 66  1  0  0  0  0
 58 66  1  0  0  0  0
 59 66  1  0  0  0  0
 60 78  1  0  0  0  0
 61 62  1  0  0  0  0
 63 85  1  0  0  0  0
 64 66  1  0  0  0  0
 64 76  1  0  0  0  0
 65 78  1  0  0  0  0
 67 69  1  0  0  0  0
M  CHG  2  77   1  78   1
M  ISO  4  42 100  63 101  74 100  85 101
M  END
> <Batch ID>
0122

> <Smiles>
C=C(CCC=NC(=N)c1ccc([100NH:0][100C:0](=O)N2CCCC(n3nc(-c4ccc(Oc5ccc(F)cc5F)cc4)c(C(N)=O)c3N)C2)cc1C)[101CH2:1][101O:1]c1ccc2c(c1)CN(C(=O)C(NC(=O)C(C)NC)C(C)(C)C)C(C(=O)NC1CCCc3ccccc31)C2

> <Shape>
0.270

> <Color>
0.101

> <Negative vol penalty>
0.000

$$$$

  -OEChem-04052302003D

 85 93  0     1  0  0  0  0  0999 V2000
  -26.9884  -34.9139   23.7623 C   0  0  0  0  0  0  0  0  0  0  0  0
  -27.3632  -33.6043   23.4797 C   0  0  0  0  0  0  0  0  0  0  0  0
  -22.7840  -10.4251   20.5011 C   0  0  0  0  0  0  0  0  0  0  0  0
  -24.1882   -9.7215   22.3369 C   0  0  0  0  0  0  0  0  0  0  0  0
  -28.3009  -19.8948   17.9222 C   0  0  0  0  0  0  0  0  0  0  0  0
  -28.1400  -18.5424   17.6210 C   0  0  0  0  0  0  0  0  0  0  0  0
  -25.6866  -35.1910   24.1775 C   0  0  0  0  0  0  0  0  0  0  0  0
  -26.4367  -32.5708   23.6133 C   0  0  0  0  0  0  0  0  0  0  0  0
  -26.5376  -29.3537   19.7038 C   0  0  0  0  0  0  0  0  0  0  0  0
  -22.3203   -9.1178   20.3547 C   0  0  0  0  0  0  0  0  0  0  0  0
  -23.7244   -8.4142   22.1906 C   0  0  0  0  0  0  0  0  0  0  0  0
  -27.5689  -28.4159   19.6773 C   0  0  0  0  0  0  0  0  0  0  0  0
  -20.9727   -6.6407   23.0291 C   0  0  0  0  0  0  0  0  0  0  0  0
  -20.6157   -5.9480   24.1859 C   0  0  0  0  0  0  0  0  0  0  0  0
  -30.6980  -19.6484   17.7486 C   0  0  0  0  0  0  0  0  0  0  0  0
  -26.0607  -26.7419   20.5387 C   0  0  0  0  0  0  0  0  0  0  0  0
  -22.2816   -4.2687   23.6945 C   0  0  0  0  0  0  0  0  0  0  0  0
  -23.7181  -10.7270   21.4921 C   0  0  0  0  0  0  0  0  0  0  0  0
  -29.5799  -20.4478   17.9859 C   0  0  0  0  0  0  0  0  0  0  0  0
  -29.2581  -17.7430   17.3837 C   0  0  0  0  0  0  0  0  0  0  0  0
  -30.5371  -18.2959   17.4474 C   0  0  0  0  0  0  0  0  0  0  0  0
  -23.6476  -13.0893   22.4525 C   0  0  0  0  0  0  0  0  0  0  0  0
  -24.7409  -34.1616   24.3070 C   0  0  0  0  0  0  0  0  0  0  0  0
  -25.2607  -28.9947   20.1590 C   0  0  0  0  0  0  0  0  0  0  0  0
  -25.1214  -32.8342   24.0320 C   0  0  0  0  0  0  0  0  0  0  0  0
  -25.0142  -27.6763   20.5676 C   0  0  0  0  0  0  0  0  0  0  0  0
  -22.7904   -8.1123   21.1994 C   0  0  0  0  0  0  0  0  0  0  0  0
  -27.3314  -27.1105   20.0975 C   0  0  0  0  0  0  0  0  0  0  0  0
  -21.9841   -6.1473   22.2048 C   0  0  0  0  0  0  0  0  0  0  0  0
  -21.2701   -4.7620   24.5187 C   0  0  0  0  0  0  0  0  0  0  0  0
  -22.6386   -4.9613   22.5376 C   0  0  0  0  0  0  0  0  0  0  0  0
  -24.1979  -12.0772   21.6435 C   0  0  0  0  0  0  0  0  0  0  0  0
  -24.4630  -14.1751   22.2462 C   0  0  0  0  0  0  0  0  0  0  0  0
  -32.6144  -17.7582   16.2595 C   0  0  0  0  0  0  0  0  0  0  0  0
  -29.7473  -21.8772   18.3030 C   0  0  0  0  0  0  0  0  0  0  0  0
  -31.7271  -17.4894   17.2049 C   0  0  0  0  0  0  0  0  0  0  0  0
  -28.8228  -22.6359   18.9079 C   0  0  0  0  0  0  0  0  0  0  0  0
  -29.0474  -16.3341   17.0715 C   0  0  0  0  0  0  0  0  0  0  0  0
  -22.5019  -13.0513   23.3137 C   0  0  0  0  0  0  0  0  0  0  0  0
  -29.0874  -24.0795   19.1758 C   0  0  0  0  0  0  0  0  0  0  0  0
  -27.8859  -15.5962   17.6074 C   0  0  0  0  0  0  0  0  0  0  0  0
  -23.3925  -29.9201   22.5584 C   0  0  0  0  0  0  0  0  0  0  0  0
  -21.2410  -27.9613   21.1243 C   0  0  0  0  0  0  0  0  0  0  0  0
  -20.6681  -25.2905   19.0784 C   0  0  0  0  0  0  0  0  0  0  0  0
  -23.3589  -34.5039   24.8046 C   0  0  0  0  0  0  0  0  0  0  0  0
  -24.1520  -30.0112   20.1561 C   0  0  0  0  0  0  0  0  0  0  0  0
  -23.6559  -27.2350   21.0459 C   0  0  0  0  0  0  0  0  0  0  0  0
  -22.3330  -33.4002   24.5604 C   0  0  0  0  0  0  0  0  0  0  0  0
  -28.9456  -15.3418   21.1065 C   0  0  0  0  0  0  0  0  0  0  0  0
  -22.8989  -32.0447   24.9718 C   0  0  0  0  0  0  0  0  0  0  0  0
  -27.8047  -14.5196   21.6999 C   0  0  0  0  0  0  0  0  0  0  0  0
  -29.2491  -14.9409   19.6637 C   0  0  0  0  0  0  0  0  0  0  0  0
  -26.9153  -14.1644   19.3626 C   0  0  0  0  0  0  0  0  0  0  0  0
  -24.1380  -31.6892   24.1412 C   0  0  1  0  0  0  0  0  0  0  0  0
  -23.0238  -29.6675   21.1238 C   0  0  1  0  0  0  0  0  0  0  0  0
  -26.5617  -14.5833   20.7982 C   0  0  1  0  0  0  0  0  0  0  0  0
  -18.8073  -23.9028   18.1251 C   0  0  0  0  0  0  0  0  0  0  0  0
  -20.9087  -26.5624   23.8155 C   0  0  0  0  0  0  0  0  0  0  0  0
  -19.8157  -24.6583   22.6122 C   0  0  0  0  0  0  0  0  0  0  0  0
  -18.7774  -26.9259   22.5586 C   0  0  0  0  0  0  0  0  0  0  0  0
  -21.4005  -26.0069   16.3018 C   0  0  0  0  0  0  0  0  0  0  0  0
  -27.9675  -24.8309   19.8641 C   0  0  0  0  0  0  0  0  0  1  0  0
  -20.8883  -26.4976   21.2346 C   0  0  1  0  0  0  0  0  0  0  0  0
  -19.7172  -25.1022   17.9102 C   0  0  2  0  0  0  0  0  0  0  0  0
  -20.1237  -26.1695   22.5481 C   0  0  0  0  0  0  0  0  0  0  0  0
  -25.2792  -12.4838   20.9730 N   0  0  0  0  0  0  0  0  0  0  0  0
  -29.8517  -15.6444   16.3122 N   0  0  0  0  0  0  0  0  0  0  0  0
  -25.4148  -13.7635   21.3603 N   0  0  0  0  0  0  0  0  0  0  0  0
  -28.0344  -14.9530   18.8349 N   0  0  0  0  0  0  0  0  0  0  0  0
  -22.6061  -28.2671   21.0305 N   0  0  0  0  0  0  0  0  0  0  0  0
  -24.4514  -15.4323   22.7378 N   0  0  0  0  0  0  0  0  0  0  0  0
  -21.7770  -11.8555   23.4089 N   0  0  0  0  0  0  0  0  0  0  0  0
  -23.7493  -31.2280   22.8256 N   0  0  0  0  0  0  0  0  0  0  0  0
  -20.1572  -26.1611   20.0177 N   0  0  0  0  0  0  0  0  0  0  0  0
  -20.4819  -24.8920   16.6485 N   0  3  0  0  0  0  0  0  0  0  0  0
  -22.1223  -14.0529   23.9665 O   0  0  0  0  0  0  0  0  0  0  0  0
  -30.1440  -24.6189   18.8584 O   0  0  0  0  0  0  0  0  0  0  0  0
  -26.8550  -15.5904   16.9321 O   0  0  0  0  0  0  0  0  0  0  0  0
  -23.3545  -28.9970   23.3635 O   0  0  0  0  0  0  0  0  0  0  0  0
  -20.3382  -28.8018   21.1143 O   0  0  0  0  0  0  0  0  0  0  0  0
  -21.7539  -24.7193   19.1523 O   0  0  0  0  0  0  0  0  0  0  0  0
  -22.3379   -6.8366   21.0571 O   0  0  0  0  0  0  0  0  0  0  0  0
  -28.3364  -26.1934   20.0733 O   0  0  0  0  0  0  0  0  0  1  0  0
  -20.9282   -4.0978   25.6304 F   0  0  0  0  0  0  0  0  0  0  0  0
  -23.6119   -4.4831   21.7503 F   0  0  0  0  0  0  0  0  0  0  0  0
  1  2  1  0  0  0  0
  1  7  2  0  0  0  0
  2  8  2  0  0  0  0
  3 10  2  0  0  0  0
  3 18  1  0  0  0  0
  4 11  1  0  0  0  0
  4 18  2  0  0  0  0
  5  6  2  0  0  0  0
  5 19  1  0  0  0  0
  6 20  1  0  0  0  0
  7 23  1  0  0  0  0
  8 25  1  0  0  0  0
  9 12  2  0  0  0  0
  9 24  1  0  0  0  0
 10 27  1  0  0  0  0
 11 27  2  0  0  0  0
 12 28  1  0  0  0  0
 13 14  2  0  0  0  0
 13 29  1  0  0  0  0
 14 30  1  0  0  0  0
 15 19  2  0  0  0  0
 15 21  1  0  0  0  0
 16 26  1  0  0  0  0
 16 28  2  0  0  0  0
 17 30  2  0  0  0  0
 17 31  1  0  0  0  0
 18 32  1  0  0  0  0
 19 35  1  0  0  0  0
 20 21  2  0  0  0  0
 20 38  1  0  0  0  0
 21 36  1  0  0  0  0
 22 32  1  0  0  0  0
 22 33  2  0  0  0  0
 22 39  1  0  0  0  0
 23 25  2  0  0  0  0
 23 45  1  0  0  0  0
 24 26  2  0  0  0  0
 24 46  1  0  0  0  0
 25 54  1  0  0  0  0
 26 47  1  0  0  0  0
 27 82  1  0  0  0  0
 28 83  1  0  0  0  0
 29 31  2  0  0  0  0
 29 82  1  0  0  0  0
 30 84  1  0  0  0  0
 31 85  1  0  0  0  0
 32 66  2  0  0  0  0
 33 68  1  0  0  0  0
 33 71  1  0  0  0  0
 34 36  2  0  0  0  0
 35 37  2  0  0  0  0
 37 40  1  0  0  0  0
 38 41  1  0  0  0  0
 38 67  2  0  0  0  0
 39 72  1  0  0  0  0
 39 76  2  0  0  0  0
 40 62  1  0  0  0  0
 40 77  2  0  0  0  0
 41 69  1  0  0  0  0
 41 78  2  0  0  0  0
 42 55  1  0  0  0  0
 42 73  1  0  0  0  0
 42 79  2  0  0  0  0
 43 63  1  0  0  0  0
 43 70  1  0  0  0  0
 43 80  2  0  0  0  0
 44 64  1  0  0  0  0
 44 74  1  0  0  0  0
 44 81  2  0  0  0  0
 45 48  1  0  0  0  0
 46 55  1  0  0  0  0
 47 70  1  0  0  0  0
 48 50  1  0  0  0  0
 49 51  1  0  0  0  0
 49 52  1  0  0  0  0
 50 54  1  0  0  0  0
 51 56  1  0  0  0  0
 52 69  1  0  0  0  0
 53 56  1  0  0  0  0
 53 69  1  0  0  0  0
 54 73  1  0  0  0  0
 55 70  1  0  0  0  0
 56 68  1  0  0  0  0
 57 64  1  0  0  0  0
 58 65  1  0  0  0  0
 59 65  1  0  0  0  0
 60 65  1  0  0  0  0
 61 75  1  0  0  0  0
 62 83  1  0  0  0  0
 63 65  1  0  0  0  0
 63 74  1  0  0  0  0
 64 75  1  0  0  0  0
 66 68  1  0  0  0  0
M  CHG  1  75   1
M  ISO  4  38 100  41 100  62 101  83 101
M  END
> <Batch ID>
0122

> <Smiles>
C=Cc1cc(C=CC(=O)[101CH2:1][101O:1]c2ccc3c(c2)CN(C(=O)C(NC(=O)C(C)NC)C(C)(C)C)C(C(=O)NC2CCCc4ccccc42)C3)ccc1[100C:0](=N)[100C:0](=O)N1CCCC(n2nc(-c3ccc(Oc4ccc(F)cc4F)cc3)c(C(N)=O)c2N)C1

> <Shape>
0.313

> <Color>
0.114

> <Negative vol penalty>
0.000

$$$$

  -OEChem-04052302003D

 87 95  0     1  0  0  0  0  0999 V2000
  -25.3476  -10.8358   20.4016 C   0  0  0  0  0  0  0  0  0  0  0  0
  -24.4521  -11.6980   19.7770 C   0  0  0  0  0  0  0  0  0  0  0  0
  -28.5754  -28.5965   18.9409 C   0  0  0  0  0  0  0  0  0  0  0  0
  -28.6641  -27.0113   20.7620 C   0  0  0  0  0  0  0  0  0  0  0  0
  -26.2534  -11.3321   21.3381 C   0  0  0  0  0  0  0  0  0  0  0  0
  -24.4613  -13.0570   20.0893 C   0  0  0  0  0  0  0  0  0  0  0  0
  -23.3118  -19.4750   17.1222 C   0  0  0  0  0  0  0  0  0  0  0  0
  -29.9272  -28.3727   18.6802 C   0  0  0  0  0  0  0  0  0  0  0  0
  -30.0160  -26.7875   20.5013 C   0  0  0  0  0  0  0  0  0  0  0  0
  -22.5778  -20.6420   17.3303 C   0  0  0  0  0  0  0  0  0  0  0  0
  -33.2659  -27.9501   17.3056 C   0  0  0  0  0  0  0  0  0  0  0  0
  -33.6499  -27.7766   15.9759 C   0  0  0  0  0  0  0  0  0  0  0  0
  -19.4758  -29.4645   23.0869 C   0  0  0  0  0  0  0  0  0  0  0  0
  -24.2406  -21.3997   18.9052 C   0  0  0  0  0  0  0  0  0  0  0  0
  -18.5146  -27.9884   21.4335 C   0  0  0  0  0  0  0  0  0  0  0  0
  -32.1969  -25.8537   15.8072 C   0  0  0  0  0  0  0  0  0  0  0  0
  -27.9438  -27.9158   19.9818 C   0  0  0  0  0  0  0  0  0  0  0  0
  -20.3091  -28.4342   23.5224 C   0  0  0  0  0  0  0  0  0  0  0  0
  -25.4499  -27.4561   19.7043 C   0  0  0  0  0  0  0  0  0  0  0  0
  -26.2802  -12.6994   21.6549 C   0  0  0  0  0  0  0  0  0  0  0  0
  -24.5122  -19.2564   17.8133 C   0  0  0  0  0  0  0  0  0  0  0  0
  -25.3675  -13.5719   21.0318 C   0  0  0  0  0  0  0  0  0  0  0  0
  -24.9892  -20.2304   18.7021 C   0  0  0  0  0  0  0  0  0  0  0  0
  -20.2451  -27.1809   22.9134 C   0  0  0  0  0  0  0  0  0  0  0  0
  -30.6475  -27.4682   19.4604 C   0  0  0  0  0  0  0  0  0  0  0  0
  -23.0407  -21.6032   18.2241 C   0  0  0  0  0  0  0  0  0  0  0  0
  -32.3475  -27.0753   17.8861 C   0  0  0  0  0  0  0  0  0  0  0  0
  -19.3479  -26.9580   21.8689 C   0  0  0  0  0  0  0  0  0  0  0  0
  -33.1154  -26.7284   15.2267 C   0  0  0  0  0  0  0  0  0  0  0  0
  -18.5785  -29.2416   22.0425 C   0  0  0  0  0  0  0  0  0  0  0  0
  -31.8129  -26.0272   17.1369 C   0  0  0  0  0  0  0  0  0  0  0  0
  -26.5475  -28.1470   20.2519 C   0  0  0  0  0  0  0  0  0  0  0  0
  -24.3509  -28.0496   20.2756 C   0  0  0  0  0  0  0  0  0  0  0  0
  -21.2360  -28.6965   24.6155 C   0  0  0  0  0  0  0  0  0  0  0  0
  -25.4260  -26.3745   18.7634 C   0  0  0  0  0  0  0  0  0  0  0  0
  -21.8018  -30.0472   24.8367 C   0  0  0  0  0  0  0  0  0  0  0  0
  -25.5396  -17.0826   19.8924 C   0  0  0  0  0  0  0  0  0  0  0  0
  -28.3656  -18.6313   19.5217 C   0  0  0  0  0  0  0  0  0  0  0  0
  -30.0074  -21.5012   18.6761 C   0  0  0  0  0  0  0  0  0  0  0  0
  -27.2457  -13.1817   22.7084 C   0  0  0  0  0  0  0  0  0  0  0  0
  -25.3057  -18.0045   17.5576 C   0  0  0  0  0  0  0  0  0  0  0  0
  -26.2822  -20.0528   19.4538 C   0  0  0  0  0  0  0  0  0  0  0  0
  -27.4426  -14.6955   22.7071 C   0  0  0  0  0  0  0  0  0  0  0  0
  -23.9226  -32.2800   22.9999 C   0  0  0  0  0  0  0  0  0  0  0  0
  -26.0967  -15.4087   22.6256 C   0  0  0  0  0  0  0  0  0  0  0  0
  -24.7316  -31.3420   22.1046 C   0  0  0  0  0  0  0  0  0  0  0  0
  -23.6182  -31.6385   24.3499 C   0  0  0  0  0  0  0  0  0  0  0  0
  -23.7350  -29.3722   23.3504 C   0  0  0  0  0  0  0  0  0  0  0  0
  -25.3634  -15.0564   21.3257 C   0  0  1  0  0  0  0  0  0  0  0  0
  -26.2537  -17.6541   18.7004 C   0  0  1  0  0  0  0  0  0  0  0  0
  -24.0381  -29.9750   21.9676 C   0  0  2  0  0  0  0  0  0  0  0  0
  -21.2776  -23.9085   24.6826 C   0  0  0  0  0  0  0  0  0  0  0  0
  -32.3143  -22.4744   18.5079 C   0  0  0  0  0  0  0  0  0  0  0  0
  -28.4624  -18.9201   22.5577 C   0  0  0  0  0  0  0  0  0  0  0  0
  -30.2260  -20.6730   22.2649 C   0  0  0  0  0  0  0  0  0  0  0  0
  -30.6502  -18.3385   21.4948 C   0  0  0  0  0  0  0  0  0  0  0  0
  -29.7215  -21.9745   15.7686 C   0  0  0  0  0  0  0  0  0  0  0  0
  -21.1346  -26.0700   23.3744 C   0  0  0  0  0  0  0  0  0  0  0  0
  -20.3801  -25.0541   24.2425 C   0  0  0  0  0  0  0  0  0  0  0  0
  -20.4610  -24.2243   18.0320 C   0  0  0  0  0  0  0  0  0  0  0  0
  -20.1546  -24.3419   19.5209 C   0  0  0  0  0  0  0  0  0  0  0  0
  -21.1105  -22.8884   17.6960 C   0  0  0  0  0  0  0  0  0  1  0  0
  -19.5448  -25.6936   19.8643 C   0  0  0  0  0  0  0  0  0  0  0  0
  -29.0423  -19.7980   20.1999 C   0  0  1  0  0  0  0  0  0  0  0  0
  -31.1994  -21.7500   17.7697 C   0  0  2  0  0  0  0  0  0  0  0  0
  -29.5698  -19.4352   21.6168 C   0  0  0  0  0  0  0  0  0  0  0  0
  -26.1792  -29.1061   21.1054 N   0  0  0  0  0  0  0  0  0  0  0  0
  -21.6227  -27.7802   25.4592 N   0  0  0  0  0  0  0  0  0  0  0  0
  -24.8380  -29.0223   21.0983 N   0  0  0  0  0  0  0  0  0  0  0  0
  -22.9938  -30.3276   24.1834 N   0  0  0  0  0  0  0  0  0  0  0  0
  -27.0189  -18.8091   19.1743 N   0  0  0  0  0  0  0  0  0  0  0  0
  -23.0250  -27.8293   20.1493 N   0  0  0  0  0  0  0  0  0  0  0  0
  -26.6459  -25.8850   18.2770 N   0  0  0  0  0  0  0  0  0  0  0  0
  -25.9230  -15.7944   20.2137 N   0  0  0  0  0  0  0  0  0  0  0  0
  -30.0740  -20.2630   19.2791 N   0  0  0  0  0  0  0  0  0  0  0  0
  -30.7956  -22.5783   16.5985 N   0  3  0  0  0  0  0  0  0  0  0  0
  -24.3540  -25.8683   18.3534 O   0  0  0  0  0  0  0  0  0  0  0  0
  -21.1539  -30.7756   25.5768 O   0  0  0  0  0  0  0  0  0  0  0  0
  -24.7037  -17.7606   20.4783 O   0  0  0  0  0  0  0  0  0  0  0  0
  -29.0101  -17.6028   19.3017 O   0  0  0  0  0  0  0  0  0  0  0  0
  -29.1090  -22.3245   18.8362 O   0  0  0  0  0  0  0  0  0  0  0  0
  -31.9666  -27.2494   19.2061 O   0  0  0  0  0  0  0  0  0  0  0  0
  -22.3259  -22.7428   18.4296 O   0  0  0  0  0  0  0  0  0  1  0  0
  -19.2702  -25.7334   21.2579 O   0  0  0  0  0  0  0  0  0  0  0  0
  -33.4831  -26.5628   13.9494 F   0  0  0  0  0  0  0  0  0  0  0  0
  -17.7785  -30.2312   21.6241 F   0  0  0  0  0  0  0  0  0  0  0  0
  -30.9293  -25.1844   17.6888 F   0  0  0  0  0  0  0  0  0  0  0  0
  1  2  1  0  0  0  0
  1  5  2  0  0  0  0
  2  6  2  0  0  0  0
  3  8  2  0  0  0  0
  3 17  1  0  0  0  0
  4  9  1  0  0  0  0
  4 17  2  0  0  0  0
  5 20  1  0  0  0  0
  6 22  1  0  0  0  0
  7 10  2  0  0  0  0
  7 21  1  0  0  0  0
  8 25  1  0  0  0  0
  9 25  2  0  0  0  0
 10 26  1  0  0  0  0
 11 12  2  0  0  0  0
 11 27  1  0  0  0  0
 12 29  1  0  0  0  0
 13 18  1  0  0  0  0
 13 30  2  0  0  0  0
 14 23  1  0  0  0  0
 14 26  2  0  0  0  0
 15 28  2  0  0  0  0
 15 30  1  0  0  0  0
 16 29  2  0  0  0  0
 16 31  1  0  0  0  0
 17 32  1  0  0  0  0
 18 24  2  0  0  0  0
 18 34  1  0  0  0  0
 19 32  1  0  0  0  0
 19 33  2  0  0  0  0
 19 35  1  0  0  0  0
 20 22  2  0  0  0  0
 20 40  1  0  0  0  0
 21 23  2  0  0  0  0
 21 41  1  0  0  0  0
 22 49  1  0  0  0  0
 23 42  1  0  0  0  0
 24 28  1  0  0  0  0
 24 58  1  0  0  0  0
 25 82  1  0  0  0  0
 26 83  1  0  0  0  0
 27 31  2  0  0  0  0
 27 82  1  0  0  0  0
 28 84  1  0  0  0  0
 29 85  1  0  0  0  0
 30 86  1  0  0  0  0
 31 87  1  0  0  0  0
 32 67  2  0  0  0  0
 33 69  1  0  0  0  0
 33 72  1  0  0  0  0
 34 36  1  0  0  0  0
 34 68  2  0  0  0  0
 35 73  1  0  0  0  0
 35 77  2  0  0  0  0
 36 70  1  0  0  0  0
 36 78  2  0  0  0  0
 37 50  1  0  0  0  0
 37 74  1  0  0  0  0
 37 79  2  0  0  0  0
 38 64  1  0  0  0  0
 38 71  1  0  0  0  0
 38 80  2  0  0  0  0
 39 65  1  0  0  0  0
 39 75  1  0  0  0  0
 39 81  2  0  0  0  0
 40 43  1  0  0  0  0
 41 50  1  0  0  0  0
 42 71  1  0  0  0  0
 43 45  1  0  0  0  0
 44 46  1  0  0  0  0
 44 47  1  0  0  0  0
 45 49  1  0  0  0  0
 46 51  1  0  0  0  0
 47 70  1  0  0  0  0
 48 51  1  0  0  0  0
 48 70  1  0  0  0  0
 49 74  1  0  0  0  0
 50 71  1  0  0  0  0
 51 69  1  0  0  0  0
 52 59  1  0  0  0  0
 53 65  1  0  0  0  0
 54 66  1  0  0  0  0
 55 66  1  0  0  0  0
 56 66  1  0  0  0  0
 57 76  1  0  0  0  0
 58 59  1  0  0  0  0
 60 61  1  0  0  0  0
 60 62  1  0  0  0  0
 61 63  1  0  0  0  0
 62 83  1  0  0  0  0
 63 84  1  0  0  0  0
 64 66  1  0  0  0  0
 64 75  1  0  0  0  0
 65 76  1  0  0  0  0
 67 69  1  0  0  0  0
M  CHG  1  76   1
M  ISO  4  34 100  36 100  62 101  83 101
M  END
> <Batch ID>
0122

> <Smiles>
CCCc1c(OCCC[101CH2:1][101O:1]c2ccc3c(c2)CN(C(=O)C(NC(=O)C(C)NC)C(C)(C)C)C(C(=O)NC2CCCc4ccccc42)C3)cc(F)cc1[100C:0](=N)[100C:0](=O)N1CCCC(n2nc(-c3ccc(Oc4ccc(F)cc4F)cc3)c(C(N)=O)c2N)C1

> <Shape>
0.249

> <Color>
0.064

> <Negative vol penalty>
0.000

$$$$

  -OEChem-04052302003D

 83 91  0     1  0  0  0  0  0999 V2000
  -23.9724  -36.1169   15.2770 C   0  0  0  0  0  0  0  0  0  0  0  0
  -24.5839  -34.8710   15.3723 C   0  0  0  0  0  0  0  0  0  0  0  0
  -23.0911  -10.0606   22.2051 C   0  0  0  0  0  0  0  0  0  0  0  0
  -24.1844   -9.3061   20.1870 C   0  0  0  0  0  0  0  0  0  0  0  0
  -23.8674  -36.9288   16.4056 C   0  0  0  0  0  0  0  0  0  0  0  0
  -25.0918  -34.4366   16.5962 C   0  0  0  0  0  0  0  0  0  0  0  0
  -25.1856  -28.6905   18.7124 C   0  0  0  0  0  0  0  0  0  0  0  0
  -22.4498   -8.8272   22.3189 C   0  0  0  0  0  0  0  0  0  0  0  0
  -23.5431   -8.0726   20.3008 C   0  0  0  0  0  0  0  0  0  0  0  0
  -26.1821  -27.7156   18.7357 C   0  0  0  0  0  0  0  0  0  0  0  0
  -23.2206   -5.7062   23.3669 C   0  0  0  0  0  0  0  0  0  0  0  0
  -23.1966   -5.1016   24.6236 C   0  0  0  0  0  0  0  0  0  0  0  0
  -26.7531  -28.3616   20.9887 C   0  0  0  0  0  0  0  0  0  0  0  0
  -28.3026  -20.1147   17.9647 C   0  0  0  0  0  0  0  0  0  0  0  0
  -20.7810   -5.1440   24.5978 C   0  0  0  0  0  0  0  0  0  0  0  0
  -23.9584  -10.3001   21.1391 C   0  0  0  0  0  0  0  0  0  0  0  0
  -25.8690  -11.9369   21.5612 C   0  0  0  0  0  0  0  0  0  0  0  0
  -24.3656  -36.5001   17.6460 C   0  0  0  0  0  0  0  0  0  0  0  0
  -24.9723  -29.5169   19.8250 C   0  0  0  0  0  0  0  0  0  0  0  0
  -24.9945  -35.2441   17.7421 C   0  0  0  0  0  0  0  0  0  0  0  0
  -25.7516  -29.3445   20.9779 C   0  0  0  0  0  0  0  0  0  0  0  0
  -28.6192  -18.7353   17.9539 C   0  0  0  0  0  0  0  0  0  0  0  0
  -22.6758   -7.8332   21.3668 C   0  0  0  0  0  0  0  0  0  0  0  0
  -26.9679  -27.5530   19.8729 C   0  0  0  0  0  0  0  0  0  0  0  0
  -22.0249   -6.0298   22.7256 C   0  0  0  0  0  0  0  0  0  0  0  0
  -21.9768   -4.8204   25.2391 C   0  0  0  0  0  0  0  0  0  0  0  0
  -20.8051   -5.7487   23.3411 C   0  0  0  0  0  0  0  0  0  0  0  0
  -24.6207  -11.5743   21.0207 C   0  0  0  0  0  0  0  0  0  0  0  0
  -29.3784  -18.5088   19.0784 C   0  0  0  0  0  0  0  0  0  0  0  0
  -26.0470  -13.2412   21.1690 C   0  0  0  0  0  0  0  0  0  0  0  0
  -28.8906  -20.6328   19.0951 C   0  0  0  0  0  0  0  0  0  0  0  0
  -26.7856  -11.1640   22.3473 C   0  0  0  0  0  0  0  0  0  0  0  0
  -25.1513  -32.6445   20.3633 C   0  0  0  0  0  0  0  0  0  0  0  0
  -28.4170  -24.2346   19.7323 C   0  0  0  0  0  0  0  0  0  0  0  0
  -23.9337  -31.8219   23.2552 C   0  0  0  0  0  0  0  0  0  0  0  0
  -23.5018  -29.4187   25.6395 C   0  0  0  0  0  0  0  0  0  0  0  0
  -25.8109  -17.2259   17.2688 C   0  0  0  0  0  0  0  0  0  0  0  0
  -24.2712  -37.4325   18.8277 C   0  0  0  0  0  0  0  0  0  0  0  0
  -23.8757  -30.5459   19.7937 C   0  0  0  0  0  0  0  0  0  0  0  0
  -25.5492  -30.1925   22.2061 C   0  0  0  0  0  0  0  0  0  0  0  0
  -24.5005  -36.7409   20.1691 C   0  0  0  0  0  0  0  0  0  0  0  0
  -22.8182  -16.5156   19.0622 C   0  0  0  0  0  0  0  0  0  0  0  0
  -25.7262  -35.8355   20.1002 C   0  0  0  0  0  0  0  0  0  0  0  0
  -23.1212  -15.1942   19.7706 C   0  0  0  0  0  0  0  0  0  0  0  0
  -23.4565  -16.5721   17.6760 C   0  0  0  0  0  0  0  0  0  0  0  0
  -25.2090  -14.9795   18.3586 C   0  0  0  0  0  0  0  0  0  0  0  0
  -25.5356  -34.7273   19.0576 C   0  0  1  0  0  0  0  0  0  0  0  0
  -24.0877  -31.6757   20.7967 C   0  0  1  0  0  0  0  0  0  0  0  0
  -24.6330  -14.8982   19.7827 C   0  0  2  0  0  0  0  0  0  0  0  0
  -30.0130  -17.3086   19.6432 C   0  0  0  0  0  0  0  0  0  0  0  0
  -22.4981  -29.0549   27.9106 C   0  0  0  0  0  0  0  0  0  0  0  0
  -26.2697  -33.3190   24.5248 C   0  0  0  0  0  0  0  0  0  0  0  0
  -25.7625  -32.1440   26.6766 C   0  0  0  0  0  0  0  0  0  0  0  0
  -24.0681  -33.6661   25.6592 C   0  0  0  0  0  0  0  0  0  0  0  0
  -21.6540  -27.3446   24.6184 C   0  0  0  0  0  0  0  0  0  0  0  0
  -28.2153  -17.7450   16.9394 C   0  0  0  0  0  0  0  0  0  0  0  0
  -27.7269  -25.4317   19.1111 C   0  0  0  0  0  0  0  0  0  1  0  0
  -28.2787  -22.9279   18.9784 C   0  0  0  0  0  0  0  0  0  0  0  0
  -24.5201  -31.4213   24.5873 C   0  0  1  0  0  0  0  0  0  0  0  0
  -22.2715  -28.9728   26.4090 C   0  0  2  0  0  0  0  0  0  0  0  0
  -25.1605  -32.6228   25.3383 C   0  0  0  0  0  0  0  0  0  0  0  0
  -24.0463  -12.5679   20.3375 N   0  0  0  0  0  0  0  0  0  0  0  0
  -24.9376  -13.5678   20.4460 N   0  0  0  0  0  0  0  0  0  0  0  0
  -24.4686  -31.1891   22.1242 N   0  0  0  0  0  0  0  0  0  0  0  0
  -24.8905  -16.2840   17.7574 N   0  0  0  0  0  0  0  0  0  0  0  0
  -27.0427  -14.1290   21.3756 N   0  0  0  0  0  0  0  0  0  0  0  0
  -26.4468   -9.8403   22.6595 N   0  0  0  0  0  0  0  0  0  0  0  0
  -24.6821  -33.6824   19.5809 N   0  0  0  0  0  0  0  0  0  0  0  0
  -23.4480  -30.7597   25.3229 N   0  0  0  0  0  0  0  0  0  0  0  0
  -27.1504  -16.8771   17.3904 N   0  0  0  0  0  0  0  0  0  0  0  0
  -21.9256  -27.5654   26.0621 N   0  3  0  0  0  0  0  0  0  0  0  0
  -27.8654  -11.6384   22.7744 O   0  0  0  0  0  0  0  0  0  0  0  0
  -26.3116  -32.4646   20.7141 O   0  0  0  0  0  0  0  0  0  0  0  0
  -29.0497  -24.3185   20.7838 O   0  0  0  0  0  0  0  0  0  0  0  0
  -23.0293  -32.6600   23.2200 O   0  0  0  0  0  0  0  0  0  0  0  0
  -24.4205  -28.6548   25.3516 O   0  0  0  0  0  0  0  0  0  0  0  0
  -25.4647  -18.3006   16.7667 O   0  0  0  0  0  0  0  0  0  0  0  0
  -29.5483  -19.6604   19.7795 O   0  0  0  0  0  0  0  0  0  0  0  0
  -22.0504   -6.6294   21.4776 O   0  0  0  0  0  0  0  0  0  0  0  0
  -27.9416  -26.6027   19.8980 O   0  0  0  0  0  0  0  0  0  1  0  0
  -28.9488  -21.8864   19.6565 O   0  0  0  0  0  0  0  0  0  0  0  0
  -21.9538   -4.2384   26.4453 F   0  0  0  0  0  0  0  0  0  0  0  0
  -19.6531   -6.0562   22.7294 F   0  0  0  0  0  0  0  0  0  0  0  0
  1  2  1  0  0  0  0
  1  5  2  0  0  0  0
  2  6  2  0  0  0  0
  3  8  2  0  0  0  0
  3 16  1  0  0  0  0
  4  9  1  0  0  0  0
  4 16  2  0  0  0  0
  5 18  1  0  0  0  0
  6 20  1  0  0  0  0
  7 10  2  0  0  0  0
  7 19  1  0  0  0  0
  8 23  1  0  0  0  0
  9 23  2  0  0  0  0
 10 24  1  0  0  0  0
 11 12  2  0  0  0  0
 11 25  1  0  0  0  0
 12 26  1  0  0  0  0
 13 21  1  0  0  0  0
 13 24  2  0  0  0  0
 14 22  1  0  0  0  0
 14 31  2  0  0  0  0
 15 26  2  0  0  0  0
 15 27  1  0  0  0  0
 16 28  1  0  0  0  0
 17 28  1  0  0  0  0
 17 30  2  0  0  0  0
 17 32  1  0  0  0  0
 18 20  2  0  0  0  0
 18 38  1  0  0  0  0
 19 21  2  0  0  0  0
 19 39  1  0  0  0  0
 20 47  1  0  0  0  0
 21 40  1  0  0  0  0
 22 29  2  0  0  0  0
 22 56  1  0  0  0  0
 23 79  1  0  0  0  0
 24 80  1  0  0  0  0
 25 27  2  0  0  0  0
 25 79  1  0  0  0  0
 26 82  1  0  0  0  0
 27 83  1  0  0  0  0
 28 62  2  0  0  0  0
 29 50  1  0  0  0  0
 29 78  1  0  0  0  0
 30 63  1  0  0  0  0
 30 66  1  0  0  0  0
 31 78  1  0  0  0  0
 31 81  1  0  0  0  0
 32 67  1  0  0  0  0
 32 72  2  0  0  0  0
 33 48  1  0  0  0  0
 33 68  1  0  0  0  0
 33 73  2  0  0  0  0
 34 57  1  0  0  0  0
 34 58  1  0  0  0  0
 34 74  2  0  0  0  0
 35 59  1  0  0  0  0
 35 64  1  0  0  0  0
 35 75  2  0  0  0  0
 36 60  1  0  0  0  0
 36 69  1  0  0  0  0
 36 76  2  0  0  0  0
 37 65  1  0  0  0  0
 37 70  1  0  0  0  0
 37 77  2  0  0  0  0
 38 41  1  0  0  0  0
 39 48  1  0  0  0  0
 40 64  1  0  0  0  0
 41 43  1  0  0  0  0
 42 44  1  0  0  0  0
 42 45  1  0  0  0  0
 43 47  1  0  0  0  0
 44 49  1  0  0  0  0
 45 65  1  0  0  0  0
 46 49  1  0  0  0  0
 46 65  1  0  0  0  0
 47 68  1  0  0  0  0
 48 64  1  0  0  0  0
 49 63  1  0  0  0  0
 51 60  1  0  0  0  0
 52 61  1  0  0  0  0
 53 61  1  0  0  0  0
 54 61  1  0  0  0  0
 55 71  1  0  0  0  0
 56 70  1  0  0  0  0
 57 80  1  0  0  0  0
 58 81  1  0  0  0  0
 59 61  1  0  0  0  0
 59 69  1  0  0  0  0
 60 71  1  0  0  0  0
 62 63  1  0  0  0  0
M  CHG  1  71   1
M  ISO  4  37 100  57 101  70 100  80 101
M  END
> <Batch ID>
0122

> <Smiles>
CNC(C)C(=O)NC(C(=O)N1Cc2cc([101O:1][101CH2:1]C(=O)COc3cc(C[100NH:0][100C:0](=O)N4CCCC(n5nc(-c6ccc(Oc7ccc(F)cc7F)cc6)c(C(N)=O)c5N)C4)c(C)o3)ccc2CC1C(=O)NC1CCCc2ccccc21)C(C)(C)C

> <Shape>
0.253

> <Color>
0.145

> <Negative vol penalty>
0.000

$$$$

  -OEChem-04052302003D

 84 92  0     1  0  0  0  0  0999 V2000
  -30.0333  -34.1984   25.7171 C   0  0  0  0  0  0  0  0  0  0  0  0
  -29.5524  -33.1049   25.0040 C   0  0  0  0  0  0  0  0  0  0  0  0
  -23.6707   -9.8098   22.2731 C   0  0  0  0  0  0  0  0  0  0  0  0
  -23.6317   -9.4244   19.8884 C   0  0  0  0  0  0  0  0  0  0  0  0
  -29.1423  -35.0551   26.3620 C   0  0  0  0  0  0  0  0  0  0  0  0
  -28.1801  -32.8669   24.9365 C   0  0  0  0  0  0  0  0  0  0  0  0
  -26.6391  -31.6989   20.2561 C   0  0  0  0  0  0  0  0  0  0  0  0
  -22.7392   -8.7874   22.4536 C   0  0  0  0  0  0  0  0  0  0  0  0
  -22.7002   -8.4019   20.0689 C   0  0  0  0  0  0  0  0  0  0  0  0
  -26.8791  -30.3991   19.8126 C   0  0  0  0  0  0  0  0  0  0  0  0
  -22.7369   -5.4074   22.5460 C   0  0  0  0  0  0  0  0  0  0  0  0
  -22.9691   -4.4928   23.5732 C   0  0  0  0  0  0  0  0  0  0  0  0
  -28.4216  -23.2708   20.0950 C   0  0  0  0  0  0  0  0  0  0  0  0
  -27.1302  -22.1640   22.3063 C   0  0  0  0  0  0  0  0  0  0  0  0
  -24.5932  -29.8128   20.3129 C   0  0  0  0  0  0  0  0  0  0  0  0
  -20.8765   -5.1204   24.6049 C   0  0  0  0  0  0  0  0  0  0  0  0
  -24.1169  -10.1283   20.9905 C   0  0  0  0  0  0  0  0  0  0  0  0
  -27.7952  -24.1010   21.0245 C   0  0  0  0  0  0  0  0  0  0  0  0
  -27.7565  -21.3338   21.3768 C   0  0  0  0  0  0  0  0  0  0  0  0
  -26.4815  -11.0664   20.7994 C   0  0  0  0  0  0  0  0  0  0  0  0
  -27.7578  -34.8330   26.2943 C   0  0  0  0  0  0  0  0  0  0  0  0
  -25.3752  -32.0630   20.7424 C   0  0  0  0  0  0  0  0  0  0  0  0
  -27.2698  -33.7207   25.5823 C   0  0  0  0  0  0  0  0  0  0  0  0
  -24.3391  -31.1185   20.7596 C   0  0  0  0  0  0  0  0  0  0  0  0
  -28.4022  -21.8872   20.2711 C   0  0  0  0  0  0  0  0  0  0  0  0
  -22.2540   -8.0834   21.3515 C   0  0  0  0  0  0  0  0  0  0  0  0
  -25.8569  -29.4550   19.8436 C   0  0  0  0  0  0  0  0  0  0  0  0
  -21.5746   -6.1786   22.5482 C   0  0  0  0  0  0  0  0  0  0  0  0
  -27.1495  -23.5476   22.1302 C   0  0  0  0  0  0  0  0  0  0  0  0
  -22.0389   -4.3493   24.6027 C   0  0  0  0  0  0  0  0  0  0  0  0
  -20.6444   -6.0350   23.5777 C   0  0  0  0  0  0  0  0  0  0  0  0
  -25.0787  -11.1848   20.8034 C   0  0  0  0  0  0  0  0  0  0  0  0
  -26.9334  -12.3455   20.5845 C   0  0  0  0  0  0  0  0  0  0  0  0
  -27.8281  -25.5581   20.8151 C   0  0  0  0  0  0  0  0  0  0  0  0
  -27.7191  -19.8927   21.5887 C   0  0  0  0  0  0  0  0  0  0  0  0
  -26.6011  -19.1405   21.6438 C   0  0  0  0  0  0  0  0  0  0  0  0
  -27.3456  -26.1965   19.7376 C   0  0  0  0  0  0  0  0  0  0  0  0
  -27.3026   -9.9041   20.9743 C   0  0  0  0  0  0  0  0  0  0  0  0
  -26.7289  -17.6847   21.8558 C   0  0  0  0  0  0  0  0  0  0  0  0
  -24.2592  -33.1044   23.5306 C   0  0  0  0  0  0  0  0  0  0  0  0
  -21.4970  -33.4288   21.8611 C   0  0  0  0  0  0  0  0  0  0  0  0
  -19.5949  -32.4741   19.1933 C   0  0  0  0  0  0  0  0  0  0  0  0
  -26.8363  -35.7596   27.0472 C   0  0  0  0  0  0  0  0  0  0  0  0
  -25.1251  -33.4764   21.1922 C   0  0  0  0  0  0  0  0  0  0  0  0
  -22.9588  -31.4644   21.2533 C   0  0  0  0  0  0  0  0  0  0  0  0
  -25.3764  -35.6505   26.6146 C   0  0  0  0  0  0  0  0  0  0  0  0
  -24.4809  -16.5293   19.2018 C   0  0  0  0  0  0  0  0  0  0  0  0
  -24.9562  -34.1873   26.5178 C   0  0  0  0  0  0  0  0  0  0  0  0
  -24.5202  -15.0192   19.4205 C   0  0  0  0  0  0  0  0  0  0  0  0
  -24.5901  -17.3004   20.5164 C   0  0  0  0  0  0  0  0  0  0  0  0
  -25.8213  -15.4142   21.5492 C   0  0  0  0  0  0  0  0  0  0  0  0
  -25.7868  -33.4433   25.4652 C   0  0  1  0  0  0  0  0  0  0  0  0
  -23.9421  -33.5988   22.1476 C   0  0  1  0  0  0  0  0  0  0  0  0
  -25.7603  -14.6192   20.2355 C   0  0  1  0  0  0  0  0  0  0  0  0
  -29.0842  -21.0272   19.2560 C   0  0  0  0  0  0  0  0  0  0  0  0
  -17.3678  -32.8874   18.1133 C   0  0  0  0  0  0  0  0  0  0  0  0
  -20.1418  -31.7512   24.0197 C   0  0  0  0  0  0  0  0  0  0  0  0
  -18.2248  -31.4029   22.4473 C   0  0  0  0  0  0  0  0  0  0  0  0
  -18.7996  -33.7041   23.2201 C   0  0  0  0  0  0  0  0  0  0  0  0
  -20.8550  -33.4385   16.6950 C   0  0  0  0  0  0  0  0  0  0  0  0
  -25.1540  -24.6395   22.8241 C   0  0  0  0  0  0  0  0  0  0  0  0
  -27.4144  -27.6798   19.5632 C   0  0  0  0  0  0  0  0  0  1  0  0
  -20.3149  -32.5373   21.5665 C   0  0  1  0  0  0  0  0  0  0  0  0
  -18.8357  -33.2825   18.1568 C   0  0  2  0  0  0  0  0  0  0  0  0
  -19.3967  -32.3415   22.8058 C   0  0  0  0  0  0  0  0  0  0  0  0
  -24.6666  -12.4400   20.6068 N   0  0  0  0  0  0  0  0  0  0  0  0
  -25.8173  -13.1220   20.4773 N   0  0  0  0  0  0  0  0  0  0  0  0
  -25.7506  -16.8591   21.3045 N   0  0  0  0  0  0  0  0  0  0  0  0
  -22.7657  -32.8575   21.6884 N   0  0  0  0  0  0  0  0  0  0  0  0
  -28.1726  -12.8704   20.4787 N   0  0  0  0  0  0  0  0  0  0  0  0
  -26.6755   -8.6685   21.1850 N   0  0  0  0  0  0  0  0  0  0  0  0
  -25.3158  -33.7595   24.1338 N   0  0  0  0  0  0  0  0  0  0  0  0
  -19.6422  -33.1201   20.4105 N   0  0  0  0  0  0  0  0  0  0  0  0
  -19.4203  -33.0684   16.8028 N   0  3  0  0  0  0  0  0  0  0  0  0
  -28.5556   -9.9623   20.9610 O   0  0  0  0  0  0  0  0  0  0  0  0
  -27.6929  -17.2883   22.5133 O   0  0  0  0  0  0  0  0  0  0  0  0
  -23.5936  -32.1967   24.0151 O   0  0  0  0  0  0  0  0  0  0  0  0
  -21.3019  -34.5915   22.2241 O   0  0  0  0  0  0  0  0  0  0  0  0
  -20.0929  -31.3774   18.9486 O   0  0  0  0  0  0  0  0  0  0  0  0
  -21.3452   -7.0855   21.5272 O   0  0  0  0  0  0  0  0  0  0  0  0
  -26.5282  -24.3366   23.0526 O   0  0  0  0  0  0  0  0  0  0  0  0
  -26.0886  -28.1855   19.4119 O   0  0  0  0  0  0  0  0  0  1  0  0
  -22.2612   -3.4699   25.5882 F   0  0  0  0  0  0  0  0  0  0  0  0
  -19.5253   -6.7722   23.5846 F   0  0  0  0  0  0  0  0  0  0  0  0
  1  2  1  0  0  0  0
  1  5  2  0  0  0  0
  2  6  2  0  0  0  0
  3  8  2  0  0  0  0
  3 17  1  0  0  0  0
  4  9  1  0  0  0  0
  4 17  2  0  0  0  0
  5 21  1  0  0  0  0
  6 23  1  0  0  0  0
  7 10  2  0  0  0  0
  7 22  1  0  0  0  0
  8 26  1  0  0  0  0
  9 26  2  0  0  0  0
 10 27  1  0  0  0  0
 11 12  2  0  0  0  0
 11 28  1  0  0  0  0
 12 30  1  0  0  0  0
 13 18  1  0  0  0  0
 13 25  2  0  0  0  0
 14 19  2  0  0  0  0
 14 29  1  0  0  0  0
 15 24  1  0  0  0  0
 15 27  2  0  0  0  0
 16 30  2  0  0  0  0
 16 31  1  0  0  0  0
 17 32  1  0  0  0  0
 18 29  2  0  0  0  0
 18 34  1  0  0  0  0
 19 25  1  0  0  0  0
 19 35  1  0  0  0  0
 20 32  1  0  0  0  0
 20 33  2  0  0  0  0
 20 38  1  0  0  0  0
 21 23  2  0  0  0  0
 21 43  1  0  0  0  0
 22 24  2  0  0  0  0
 22 44  1  0  0  0  0
 23 52  1  0  0  0  0
 24 45  1  0  0  0  0
 25 55  1  0  0  0  0
 26 80  1  0  0  0  0
 27 82  1  0  0  0  0
 28 31  2  0  0  0  0
 28 80  1  0  0  0  0
 29 81  1  0  0  0  0
 30 83  1  0  0  0  0
 31 84  1  0  0  0  0
 32 66  2  0  0  0  0
 33 67  1  0  0  0  0
 33 70  1  0  0  0  0
 34 37  2  0  0  0  0
 35 36  2  0  0  0  0
 36 39  1  0  0  0  0
 37 62  1  0  0  0  0
 38 71  1  0  0  0  0
 38 75  2  0  0  0  0
 39 68  1  0  0  0  0
 39 76  2  0  0  0  0
 40 53  1  0  0  0  0
 40 72  1  0  0  0  0
 40 77  2  0  0  0  0
 41 63  1  0  0  0  0
 41 69  1  0  0  0  0
 41 78  2  0  0  0  0
 42 64  1  0  0  0  0
 42 73  1  0  0  0  0
 42 79  2  0  0  0  0
 43 46  1  0  0  0  0
 44 53  1  0  0  0  0
 45 69  1  0  0  0  0
 46 48  1  0  0  0  0
 47 49  1  0  0  0  0
 47 50  1  0  0  0  0
 48 52  1  0  0  0  0
 49 54  1  0  0  0  0
 50 68  1  0  0  0  0
 51 54  1  0  0  0  0
 51 68  1  0  0  0  0
 52 72  1  0  0  0  0
 53 69  1  0  0  0  0
 54 67  1  0  0  0  0
 56 64  1  0  0  0  0
 57 65  1  0  0  0  0
 58 65  1  0  0  0  0
 59 65  1  0  0  0  0
 60 74  1  0  0  0  0
 61 81  1  0  0  0  0
 62 82  1  0  0  0  0
 63 65  1  0  0  0  0
 63 73  1  0  0  0  0
 64 74  1  0  0  0  0
 66 67  1  0  0  0  0
M  CHG  1  74   1
M  ISO  4  36 100  39 100  62 101  82 101
M  END
> <Batch ID>
0122

> <Smiles>
CNC(C)C(=O)NC(C(=O)N1Cc2cc([101O:1][101CH2:1]C=Cc3cc(C)c(C=[100CH:0][100C:0](=O)N4CCCC(n5nc(-c6ccc(Oc7ccc(F)cc7F)cc6)c(C(N)=O)c5N)C4)cc3OC)ccc2CC1C(=O)NC1CCCc2ccccc21)C(C)(C)C

> <Shape>
0.239

> <Color>
0.113

> <Negative vol penalty>
0.000

$$$$

  -OEChem-04052302003D

 84 92  0     1  0  0  0  0  0999 V2000
  -26.0811  -35.2082   23.6268 C   0  0  0  0  0  0  0  0  0  0  0  0
  -26.6319  -33.9797   23.2765 C   0  0  0  0  0  0  0  0  0  0  0  0
  -26.3458  -12.8809   20.2782 C   0  0  0  0  0  0  0  0  0  0  0  0
  -27.1729  -12.0252   18.1757 C   0  0  0  0  0  0  0  0  0  0  0  0
  -24.8209  -35.2619   24.2208 C   0  0  0  0  0  0  0  0  0  0  0  0
  -25.9231  -32.8040   23.5210 C   0  0  0  0  0  0  0  0  0  0  0  0
  -26.0333  -29.6155   19.5882 C   0  0  0  0  0  0  0  0  0  0  0  0
  -25.1999  -12.0966   20.1467 C   0  0  0  0  0  0  0  0  0  0  0  0
  -26.0270  -11.2409   18.0441 C   0  0  0  0  0  0  0  0  0  0  0  0
  -27.1962  -28.8682   19.4068 C   0  0  0  0  0  0  0  0  0  0  0  0
  -24.3291   -8.8618   20.6058 C   0  0  0  0  0  0  0  0  0  0  0  0
  -23.8969   -8.1524   21.7263 C   0  0  0  0  0  0  0  0  0  0  0  0
  -33.0188  -23.9524   20.1575 C   0  0  0  0  0  0  0  0  0  0  0  0
  -26.1298  -26.9685   20.4427 C   0  0  0  0  0  0  0  0  0  0  0  0
  -34.3843  -24.3010   17.7499 C   0  0  0  0  0  0  0  0  0  0  0  0
  -21.7912   -9.3352   21.6630 C   0  0  0  0  0  0  0  0  0  0  0  0
  -27.3323  -12.8452   19.2927 C   0  0  0  0  0  0  0  0  0  0  0  0
  -33.2524  -22.8590   19.3236 C   0  0  0  0  0  0  0  0  0  0  0  0
  -29.7263  -13.2955   20.0502 C   0  0  0  0  0  0  0  0  0  0  0  0
  -24.0922  -34.0870   24.4639 C   0  0  0  0  0  0  0  0  0  0  0  0
  -24.9117  -29.0473   20.2091 C   0  0  0  0  0  0  0  0  0  0  0  0
  -24.6525  -32.8419   24.1200 C   0  0  0  0  0  0  0  0  0  0  0  0
  -24.9530  -27.7099   20.6285 C   0  0  0  0  0  0  0  0  0  0  0  0
  -33.4678  -25.2202   19.7875 C   0  0  0  0  0  0  0  0  0  0  0  0
  -33.9352  -23.0333   18.1198 C   0  0  0  0  0  0  0  0  0  0  0  0
  -34.1506  -25.3945   18.5838 C   0  0  0  0  0  0  0  0  0  0  0  0
  -25.0405  -11.2766   19.0296 C   0  0  0  0  0  0  0  0  0  0  0  0
  -27.2456  -27.5454   19.8366 C   0  0  0  0  0  0  0  0  0  0  0  0
  -23.4923   -9.8080   20.0139 C   0  0  0  0  0  0  0  0  0  0  0  0
  -22.6280   -8.3890   22.2549 C   0  0  0  0  0  0  0  0  0  0  0  0
  -22.2234  -10.0446   20.5425 C   0  0  0  0  0  0  0  0  0  0  0  0
  -28.5161  -13.6556   19.4278 C   0  0  0  0  0  0  0  0  0  0  0  0
  -30.5261  -14.4037   19.9128 C   0  0  0  0  0  0  0  0  0  0  0  0
  -32.7711  -21.5475   19.7375 C   0  0  0  0  0  0  0  0  0  0  0  0
  -31.4803  -21.2223   19.9540 C   0  0  0  0  0  0  0  0  0  0  0  0
  -30.0947  -12.0690   20.6948 C   0  0  0  0  0  0  0  0  0  0  0  0
  -31.1497  -19.8420   20.3617 C   0  0  0  0  0  0  0  0  0  0  0  0
  -23.2613  -29.6610   22.8555 C   0  0  0  0  0  0  0  0  0  0  0  0
  -21.2998  -27.3492   21.7020 C   0  0  0  0  0  0  0  0  0  0  0  0
  -20.9159  -24.6008   19.7156 C   0  0  0  0  0  0  0  0  0  0  0  0
  -22.7539  -34.1919   25.1514 C   0  0  0  0  0  0  0  0  0  0  0  0
  -23.6558  -29.8586   20.3733 C   0  0  0  0  0  0  0  0  0  0  0  0
  -23.7692  -27.0469   21.2823 C   0  0  0  0  0  0  0  0  0  0  0  0
  -21.9082  -32.9265   25.0344 C   0  0  0  0  0  0  0  0  0  0  0  0
  -29.9461  -18.5757   17.1400 C   0  0  0  0  0  0  0  0  0  0  0  0
  -22.7488  -31.6920   25.3444 C   0  0  0  0  0  0  0  0  0  0  0  0
  -29.5214  -17.1600   17.5210 C   0  0  0  0  0  0  0  0  0  0  0  0
  -29.7050  -19.5699   18.2749 C   0  0  0  0  0  0  0  0  0  0  0  0
  -29.9131  -17.7515   19.9453 C   0  0  0  0  0  0  0  0  0  0  0  0
  -23.9040  -31.5463   24.3465 C   0  0  1  0  0  0  0  0  0  0  0  0
  -22.7472  -29.3356   21.4816 C   0  0  1  0  0  0  0  0  0  0  0  0
  -30.1904  -16.7261   18.8349 C   0  0  1  0  0  0  0  0  0  0  0  0
  -34.2035  -21.8842   17.2017 C   0  0  0  0  0  0  0  0  0  0  0  0
  -34.6405  -26.7423   18.1667 C   0  0  0  0  0  0  0  0  0  0  0  0
  -19.2066  -22.9059   19.0066 C   0  0  0  0  0  0  0  0  0  0  0  0
  -21.5856  -25.9391   24.3928 C   0  0  0  0  0  0  0  0  0  0  0  0
  -20.6791  -23.8648   23.3233 C   0  0  0  0  0  0  0  0  0  0  0  0
  -19.2710  -25.9203   23.4457 C   0  0  0  0  0  0  0  0  0  0  0  0
  -21.1255  -25.4063   16.8754 C   0  0  0  0  0  0  0  0  0  0  0  0
  -33.2035  -26.3875   20.7049 C   0  0  0  0  0  0  0  0  0  0  0  0
  -32.0680  -27.3020   20.2319 C   0  0  0  0  0  0  0  0  0  0  0  0
  -30.7122  -26.5961   20.1819 C   0  0  0  0  0  0  0  0  0  0  0  0
  -29.6179  -27.5231   19.6704 C   0  0  0  0  0  0  0  0  0  1  0  0
  -21.2212  -25.8478   21.8384 C   0  0  1  0  0  0  0  0  0  0  0  0
  -19.8595  -24.2415   18.6863 C   0  0  2  0  0  0  0  0  0  0  0  0
  -20.7124  -25.4058   23.2395 C   0  0  0  0  0  0  0  0  0  0  0  0
  -28.5402  -14.8956   18.9320 N   0  0  0  0  0  0  0  0  0  0  0  0
  -29.7753  -15.3244   19.2429 N   0  0  0  0  0  0  0  0  0  0  0  0
  -30.3044  -19.1045   19.5346 N   0  0  0  0  0  0  0  0  0  0  0  0
  -22.5664  -27.8836   21.4262 N   0  0  0  0  0  0  0  0  0  0  0  0
  -31.7912  -14.6706   20.3010 N   0  0  0  0  0  0  0  0  0  0  0  0
  -29.1528  -11.0324   20.7469 N   0  0  0  0  0  0  0  0  0  0  0  0
  -23.4225  -31.0132   23.0902 N   0  0  0  0  0  0  0  0  0  0  0  0
  -20.3979  -25.3797   20.7286 N   0  0  0  0  0  0  0  0  0  0  0  0
  -20.4678  -24.1537   17.3287 N   0  3  0  0  0  0  0  0  0  0  0  0
  -31.2200  -11.9031   21.2237 O   0  0  0  0  0  0  0  0  0  0  0  0
  -31.6391  -19.4272   21.4140 O   0  0  0  0  0  0  0  0  0  0  0  0
  -23.4930  -28.7526   23.6447 O   0  0  0  0  0  0  0  0  0  0  0  0
  -20.2740  -28.0224   21.8283 O   0  0  0  0  0  0  0  0  0  0  0  0
  -22.0830  -24.2249   19.6313 O   0  0  0  0  0  0  0  0  0  0  0  0
  -23.9225  -10.5110   18.9010 O   0  0  0  0  0  0  0  0  0  0  0  0
  -28.3797  -26.8139   19.6614 O   0  0  0  0  0  0  0  0  0  1  0  0
  -22.2125   -7.7066   23.3300 F   0  0  0  0  0  0  0  0  0  0  0  0
  -21.4146  -10.9515   19.9775 F   0  0  0  0  0  0  0  0  0  0  0  0
  1  2  1  0  0  0  0
  1  5  2  0  0  0  0
  2  6  2  0  0  0  0
  3  8  2  0  0  0  0
  3 17  1  0  0  0  0
  4  9  1  0  0  0  0
  4 17  2  0  0  0  0
  5 20  1  0  0  0  0
  6 22  1  0  0  0  0
  7 10  2  0  0  0  0
  7 21  1  0  0  0  0
  8 27  1  0  0  0  0
  9 27  2  0  0  0  0
 10 28  1  0  0  0  0
 11 12  2  0  0  0  0
 11 29  1  0  0  0  0
 12 30  1  0  0  0  0
 13 18  2  0  0  0  0
 13 24  1  0  0  0  0
 14 23  1  0  0  0  0
 14 28  2  0  0  0  0
 15 25  2  0  0  0  0
 15 26  1  0  0  0  0
 16 30  2  0  0  0  0
 16 31  1  0  0  0  0
 17 32  1  0  0  0  0
 18 25  1  0  0  0  0
 18 34  1  0  0  0  0
 19 32  1  0  0  0  0
 19 33  2  0  0  0  0
 19 36  1  0  0  0  0
 20 22  2  0  0  0  0
 20 41  1  0  0  0  0
 21 23  2  0  0  0  0
 21 42  1  0  0  0  0
 22 50  1  0  0  0  0
 23 43  1  0  0  0  0
 24 26  2  0  0  0  0
 24 60  1  0  0  0  0
 25 53  1  0  0  0  0
 26 54  1  0  0  0  0
 27 81  1  0  0  0  0
 28 82  1  0  0  0  0
 29 31  2  0  0  0  0
 29 81  1  0  0  0  0
 30 83  1  0  0  0  0
 31 84  1  0  0  0  0
 32 67  2  0  0  0  0
 33 68  1  0  0  0  0
 33 71  1  0  0  0  0
 34 35  2  0  0  0  0
 35 37  1  0  0  0  0
 36 72  1  0  0  0  0
 36 76  2  0  0  0  0
 37 69  1  0  0  0  0
 37 77  2  0  0  0  0
 38 51  1  0  0  0  0
 38 73  1  0  0  0  0
 38 78  2  0  0  0  0
 39 64  1  0  0  0  0
 39 70  1  0  0  0  0
 39 79  2  0  0  0  0
 40 65  1  0  0  0  0
 40 74  1  0  0  0  0
 40 80  2  0  0  0  0
 41 44  1  0  0  0  0
 42 51  1  0  0  0  0
 43 70  1  0  0  0  0
 44 46  1  0  0  0  0
 45 47  1  0  0  0  0
 45 48  1  0  0  0  0
 46 50  1  0  0  0  0
 47 52  1  0  0  0  0
 48 69  1  0  0  0  0
 49 52  1  0  0  0  0
 49 69  1  0  0  0  0
 50 73  1  0  0  0  0
 51 70  1  0  0  0  0
 52 68  1  0  0  0  0
 55 65  1  0  0  0  0
 56 66  1  0  0  0  0
 57 66  1  0  0  0  0
 58 66  1  0  0  0  0
 59 75  1  0  0  0  0
 60 61  1  0  0  0  0
 61 62  1  0  0  0  0
 62 63  1  0  0  0  0
 63 82  1  0  0  0  0
 64 66  1  0  0  0  0
 64 74  1  0  0  0  0
 65 75  1  0  0  0  0
 67 68  1  0  0  0  0
M  CHG  1  75   1
M  ISO  4  35 100  37 100  63 101  82 101
M  END
> <Batch ID>
0122

> <Smiles>
CNC(C)C(=O)NC(C(=O)N1Cc2cc([101O:1][101CH2:1]CCCc3cc(C=[100CH:0][100C:0](=O)N4CCCC(n5nc(-c6ccc(Oc7ccc(F)cc7F)cc6)c(C(N)=O)c5N)C4)c(C)cc3C)ccc2CC1C(=O)NC1CCCc2ccccc21)C(C)(C)C

> <Shape>
0.275

> <Color>
0.099

> <Negative vol penalty>
0.000

$$$$

  -OEChem-04052302003D

 86 94  0     1  0  0  0  0  0999 V2000
  -24.5308  -37.8060   18.2733 C   0  0  0  0  0  0  0  0  0  0  0  0
  -25.3198  -36.7295   17.8809 C   0  0  0  0  0  0  0  0  0  0  0  0
  -23.1795   -6.6417   23.2920 C   0  0  0  0  0  0  0  0  0  0  0  0
  -20.9120   -7.2746   22.7487 C   0  0  0  0  0  0  0  0  0  0  0  0
  -23.9735  -37.8311   19.5510 C   0  0  0  0  0  0  0  0  0  0  0  0
  -25.5528  -35.6779   18.7665 C   0  0  0  0  0  0  0  0  0  0  0  0
  -26.6024  -28.5923   18.8670 C   0  0  0  0  0  0  0  0  0  0  0  0
  -22.6982   -5.6194   24.1098 C   0  0  0  0  0  0  0  0  0  0  0  0
  -20.4307   -6.2523   23.5665 C   0  0  0  0  0  0  0  0  0  0  0  0
  -27.4958  -27.6428   19.3609 C   0  0  0  0  0  0  0  0  0  0  0  0
  -21.4432   -2.5034   23.7246 C   0  0  0  0  0  0  0  0  0  0  0  0
  -22.0475   -1.2506   23.6199 C   0  0  0  0  0  0  0  0  0  0  0  0
  -28.1222  -18.3404   19.3711 C   0  0  0  0  0  0  0  0  0  0  0  0
  -28.2136  -18.1587   21.7784 C   0  0  0  0  0  0  0  0  0  0  0  0
  -26.4163  -27.7563   21.5151 C   0  0  0  0  0  0  0  0  0  0  0  0
  -22.6749   -1.3584   25.9505 C   0  0  0  0  0  0  0  0  0  0  0  0
  -22.2864   -7.4694   22.6114 C   0  0  0  0  0  0  0  0  0  0  0  0
  -27.9805  -17.5792   20.5312 C   0  0  0  0  0  0  0  0  0  0  0  0
  -28.7301  -20.2607   20.7053 C   0  0  0  0  0  0  0  0  0  0  0  0
  -23.0889   -8.4450   20.3952 C   0  0  0  0  0  0  0  0  0  0  0  0
  -24.1918  -36.7747   20.4494 C   0  0  0  0  0  0  0  0  0  0  0  0
  -25.6145  -29.1400   19.6979 C   0  0  0  0  0  0  0  0  0  0  0  0
  -24.9989  -35.6895   20.0579 C   0  0  0  0  0  0  0  0  0  0  0  0
  -25.5099  -28.7108   21.0287 C   0  0  0  0  0  0  0  0  0  0  0  0
  -28.4971  -19.6812   19.4581 C   0  0  0  0  0  0  0  0  0  0  0  0
  -21.3238   -5.4247   24.2471 C   0  0  0  0  0  0  0  0  0  0  0  0
  -27.4047  -27.2267   20.6859 C   0  0  0  0  0  0  0  0  0  0  0  0
  -21.4548   -3.1837   24.9422 C   0  0  0  0  0  0  0  0  0  0  0  0
  -22.6633   -0.6781   24.7328 C   0  0  0  0  0  0  0  0  0  0  0  0
  -28.5884  -19.4994   21.8655 C   0  0  0  0  0  0  0  0  0  0  0  0
  -22.0707   -2.6113   26.0552 C   0  0  0  0  0  0  0  0  0  0  0  0
  -22.7830   -8.5259   21.7669 C   0  0  0  0  0  0  0  0  0  0  0  0
  -23.5194   -9.7067   20.0644 C   0  0  0  0  0  0  0  0  0  0  0  0
  -27.5892  -16.1812   20.4411 C   0  0  0  0  0  0  0  0  0  0  0  0
  -29.1258  -21.6739   20.8238 C   0  0  0  0  0  0  0  0  0  0  0  0
  -27.0559  -15.4509   21.4436 C   0  0  0  0  0  0  0  0  0  0  0  0
  -28.4476  -22.6136   21.5013 C   0  0  0  0  0  0  0  0  0  0  0  0
  -22.9924   -7.3292   19.5000 C   0  0  0  0  0  0  0  0  0  0  0  0
  -26.7001  -14.0400   21.1918 C   0  0  0  0  0  0  0  0  0  0  0  0
  -24.9369  -32.0610   20.7527 C   0  0  0  0  0  0  0  0  0  0  0  0
  -22.3150  -30.5902   21.9713 C   0  0  0  0  0  0  0  0  0  0  0  0
  -20.8518  -27.7015   23.0487 C   0  0  0  0  0  0  0  0  0  0  0  0
  -27.8438  -24.9668   21.0273 C   0  0  0  0  0  0  0  0  0  1  0  0
  -23.6071  -36.8688   21.8364 C   0  0  0  0  0  0  0  0  0  0  0  0
  -24.6414  -30.1436   19.1426 C   0  0  0  0  0  0  0  0  0  0  0  0
  -24.4544  -29.2529   21.9562 C   0  0  0  0  0  0  0  0  0  0  0  0
  -23.5945  -35.5377   22.5837 C   0  0  0  0  0  0  0  0  0  0  0  0
  -23.3298  -14.0432   22.6314 C   0  0  0  0  0  0  0  0  0  0  0  0
  -24.9427  -34.8369   22.4487 C   0  0  0  0  0  0  0  0  0  0  0  0
  -22.9359  -12.5785   22.4602 C   0  0  0  0  0  0  0  0  0  0  0  0
  -24.8227  -14.2046   22.9135 C   0  0  0  0  0  0  0  0  0  0  0  0
  -25.3016  -12.0827   21.7266 C   0  0  0  0  0  0  0  0  0  0  0  0
  -25.2543  -34.5182   20.9814 C   0  0  1  0  0  0  0  0  0  0  0  0
  -24.0006  -31.0137   20.2195 C   0  0  1  0  0  0  0  0  0  0  0  0
  -23.8122  -11.9001   21.3952 C   0  0  1  0  0  0  0  0  0  0  0  0
  -27.4527  -21.3911   17.9508 C   0  0  0  0  0  0  0  0  0  0  0  0
  -18.7136  -26.8209   24.0236 C   0  0  0  0  0  0  0  0  0  0  0  0
  -23.0703  -31.7660   24.6837 C   0  0  0  0  0  0  0  0  0  0  0  0
  -21.5091  -30.1257   25.7515 C   0  0  0  0  0  0  0  0  0  0  0  0
  -20.6254  -31.8331   24.1619 C   0  0  0  0  0  0  0  0  0  0  0  0
  -20.4003  -25.9092   20.7373 C   0  0  0  0  0  0  0  0  0  0  0  0
  -28.6406  -20.4660   18.1936 C   0  0  0  0  0  0  0  0  0  0  0  0
  -28.8958  -24.0404   21.6022 C   0  0  0  0  0  0  0  0  0  0  0  0
  -21.9854  -29.8969   23.2712 C   0  0  1  0  0  0  0  0  0  0  0  0
  -19.4976  -27.0851   22.7475 C   0  0  2  0  0  0  0  0  0  0  0  0
  -21.8188  -30.8965   24.4504 C   0  0  0  0  0  0  0  0  0  0  0  0
  -23.0009   -9.7427   22.2730 N   0  0  0  0  0  0  0  0  0  0  0  0
  -23.4484  -10.4380   21.2135 N   0  0  0  0  0  0  0  0  0  0  0  0
  -25.6387  -13.4982   21.9146 N   0  0  0  0  0  0  0  0  0  0  0  0
  -23.5303  -30.2367   21.3681 N   0  0  0  0  0  0  0  0  0  0  0  0
  -23.9482  -10.2507   18.9057 N   0  0  0  0  0  0  0  0  0  0  0  0
  -22.5308   -6.1058   20.0045 N   0  0  0  0  0  0  0  0  0  0  0  0
  -24.5067  -33.3578   20.5465 N   0  0  0  0  0  0  0  0  0  0  0  0
  -20.8059  -29.0791   23.0099 N   0  0  0  0  0  0  0  0  0  0  0  0
  -19.6659  -25.7935   22.0234 N   0  3  0  0  0  0  0  0  0  0  0  0
  -23.3218   -7.4102   18.2923 O   0  0  0  0  0  0  0  0  0  0  0  0
  -27.3686  -13.4249   20.3590 O   0  0  0  0  0  0  0  0  0  0  0  0
  -25.9723  -31.7178   21.3113 O   0  0  0  0  0  0  0  0  0  0  0  0
  -21.5200  -31.4099   21.5046 O   0  0  0  0  0  0  0  0  0  0  0  0
  -21.8495  -27.0284   23.2975 O   0  0  0  0  0  0  0  0  0  0  0  0
  -26.7895  -24.6215   20.5108 O   0  0  0  0  0  0  0  0  0  0  0  0
  -20.8538   -4.4271   25.0448 O   0  0  0  0  0  0  0  0  0  0  0  0
  -28.2759  -26.3005   21.1707 O   0  0  0  0  0  0  0  0  0  1  0  0
  -23.2423    0.5256   24.6325 F   0  0  0  0  0  0  0  0  0  0  0  0
  -28.8090  -20.0406   23.0727 F   0  0  0  0  0  0  0  0  0  0  0  0
  -22.0840   -3.2596   27.2279 F   0  0  0  0  0  0  0  0  0  0  0  0
  1  2  1  0  0  0  0
  1  5  2  0  0  0  0
  2  6  2  0  0  0  0
  3  8  2  0  0  0  0
  3 17  1  0  0  0  0
  4  9  1  0  0  0  0
  4 17  2  0  0  0  0
  5 21  1  0  0  0  0
  6 23  1  0  0  0  0
  7 10  2  0  0  0  0
  7 22  1  0  0  0  0
  8 26  1  0  0  0  0
  9 26  2  0  0  0  0
 10 27  1  0  0  0  0
 11 12  2  0  0  0  0
 11 28  1  0  0  0  0
 12 29  1  0  0  0  0
 13 18  2  0  0  0  0
 13 25  1  0  0  0  0
 14 18  1  0  0  0  0
 14 30  2  0  0  0  0
 15 24  1  0  0  0  0
 15 27  2  0  0  0  0
 16 29  2  0  0  0  0
 16 31  1  0  0  0  0
 17 32  1  0  0  0  0
 18 34  1  0  0  0  0
 19 25  2  0  0  0  0
 19 30  1  0  0  0  0
 19 35  1  0  0  0  0
 20 32  1  0  0  0  0
 20 33  2  0  0  0  0
 20 38  1  0  0  0  0
 21 23  2  0  0  0  0
 21 44  1  0  0  0  0
 22 24  2  0  0  0  0
 22 45  1  0  0  0  0
 23 53  1  0  0  0  0
 24 46  1  0  0  0  0
 25 62  1  0  0  0  0
 26 82  1  0  0  0  0
 27 83  1  0  0  0  0
 28 31  2  0  0  0  0
 28 82  1  0  0  0  0
 29 84  1  0  0  0  0
 30 85  1  0  0  0  0
 31 86  1  0  0  0  0
 32 67  2  0  0  0  0
 33 68  1  0  0  0  0
 33 71  1  0  0  0  0
 34 36  2  0  0  0  0
 35 37  2  0  0  0  0
 36 39  1  0  0  0  0
 37 63  1  0  0  0  0
 38 72  1  0  0  0  0
 38 76  2  0  0  0  0
 39 69  1  0  0  0  0
 39 77  2  0  0  0  0
 40 54  1  0  0  0  0
 40 73  1  0  0  0  0
 40 78  2  0  0  0  0
 41 64  1  0  0  0  0
 41 70  1  0  0  0  0
 41 79  2  0  0  0  0
 42 65  1  0  0  0  0
 42 74  1  0  0  0  0
 42 80  2  0  0  0  0
 43 63  1  0  0  0  0
 43 81  2  0  0  0  0
 43 83  1  0  0  0  0
 44 47  1  0  0  0  0
 45 54  1  0  0  0  0
 46 70  1  0  0  0  0
 47 49  1  0  0  0  0
 48 50  1  0  0  0  0
 48 51  1  0  0  0  0
 49 53  1  0  0  0  0
 50 55  1  0  0  0  0
 51 69  1  0  0  0  0
 52 55  1  0  0  0  0
 52 69  1  0  0  0  0
 53 73  1  0  0  0  0
 54 70  1  0  0  0  0
 55 68  1  0  0  0  0
 56 62  1  0  0  0  0
 57 65  1  0  0  0  0
 58 66  1  0  0  0  0
 59 66  1  0  0  0  0
 60 66  1  0  0  0  0
 61 75  1  0  0  0  0
 64 66  1  0  0  0  0
 64 74  1  0  0  0  0
 65 75  1  0  0  0  0
 67 68  1  0  0  0  0
M  CHG  1  75   1
M  ISO  4  36 100  39 100  43 101  83 101
M  END
> <Batch ID>
0122

> <Smiles>
CCc1cc(C=[100CH:0][100C:0](=O)N2CCCC(n3nc(-c4ccc(Oc5ccc(F)cc5F)cc4)c(C(N)=O)c3N)C2)cc(F)c1C=CC[101C:1](=O)[101O:1]c1ccc2c(c1)CN(C(=O)C(NC(=O)C(C)NC)C(C)(C)C)C(C(=O)NC1CCCc3ccccc31)C2

> <Shape>
0.283

> <Color>
0.062

> <Negative vol penalty>
0.000

$$$$

  -OEChem-04052302003D

 82 90  0     1  0  0  0  0  0999 V2000
  -16.9763  -32.2735   21.2686 C   0  0  0  0  0  0  0  0  0  0  0  0
  -18.0937  -32.2172   20.4418 C   0  0  0  0  0  0  0  0  0  0  0  0
  -26.4389  -12.7802   20.9867 C   0  0  0  0  0  0  0  0  0  0  0  0
  -26.5374  -12.7511   18.5729 C   0  0  0  0  0  0  0  0  0  0  0  0
  -17.0930  -31.9486   22.6195 C   0  0  0  0  0  0  0  0  0  0  0  0
  -19.3288  -31.8370   20.9656 C   0  0  0  0  0  0  0  0  0  0  0  0
  -25.3432  -28.3957   19.1487 C   0  0  0  0  0  0  0  0  0  0  0  0
  -25.2132  -12.1157   20.9447 C   0  0  0  0  0  0  0  0  0  0  0  0
  -25.3117  -12.0866   18.5308 C   0  0  0  0  0  0  0  0  0  0  0  0
  -26.7265  -28.5695   19.1519 C   0  0  0  0  0  0  0  0  0  0  0  0
  -24.1090   -8.9525   20.4893 C   0  0  0  0  0  0  0  0  0  0  0  0
  -23.9199   -7.8851   21.3670 C   0  0  0  0  0  0  0  0  0  0  0  0
  -31.8573  -23.7794   23.9085 C   0  0  0  0  0  0  0  0  0  0  0  0
  -32.0773  -25.1250   23.5289 C   0  0  0  0  0  0  0  0  0  0  0  0
  -26.7925  -27.9541   21.4834 C   0  0  0  0  0  0  0  0  0  0  0  0
  -22.0431   -9.0359   22.3623 C   0  0  0  0  0  0  0  0  0  0  0  0
  -27.1010  -13.0980   19.8007 C   0  0  0  0  0  0  0  0  0  0  0  0
  -29.6478  -13.2038   19.9025 C   0  0  0  0  0  0  0  0  0  0  0  0
  -18.3282  -31.5550   23.1581 C   0  0  0  0  0  0  0  0  0  0  0  0
  -24.6717  -28.0096   20.3177 C   0  0  0  0  0  0  0  0  0  0  0  0
  -19.4625  -31.5079   22.3252 C   0  0  0  0  0  0  0  0  0  0  0  0
  -25.4010  -27.7735   21.4918 C   0  0  0  0  0  0  0  0  0  0  0  0
  -24.6496  -11.7689   19.7168 C   0  0  0  0  0  0  0  0  0  0  0  0
  -27.4510  -28.3516   20.3200 C   0  0  0  0  0  0  0  0  0  0  0  0
  -23.2652  -10.0617   20.5481 C   0  0  0  0  0  0  0  0  0  0  0  0
  -22.8870   -7.9267   22.3035 C   0  0  0  0  0  0  0  0  0  0  0  0
  -22.2323  -10.1034   21.4845 C   0  0  0  0  0  0  0  0  0  0  0  0
  -28.3669  -13.7849   19.8435 C   0  0  0  0  0  0  0  0  0  0  0  0
  -31.1773  -23.1946   22.8657 C   0  0  0  0  0  0  0  0  0  0  0  0
  -31.5162  -25.2665   22.2810 C   0  0  0  0  0  0  0  0  0  0  0  0
  -30.5093  -14.2733   19.9240 C   0  0  0  0  0  0  0  0  0  0  0  0
  -30.7317  -21.8555   22.7765 C   0  0  0  0  0  0  0  0  0  0  0  0
  -31.4800  -26.4820   21.4514 C   0  0  0  0  0  0  0  0  0  0  0  0
  -30.0713  -21.2759   21.7202 C   0  0  0  0  0  0  0  0  0  0  0  0
  -30.9383  -26.5647   20.2258 C   0  0  0  0  0  0  0  0  0  0  0  0
  -30.0251  -11.8210   19.9350 C   0  0  0  0  0  0  0  0  0  0  0  0
  -29.6781  -19.8535   21.7743 C   0  0  0  0  0  0  0  0  0  0  0  0
  -22.4365  -29.3216   22.1579 C   0  0  0  0  0  0  0  0  0  0  0  0
  -22.5452  -26.4515   23.6656 C   0  0  0  0  0  0  0  0  0  0  0  0
  -24.3205  -23.6318   24.4033 C   0  0  0  0  0  0  0  0  0  0  0  0
  -18.4151  -31.2590   24.6344 C   0  0  0  0  0  0  0  0  0  0  0  0
  -23.1824  -27.8004   20.2910 C   0  0  0  0  0  0  0  0  0  0  0  0
  -24.7300  -27.3382   22.7681 C   0  0  0  0  0  0  0  0  0  0  0  0
  -19.6815  -30.5043   25.0307 C   0  0  0  0  0  0  0  0  0  0  0  0
  -30.9065  -18.8039   18.4847 C   0  0  0  0  0  0  0  0  0  0  0  0
  -20.9067  -31.1389   24.3804 C   0  0  0  0  0  0  0  0  0  0  0  0
  -30.4609  -17.3443   18.4569 C   0  0  0  0  0  0  0  0  0  0  0  0
  -29.9155  -19.6899   19.2379 C   0  0  0  0  0  0  0  0  0  0  0  0
  -29.1730  -17.7515   20.5913 C   0  0  0  0  0  0  0  0  0  0  0  0
  -20.8143  -31.0763   22.8510 C   0  0  1  0  0  0  0  0  0  0  0  0
  -22.5396  -27.9040   21.6706 C   0  0  1  0  0  0  0  0  0  0  0  0
  -30.1791  -16.8340   19.8790 C   0  0  1  0  0  0  0  0  0  0  0  0
  -31.7040  -27.6105   18.1054 C   0  0  0  0  0  0  0  0  0  0  0  0
  -24.1594  -21.4824   25.6884 C   0  0  0  0  0  0  0  0  0  0  0  0
  -22.9966  -27.9771   26.2692 C   0  0  0  0  0  0  0  0  0  0  0  0
  -23.7626  -25.8334   27.3112 C   0  0  0  0  0  0  0  0  0  0  0  0
  -21.4286  -26.0377   26.4549 C   0  0  0  0  0  0  0  0  0  0  0  0
  -24.6438  -22.0065   21.9512 C   0  0  0  0  0  0  0  0  0  0  0  0
  -29.4927  -28.2711   19.1030 C   0  0  0  0  0  0  0  0  0  1  0  0
  -30.9303  -27.8345   19.4045 C   0  0  1  0  0  0  0  0  0  0  0  0
  -23.3422  -25.8749   24.8106 C   0  0  1  0  0  0  0  0  0  0  0  0
  -23.9464  -22.1618   24.3446 C   0  0  2  0  0  0  0  0  0  0  0  0
  -22.8952  -26.4408   26.1881 C   0  0  0  0  0  0  0  0  0  0  0  0
  -28.4064  -15.1199   19.8285 N   0  0  0  0  0  0  0  0  0  0  0  0
  -29.7226  -15.3866   19.8785 N   0  0  0  0  0  0  0  0  0  0  0  0
  -29.6171  -19.1497   20.5728 N   0  0  0  0  0  0  0  0  0  0  0  0
  -23.2714  -27.1533   22.6930 N   0  0  0  0  0  0  0  0  0  0  0  0
  -31.8554  -14.3607   19.9771 N   0  0  0  0  0  0  0  0  0  0  0  0
  -29.0134  -10.8515   19.9062 N   0  0  0  0  0  0  0  0  0  0  0  0
  -21.1407  -29.7477   22.3789 N   0  0  0  0  0  0  0  0  0  0  0  0
  -23.2311  -24.4248   24.6959 N   0  0  0  0  0  0  0  0  0  0  0  0
  -24.7742  -21.4570   23.3252 N   0  3  0  0  0  0  0  0  0  0  0  0
  -31.2233  -11.4561   20.0047 O   0  0  0  0  0  0  0  0  0  0  0  0
  -29.4225  -19.3759   22.8812 O   0  0  0  0  0  0  0  0  0  0  0  0
  -23.4571  -29.9796   22.3227 O   0  0  0  0  0  0  0  0  0  0  0  0
  -21.3242  -26.2793   23.6315 O   0  0  0  0  0  0  0  0  0  0  0  0
  -25.4655  -24.0359   24.2127 O   0  0  0  0  0  0  0  0  0  0  0  0
  -30.9655  -24.0943   21.8696 O   0  0  0  0  0  0  0  0  0  0  0  0
  -23.4538  -11.1203   19.6754 O   0  0  0  0  0  0  0  0  0  0  0  0
  -28.8012  -28.5212   20.3260 O   0  0  0  0  0  0  0  0  0  1  0  0
  -22.7045   -6.9009   23.1453 F   0  0  0  0  0  0  0  0  0  0  0  0
  -21.4177  -11.1657   21.5450 F   0  0  0  0  0  0  0  0  0  0  0  0
  1  2  1  0  0  0  0
  1  5  2  0  0  0  0
  2  6  2  0  0  0  0
  3  8  2  0  0  0  0
  3 17  1  0  0  0  0
  4  9  1  0  0  0  0
  4 17  2  0  0  0  0
  5 19  1  0  0  0  0
  6 21  1  0  0  0  0
  7 10  2  0  0  0  0
  7 20  1  0  0  0  0
  8 23  1  0  0  0  0
  9 23  2  0  0  0  0
 10 24  1  0  0  0  0
 11 12  2  0  0  0  0
 11 25  1  0  0  0  0
 12 26  1  0  0  0  0
 13 14  1  0  0  0  0
 13 29  2  0  0  0  0
 14 30  2  0  0  0  0
 15 22  1  0  0  0  0
 15 24  2  0  0  0  0
 16 26  2  0  0  0  0
 16 27  1  0  0  0  0
 17 28  1  0  0  0  0
 18 28  1  0  0  0  0
 18 31  2  0  0  0  0
 18 36  1  0  0  0  0
 19 21  2  0  0  0  0
 19 41  1  0  0  0  0
 20 22  2  0  0  0  0
 20 42  1  0  0  0  0
 21 50  1  0  0  0  0
 22 43  1  0  0  0  0
 23 79  1  0  0  0  0
 24 80  1  0  0  0  0
 25 27  2  0  0  0  0
 25 79  1  0  0  0  0
 26 81  1  0  0  0  0
 27 82  1  0  0  0  0
 28 64  2  0  0  0  0
 29 32  1  0  0  0  0
 29 78  1  0  0  0  0
 30 33  1  0  0  0  0
 30 78  1  0  0  0  0
 31 65  1  0  0  0  0
 31 68  1  0  0  0  0
 32 34  2  0  0  0  0
 33 35  2  0  0  0  0
 34 37  1  0  0  0  0
 35 60  1  0  0  0  0
 36 69  1  0  0  0  0
 36 73  2  0  0  0  0
 37 66  1  0  0  0  0
 37 74  2  0  0  0  0
 38 51  1  0  0  0  0
 38 70  1  0  0  0  0
 38 75  2  0  0  0  0
 39 61  1  0  0  0  0
 39 67  1  0  0  0  0
 39 76  2  0  0  0  0
 40 62  1  0  0  0  0
 40 71  1  0  0  0  0
 40 77  2  0  0  0  0
 41 44  1  0  0  0  0
 42 51  1  0  0  0  0
 43 67  1  0  0  0  0
 44 46  1  0  0  0  0
 45 47  1  0  0  0  0
 45 48  1  0  0  0  0
 46 50  1  0  0  0  0
 47 52  1  0  0  0  0
 48 66  1  0  0  0  0
 49 52  1  0  0  0  0
 49 66  1  0  0  0  0
 50 70  1  0  0  0  0
 51 67  1  0  0  0  0
 52 65  1  0  0  0  0
 53 60  1  0  0  0  0
 54 62  1  0  0  0  0
 55 63  1  0  0  0  0
 56 63  1  0  0  0  0
 57 63  1  0  0  0  0
 58 72  1  0  0  0  0
 59 60  1  0  0  0  0
 59 80  1  0  0  0  0
 61 63  1  0  0  0  0
 61 71  1  0  0  0  0
 62 72  1  0  0  0  0
 64 65  1  0  0  0  0
M  CHG  1  72   1
M  ISO  4  34 100  37 100  59 101  80 101
M  END
> <Batch ID>
0122

> <Smiles>
CNC(C)C(=O)NC(C(=O)N1Cc2cc([101O:1][101CH2:1]C(C)C=Cc3ccc(C=[100CH:0][100C:0](=O)N4CCCC(n5nc(-c6ccc(Oc7ccc(F)cc7F)cc6)c(C(N)=O)c5N)C4)o3)ccc2CC1C(=O)NC1CCCc2ccccc21)C(C)(C)C

> <Shape>
0.236

> <Color>
0.079

> <Negative vol penalty>
0.000

$$$$

  -OEChem-04052302003D

 82 91  0     1  0  0  0  0  0999 V2000
  -29.7357  -32.9929   25.1450 C   0  0  0  0  0  0  0  0  0  0  0  0
  -29.8884  -31.6769   24.7203 C   0  0  0  0  0  0  0  0  0  0  0  0
  -23.0491  -10.2195   20.0278 C   0  0  0  0  0  0  0  0  0  0  0  0
  -24.0523   -9.4806   22.0977 C   0  0  0  0  0  0  0  0  0  0  0  0
  -28.4712  -33.5802   25.1505 C   0  0  0  0  0  0  0  0  0  0  0  0
  -28.7763  -30.9471   24.3019 C   0  0  0  0  0  0  0  0  0  0  0  0
  -28.6011  -26.7178   19.8761 C   0  0  0  0  0  0  0  0  0  0  0  0
  -22.2785   -9.0576   19.9864 C   0  0  0  0  0  0  0  0  0  0  0  0
  -23.2816   -8.3186   22.0564 C   0  0  0  0  0  0  0  0  0  0  0  0
  -28.6421  -25.3246   19.9079 C   0  0  0  0  0  0  0  0  0  0  0  0
  -21.3154   -5.3256   22.6838 C   0  0  0  0  0  0  0  0  0  0  0  0
  -20.6892   -4.9195   23.8621 C   0  0  0  0  0  0  0  0  0  0  0  0
  -28.1906  -20.4723   21.1183 C   0  0  0  0  0  0  0  0  0  0  0  0
  -28.9264  -20.4197   18.7985 C   0  0  0  0  0  0  0  0  0  0  0  0
  -26.2325  -25.2576   19.8165 C   0  0  0  0  0  0  0  0  0  0  0  0
  -19.4737   -7.0063   23.9353 C   0  0  0  0  0  0  0  0  0  0  0  0
  -23.9360  -10.4310   21.0835 C   0  0  0  0  0  0  0  0  0  0  0  0
  -28.0416  -19.0837   21.1310 C   0  0  0  0  0  0  0  0  0  0  0  0
  -24.3919  -12.8564   21.7294 C   0  0  0  0  0  0  0  0  0  0  0  0
  -27.3445  -32.8603   24.7228 C   0  0  0  0  0  0  0  0  0  0  0  0
  -27.3730  -27.3928   19.8252 C   0  0  0  0  0  0  0  0  0  0  0  0
  -27.4954  -31.5249   24.3029 C   0  0  0  0  0  0  0  0  0  0  0  0
  -28.7769  -19.0444   18.8221 C   0  0  0  0  0  0  0  0  0  0  0  0
  -26.1787  -26.6594   19.7816 C   0  0  0  0  0  0  0  0  0  0  0  0
  -28.3405  -18.3843   19.9750 C   0  0  0  0  0  0  0  0  0  0  0  0
  -28.6295  -21.1354   19.9605 C   0  0  0  0  0  0  0  0  0  0  0  0
  -22.3947   -8.1072   21.0007 C   0  0  0  0  0  0  0  0  0  0  0  0
  -27.4576  -24.5943   19.8810 C   0  0  0  0  0  0  0  0  0  0  0  0
  -21.0208   -6.5720   22.1312 C   0  0  0  0  0  0  0  0  0  0  0  0
  -19.7683   -5.7598   24.4879 C   0  0  0  0  0  0  0  0  0  0  0  0
  -20.1000   -7.4123   22.7569 C   0  0  0  0  0  0  0  0  0  0  0  0
  -24.7327  -11.6308   21.1265 C   0  0  0  0  0  0  0  0  0  0  0  0
  -25.4753  -13.6674   21.4949 C   0  0  0  0  0  0  0  0  0  0  0  0
  -26.7424  -18.9544   23.2072 C   0  0  0  0  0  0  0  0  0  0  0  0
  -27.5813  -18.4116   22.3344 C   0  0  0  0  0  0  0  0  0  0  0  0
  -23.2024  -13.2285   22.4382 C   0  0  0  0  0  0  0  0  0  0  0  0
  -25.8599  -29.4431   21.7253 C   0  0  0  0  0  0  0  0  0  0  0  0
  -23.7550  -29.5719   19.2605 C   0  0  0  0  0  0  0  0  0  0  0  0
  -22.4186  -28.0573   16.5097 C   0  0  0  0  0  0  0  0  0  0  0  0
  -29.2294  -15.5824   17.7623 C   0  0  0  0  0  0  0  0  0  0  0  0
  -25.9911  -33.5223   24.7913 C   0  0  0  0  0  0  0  0  0  0  0  0
  -27.3469  -28.8954   19.7644 C   0  0  0  0  0  0  0  0  0  0  0  0
  -29.0319  -18.0628   17.7285 C   0  0  0  0  0  0  0  0  0  0  0  0
  -24.8351  -27.3358   19.7064 C   0  0  0  0  0  0  0  0  0  0  0  0
  -28.2432  -16.9141   19.7267 C   0  0  0  0  0  0  0  0  0  0  0  0
  -24.9188  -32.8018   23.9780 C   0  0  0  0  0  0  0  0  0  0  0  0
  -30.0862  -12.5936   19.7096 C   0  0  0  0  0  0  0  0  0  0  0  0
  -24.9672  -31.3003   24.2424 C   0  0  0  0  0  0  0  0  0  0  0  0
  -28.7283  -12.1566   20.2636 C   0  0  0  0  0  0  0  0  0  0  0  0
  -29.9555  -13.2994   18.3614 C   0  0  0  0  0  0  0  0  0  0  0  0
  -27.6463  -13.9723   18.8919 C   0  0  0  0  0  0  0  0  0  0  0  0
  -26.3168  -30.7086   23.8182 C   0  0  1  0  0  0  0  0  0  0  0  0
  -26.0218  -29.4894   20.2322 C   0  0  1  0  0  0  0  0  0  0  0  0
  -27.7292  -13.3295   20.2827 C   0  0  1  0  0  0  0  0  0  0  0  0
  -20.6891  -28.3910   14.7223 C   0  0  0  0  0  0  0  0  0  0  0  0
  -21.5553  -28.9086   21.2685 C   0  0  0  0  0  0  0  0  0  0  0  0
  -20.0678  -28.3256   19.3409 C   0  0  0  0  0  0  0  0  0  0  0  0
  -20.9388  -30.6505   19.5832 C   0  0  0  0  0  0  0  0  0  0  0  0
  -24.4515  -27.9553   14.3613 C   0  0  0  0  0  0  0  0  0  0  0  0
  -28.7805  -22.6202   19.9731 C   0  0  0  0  0  0  0  0  0  1  0  0
  -22.5138  -28.8046   18.8734 C   0  0  1  0  0  0  0  0  0  0  0  0
  -22.1491  -28.5724   15.1074 C   0  0  2  0  0  0  0  0  0  0  0  0
  -21.2940  -29.1593   19.7698 C   0  0  0  0  0  0  0  0  0  0  0  0
  -25.9383  -11.6564   20.5519 N   0  0  0  0  0  0  0  0  0  0  0  0
  -26.3644  -12.9080   20.7927 N   0  0  0  0  0  0  0  0  0  0  0  0
  -24.8616  -28.8070   19.6555 N   0  0  0  0  0  0  0  0  0  0  0  0
  -28.7485  -16.7568   18.3467 N   0  0  0  0  0  0  0  0  0  0  0  0
  -28.9771  -14.3831   18.4356 N   0  0  0  0  0  0  0  0  0  0  0  0
  -25.7446  -14.9490   21.8227 N   0  0  0  0  0  0  0  0  0  0  0  0
  -22.1877  -12.2734   22.5881 N   0  0  0  0  0  0  0  0  0  0  0  0
  -26.3689  -30.5479   22.3809 N   0  0  0  0  0  0  0  0  0  0  0  0
  -22.3044  -29.0575   17.4519 N   0  0  0  0  0  0  0  0  0  0  0  0
  -22.9905  -27.8429   14.1170 N   0  3  0  0  0  0  0  0  0  0  0  0
  -23.0372  -14.3790   22.9099 O   0  0  0  0  0  0  0  0  0  0  0  0
  -25.3124  -28.4772   22.2440 O   0  0  0  0  0  0  0  0  0  0  0  0
  -23.7452  -30.8042   19.2074 O   0  0  0  0  0  0  0  0  0  0  0  0
  -22.6985  -26.8842   16.7461 O   0  0  0  0  0  0  0  0  0  0  0  0
  -29.8986  -15.6080   16.7215 O   0  0  0  0  0  0  0  0  0  0  0  0
  -21.6428   -6.9734   20.9608 O   0  0  0  0  0  0  0  0  0  0  0  0
  -27.4949  -23.2248   19.9129 O   0  0  0  0  0  0  0  0  0  1  0  0
  -19.1659   -5.3691   25.6186 F   0  0  0  0  0  0  0  0  0  0  0  0
  -19.8120   -8.6104   22.2301 F   0  0  0  0  0  0  0  0  0  0  0  0
  1  2  1  0  0  0  0
  1  5  2  0  0  0  0
  2  6  2  0  0  0  0
  3  8  2  0  0  0  0
  3 17  1  0  0  0  0
  4  9  1  0  0  0  0
  4 17  2  0  0  0  0
  5 20  1  0  0  0  0
  6 22  1  0  0  0  0
  7 10  2  0  0  0  0
  7 21  1  0  0  0  0
  8 27  1  0  0  0  0
  9 27  2  0  0  0  0
 10 28  1  0  0  0  0
 11 12  2  0  0  0  0
 11 29  1  0  0  0  0
 12 30  1  0  0  0  0
 13 18  1  0  0  0  0
 13 26  2  0  0  0  0
 14 23  2  0  0  0  0
 14 26  1  0  0  0  0
 15 24  1  0  0  0  0
 15 28  2  0  0  0  0
 16 30  2  0  0  0  0
 16 31  1  0  0  0  0
 17 32  1  0  0  0  0
 18 25  2  0  0  0  0
 18 35  1  0  0  0  0
 19 32  1  0  0  0  0
 19 33  2  0  0  0  0
 19 36  1  0  0  0  0
 20 22  2  0  0  0  0
 20 41  1  0  0  0  0
 21 24  2  0  0  0  0
 21 42  1  0  0  0  0
 22 52  1  0  0  0  0
 23 25  1  0  0  0  0
 23 43  1  0  0  0  0
 24 44  1  0  0  0  0
 25 45  1  0  0  0  0
 26 60  1  0  0  0  0
 27 79  1  0  0  0  0
 28 80  1  0  0  0  0
 29 31  2  0  0  0  0
 29 79  1  0  0  0  0
 30 81  1  0  0  0  0
 31 82  1  0  0  0  0
 32 64  2  0  0  0  0
 33 65  1  0  0  0  0
 33 69  1  0  0  0  0
 34 35  2  0  0  0  0
 36 70  1  0  0  0  0
 36 74  2  0  0  0  0
 37 53  1  0  0  0  0
 37 71  1  0  0  0  0
 37 75  2  0  0  0  0
 38 61  1  0  0  0  0
 38 66  1  0  0  0  0
 38 76  2  0  0  0  0
 39 62  1  0  0  0  0
 39 72  1  0  0  0  0
 39 77  2  0  0  0  0
 40 67  1  0  0  0  0
 40 68  1  0  0  0  0
 40 78  2  0  0  0  0
 41 46  1  0  0  0  0
 42 53  1  0  0  0  0
 43 67  1  0  0  0  0
 44 66  1  0  0  0  0
 45 67  1  0  0  0  0
 46 48  1  0  0  0  0
 47 49  1  0  0  0  0
 47 50  1  0  0  0  0
 48 52  1  0  0  0  0
 49 54  1  0  0  0  0
 50 68  1  0  0  0  0
 51 54  1  0  0  0  0
 51 68  1  0  0  0  0
 52 71  1  0  0  0  0
 53 66  1  0  0  0  0
 54 65  1  0  0  0  0
 55 62  1  0  0  0  0
 56 63  1  0  0  0  0
 57 63  1  0  0  0  0
 58 63  1  0  0  0  0
 59 73  1  0  0  0  0
 60 80  1  0  0  0  0
 61 63  1  0  0  0  0
 61 72  1  0  0  0  0
 62 73  1  0  0  0  0
 64 65  1  0  0  0  0
M  CHG  1  73   1
M  ISO  4  40 100  60 101  67 100  80 101
M  END
> <Batch ID>
0122

> <Smiles>
C=Cc1cc([101CH2:1][101O:1]c2ccc3c(c2)CN(C(=O)C(NC(=O)C(C)NC)C(C)(C)C)C(C(=O)NC2CCCc4ccccc42)C3)cc2c1C[100N:0]([100C:0](=O)N1CCCC(n3nc(-c4ccc(Oc5ccc(F)cc5F)cc4)c(C(N)=O)c3N)C1)C2

> <Shape>
0.325

> <Color>
0.122

> <Negative vol penalty>
0.000

$$$$

  -OEChem-04052302003D

 84 92  0     1  0  0  0  0  0999 V2000
  -24.0794  -21.1771   37.6355 C   0  0  0  0  0  0  0  0  0  0  0  0
  -24.4238  -20.7920   36.3438 C   0  0  0  0  0  0  0  0  0  0  0  0
  -23.0735   -9.8699   19.9416 C   0  0  0  0  0  0  0  0  0  0  0  0
  -23.8315   -9.8780   22.2356 C   0  0  0  0  0  0  0  0  0  0  0  0
  -25.0743  -21.3690   38.5932 C   0  0  0  0  0  0  0  0  0  0  0  0
  -25.7637  -20.5996   36.0087 C   0  0  0  0  0  0  0  0  0  0  0  0
  -28.0238  -16.4597   32.1024 C   0  0  0  0  0  0  0  0  0  0  0  0
  -22.3284   -8.7177   20.1919 C   0  0  0  0  0  0  0  0  0  0  0  0
  -23.0864   -8.7258   22.4859 C   0  0  0  0  0  0  0  0  0  0  0  0
  -28.4175  -16.5464   30.7678 C   0  0  0  0  0  0  0  0  0  0  0  0
  -19.9407   -5.9795   20.3205 C   0  0  0  0  0  0  0  0  0  0  0  0
  -18.6353   -5.9323   19.8311 C   0  0  0  0  0  0  0  0  0  0  0  0
  -30.7036  -16.8648   31.4691 C   0  0  0  0  0  0  0  0  0  0  0  0
  -31.8953  -18.3431   24.1890 C   0  0  0  0  0  0  0  0  0  0  0  0
  -32.0663  -16.5889   22.5366 C   0  0  0  0  0  0  0  0  0  0  0  0
  -18.0708   -7.8767   21.1494 C   0  0  0  0  0  0  0  0  0  0  0  0
  -23.8251  -10.4501   20.9635 C   0  0  0  0  0  0  0  0  0  0  0  0
  -24.1693  -12.9749   20.8417 C   0  0  0  0  0  0  0  0  0  0  0  0
  -26.4263  -21.1695   38.2723 C   0  0  0  0  0  0  0  0  0  0  0  0
  -28.9671  -16.5861   33.1324 C   0  0  0  0  0  0  0  0  0  0  0  0
  -26.7778  -20.7903   36.9627 C   0  0  0  0  0  0  0  0  0  0  0  0
  -30.3197  -16.7768   32.8159 C   0  0  0  0  0  0  0  0  0  0  0  0
  -30.5079  -18.3430   24.0456 C   0  0  0  0  0  0  0  0  0  0  0  0
  -29.8996  -17.4658   23.1478 C   0  0  0  0  0  0  0  0  0  0  0  0
  -30.6788  -16.5887   22.3932 C   0  0  0  0  0  0  0  0  0  0  0  0
  -22.3348   -8.1456   21.4640 C   0  0  0  0  0  0  0  0  0  0  0  0
  -29.7571  -16.7519   30.4510 C   0  0  0  0  0  0  0  0  0  0  0  0
  -20.3111   -6.9753   21.2243 C   0  0  0  0  0  0  0  0  0  0  0  0
  -17.7004   -6.8809   20.2455 C   0  0  0  0  0  0  0  0  0  0  0  0
  -32.6746  -17.4661   23.4344 C   0  0  0  0  0  0  0  0  0  0  0  0
  -19.3762   -7.9239   21.6387 C   0  0  0  0  0  0  0  0  0  0  0  0
  -24.5955  -11.6401   20.7054 C   0  0  0  0  0  0  0  0  0  0  0  0
  -25.2624  -13.7231   20.4788 C   0  0  0  0  0  0  0  0  0  0  0  0
  -22.8989  -13.4921   21.2592 C   0  0  0  0  0  0  0  0  0  0  0  0
  -29.4057  -18.6201   35.5353 C   0  0  0  0  0  0  0  0  0  0  0  0
  -31.7581  -16.5413   36.3520 C   0  0  0  0  0  0  0  0  0  0  0  0
  -33.9588  -14.1249   35.3697 C   0  0  0  0  0  0  0  0  0  0  0  0
  -30.7294  -14.7640   20.6571 C   0  0  0  0  0  0  0  0  0  0  0  0
  -27.4699  -21.4350   39.3283 C   0  0  0  0  0  0  0  0  0  0  0  0
  -28.5302  -16.4635   34.5665 C   0  0  0  0  0  0  0  0  0  0  0  0
  -31.3745  -16.8986   33.8841 C   0  0  0  0  0  0  0  0  0  0  0  0
  -28.8382  -20.8467   38.9939 C   0  0  0  0  0  0  0  0  0  0  0  0
  -29.6147  -12.3493   18.2898 C   0  0  0  0  0  0  0  0  0  0  0  0
  -29.2186  -21.1660   37.5516 C   0  0  0  0  0  0  0  0  0  0  0  0
  -28.1745  -12.0593   18.7184 C   0  0  0  0  0  0  0  0  0  0  0  0
  -30.5291  -12.5782   19.4920 C   0  0  0  0  0  0  0  0  0  0  0  0
  -28.6217  -13.3055   20.8712 C   0  0  0  0  0  0  0  0  0  0  0  0
  -28.2183  -20.5477   36.5675 C   0  0  1  0  0  0  0  0  0  0  0  0
  -29.4993  -17.1205   35.5445 C   0  0  1  0  0  0  0  0  0  0  0  0
  -27.6496  -13.1321   19.6927 C   0  0  2  0  0  0  0  0  0  0  0  0
  -27.9621  -18.1850   21.7282 C   0  0  0  0  0  0  0  0  0  0  0  0
  -35.7788  -12.6408   36.2542 C   0  0  0  0  0  0  0  0  0  0  0  0
  -33.6707  -18.9182   36.3978 C   0  0  0  0  0  0  0  0  0  0  0  0
  -35.5771  -17.2964   36.3378 C   0  0  0  0  0  0  0  0  0  0  0  0
  -33.9920  -17.2846   38.2639 C   0  0  0  0  0  0  0  0  0  0  0  0
  -32.4664  -11.6719   34.6526 C   0  0  0  0  0  0  0  0  0  0  0  0
  -29.6892  -19.3001   24.8749 C   0  0  0  0  0  0  0  0  0  0  0  0
  -28.4105  -17.4689   22.9971 C   0  0  0  0  0  0  0  0  0  0  0  0
  -28.9738  -18.6385   26.0580 C   0  0  0  0  0  0  0  0  0  0  0  0
  -29.9388  -18.0413   27.0831 C   0  0  0  0  0  0  0  0  0  0  0  0
  -29.1929  -17.3591   28.2219 C   0  0  0  0  0  0  0  0  0  1  0  0
  -33.2247  -16.4031   36.0220 C   0  0  1  0  0  0  0  0  0  0  0  0
  -34.2922  -12.7663   35.9592 C   0  0  2  0  0  0  0  0  0  0  0  0
  -34.0962  -17.4752   36.7351 C   0  0  0  0  0  0  0  0  0  0  0  0
  -25.8606  -11.5428   20.2882 N   0  0  0  0  0  0  0  0  0  0  0  0
  -26.2387  -12.8260   20.1592 N   0  0  0  0  0  0  0  0  0  0  0  0
  -30.8967  -16.7783   35.2714 N   0  0  0  0  0  0  0  0  0  0  0  0
  -29.9703  -13.6102   20.3681 N   0  0  0  0  0  0  0  0  0  0  0  0
  -25.4741  -15.0543   20.4049 N   0  0  0  0  0  0  0  0  0  0  0  0
  -21.8859  -12.5841   21.5964 N   0  0  0  0  0  0  0  0  0  0  0  0
  -30.0822  -15.6902   21.4742 N   0  0  0  0  0  0  0  0  0  0  0  0
  -28.4698  -19.1307   36.4145 N   0  0  0  0  0  0  0  0  0  0  0  0
  -33.5877  -15.0273   36.3441 N   0  0  0  0  0  0  0  0  0  0  0  0
  -33.9079  -11.6821   35.0117 N   0  3  0  0  0  0  0  0  0  0  0  0
  -22.6637  -14.7230   21.3154 O   0  0  0  0  0  0  0  0  0  0  0  0
  -30.1299  -19.2661   34.7871 O   0  0  0  0  0  0  0  0  0  0  0  0
  -31.3895  -16.4355   37.5244 O   0  0  0  0  0  0  0  0  0  0  0  0
  -34.0248  -14.3630   34.1658 O   0  0  0  0  0  0  0  0  0  0  0  0
  -31.8590  -14.9313   20.1903 O   0  0  0  0  0  0  0  0  0  0  0  0
  -21.6076   -7.0213   21.7086 O   0  0  0  0  0  0  0  0  0  0  0  0
  -30.1440  -16.8376   29.1491 O   0  0  0  0  0  0  0  0  0  1  0  0
  -16.4474   -6.8364   19.7744 F   0  0  0  0  0  0  0  0  0  0  0  0
  -34.0071  -17.4676   23.5703 F   0  0  0  0  0  0  0  0  0  0  0  0
  -19.7265   -8.8836   22.5059 F   0  0  0  0  0  0  0  0  0  0  0  0
  1  2  1  0  0  0  0
  1  5  2  0  0  0  0
  2  6  2  0  0  0  0
  3  8  2  0  0  0  0
  3 17  1  0  0  0  0
  4  9  1  0  0  0  0
  4 17  2  0  0  0  0
  5 19  1  0  0  0  0
  6 21  1  0  0  0  0
  7 10  2  0  0  0  0
  7 20  1  0  0  0  0
  8 26  1  0  0  0  0
  9 26  2  0  0  0  0
 10 27  1  0  0  0  0
 11 12  2  0  0  0  0
 11 28  1  0  0  0  0
 12 29  1  0  0  0  0
 13 22  1  0  0  0  0
 13 27  2  0  0  0  0
 14 23  2  0  0  0  0
 14 30  1  0  0  0  0
 15 25  1  0  0  0  0
 15 30  2  0  0  0  0
 16 29  2  0  0  0  0
 16 31  1  0  0  0  0
 17 32  1  0  0  0  0
 18 32  1  0  0  0  0
 18 33  2  0  0  0  0
 18 34  1  0  0  0  0
 19 21  2  0  0  0  0
 19 39  1  0  0  0  0
 20 22  2  0  0  0  0
 20 40  1  0  0  0  0
 21 48  1  0  0  0  0
 22 41  1  0  0  0  0
 23 24  1  0  0  0  0
 23 57  1  0  0  0  0
 24 25  2  0  0  0  0
 24 58  1  0  0  0  0
 25 71  1  0  0  0  0
 26 80  1  0  0  0  0
 27 81  1  0  0  0  0
 28 31  2  0  0  0  0
 28 80  1  0  0  0  0
 29 82  1  0  0  0  0
 30 83  1  0  0  0  0
 31 84  1  0  0  0  0
 32 65  2  0  0  0  0
 33 66  1  0  0  0  0
 33 69  1  0  0  0  0
 34 70  1  0  0  0  0
 34 75  2  0  0  0  0
 35 49  1  0  0  0  0
 35 72  1  0  0  0  0
 35 76  2  0  0  0  0
 36 62  1  0  0  0  0
 36 67  1  0  0  0  0
 36 77  2  0  0  0  0
 37 63  1  0  0  0  0
 37 73  1  0  0  0  0
 37 78  2  0  0  0  0
 38 68  1  0  0  0  0
 38 71  1  0  0  0  0
 38 79  2  0  0  0  0
 39 42  1  0  0  0  0
 40 49  1  0  0  0  0
 41 67  1  0  0  0  0
 42 44  1  0  0  0  0
 43 45  1  0  0  0  0
 43 46  1  0  0  0  0
 44 48  1  0  0  0  0
 45 50  1  0  0  0  0
 46 68  1  0  0  0  0
 47 50  1  0  0  0  0
 47 68  1  0  0  0  0
 48 72  1  0  0  0  0
 49 67  1  0  0  0  0
 50 66  1  0  0  0  0
 51 58  1  0  0  0  0
 52 63  1  0  0  0  0
 53 64  1  0  0  0  0
 54 64  1  0  0  0  0
 55 64  1  0  0  0  0
 56 74  1  0  0  0  0
 57 59  1  0  0  0  0
 59 60  1  0  0  0  0
 60 61  1  0  0  0  0
 61 81  1  0  0  0  0
 62 64  1  0  0  0  0
 62 73  1  0  0  0  0
 63 74  1  0  0  0  0
 65 66  1  0  0  0  0
M  CHG  1  74   1
M  ISO  4  38 100  61 101  71 100  81 101
M  END
> <Batch ID>
0122

> <Smiles>
CCc1c(CCC[101CH2:1][101O:1]c2ccc3c(c2)CN(C(=O)C(NC(=O)C(C)NC)C(C)(C)C)C(C(=O)NC2CCCc4ccccc42)C3)cc(F)cc1[100NH:0][100C:0](=O)N1CCCC(n2nc(-c3ccc(Oc4ccc(F)cc4F)cc3)c(C(N)=O)c2N)C1

> <Shape>
0.150

> <Color>
0.196

> <Negative vol penalty>
0.000

$$$$

  -OEChem-04052302003D

 82 90  0     1  0  0  0  0  0999 V2000
  -27.2379  -23.2805   18.1580 C   0  0  0  0  0  0  0  0  0  0  0  0
  -26.0524  -23.8314   18.6338 C   0  0  0  0  0  0  0  0  0  0  0  0
  -28.0911  -15.8767   21.0561 C   0  0  0  0  0  0  0  0  0  0  0  0
  -26.2077  -16.6030   19.7287 C   0  0  0  0  0  0  0  0  0  0  0  0
  -28.4487  -23.5986   18.7717 C   0  0  0  0  0  0  0  0  0  0  0  0
  -26.0769  -24.6998   19.7245 C   0  0  0  0  0  0  0  0  0  0  0  0
  -23.1757  -28.7898   19.0169 C   0  0  0  0  0  0  0  0  0  0  0  0
  -28.1223  -14.6724   20.3531 C   0  0  0  0  0  0  0  0  0  0  0  0
  -26.2388  -15.3987   19.0255 C   0  0  0  0  0  0  0  0  0  0  0  0
  -21.8006  -28.6314   19.1830 C   0  0  0  0  0  0  0  0  0  0  0  0
  -29.2320  -13.5650   17.3572 C   0  0  0  0  0  0  0  0  0  0  0  0
  -30.4736  -13.0978   16.9265 C   0  0  0  0  0  0  0  0  0  0  0  0
  -21.9638  -29.5857   21.3925 C   0  0  0  0  0  0  0  0  0  0  0  0
  -30.1699  -11.0875   18.2318 C   0  0  0  0  0  0  0  0  0  0  0  0
  -20.1641  -25.9355   24.1776 C   0  0  0  0  0  0  0  0  0  0  0  0
  -27.1338  -16.8420   20.7440 C   0  0  0  0  0  0  0  0  0  0  0  0
  -27.7838  -19.2749   21.1514 C   0  0  0  0  0  0  0  0  0  0  0  0
  -28.4892  -24.4789   19.8644 C   0  0  0  0  0  0  0  0  0  0  0  0
  -23.9582  -29.3381   20.0433 C   0  0  0  0  0  0  0  0  0  0  0  0
  -27.2892  -25.0289   20.3543 C   0  0  0  0  0  0  0  0  0  0  0  0
  -23.3483  -29.7523   21.2359 C   0  0  0  0  0  0  0  0  0  0  0  0
  -21.6513  -25.0631   22.7621 C   0  0  0  0  0  0  0  0  0  0  0  0
  -27.1962  -14.4334   19.3378 C   0  0  0  0  0  0  0  0  0  0  0  0
  -21.1948  -29.0267   20.3721 C   0  0  0  0  0  0  0  0  0  0  0  0
  -28.4593  -12.7936   18.2253 C   0  0  0  0  0  0  0  0  0  0  0  0
  -20.3351  -25.5737   22.8616 C   0  0  0  0  0  0  0  0  0  0  0  0
  -30.9426  -11.8590   17.3638 C   0  0  0  0  0  0  0  0  0  0  0  0
  -28.9282  -11.5548   18.6625 C   0  0  0  0  0  0  0  0  0  0  0  0
  -27.1008  -18.0860   21.4703 C   0  0  0  0  0  0  0  0  0  0  0  0
  -22.1910  -25.1494   24.0244 C   0  0  0  0  0  0  0  0  0  0  0  0
  -27.4232  -20.1545   22.1427 C   0  0  0  0  0  0  0  0  0  0  0  0
  -28.6653  -19.5589   20.0568 C   0  0  0  0  0  0  0  0  0  0  0  0
  -26.3725  -28.2916   21.8265 C   0  0  0  0  0  0  0  0  0  0  0  0
  -26.3992  -31.3541   22.8954 C   0  0  0  0  0  0  0  0  0  0  0  0
  -24.6912  -34.2687   23.3798 C   0  0  0  0  0  0  0  0  0  0  0  0
  -23.5476  -22.4579   25.4320 C   0  0  0  0  0  0  0  0  0  0  0  0
  -29.8165  -24.7558   20.5248 C   0  0  0  0  0  0  0  0  0  0  0  0
  -25.4363  -29.5269   19.8381 C   0  0  0  0  0  0  0  0  0  0  0  0
  -24.1406  -30.3652   22.3606 C   0  0  0  0  0  0  0  0  0  0  0  0
  -29.7985  -25.9776   21.4398 C   0  0  0  0  0  0  0  0  0  0  0  0
  -24.9794  -19.3791   26.5031 C   0  0  0  0  0  0  0  0  0  0  0  0
  -28.5701  -25.9496   22.3437 C   0  0  0  0  0  0  0  0  0  0  0  0
  -25.7095  -18.8637   25.2617 C   0  0  0  0  0  0  0  0  0  0  0  0
  -23.6764  -20.0871   26.1383 C   0  0  0  0  0  0  0  0  0  0  0  0
  -24.5462  -20.6522   23.9027 C   0  0  0  0  0  0  0  0  0  0  0  0
  -27.2777  -25.9944   21.5196 C   0  0  1  0  0  0  0  0  0  0  0  0
  -26.2138  -29.6224   21.1472 C   0  0  1  0  0  0  0  0  0  0  0  0
  -25.8938  -19.9798   24.2159 C   0  0  2  0  0  0  0  0  0  0  0  0
  -22.3119  -24.5437   21.5499 C   0  0  0  0  0  0  0  0  0  0  0  0
  -24.9681  -36.5830   24.3098 C   0  0  0  0  0  0  0  0  0  0  0  0
  -26.2175  -30.2349   25.7282 C   0  0  0  0  0  0  0  0  0  0  0  0
  -25.5477  -32.5165   26.5118 C   0  0  0  0  0  0  0  0  0  0  0  0
  -27.7859  -32.1654   25.4678 C   0  0  0  0  0  0  0  0  0  0  0  0
  -24.1167  -35.5163   20.7582 C   0  0  0  0  0  0  0  0  0  0  0  0
  -23.5008  -24.7918   24.5894 C   0  0  0  0  0  0  0  0  0  0  0  0
  -18.0454  -27.2783   20.6491 C   0  0  0  0  0  0  0  0  0  0  0  0
  -19.2342  -27.7865   19.8488 C   0  0  0  0  0  0  0  0  0  1  0  0
  -18.4589  -26.7693   22.0211 C   0  0  0  0  0  0  0  0  0  0  0  0
  -25.7171  -32.1014   24.0158 C   0  0  1  0  0  0  0  0  0  0  0  0
  -25.0498  -35.7103   23.0670 C   0  0  2  0  0  0  0  0  0  0  0  0
  -26.3021  -31.7413   25.4107 C   0  0  0  0  0  0  0  0  0  0  0  0
  -26.3623  -18.1967   22.5777 N   0  0  0  0  0  0  0  0  0  0  0  0
  -26.5792  -19.4657   22.9634 N   0  0  0  0  0  0  0  0  0  0  0  0
  -25.5835  -30.5231   22.1145 N   0  0  0  0  0  0  0  0  0  0  0  0
  -23.9207  -21.1347   25.1440 N   0  0  0  0  0  0  0  0  0  0  0  0
  -27.7489  -21.4422   22.3839 N   0  0  0  0  0  0  0  0  0  0  0  0
  -28.9278  -18.5417   19.1291 N   0  0  0  0  0  0  0  0  0  0  0  0
  -27.0185  -27.3416   21.0587 N   0  0  0  0  0  0  0  0  0  0  0  0
  -25.8086  -33.5175   23.6770 N   0  0  0  0  0  0  0  0  0  0  0  0
  -23.8204  -23.3898   24.4381 N   0  0  0  0  0  0  0  0  0  0  0  0
  -24.1209  -36.2643   22.0417 N   0  3  0  0  0  0  0  0  0  0  0  0
  -29.2171  -20.6765   19.9151 O   0  0  0  0  0  0  0  0  0  0  0  0
  -25.9420  -28.1385   22.9636 O   0  0  0  0  0  0  0  0  0  0  0  0
  -27.6098  -31.5078   22.7152 O   0  0  0  0  0  0  0  0  0  0  0  0
  -23.5352  -33.8518   23.3657 O   0  0  0  0  0  0  0  0  0  0  0  0
  -23.0158  -22.7855   26.4983 O   0  0  0  0  0  0  0  0  0  0  0  0
  -21.2908  -25.6802   24.8931 O   0  0  0  0  0  0  0  0  0  0  0  0
  -27.2264  -13.2585   18.6513 O   0  0  0  0  0  0  0  0  0  0  0  0
  -19.8528  -28.8727   20.5371 O   0  0  0  0  0  0  0  0  0  1  0  0
  -19.3870  -25.7023   21.8801 O   0  0  0  0  0  0  0  0  0  0  0  0
  -32.1343  -11.4097   16.9489 F   0  0  0  0  0  0  0  0  0  0  0  0
  -28.1899  -10.8086   19.4955 F   0  0  0  0  0  0  0  0  0  0  0  0
  1  2  1  0  0  0  0
  1  5  2  0  0  0  0
  2  6  2  0  0  0  0
  3  8  2  0  0  0  0
  3 16  1  0  0  0  0
  4  9  1  0  0  0  0
  4 16  2  0  0  0  0
  5 18  1  0  0  0  0
  6 20  1  0  0  0  0
  7 10  2  0  0  0  0
  7 19  1  0  0  0  0
  8 23  1  0  0  0  0
  9 23  2  0  0  0  0
 10 24  1  0  0  0  0
 11 12  2  0  0  0  0
 11 25  1  0  0  0  0
 12 27  1  0  0  0  0
 13 21  1  0  0  0  0
 13 24  2  0  0  0  0
 14 27  2  0  0  0  0
 14 28  1  0  0  0  0
 15 26  2  0  0  0  0
 15 77  1  0  0  0  0
 16 29  1  0  0  0  0
 17 29  1  0  0  0  0
 17 31  2  0  0  0  0
 17 32  1  0  0  0  0
 18 20  2  0  0  0  0
 18 37  1  0  0  0  0
 19 21  2  0  0  0  0
 19 38  1  0  0  0  0
 20 46  1  0  0  0  0
 21 39  1  0  0  0  0
 22 26  1  0  0  0  0
 22 30  2  0  0  0  0
 22 49  1  0  0  0  0
 23 78  1  0  0  0  0
 24 79  1  0  0  0  0
 25 28  2  0  0  0  0
 25 78  1  0  0  0  0
 26 80  1  0  0  0  0
 27 81  1  0  0  0  0
 28 82  1  0  0  0  0
 29 62  2  0  0  0  0
 30 55  1  0  0  0  0
 30 77  1  0  0  0  0
 31 63  1  0  0  0  0
 31 66  1  0  0  0  0
 32 67  1  0  0  0  0
 32 72  2  0  0  0  0
 33 47  1  0  0  0  0
 33 68  1  0  0  0  0
 33 73  2  0  0  0  0
 34 59  1  0  0  0  0
 34 64  1  0  0  0  0
 34 74  2  0  0  0  0
 35 60  1  0  0  0  0
 35 69  1  0  0  0  0
 35 75  2  0  0  0  0
 36 65  1  0  0  0  0
 36 70  1  0  0  0  0
 36 76  2  0  0  0  0
 37 40  1  0  0  0  0
 38 47  1  0  0  0  0
 39 64  1  0  0  0  0
 40 42  1  0  0  0  0
 41 43  1  0  0  0  0
 41 44  1  0  0  0  0
 42 46  1  0  0  0  0
 43 48  1  0  0  0  0
 44 65  1  0  0  0  0
 45 48  1  0  0  0  0
 45 65  1  0  0  0  0
 46 68  1  0  0  0  0
 47 64  1  0  0  0  0
 48 63  1  0  0  0  0
 50 60  1  0  0  0  0
 51 61  1  0  0  0  0
 52 61  1  0  0  0  0
 53 61  1  0  0  0  0
 54 71  1  0  0  0  0
 55 70  1  0  0  0  0
 56 57  1  0  0  0  0
 56 58  1  0  0  0  0
 57 79  1  0  0  0  0
 58 80  1  0  0  0  0
 59 61  1  0  0  0  0
 59 69  1  0  0  0  0
 60 71  1  0  0  0  0
 62 63  1  0  0  0  0
M  CHG  1  71   1
M  ISO  4  36 100  57 101  70 100  79 101
M  END
> <Batch ID>
0122

> <Smiles>
CNC(C)C(=O)NC(C(=O)N1Cc2cc([101O:1][101CH2:1]CCOc3coc(C[100NH:0][100C:0](=O)N4CCCC(n5nc(-c6ccc(Oc7ccc(F)cc7F)cc6)c(C(N)=O)c5N)C4)c3C)ccc2CC1C(=O)NC1CCCc2ccccc21)C(C)(C)C

> <Shape>
0.267

> <Color>
0.063

> <Negative vol penalty>
0.000

$$$$

  -OEChem-04052302003D

 85 93  0     1  0  0  0  0  0999 V2000
  -28.9706  -37.5669   24.3603 C   0  0  0  0  0  0  0  0  0  0  0  0
  -29.3297  -36.2499   24.0924 C   0  0  0  0  0  0  0  0  0  0  0  0
  -25.0439   -6.0424   22.1589 C   0  0  0  0  0  0  0  0  0  0  0  0
  -22.7985   -6.2684   21.2963 C   0  0  0  0  0  0  0  0  0  0  0  0
  -29.4372  -19.3598   20.1113 C   0  0  0  0  0  0  0  0  0  0  0  0
  -29.2638  -17.9764   20.0688 C   0  0  0  0  0  0  0  0  0  0  0  0
  -27.7425  -37.8455   24.9586 C   0  0  0  0  0  0  0  0  0  0  0  0
  -28.4612  -35.2104   24.4236 C   0  0  0  0  0  0  0  0  0  0  0  0
  -27.6380  -29.9792   21.3476 C   0  0  0  0  0  0  0  0  0  0  0  0
  -24.6183   -5.0117   22.9968 C   0  0  0  0  0  0  0  0  0  0  0  0
  -22.3728   -5.2377   22.1342 C   0  0  0  0  0  0  0  0  0  0  0  0
  -28.1442  -28.6932   21.5316 C   0  0  0  0  0  0  0  0  0  0  0  0
  -21.5628   -4.8505   25.3938 C   0  0  0  0  0  0  0  0  0  0  0  0
  -20.3729   -5.0368   26.0973 C   0  0  0  0  0  0  0  0  0  0  0  0
  -28.0197  -19.5971   18.1693 C   0  0  0  0  0  0  0  0  0  0  0  0
  -26.1460  -28.0858   22.7388 C   0  0  0  0  0  0  0  0  0  0  0  0
  -19.4271   -3.0969   25.0113 C   0  0  0  0  0  0  0  0  0  0  0  0
  -24.1340   -6.6708   21.3086 C   0  0  0  0  0  0  0  0  0  0  0  0
  -28.8151  -20.1702   19.1616 C   0  0  0  0  0  0  0  0  0  0  0  0
  -28.4685  -17.4033   19.0765 C   0  0  0  0  0  0  0  0  0  0  0  0
  -25.0652   -7.6159   19.1298 C   0  0  0  0  0  0  0  0  0  0  0  0
  -26.8544  -36.8096   25.2886 C   0  0  0  0  0  0  0  0  0  0  0  0
  -26.3846  -30.3319   21.8681 C   0  0  0  0  0  0  0  0  0  0  0  0
  -27.2206  -35.4753   25.0281 C   0  0  0  0  0  0  0  0  0  0  0  0
  -25.6250  -29.3761   22.5578 C   0  0  0  0  0  0  0  0  0  0  0  0
  -27.8464  -18.2137   18.1267 C   0  0  0  0  0  0  0  0  0  0  0  0
  -23.2828   -4.6093   22.9845 C   0  0  0  0  0  0  0  0  0  0  0  0
  -27.3995  -27.7472   22.2298 C   0  0  0  0  0  0  0  0  0  0  0  0
  -21.6849   -3.7875   24.4989 C   0  0  0  0  0  0  0  0  0  0  0  0
  -19.3051   -4.1600   25.9061 C   0  0  0  0  0  0  0  0  0  0  0  0
  -20.6170   -2.9107   24.3077 C   0  0  0  0  0  0  0  0  0  0  0  0
  -24.5729   -7.7359   20.4433 C   0  0  0  0  0  0  0  0  0  0  0  0
  -25.3410   -8.9059   18.7474 C   0  0  0  0  0  0  0  0  0  0  0  0
  -28.9993  -21.6302   19.2067 C   0  0  0  0  0  0  0  0  0  0  0  0
  -28.3066  -15.9555   19.0588 C   0  0  0  0  0  0  0  0  0  0  0  0
  -27.7622  -15.2186   20.0486 C   0  0  0  0  0  0  0  0  0  0  0  0
  -29.4009  -22.3270   20.2815 C   0  0  0  0  0  0  0  0  0  0  0  0
  -25.2559   -6.4433   18.3273 C   0  0  0  0  0  0  0  0  0  0  0  0
  -27.6586  -13.7556   19.8764 C   0  0  0  0  0  0  0  0  0  0  0  0
  -25.3574  -32.4550   23.9991 C   0  0  0  0  0  0  0  0  0  0  0  0
  -28.6676  -24.4720   21.3187 C   0  0  0  0  0  0  0  0  0  0  0  0
  -22.4354  -31.4335   23.0292 C   0  0  0  0  0  0  0  0  0  0  0  0
  -20.5503  -28.9600   21.6237 C   0  0  0  0  0  0  0  0  0  0  0  0
  -25.5581  -37.1565   25.9772 C   0  0  0  0  0  0  0  0  0  0  0  0
  -25.8410  -31.7153   21.6379 C   0  0  0  0  0  0  0  0  0  0  0  0
  -24.2649  -29.6985   23.1188 C   0  0  0  0  0  0  0  0  0  0  0  0
  -24.5346  -36.0241   25.9550 C   0  0  0  0  0  0  0  0  0  0  0  0
  -24.1663  -13.3141   20.8965 C   0  0  0  0  0  0  0  0  0  0  0  0
  -25.1912  -34.7034   26.3441 C   0  0  0  0  0  0  0  0  0  0  0  0
  -24.0229  -11.7973   20.8040 C   0  0  0  0  0  0  0  0  0  0  0  0
  -25.5679  -13.7298   21.3408 C   0  0  0  0  0  0  0  0  0  0  0  0
  -26.5119  -11.6391   20.4037 C   0  0  0  0  0  0  0  0  0  0  0  0
  -26.2950  -34.3222   25.3501 C   0  0  1  0  0  0  0  0  0  0  0  0
  -24.7771  -32.1162   22.6552 C   0  0  1  0  0  0  0  0  0  0  0  0
  -25.1235  -11.1998   19.9130 C   0  0  1  0  0  0  0  0  0  0  0  0
  -26.9879  -17.6342   17.0486 C   0  0  0  0  0  0  0  0  0  0  0  0
  -18.1857  -28.4003   20.9969 C   0  0  0  0  0  0  0  0  0  0  0  0
  -21.7867  -30.8997   25.9625 C   0  0  0  0  0  0  0  0  0  0  0  0
  -19.8564  -29.4951   25.2078 C   0  0  0  0  0  0  0  0  0  0  0  0
  -19.9206  -31.9260   24.6515 C   0  0  0  0  0  0  0  0  0  0  0  0
  -21.2479  -28.7026   18.7591 C   0  0  0  0  0  0  0  0  0  0  0  0
  -29.5681  -23.8157   20.2816 C   0  0  0  0  0  0  0  0  0  0  0  0
  -28.7636  -25.9834   21.4025 C   0  0  0  0  0  0  0  0  0  1  0  0
  -21.4879  -30.3399   23.4598 C   0  0  1  0  0  0  0  0  0  0  0  0
  -19.5043  -28.9922   20.5240 C   0  0  2  0  0  0  0  0  0  0  0  0
  -20.7894  -30.6594   24.8116 C   0  0  0  0  0  0  0  0  0  0  0  0
  -24.5371   -9.0022   20.8668 N   0  0  0  0  0  0  0  0  0  0  0  0
  -25.0105   -9.6896   19.8135 N   0  0  0  0  0  0  0  0  0  0  0  0
  -26.6050  -13.0994   20.5102 N   0  0  0  0  0  0  0  0  0  0  0  0
  -23.7796  -31.0666   22.8731 N   0  0  0  0  0  0  0  0  0  0  0  0
  -25.8318   -9.4350   17.6065 N   0  0  0  0  0  0  0  0  0  0  0  0
  -24.9210   -5.1973   18.8746 N   0  0  0  0  0  0  0  0  0  0  0  0
  -25.7186  -33.7815   24.1377 N   0  0  0  0  0  0  0  0  0  0  0  0
  -20.5684  -30.1345   22.3459 N   0  0  0  0  0  0  0  0  0  0  0  0
  -19.9716  -28.2144   19.3418 N   0  3  0  0  0  0  0  0  0  0  0  0
  -25.7253   -6.4971   17.1652 O   0  0  0  0  0  0  0  0  0  0  0  0
  -28.5156  -13.2024   19.1848 O   0  0  0  0  0  0  0  0  0  0  0  0
  -25.4679  -31.5781   24.8479 O   0  0  0  0  0  0  0  0  0  0  0  0
  -27.8981  -23.8341   22.0362 O   0  0  0  0  0  0  0  0  0  0  0  0
  -21.9977  -32.5697   22.8314 O   0  0  0  0  0  0  0  0  0  0  0  0
  -21.2760  -27.9886   21.8246 O   0  0  0  0  0  0  0  0  0  0  0  0
  -22.8671   -3.6034   23.8018 O   0  0  0  0  0  0  0  0  0  0  0  0
  -27.8915  -26.4915   22.4114 O   0  0  0  0  0  0  0  0  0  1  0  0
  -18.1630   -4.3381   26.5830 F   0  0  0  0  0  0  0  0  0  0  0  0
  -20.7288   -1.8869   23.4503 F   0  0  0  0  0  0  0  0  0  0  0  0
  1  2  1  0  0  0  0
  1  7  2  0  0  0  0
  2  8  2  0  0  0  0
  3 10  2  0  0  0  0
  3 18  1  0  0  0  0
  4 11  1  0  0  0  0
  4 18  2  0  0  0  0
  5  6  2  0  0  0  0
  5 19  1  0  0  0  0
  6 20  1  0  0  0  0
  7 22  1  0  0  0  0
  8 24  1  0  0  0  0
  9 12  2  0  0  0  0
  9 23  1  0  0  0  0
 10 27  1  0  0  0  0
 11 27  2  0  0  0  0
 12 28  1  0  0  0  0
 13 14  2  0  0  0  0
 13 29  1  0  0  0  0
 14 30  1  0  0  0  0
 15 19  2  0  0  0  0
 15 26  1  0  0  0  0
 16 25  1  0  0  0  0
 16 28  2  0  0  0  0
 17 30  2  0  0  0  0
 17 31  1  0  0  0  0
 18 32  1  0  0  0  0
 19 34  1  0  0  0  0
 20 26  2  0  0  0  0
 20 35  1  0  0  0  0
 21 32  1  0  0  0  0
 21 33  2  0  0  0  0
 21 38  1  0  0  0  0
 22 24  2  0  0  0  0
 22 44  1  0  0  0  0
 23 25  2  0  0  0  0
 23 45  1  0  0  0  0
 24 53  1  0  0  0  0
 25 46  1  0  0  0  0
 26 56  1  0  0  0  0
 27 82  1  0  0  0  0
 28 83  1  0  0  0  0
 29 31  2  0  0  0  0
 29 82  1  0  0  0  0
 30 84  1  0  0  0  0
 31 85  1  0  0  0  0
 32 67  2  0  0  0  0
 33 68  1  0  0  0  0
 33 71  1  0  0  0  0
 34 37  2  0  0  0  0
 35 36  2  0  0  0  0
 36 39  1  0  0  0  0
 37 62  1  0  0  0  0
 38 72  1  0  0  0  0
 38 76  2  0  0  0  0
 39 69  1  0  0  0  0
 39 77  2  0  0  0  0
 40 54  1  0  0  0  0
 40 73  1  0  0  0  0
 40 78  2  0  0  0  0
 41 62  1  0  0  0  0
 41 63  1  0  0  0  0
 41 79  2  0  0  0  0
 42 64  1  0  0  0  0
 42 70  1  0  0  0  0
 42 80  2  0  0  0  0
 43 65  1  0  0  0  0
 43 74  1  0  0  0  0
 43 81  2  0  0  0  0
 44 47  1  0  0  0  0
 45 54  1  0  0  0  0
 46 70  1  0  0  0  0
 47 49  1  0  0  0  0
 48 50  1  0  0  0  0
 48 51  1  0  0  0  0
 49 53  1  0  0  0  0
 50 55  1  0  0  0  0
 51 69  1  0  0  0  0
 52 55  1  0  0  0  0
 52 69  1  0  0  0  0
 53 73  1  0  0  0  0
 54 70  1  0  0  0  0
 55 68  1  0  0  0  0
 57 65  1  0  0  0  0
 58 66  1  0  0  0  0
 59 66  1  0  0  0  0
 60 66  1  0  0  0  0
 61 75  1  0  0  0  0
 63 83  1  0  0  0  0
 64 66  1  0  0  0  0
 64 74  1  0  0  0  0
 65 75  1  0  0  0  0
 67 68  1  0  0  0  0
M  CHG  1  75   1
M  ISO  4  36 100  39 100  63 101  83 101
M  END
> <Batch ID>
0122

> <Smiles>
CNC(C)C(=O)NC(C(=O)N1Cc2cc([101O:1][101CH2:1]C(=O)CC=Cc3ccc(C=[100CH:0][100C:0](=O)N4CCCC(n5nc(-c6ccc(Oc7ccc(F)cc7F)cc6)c(C(N)=O)c5N)C4)c(C)c3)ccc2CC1C(=O)NC1CCCc2ccccc21)C(C)(C)C

> <Shape>
0.278

> <Color>
0.045

> <Negative vol penalty>
0.000

$$$$

  -OEChem-04052302003D

 84 92  0     1  0  0  0  0  0999 V2000
  -25.4193  -19.7972   14.4839 C   0  0  0  0  0  0  0  0  0  0  0  0
  -26.4152  -18.9463   14.9527 C   0  0  0  0  0  0  0  0  0  0  0  0
  -27.1089  -29.0873   19.1896 C   0  0  0  0  0  0  0  0  0  0  0  0
  -25.8390  -27.5102   20.5076 C   0  0  0  0  0  0  0  0  0  0  0  0
  -30.4983  -16.8148   19.4378 C   0  0  0  0  0  0  0  0  0  0  0  0
  -24.3564  -20.1489   15.3149 C   0  0  0  0  0  0  0  0  0  0  0  0
  -26.3492  -18.4475   16.2531 C   0  0  0  0  0  0  0  0  0  0  0  0
  -28.1777  -12.9279   18.1760 C   0  0  0  0  0  0  0  0  0  0  0  0
  -30.2895  -18.0118   18.7527 C   0  0  0  0  0  0  0  0  0  0  0  0
  -26.1020  -30.0380   19.3570 C   0  0  0  0  0  0  0  0  0  0  0  0
  -24.8321  -28.4609   20.6751 C   0  0  0  0  0  0  0  0  0  0  0  0
  -29.3434  -12.4923   18.8046 C   0  0  0  0  0  0  0  0  0  0  0  0
  -24.2788  -31.1896   22.5903 C   0  0  0  0  0  0  0  0  0  0  0  0
  -23.7468  -31.3494   23.8698 C   0  0  0  0  0  0  0  0  0  0  0  0
  -28.2493  -12.6752   20.9467 C   0  0  0  0  0  0  0  0  0  0  0  0
  -21.5597  -30.7524   23.0349 C   0  0  0  0  0  0  0  0  0  0  0  0
  -26.9773  -27.8234   19.7648 C   0  0  0  0  0  0  0  0  0  0  0  0
  -30.9592  -16.8359   20.7541 C   0  0  0  0  0  0  0  0  0  0  0  0
  -29.1357  -26.6318   20.4202 C   0  0  0  0  0  0  0  0  0  0  0  0
  -24.2724  -19.6464   16.6230 C   0  0  0  0  0  0  0  0  0  0  0  0
  -27.0406  -13.2514   18.9301 C   0  0  0  0  0  0  0  0  0  0  0  0
  -25.2849  -18.7938   17.1028 C   0  0  0  0  0  0  0  0  0  0  0  0
  -27.0696  -13.1122   20.3251 C   0  0  0  0  0  0  0  0  0  0  0  0
  -31.2114  -18.0539   21.3854 C   0  0  0  0  0  0  0  0  0  0  0  0
  -30.5418  -19.2298   19.3839 C   0  0  0  0  0  0  0  0  0  0  0  0
  -24.9636  -29.7248   20.0998 C   0  0  0  0  0  0  0  0  0  0  0  0
  -29.3803  -12.3687   20.1904 C   0  0  0  0  0  0  0  0  0  0  0  0
  -23.4512  -30.8113   21.5331 C   0  0  0  0  0  0  0  0  0  0  0  0
  -22.3873  -31.1308   24.0921 C   0  0  0  0  0  0  0  0  0  0  0  0
  -22.0917  -30.5926   21.7554 C   0  0  0  0  0  0  0  0  0  0  0  0
  -31.0027  -19.2509   20.7003 C   0  0  0  0  0  0  0  0  0  0  0  0
  -28.0168  -26.8407   19.5917 C   0  0  0  0  0  0  0  0  0  0  0  0
  -29.8114  -25.5924   19.8290 C   0  0  0  0  0  0  0  0  0  0  0  0
  -31.1672  -15.5551   21.4502 C   0  0  0  0  0  0  0  0  0  0  0  0
  -32.3184  -14.8652   21.4752 C   0  0  0  0  0  0  0  0  0  0  0  0
  -29.5290  -27.3161   21.6171 C   0  0  0  0  0  0  0  0  0  0  0  0
  -25.3282  -15.8900   19.3874 C   0  0  0  0  0  0  0  0  0  0  0  0
  -23.3912  -13.8791   21.0386 C   0  0  0  0  0  0  0  0  0  0  0  0
  -23.0505  -10.9647   22.7812 C   0  0  0  0  0  0  0  0  0  0  0  0
  -29.8774  -20.5953   17.3739 C   0  0  0  0  0  0  0  0  0  0  0  0
  -23.1292  -20.0924   17.4999 C   0  0  0  0  0  0  0  0  0  0  0  0
  -25.7825  -13.6943   18.2348 C   0  0  0  0  0  0  0  0  0  0  0  0
  -25.8694  -13.4274   21.1786 C   0  0  0  0  0  0  0  0  0  0  0  0
  -22.9369  -19.2222   18.7393 C   0  0  0  0  0  0  0  0  0  0  0  0
  -29.1908  -23.4099   15.3042 C   0  0  0  0  0  0  0  0  0  0  0  0
  -24.2751  -18.9676   19.4257 C   0  0  0  0  0  0  0  0  0  0  0  0
  -28.9162  -24.5362   16.3033 C   0  0  0  0  0  0  0  0  0  0  0  0
  -28.6473  -22.0699   15.7967 C   0  0  0  0  0  0  0  0  0  0  0  0
  -28.8102  -22.8058   18.1422 C   0  0  0  0  0  0  0  0  0  0  0  0
  -25.2356  -18.2124   18.4991 C   0  0  1  0  0  0  0  0  0  0  0  0
  -24.8467  -14.4882   19.1412 C   0  0  1  0  0  0  0  0  0  0  0  0
  -29.3964  -24.1628   17.7195 C   0  0  2  0  0  0  0  0  0  0  0  0
  -31.7058  -18.1098   22.7954 C   0  0  0  0  0  0  0  0  0  0  0  0
  -21.3558   -9.6102   24.0425 C   0  0  0  0  0  0  0  0  0  0  0  0
  -23.6099  -15.8046   23.3953 C   0  0  0  0  0  0  0  0  0  0  0  0
  -22.7260  -13.9869   24.8727 C   0  0  0  0  0  0  0  0  0  0  0  0
  -21.3187  -14.8771   23.0153 C   0  0  0  0  0  0  0  0  0  0  0  0
  -23.3294   -8.6748   20.9270 C   0  0  0  0  0  0  0  0  0  0  0  0
  -32.4852  -13.5620   22.2041 C   0  0  0  0  0  0  0  0  0  0  0  0
  -32.8274  -12.4279   21.2396 C   0  0  0  0  0  0  0  0  0  0  0  0
  -31.7558  -12.2580   20.1715 C   0  0  0  0  0  0  0  0  0  1  0  0
  -23.3068  -13.4127   22.4719 C   0  0  1  0  0  0  0  0  0  0  0  0
  -22.0184   -9.8547   22.6957 C   0  0  2  0  0  0  0  0  0  0  0  0
  -22.7638  -14.5162   23.4231 C   0  0  0  0  0  0  0  0  0  0  0  0
  -27.9803  -26.0015   18.5532 N   0  0  0  0  0  0  0  0  0  0  0  0
  -29.0847  -25.2553   18.7251 N   0  0  0  0  0  0  0  0  0  0  0  0
  -24.6648  -13.8627   20.4527 N   0  0  0  0  0  0  0  0  0  0  0  0
  -29.1476  -21.7805   17.1424 N   0  0  0  0  0  0  0  0  0  0  0  0
  -30.9504  -24.9432   20.1508 N   0  0  0  0  0  0  0  0  0  0  0  0
  -28.7203  -28.3603   22.0862 N   0  0  0  0  0  0  0  0  0  0  0  0
  -30.3300  -20.4435   18.6841 N   0  0  0  0  0  0  0  0  0  0  0  0
  -24.8913  -16.8075   18.4510 N   0  0  0  0  0  0  0  0  0  0  0  0
  -22.5096  -12.1910   22.4573 N   0  0  0  0  0  0  0  0  0  0  0  0
  -22.6589   -8.5851   22.2497 N   0  3  0  0  0  0  0  0  0  0  0  0
  -30.5754  -27.0214   22.2429 O   0  0  0  0  0  0  0  0  0  0  0  0
  -26.0419  -16.1224   20.3560 O   0  0  0  0  0  0  0  0  0  0  0  0
  -22.3636  -14.2378   20.4579 O   0  0  0  0  0  0  0  0  0  0  0  0
  -24.2186  -10.7645   23.1065 O   0  0  0  0  0  0  0  0  0  0  0  0
  -30.1088  -19.7886   16.4697 O   0  0  0  0  0  0  0  0  0  0  0  0
  -23.9811  -30.6523   20.2636 O   0  0  0  0  0  0  0  0  0  0  0  0
  -30.5170  -11.9444   20.8066 O   0  0  0  0  0  0  0  0  0  1  0  0
  -21.8768  -31.2828   25.3211 F   0  0  0  0  0  0  0  0  0  0  0  0
  -21.2919  -30.2278   20.7440 F   0  0  0  0  0  0  0  0  0  0  0  0
  -31.2455  -20.4224   21.3078 F   0  0  0  0  0  0  0  0  0  0  0  0
  1  2  1  0  0  0  0
  1  6  2  0  0  0  0
  2  7  2  0  0  0  0
  3 10  2  0  0  0  0
  3 17  1  0  0  0  0
  4 11  1  0  0  0  0
  4 17  2  0  0  0  0
  5  9  2  0  0  0  0
  5 18  1  0  0  0  0
  6 20  1  0  0  0  0
  7 22  1  0  0  0  0
  8 12  2  0  0  0  0
  8 21  1  0  0  0  0
  9 25  1  0  0  0  0
 10 26  1  0  0  0  0
 11 26  2  0  0  0  0
 12 27  1  0  0  0  0
 13 14  2  0  0  0  0
 13 28  1  0  0  0  0
 14 29  1  0  0  0  0
 15 23  1  0  0  0  0
 15 27  2  0  0  0  0
 16 29  2  0  0  0  0
 16 30  1  0  0  0  0
 17 32  1  0  0  0  0
 18 24  2  0  0  0  0
 18 34  1  0  0  0  0
 19 32  1  0  0  0  0
 19 33  2  0  0  0  0
 19 36  1  0  0  0  0
 20 22  2  0  0  0  0
 20 41  1  0  0  0  0
 21 23  2  0  0  0  0
 21 42  1  0  0  0  0
 22 50  1  0  0  0  0
 23 43  1  0  0  0  0
 24 31  1  0  0  0  0
 24 53  1  0  0  0  0
 25 31  2  0  0  0  0
 25 71  1  0  0  0  0
 26 80  1  0  0  0  0
 27 81  1  0  0  0  0
 28 30  2  0  0  0  0
 28 80  1  0  0  0  0
 29 82  1  0  0  0  0
 30 83  1  0  0  0  0
 31 84  1  0  0  0  0
 32 65  2  0  0  0  0
 33 66  1  0  0  0  0
 33 69  1  0  0  0  0
 34 35  2  0  0  0  0
 35 59  1  0  0  0  0
 36 70  1  0  0  0  0
 36 75  2  0  0  0  0
 37 51  1  0  0  0  0
 37 72  1  0  0  0  0
 37 76  2  0  0  0  0
 38 62  1  0  0  0  0
 38 67  1  0  0  0  0
 38 77  2  0  0  0  0
 39 63  1  0  0  0  0
 39 73  1  0  0  0  0
 39 78  2  0  0  0  0
 40 68  1  0  0  0  0
 40 71  1  0  0  0  0
 40 79  2  0  0  0  0
 41 44  1  0  0  0  0
 42 51  1  0  0  0  0
 43 67  1  0  0  0  0
 44 46  1  0  0  0  0
 45 47  1  0  0  0  0
 45 48  1  0  0  0  0
 46 50  1  0  0  0  0
 47 52  1  0  0  0  0
 48 68  1  0  0  0  0
 49 52  1  0  0  0  0
 49 68  1  0  0  0  0
 50 72  1  0  0  0  0
 51 67  1  0  0  0  0
 52 66  1  0  0  0  0
 54 63  1  0  0  0  0
 55 64  1  0  0  0  0
 56 64  1  0  0  0  0
 57 64  1  0  0  0  0
 58 74  1  0  0  0  0
 59 60  1  0  0  0  0
 60 61  1  0  0  0  0
 61 81  1  0  0  0  0
 62 64  1  0  0  0  0
 62 73  1  0  0  0  0
 63 74  1  0  0  0  0
 65 66  1  0  0  0  0
M  CHG  1  74   1
M  ISO  4  40 100  61 101  71 100  81 101
M  END
> <Batch ID>
0122

> <Smiles>
CNC(C)C(=O)NC(C(=O)N1Cc2cc([101O:1][101CH2:1]CCC=Cc3ccc([100NH:0][100C:0](=O)N4CCCC(n5nc(-c6ccc(Oc7ccc(F)cc7F)cc6)c(C(N)=O)c5N)C4)c(F)c3C)ccc2CC1C(=O)NC1CCCc2ccccc21)C(C)(C)C

> <Shape>
0.262

> <Color>
0.069

> <Negative vol penalty>
0.000

$$$$

  -OEChem-04052302003D

 86 94  0     1  0  0  0  0  0999 V2000
  -27.9081  -37.4641   23.5554 C   0  0  0  0  0  0  0  0  0  0  0  0
  -28.4370  -36.4747   22.7328 C   0  0  0  0  0  0  0  0  0  0  0  0
  -20.6698  -11.9975   18.6218 C   0  0  0  0  0  0  0  0  0  0  0  0
  -22.9415  -11.4343   18.0226 C   0  0  0  0  0  0  0  0  0  0  0  0
  -27.0258  -37.1202   24.5787 C   0  0  0  0  0  0  0  0  0  0  0  0
  -28.0848  -35.1405   22.9337 C   0  0  0  0  0  0  0  0  0  0  0  0
  -26.9907  -29.0506   19.3238 C   0  0  0  0  0  0  0  0  0  0  0  0
  -30.5665  -15.7753   20.7244 C   0  0  0  0  0  0  0  0  0  0  0  0
  -20.2636  -11.7551   17.3096 C   0  0  0  0  0  0  0  0  0  0  0  0
  -22.5353  -11.1918   16.7104 C   0  0  0  0  0  0  0  0  0  0  0  0
  -27.3861  -27.7136   19.3221 C   0  0  0  0  0  0  0  0  0  0  0  0
  -30.9933  -17.0984   20.8382 C   0  0  0  0  0  0  0  0  0  0  0  0
  -19.5644   -9.0723   15.3738 C   0  0  0  0  0  0  0  0  0  0  0  0
  -18.4018   -8.3259   15.1826 C   0  0  0  0  0  0  0  0  0  0  0  0
  -25.7916  -27.2461   21.0708 C   0  0  0  0  0  0  0  0  0  0  0  0
  -28.9077  -17.6788   21.9108 C   0  0  0  0  0  0  0  0  0  0  0  0
  -17.4002  -10.1861   14.0106 C   0  0  0  0  0  0  0  0  0  0  0  0
  -22.0088  -11.8372   18.9783 C   0  0  0  0  0  0  0  0  0  0  0  0
  -22.4794  -11.1625   21.3930 C   0  0  0  0  0  0  0  0  0  0  0  0
  -26.6550  -35.7823   24.7862 C   0  0  0  0  0  0  0  0  0  0  0  0
  -25.9988  -29.4983   20.2081 C   0  0  0  0  0  0  0  0  0  0  0  0
  -27.1977  -34.7783   23.9617 C   0  0  0  0  0  0  0  0  0  0  0  0
  -25.3836  -28.5887   21.0800 C   0  0  0  0  0  0  0  0  0  0  0  0
  -29.3103  -15.4040   21.2037 C   0  0  0  0  0  0  0  0  0  0  0  0
  -28.4810  -16.3557   21.7970 C   0  0  0  0  0  0  0  0  0  0  0  0
  -21.1963  -11.3522   16.3539 C   0  0  0  0  0  0  0  0  0  0  0  0
  -26.7886  -26.8117   20.1977 C   0  0  0  0  0  0  0  0  0  0  0  0
  -30.1639  -18.0501   21.4314 C   0  0  0  0  0  0  0  0  0  0  0  0
  -19.6450  -10.3757   14.8835 C   0  0  0  0  0  0  0  0  0  0  0  0
  -17.3197   -8.8827   14.5010 C   0  0  0  0  0  0  0  0  0  0  0  0
  -18.5629  -10.9326   14.2018 C   0  0  0  0  0  0  0  0  0  0  0  0
  -22.4291  -12.0880   20.3334 C   0  0  0  0  0  0  0  0  0  0  0  0
  -22.9425  -11.8896   22.4623 C   0  0  0  0  0  0  0  0  0  0  0  0
  -29.6767  -23.1959   19.8096 C   0  0  0  0  0  0  0  0  0  0  0  0
  -28.4796  -23.6720   19.4433 C   0  0  0  0  0  0  0  0  0  0  0  0
  -22.1380   -9.7701   21.4092 C   0  0  0  0  0  0  0  0  0  0  0  0
  -29.9023  -21.7300   19.9674 C   0  0  0  0  0  0  0  0  0  0  0  0
  -25.8992  -31.6036   22.5875 C   0  0  0  0  0  0  0  0  0  0  0  0
  -22.7279  -30.9232   22.5382 C   0  0  0  0  0  0  0  0  0  0  0  0
  -20.2498  -28.7194   21.7323 C   0  0  0  0  0  0  0  0  0  0  0  0
  -26.2687  -16.8340   22.9031 C   0  0  0  0  0  0  0  0  0  0  0  0
  -25.7348  -35.4538   25.9351 C   0  0  0  0  0  0  0  0  0  0  0  0
  -25.5647  -30.9381   20.1789 C   0  0  0  0  0  0  0  0  0  0  0  0
  -24.2996  -29.0147   22.0349 C   0  0  0  0  0  0  0  0  0  0  0  0
  -25.1206  -34.0592   25.8441 C   0  0  0  0  0  0  0  0  0  0  0  0
  -22.9972  -16.3440   24.2200 C   0  0  0  0  0  0  0  0  0  0  0  0
  -26.1890  -33.0269   25.4982 C   0  0  0  0  0  0  0  0  0  0  0  0
  -22.4871  -15.1091   23.4736 C   0  0  0  0  0  0  0  0  0  0  0  0
  -23.8526  -17.2362   23.3222 C   0  0  0  0  0  0  0  0  0  0  0  0
  -24.4508  -15.3182   21.8965 C   0  0  0  0  0  0  0  0  0  0  0  0
  -26.8204  -33.3227   24.1324 C   0  0  1  0  0  0  0  0  0  0  0  0
  -24.9073  -31.3905   21.4792 C   0  0  1  0  0  0  0  0  0  0  0  0
  -23.6379  -14.3559   22.7779 C   0  0  2  0  0  0  0  0  0  0  0  0
  -28.8795  -13.9796   21.0684 C   0  0  0  0  0  0  0  0  0  0  0  0
  -17.7602  -28.4263   21.8475 C   0  0  0  0  0  0  0  0  0  0  0  0
  -22.9405  -30.3107   25.5197 C   0  0  0  0  0  0  0  0  0  0  0  0
  -20.7319  -29.1416   25.3660 C   0  0  0  0  0  0  0  0  0  0  0  0
  -20.8888  -31.5790   24.8589 C   0  0  0  0  0  0  0  0  0  0  0  0
  -20.0185  -28.5373   18.7875 C   0  0  0  0  0  0  0  0  0  0  0  0
  -28.1945  -25.1295   19.2760 C   0  0  0  0  0  0  0  0  0  1  0  0
  -31.3080  -21.3291   20.3873 C   0  0  0  0  0  0  0  0  0  0  0  0
  -31.4739  -19.8241   20.5410 C   0  0  0  0  0  0  0  0  0  0  0  0
  -21.8417  -29.9078   23.2183 C   0  0  1  0  0  0  0  0  0  0  0  0
  -18.9308  -28.9087   21.0051 C   0  0  2  0  0  0  0  0  0  0  0  0
  -21.6225  -30.2268   24.7242 C   0  0  0  0  0  0  0  0  0  0  0  0
  -22.8283  -13.3098   20.6966 N   0  0  0  0  0  0  0  0  0  0  0  0
  -23.1338  -13.1571   21.9964 N   0  0  0  0  0  0  0  0  0  0  0  0
  -23.9143  -30.4343   21.9729 N   0  0  0  0  0  0  0  0  0  0  0  0
  -24.9246  -16.4556   22.7006 N   0  0  0  0  0  0  0  0  0  0  0  0
  -23.2007  -11.5619   23.7462 N   0  0  0  0  0  0  0  0  0  0  0  0
  -21.6784   -9.1810   20.2235 N   0  0  0  0  0  0  0  0  0  0  0  0
  -27.2016  -15.9982   22.2901 N   0  0  0  0  0  0  0  0  0  0  0  0
  -25.9387  -32.8994   23.0657 N   0  0  0  0  0  0  0  0  0  0  0  0
  -20.6124  -29.8491   22.4349 N   0  0  0  0  0  0  0  0  0  0  0  0
  -18.9323  -28.1483   19.7234 N   0  3  0  0  0  0  0  0  0  0  0  0
  -22.2220   -9.0729   22.4487 O   0  0  0  0  0  0  0  0  0  0  0  0
  -29.0060  -20.9144   19.7685 O   0  0  0  0  0  0  0  0  0  0  0  0
  -26.5774  -30.6617   22.9808 O   0  0  0  0  0  0  0  0  0  0  0  0
  -22.3771  -32.1052   22.5032 O   0  0  0  0  0  0  0  0  0  0  0  0
  -20.8923  -27.6727   21.6852 O   0  0  0  0  0  0  0  0  0  0  0  0
  -26.5710  -17.8106   23.5937 O   0  0  0  0  0  0  0  0  0  0  0  0
  -20.8002  -11.1153   15.0735 O   0  0  0  0  0  0  0  0  0  0  0  0
  -27.1731  -25.5063   20.1986 O   0  0  0  0  0  0  0  0  0  1  0  0
  -30.5836  -19.3498   21.5431 O   0  0  0  0  0  0  0  0  0  0  0  0
  -16.2038   -8.1652   14.3160 F   0  0  0  0  0  0  0  0  0  0  0  0
  -18.6348  -12.1838   13.7274 F   0  0  0  0  0  0  0  0  0  0  0  0
  1  2  1  0  0  0  0
  1  5  2  0  0  0  0
  2  6  2  0  0  0  0
  3  9  2  0  0  0  0
  3 18  1  0  0  0  0
  4 10  1  0  0  0  0
  4 18  2  0  0  0  0
  5 20  1  0  0  0  0
  6 22  1  0  0  0  0
  7 11  2  0  0  0  0
  7 21  1  0  0  0  0
  8 12  2  0  0  0  0
  8 24  1  0  0  0  0
  9 26  1  0  0  0  0
 10 26  2  0  0  0  0
 11 27  1  0  0  0  0
 12 28  1  0  0  0  0
 13 14  2  0  0  0  0
 13 29  1  0  0  0  0
 14 30  1  0  0  0  0
 15 23  1  0  0  0  0
 15 27  2  0  0  0  0
 16 25  1  0  0  0  0
 16 28  2  0  0  0  0
 17 30  2  0  0  0  0
 17 31  1  0  0  0  0
 18 32  1  0  0  0  0
 19 32  1  0  0  0  0
 19 33  2  0  0  0  0
 19 36  1  0  0  0  0
 20 22  2  0  0  0  0
 20 42  1  0  0  0  0
 21 23  2  0  0  0  0
 21 43  1  0  0  0  0
 22 51  1  0  0  0  0
 23 44  1  0  0  0  0
 24 25  2  0  0  0  0
 24 54  1  0  0  0  0
 25 72  1  0  0  0  0
 26 82  1  0  0  0  0
 27 83  1  0  0  0  0
 28 84  1  0  0  0  0
 29 31  2  0  0  0  0
 29 82  1  0  0  0  0
 30 85  1  0  0  0  0
 31 86  1  0  0  0  0
 32 66  2  0  0  0  0
 33 67  1  0  0  0  0
 33 70  1  0  0  0  0
 34 35  2  0  0  0  0
 34 37  1  0  0  0  0
 35 60  1  0  0  0  0
 36 71  1  0  0  0  0
 36 76  2  0  0  0  0
 37 61  1  0  0  0  0
 37 77  2  0  0  0  0
 38 52  1  0  0  0  0
 38 73  1  0  0  0  0
 38 78  2  0  0  0  0
 39 63  1  0  0  0  0
 39 68  1  0  0  0  0
 39 79  2  0  0  0  0
 40 64  1  0  0  0  0
 40 74  1  0  0  0  0
 40 80  2  0  0  0  0
 41 69  1  0  0  0  0
 41 72  1  0  0  0  0
 41 81  2  0  0  0  0
 42 45  1  0  0  0  0
 43 52  1  0  0  0  0
 44 68  1  0  0  0  0
 45 47  1  0  0  0  0
 46 48  1  0  0  0  0
 46 49  1  0  0  0  0
 47 51  1  0  0  0  0
 48 53  1  0  0  0  0
 49 69  1  0  0  0  0
 50 53  1  0  0  0  0
 50 69  1  0  0  0  0
 51 73  1  0  0  0  0
 52 68  1  0  0  0  0
 53 67  1  0  0  0  0
 55 64  1  0  0  0  0
 56 65  1  0  0  0  0
 57 65  1  0  0  0  0
 58 65  1  0  0  0  0
 59 75  1  0  0  0  0
 60 83  1  0  0  0  0
 61 62  1  0  0  0  0
 62 84  1  0  0  0  0
 63 65  1  0  0  0  0
 63 74  1  0  0  0  0
 64 75  1  0  0  0  0
 66 67  1  0  0  0  0
M  CHG  1  75   1
M  ISO  4  41 100  60 101  72 100  83 101
M  END
> <Batch ID>
0122

> <Smiles>
CNC(C)C(=O)NC(C(=O)N1Cc2cc([101O:1][101CH2:1]C=CC(=O)CCOc3ccc(C)c([100NH:0][100C:0](=O)N4CCCC(n5nc(-c6ccc(Oc7ccc(F)cc7F)cc6)c(C(N)=O)c5N)C4)c3)ccc2CC1C(=O)NC1CCCc2ccccc21)C(C)(C)C

> <Shape>
0.256

> <Color>
0.061

> <Negative vol penalty>
0.000

$$$$

  -OEChem-04052302003D

 85 93  0     1  0  0  0  0  0999 V2000
  -30.8162  -35.0947   15.1206 C   0  0  0  0  0  0  0  0  0  0  0  0
  -30.6308  -33.7180   15.1977 C   0  0  0  0  0  0  0  0  0  0  0  0
  -24.6713   -9.0703   21.8602 C   0  0  0  0  0  0  0  0  0  0  0  0
  -23.3191   -9.6978   19.9589 C   0  0  0  0  0  0  0  0  0  0  0  0
  -30.7255  -35.8747   16.2727 C   0  0  0  0  0  0  0  0  0  0  0  0
  -30.3557  -33.1204   16.4272 C   0  0  0  0  0  0  0  0  0  0  0  0
  -26.7519  -28.2736   17.4403 C   0  0  0  0  0  0  0  0  0  0  0  0
  -23.5780   -8.4089   22.4195 C   0  0  0  0  0  0  0  0  0  0  0  0
  -22.2258   -9.0363   20.5181 C   0  0  0  0  0  0  0  0  0  0  0  0
  -27.0302  -26.9198   17.6238 C   0  0  0  0  0  0  0  0  0  0  0  0
  -21.9780   -5.4579   22.0142 C   0  0  0  0  0  0  0  0  0  0  0  0
  -22.1932   -4.1881   22.5499 C   0  0  0  0  0  0  0  0  0  0  0  0
  -32.0796  -19.2144   20.6290 C   0  0  0  0  0  0  0  0  0  0  0  0
  -34.1955  -18.2131   20.0315 C   0  0  0  0  0  0  0  0  0  0  0  0
  -34.0378  -20.6023   20.3532 C   0  0  0  0  0  0  0  0  0  0  0  0
  -26.9677  -27.2371   20.0143 C   0  0  0  0  0  0  0  0  0  0  0  0
  -21.4566   -4.9755   24.7120 C   0  0  0  0  0  0  0  0  0  0  0  0
  -24.5418   -9.7148   20.6299 C   0  0  0  0  0  0  0  0  0  0  0  0
  -32.8375  -18.0842   20.3226 C   0  0  0  0  0  0  0  0  0  0  0  0
  -32.6797  -20.4735   20.6443 C   0  0  0  0  0  0  0  0  0  0  0  0
  -26.6390   -9.8584   19.1847 C   0  0  0  0  0  0  0  0  0  0  0  0
  -30.4396  -35.2876   17.5154 C   0  0  0  0  0  0  0  0  0  0  0  0
  -26.5899  -29.1229   18.5443 C   0  0  0  0  0  0  0  0  0  0  0  0
  -30.2624  -33.8932   17.5972 C   0  0  0  0  0  0  0  0  0  0  0  0
  -26.6849  -28.6007   19.8422 C   0  0  0  0  0  0  0  0  0  0  0  0
  -34.7957  -19.4721   20.0469 C   0  0  0  0  0  0  0  0  0  0  0  0
  -22.3552   -8.3919   21.7485 C   0  0  0  0  0  0  0  0  0  0  0  0
  -27.1410  -26.4020   18.9109 C   0  0  0  0  0  0  0  0  0  0  0  0
  -21.5021   -6.4865   22.8273 C   0  0  0  0  0  0  0  0  0  0  0  0
  -21.9324   -3.9469   23.8988 C   0  0  0  0  0  0  0  0  0  0  0  0
  -21.2414   -6.2453   24.1762 C   0  0  0  0  0  0  0  0  0  0  0  0
  -25.6707  -10.3987   20.0519 C   0  0  0  0  0  0  0  0  0  0  0  0
  -27.4892  -10.9053   18.9244 C   0  0  0  0  0  0  0  0  0  0  0  0
  -32.2118  -16.7711   20.3071 C   0  0  0  0  0  0  0  0  0  0  0  0
  -31.8799  -21.6665   20.9682 C   0  0  0  0  0  0  0  0  0  0  0  0
  -31.0524  -16.4488   20.9190 C   0  0  0  0  0  0  0  0  0  0  0  0
  -30.5420  -21.7453   20.8931 C   0  0  0  0  0  0  0  0  0  0  0  0
  -26.7592   -8.5291   18.6610 C   0  0  0  0  0  0  0  0  0  0  0  0
  -30.5396  -15.0689   20.8018 C   0  0  0  0  0  0  0  0  0  0  0  0
  -28.1057  -31.6939   19.6380 C   0  0  0  0  0  0  0  0  0  0  0  0
  -28.9619  -23.4710   20.0327 C   0  0  0  0  0  0  0  0  0  0  0  0
  -25.6708  -31.7379   21.7808 C   0  0  0  0  0  0  0  0  0  0  0  0
  -23.2411  -30.0098   23.4411 C   0  0  0  0  0  0  0  0  0  0  0  0
  -30.3982  -36.1657   18.7408 C   0  0  0  0  0  0  0  0  0  0  0  0
  -26.2636  -30.5754   18.3296 C   0  0  0  0  0  0  0  0  0  0  0  0
  -26.4995  -29.4663   21.0607 C   0  0  0  0  0  0  0  0  0  0  0  0
  -29.7326  -35.5020   19.9436 C   0  0  0  0  0  0  0  0  0  0  0  0
  -27.0665  -15.8319   19.9145 C   0  0  0  0  0  0  0  0  0  0  0  0
  -30.2589  -34.0823   20.1290 C   0  0  0  0  0  0  0  0  0  0  0  0
  -26.4657  -14.4303   19.8483 C   0  0  0  0  0  0  0  0  0  0  0  0
  -28.1476  -15.9403   20.9888 C   0  0  0  0  0  0  0  0  0  0  0  0
  -28.6253  -13.5171   20.7877 C   0  0  0  0  0  0  0  0  0  0  0  0
  -29.9378  -33.2112   18.9085 C   0  0  1  0  0  0  0  0  0  0  0  0
  -26.6271  -31.4523   19.5239 C   0  0  1  0  0  0  0  0  0  0  0  0
  -27.5683  -13.3727   19.6817 C   0  0  1  0  0  0  0  0  0  0  0  0
  -36.2479  -19.6101   19.7365 C   0  0  0  0  0  0  0  0  0  0  0  0
  -21.4339  -30.3085   25.1565 C   0  0  0  0  0  0  0  0  0  0  0  0
  -27.7786  -31.8069   23.9858 C   0  0  0  0  0  0  0  0  0  0  0  0
  -25.9947  -31.1512   25.6156 C   0  0  0  0  0  0  0  0  0  0  0  0
  -25.8150  -33.3065   24.3725 C   0  0  0  0  0  0  0  0  0  0  0  0
  -21.1318  -29.2011   21.5291 C   0  0  0  0  0  0  0  0  0  0  0  0
  -29.7708  -22.9855   21.2274 C   0  0  0  0  0  0  0  0  0  0  0  0
  -28.1394  -24.7234   20.2680 C   0  0  0  0  0  0  0  0  0  1  0  0
  -25.4339  -31.1307   23.1425 C   0  0  1  0  0  0  0  0  0  0  0  0
  -21.7714  -30.3104   23.6736 C   0  0  2  0  0  0  0  0  0  0  0  0
  -26.2610  -31.8326   24.2563 C   0  0  0  0  0  0  0  0  0  0  0  0
  -25.8850  -11.6886   20.3246 N   0  0  0  0  0  0  0  0  0  0  0  0
  -26.9978  -11.9675   19.6246 N   0  0  0  0  0  0  0  0  0  0  0  0
  -29.1590  -14.8827   20.8433 N   0  0  0  0  0  0  0  0  0  0  0  0
  -26.1882  -30.8812   20.7988 N   0  0  0  0  0  0  0  0  0  0  0  0
  -28.6018  -11.0115   18.1673 N   0  0  0  0  0  0  0  0  0  0  0  0
  -25.7997   -7.5764   19.0300 N   0  0  0  0  0  0  0  0  0  0  0  0
  -28.5515  -32.7964   18.9343 N   0  0  0  0  0  0  0  0  0  0  0  0
  -23.9915  -31.1636   23.3588 N   0  0  0  0  0  0  0  0  0  0  0  0
  -20.9208  -29.2908   22.9968 N   0  3  0  0  0  0  0  0  0  0  0  0
  -27.6992   -8.1917   17.9020 O   0  0  0  0  0  0  0  0  0  0  0  0
  -31.3666  -14.1635   20.6789 O   0  0  0  0  0  0  0  0  0  0  0  0
  -28.7911  -30.9370   20.3155 O   0  0  0  0  0  0  0  0  0  0  0  0
  -28.9768  -22.9052   18.9402 O   0  0  0  0  0  0  0  0  0  0  0  0
  -25.3998  -32.9266   21.5933 O   0  0  0  0  0  0  0  0  0  0  0  0
  -23.6801  -28.8658   23.3461 O   0  0  0  0  0  0  0  0  0  0  0  0
  -21.2882   -7.7464   22.2938 O   0  0  0  0  0  0  0  0  0  0  0  0
  -27.4133  -25.0811   19.0928 O   0  0  0  0  0  0  0  0  0  1  0  0
  -22.1377   -2.7271   24.4127 F   0  0  0  0  0  0  0  0  0  0  0  0
  -20.7830   -7.2292   24.9621 F   0  0  0  0  0  0  0  0  0  0  0  0
  1  2  1  0  0  0  0
  1  5  2  0  0  0  0
  2  6  2  0  0  0  0
  3  8  2  0  0  0  0
  3 18  1  0  0  0  0
  4  9  1  0  0  0  0
  4 18  2  0  0  0  0
  5 22  1  0  0  0  0
  6 24  1  0  0  0  0
  7 10  2  0  0  0  0
  7 23  1  0  0  0  0
  8 27  1  0  0  0  0
  9 27  2  0  0  0  0
 10 28  1  0  0  0  0
 11 12  2  0  0  0  0
 11 29  1  0  0  0  0
 12 30  1  0  0  0  0
 13 19  1  0  0  0  0
 13 20  2  0  0  0  0
 14 19  2  0  0  0  0
 14 26  1  0  0  0  0
 15 20  1  0  0  0  0
 15 26  2  0  0  0  0
 16 25  1  0  0  0  0
 16 28  2  0  0  0  0
 17 30  2  0  0  0  0
 17 31  1  0  0  0  0
 18 32  1  0  0  0  0
 19 34  1  0  0  0  0
 20 35  1  0  0  0  0
 21 32  1  0  0  0  0
 21 33  2  0  0  0  0
 21 38  1  0  0  0  0
 22 24  2  0  0  0  0
 22 44  1  0  0  0  0
 23 25  2  0  0  0  0
 23 45  1  0  0  0  0
 24 53  1  0  0  0  0
 25 46  1  0  0  0  0
 26 56  1  0  0  0  0
 27 82  1  0  0  0  0
 28 83  1  0  0  0  0
 29 31  2  0  0  0  0
 29 82  1  0  0  0  0
 30 84  1  0  0  0  0
 31 85  1  0  0  0  0
 32 67  2  0  0  0  0
 33 68  1  0  0  0  0
 33 71  1  0  0  0  0
 34 36  2  0  0  0  0
 35 37  2  0  0  0  0
 36 39  1  0  0  0  0
 37 62  1  0  0  0  0
 38 72  1  0  0  0  0
 38 76  2  0  0  0  0
 39 69  1  0  0  0  0
 39 77  2  0  0  0  0
 40 54  1  0  0  0  0
 40 73  1  0  0  0  0
 40 78  2  0  0  0  0
 41 62  1  0  0  0  0
 41 63  1  0  0  0  0
 41 79  2  0  0  0  0
 42 64  1  0  0  0  0
 42 70  1  0  0  0  0
 42 80  2  0  0  0  0
 43 65  1  0  0  0  0
 43 74  1  0  0  0  0
 43 81  2  0  0  0  0
 44 47  1  0  0  0  0
 45 54  1  0  0  0  0
 46 70  1  0  0  0  0
 47 49  1  0  0  0  0
 48 50  1  0  0  0  0
 48 51  1  0  0  0  0
 49 53  1  0  0  0  0
 50 55  1  0  0  0  0
 51 69  1  0  0  0  0
 52 55  1  0  0  0  0
 52 69  1  0  0  0  0
 53 73  1  0  0  0  0
 54 70  1  0  0  0  0
 55 68  1  0  0  0  0
 57 65  1  0  0  0  0
 58 66  1  0  0  0  0
 59 66  1  0  0  0  0
 60 66  1  0  0  0  0
 61 75  1  0  0  0  0
 63 83  1  0  0  0  0
 64 66  1  0  0  0  0
 64 74  1  0  0  0  0
 65 75  1  0  0  0  0
 67 68  1  0  0  0  0
M  CHG  1  75   1
M  ISO  4  36 100  39 100  63 101  83 101
M  END
> <Batch ID>
0122

> <Smiles>
CNC(C)C(=O)NC(C(=O)N1Cc2cc([101O:1][101CH2:1]C(=O)CC=Cc3cc(C)cc(C=[100CH:0][100C:0](=O)N4CCCC(n5nc(-c6ccc(Oc7ccc(F)cc7F)cc6)c(C(N)=O)c5N)C4)c3)ccc2CC1C(=O)NC1CCCc2ccccc21)C(C)(C)C

> <Shape>
0.271

> <Color>
0.132

> <Negative vol penalty>
0.000

$$$$

  -OEChem-04052302003D

 87 95  0     1  0  0  0  0  0999 V2000
  -22.5523  -35.6012   23.2859 C   0  0  0  0  0  0  0  0  0  0  0  0
  -23.6302  -34.8102   22.9013 C   0  0  0  0  0  0  0  0  0  0  0  0
  -25.9907  -14.2505   21.1888 C   0  0  0  0  0  0  0  0  0  0  0  0
  -26.4031  -12.5709   19.5019 C   0  0  0  0  0  0  0  0  0  0  0  0
  -21.4359  -35.0147   23.8806 C   0  0  0  0  0  0  0  0  0  0  0  0
  -23.5928  -33.4323   23.1121 C   0  0  0  0  0  0  0  0  0  0  0  0
  -26.0136  -29.0931   19.5321 C   0  0  0  0  0  0  0  0  0  0  0  0
  -24.7629  -13.6564   21.4803 C   0  0  0  0  0  0  0  0  0  0  0  0
  -25.1753  -11.9766   19.7935 C   0  0  0  0  0  0  0  0  0  0  0  0
  -27.2074  -28.3764   19.6035 C   0  0  0  0  0  0  0  0  0  0  0  0
  -23.9009   -9.9282   22.1600 C   0  0  0  0  0  0  0  0  0  0  0  0
  -23.8681   -8.5393   22.2842 C   0  0  0  0  0  0  0  0  0  0  0  0
  -28.1419  -21.6837   17.4879 C   0  0  0  0  0  0  0  0  0  0  0  0
  -26.0489  -26.5680   20.7021 C   0  0  0  0  0  0  0  0  0  0  0  0
  -27.1570  -19.9258   19.4172 C   0  0  0  0  0  0  0  0  0  0  0  0
  -22.2798   -8.4143   20.4679 C   0  0  0  0  0  0  0  0  0  0  0  0
  -26.8108  -13.7078   20.1995 C   0  0  0  0  0  0  0  0  0  0  0  0
  -27.3682  -20.5887   17.1035 C   0  0  0  0  0  0  0  0  0  0  0  0
  -28.4233  -21.8998   18.8369 C   0  0  0  0  0  0  0  0  0  0  0  0
  -29.3244  -14.0343   20.4876 C   0  0  0  0  0  0  0  0  0  0  0  0
  -21.3808  -33.6277   24.0901 C   0  0  0  0  0  0  0  0  0  0  0  0
  -24.8287  -28.5564   20.0559 C   0  0  0  0  0  0  0  0  0  0  0  0
  -22.4752  -32.8269   23.7114 C   0  0  0  0  0  0  0  0  0  0  0  0
  -24.8409  -27.2789   20.6338 C   0  0  0  0  0  0  0  0  0  0  0  0
  -26.8757  -19.7097   18.0682 C   0  0  0  0  0  0  0  0  0  0  0  0
  -24.3552  -12.5194   20.7827 C   0  0  0  0  0  0  0  0  0  0  0  0
  -27.2257  -27.1149   20.1911 C   0  0  0  0  0  0  0  0  0  0  0  0
  -23.1230  -10.5602   21.1897 C   0  0  0  0  0  0  0  0  0  0  0  0
  -23.0576   -7.7823   21.4382 C   0  0  0  0  0  0  0  0  0  0  0  0
  -27.9308  -21.0209   19.8016 C   0  0  0  0  0  0  0  0  0  0  0  0
  -22.3125   -9.8032   20.3437 C   0  0  0  0  0  0  0  0  0  0  0  0
  -28.0790  -14.3215   19.8975 C   0  0  0  0  0  0  0  0  0  0  0  0
  -30.2053  -14.8804   19.8594 C   0  0  0  0  0  0  0  0  0  0  0  0
  -27.9338  -20.7456   14.7222 C   0  0  0  0  0  0  0  0  0  0  0  0
  -27.0948  -20.3949   15.6844 C   0  0  0  0  0  0  0  0  0  0  0  0
  -29.2405  -23.0571   19.2377 C   0  0  0  0  0  0  0  0  0  0  0  0
  -29.3123  -24.2204   18.5720 C   0  0  0  0  0  0  0  0  0  0  0  0
  -29.6553  -13.0874   21.5121 C   0  0  0  0  0  0  0  0  0  0  0  0
  -22.8066  -29.4052   22.3568 C   0  0  0  0  0  0  0  0  0  0  0  0
  -21.0818  -26.9003   21.2287 C   0  0  0  0  0  0  0  0  0  0  0  0
  -21.0462  -23.9284   19.5513 C   0  0  0  0  0  0  0  0  0  0  0  0
  -26.5730  -17.5630   16.8484 C   0  0  0  0  0  0  0  0  0  0  0  0
  -20.1725  -33.0451   24.7796 C   0  0  0  0  0  0  0  0  0  0  0  0
  -23.5440  -29.3310   19.9471 C   0  0  0  0  0  0  0  0  0  0  0  0
  -23.5920  -26.6494   21.1927 C   0  0  0  0  0  0  0  0  0  0  0  0
  -20.0549  -31.5309   24.6264 C   0  0  0  0  0  0  0  0  0  0  0  0
  -29.4297  -15.8233   15.6512 C   0  0  0  0  0  0  0  0  0  0  0  0
  -21.3972  -30.8606   24.9018 C   0  0  0  0  0  0  0  0  0  0  0  0
  -30.5072  -16.0887   16.6993 C   0  0  0  0  0  0  0  0  0  0  0  0
  -28.5514  -17.0491   15.4430 C   0  0  0  0  0  0  0  0  0  0  0  0
  -28.9412  -17.8113   17.7710 C   0  0  0  0  0  0  0  0  0  0  0  0
  -22.4617  -31.3255   23.9008 C   0  0  1  0  0  0  0  0  0  0  0  0
  -22.4999  -28.9037   20.9740 C   0  0  1  0  0  0  0  0  0  0  0  0
  -29.9575  -16.6742   18.0116 C   0  0  1  0  0  0  0  0  0  0  0  0
  -22.2912  -18.5858   18.3717 C   0  0  0  0  0  0  0  0  0  0  0  0
  -19.4937  -22.0969   18.8213 C   0  0  0  0  0  0  0  0  0  0  0  0
  -21.0159  -25.8219   24.0822 C   0  0  0  0  0  0  0  0  0  0  0  0
  -20.3178  -23.6041   23.1538 C   0  0  0  0  0  0  0  0  0  0  0  0
  -18.8598  -25.6027   22.8341 C   0  0  0  0  0  0  0  0  0  0  0  0
  -21.6372  -24.4090   16.6915 C   0  0  0  0  0  0  0  0  0  0  0  0
  -30.1715  -25.3745   19.0109 C   0  0  0  0  0  0  0  0  0  0  0  0
  -23.6001  -18.8003   17.6245 C   0  0  0  0  0  0  0  0  0  0  0  0
  -24.8148  -18.3346   18.4185 C   0  0  0  0  0  0  0  0  0  0  0  0
  -29.3480  -26.6383   19.2295 C   0  0  0  0  0  0  0  0  0  1  0  0
  -21.0191  -25.4226   21.5314 C   0  0  1  0  0  0  0  0  0  0  0  0
  -20.1547  -23.4115   18.4367 C   0  0  2  0  0  0  0  0  0  0  0  0
  -20.3272  -25.1252   22.8917 C   0  0  0  0  0  0  0  0  0  0  0  0
  -28.1575  -15.2756   18.9660 N   0  0  0  0  0  0  0  0  0  0  0  0
  -29.4629  -15.5953   18.9661 N   0  0  0  0  0  0  0  0  0  0  0  0
  -22.3621  -27.4489   21.0682 N   0  0  0  0  0  0  0  0  0  0  0  0
  -27.9744  -17.5155   16.7029 N   0  0  0  0  0  0  0  0  0  0  0  0
  -31.5348  -15.0751   19.9894 N   0  0  0  0  0  0  0  0  0  0  0  0
  -28.6293  -12.2977   22.0487 N   0  0  0  0  0  0  0  0  0  0  0  0
  -22.2869  -30.6561   22.6297 N   0  0  0  0  0  0  0  0  0  0  0  0
  -20.3722  -24.7977   20.3828 N   0  0  0  0  0  0  0  0  0  0  0  0
  -26.0723  -18.5677   17.7021 N   0  0  0  0  0  0  0  0  0  0  0  0
  -20.9509  -23.1919   17.1962 N   0  3  0  0  0  0  0  0  0  0  0  0
  -30.8234  -12.9573   21.9505 O   0  0  0  0  0  0  0  0  0  0  0  0
  -23.4648  -28.7082   23.1201 O   0  0  0  0  0  0  0  0  0  0  0  0
  -20.0332  -27.5425   21.1308 O   0  0  0  0  0  0  0  0  0  0  0  0
  -22.2218  -23.5916   19.6744 O   0  0  0  0  0  0  0  0  0  0  0  0
  -25.8253  -16.7781   16.2531 O   0  0  0  0  0  0  0  0  0  0  0  0
  -23.1573  -11.9391   21.0671 O   0  0  0  0  0  0  0  0  0  0  0  0
  -28.3896  -26.4134   20.2627 O   0  0  0  0  0  0  0  0  0  1  0  0
  -23.0273   -6.4484   21.5566 F   0  0  0  0  0  0  0  0  0  0  0  0
  -28.1926  -21.2151   21.1024 F   0  0  0  0  0  0  0  0  0  0  0  0
  -21.5640  -10.4047   19.4090 F   0  0  0  0  0  0  0  0  0  0  0  0
  1  2  1  0  0  0  0
  1  5  2  0  0  0  0
  2  6  2  0  0  0  0
  3  8  2  0  0  0  0
  3 17  1  0  0  0  0
  4  9  1  0  0  0  0
  4 17  2  0  0  0  0
  5 21  1  0  0  0  0
  6 23  1  0  0  0  0
  7 10  2  0  0  0  0
  7 22  1  0  0  0  0
  8 26  1  0  0  0  0
  9 26  2  0  0  0  0
 10 27  1  0  0  0  0
 11 12  2  0  0  0  0
 11 28  1  0  0  0  0
 12 29  1  0  0  0  0
 13 18  1  0  0  0  0
 13 19  2  0  0  0  0
 14 24  1  0  0  0  0
 14 27  2  0  0  0  0
 15 25  1  0  0  0  0
 15 30  2  0  0  0  0
 16 29  2  0  0  0  0
 16 31  1  0  0  0  0
 17 32  1  0  0  0  0
 18 25  2  0  0  0  0
 18 35  1  0  0  0  0
 19 30  1  0  0  0  0
 19 36  1  0  0  0  0
 20 32  1  0  0  0  0
 20 33  2  0  0  0  0
 20 38  1  0  0  0  0
 21 23  2  0  0  0  0
 21 43  1  0  0  0  0
 22 24  2  0  0  0  0
 22 44  1  0  0  0  0
 23 52  1  0  0  0  0
 24 45  1  0  0  0  0
 25 76  1  0  0  0  0
 26 83  1  0  0  0  0
 27 84  1  0  0  0  0
 28 31  2  0  0  0  0
 28 83  1  0  0  0  0
 29 85  1  0  0  0  0
 30 86  1  0  0  0  0
 31 87  1  0  0  0  0
 32 68  2  0  0  0  0
 33 69  1  0  0  0  0
 33 72  1  0  0  0  0
 34 35  2  0  0  0  0
 36 37  2  0  0  0  0
 37 61  1  0  0  0  0
 38 73  1  0  0  0  0
 38 78  2  0  0  0  0
 39 53  1  0  0  0  0
 39 74  1  0  0  0  0
 39 79  2  0  0  0  0
 40 65  1  0  0  0  0
 40 70  1  0  0  0  0
 40 80  2  0  0  0  0
 41 66  1  0  0  0  0
 41 75  1  0  0  0  0
 41 81  2  0  0  0  0
 42 71  1  0  0  0  0
 42 76  1  0  0  0  0
 42 82  2  0  0  0  0
 43 46  1  0  0  0  0
 44 53  1  0  0  0  0
 45 70  1  0  0  0  0
 46 48  1  0  0  0  0
 47 49  1  0  0  0  0
 47 50  1  0  0  0  0
 48 52  1  0  0  0  0
 49 54  1  0  0  0  0
 50 71  1  0  0  0  0
 51 54  1  0  0  0  0
 51 71  1  0  0  0  0
 52 74  1  0  0  0  0
 53 70  1  0  0  0  0
 54 69  1  0  0  0  0
 55 62  1  0  0  0  0
 56 66  1  0  0  0  0
 57 67  1  0  0  0  0
 58 67  1  0  0  0  0
 59 67  1  0  0  0  0
 60 77  1  0  0  0  0
 61 64  1  0  0  0  0
 62 63  1  0  0  0  0
 63 76  1  0  0  0  0
 64 84  1  0  0  0  0
 65 67  1  0  0  0  0
 65 75  1  0  0  0  0
 66 77  1  0  0  0  0
 68 69  1  0  0  0  0
M  CHG  1  77   1
M  ISO  4  42 100  64 101  76 100  84 101
M  END
> <Batch ID>
0122

> <Smiles>
C=Cc1cc(C=CC[101CH2:1][101O:1]c2ccc3c(c2)CN(C(=O)C(NC(=O)C(C)NC)C(C)(C)C)C(C(=O)NC2CCCc4ccccc42)C3)c(F)cc1[100N:0](CCC)[100C:0](=O)N1CCCC(n2nc(-c3ccc(Oc4ccc(F)cc4F)cc3)c(C(N)=O)c2N)C1

> <Shape>
0.260

> <Color>
0.105

> <Negative vol penalty>
0.000

$$$$

  -OEChem-04052302003D

 85 94  0     1  0  0  0  0  0999 V2000
  -29.0118  -22.9880    9.7989 C   0  0  0  0  0  0  0  0  0  0  0  0
  -28.6949  -23.0894   11.1497 C   0  0  0  0  0  0  0  0  0  0  0  0
  -23.0687   -9.8821   19.9579 C   0  0  0  0  0  0  0  0  0  0  0  0
  -23.7604   -9.9488   22.2718 C   0  0  0  0  0  0  0  0  0  0  0  0
  -29.6982  -20.2835   22.5013 C   0  0  0  0  0  0  0  0  0  0  0  0
  -28.9332  -24.1132    8.9793 C   0  0  0  0  0  0  0  0  0  0  0  0
  -28.3002  -24.3163   11.6820 C   0  0  0  0  0  0  0  0  0  0  0  0
  -30.5202  -19.2044   22.8423 C   0  0  0  0  0  0  0  0  0  0  0  0
  -24.2800  -23.9069   14.7341 C   0  0  0  0  0  0  0  0  0  0  0  0
  -22.3193   -8.7341   20.2150 C   0  0  0  0  0  0  0  0  0  0  0  0
  -23.0110   -8.8008   22.5289 C   0  0  0  0  0  0  0  0  0  0  0  0
  -24.5059  -23.4282   16.0239 C   0  0  0  0  0  0  0  0  0  0  0  0
  -23.3226   -5.4664   22.0651 C   0  0  0  0  0  0  0  0  0  0  0  0
  -23.9179   -4.4609   22.8267 C   0  0  0  0  0  0  0  0  0  0  0  0
  -28.4947  -18.9262   20.8767 C   0  0  0  0  0  0  0  0  0  0  0  0
  -24.4509  -25.6882   16.8658 C   0  0  0  0  0  0  0  0  0  0  0  0
  -22.1665   -4.6742   24.4773 C   0  0  0  0  0  0  0  0  0  0  0  0
  -23.7894  -10.4894   20.9863 C   0  0  0  0  0  0  0  0  0  0  0  0
  -29.3183  -17.8765   21.2362 C   0  0  0  0  0  0  0  0  0  0  0  0
  -28.6938  -20.1451   21.5262 C   0  0  0  0  0  0  0  0  0  0  0  0
  -24.1313  -13.0114   20.8122 C   0  0  0  0  0  0  0  0  0  0  0  0
  -30.3159  -17.9988   22.1976 C   0  0  0  0  0  0  0  0  0  0  0  0
  -28.5281  -25.3524    9.4998 C   0  0  0  0  0  0  0  0  0  0  0  0
  -24.1485  -25.2830   14.4985 C   0  0  0  0  0  0  0  0  0  0  0  0
  -28.2174  -25.4594   10.8689 C   0  0  0  0  0  0  0  0  0  0  0  0
  -24.2208  -26.1816   15.5725 C   0  0  0  0  0  0  0  0  0  0  0  0
  -22.2904   -8.1935   21.5005 C   0  0  0  0  0  0  0  0  0  0  0  0
  -24.5943  -24.3191   17.0896 C   0  0  0  0  0  0  0  0  0  0  0  0
  -22.1493   -6.0759   22.5095 C   0  0  0  0  0  0  0  0  0  0  0  0
  -23.3399   -4.0648   24.0328 C   0  0  0  0  0  0  0  0  0  0  0  0
  -21.5712   -5.6798   23.7156 C   0  0  0  0  0  0  0  0  0  0  0  0
  -24.5642  -11.6749   20.7211 C   0  0  0  0  0  0  0  0  0  0  0  0
  -25.2327  -13.7536   20.4624 C   0  0  0  0  0  0  0  0  0  0  0  0
  -29.3384  -16.5047   20.7233 C   0  0  0  0  0  0  0  0  0  0  0  0
  -27.8549  -21.2860   21.1917 C   0  0  0  0  0  0  0  0  0  0  0  0
  -27.1394  -21.4206   20.0538 C   0  0  0  0  0  0  0  0  0  0  0  0
  -22.8483  -13.5350   21.1802 C   0  0  0  0  0  0  0  0  0  0  0  0
  -26.3155  -22.6384   19.8016 C   0  0  0  0  0  0  0  0  0  0  0  0
  -25.7594  -27.4317   12.7979 C   0  0  0  0  0  0  0  0  0  0  0  0
  -23.3237  -29.3831   13.6820 C   0  0  0  0  0  0  0  0  0  0  0  0
  -20.8264  -30.0761   15.9023 C   0  0  0  0  0  0  0  0  0  0  0  0
  -30.8132  -14.5078   21.2228 C   0  0  0  0  0  0  0  0  0  0  0  0
  -28.5038  -26.5511    8.5848 C   0  0  0  0  0  0  0  0  0  0  0  0
  -23.8784  -25.7814   13.1052 C   0  0  0  0  0  0  0  0  0  0  0  0
  -31.0444  -16.7130   22.3533 C   0  0  0  0  0  0  0  0  0  0  0  0
  -24.0663  -27.6668   15.3756 C   0  0  0  0  0  0  0  0  0  0  0  0
  -27.7162  -27.7313    9.1478 C   0  0  0  0  0  0  0  0  0  0  0  0
  -29.6419  -12.3906   18.4231 C   0  0  0  0  0  0  0  0  0  0  0  0
  -28.0971  -27.9815   10.6036 C   0  0  0  0  0  0  0  0  0  0  0  0
  -28.2054  -12.0650   18.8271 C   0  0  0  0  0  0  0  0  0  0  0  0
  -30.5307  -12.6333   19.6390 C   0  0  0  0  0  0  0  0  0  0  0  0
  -28.5703  -13.3582   20.9670 C   0  0  0  0  0  0  0  0  0  0  0  0
  -27.7613  -26.7674   11.4781 C   0  0  1  0  0  0  0  0  0  0  0  0
  -24.2728  -27.2415   12.9060 C   0  0  1  0  0  0  0  0  0  0  0  0
  -27.6429  -13.1505   19.7600 C   0  0  2  0  0  0  0  0  0  0  0  0
  -19.0286  -31.7598   16.3826 C   0  0  0  0  0  0  0  0  0  0  0  0
  -25.4283  -31.3274   14.7311 C   0  0  0  0  0  0  0  0  0  0  0  0
  -23.6174  -32.4867   16.0136 C   0  0  0  0  0  0  0  0  0  0  0  0
  -23.5228  -32.4053   13.5222 C   0  0  0  0  0  0  0  0  0  0  0  0
  -18.6915  -28.0428   15.6433 C   0  0  0  0  0  0  0  0  0  0  0  0
  -25.5651  -22.6573   18.4866 C   0  0  0  0  0  0  0  0  0  1  0  0
  -23.0611  -30.3035   14.8495 C   0  0  1  0  0  0  0  0  0  0  0  0
  -19.3688  -30.4464   15.6955 C   0  0  2  0  0  0  0  0  0  0  0  0
  -23.9123  -31.6030   14.7828 C   0  0  0  0  0  0  0  0  0  0  0  0
  -25.8410  -11.5711   20.3430 N   0  0  0  0  0  0  0  0  0  0  0  0
  -26.2198  -12.8518   20.1932 N   0  0  0  0  0  0  0  0  0  0  0  0
  -30.3120  -15.7983   21.4730 N   0  0  0  0  0  0  0  0  0  0  0  0
  -23.8099  -28.1055   13.9938 N   0  0  0  0  0  0  0  0  0  0  0  0
  -29.9524  -13.6283   20.5433 N   0  0  0  0  0  0  0  0  0  0  0  0
  -25.4435  -15.0833   20.3618 N   0  0  0  0  0  0  0  0  0  0  0  0
  -21.8280  -12.6326   21.5104 N   0  0  0  0  0  0  0  0  0  0  0  0
  -26.3430  -26.7263   11.7628 N   0  0  0  0  0  0  0  0  0  0  0  0
  -21.6206  -30.5333   14.8721 N   0  0  0  0  0  0  0  0  0  0  0  0
  -18.4811  -29.3839   16.2469 N   0  3  0  0  0  0  0  0  0  0  0  0
  -28.6280  -16.1271   19.8088 O   0  0  0  0  0  0  0  0  0  0  0  0
  -22.6088  -14.7662   21.1992 O   0  0  0  0  0  0  0  0  0  0  0  0
  -26.2520  -23.5618   20.6088 O   0  0  0  0  0  0  0  0  0  0  0  0
  -26.3341  -28.1652   13.5937 O   0  0  0  0  0  0  0  0  0  0  0  0
  -23.0989  -29.7806   12.5361 O   0  0  0  0  0  0  0  0  0  0  0  0
  -21.2214  -29.4475   16.8818 O   0  0  0  0  0  0  0  0  0  0  0  0
  -31.9660  -14.1957   21.5424 O   0  0  0  0  0  0  0  0  0  0  0  0
  -21.5590   -7.0735   21.7518 O   0  0  0  0  0  0  0  0  0  0  0  0
  -24.8176  -23.8499   18.3620 O   0  0  0  0  0  0  0  0  0  1  0  0
  -23.9109   -3.0981   24.7634 F   0  0  0  0  0  0  0  0  0  0  0  0
  -20.4434   -6.2608   24.1472 F   0  0  0  0  0  0  0  0  0  0  0  0
  1  2  1  0  0  0  0
  1  6  2  0  0  0  0
  2  7  2  0  0  0  0
  3 10  2  0  0  0  0
  3 18  1  0  0  0  0
  4 11  1  0  0  0  0
  4 18  2  0  0  0  0
  5  8  2  0  0  0  0
  5 20  1  0  0  0  0
  6 23  1  0  0  0  0
  7 25  1  0  0  0  0
  8 22  1  0  0  0  0
  9 12  2  0  0  0  0
  9 24  1  0  0  0  0
 10 27  1  0  0  0  0
 11 27  2  0  0  0  0
 12 28  1  0  0  0  0
 13 14  2  0  0  0  0
 13 29  1  0  0  0  0
 14 30  1  0  0  0  0
 15 19  1  0  0  0  0
 15 20  2  0  0  0  0
 16 26  1  0  0  0  0
 16 28  2  0  0  0  0
 17 30  2  0  0  0  0
 17 31  1  0  0  0  0
 18 32  1  0  0  0  0
 19 22  2  0  0  0  0
 19 34  1  0  0  0  0
 20 35  1  0  0  0  0
 21 32  1  0  0  0  0
 21 33  2  0  0  0  0
 21 37  1  0  0  0  0
 22 45  1  0  0  0  0
 23 25  2  0  0  0  0
 23 43  1  0  0  0  0
 24 26  2  0  0  0  0
 24 44  1  0  0  0  0
 25 53  1  0  0  0  0
 26 46  1  0  0  0  0
 27 82  1  0  0  0  0
 28 83  1  0  0  0  0
 29 31  2  0  0  0  0
 29 82  1  0  0  0  0
 30 84  1  0  0  0  0
 31 85  1  0  0  0  0
 32 65  2  0  0  0  0
 33 66  1  0  0  0  0
 33 70  1  0  0  0  0
 34 67  1  0  0  0  0
 34 75  2  0  0  0  0
 35 36  2  0  0  0  0
 36 38  1  0  0  0  0
 37 71  1  0  0  0  0
 37 76  2  0  0  0  0
 38 61  1  0  0  0  0
 38 77  2  0  0  0  0
 39 54  1  0  0  0  0
 39 72  1  0  0  0  0
 39 78  2  0  0  0  0
 40 62  1  0  0  0  0
 40 68  1  0  0  0  0
 40 79  2  0  0  0  0
 41 63  1  0  0  0  0
 41 73  1  0  0  0  0
 41 80  2  0  0  0  0
 42 67  1  0  0  0  0
 42 69  1  0  0  0  0
 42 81  2  0  0  0  0
 43 47  1  0  0  0  0
 44 54  1  0  0  0  0
 45 67  1  0  0  0  0
 46 68  1  0  0  0  0
 47 49  1  0  0  0  0
 48 50  1  0  0  0  0
 48 51  1  0  0  0  0
 49 53  1  0  0  0  0
 50 55  1  0  0  0  0
 51 69  1  0  0  0  0
 52 55  1  0  0  0  0
 52 69  1  0  0  0  0
 53 72  1  0  0  0  0
 54 68  1  0  0  0  0
 55 66  1  0  0  0  0
 56 63  1  0  0  0  0
 57 64  1  0  0  0  0
 58 64  1  0  0  0  0
 59 64  1  0  0  0  0
 60 74  1  0  0  0  0
 61 83  1  0  0  0  0
 62 64  1  0  0  0  0
 62 73  1  0  0  0  0
 63 74  1  0  0  0  0
 65 66  1  0  0  0  0
M  CHG  1  74   1
M  ISO  4  42 100  61 101  67 100  83 101
M  END
> <Batch ID>
0122

> <Smiles>
CNC(C)C(=O)NC(C(=O)N1Cc2cc([101O:1][101CH2:1]C(=O)C=Cc3ccc4c(c3)C(=O)[100N:0]([100C:0](=O)N3CCCC(n5nc(-c6ccc(Oc7ccc(F)cc7F)cc6)c(C(N)=O)c5N)C3)C4)ccc2CC1C(=O)NC1CCCc2ccccc21)C(C)(C)C

> <Shape>
0.204

> <Color>
0.177

> <Negative vol penalty>
0.000

$$$$

  -OEChem-04052302003D

 85 93  0     1  0  0  0  0  0999 V2000
  -21.8513  -11.9330   19.7167 C   0  0  0  0  0  0  0  0  0  0  0  0
  -21.6631  -13.2107   20.2339 C   0  0  0  0  0  0  0  0  0  0  0  0
  -17.9352  -29.3777   22.7149 C   0  0  0  0  0  0  0  0  0  0  0  0
  -30.5535  -26.7257   22.4987 C   0  0  0  0  0  0  0  0  0  0  0  0
  -29.6634  -27.3051   24.6687 C   0  0  0  0  0  0  0  0  0  0  0  0
  -17.5280  -28.0538   22.8789 C   0  0  0  0  0  0  0  0  0  0  0  0
  -23.1260  -11.3685   19.7031 C   0  0  0  0  0  0  0  0  0  0  0  0
  -22.7495  -13.9242   20.7390 C   0  0  0  0  0  0  0  0  0  0  0  0
  -22.7932  -18.7471   19.1955 C   0  0  0  0  0  0  0  0  0  0  0  0
  -19.2853  -29.6741   22.5276 C   0  0  0  0  0  0  0  0  0  0  0  0
  -31.8488  -26.7943   23.0116 C   0  0  0  0  0  0  0  0  0  0  0  0
  -30.9587  -27.3736   25.1817 C   0  0  0  0  0  0  0  0  0  0  0  0
  -21.9249  -19.6290   19.8374 C   0  0  0  0  0  0  0  0  0  0  0  0
  -34.0148  -27.3482   27.1508 C   0  0  0  0  0  0  0  0  0  0  0  0
  -34.2574  -26.7441   28.3844 C   0  0  0  0  0  0  0  0  0  0  0  0
  -23.7521  -20.4328   21.1918 C   0  0  0  0  0  0  0  0  0  0  0  0
  -33.5801  -24.6114   27.4733 C   0  0  0  0  0  0  0  0  0  0  0  0
  -29.4608  -26.9811   23.3272 C   0  0  0  0  0  0  0  0  0  0  0  0
  -18.4709  -27.0262   22.8558 C   0  0  0  0  0  0  0  0  0  0  0  0
  -27.2833  -25.7816   22.7553 C   0  0  0  0  0  0  0  0  0  0  0  0
  -24.2302  -12.0792   20.1994 C   0  0  0  0  0  0  0  0  0  0  0  0
  -24.1475  -18.6937   19.5550 C   0  0  0  0  0  0  0  0  0  0  0  0
  -24.0400  -13.3681   20.7333 C   0  0  0  0  0  0  0  0  0  0  0  0
  -24.6361  -19.5512   20.5511 C   0  0  0  0  0  0  0  0  0  0  0  0
  -19.8211  -27.3225   22.6686 C   0  0  0  0  0  0  0  0  0  0  0  0
  -20.2282  -28.6465   22.5045 C   0  0  0  0  0  0  0  0  0  0  0  0
  -32.0514  -27.1182   24.3532 C   0  0  0  0  0  0  0  0  0  0  0  0
  -22.4037  -20.4699   20.8377 C   0  0  0  0  0  0  0  0  0  0  0  0
  -33.5548  -26.5839   26.0784 C   0  0  0  0  0  0  0  0  0  0  0  0
  -34.0401  -25.3757   28.5457 C   0  0  0  0  0  0  0  0  0  0  0  0
  -33.3375  -25.2156   26.2397 C   0  0  0  0  0  0  0  0  0  0  0  0
  -28.1225  -26.9110   22.7978 C   0  0  0  0  0  0  0  0  0  0  0  0
  -26.1296  -26.2332   22.1624 C   0  0  0  0  0  0  0  0  0  0  0  0
  -18.0056  -25.6407   23.0323 C   0  0  0  0  0  0  0  0  0  0  0  0
  -17.6143  -24.8256   22.0404 C   0  0  0  0  0  0  0  0  0  0  0  0
  -27.5249  -24.4438   23.2110 C   0  0  0  0  0  0  0  0  0  0  0  0
  -26.0620  -16.4606   20.7600 C   0  0  0  0  0  0  0  0  0  0  0  0
  -28.3523  -18.6996   20.2462 C   0  0  0  0  0  0  0  0  0  0  0  0
  -29.1460  -21.9959   19.8570 C   0  0  0  0  0  0  0  0  0  0  0  0
  -22.1144  -30.0494   21.5986 C   0  0  0  0  0  0  0  0  0  0  0  0
  -25.5812  -11.4088   20.2069 C   0  0  0  0  0  0  0  0  0  0  0  0
  -25.0767  -17.7557   18.8344 C   0  0  0  0  0  0  0  0  0  0  0  0
  -26.0856  -19.5470   20.9600 C   0  0  0  0  0  0  0  0  0  0  0  0
  -26.7412  -12.3785   20.4178 C   0  0  0  0  0  0  0  0  0  0  0  0
  -25.1334  -30.5928   19.7910 C   0  0  0  0  0  0  0  0  0  0  0  0
  -26.4372  -13.3322   21.5689 C   0  0  0  0  0  0  0  0  0  0  0  0
  -26.1112  -29.5905   20.4086 C   0  0  0  0  0  0  0  0  0  0  0  0
  -24.1903  -31.1836   20.8376 C   0  0  0  0  0  0  0  0  0  0  0  0
  -24.4459  -29.1942   22.2679 C   0  0  0  0  0  0  0  0  0  0  0  0
  -25.1977  -14.1833   21.2675 C   0  0  1  0  0  0  0  0  0  0  0  0
  -26.3304  -17.4226   19.6374 C   0  0  1  0  0  0  0  0  0  0  0  0
  -25.3736  -28.5237   21.2415 C   0  0  2  0  0  0  0  0  0  0  0  0
  -21.2971  -25.8991   21.2258 C   0  0  0  0  0  0  0  0  0  0  0  0
  -31.1054  -23.5202   19.4900 C   0  0  0  0  0  0  0  0  0  0  0  0
  -29.1510  -18.3736   23.1729 C   0  0  0  0  0  0  0  0  0  0  0  0
  -30.4137  -20.5283   22.9959 C   0  0  0  0  0  0  0  0  0  0  0  0
  -31.0714  -18.5796   21.5842 C   0  0  0  0  0  0  0  0  0  0  0  0
  -28.0538  -22.9708   17.2850 C   0  0  0  0  0  0  0  0  0  0  0  0
  -20.8396  -26.2239   22.6427 C   0  0  0  0  0  0  0  0  0  0  0  0
  -17.1379  -23.4183   22.2664 C   0  0  0  0  0  0  0  0  0  0  0  0
  -17.9438  -22.3825   21.4762 C   0  0  0  0  0  0  0  0  0  0  0  0
  -19.4171  -22.3322   21.8834 C   0  0  0  0  0  0  0  0  0  0  0  0
  -20.1930  -21.3205   21.0509 C   0  0  0  0  0  0  0  0  0  1  0  0
  -28.9404  -19.8320   21.0528 C   0  0  1  0  0  0  0  0  0  0  0  0
  -30.0015  -22.7111   18.8270 C   0  0  2  0  0  0  0  0  0  0  0  0
  -29.8664  -19.3273   22.1953 C   0  0  0  0  0  0  0  0  0  0  0  0
  -27.5508  -27.9983   22.2735 N   0  0  0  0  0  0  0  0  0  0  0  0
  -26.3399  -27.5542   21.8959 N   0  0  0  0  0  0  0  0  0  0  0  0
  -26.9533  -18.6077   20.2303 N   0  0  0  0  0  0  0  0  0  0  0  0
  -23.5238  -30.1146   21.5844 N   0  0  0  0  0  0  0  0  0  0  0  0
  -24.9659  -25.6253   21.8482 N   0  0  0  0  0  0  0  0  0  0  0  0
  -28.7641  -24.1511   23.7967 N   0  0  0  0  0  0  0  0  0  0  0  0
  -21.5942  -28.9715   22.3143 N   0  0  0  0  0  0  0  0  0  0  0  0
  -25.5297  -15.2529   20.3508 N   0  0  0  0  0  0  0  0  0  0  0  0
  -29.5986  -20.7156   20.0965 N   0  0  0  0  0  0  0  0  0  0  0  0
  -29.1651  -23.6368   18.0118 N   0  3  0  0  0  0  0  0  0  0  0  0
  -26.6734  -23.5310   23.0873 O   0  0  0  0  0  0  0  0  0  0  0  0
  -26.3202  -16.7892   21.9120 O   0  0  0  0  0  0  0  0  0  0  0  0
  -29.1062  -17.9293   19.6462 O   0  0  0  0  0  0  0  0  0  0  0  0
  -28.1758  -22.5217   20.3980 O   0  0  0  0  0  0  0  0  0  0  0  0
  -21.4206  -30.8725   20.9960 O   0  0  0  0  0  0  0  0  0  0  0  0
  -33.3152  -27.1850   24.8541 O   0  0  0  0  0  0  0  0  0  0  0  0
  -21.5582  -21.3312   21.4664 O   0  0  0  0  0  0  0  0  0  1  0  0
  -34.2746  -24.7955   29.7299 F   0  0  0  0  0  0  0  0  0  0  0  0
  -32.8967  -24.4760   25.2127 F   0  0  0  0  0  0  0  0  0  0  0  0
  1  2  1  0  0  0  0
  1  7  2  0  0  0  0
  2  8  2  0  0  0  0
  3  6  1  0  0  0  0
  3 10  2  0  0  0  0
  4 11  2  0  0  0  0
  4 18  1  0  0  0  0
  5 12  1  0  0  0  0
  5 18  2  0  0  0  0
  6 19  2  0  0  0  0
  7 21  1  0  0  0  0
  8 23  1  0  0  0  0
  9 13  2  0  0  0  0
  9 22  1  0  0  0  0
 10 26  1  0  0  0  0
 11 27  1  0  0  0  0
 12 27  2  0  0  0  0
 13 28  1  0  0  0  0
 14 15  2  0  0  0  0
 14 29  1  0  0  0  0
 15 30  1  0  0  0  0
 16 24  1  0  0  0  0
 16 28  2  0  0  0  0
 17 30  2  0  0  0  0
 17 31  1  0  0  0  0
 18 32  1  0  0  0  0
 19 25  1  0  0  0  0
 19 34  1  0  0  0  0
 20 32  1  0  0  0  0
 20 33  2  0  0  0  0
 20 36  1  0  0  0  0
 21 23  2  0  0  0  0
 21 41  1  0  0  0  0
 22 24  2  0  0  0  0
 22 42  1  0  0  0  0
 23 50  1  0  0  0  0
 24 43  1  0  0  0  0
 25 26  2  0  0  0  0
 25 59  1  0  0  0  0
 26 73  1  0  0  0  0
 27 82  1  0  0  0  0
 28 83  1  0  0  0  0
 29 31  2  0  0  0  0
 29 82  1  0  0  0  0
 30 84  1  0  0  0  0
 31 85  1  0  0  0  0
 32 67  2  0  0  0  0
 33 68  1  0  0  0  0
 33 71  1  0  0  0  0
 34 35  2  0  0  0  0
 35 60  1  0  0  0  0
 36 72  1  0  0  0  0
 36 77  2  0  0  0  0
 37 51  1  0  0  0  0
 37 74  1  0  0  0  0
 37 78  2  0  0  0  0
 38 64  1  0  0  0  0
 38 69  1  0  0  0  0
 38 79  2  0  0  0  0
 39 65  1  0  0  0  0
 39 75  1  0  0  0  0
 39 80  2  0  0  0  0
 40 70  1  0  0  0  0
 40 73  1  0  0  0  0
 40 81  2  0  0  0  0
 41 44  1  0  0  0  0
 42 51  1  0  0  0  0
 43 69  1  0  0  0  0
 44 46  1  0  0  0  0
 45 47  1  0  0  0  0
 45 48  1  0  0  0  0
 46 50  1  0  0  0  0
 47 52  1  0  0  0  0
 48 70  1  0  0  0  0
 49 52  1  0  0  0  0
 49 70  1  0  0  0  0
 50 74  1  0  0  0  0
 51 69  1  0  0  0  0
 52 68  1  0  0  0  0
 53 59  1  0  0  0  0
 54 65  1  0  0  0  0
 55 66  1  0  0  0  0
 56 66  1  0  0  0  0
 57 66  1  0  0  0  0
 58 76  1  0  0  0  0
 60 61  1  0  0  0  0
 61 62  1  0  0  0  0
 62 63  1  0  0  0  0
 63 83  1  0  0  0  0
 64 66  1  0  0  0  0
 64 75  1  0  0  0  0
 65 76  1  0  0  0  0
 67 68  1  0  0  0  0
M  CHG  1  76   1
M  ISO  4  40 100  63 101  73 100  83 101
M  END
> <Batch ID>
0122

> <Smiles>
CCc1c(C=CCCC[101CH2:1][101O:1]c2ccc3c(c2)CN(C(=O)C(NC(=O)C(C)NC)C(C)(C)C)C(C(=O)NC2CCCc4ccccc42)C3)cccc1[100NH:0][100C:0](=O)N1CCCC(n2nc(-c3ccc(Oc4ccc(F)cc4F)cc3)c(C(N)=O)c2N)C1

> <Shape>
0.216

> <Color>
0.087

> <Negative vol penalty>
0.000

$$$$

  -OEChem-04052302003D

 85 93  0     1  0  0  0  0  0999 V2000
  -29.7970  -34.7986   19.8233 C   0  0  0  0  0  0  0  0  0  0  0  0
  -28.7304  -33.9553   19.5293 C   0  0  0  0  0  0  0  0  0  0  0  0
  -27.6546  -13.1979   18.6907 C   0  0  0  0  0  0  0  0  0  0  0  0
  -28.0858  -13.3351   21.0640 C   0  0  0  0  0  0  0  0  0  0  0  0
  -17.2426  -21.5179   18.5577 C   0  0  0  0  0  0  0  0  0  0  0  0
  -31.1001  -34.4028   19.5245 C   0  0  0  0  0  0  0  0  0  0  0  0
  -28.9661  -32.7159   18.9353 C   0  0  0  0  0  0  0  0  0  0  0  0
  -26.2974  -28.9900   21.0895 C   0  0  0  0  0  0  0  0  0  0  0  0
  -16.5638  -22.7360   18.5891 C   0  0  0  0  0  0  0  0  0  0  0  0
  -28.9436  -12.7064   18.4849 C   0  0  0  0  0  0  0  0  0  0  0  0
  -29.3749  -12.8437   20.8582 C   0  0  0  0  0  0  0  0  0  0  0  0
  -24.9500  -28.8907   20.7452 C   0  0  0  0  0  0  0  0  0  0  0  0
  -32.9012  -11.9652   20.9174 C   0  0  0  0  0  0  0  0  0  0  0  0
  -33.9509  -12.6009   21.5803 C   0  0  0  0  0  0  0  0  0  0  0  0
  -19.3036  -22.6521   19.1079 C   0  0  0  0  0  0  0  0  0  0  0  0
  -25.4819  -27.1158   19.2004 C   0  0  0  0  0  0  0  0  0  0  0  0
  -33.4062  -14.6702   20.4585 C   0  0  0  0  0  0  0  0  0  0  0  0
  -27.2256  -13.5123   19.9803 C   0  0  0  0  0  0  0  0  0  0  0  0
  -18.6125  -21.4759   18.8171 C   0  0  0  0  0  0  0  0  0  0  0  0
  -24.7295  -13.2723   20.4486 C   0  0  0  0  0  0  0  0  0  0  0  0
  -31.3527  -33.1539   18.9354 C   0  0  0  0  0  0  0  0  0  0  0  0
  -27.2502  -28.1591   20.4828 C   0  0  0  0  0  0  0  0  0  0  0  0
  -30.2737  -32.3036   18.6272 C   0  0  0  0  0  0  0  0  0  0  0  0
  -26.8403  -27.2049   19.5406 C   0  0  0  0  0  0  0  0  0  0  0  0
  -17.2549  -23.9122   18.8799 C   0  0  0  0  0  0  0  0  0  0  0  0
  -29.8038  -12.5293   19.5686 C   0  0  0  0  0  0  0  0  0  0  0  0
  -24.5425  -27.9555   19.7984 C   0  0  0  0  0  0  0  0  0  0  0  0
  -32.1039  -12.6819   20.0250 C   0  0  0  0  0  0  0  0  0  0  0  0
  -18.6249  -23.8703   19.1393 C   0  0  0  0  0  0  0  0  0  0  0  0
  -34.2034  -13.9534   21.3509 C   0  0  0  0  0  0  0  0  0  0  0  0
  -32.3564  -14.0344   19.7955 C   0  0  0  0  0  0  0  0  0  0  0  0
  -25.8943  -14.0205   20.1935 C   0  0  0  0  0  0  0  0  0  0  0  0
  -23.7375  -14.2138   20.5753 C   0  0  0  0  0  0  0  0  0  0  0  0
  -19.3204  -20.2060   18.7836 C   0  0  0  0  0  0  0  0  0  0  0  0
  -20.6540  -20.0561   18.6351 C   0  0  0  0  0  0  0  0  0  0  0  0
  -24.5594  -11.8531   20.5612 C   0  0  0  0  0  0  0  0  0  0  0  0
  -21.2265  -18.6949   18.6311 C   0  0  0  0  0  0  0  0  0  0  0  0
  -29.8039  -28.6386   18.6519 C   0  0  0  0  0  0  0  0  0  0  0  0
  -21.2970  -26.3972   19.4180 C   0  0  0  0  0  0  0  0  0  0  0  0
  -30.1968  -25.4418   19.0365 C   0  0  0  0  0  0  0  0  0  0  0  0
  -28.7851  -22.4108   19.7201 C   0  0  0  0  0  0  0  0  0  0  0  0
  -32.7743  -32.7896   18.5876 C   0  0  0  0  0  0  0  0  0  0  0  0
  -28.6961  -28.2605   20.8847 C   0  0  0  0  0  0  0  0  0  0  0  0
  -27.8210  -26.2755   18.8751 C   0  0  0  0  0  0  0  0  0  0  0  0
  -32.9695  -31.3029   18.3014 C   0  0  0  0  0  0  0  0  0  0  0  0
  -23.9780  -19.2337   20.9913 C   0  0  0  0  0  0  0  0  0  0  0  0
  -31.8773  -30.7912   17.3675 C   0  0  0  0  0  0  0  0  0  0  0  0
  -24.6532  -17.8649   20.9727 C   0  0  0  0  0  0  0  0  0  0  0  0
  -23.3943  -19.6019   19.6282 C   0  0  0  0  0  0  0  0  0  0  0  0
  -23.1402  -17.2031   19.0614 C   0  0  0  0  0  0  0  0  0  0  0  0
  -30.4910  -30.9410   18.0055 C   0  0  1  0  0  0  0  0  0  0  0  0
  -29.6501  -27.7147   19.8267 C   0  0  1  0  0  0  0  0  0  0  0  0
  -23.6934  -16.7918   20.4348 C   0  0  1  0  0  0  0  0  0  0  0  0
  -16.2346  -25.6834   20.3319 C   0  0  0  0  0  0  0  0  0  0  0  0
  -29.3523  -19.9749   19.9251 C   0  0  0  0  0  0  0  0  0  0  0  0
  -30.3238  -25.2180   15.9962 C   0  0  0  0  0  0  0  0  0  0  0  0
  -29.9333  -22.7562   16.2307 C   0  0  0  0  0  0  0  0  0  0  0  0
  -31.9767  -23.7926   17.2171 C   0  0  0  0  0  0  0  0  0  0  0  0
  -27.9489  -22.3358   22.5581 C   0  0  0  0  0  0  0  0  0  0  0  0
  -16.5124  -25.2072   18.9091 C   0  0  0  0  0  0  0  0  0  0  0  0
  -22.7568  -26.5729   19.0528 C   0  0  0  0  0  0  0  0  0  1  0  0
  -20.6810  -25.0622   19.0532 C   0  0  0  0  0  0  0  0  0  0  0  0
  -29.7298  -24.2107   18.2980 C   0  0  1  0  0  0  0  0  0  0  0  0
  -29.2003  -21.2959   20.6630 C   0  0  2  0  0  0  0  0  0  0  0  0
  -30.4724  -24.0131   16.9464 C   0  0  0  0  0  0  0  0  0  0  0  0
  -25.6651  -15.3359   20.1595 N   0  0  0  0  0  0  0  0  0  0  0  0
  -24.3448  -15.4216   20.3949 N   0  0  0  0  0  0  0  0  0  0  0  0
  -22.5262  -18.5348   19.1083 N   0  0  0  0  0  0  0  0  0  0  0  0
  -29.2243  -26.4176   19.2970 N   0  0  0  0  0  0  0  0  0  0  0  0
  -22.4138  -14.1180   20.8220 N   0  0  0  0  0  0  0  0  0  0  0  0
  -25.6834  -11.0309   20.4037 N   0  0  0  0  0  0  0  0  0  0  0  0
  -30.2689  -29.8971   18.9829 N   0  0  0  0  0  0  0  0  0  0  0  0
  -29.8757  -23.0966   19.2285 N   0  0  0  0  0  0  0  0  0  0  0  0
  -28.1824  -21.1199   21.7371 N   0  3  0  0  0  0  0  0  0  0  0  0
  -23.4407  -11.3287   20.7781 O   0  0  0  0  0  0  0  0  0  0  0  0
  -20.5196  -17.7820   18.2002 O   0  0  0  0  0  0  0  0  0  0  0  0
  -29.5230  -28.2389   17.5280 O   0  0  0  0  0  0  0  0  0  0  0  0
  -20.6520  -27.2840   19.9754 O   0  0  0  0  0  0  0  0  0  0  0  0
  -31.3793  -25.5309   19.3763 O   0  0  0  0  0  0  0  0  0  0  0  0
  -27.6110  -22.6471   19.4442 O   0  0  0  0  0  0  0  0  0  0  0  0
  -31.0617  -12.0496   19.3682 O   0  0  0  0  0  0  0  0  0  0  0  0
  -23.2281  -27.8568   19.4600 O   0  0  0  0  0  0  0  0  0  1  0  0
  -19.3205  -25.0203   19.4287 O   0  0  0  0  0  0  0  0  0  0  0  0
  -35.2105  -14.5642   21.9887 F   0  0  0  0  0  0  0  0  0  0  0  0
  -31.5932  -14.7285   18.9402 F   0  0  0  0  0  0  0  0  0  0  0  0
  1  2  1  0  0  0  0
  1  6  2  0  0  0  0
  2  7  2  0  0  0  0
  3 10  2  0  0  0  0
  3 18  1  0  0  0  0
  4 11  1  0  0  0  0
  4 18  2  0  0  0  0
  5  9  2  0  0  0  0
  5 19  1  0  0  0  0
  6 21  1  0  0  0  0
  7 23  1  0  0  0  0
  8 12  2  0  0  0  0
  8 22  1  0  0  0  0
  9 25  1  0  0  0  0
 10 26  1  0  0  0  0
 11 26  2  0  0  0  0
 12 27  1  0  0  0  0
 13 14  2  0  0  0  0
 13 28  1  0  0  0  0
 14 30  1  0  0  0  0
 15 19  2  0  0  0  0
 15 29  1  0  0  0  0
 16 24  1  0  0  0  0
 16 27  2  0  0  0  0
 17 30  2  0  0  0  0
 17 31  1  0  0  0  0
 18 32  1  0  0  0  0
 19 34  1  0  0  0  0
 20 32  1  0  0  0  0
 20 33  2  0  0  0  0
 20 36  1  0  0  0  0
 21 23  2  0  0  0  0
 21 42  1  0  0  0  0
 22 24  2  0  0  0  0
 22 43  1  0  0  0  0
 23 51  1  0  0  0  0
 24 44  1  0  0  0  0
 25 29  2  0  0  0  0
 25 60  1  0  0  0  0
 26 81  1  0  0  0  0
 27 82  1  0  0  0  0
 28 31  2  0  0  0  0
 28 81  1  0  0  0  0
 29 83  1  0  0  0  0
 30 84  1  0  0  0  0
 31 85  1  0  0  0  0
 32 66  2  0  0  0  0
 33 67  1  0  0  0  0
 33 70  1  0  0  0  0
 34 35  2  0  0  0  0
 35 37  1  0  0  0  0
 36 71  1  0  0  0  0
 36 75  2  0  0  0  0
 37 68  1  0  0  0  0
 37 76  2  0  0  0  0
 38 52  1  0  0  0  0
 38 72  1  0  0  0  0
 38 77  2  0  0  0  0
 39 61  1  0  0  0  0
 39 62  1  0  0  0  0
 39 78  2  0  0  0  0
 40 63  1  0  0  0  0
 40 69  1  0  0  0  0
 40 79  2  0  0  0  0
 41 64  1  0  0  0  0
 41 73  1  0  0  0  0
 41 80  2  0  0  0  0
 42 45  1  0  0  0  0
 43 52  1  0  0  0  0
 44 69  1  0  0  0  0
 45 47  1  0  0  0  0
 46 48  1  0  0  0  0
 46 49  1  0  0  0  0
 47 51  1  0  0  0  0
 48 53  1  0  0  0  0
 49 68  1  0  0  0  0
 50 53  1  0  0  0  0
 50 68  1  0  0  0  0
 51 72  1  0  0  0  0
 52 69  1  0  0  0  0
 53 67  1  0  0  0  0
 54 60  1  0  0  0  0
 55 64  1  0  0  0  0
 56 65  1  0  0  0  0
 57 65  1  0  0  0  0
 58 65  1  0  0  0  0
 59 74  1  0  0  0  0
 61 82  1  0  0  0  0
 62 83  1  0  0  0  0
 63 65  1  0  0  0  0
 63 73  1  0  0  0  0
 64 74  1  0  0  0  0
 66 67  1  0  0  0  0
M  CHG  1  74   1
M  ISO  4  35 100  37 100  61 101  82 101
M  END
> <Batch ID>
0122

> <Smiles>
CCc1ccc(C=[100CH:0][100C:0](=O)N2CCCC(n3nc(-c4ccc(Oc5ccc(F)cc5F)cc4)c(C(N)=O)c3N)C2)cc1OCC(=O)[101CH2:1][101O:1]c1ccc2c(c1)CN(C(=O)C(NC(=O)C(C)NC)C(C)(C)C)C(C(=O)NC1CCCc3ccccc31)C2

> <Shape>
0.223

> <Color>
0.079

> <Negative vol penalty>
0.000

$$$$

  -OEChem-04052302003D

 82 90  0     1  0  0  0  0  0999 V2000
  -25.3151  -35.5793   21.7398 C   0  0  0  0  0  0  0  0  0  0  0  0
  -25.9905  -34.3634   21.7099 C   0  0  0  0  0  0  0  0  0  0  0  0
  -25.7927  -11.8866   20.0416 C   0  0  0  0  0  0  0  0  0  0  0  0
  -23.7991  -12.6217   21.1914 C   0  0  0  0  0  0  0  0  0  0  0  0
  -24.0456  -35.6564   22.3112 C   0  0  0  0  0  0  0  0  0  0  0  0
  -25.3972  -33.2240   22.2523 C   0  0  0  0  0  0  0  0  0  0  0  0
  -25.8896  -29.1665   19.2625 C   0  0  0  0  0  0  0  0  0  0  0  0
  -25.6848  -10.6375   20.6530 C   0  0  0  0  0  0  0  0  0  0  0  0
  -23.6911  -11.3726   21.8027 C   0  0  0  0  0  0  0  0  0  0  0  0
  -27.1236  -28.5177   19.2678 C   0  0  0  0  0  0  0  0  0  0  0  0
  -22.6118   -8.2798   20.9723 C   0  0  0  0  0  0  0  0  0  0  0  0
  -21.3518   -7.6824   21.0044 C   0  0  0  0  0  0  0  0  0  0  0  0
  -32.8293  -22.3357   19.6136 C   0  0  0  0  0  0  0  0  0  0  0  0
  -33.1949  -23.5403   20.2603 C   0  0  0  0  0  0  0  0  0  0  0  0
  -26.2323  -26.8478   20.7632 C   0  0  0  0  0  0  0  0  0  0  0  0
  -21.4232   -7.6615   23.4192 C   0  0  0  0  0  0  0  0  0  0  0  0
  -24.8499  -12.8787   20.3108 C   0  0  0  0  0  0  0  0  0  0  0  0
  -24.3992  -14.5666   18.4519 C   0  0  0  0  0  0  0  0  0  0  0  0
  -23.4325  -34.5154   22.8523 C   0  0  0  0  0  0  0  0  0  0  0  0
  -24.8190  -28.6661   20.0174 C   0  0  0  0  0  0  0  0  0  0  0  0
  -24.1189  -33.2862   22.8327 C   0  0  0  0  0  0  0  0  0  0  0  0
  -24.9850  -27.4907   20.7637 C   0  0  0  0  0  0  0  0  0  0  0  0
  -24.6340  -10.3805   21.5335 C   0  0  0  0  0  0  0  0  0  0  0  0
  -27.2959  -27.3598   20.0205 C   0  0  0  0  0  0  0  0  0  0  0  0
  -23.2776   -8.5680   22.1637 C   0  0  0  0  0  0  0  0  0  0  0  0
  -20.7575   -7.3733   22.2278 C   0  0  0  0  0  0  0  0  0  0  0  0
  -22.6833   -8.2589   23.3871 C   0  0  0  0  0  0  0  0  0  0  0  0
  -24.9612  -14.1694   19.6800 C   0  0  0  0  0  0  0  0  0  0  0  0
  -31.8272  -21.7819   20.3758 C   0  0  0  0  0  0  0  0  0  0  0  0
  -32.3900  -23.6369   21.3715 C   0  0  0  0  0  0  0  0  0  0  0  0
  -24.7931  -15.8738   18.3009 C   0  0  0  0  0  0  0  0  0  0  0  0
  -31.1368  -20.5715   20.1357 C   0  0  0  0  0  0  0  0  0  0  0  0
  -30.1219  -20.0378   20.8928 C   0  0  0  0  0  0  0  0  0  0  0  0
  -23.5932  -13.8208   17.5301 C   0  0  0  0  0  0  0  0  0  0  0  0
  -29.4906  -18.7610   20.5033 C   0  0  0  0  0  0  0  0  0  0  0  0
  -23.0706  -29.7656   22.4336 C   0  0  0  0  0  0  0  0  0  0  0  0
  -30.3552  -25.9774   21.3947 C   0  0  0  0  0  0  0  0  0  0  0  0
  -21.3673  -27.0522   21.9249 C   0  0  0  0  0  0  0  0  0  0  0  0
  -21.2911  -23.8644   20.7088 C   0  0  0  0  0  0  0  0  0  0  0  0
  -22.0787  -34.6577   23.5017 C   0  0  0  0  0  0  0  0  0  0  0  0
  -23.4865  -29.3628   19.9798 C   0  0  0  0  0  0  0  0  0  0  0  0
  -23.8613  -26.9013   21.5751 C   0  0  0  0  0  0  0  0  0  0  0  0
  -21.3642  -33.3263   23.7186 C   0  0  0  0  0  0  0  0  0  0  0  0
  -25.9760  -19.7527   20.8129 C   0  0  0  0  0  0  0  0  0  0  0  0
  -22.3171  -32.3018   24.3262 C   0  0  0  0  0  0  0  0  0  0  0  0
  -25.2704  -18.4392   20.4863 C   0  0  0  0  0  0  0  0  0  0  0  0
  -27.2931  -19.5255   21.5533 C   0  0  0  0  0  0  0  0  0  0  0  0
  -27.5171  -17.2852   20.5182 C   0  0  0  0  0  0  0  0  0  0  0  0
  -23.4982  -32.0230   23.3887 C   0  0  1  0  0  0  0  0  0  0  0  0
  -22.6150  -29.0513   21.1926 C   0  0  1  0  0  0  0  0  0  0  0  0
  -26.2127  -17.4881   19.7316 C   0  0  1  0  0  0  0  0  0  0  0  0
  -19.7699  -21.8829   20.4704 C   0  0  0  0  0  0  0  0  0  0  0  0
  -21.7444  -26.4099   24.8838 C   0  0  0  0  0  0  0  0  0  0  0  0
  -21.0658  -24.0518   24.3868 C   0  0  0  0  0  0  0  0  0  0  0  0
  -19.4597  -25.9193   23.9927 C   0  0  0  0  0  0  0  0  0  0  0  0
  -21.4690  -23.9367   17.7555 C   0  0  0  0  0  0  0  0  0  0  0  0
  -32.2676  -24.6630   22.4724 C   0  0  0  0  0  0  0  0  0  0  0  0
  -30.8542  -25.2292   22.6223 C   0  0  0  0  0  0  0  0  0  0  0  0
  -28.8503  -26.0117   21.2132 C   0  0  0  0  0  0  0  0  0  1  0  0
  -21.4350  -25.6350   22.4405 C   0  0  1  0  0  0  0  0  0  0  0  0
  -20.2932  -23.1511   19.8144 C   0  0  2  0  0  0  0  0  0  0  0  0
  -20.9481  -25.5159   23.9123 C   0  0  0  0  0  0  0  0  0  0  0  0
  -25.6591  -15.1451   20.2673 N   0  0  0  0  0  0  0  0  0  0  0  0
  -25.5383  -16.1684   19.4046 N   0  0  0  0  0  0  0  0  0  0  0  0
  -28.1524  -18.5676   20.8415 N   0  0  0  0  0  0  0  0  0  0  0  0
  -22.5794  -27.6225   21.5111 N   0  0  0  0  0  0  0  0  0  0  0  0
  -24.5713  -16.7883   17.3331 N   0  0  0  0  0  0  0  0  0  0  0  0
  -23.2819  -12.4899   17.8399 N   0  0  0  0  0  0  0  0  0  0  0  0
  -23.0935  -31.1421   22.3141 N   0  0  0  0  0  0  0  0  0  0  0  0
  -20.6813  -24.8199   21.4940 N   0  0  0  0  0  0  0  0  0  0  0  0
  -20.9305  -22.7816   18.5189 N   0  3  0  0  0  0  0  0  0  0  0  0
  -23.1753  -14.3149   16.4555 O   0  0  0  0  0  0  0  0  0  0  0  0
  -30.1891  -17.9403   19.9055 O   0  0  0  0  0  0  0  0  0  0  0  0
  -23.3772  -29.1160   23.4264 O   0  0  0  0  0  0  0  0  0  0  0  0
  -31.1133  -26.5507   20.6142 O   0  0  0  0  0  0  0  0  0  0  0  0
  -20.2779  -27.6295   21.8840 O   0  0  0  0  0  0  0  0  0  0  0  0
  -22.4908  -23.5980   20.7133 O   0  0  0  0  0  0  0  0  0  0  0  0
  -31.5534  -22.5690   21.4492 O   0  0  0  0  0  0  0  0  0  0  0  0
  -24.5282   -9.1618   22.1301 O   0  0  0  0  0  0  0  0  0  0  0  0
  -28.4995  -26.7248   20.0280 O   0  0  0  0  0  0  0  0  0  1  0  0
  -19.5468   -6.8010   22.2585 F   0  0  0  0  0  0  0  0  0  0  0  0
  -23.3175   -8.5344   24.5350 F   0  0  0  0  0  0  0  0  0  0  0  0
  1  2  1  0  0  0  0
  1  5  2  0  0  0  0
  2  6  2  0  0  0  0
  3  8  2  0  0  0  0
  3 17  1  0  0  0  0
  4  9  1  0  0  0  0
  4 17  2  0  0  0  0
  5 19  1  0  0  0  0
  6 21  1  0  0  0  0
  7 10  2  0  0  0  0
  7 20  1  0  0  0  0
  8 23  1  0  0  0  0
  9 23  2  0  0  0  0
 10 24  1  0  0  0  0
 11 12  2  0  0  0  0
 11 25  1  0  0  0  0
 12 26  1  0  0  0  0
 13 14  1  0  0  0  0
 13 29  2  0  0  0  0
 14 30  2  0  0  0  0
 15 22  1  0  0  0  0
 15 24  2  0  0  0  0
 16 26  2  0  0  0  0
 16 27  1  0  0  0  0
 17 28  1  0  0  0  0
 18 28  1  0  0  0  0
 18 31  2  0  0  0  0
 18 34  1  0  0  0  0
 19 21  2  0  0  0  0
 19 40  1  0  0  0  0
 20 22  2  0  0  0  0
 20 41  1  0  0  0  0
 21 49  1  0  0  0  0
 22 42  1  0  0  0  0
 23 79  1  0  0  0  0
 24 80  1  0  0  0  0
 25 27  2  0  0  0  0
 25 79  1  0  0  0  0
 26 81  1  0  0  0  0
 27 82  1  0  0  0  0
 28 63  2  0  0  0  0
 29 32  1  0  0  0  0
 29 78  1  0  0  0  0
 30 57  1  0  0  0  0
 30 78  1  0  0  0  0
 31 64  1  0  0  0  0
 31 67  1  0  0  0  0
 32 33  2  0  0  0  0
 33 35  1  0  0  0  0
 34 68  1  0  0  0  0
 34 72  2  0  0  0  0
 35 65  1  0  0  0  0
 35 73  2  0  0  0  0
 36 50  1  0  0  0  0
 36 69  1  0  0  0  0
 36 74  2  0  0  0  0
 37 58  1  0  0  0  0
 37 59  1  0  0  0  0
 37 75  2  0  0  0  0
 38 60  1  0  0  0  0
 38 66  1  0  0  0  0
 38 76  2  0  0  0  0
 39 61  1  0  0  0  0
 39 70  1  0  0  0  0
 39 77  2  0  0  0  0
 40 43  1  0  0  0  0
 41 50  1  0  0  0  0
 42 66  1  0  0  0  0
 43 45  1  0  0  0  0
 44 46  1  0  0  0  0
 44 47  1  0  0  0  0
 45 49  1  0  0  0  0
 46 51  1  0  0  0  0
 47 65  1  0  0  0  0
 48 51  1  0  0  0  0
 48 65  1  0  0  0  0
 49 69  1  0  0  0  0
 50 66  1  0  0  0  0
 51 64  1  0  0  0  0
 52 61  1  0  0  0  0
 53 62  1  0  0  0  0
 54 62  1  0  0  0  0
 55 62  1  0  0  0  0
 56 71  1  0  0  0  0
 57 58  1  0  0  0  0
 59 80  1  0  0  0  0
 60 62  1  0  0  0  0
 60 70  1  0  0  0  0
 61 71  1  0  0  0  0
 63 64  1  0  0  0  0
M  CHG  1  71   1
M  ISO  4  33 100  35 100  59 101  80 101
M  END
> <Batch ID>
0122

> <Smiles>
CNC(C)C(=O)NC(C(=O)N1Cc2cc([101O:1][101CH2:1]C(=O)CCc3ccc(C=[100CH:0][100C:0](=O)N4CCCC(n5nc(-c6ccc(Oc7ccc(F)cc7F)cc6)c(C(N)=O)c5N)C4)o3)ccc2CC1C(=O)NC1CCCc2ccccc21)C(C)(C)C

> <Shape>
0.226

> <Color>
0.100

> <Negative vol penalty>
0.000

$$$$

  -OEChem-04052302003D

 84 92  0     1  0  0  0  0  0999 V2000
  -24.3114   -6.7454   24.4139 C   0  0  0  0  0  0  0  0  0  0  0  0
  -25.4910   -7.4089   24.0920 C   0  0  0  0  0  0  0  0  0  0  0  0
  -23.9395  -29.6094   20.6740 C   0  0  0  0  0  0  0  0  0  0  0  0
  -23.2471  -28.4778   22.6931 C   0  0  0  0  0  0  0  0  0  0  0  0
  -23.1579   -6.9732   23.6645 C   0  0  0  0  0  0  0  0  0  0  0  0
  -25.5182   -8.2998   23.0197 C   0  0  0  0  0  0  0  0  0  0  0  0
  -28.7911  -13.4592   22.6020 C   0  0  0  0  0  0  0  0  0  0  0  0
  -22.6357  -30.0667   20.4831 C   0  0  0  0  0  0  0  0  0  0  0  0
  -21.9432  -28.9351   22.5022 C   0  0  0  0  0  0  0  0  0  0  0  0
  -30.0054  -13.7521   21.9827 C   0  0  0  0  0  0  0  0  0  0  0  0
  -18.3567  -29.5053   22.3547 C   0  0  0  0  0  0  0  0  0  0  0  0
  -17.3169  -28.5928   22.5333 C   0  0  0  0  0  0  0  0  0  0  0  0
  -28.8158  -14.5651   20.0480 C   0  0  0  0  0  0  0  0  0  0  0  0
  -35.4970  -21.1293   18.6004 C   0  0  0  0  0  0  0  0  0  0  0  0
  -18.2300  -27.2085   20.7763 C   0  0  0  0  0  0  0  0  0  0  0  0
  -24.2452  -28.8149   21.7790 C   0  0  0  0  0  0  0  0  0  0  0  0
  -26.6222  -28.9831   22.6895 C   0  0  0  0  0  0  0  0  0  0  0  0
  -23.1685   -7.8747   22.5885 C   0  0  0  0  0  0  0  0  0  0  0  0
  -27.5782  -13.7073   21.9434 C   0  0  0  0  0  0  0  0  0  0  0  0
  -24.3641   -8.5389   22.2543 C   0  0  0  0  0  0  0  0  0  0  0  0
  -27.5875  -14.2768   20.6621 C   0  0  0  0  0  0  0  0  0  0  0  0
  -35.1420  -22.3768   19.1670 C   0  0  0  0  0  0  0  0  0  0  0  0
  -21.6375  -29.7296   21.3972 C   0  0  0  0  0  0  0  0  0  0  0  0
  -30.0180  -14.3025   20.7045 C   0  0  0  0  0  0  0  0  0  0  0  0
  -19.3331  -29.2694   21.3869 C   0  0  0  0  0  0  0  0  0  0  0  0
  -17.2536  -27.4444   21.7441 C   0  0  0  0  0  0  0  0  0  0  0  0
  -19.2698  -28.1210   20.5977 C   0  0  0  0  0  0  0  0  0  0  0  0
  -25.5918  -28.3417   21.9764 C   0  0  0  0  0  0  0  0  0  0  0  0
  -33.8078  -22.5580   18.8861 C   0  0  0  0  0  0  0  0  0  0  0  0
  -34.3543  -20.6370   18.0140 C   0  0  0  0  0  0  0  0  0  0  0  0
  -27.6953  -28.1326   22.5818 C   0  0  0  0  0  0  0  0  0  0  0  0
  -32.9881  -23.6543   19.2442 C   0  0  0  0  0  0  0  0  0  0  0  0
  -31.6505  -23.8053   18.9713 C   0  0  0  0  0  0  0  0  0  0  0  0
  -32.7028  -17.5146   18.2473 C   0  0  0  0  0  0  0  0  0  0  0  0
  -33.8563  -18.1898   18.1577 C   0  0  0  0  0  0  0  0  0  0  0  0
  -26.6105  -30.2357   23.3870 C   0  0  0  0  0  0  0  0  0  0  0  0
  -32.5677  -16.3525   19.1699 C   0  0  0  0  0  0  0  0  0  0  0  0
  -30.9274  -25.0107   19.4238 C   0  0  0  0  0  0  0  0  0  0  0  0
  -25.1541  -11.9057   20.9528 C   0  0  0  0  0  0  0  0  0  0  0  0
  -23.8183  -14.7761   20.2468 C   0  0  0  0  0  0  0  0  0  0  0  0
  -24.2674  -18.0784   19.5118 C   0  0  0  0  0  0  0  0  0  0  0  0
  -21.9090   -8.0527   21.7782 C   0  0  0  0  0  0  0  0  0  0  0  0
  -26.2763  -13.4105   22.6357 C   0  0  0  0  0  0  0  0  0  0  0  0
  -26.3124  -14.5812   19.9204 C   0  0  0  0  0  0  0  0  0  0  0  0
  -21.9260   -9.2946   20.8908 C   0  0  0  0  0  0  0  0  0  0  0  0
  -27.9958  -23.3857   20.9061 C   0  0  0  0  0  0  0  0  0  0  0  0
  -23.2501   -9.3964   20.1402 C   0  0  0  0  0  0  0  0  0  0  0  0
  -27.1722  -24.5981   21.3323 C   0  0  0  0  0  0  0  0  0  0  0  0
  -28.7771  -23.6490   19.6197 C   0  0  0  0  0  0  0  0  0  0  0  0
  -28.8147  -26.0776   20.1103 C   0  0  0  0  0  0  0  0  0  0  0  0
  -24.4271   -9.5315   21.1138 C   0  0  1  0  0  0  0  0  0  0  0  0
  -25.1124  -13.2272   21.6665 C   0  0  1  0  0  0  0  0  0  0  0  0
  -28.0572  -25.8510   21.4279 C   0  0  1  0  0  0  0  0  0  0  0  0
  -36.0394  -23.2856   19.9068 C   0  0  0  0  0  0  0  0  0  0  0  0
  -22.9886  -20.1623   18.9469 C   0  0  0  0  0  0  0  0  0  0  0  0
  -23.3670  -13.7292   17.4166 C   0  0  0  0  0  0  0  0  0  0  0  0
  -22.9888  -16.0913   16.6780 C   0  0  0  0  0  0  0  0  0  0  0  0
  -21.4633  -15.0516   18.3556 C   0  0  0  0  0  0  0  0  0  0  0  0
  -25.2791  -19.4882   21.9092 C   0  0  0  0  0  0  0  0  0  0  0  0
  -34.0490  -19.3721   17.2514 C   0  0  0  0  0  0  0  0  0  0  0  0
  -31.2123  -15.6777   19.1753 C   0  0  0  0  0  0  0  0  0  1  0  0
  -23.8128  -15.6853   19.0417 C   0  0  1  0  0  0  0  0  0  0  0  0
  -23.6078  -19.3310   20.0597 C   0  0  2  0  0  0  0  0  0  0  0  0
  -22.9322  -15.1319   17.8859 C   0  0  0  0  0  0  0  0  0  0  0  0
  -25.9757  -27.1739   21.4541 N   0  0  0  0  0  0  0  0  0  0  0  0
  -27.2594  -27.0748   21.8394 N   0  0  0  0  0  0  0  0  0  0  0  0
  -29.5703  -24.8837   19.7148 N   0  0  0  0  0  0  0  0  0  0  0  0
  -25.0652  -14.2673   20.6368 N   0  0  0  0  0  0  0  0  0  0  0  0
  -28.9597  -28.1938   23.0507 N   0  0  0  0  0  0  0  0  0  0  0  0
  -25.4249  -30.9831   23.3984 N   0  0  0  0  0  0  0  0  0  0  0  0
  -24.5091  -10.8837   21.6230 N   0  0  0  0  0  0  0  0  0  0  0  0
  -23.4071  -17.0008   19.5247 N   0  0  0  0  0  0  0  0  0  0  0  0
  -24.6084  -20.1731   20.7743 N   0  3  0  0  0  0  0  0  0  0  0  0
  -27.6262  -30.6869   23.9687 O   0  0  0  0  0  0  0  0  0  0  0  0
  -33.4965  -15.9705   19.8767 O   0  0  0  0  0  0  0  0  0  0  0  0
  -31.5690  -26.0591   19.5121 O   0  0  0  0  0  0  0  0  0  0  0  0
  -25.7276  -11.8198   19.8733 O   0  0  0  0  0  0  0  0  0  0  0  0
  -22.7564  -14.5323   20.8253 O   0  0  0  0  0  0  0  0  0  0  0  0
  -25.4283  -18.0587   19.1089 O   0  0  0  0  0  0  0  0  0  0  0  0
  -33.3201  -21.5019   18.1837 O   0  0  0  0  0  0  0  0  0  0  0  0
  -20.3652  -30.1758   21.2113 O   0  0  0  0  0  0  0  0  0  0  0  0
  -31.2019  -14.5888   20.0975 O   0  0  0  0  0  0  0  0  0  1  0  0
  -16.2559  -26.5675   21.9168 F   0  0  0  0  0  0  0  0  0  0  0  0
  -20.2056  -27.8884   19.6671 F   0  0  0  0  0  0  0  0  0  0  0  0
  1  2  1  0  0  0  0
  1  5  2  0  0  0  0
  2  6  2  0  0  0  0
  3  8  2  0  0  0  0
  3 16  1  0  0  0  0
  4  9  1  0  0  0  0
  4 16  2  0  0  0  0
  5 18  1  0  0  0  0
  6 20  1  0  0  0  0
  7 10  2  0  0  0  0
  7 19  1  0  0  0  0
  8 23  1  0  0  0  0
  9 23  2  0  0  0  0
 10 24  1  0  0  0  0
 11 12  2  0  0  0  0
 11 25  1  0  0  0  0
 12 26  1  0  0  0  0
 13 21  1  0  0  0  0
 13 24  2  0  0  0  0
 14 22  1  0  0  0  0
 14 30  2  0  0  0  0
 15 26  2  0  0  0  0
 15 27  1  0  0  0  0
 16 28  1  0  0  0  0
 17 28  1  0  0  0  0
 17 31  2  0  0  0  0
 17 36  1  0  0  0  0
 18 20  2  0  0  0  0
 18 42  1  0  0  0  0
 19 21  2  0  0  0  0
 19 43  1  0  0  0  0
 20 51  1  0  0  0  0
 21 44  1  0  0  0  0
 22 29  2  0  0  0  0
 22 54  1  0  0  0  0
 23 81  1  0  0  0  0
 24 82  1  0  0  0  0
 25 27  2  0  0  0  0
 25 81  1  0  0  0  0
 26 83  1  0  0  0  0
 27 84  1  0  0  0  0
 28 65  2  0  0  0  0
 29 32  1  0  0  0  0
 29 80  1  0  0  0  0
 30 60  1  0  0  0  0
 30 80  1  0  0  0  0
 31 66  1  0  0  0  0
 31 69  1  0  0  0  0
 32 33  2  0  0  0  0
 33 38  1  0  0  0  0
 34 35  2  0  0  0  0
 34 37  1  0  0  0  0
 35 60  1  0  0  0  0
 36 70  1  0  0  0  0
 36 74  2  0  0  0  0
 37 61  1  0  0  0  0
 37 75  2  0  0  0  0
 38 67  1  0  0  0  0
 38 76  2  0  0  0  0
 39 52  1  0  0  0  0
 39 71  1  0  0  0  0
 39 77  2  0  0  0  0
 40 62  1  0  0  0  0
 40 68  1  0  0  0  0
 40 78  2  0  0  0  0
 41 63  1  0  0  0  0
 41 72  1  0  0  0  0
 41 79  2  0  0  0  0
 42 45  1  0  0  0  0
 43 52  1  0  0  0  0
 44 68  1  0  0  0  0
 45 47  1  0  0  0  0
 46 48  1  0  0  0  0
 46 49  1  0  0  0  0
 47 51  1  0  0  0  0
 48 53  1  0  0  0  0
 49 67  1  0  0  0  0
 50 53  1  0  0  0  0
 50 67  1  0  0  0  0
 51 71  1  0  0  0  0
 52 68  1  0  0  0  0
 53 66  1  0  0  0  0
 55 63  1  0  0  0  0
 56 64  1  0  0  0  0
 57 64  1  0  0  0  0
 58 64  1  0  0  0  0
 59 73  1  0  0  0  0
 61 82  1  0  0  0  0
 62 64  1  0  0  0  0
 62 72  1  0  0  0  0
 63 73  1  0  0  0  0
 65 66  1  0  0  0  0
M  CHG  1  73   1
M  ISO  4  33 100  38 100  61 101  82 101
M  END
> <Batch ID>
0122

> <Smiles>
CNC(C)C(=O)NC(C(=O)N1Cc2cc([101O:1][101CH2:1]C(=O)CC=Cc3cc(C)c(C=[100CH:0][100C:0](=O)N4CCCC(n5nc(-c6ccc(Oc7ccc(F)cc7F)cc6)c(C(N)=O)c5N)C4)o3)ccc2CC1C(=O)NC1CCCc2ccccc21)C(C)(C)C

> <Shape>
0.235

> <Color>
0.065

> <Negative vol penalty>
0.000

$$$$

  -OEChem-04052302003D

 87 95  0     1  0  0  0  0  0999 V2000
  -30.8378  -12.9958   24.8756 C   0  0  0  0  0  0  0  0  0  0  0  0
  -30.7263  -14.0872   25.7296 C   0  0  0  0  0  0  0  0  0  0  0  0
  -22.9991   -9.8956   19.9856 C   0  0  0  0  0  0  0  0  0  0  0  0
  -23.7590   -9.9364   22.2787 C   0  0  0  0  0  0  0  0  0  0  0  0
  -29.7435  -12.1567   24.6767 C   0  0  0  0  0  0  0  0  0  0  0  0
  -29.5244  -14.3329   26.3943 C   0  0  0  0  0  0  0  0  0  0  0  0
  -29.5225  -17.9269   29.7539 C   0  0  0  0  0  0  0  0  0  0  0  0
  -22.2411   -8.7566   20.2571 C   0  0  0  0  0  0  0  0  0  0  0  0
  -23.0008   -8.7975   22.5501 C   0  0  0  0  0  0  0  0  0  0  0  0
  -29.5865  -19.2773   29.4130 C   0  0  0  0  0  0  0  0  0  0  0  0
  -23.2507   -5.4622   22.0556 C   0  0  0  0  0  0  0  0  0  0  0  0
  -23.8534   -4.4431   22.7930 C   0  0  0  0  0  0  0  0  0  0  0  0
  -30.1472  -22.5842   24.0541 C   0  0  0  0  0  0  0  0  0  0  0  0
  -30.3260  -20.2272   24.5534 C   0  0  0  0  0  0  0  0  0  0  0  0
  -27.2261  -19.4958   29.8602 C   0  0  0  0  0  0  0  0  0  0  0  0
  -22.1542   -4.6699   24.4955 C   0  0  0  0  0  0  0  0  0  0  0  0
  -23.7582  -10.4854   20.9964 C   0  0  0  0  0  0  0  0  0  0  0  0
  -29.8493  -21.4976   24.8764 C   0  0  0  0  0  0  0  0  0  0  0  0
  -24.1312  -13.0035   20.8289 C   0  0  0  0  0  0  0  0  0  0  0  0
  -28.5241  -12.4002   25.3300 C   0  0  0  0  0  0  0  0  0  0  0  0
  -28.3056  -17.3473   30.1406 C   0  0  0  0  0  0  0  0  0  0  0  0
  -28.4158  -13.4838   26.2253 C   0  0  0  0  0  0  0  0  0  0  0  0
  -27.1498  -18.1385   30.2079 C   0  0  0  0  0  0  0  0  0  0  0  0
  -30.9219  -22.4004   22.9087 C   0  0  0  0  0  0  0  0  0  0  0  0
  -31.3986  -21.1300   22.5857 C   0  0  0  0  0  0  0  0  0  0  0  0
  -22.2419   -8.2076   21.5393 C   0  0  0  0  0  0  0  0  0  0  0  0
  -28.4376  -20.0613   29.4634 C   0  0  0  0  0  0  0  0  0  0  0  0
  -22.0997   -6.0853   22.5382 C   0  0  0  0  0  0  0  0  0  0  0  0
  -31.1007  -20.0433   23.4080 C   0  0  0  0  0  0  0  0  0  0  0  0
  -23.3052   -4.0469   24.0129 C   0  0  0  0  0  0  0  0  0  0  0  0
  -21.5515   -5.6891   23.7581 C   0  0  0  0  0  0  0  0  0  0  0  0
  -24.5419  -11.6617   20.7165 C   0  0  0  0  0  0  0  0  0  0  0  0
  -25.2325  -13.7324   20.4518 C   0  0  0  0  0  0  0  0  0  0  0  0
  -27.2650  -24.3484   27.9378 C   0  0  0  0  0  0  0  0  0  0  0  0
  -29.0301  -21.6911   26.0862 C   0  0  0  0  0  0  0  0  0  0  0  0
  -28.5243  -22.8713   26.4826 C   0  0  0  0  0  0  0  0  0  0  0  0
  -22.8672  -13.5428   21.2376 C   0  0  0  0  0  0  0  0  0  0  0  0
  -27.7021  -23.1064   27.6664 C   0  0  0  0  0  0  0  0  0  0  0  0
  -26.4601  -15.0283   28.9916 C   0  0  0  0  0  0  0  0  0  0  0  0
  -30.7485  -14.6221   20.7207 C   0  0  0  0  0  0  0  0  0  0  0  0
  -24.7842  -15.5419   31.7210 C   0  0  0  0  0  0  0  0  0  0  0  0
  -23.9470  -17.6767   34.2485 C   0  0  0  0  0  0  0  0  0  0  0  0
  -27.3741  -11.4554   25.0845 C   0  0  0  0  0  0  0  0  0  0  0  0
  -28.2586  -15.8955   30.5309 C   0  0  0  0  0  0  0  0  0  0  0  0
  -25.8229  -17.5691   30.6362 C   0  0  0  0  0  0  0  0  0  0  0  0
  -26.0247  -12.0458   25.4804 C   0  0  0  0  0  0  0  0  0  0  0  0
  -29.5555  -12.2935   18.2724 C   0  0  0  0  0  0  0  0  0  0  0  0
  -26.1045  -12.6304   26.8827 C   0  0  0  0  0  0  0  0  0  0  0  0
  -28.1213  -12.0088   18.7166 C   0  0  0  0  0  0  0  0  0  0  0  0
  -30.4784  -12.5073   19.4680 C   0  0  0  0  0  0  0  0  0  0  0  0
  -28.5842  -13.2918   20.8531 C   0  0  0  0  0  0  0  0  0  0  0  0
  -27.1091  -13.7884   26.9353 C   0  0  1  0  0  0  0  0  0  0  0  0
  -26.8629  -15.2905   30.4152 C   0  0  1  0  0  0  0  0  0  0  0  0
  -27.6126  -13.1000   19.6751 C   0  0  2  0  0  0  0  0  0  0  0  0
  -31.2273  -23.5798   22.0445 C   0  0  0  0  0  0  0  0  0  0  0  0
  -32.2295  -20.9270   21.3591 C   0  0  0  0  0  0  0  0  0  0  0  0
  -22.5264  -17.8260   36.3118 C   0  0  0  0  0  0  0  0  0  0  0  0
  -22.3001  -15.8857   29.9829 C   0  0  0  0  0  0  0  0  0  0  0  0
  -21.1601  -16.9457   31.9437 C   0  0  0  0  0  0  0  0  0  0  0  0
  -21.9315  -14.5775   32.0822 C   0  0  0  0  0  0  0  0  0  0  0  0
  -26.3055  -18.1185   35.9810 C   0  0  0  0  0  0  0  0  0  0  0  0
  -27.3216  -21.9612   28.5684 C   0  0  0  0  0  0  0  0  0  1  0  0
  -30.1328  -15.6415   21.6457 C   0  0  0  0  0  0  0  0  0  0  0  0
  -31.1355  -16.7509   21.9271 C   0  0  0  0  0  0  0  0  0  0  0  0
  -30.5781  -17.7798   22.8993 C   0  0  0  0  0  0  0  0  0  0  0  0
  -23.6392  -16.4415   32.1192 C   0  0  1  0  0  0  0  0  0  0  0  0
  -23.8998  -17.4863   35.7538 C   0  0  2  0  0  0  0  0  0  0  0  0
  -22.2822  -15.9732   31.5220 C   0  0  0  0  0  0  0  0  0  0  0  0
  -25.8055  -11.5423   20.3004 N   0  0  0  0  0  0  0  0  0  0  0  0
  -26.1983  -12.8185   20.1480 N   0  0  0  0  0  0  0  0  0  0  0  0
  -25.8270  -16.1430   31.0020 N   0  0  0  0  0  0  0  0  0  0  0  0
  -29.9490  -13.5354   20.3658 N   0  0  0  0  0  0  0  0  0  0  0  0
  -25.4594  -15.0595   20.3538 N   0  0  0  0  0  0  0  0  0  0  0  0
  -21.8441  -12.6527   21.5917 N   0  0  0  0  0  0  0  0  0  0  0  0
  -27.3110  -14.1760   28.3140 N   0  0  0  0  0  0  0  0  0  0  0  0
  -23.6597  -16.5075   33.5765 N   0  0  0  0  0  0  0  0  0  0  0  0
  -24.9066  -18.3611   36.4185 N   0  3  0  0  0  0  0  0  0  0  0  0
  -22.6461  -14.7771   21.2717 O   0  0  0  0  0  0  0  0  0  0  0  0
  -25.4513  -15.5588   28.5416 O   0  0  0  0  0  0  0  0  0  0  0  0
  -31.9047  -14.7899   20.3240 O   0  0  0  0  0  0  0  0  0  0  0  0
  -24.7578  -14.3512   32.0425 O   0  0  0  0  0  0  0  0  0  0  0  0
  -24.2087  -18.7558   33.7215 O   0  0  0  0  0  0  0  0  0  0  0  0
  -21.5020   -7.0964   21.8046 O   0  0  0  0  0  0  0  0  0  0  0  0
  -28.4972  -21.3795   29.1306 O   0  0  0  0  0  0  0  0  0  1  0  0
  -31.5574  -18.7952   23.1081 O   0  0  0  0  0  0  0  0  0  0  0  0
  -23.8832   -3.0672   24.7201 F   0  0  0  0  0  0  0  0  0  0  0  0
  -20.4452   -6.2831   24.2263 F   0  0  0  0  0  0  0  0  0  0  0  0
  1  2  1  0  0  0  0
  1  5  2  0  0  0  0
  2  6  2  0  0  0  0
  3  8  2  0  0  0  0
  3 17  1  0  0  0  0
  4  9  1  0  0  0  0
  4 17  2  0  0  0  0
  5 20  1  0  0  0  0
  6 22  1  0  0  0  0
  7 10  2  0  0  0  0
  7 21  1  0  0  0  0
  8 26  1  0  0  0  0
  9 26  2  0  0  0  0
 10 27  1  0  0  0  0
 11 12  2  0  0  0  0
 11 28  1  0  0  0  0
 12 30  1  0  0  0  0
 13 18  1  0  0  0  0
 13 24  2  0  0  0  0
 14 18  2  0  0  0  0
 14 29  1  0  0  0  0
 15 23  1  0  0  0  0
 15 27  2  0  0  0  0
 16 30  2  0  0  0  0
 16 31  1  0  0  0  0
 17 32  1  0  0  0  0
 18 35  1  0  0  0  0
 19 32  1  0  0  0  0
 19 33  2  0  0  0  0
 19 37  1  0  0  0  0
 20 22  2  0  0  0  0
 20 43  1  0  0  0  0
 21 23  2  0  0  0  0
 21 44  1  0  0  0  0
 22 52  1  0  0  0  0
 23 45  1  0  0  0  0
 24 25  1  0  0  0  0
 24 55  1  0  0  0  0
 25 29  2  0  0  0  0
 25 56  1  0  0  0  0
 26 83  1  0  0  0  0
 27 84  1  0  0  0  0
 28 31  2  0  0  0  0
 28 83  1  0  0  0  0
 29 85  1  0  0  0  0
 30 86  1  0  0  0  0
 31 87  1  0  0  0  0
 32 69  2  0  0  0  0
 33 70  1  0  0  0  0
 33 73  1  0  0  0  0
 34 38  2  0  0  0  0
 35 36  2  0  0  0  0
 36 38  1  0  0  0  0
 37 74  1  0  0  0  0
 37 78  2  0  0  0  0
 38 62  1  0  0  0  0
 39 53  1  0  0  0  0
 39 75  1  0  0  0  0
 39 79  2  0  0  0  0
 40 63  1  0  0  0  0
 40 72  1  0  0  0  0
 40 80  2  0  0  0  0
 41 66  1  0  0  0  0
 41 71  1  0  0  0  0
 41 81  2  0  0  0  0
 42 67  1  0  0  0  0
 42 76  1  0  0  0  0
 42 82  2  0  0  0  0
 43 46  1  0  0  0  0
 44 53  1  0  0  0  0
 45 71  1  0  0  0  0
 46 48  1  0  0  0  0
 47 49  1  0  0  0  0
 47 50  1  0  0  0  0
 48 52  1  0  0  0  0
 49 54  1  0  0  0  0
 50 72  1  0  0  0  0
 51 54  1  0  0  0  0
 51 72  1  0  0  0  0
 52 75  1  0  0  0  0
 53 71  1  0  0  0  0
 54 70  1  0  0  0  0
 57 67  1  0  0  0  0
 58 68  1  0  0  0  0
 59 68  1  0  0  0  0
 60 68  1  0  0  0  0
 61 77  1  0  0  0  0
 62 84  1  0  0  0  0
 63 64  1  0  0  0  0
 64 65  1  0  0  0  0
 65 85  1  0  0  0  0
 66 68  1  0  0  0  0
 66 76  1  0  0  0  0
 67 77  1  0  0  0  0
 69 70  1  0  0  0  0
M  CHG  1  77   1
M  ISO  4  40 100  62 101  63 100  84 101
M  END
> <Batch ID>
0122

> <Smiles>
C=C(C=Cc1cc(C)c(C)c(OCC[100CH2:0][100C:0](=O)N2CCCC(n3nc(-c4ccc(Oc5ccc(F)cc5F)cc4)c(C(N)=O)c3N)C2)c1)[101CH2:1][101O:1]c1ccc2c(c1)CN(C(=O)C(NC(=O)C(C)NC)C(C)(C)C)C(C(=O)NC1CCCc3ccccc31)C2

> <Shape>
0.167

> <Color>
0.200

> <Negative vol penalty>
0.000

$$$$

  -OEChem-04052302003D

 87 95  0     1  0  0  0  0  0999 V2000
  -27.8094  -24.1286   16.9141 C   0  0  0  0  0  0  0  0  0  0  0  0
  -26.6044  -24.4638   17.5231 C   0  0  0  0  0  0  0  0  0  0  0  0
  -30.1953  -13.7585   19.6356 C   0  0  0  0  0  0  0  0  0  0  0  0
  -27.9475  -13.7678   18.7498 C   0  0  0  0  0  0  0  0  0  0  0  0
  -29.0150  -24.5246   17.4918 C   0  0  0  0  0  0  0  0  0  0  0  0
  -26.6042  -25.1944   18.7108 C   0  0  0  0  0  0  0  0  0  0  0  0
  -23.1902  -28.9346   18.6905 C   0  0  0  0  0  0  0  0  0  0  0  0
  -30.0480  -12.4189   19.9952 C   0  0  0  0  0  0  0  0  0  0  0  0
  -27.8003  -12.4281   19.1094 C   0  0  0  0  0  0  0  0  0  0  0  0
  -21.8597  -28.5835   18.9148 C   0  0  0  0  0  0  0  0  0  0  0  0
  -27.1663  -10.6582   21.9194 C   0  0  0  0  0  0  0  0  0  0  0  0
  -25.9793  -10.2827   22.5486 C   0  0  0  0  0  0  0  0  0  0  0  0
  -22.0683  -29.2852   21.2133 C   0  0  0  0  0  0  0  0  0  0  0  0
  -20.8054  -25.1604   23.6184 C   0  0  0  0  0  0  0  0  0  0  0  0
  -22.3250  -24.6235   21.8185 C   0  0  0  0  0  0  0  0  0  0  0  0
  -25.5150   -8.7373   20.7505 C   0  0  0  0  0  0  0  0  0  0  0  0
  -29.1450  -14.4330   19.0129 C   0  0  0  0  0  0  0  0  0  0  0  0
  -23.1301  -24.7066   24.0949 C   0  0  0  0  0  0  0  0  0  0  0  0
  -29.7798  -16.3213   17.4195 C   0  0  0  0  0  0  0  0  0  0  0  0
  -29.0294  -25.2688   18.6821 C   0  0  0  0  0  0  0  0  0  0  0  0
  -23.9742  -29.4544   19.7305 C   0  0  0  0  0  0  0  0  0  0  0  0
  -27.8112  -25.5997   19.3057 C   0  0  0  0  0  0  0  0  0  0  0  0
  -23.4077  -29.6445   20.9990 C   0  0  0  0  0  0  0  0  0  0  0  0
  -21.8487  -25.0368   24.5360 C   0  0  0  0  0  0  0  0  0  0  0  0
  -28.8506  -11.7537   19.7321 C   0  0  0  0  0  0  0  0  0  0  0  0
  -21.2994  -28.7560   20.1771 C   0  0  0  0  0  0  0  0  0  0  0  0
  -27.5275  -10.0732   20.7057 C   0  0  0  0  0  0  0  0  0  0  0  0
  -21.0436  -24.9537   22.2596 C   0  0  0  0  0  0  0  0  0  0  0  0
  -23.3683  -24.5000   22.7361 C   0  0  0  0  0  0  0  0  0  0  0  0
  -25.1537   -9.3223   21.9642 C   0  0  0  0  0  0  0  0  0  0  0  0
  -26.7019   -9.1128   20.1213 C   0  0  0  0  0  0  0  0  0  0  0  0
  -29.2963  -15.8169   18.6417 C   0  0  0  0  0  0  0  0  0  0  0  0
  -29.7268  -17.6859   17.5662 C   0  0  0  0  0  0  0  0  0  0  0  0
  -25.3073  -25.3374   25.0313 C   0  0  0  0  0  0  0  0  0  0  0  0
  -24.2255  -24.5758   25.0504 C   0  0  0  0  0  0  0  0  0  0  0  0
  -30.2360  -15.6191   16.2557 C   0  0  0  0  0  0  0  0  0  0  0  0
  -26.6201  -28.5233   21.2258 C   0  0  0  0  0  0  0  0  0  0  0  0
  -26.3096  -21.0999   21.0220 C   0  0  0  0  0  0  0  0  0  0  0  0
  -26.3578  -31.4176   22.6668 C   0  0  0  0  0  0  0  0  0  0  0  0
  -24.3529  -34.0130   23.6108 C   0  0  0  0  0  0  0  0  0  0  0  0
  -30.3586  -25.6337   19.2940 C   0  0  0  0  0  0  0  0  0  0  0  0
  -25.4001  -29.8532   19.4655 C   0  0  0  0  0  0  0  0  0  0  0  0
  -24.2009  -30.2177   22.1439 C   0  0  0  0  0  0  0  0  0  0  0  0
  -30.2612  -26.7275   20.3544 C   0  0  0  0  0  0  0  0  0  0  0  0
  -29.9439  -21.1143   20.8863 C   0  0  0  0  0  0  0  0  0  0  0  0
  -29.1143  -26.4370   21.3173 C   0  0  0  0  0  0  0  0  0  0  0  0
  -30.2296  -19.7777   20.2029 C   0  0  0  0  0  0  0  0  0  0  0  0
  -28.7273  -21.0269   21.8039 C   0  0  0  0  0  0  0  0  0  0  0  0
  -27.7765  -19.1948   20.4386 C   0  0  0  0  0  0  0  0  0  0  0  0
  -27.7691  -26.4125   20.5815 C   0  0  1  0  0  0  0  0  0  0  0  0
  -26.2540  -29.8933   20.7290 C   0  0  1  0  0  0  0  0  0  0  0  0
  -28.9782  -19.2487   19.4805 C   0  0  2  0  0  0  0  0  0  0  0  0
  -21.4271  -26.7483   26.3192 C   0  0  0  0  0  0  0  0  0  0  0  0
  -24.4177  -36.2186   24.8059 C   0  0  0  0  0  0  0  0  0  0  0  0
  -26.5187  -29.9601   25.3427 C   0  0  0  0  0  0  0  0  0  0  0  0
  -25.6395  -32.0297   26.4436 C   0  0  0  0  0  0  0  0  0  0  0  0
  -27.8214  -32.0924   25.2361 C   0  0  0  0  0  0  0  0  0  0  0  0
  -23.4432  -35.4754   21.2040 C   0  0  0  0  0  0  0  0  0  0  0  0
  -21.5535  -25.2659   25.9839 C   0  0  0  0  0  0  0  0  0  0  0  0
  -26.1547  -22.4101   21.7524 C   0  0  0  0  0  0  0  0  0  0  0  0
  -18.4108  -26.5991   20.4146 C   0  0  0  0  0  0  0  0  0  0  0  0
  -24.7396  -22.9347   21.5850 C   0  0  0  0  0  0  0  0  0  0  0  0
  -19.4686  -27.3453   19.6168 C   0  0  0  0  0  0  0  0  0  1  0  0
  -18.9814  -25.9899   21.6856 C   0  0  0  0  0  0  0  0  0  0  0  0
  -25.6748  -31.9351   23.9097 C   0  0  1  0  0  0  0  0  0  0  0  0
  -24.5124  -35.5152   23.4609 C   0  0  2  0  0  0  0  0  0  0  0  0
  -26.3989  -31.4917   25.2121 C   0  0  0  0  0  0  0  0  0  0  0  0
  -28.9610  -16.7825   19.5015 N   0  0  0  0  0  0  0  0  0  0  0  0
  -29.2343  -17.9073   18.8186 N   0  0  0  0  0  0  0  0  0  0  0  0
  -25.5927  -30.5864   21.8364 N   0  0  0  0  0  0  0  0  0  0  0  0
  -27.5641  -20.4928   21.0855 N   0  0  0  0  0  0  0  0  0  0  0  0
  -30.0539  -18.7060   16.7448 N   0  0  0  0  0  0  0  0  0  0  0  0
  -30.2240  -14.2177   16.2735 N   0  0  0  0  0  0  0  0  0  0  0  0
  -27.3176  -27.7602   20.3089 N   0  0  0  0  0  0  0  0  0  0  0  0
  -25.5709  -33.3811   23.7463 N   0  0  0  0  0  0  0  0  0  0  0  0
  -23.4515  -36.0623   22.5687 N   0  3  0  0  0  0  0  0  0  0  0  0
  -30.6576  -16.2165   15.2365 O   0  0  0  0  0  0  0  0  0  0  0  0
  -26.2953  -28.1843   22.3577 O   0  0  0  0  0  0  0  0  0  0  0  0
  -25.3443  -20.6332   20.4117 O   0  0  0  0  0  0  0  0  0  0  0  0
  -27.5249  -31.7447   22.4375 O   0  0  0  0  0  0  0  0  0  0  0  0
  -23.2572  -33.4562   23.6115 O   0  0  0  0  0  0  0  0  0  0  0  0
  -28.7066  -10.4464   20.0827 O   0  0  0  0  0  0  0  0  0  0  0  0
  -20.0012  -28.4135   20.3989 O   0  0  0  0  0  0  0  0  0  1  0  0
  -20.0178  -25.0741   21.3586 O   0  0  0  0  0  0  0  0  0  0  0  0
  -24.6101  -24.1753   22.2751 O   0  0  0  0  0  0  0  0  0  0  0  0
  -24.0147   -8.9608   22.5693 F   0  0  0  0  0  0  0  0  0  0  0  0
  -27.0443   -8.5464   18.9560 F   0  0  0  0  0  0  0  0  0  0  0  0
  1  2  1  0  0  0  0
  1  5  2  0  0  0  0
  2  6  2  0  0  0  0
  3  8  2  0  0  0  0
  3 17  1  0  0  0  0
  4  9  1  0  0  0  0
  4 17  2  0  0  0  0
  5 20  1  0  0  0  0
  6 22  1  0  0  0  0
  7 10  2  0  0  0  0
  7 21  1  0  0  0  0
  8 25  1  0  0  0  0
  9 25  2  0  0  0  0
 10 26  1  0  0  0  0
 11 12  2  0  0  0  0
 11 27  1  0  0  0  0
 12 30  1  0  0  0  0
 13 23  1  0  0  0  0
 13 26  2  0  0  0  0
 14 24  2  0  0  0  0
 14 28  1  0  0  0  0
 15 28  2  0  0  0  0
 15 29  1  0  0  0  0
 16 30  2  0  0  0  0
 16 31  1  0  0  0  0
 17 32  1  0  0  0  0
 18 24  1  0  0  0  0
 18 29  2  0  0  0  0
 18 35  1  0  0  0  0
 19 32  1  0  0  0  0
 19 33  2  0  0  0  0
 19 36  1  0  0  0  0
 20 22  2  0  0  0  0
 20 41  1  0  0  0  0
 21 23  2  0  0  0  0
 21 42  1  0  0  0  0
 22 50  1  0  0  0  0
 23 43  1  0  0  0  0
 24 59  1  0  0  0  0
 25 82  1  0  0  0  0
 26 83  1  0  0  0  0
 27 31  2  0  0  0  0
 27 82  1  0  0  0  0
 28 84  1  0  0  0  0
 29 85  1  0  0  0  0
 30 86  1  0  0  0  0
 31 87  1  0  0  0  0
 32 68  2  0  0  0  0
 33 69  1  0  0  0  0
 33 72  1  0  0  0  0
 34 35  2  0  0  0  0
 36 73  1  0  0  0  0
 36 77  2  0  0  0  0
 37 51  1  0  0  0  0
 37 74  1  0  0  0  0
 37 78  2  0  0  0  0
 38 60  1  0  0  0  0
 38 71  1  0  0  0  0
 38 79  2  0  0  0  0
 39 65  1  0  0  0  0
 39 70  1  0  0  0  0
 39 80  2  0  0  0  0
 40 66  1  0  0  0  0
 40 75  1  0  0  0  0
 40 81  2  0  0  0  0
 41 44  1  0  0  0  0
 42 51  1  0  0  0  0
 43 70  1  0  0  0  0
 44 46  1  0  0  0  0
 45 47  1  0  0  0  0
 45 48  1  0  0  0  0
 46 50  1  0  0  0  0
 47 52  1  0  0  0  0
 48 71  1  0  0  0  0
 49 52  1  0  0  0  0
 49 71  1  0  0  0  0
 50 74  1  0  0  0  0
 51 70  1  0  0  0  0
 52 69  1  0  0  0  0
 53 59  1  0  0  0  0
 54 66  1  0  0  0  0
 55 67  1  0  0  0  0
 56 67  1  0  0  0  0
 57 67  1  0  0  0  0
 58 76  1  0  0  0  0
 60 62  1  0  0  0  0
 61 63  1  0  0  0  0
 61 64  1  0  0  0  0
 62 85  1  0  0  0  0
 63 83  1  0  0  0  0
 64 84  1  0  0  0  0
 65 67  1  0  0  0  0
 65 75  1  0  0  0  0
 66 76  1  0  0  0  0
 68 69  1  0  0  0  0
M  CHG  1  76   1
M  ISO  4  38 100  60 100  63 101  83 101
M  END
> <Batch ID>
0122

> <Smiles>
C=Cc1c(CC)cc(OCC[101CH2:1][101O:1]c2ccc3c(c2)CN(C(=O)C(NC(=O)C(C)NC)C(C)(C)C)C(C(=O)NC2CCCc4ccccc42)C3)cc1OC[100CH2:0][100C:0](=O)N1CCCC(n2nc(-c3ccc(Oc4ccc(F)cc4F)cc3)c(C(N)=O)c2N)C1

> <Shape>
0.299

> <Color>
0.067

> <Negative vol penalty>
0.000

$$$$

  -OEChem-04052302003D

 83 91  0     1  0  0  0  0  0999 V2000
  -26.8463  -26.4905   35.3260 C   0  0  0  0  0  0  0  0  0  0  0  0
  -27.3584  -26.0012   34.1286 C   0  0  0  0  0  0  0  0  0  0  0  0
  -23.0630   -9.8058   19.9057 C   0  0  0  0  0  0  0  0  0  0  0  0
  -23.7766   -9.8294   22.2138 C   0  0  0  0  0  0  0  0  0  0  0  0
  -30.3050  -18.3544   24.1159 C   0  0  0  0  0  0  0  0  0  0  0  0
  -32.5066  -17.5186   23.5761 C   0  0  0  0  0  0  0  0  0  0  0  0
  -26.0851  -27.6585   35.3317 C   0  0  0  0  0  0  0  0  0  0  0  0
  -27.1086  -26.6791   32.9359 C   0  0  0  0  0  0  0  0  0  0  0  0
  -31.2466  -27.1246   30.0509 C   0  0  0  0  0  0  0  0  0  0  0  0
  -29.7426  -17.4629   23.2023 C   0  0  0  0  0  0  0  0  0  0  0  0
  -31.9442  -16.6270   22.6626 C   0  0  0  0  0  0  0  0  0  0  0  0
  -22.3231   -8.6481   20.1462 C   0  0  0  0  0  0  0  0  0  0  0  0
  -23.0366   -8.6718   22.4544 C   0  0  0  0  0  0  0  0  0  0  0  0
  -31.6387  -26.0024   29.3224 C   0  0  0  0  0  0  0  0  0  0  0  0
  -23.3639   -5.3495   21.9191 C   0  0  0  0  0  0  0  0  0  0  0  0
  -23.9727   -4.3324   22.6542 C   0  0  0  0  0  0  0  0  0  0  0  0
  -30.6125  -26.9332   27.3476 C   0  0  0  0  0  0  0  0  0  0  0  0
  -22.2360   -4.5009   24.3254 C   0  0  0  0  0  0  0  0  0  0  0  0
  -23.7898  -10.3964   20.9394 C   0  0  0  0  0  0  0  0  0  0  0  0
  -31.6871  -18.3822   24.3027 C   0  0  0  0  0  0  0  0  0  0  0  0
  -24.1148  -12.9235   20.8140 C   0  0  0  0  0  0  0  0  0  0  0  0
  -25.8339  -28.3564   34.1398 C   0  0  0  0  0  0  0  0  0  0  0  0
  -30.5238  -28.1563   29.4347 C   0  0  0  0  0  0  0  0  0  0  0  0
  -26.3421  -27.8569   32.9255 C   0  0  0  0  0  0  0  0  0  0  0  0
  -30.2146  -28.0686   28.0699 C   0  0  0  0  0  0  0  0  0  0  0  0
  -30.5622  -16.5992   22.4757 C   0  0  0  0  0  0  0  0  0  0  0  0
  -22.3098   -8.0811   21.4206 C   0  0  0  0  0  0  0  0  0  0  0  0
  -31.3192  -25.9052   27.9713 C   0  0  0  0  0  0  0  0  0  0  0  0
  -22.1913   -5.9424   22.3872 C   0  0  0  0  0  0  0  0  0  0  0  0
  -23.4087   -3.9080   23.8574 C   0  0  0  0  0  0  0  0  0  0  0  0
  -21.6273   -5.5181   23.5903 C   0  0  0  0  0  0  0  0  0  0  0  0
  -24.5549  -11.5920   20.6914 C   0  0  0  0  0  0  0  0  0  0  0  0
  -25.2083  -13.6797   20.4691 C   0  0  0  0  0  0  0  0  0  0  0  0
  -32.2821  -19.3232   25.2685 C   0  0  0  0  0  0  0  0  0  0  0  0
  -31.6723  -20.4299   25.7270 C   0  0  0  0  0  0  0  0  0  0  0  0
  -31.4690  -22.4603   27.0301 C   0  0  0  0  0  0  0  0  0  0  0  0
  -22.8323  -13.4315   21.2049 C   0  0  0  0  0  0  0  0  0  0  0  0
  -32.2261  -21.3998   26.6778 C   0  0  0  0  0  0  0  0  0  0  0  0
  -27.6403  -29.4297   29.8443 C   0  0  0  0  0  0  0  0  0  0  0  0
  -28.6869  -31.5460   27.6199 C   0  0  0  0  0  0  0  0  0  0  0  0
  -30.8024  -32.2149   25.0268 C   0  0  0  0  0  0  0  0  0  0  0  0
  -30.6617  -14.7682   20.7483 C   0  0  0  0  0  0  0  0  0  0  0  0
  -24.9659  -29.5888   34.1894 C   0  0  0  0  0  0  0  0  0  0  0  0
  -30.1314  -29.3724   30.2281 C   0  0  0  0  0  0  0  0  0  0  0  0
  -29.4580  -29.1582   27.3566 C   0  0  0  0  0  0  0  0  0  0  0  0
  -25.0614  -30.4520   32.9339 C   0  0  0  0  0  0  0  0  0  0  0  0
  -29.6136  -12.3347   18.3699 C   0  0  0  0  0  0  0  0  0  0  0  0
  -24.9607  -29.5864   31.6820 C   0  0  0  0  0  0  0  0  0  0  0  0
  -28.1678  -12.0341   18.7719 C   0  0  0  0  0  0  0  0  0  0  0  0
  -30.5026  -12.5762   19.5886 C   0  0  0  0  0  0  0  0  0  0  0  0
  -28.5628  -13.2925   20.9278 C   0  0  0  0  0  0  0  0  0  0  0  0
  -26.1136  -28.5775   31.6146 C   0  0  1  0  0  0  0  0  0  0  0  0
  -28.9525  -30.1269   29.6212 C   0  0  1  0  0  0  0  0  0  0  0  0
  -27.6152  -13.1062   19.7315 C   0  0  2  0  0  0  0  0  0  0  0  0
  -33.6135  -21.1435   27.2057 C   0  0  0  0  0  0  0  0  0  0  0  0
  -31.3980  -34.0169   23.3849 C   0  0  0  0  0  0  0  0  0  0  0  0
  -26.1721  -30.9100   26.0133 C   0  0  0  0  0  0  0  0  0  0  0  0
  -27.2607  -31.9679   24.0223 C   0  0  0  0  0  0  0  0  0  0  0  0
  -26.7963  -33.3313   26.0590 C   0  0  0  0  0  0  0  0  0  0  0  0
  -33.5768  -32.3848   26.0430 C   0  0  0  0  0  0  0  0  0  0  0  0
  -31.8058  -23.5773   27.9680 C   0  0  0  0  0  0  0  0  0  1  0  0
  -28.6534  -31.6166   26.1123 C   0  0  1  0  0  0  0  0  0  0  0  0
  -31.7032  -33.4033   24.7425 C   0  0  2  0  0  0  0  0  0  0  0  0
  -27.2332  -31.9349   25.5653 C   0  0  0  0  0  0  0  0  0  0  0  0
  -25.8286  -11.5039   20.2990 N   0  0  0  0  0  0  0  0  0  0  0  0
  -26.1982  -12.7897   20.1721 N   0  0  0  0  0  0  0  0  0  0  0  0
  -29.0909  -30.3243   28.1768 N   0  0  0  0  0  0  0  0  0  0  0  0
  -29.9182  -13.6068   20.4495 N   0  0  0  0  0  0  0  0  0  0  0  0
  -25.4100  -15.0124   20.3938 N   0  0  0  0  0  0  0  0  0  0  0  0
  -21.8207  -12.5162   21.5262 N   0  0  0  0  0  0  0  0  0  0  0  0
  -29.9910  -15.6921   21.5491 N   0  0  0  0  0  0  0  0  0  0  0  0
  -27.3295  -29.2282   31.1755 N   0  0  0  0  0  0  0  0  0  0  0  0
  -29.6734  -32.5856   25.7262 N   0  0  0  0  0  0  0  0  0  0  0  0
  -33.1334  -32.9846   24.7582 N   0  3  0  0  0  0  0  0  0  0  0  0
  -22.5855  -14.6605   21.2515 O   0  0  0  0  0  0  0  0  0  0  0  0
  -26.9595  -29.1003   28.8801 O   0  0  0  0  0  0  0  0  0  0  0  0
  -28.3734  -32.5404   28.2790 O   0  0  0  0  0  0  0  0  0  0  0  0
  -31.0714  -31.0727   24.6613 O   0  0  0  0  0  0  0  0  0  0  0  0
  -31.7987  -14.9434   20.3027 O   0  0  0  0  0  0  0  0  0  0  0  0
  -21.5877   -6.9516   21.6558 O   0  0  0  0  0  0  0  0  0  0  0  0
  -31.7002  -24.8107   27.2581 O   0  0  0  0  0  0  0  0  0  1  0  0
  -23.9926   -2.9302   24.5624 F   0  0  0  0  0  0  0  0  0  0  0  0
  -20.5002   -6.0831   24.0444 F   0  0  0  0  0  0  0  0  0  0  0  0
  1  2  1  0  0  0  0
  1  7  2  0  0  0  0
  2  8  2  0  0  0  0
  3 12  2  0  0  0  0
  3 19  1  0  0  0  0
  4 13  1  0  0  0  0
  4 19  2  0  0  0  0
  5 10  2  0  0  0  0
  5 20  1  0  0  0  0
  6 11  1  0  0  0  0
  6 20  2  0  0  0  0
  7 22  1  0  0  0  0
  8 24  1  0  0  0  0
  9 14  2  0  0  0  0
  9 23  1  0  0  0  0
 10 26  1  0  0  0  0
 11 26  2  0  0  0  0
 12 27  1  0  0  0  0
 13 27  2  0  0  0  0
 14 28  1  0  0  0  0
 15 16  2  0  0  0  0
 15 29  1  0  0  0  0
 16 30  1  0  0  0  0
 17 25  1  0  0  0  0
 17 28  2  0  0  0  0
 18 30  2  0  0  0  0
 18 31  1  0  0  0  0
 19 32  1  0  0  0  0
 20 34  1  0  0  0  0
 21 32  1  0  0  0  0
 21 33  2  0  0  0  0
 21 37  1  0  0  0  0
 22 24  2  0  0  0  0
 22 43  1  0  0  0  0
 23 25  2  0  0  0  0
 23 44  1  0  0  0  0
 24 52  1  0  0  0  0
 25 45  1  0  0  0  0
 26 71  1  0  0  0  0
 27 80  1  0  0  0  0
 28 81  1  0  0  0  0
 29 31  2  0  0  0  0
 29 80  1  0  0  0  0
 30 82  1  0  0  0  0
 31 83  1  0  0  0  0
 32 65  2  0  0  0  0
 33 66  1  0  0  0  0
 33 69  1  0  0  0  0
 34 35  2  0  0  0  0
 35 38  1  0  0  0  0
 36 38  2  0  0  0  0
 36 61  1  0  0  0  0
 37 70  1  0  0  0  0
 37 75  2  0  0  0  0
 38 55  1  0  0  0  0
 39 53  1  0  0  0  0
 39 72  1  0  0  0  0
 39 76  2  0  0  0  0
 40 62  1  0  0  0  0
 40 67  1  0  0  0  0
 40 77  2  0  0  0  0
 41 63  1  0  0  0  0
 41 73  1  0  0  0  0
 41 78  2  0  0  0  0
 42 68  1  0  0  0  0
 42 71  1  0  0  0  0
 42 79  2  0  0  0  0
 43 46  1  0  0  0  0
 44 53  1  0  0  0  0
 45 67  1  0  0  0  0
 46 48  1  0  0  0  0
 47 49  1  0  0  0  0
 47 50  1  0  0  0  0
 48 52  1  0  0  0  0
 49 54  1  0  0  0  0
 50 68  1  0  0  0  0
 51 54  1  0  0  0  0
 51 68  1  0  0  0  0
 52 72  1  0  0  0  0
 53 67  1  0  0  0  0
 54 66  1  0  0  0  0
 56 63  1  0  0  0  0
 57 64  1  0  0  0  0
 58 64  1  0  0  0  0
 59 64  1  0  0  0  0
 60 74  1  0  0  0  0
 61 81  1  0  0  0  0
 62 64  1  0  0  0  0
 62 73  1  0  0  0  0
 63 74  1  0  0  0  0
 65 66  1  0  0  0  0
M  CHG  1  74   1
M  ISO  4  42 100  61 101  71 100  81 101
M  END
> <Batch ID>
0122

> <Smiles>
CNC(C)C(=O)NC(C(=O)N1Cc2cc([101O:1][101CH2:1]C=C(C)C=Cc3ccc([100NH:0][100C:0](=O)N4CCCC(n5nc(-c6ccc(Oc7ccc(F)cc7F)cc6)c(C(N)=O)c5N)C4)cc3)ccc2CC1C(=O)NC1CCCc2ccccc21)C(C)(C)C

> <Shape>
0.209

> <Color>
0.216

> <Negative vol penalty>
0.000

$$$$

  -OEChem-04052302003D

 83 91  0     1  0  0  0  0  0999 V2000
  -26.4047  -37.8014   21.7549 C   0  0  0  0  0  0  0  0  0  0  0  0
  -26.9971  -36.7989   20.9937 C   0  0  0  0  0  0  0  0  0  0  0  0
  -23.9095   -9.2982   20.3597 C   0  0  0  0  0  0  0  0  0  0  0  0
  -22.8626  -11.2410   21.3428 C   0  0  0  0  0  0  0  0  0  0  0  0
  -25.7683  -37.4810   22.9534 C   0  0  0  0  0  0  0  0  0  0  0  0
  -26.9544  -35.4755   21.4310 C   0  0  0  0  0  0  0  0  0  0  0  0
  -26.5989  -28.7753   18.9217 C   0  0  0  0  0  0  0  0  0  0  0  0
  -22.9585   -8.4783   20.9671 C   0  0  0  0  0  0  0  0  0  0  0  0
  -21.9115  -10.4211   21.9502 C   0  0  0  0  0  0  0  0  0  0  0  0
  -27.2514  -27.5481   19.0313 C   0  0  0  0  0  0  0  0  0  0  0  0
  -22.3879   -7.1747   24.0329 C   0  0  0  0  0  0  0  0  0  0  0  0
  -22.8401   -6.0147   24.6617 C   0  0  0  0  0  0  0  0  0  0  0  0
  -28.1829  -20.3543   18.4661 C   0  0  0  0  0  0  0  0  0  0  0  0
  -26.0555  -27.1018   21.0781 C   0  0  0  0  0  0  0  0  0  0  0  0
  -29.8899  -19.1411   20.3092 C   0  0  0  0  0  0  0  0  0  0  0  0
  -21.4740   -4.6800   23.1819 C   0  0  0  0  0  0  0  0  0  0  0  0
  -23.8616  -10.6796   20.5476 C   0  0  0  0  0  0  0  0  0  0  0  0
  -29.0461  -21.1342   19.2356 C   0  0  0  0  0  0  0  0  0  0  0  0
  -28.1731  -18.9677   18.6181 C   0  0  0  0  0  0  0  0  0  0  0  0
  -24.7628  -12.1266   18.6499 C   0  0  0  0  0  0  0  0  0  0  0  0
  -25.7093  -36.1517   23.4008 C   0  0  0  0  0  0  0  0  0  0  0  0
  -25.6763  -29.1804   19.8969 C   0  0  0  0  0  0  0  0  0  0  0  0
  -26.3177  -35.1372   22.6372 C   0  0  0  0  0  0  0  0  0  0  0  0
  -25.3907  -28.3335   20.9773 C   0  0  0  0  0  0  0  0  0  0  0  0
  -29.8996  -20.5276   20.1571 C   0  0  0  0  0  0  0  0  0  0  0  0
  -29.0266  -18.3611   19.5397 C   0  0  0  0  0  0  0  0  0  0  0  0
  -21.9595   -9.0397   21.7623 C   0  0  0  0  0  0  0  0  0  0  0  0
  -26.9819  -26.7124   20.1111 C   0  0  0  0  0  0  0  0  0  0  0  0
  -21.4786   -7.0874   22.9787 C   0  0  0  0  0  0  0  0  0  0  0  0
  -22.3833   -4.7673   24.2362 C   0  0  0  0  0  0  0  0  0  0  0  0
  -21.0218   -5.8401   22.5532 C   0  0  0  0  0  0  0  0  0  0  0  0
  -24.8441  -11.5270   19.9209 C   0  0  0  0  0  0  0  0  0  0  0  0
  -25.9387  -12.8251   18.5239 C   0  0  0  0  0  0  0  0  0  0  0  0
  -25.9436  -18.3562   17.7993 C   0  0  0  0  0  0  0  0  0  0  0  0
  -29.0348  -22.5950   19.0512 C   0  0  0  0  0  0  0  0  0  0  0  0
  -27.2563  -18.1850   17.7975 C   0  0  0  0  0  0  0  0  0  0  0  0
  -27.9654  -23.3883   19.2200 C   0  0  0  0  0  0  0  0  0  0  0  0
  -23.7177  -12.0584   17.6706 C   0  0  0  0  0  0  0  0  0  0  0  0
  -25.5009  -31.5995   21.9514 C   0  0  0  0  0  0  0  0  0  0  0  0
  -22.5594  -30.3692   22.5482 C   0  0  0  0  0  0  0  0  0  0  0  0
  -20.4867  -27.6586   22.4916 C   0  0  0  0  0  0  0  0  0  0  0  0
  -29.8325  -16.2219   20.5982 C   0  0  0  0  0  0  0  0  0  0  0  0
  -25.0513  -35.8604   24.7263 C   0  0  0  0  0  0  0  0  0  0  0  0
  -24.9610  -30.4954   19.7501 C   0  0  0  0  0  0  0  0  0  0  0  0
  -24.3936  -28.7130   22.0404 C   0  0  0  0  0  0  0  0  0  0  0  0
  -24.7246  -34.3836   24.9326 C   0  0  0  0  0  0  0  0  0  0  0  0
  -30.1306  -12.7567   21.3602 C   0  0  0  0  0  0  0  0  0  0  0  0
  -25.9175  -33.5142   24.5480 C   0  0  0  0  0  0  0  0  0  0  0  0
  -28.7751  -12.1772   20.9492 C   0  0  0  0  0  0  0  0  0  0  0  0
  -29.9907  -14.1526   21.9649 C   0  0  0  0  0  0  0  0  0  0  0  0
  -27.8946  -14.5358   20.7286 C   0  0  0  0  0  0  0  0  0  0  0  0
  -26.2708  -33.6867   23.0658 C   0  0  1  0  0  0  0  0  0  0  0  0
  -24.4220  -31.0333   21.0721 C   0  0  1  0  0  0  0  0  0  0  0  0
  -27.9911  -13.1574   20.0547 C   0  0  2  0  0  0  0  0  0  0  0  0
  -30.8389  -21.3318   20.9976 C   0  0  0  0  0  0  0  0  0  0  0  0
  -18.1512  -26.9520   23.0779 C   0  0  0  0  0  0  0  0  0  0  0  0
  -23.3222  -30.3070   25.5019 C   0  0  0  0  0  0  0  0  0  0  0  0
  -21.3966  -28.7559   25.8948 C   0  0  0  0  0  0  0  0  0  0  0  0
  -20.9831  -31.0642   25.0443 C   0  0  0  0  0  0  0  0  0  0  0  0
  -19.8713  -26.9527   19.6842 C   0  0  0  0  0  0  0  0  0  0  0  0
  -27.9992  -24.8679   19.0072 C   0  0  0  0  0  0  0  0  0  1  0  0
  -22.0047  -29.3399   23.5031 C   0  0  1  0  0  0  0  0  0  0  0  0
  -19.0652  -27.4878   21.9869 C   0  0  2  0  0  0  0  0  0  0  0  0
  -21.9469  -29.8601   24.9672 C   0  0  0  0  0  0  0  0  0  0  0  0
  -25.9817  -11.8189   20.5569 N   0  0  0  0  0  0  0  0  0  0  0  0
  -26.6262  -12.6095   19.6819 N   0  0  0  0  0  0  0  0  0  0  0  0
  -23.7249  -30.0115   21.8558 N   0  0  0  0  0  0  0  0  0  0  0  0
  -29.2412  -15.0271   21.0604 N   0  0  0  0  0  0  0  0  0  0  0  0
  -26.4413  -13.5965   17.5366 N   0  0  0  0  0  0  0  0  0  0  0  0
  -22.5782  -11.2962   17.9616 N   0  0  0  0  0  0  0  0  0  0  0  0
  -29.0380  -16.9555   19.7178 N   0  0  0  0  0  0  0  0  0  0  0  0
  -25.3472  -32.9429   22.2362 N   0  0  0  0  0  0  0  0  0  0  0  0
  -20.7120  -28.9352   22.9614 N   0  0  0  0  0  0  0  0  0  0  0  0
  -19.0338  -26.5380   20.8389 N   0  3  0  0  0  0  0  0  0  0  0  0
  -23.7994  -12.6424   16.5634 O   0  0  0  0  0  0  0  0  0  0  0  0
  -26.4050  -30.8712   22.3436 O   0  0  0  0  0  0  0  0  0  0  0  0
  -21.9759  -31.4480   22.4160 O   0  0  0  0  0  0  0  0  0  0  0  0
  -21.3133  -26.7492   22.4746 O   0  0  0  0  0  0  0  0  0  0  0  0
  -30.9714  -16.5551   20.9357 O   0  0  0  0  0  0  0  0  0  0  0  0
  -21.0312   -8.2400   22.3549 O   0  0  0  0  0  0  0  0  0  0  0  0
  -27.6179  -25.5143   20.2208 O   0  0  0  0  0  0  0  0  0  1  0  0
  -22.8188   -3.6533   24.8391 F   0  0  0  0  0  0  0  0  0  0  0  0
  -20.1492   -5.7498   21.5402 F   0  0  0  0  0  0  0  0  0  0  0  0
  1  2  1  0  0  0  0
  1  5  2  0  0  0  0
  2  6  2  0  0  0  0
  3  8  2  0  0  0  0
  3 17  1  0  0  0  0
  4  9  1  0  0  0  0
  4 17  2  0  0  0  0
  5 21  1  0  0  0  0
  6 23  1  0  0  0  0
  7 10  2  0  0  0  0
  7 22  1  0  0  0  0
  8 27  1  0  0  0  0
  9 27  2  0  0  0  0
 10 28  1  0  0  0  0
 11 12  2  0  0  0  0
 11 29  1  0  0  0  0
 12 30  1  0  0  0  0
 13 18  2  0  0  0  0
 13 19  1  0  0  0  0
 14 24  1  0  0  0  0
 14 28  2  0  0  0  0
 15 25  2  0  0  0  0
 15 26  1  0  0  0  0
 16 30  2  0  0  0  0
 16 31  1  0  0  0  0
 17 32  1  0  0  0  0
 18 25  1  0  0  0  0
 18 35  1  0  0  0  0
 19 26  2  0  0  0  0
 19 36  1  0  0  0  0
 20 32  1  0  0  0  0
 20 33  2  0  0  0  0
 20 38  1  0  0  0  0
 21 23  2  0  0  0  0
 21 43  1  0  0  0  0
 22 24  2  0  0  0  0
 22 44  1  0  0  0  0
 23 52  1  0  0  0  0
 24 45  1  0  0  0  0
 25 55  1  0  0  0  0
 26 71  1  0  0  0  0
 27 80  1  0  0  0  0
 28 81  1  0  0  0  0
 29 31  2  0  0  0  0
 29 80  1  0  0  0  0
 30 82  1  0  0  0  0
 31 83  1  0  0  0  0
 32 65  2  0  0  0  0
 33 66  1  0  0  0  0
 33 69  1  0  0  0  0
 34 36  2  0  0  0  0
 35 37  2  0  0  0  0
 37 61  1  0  0  0  0
 38 70  1  0  0  0  0
 38 75  2  0  0  0  0
 39 53  1  0  0  0  0
 39 72  1  0  0  0  0
 39 76  2  0  0  0  0
 40 62  1  0  0  0  0
 40 67  1  0  0  0  0
 40 77  2  0  0  0  0
 41 63  1  0  0  0  0
 41 73  1  0  0  0  0
 41 78  2  0  0  0  0
 42 68  1  0  0  0  0
 42 71  1  0  0  0  0
 42 79  2  0  0  0  0
 43 46  1  0  0  0  0
 44 53  1  0  0  0  0
 45 67  1  0  0  0  0
 46 48  1  0  0  0  0
 47 49  1  0  0  0  0
 47 50  1  0  0  0  0
 48 52  1  0  0  0  0
 49 54  1  0  0  0  0
 50 68  1  0  0  0  0
 51 54  1  0  0  0  0
 51 68  1  0  0  0  0
 52 72  1  0  0  0  0
 53 67  1  0  0  0  0
 54 66  1  0  0  0  0
 56 63  1  0  0  0  0
 57 64  1  0  0  0  0
 58 64  1  0  0  0  0
 59 64  1  0  0  0  0
 60 74  1  0  0  0  0
 61 81  1  0  0  0  0
 62 64  1  0  0  0  0
 62 73  1  0  0  0  0
 63 74  1  0  0  0  0
 65 66  1  0  0  0  0
M  CHG  1  74   1
M  ISO  4  42 100  61 101  71 100  81 101
M  END
> <Batch ID>
0122

> <Smiles>
C=Cc1cc(C=C[101CH2:1][101O:1]c2ccc3c(c2)CN(C(=O)C(NC(=O)C(C)NC)C(C)(C)C)C(C(=O)NC2CCCc4ccccc42)C3)c(C)cc1[100NH:0][100C:0](=O)N1CCCC(n2nc(-c3ccc(Oc4ccc(F)cc4F)cc3)c(C(N)=O)c2N)C1

> <Shape>
0.366

> <Color>
0.092

> <Negative vol penalty>
0.000

$$$$

  -OEChem-04052302003D

 83 91  0     1  0  0  0  0  0999 V2000
  -28.3037  -24.2163   17.0873 C   0  0  0  0  0  0  0  0  0  0  0  0
  -27.1375  -24.3904   17.8256 C   0  0  0  0  0  0  0  0  0  0  0  0
  -26.4262  -13.6811   21.0035 C   0  0  0  0  0  0  0  0  0  0  0  0
  -24.1953  -13.7024   20.0763 C   0  0  0  0  0  0  0  0  0  0  0  0
  -29.4865  -24.8283   17.4999 C   0  0  0  0  0  0  0  0  0  0  0  0
  -27.1538  -25.1758   18.9777 C   0  0  0  0  0  0  0  0  0  0  0  0
  -23.1964  -28.3249   19.2382 C   0  0  0  0  0  0  0  0  0  0  0  0
  -26.1167  -12.5261   21.7216 C   0  0  0  0  0  0  0  0  0  0  0  0
  -23.8858  -12.5473   20.7943 C   0  0  0  0  0  0  0  0  0  0  0  0
  -21.9753  -27.7814   19.6347 C   0  0  0  0  0  0  0  0  0  0  0  0
  -22.6221   -9.3999   22.1040 C   0  0  0  0  0  0  0  0  0  0  0  0
  -21.9444   -8.3812   21.4343 C   0  0  0  0  0  0  0  0  0  0  0  0
  -18.4464  -22.1366   19.5863 C   0  0  0  0  0  0  0  0  0  0  0  0
  -20.1812  -20.6580   18.7858 C   0  0  0  0  0  0  0  0  0  0  0  0
  -20.7483  -22.5276   20.2070 C   0  0  0  0  0  0  0  0  0  0  0  0
  -22.3275  -28.6320   21.8644 C   0  0  0  0  0  0  0  0  0  0  0  0
  -23.7675   -8.2041   19.8588 C   0  0  0  0  0  0  0  0  0  0  0  0
  -25.4654  -14.2693   20.1808 C   0  0  0  0  0  0  0  0  0  0  0  0
  -18.8356  -21.0206   18.8458 C   0  0  0  0  0  0  0  0  0  0  0  0
  -19.4027  -22.8902   20.2669 C   0  0  0  0  0  0  0  0  0  0  0  0
  -26.3243  -15.5384   18.1413 C   0  0  0  0  0  0  0  0  0  0  0  0
  -29.5151  -25.6295   18.6523 C   0  0  0  0  0  0  0  0  0  0  0  0
  -23.9987  -29.0178   20.1562 C   0  0  0  0  0  0  0  0  0  0  0  0
  -28.3384  -25.7980   19.4069 C   0  0  0  0  0  0  0  0  0  0  0  0
  -23.5572  -29.1855   21.4764 C   0  0  0  0  0  0  0  0  0  0  0  0
  -21.1376  -21.4115   19.4665 C   0  0  0  0  0  0  0  0  0  0  0  0
  -24.8466  -11.9591   21.6170 C   0  0  0  0  0  0  0  0  0  0  0  0
  -21.5420  -27.9324   20.9487 C   0  0  0  0  0  0  0  0  0  0  0  0
  -23.8724   -9.8209   21.6510 C   0  0  0  0  0  0  0  0  0  0  0  0
  -22.5171   -7.7832   20.3118 C   0  0  0  0  0  0  0  0  0  0  0  0
  -24.4451   -9.2229   20.5285 C   0  0  0  0  0  0  0  0  0  0  0  0
  -25.7843  -15.4628   19.4392 C   0  0  0  0  0  0  0  0  0  0  0  0
  -26.4386  -16.8847   17.8949 C   0  0  0  0  0  0  0  0  0  0  0  0
  -17.9386  -18.9284   17.9328 C   0  0  0  0  0  0  0  0  0  0  0  0
  -17.8390  -20.2350   18.1347 C   0  0  0  0  0  0  0  0  0  0  0  0
  -18.9924  -24.0692   21.0476 C   0  0  0  0  0  0  0  0  0  0  0  0
  -19.7143  -24.6381   22.0258 C   0  0  0  0  0  0  0  0  0  0  0  0
  -26.6897  -14.4857   17.2391 C   0  0  0  0  0  0  0  0  0  0  0  0
  -26.9139  -28.5983   21.3516 C   0  0  0  0  0  0  0  0  0  0  0  0
  -26.3498  -31.4897   22.7096 C   0  0  0  0  0  0  0  0  0  0  0  0
  -24.0698  -33.7847   23.7965 C   0  0  0  0  0  0  0  0  0  0  0  0
  -23.5799  -21.6814   20.0219 C   0  0  0  0  0  0  0  0  0  0  0  0
  -30.8282  -26.2322   19.0850 C   0  0  0  0  0  0  0  0  0  0  0  0
  -25.3009  -29.6211   19.7060 C   0  0  0  0  0  0  0  0  0  0  0  0
  -24.3718  -29.9383   22.4954 C   0  0  0  0  0  0  0  0  0  0  0  0
  -30.6755  -27.3534   20.1096 C   0  0  0  0  0  0  0  0  0  0  0  0
  -27.0839  -21.0622   20.1458 C   0  0  0  0  0  0  0  0  0  0  0  0
  -29.7086  -26.9390   21.2142 C   0  0  0  0  0  0  0  0  0  0  0  0
  -27.1979  -19.5641   19.8545 C   0  0  0  0  0  0  0  0  0  0  0  0
  -25.8503  -21.3841   20.9873 C   0  0  0  0  0  0  0  0  0  0  0  0
  -24.6972  -19.3690   20.1634 C   0  0  0  0  0  0  0  0  0  0  0  0
  -28.3103  -26.6627   20.6485 C   0  0  1  0  0  0  0  0  0  0  0  0
  -26.2754  -29.8643   20.8543 C   0  0  1  0  0  0  0  0  0  0  0  0
  -25.8892  -19.0037   19.2638 C   0  0  2  0  0  0  0  0  0  0  0  0
  -23.9103  -36.0351   24.8954 C   0  0  0  0  0  0  0  0  0  0  0  0
  -27.0499  -30.2246   25.3964 C   0  0  0  0  0  0  0  0  0  0  0  0
  -25.9767  -32.1870   26.5213 C   0  0  0  0  0  0  0  0  0  0  0  0
  -27.9671  -32.5262   25.0565 C   0  0  0  0  0  0  0  0  0  0  0  0
  -22.6657  -34.9516   21.4672 C   0  0  0  0  0  0  0  0  0  0  0  0
  -19.2507  -25.8365   22.8079 C   0  0  0  0  0  0  0  0  0  0  0  0
  -20.2362  -26.9942   22.7010 C   0  0  0  0  0  0  0  0  0  1  0  0
  -25.7378  -31.9604   24.0068 C   0  0  1  0  0  0  0  0  0  0  0  0
  -23.9644  -35.2828   23.5749 C   0  0  2  0  0  0  0  0  0  0  0  0
  -26.6682  -31.7086   25.2268 C   0  0  0  0  0  0  0  0  0  0  0  0
  -25.5707  -16.6655   19.9796 N   0  0  0  0  0  0  0  0  0  0  0  0
  -25.9785  -17.5094   19.0166 N   0  0  0  0  0  0  0  0  0  0  0  0
  -25.6406  -30.5042   22.0084 N   0  0  0  0  0  0  0  0  0  0  0  0
  -24.6483  -20.8258   20.3641 N   0  0  0  0  0  0  0  0  0  0  0  0
  -26.8870  -17.5833   16.8303 N   0  0  0  0  0  0  0  0  0  0  0  0
  -26.5065  -13.1587   17.6514 N   0  0  0  0  0  0  0  0  0  0  0  0
  -22.5043  -21.0427   19.4057 N   0  0  0  0  0  0  0  0  0  0  0  0
  -27.6172  -27.9055   20.3847 N   0  0  0  0  0  0  0  0  0  0  0  0
  -25.3819  -33.3609   23.8057 N   0  0  0  0  0  0  0  0  0  0  0  0
  -22.7338  -35.6063   22.7990 N   0  3  0  0  0  0  0  0  0  0  0  0
  -27.1799  -14.7148   16.1075 O   0  0  0  0  0  0  0  0  0  0  0  0
  -26.7799  -28.2749   22.5260 O   0  0  0  0  0  0  0  0  0  0  0  0
  -27.4141  -31.9835   22.3288 O   0  0  0  0  0  0  0  0  0  0  0  0
  -23.0867  -33.0633   23.9500 O   0  0  0  0  0  0  0  0  0  0  0  0
  -23.6278  -22.8959   20.2334 O   0  0  0  0  0  0  0  0  0  0  0  0
  -24.5443  -10.8319   22.3174 O   0  0  0  0  0  0  0  0  0  0  0  0
  -20.3507  -27.4024   21.3385 O   0  0  0  0  0  0  0  0  0  1  0  0
  -21.8669   -6.8038   19.6698 F   0  0  0  0  0  0  0  0  0  0  0  0
  -25.6466   -9.6222   20.0893 F   0  0  0  0  0  0  0  0  0  0  0  0
  1  2  1  0  0  0  0
  1  5  2  0  0  0  0
  2  6  2  0  0  0  0
  3  8  2  0  0  0  0
  3 18  1  0  0  0  0
  4  9  1  0  0  0  0
  4 18  2  0  0  0  0
  5 22  1  0  0  0  0
  6 24  1  0  0  0  0
  7 10  2  0  0  0  0
  7 23  1  0  0  0  0
  8 27  1  0  0  0  0
  9 27  2  0  0  0  0
 10 28  1  0  0  0  0
 11 12  2  0  0  0  0
 11 29  1  0  0  0  0
 12 30  1  0  0  0  0
 13 19  1  0  0  0  0
 13 20  2  0  0  0  0
 14 19  2  0  0  0  0
 14 26  1  0  0  0  0
 15 20  1  0  0  0  0
 15 26  2  0  0  0  0
 16 25  1  0  0  0  0
 16 28  2  0  0  0  0
 17 30  2  0  0  0  0
 17 31  1  0  0  0  0
 18 32  1  0  0  0  0
 19 35  1  0  0  0  0
 20 36  1  0  0  0  0
 21 32  1  0  0  0  0
 21 33  2  0  0  0  0
 21 38  1  0  0  0  0
 22 24  2  0  0  0  0
 22 43  1  0  0  0  0
 23 25  2  0  0  0  0
 23 44  1  0  0  0  0
 24 52  1  0  0  0  0
 25 45  1  0  0  0  0
 26 71  1  0  0  0  0
 27 80  1  0  0  0  0
 28 81  1  0  0  0  0
 29 31  2  0  0  0  0
 29 80  1  0  0  0  0
 30 82  1  0  0  0  0
 31 83  1  0  0  0  0
 32 65  2  0  0  0  0
 33 66  1  0  0  0  0
 33 69  1  0  0  0  0
 34 35  2  0  0  0  0
 36 37  2  0  0  0  0
 37 60  1  0  0  0  0
 38 70  1  0  0  0  0
 38 75  2  0  0  0  0
 39 53  1  0  0  0  0
 39 72  1  0  0  0  0
 39 76  2  0  0  0  0
 40 62  1  0  0  0  0
 40 67  1  0  0  0  0
 40 77  2  0  0  0  0
 41 63  1  0  0  0  0
 41 73  1  0  0  0  0
 41 78  2  0  0  0  0
 42 68  1  0  0  0  0
 42 71  1  0  0  0  0
 42 79  2  0  0  0  0
 43 46  1  0  0  0  0
 44 53  1  0  0  0  0
 45 67  1  0  0  0  0
 46 48  1  0  0  0  0
 47 49  1  0  0  0  0
 47 50  1  0  0  0  0
 48 52  1  0  0  0  0
 49 54  1  0  0  0  0
 50 68  1  0  0  0  0
 51 54  1  0  0  0  0
 51 68  1  0  0  0  0
 52 72  1  0  0  0  0
 53 67  1  0  0  0  0
 54 66  1  0  0  0  0
 55 63  1  0  0  0  0
 56 64  1  0  0  0  0
 57 64  1  0  0  0  0
 58 64  1  0  0  0  0
 59 74  1  0  0  0  0
 60 61  1  0  0  0  0
 61 81  1  0  0  0  0
 62 64  1  0  0  0  0
 62 73  1  0  0  0  0
 63 74  1  0  0  0  0
 65 66  1  0  0  0  0
M  CHG  1  74   1
M  ISO  4  42 100  61 101  71 100  81 101
M  END
> <Batch ID>
0122

> <Smiles>
C=Cc1cc(C=CC[101CH2:1][101O:1]c2ccc3c(c2)CN(C(=O)C(NC(=O)C(C)NC)C(C)(C)C)C(C(=O)NC2CCCc4ccccc42)C3)cc([100NH:0][100C:0](=O)N2CCCC(n3nc(-c4ccc(Oc5ccc(F)cc5F)cc4)c(C(N)=O)c3N)C2)c1

> <Shape>
0.275

> <Color>
0.084

> <Negative vol penalty>
0.000

$$$$

  -OEChem-04052302003D

 84 92  0     1  0  0  0  0  0999 V2000
  -27.9385  -24.1349   16.9659 C   0  0  0  0  0  0  0  0  0  0  0  0
  -26.8106  -24.3130   17.7605 C   0  0  0  0  0  0  0  0  0  0  0  0
  -26.5754  -14.4802   19.6633 C   0  0  0  0  0  0  0  0  0  0  0  0
  -24.5251  -14.6634   20.9281 C   0  0  0  0  0  0  0  0  0  0  0  0
  -22.7441  -24.5032   24.8130 C   0  0  0  0  0  0  0  0  0  0  0  0
  -29.1412  -24.7464   17.3176 C   0  0  0  0  0  0  0  0  0  0  0  0
  -26.8849  -25.1017   18.9081 C   0  0  0  0  0  0  0  0  0  0  0  0
  -22.9496  -28.2574   19.3547 C   0  0  0  0  0  0  0  0  0  0  0  0
  -23.8456  -23.7231   24.4612 C   0  0  0  0  0  0  0  0  0  0  0  0
  -26.6345  -13.1178   19.9564 C   0  0  0  0  0  0  0  0  0  0  0  0
  -24.5841  -13.3010   21.2212 C   0  0  0  0  0  0  0  0  0  0  0  0
  -21.7488  -27.7169   19.8127 C   0  0  0  0  0  0  0  0  0  0  0  0
  -23.8857  -10.3864   19.6599 C   0  0  0  0  0  0  0  0  0  0  0  0
  -22.7108   -9.6457   19.5308 C   0  0  0  0  0  0  0  0  0  0  0  0
  -22.2121  -28.5735   22.0197 C   0  0  0  0  0  0  0  0  0  0  0  0
  -22.5105  -21.7251   24.7117 C   0  0  0  0  0  0  0  0  0  0  0  0
  -22.8248   -9.0571   21.8712 C   0  0  0  0  0  0  0  0  0  0  0  0
  -25.5207  -15.2531   20.1491 C   0  0  0  0  0  0  0  0  0  0  0  0
  -21.5258  -23.8943   25.1143 C   0  0  0  0  0  0  0  0  0  0  0  0
  -24.8317  -17.2664   18.7422 C   0  0  0  0  0  0  0  0  0  0  0  0
  -29.2278  -25.5508   18.4648 C   0  0  0  0  0  0  0  0  0  0  0  0
  -23.7972  -28.9518   20.2297 C   0  0  0  0  0  0  0  0  0  0  0  0
  -28.0902  -25.7234   19.2762 C   0  0  0  0  0  0  0  0  0  0  0  0
  -23.4218  -29.1241   21.5697 C   0  0  0  0  0  0  0  0  0  0  0  0
  -21.4090  -22.5052   25.0636 C   0  0  0  0  0  0  0  0  0  0  0  0
  -23.7287  -22.3340   24.4105 C   0  0  0  0  0  0  0  0  0  0  0  0
  -25.6389  -12.5282   20.7353 C   0  0  0  0  0  0  0  0  0  0  0  0
  -21.3812  -27.8724   21.1461 C   0  0  0  0  0  0  0  0  0  0  0  0
  -24.5302  -10.4623   20.8947 C   0  0  0  0  0  0  0  0  0  0  0  0
  -22.1803   -8.9811   20.6364 C   0  0  0  0  0  0  0  0  0  0  0  0
  -23.9997   -9.7977   22.0003 C   0  0  0  0  0  0  0  0  0  0  0  0
  -25.4594  -16.6606   19.8471 C   0  0  0  0  0  0  0  0  0  0  0  0
  -25.0568  -18.6104   18.9139 C   0  0  0  0  0  0  0  0  0  0  0  0
  -19.4920  -25.2130   24.3721 C   0  0  0  0  0  0  0  0  0  0  0  0
  -19.7690  -24.8851   23.1029 C   0  0  0  0  0  0  0  0  0  0  0  0
  -20.3666  -24.7519   25.4874 C   0  0  0  0  0  0  0  0  0  0  0  0
  -24.1098  -16.6678   17.6578 C   0  0  0  0  0  0  0  0  0  0  0  0
  -26.7675  -28.5315   21.2807 C   0  0  0  0  0  0  0  0  0  0  0  0
  -26.2751  -31.4276   22.6563 C   0  0  0  0  0  0  0  0  0  0  0  0
  -24.0548  -33.7292   23.8478 C   0  0  0  0  0  0  0  0  0  0  0  0
  -26.1281  -21.9883   23.7250 C   0  0  0  0  0  0  0  0  0  0  0  0
  -30.5615  -26.1528   18.8302 C   0  0  0  0  0  0  0  0  0  0  0  0
  -25.0764  -29.5518   19.7139 C   0  0  0  0  0  0  0  0  0  0  0  0
  -24.2868  -29.8785   22.5449 C   0  0  0  0  0  0  0  0  0  0  0  0
  -30.4613  -27.2772   19.8578 C   0  0  0  0  0  0  0  0  0  0  0  0
  -28.1987  -21.6644   20.8467 C   0  0  0  0  0  0  0  0  0  0  0  0
  -29.5496  -26.8676   21.0101 C   0  0  0  0  0  0  0  0  0  0  0  0
  -27.6701  -20.4030   20.1599 C   0  0  0  0  0  0  0  0  0  0  0  0
  -28.1614  -21.5395   22.3687 C   0  0  0  0  0  0  0  0  0  0  0  0
  -26.3299  -19.8967   22.2418 C   0  0  0  0  0  0  0  0  0  0  0  0
  -28.1247  -26.5917   20.5151 C   0  0  1  0  0  0  0  0  0  0  0  0
  -26.1068  -29.7969   20.8118 C   0  0  1  0  0  0  0  0  0  0  0  0
  -26.2873  -20.0001   20.7085 C   0  0  2  0  0  0  0  0  0  0  0  0
  -20.1163  -21.8278   25.3827 C   0  0  0  0  0  0  0  0  0  0  0  0
  -23.9530  -35.9831   24.9465 C   0  0  0  0  0  0  0  0  0  0  0  0
  -27.1057  -30.1693   25.3089 C   0  0  0  0  0  0  0  0  0  0  0  0
  -26.0921  -32.1366   26.4797 C   0  0  0  0  0  0  0  0  0  0  0  0
  -28.0081  -32.4686   24.9172 C   0  0  0  0  0  0  0  0  0  0  0  0
  -22.5387  -34.8914   21.5873 C   0  0  0  0  0  0  0  0  0  0  0  0
  -18.9320  -25.3270   21.9346 C   0  0  0  0  0  0  0  0  0  0  0  0
  -19.7385  -26.1641   20.9488 C   0  0  0  0  0  0  0  0  0  1  0  0
  -25.7287  -31.9030   23.9808 C   0  0  1  0  0  0  0  0  0  0  0  0
  -23.9406  -35.2268   23.6272 C   0  0  2  0  0  0  0  0  0  0  0  0
  -26.7180  -31.6534   25.1540 C   0  0  0  0  0  0  0  0  0  0  0  0
  -26.0398  -17.5470   20.6604 N   0  0  0  0  0  0  0  0  0  0  0  0
  -20.1995  -25.0983   26.7241 N   0  0  0  0  0  0  0  0  0  0  0  0
  -25.7777  -18.7235   20.0661 N   0  0  0  0  0  0  0  0  0  0  0  0
  -25.5308  -30.4411   21.9939 N   0  0  0  0  0  0  0  0  0  0  0  0
  -26.8196  -21.1596   22.8162 N   0  0  0  0  0  0  0  0  0  0  0  0
  -24.7063  -19.6947   18.1901 N   0  0  0  0  0  0  0  0  0  0  0  0
  -23.9724  -15.2732   17.6357 N   0  0  0  0  0  0  0  0  0  0  0  0
  -24.8482  -21.5424   24.0530 N   0  0  0  0  0  0  0  0  0  0  0  0
  -27.4211  -27.8347   20.2823 N   0  0  0  0  0  0  0  0  0  0  0  0
  -25.3652  -33.3035   23.7934 N   0  0  0  0  0  0  0  0  0  0  0  0
  -22.6736  -35.5499   22.9122 N   0  3  0  0  0  0  0  0  0  0  0  0
  -23.6156  -17.3482   16.7269 O   0  0  0  0  0  0  0  0  0  0  0  0
  -26.6912  -28.2116   22.4612 O   0  0  0  0  0  0  0  0  0  0  0  0
  -27.3200  -31.9187   22.2218 O   0  0  0  0  0  0  0  0  0  0  0  0
  -23.0796  -33.0097   24.0519 O   0  0  0  0  0  0  0  0  0  0  0  0
  -26.6235  -23.0320   24.1579 O   0  0  0  0  0  0  0  0  0  0  0  0
  -25.6961  -11.1987   21.0214 O   0  0  0  0  0  0  0  0  0  0  0  0
  -20.2101  -27.3453   21.5959 O   0  0  0  0  0  0  0  0  0  1  0  0
  -21.0513   -8.2711   20.5127 F   0  0  0  0  0  0  0  0  0  0  0  0
  -24.6137   -9.8680   23.1894 F   0  0  0  0  0  0  0  0  0  0  0  0
  1  2  1  0  0  0  0
  1  6  2  0  0  0  0
  2  7  2  0  0  0  0
  3 10  2  0  0  0  0
  3 18  1  0  0  0  0
  4 11  1  0  0  0  0
  4 18  2  0  0  0  0
  5  9  2  0  0  0  0
  5 19  1  0  0  0  0
  6 21  1  0  0  0  0
  7 23  1  0  0  0  0
  8 12  2  0  0  0  0
  8 22  1  0  0  0  0
  9 26  1  0  0  0  0
 10 27  1  0  0  0  0
 11 27  2  0  0  0  0
 12 28  1  0  0  0  0
 13 14  2  0  0  0  0
 13 29  1  0  0  0  0
 14 30  1  0  0  0  0
 15 24  1  0  0  0  0
 15 28  2  0  0  0  0
 16 25  1  0  0  0  0
 16 26  2  0  0  0  0
 17 30  2  0  0  0  0
 17 31  1  0  0  0  0
 18 32  1  0  0  0  0
 19 25  2  0  0  0  0
 19 36  1  0  0  0  0
 20 32  1  0  0  0  0
 20 33  2  0  0  0  0
 20 37  1  0  0  0  0
 21 23  2  0  0  0  0
 21 42  1  0  0  0  0
 22 24  2  0  0  0  0
 22 43  1  0  0  0  0
 23 51  1  0  0  0  0
 24 44  1  0  0  0  0
 25 54  1  0  0  0  0
 26 72  1  0  0  0  0
 27 81  1  0  0  0  0
 28 82  1  0  0  0  0
 29 31  2  0  0  0  0
 29 81  1  0  0  0  0
 30 83  1  0  0  0  0
 31 84  1  0  0  0  0
 32 65  2  0  0  0  0
 33 67  1  0  0  0  0
 33 70  1  0  0  0  0
 34 35  2  0  0  0  0
 34 36  1  0  0  0  0
 35 60  1  0  0  0  0
 36 66  2  0  0  0  0
 37 71  1  0  0  0  0
 37 76  2  0  0  0  0
 38 52  1  0  0  0  0
 38 73  1  0  0  0  0
 38 77  2  0  0  0  0
 39 62  1  0  0  0  0
 39 68  1  0  0  0  0
 39 78  2  0  0  0  0
 40 63  1  0  0  0  0
 40 74  1  0  0  0  0
 40 79  2  0  0  0  0
 41 69  1  0  0  0  0
 41 72  1  0  0  0  0
 41 80  2  0  0  0  0
 42 45  1  0  0  0  0
 43 52  1  0  0  0  0
 44 68  1  0  0  0  0
 45 47  1  0  0  0  0
 46 48  1  0  0  0  0
 46 49  1  0  0  0  0
 47 51  1  0  0  0  0
 48 53  1  0  0  0  0
 49 69  1  0  0  0  0
 50 53  1  0  0  0  0
 50 69  1  0  0  0  0
 51 73  1  0  0  0  0
 52 68  1  0  0  0  0
 53 67  1  0  0  0  0
 55 63  1  0  0  0  0
 56 64  1  0  0  0  0
 57 64  1  0  0  0  0
 58 64  1  0  0  0  0
 59 75  1  0  0  0  0
 60 61  1  0  0  0  0
 61 82  1  0  0  0  0
 62 64  1  0  0  0  0
 62 74  1  0  0  0  0
 63 75  1  0  0  0  0
 65 67  1  0  0  0  0
M  CHG  1  75   1
M  ISO  4  41 100  61 101  72 100  82 101
M  END
> <Batch ID>
0122

> <Smiles>
CNC(C)C(=O)NC(C(=O)N1Cc2cc([101O:1][101CH2:1]CC=CC(=N)c3ccc([100NH:0][100C:0](=O)N4CCCC(n5nc(-c6ccc(Oc7ccc(F)cc7F)cc6)c(C(N)=O)c5N)C4)cc3C)ccc2CC1C(=O)NC1CCCc2ccccc21)C(C)(C)C

> <Shape>
0.287

> <Color>
0.076

> <Negative vol penalty>
0.000

$$$$

  -OEChem-04052302003D

 82 90  0     1  0  0  0  0  0999 V2000
  -15.0804  -28.1847   25.1471 C   0  0  0  0  0  0  0  0  0  0  0  0
  -15.4999  -27.1114   24.3678 C   0  0  0  0  0  0  0  0  0  0  0  0
  -26.8055  -12.4619   21.7398 C   0  0  0  0  0  0  0  0  0  0  0  0
  -26.0135  -14.0384   20.0891 C   0  0  0  0  0  0  0  0  0  0  0  0
  -15.7325  -29.4131   25.0485 C   0  0  0  0  0  0  0  0  0  0  0  0
  -16.5711  -27.2661   23.4886 C   0  0  0  0  0  0  0  0  0  0  0  0
  -20.7731  -23.0568   22.0287 C   0  0  0  0  0  0  0  0  0  0  0  0
  -25.5376  -11.8833   21.7956 C   0  0  0  0  0  0  0  0  0  0  0  0
  -24.7455  -13.4598   20.1449 C   0  0  0  0  0  0  0  0  0  0  0  0
  -20.8985  -22.1948   20.9401 C   0  0  0  0  0  0  0  0  0  0  0  0
  -23.7031   -9.7205   19.9544 C   0  0  0  0  0  0  0  0  0  0  0  0
  -23.6247   -8.3280   19.9381 C   0  0  0  0  0  0  0  0  0  0  0  0
  -29.6130  -23.0989   18.9721 C   0  0  0  0  0  0  0  0  0  0  0  0
  -28.6646  -23.1556   17.9231 C   0  0  0  0  0  0  0  0  0  0  0  0
  -22.3720  -23.7746   19.8666 C   0  0  0  0  0  0  0  0  0  0  0  0
  -22.5246   -8.3648   22.0888 C   0  0  0  0  0  0  0  0  0  0  0  0
  -27.0435  -13.5395   20.8866 C   0  0  0  0  0  0  0  0  0  0  0  0
  -29.4147  -13.7794   19.9768 C   0  0  0  0  0  0  0  0  0  0  0  0
  -16.8185  -29.5803   24.1748 C   0  0  0  0  0  0  0  0  0  0  0  0
  -21.4387  -24.2910   22.0396 C   0  0  0  0  0  0  0  0  0  0  0  0
  -17.2376  -28.4983   23.3773 C   0  0  0  0  0  0  0  0  0  0  0  0
  -22.2555  -24.6493   20.9577 C   0  0  0  0  0  0  0  0  0  0  0  0
  -24.5076  -12.3822   20.9982 C   0  0  0  0  0  0  0  0  0  0  0  0
  -21.6957  -22.5549   19.8576 C   0  0  0  0  0  0  0  0  0  0  0  0
  -23.1923  -10.4352   21.0379 C   0  0  0  0  0  0  0  0  0  0  0  0
  -23.0354   -7.6501   21.0053 C   0  0  0  0  0  0  0  0  0  0  0  0
  -22.6030   -9.7574   22.1051 C   0  0  0  0  0  0  0  0  0  0  0  0
  -28.3529  -14.1379   20.8289 C   0  0  0  0  0  0  0  0  0  0  0  0
  -29.2645  -22.0151   19.7440 C   0  0  0  0  0  0  0  0  0  0  0  0
  -27.8043  -22.1022   18.1286 C   0  0  0  0  0  0  0  0  0  0  0  0
  -30.4300  -14.6416   20.3119 C   0  0  0  0  0  0  0  0  0  0  0  0
  -29.9138  -21.5492   20.9106 C   0  0  0  0  0  0  0  0  0  0  0  0
  -26.6410  -21.7265   17.3077 C   0  0  0  0  0  0  0  0  0  0  0  0
  -29.5694  -20.4520   21.6625 C   0  0  0  0  0  0  0  0  0  0  0  0
  -25.8125  -20.7014   17.5617 C   0  0  0  0  0  0  0  0  0  0  0  0
  -29.4775  -12.7584   18.9722 C   0  0  0  0  0  0  0  0  0  0  0  0
  -30.3601  -20.0857   22.8599 C   0  0  0  0  0  0  0  0  0  0  0  0
  -20.5225  -27.3327   22.1511 C   0  0  0  0  0  0  0  0  0  0  0  0
  -23.7102  -27.8780   22.4026 C   0  0  0  0  0  0  0  0  0  0  0  0
  -26.8910  -26.7826   21.8286 C   0  0  0  0  0  0  0  0  0  0  0  0
  -17.4618  -30.9403   24.0682 C   0  0  0  0  0  0  0  0  0  0  0  0
  -21.3144  -25.1978   23.2332 C   0  0  0  0  0  0  0  0  0  0  0  0
  -23.0072  -25.9541   20.9295 C   0  0  0  0  0  0  0  0  0  0  0  0
  -18.8274  -30.9163   23.3865 C   0  0  0  0  0  0  0  0  0  0  0  0
  -32.1440  -17.1820   23.9748 C   0  0  0  0  0  0  0  0  0  0  0  0
  -18.7745  -30.0759   22.1146 C   0  0  0  0  0  0  0  0  0  0  0  0
  -31.4441  -16.0359   23.2453 C   0  0  0  0  0  0  0  0  0  0  0  0
  -31.1635  -18.2906   24.3435 C   0  0  0  0  0  0  0  0  0  0  0  0
  -29.6903  -17.6815   22.4442 C   0  0  0  0  0  0  0  0  0  0  0  0
  -18.4115  -28.6199   22.4301 C   0  0  1  0  0  0  0  0  0  0  0  0
  -21.6277  -26.6557   22.9112 C   0  0  1  0  0  0  0  0  0  0  0  0
  -30.6537  -16.5551   22.0311 C   0  0  2  0  0  0  0  0  0  0  0  0
  -29.2899  -27.4635   22.1100 C   0  0  0  0  0  0  0  0  0  0  0  0
  -23.4437  -29.7859   20.0364 C   0  0  0  0  0  0  0  0  0  0  0  0
  -25.9309  -29.6878   19.7666 C   0  0  0  0  0  0  0  0  0  0  0  0
  -24.9409  -30.5978   21.8677 C   0  0  0  0  0  0  0  0  0  0  0  0
  -27.4631  -24.4685   23.5826 C   0  0  0  0  0  0  0  0  0  0  0  0
  -24.6332  -20.3580   16.6963 C   0  0  0  0  0  0  0  0  0  0  0  0
  -23.3333  -20.3780   17.4983 C   0  0  0  0  0  0  0  0  0  0  0  0
  -23.0491  -21.7597   18.0710 C   0  0  0  0  0  0  0  0  0  1  0  0
  -24.8355  -28.1111   21.4235 C   0  0  1  0  0  0  0  0  0  0  0  0
  -28.1134  -26.7231   22.7268 C   0  0  2  0  0  0  0  0  0  0  0  0
  -24.7722  -29.5218   20.7729 C   0  0  0  0  0  0  0  0  0  0  0  0
  -28.6649  -15.1489   21.6441 N   0  0  0  0  0  0  0  0  0  0  0  0
  -29.9341  -15.4331   21.3058 N   0  0  0  0  0  0  0  0  0  0  0  0
  -30.4048  -18.7350   23.1761 N   0  0  0  0  0  0  0  0  0  0  0  0
  -22.8484  -26.8095   22.1172 N   0  0  0  0  0  0  0  0  0  0  0  0
  -31.6896  -14.7923   19.8504 N   0  0  0  0  0  0  0  0  0  0  0  0
  -28.3442  -11.9624   18.7568 N   0  0  0  0  0  0  0  0  0  0  0  0
  -19.5612  -27.9148   22.9551 N   0  0  0  0  0  0  0  0  0  0  0  0
  -26.0715  -27.8435   22.1510 N   0  0  0  0  0  0  0  0  0  0  0  0
  -28.5180  -25.3075   22.9579 N   0  3  0  0  0  0  0  0  0  0  0  0
  -30.5134  -12.5471   18.2972 O   0  0  0  0  0  0  0  0  0  0  0  0
  -30.8923  -21.0191   23.4463 O   0  0  0  0  0  0  0  0  0  0  0  0
  -20.5413  -27.3286   20.9258 O   0  0  0  0  0  0  0  0  0  0  0  0
  -23.6042  -28.6123   23.3881 O   0  0  0  0  0  0  0  0  0  0  0  0
  -26.6858  -25.9713   20.9284 O   0  0  0  0  0  0  0  0  0  0  0  0
  -28.1631  -21.4020   19.2366 O   0  0  0  0  0  0  0  0  0  0  0  0
  -23.2702  -11.8178   21.0523 O   0  0  0  0  0  0  0  0  0  0  0  0
  -21.8193  -21.7157   18.7934 O   0  0  0  0  0  0  0  0  0  1  0  0
  -22.9588   -6.3129   20.9888 F   0  0  0  0  0  0  0  0  0  0  0  0
  -22.1095  -10.4386   23.1482 F   0  0  0  0  0  0  0  0  0  0  0  0
  1  2  1  0  0  0  0
  1  5  2  0  0  0  0
  2  6  2  0  0  0  0
  3  8  2  0  0  0  0
  3 17  1  0  0  0  0
  4  9  1  0  0  0  0
  4 17  2  0  0  0  0
  5 19  1  0  0  0  0
  6 21  1  0  0  0  0
  7 10  2  0  0  0  0
  7 20  1  0  0  0  0
  8 23  1  0  0  0  0
  9 23  2  0  0  0  0
 10 24  1  0  0  0  0
 11 12  2  0  0  0  0
 11 25  1  0  0  0  0
 12 26  1  0  0  0  0
 13 14  1  0  0  0  0
 13 29  2  0  0  0  0
 14 30  2  0  0  0  0
 15 22  1  0  0  0  0
 15 24  2  0  0  0  0
 16 26  2  0  0  0  0
 16 27  1  0  0  0  0
 17 28  1  0  0  0  0
 18 28  1  0  0  0  0
 18 31  2  0  0  0  0
 18 36  1  0  0  0  0
 19 21  2  0  0  0  0
 19 41  1  0  0  0  0
 20 22  2  0  0  0  0
 20 42  1  0  0  0  0
 21 50  1  0  0  0  0
 22 43  1  0  0  0  0
 23 79  1  0  0  0  0
 24 80  1  0  0  0  0
 25 27  2  0  0  0  0
 25 79  1  0  0  0  0
 26 81  1  0  0  0  0
 27 82  1  0  0  0  0
 28 64  2  0  0  0  0
 29 32  1  0  0  0  0
 29 78  1  0  0  0  0
 30 33  1  0  0  0  0
 30 78  1  0  0  0  0
 31 65  1  0  0  0  0
 31 68  1  0  0  0  0
 32 34  2  0  0  0  0
 33 35  2  0  0  0  0
 34 37  1  0  0  0  0
 35 58  1  0  0  0  0
 36 69  1  0  0  0  0
 36 73  2  0  0  0  0
 37 66  1  0  0  0  0
 37 74  2  0  0  0  0
 38 51  1  0  0  0  0
 38 70  1  0  0  0  0
 38 75  2  0  0  0  0
 39 61  1  0  0  0  0
 39 67  1  0  0  0  0
 39 76  2  0  0  0  0
 40 62  1  0  0  0  0
 40 71  1  0  0  0  0
 40 77  2  0  0  0  0
 41 44  1  0  0  0  0
 42 51  1  0  0  0  0
 43 67  1  0  0  0  0
 44 46  1  0  0  0  0
 45 47  1  0  0  0  0
 45 48  1  0  0  0  0
 46 50  1  0  0  0  0
 47 52  1  0  0  0  0
 48 66  1  0  0  0  0
 49 52  1  0  0  0  0
 49 66  1  0  0  0  0
 50 70  1  0  0  0  0
 51 67  1  0  0  0  0
 52 65  1  0  0  0  0
 53 62  1  0  0  0  0
 54 63  1  0  0  0  0
 55 63  1  0  0  0  0
 56 63  1  0  0  0  0
 57 72  1  0  0  0  0
 58 59  1  0  0  0  0
 59 60  1  0  0  0  0
 60 80  1  0  0  0  0
 61 63  1  0  0  0  0
 61 71  1  0  0  0  0
 62 72  1  0  0  0  0
 64 65  1  0  0  0  0
M  CHG  1  72   1
M  ISO  4  34 100  37 100  60 101  80 101
M  END
> <Batch ID>
0122

> <Smiles>
CNC(C)C(=O)NC(C(=O)N1Cc2cc([101O:1][101CH2:1]CCC=Cc3ccc(C=[100CH:0][100C:0](=O)N4CCCC(n5nc(-c6ccc(Oc7ccc(F)cc7F)cc6)c(C(N)=O)c5N)C4)o3)ccc2CC1C(=O)NC1CCCc2ccccc21)C(C)(C)C

> <Shape>
0.273

> <Color>
0.088

> <Negative vol penalty>
0.000

$$$$

  -OEChem-04052302003D

 86 95  0     1  0  0  0  0  0999 V2000
  -29.0165  -37.5289   24.8767 C   0  0  0  0  0  0  0  0  0  0  0  0
  -29.4892  -36.3599   24.2892 C   0  0  0  0  0  0  0  0  0  0  0  0
  -23.5899   -9.9434   22.2639 C   0  0  0  0  0  0  0  0  0  0  0  0
  -23.7518   -9.3859   19.9187 C   0  0  0  0  0  0  0  0  0  0  0  0
  -27.8421  -37.5048   25.6278 C   0  0  0  0  0  0  0  0  0  0  0  0
  -28.7883  -35.1656   24.4534 C   0  0  0  0  0  0  0  0  0  0  0  0
  -28.2137  -30.6422   20.3651 C   0  0  0  0  0  0  0  0  0  0  0  0
  -32.1372  -21.3270   21.5301 C   0  0  0  0  0  0  0  0  0  0  0  0
  -22.9965   -8.7067   22.5169 C   0  0  0  0  0  0  0  0  0  0  0  0
  -23.1585   -8.1491   20.1717 C   0  0  0  0  0  0  0  0  0  0  0  0
  -28.8803  -29.4275   20.2102 C   0  0  0  0  0  0  0  0  0  0  0  0
  -31.9802  -19.9482   21.3902 C   0  0  0  0  0  0  0  0  0  0  0  0
  -19.9443   -7.2938   22.1820 C   0  0  0  0  0  0  0  0  0  0  0  0
  -18.8213   -7.2717   23.0090 C   0  0  0  0  0  0  0  0  0  0  0  0
  -27.1168  -28.3123   21.4207 C   0  0  0  0  0  0  0  0  0  0  0  0
  -30.1671  -21.6885   20.1792 C   0  0  0  0  0  0  0  0  0  0  0  0
  -19.9850   -5.8202   24.5504 C   0  0  0  0  0  0  0  0  0  0  0  0
  -23.9675  -10.2830   20.9647 C   0  0  0  0  0  0  0  0  0  0  0  0
  -24.0265  -12.8332   20.9393 C   0  0  0  0  0  0  0  0  0  0  0  0
  -27.1213  -36.3116   25.7933 C   0  0  0  0  0  0  0  0  0  0  0  0
  -26.9970  -30.7029   21.0595 C   0  0  0  0  0  0  0  0  0  0  0  0
  -27.6039  -35.1252   25.2085 C   0  0  0  0  0  0  0  0  0  0  0  0
  -26.4355  -29.5285   21.5808 C   0  0  0  0  0  0  0  0  0  0  0  0
  -30.0100  -20.3096   20.0393 C   0  0  0  0  0  0  0  0  0  0  0  0
  -31.2306  -22.1972   20.9246 C   0  0  0  0  0  0  0  0  0  0  0  0
  -22.7809   -7.8095   21.4709 C   0  0  0  0  0  0  0  0  0  0  0  0
  -28.3334  -28.2628   20.7406 C   0  0  0  0  0  0  0  0  0  0  0  0
  -30.9166  -19.4394   20.6448 C   0  0  0  0  0  0  0  0  0  0  0  0
  -21.0877   -6.5790   22.5392 C   0  0  0  0  0  0  0  0  0  0  0  0
  -18.8416   -6.5349   24.1932 C   0  0  0  0  0  0  0  0  0  0  0  0
  -21.1080   -5.8422   23.7234 C   0  0  0  0  0  0  0  0  0  0  0  0
  -24.5800  -11.5606   20.7026 C   0  0  0  0  0  0  0  0  0  0  0  0
  -24.9969  -13.7122   20.5242 C   0  0  0  0  0  0  0  0  0  0  0  0
  -30.9697  -25.8433   21.0245 C   0  0  0  0  0  0  0  0  0  0  0  0
  -30.2406  -26.9608   21.1121 C   0  0  0  0  0  0  0  0  0  1  0  0
  -22.7495  -13.1889   21.4855 C   0  0  0  0  0  0  0  0  0  0  0  0
  -25.9889  -32.1666   23.6948 C   0  0  0  0  0  0  0  0  0  0  0  0
  -30.3725  -15.2542   20.4025 C   0  0  0  0  0  0  0  0  0  0  0  0
  -23.1091  -30.9860   22.7807 C   0  0  0  0  0  0  0  0  0  0  0  0
  -21.3670  -28.6334   21.0265 C   0  0  0  0  0  0  0  0  0  0  0  0
  -25.8824  -36.3252   26.6533 C   0  0  0  0  0  0  0  0  0  0  0  0
  -26.2771  -32.0166   21.1948 C   0  0  0  0  0  0  0  0  0  0  0  0
  -25.1217  -29.5367   22.3172 C   0  0  0  0  0  0  0  0  0  0  0  0
  -32.3487  -25.6700   21.5781 C   0  0  0  0  0  0  0  0  0  0  0  0
  -30.4836  -24.5412   20.4626 C   0  0  0  0  0  0  0  0  0  0  0  0
  -24.9983  -35.0947   26.4673 C   0  0  0  0  0  0  0  0  0  0  0  0
  -29.2471  -12.9425   17.9067 C   0  0  0  0  0  0  0  0  0  0  0  0
  -25.8410  -33.8234   26.4904 C   0  0  0  0  0  0  0  0  0  0  0  0
  -27.9015  -12.4589   18.4459 C   0  0  0  0  0  0  0  0  0  0  0  0
  -32.3925  -24.1837   21.9215 C   0  0  0  0  0  0  0  0  0  0  0  0
  -30.2414  -13.1983   19.0349 C   0  0  0  0  0  0  0  0  0  0  0  0
  -28.3994  -13.6633   20.6200 C   0  0  0  0  0  0  0  0  0  0  0  0
  -26.8585  -33.8151   25.3432 C   0  0  1  0  0  0  0  0  0  0  0  0
  -25.2993  -32.0444   22.3655 C   0  0  1  0  0  0  0  0  0  0  0  0
  -27.3559  -13.4223   19.5148 C   0  0  2  0  0  0  0  0  0  0  0  0
  -28.8652  -19.7821   19.2388 C   0  0  0  0  0  0  0  0  0  0  0  0
  -19.0246  -27.9029   20.5002 C   0  0  0  0  0  0  0  0  0  0  0  0
  -22.8686  -29.7599   25.5644 C   0  0  0  0  0  0  0  0  0  0  0  0
  -21.0358  -28.2979   24.6860 C   0  0  0  0  0  0  0  0  0  0  0  0
  -20.7592  -30.7770   24.6866 C   0  0  0  0  0  0  0  0  0  0  0  0
  -21.7535  -29.0859   18.1274 C   0  0  0  0  0  0  0  0  0  0  0  0
  -29.7264  -16.1352   21.4419 C   0  0  0  0  0  0  0  0  0  0  0  0
  -30.6058  -17.3414   21.7207 C   0  0  0  0  0  0  0  0  0  0  0  0
  -22.3479  -29.7075   23.0361 C   0  0  1  0  0  0  0  0  0  0  0  0
  -20.2041  -28.7552   20.0584 C   0  0  2  0  0  0  0  0  0  0  0  0
  -21.7786  -29.6354   24.4811 C   0  0  0  0  0  0  0  0  0  0  0  0
  -25.8067  -11.6213   20.1778 N   0  0  0  0  0  0  0  0  0  0  0  0
  -26.0321  -12.9427   20.0811 N   0  0  0  0  0  0  0  0  0  0  0  0
  -31.3866  -23.5625   21.0631 N   0  0  3  0  0  0  0  0  0  0  0  0
  -24.4592  -30.8467   22.4287 N   0  0  0  0  0  0  0  0  0  0  0  0
  -29.6774  -14.1001   20.0408 N   0  0  0  0  0  0  0  0  0  0  0  0
  -25.0571  -15.0606   20.4987 N   0  0  0  0  0  0  0  0  0  0  0  0
  -21.8734  -12.1612   21.8604 N   0  0  0  0  0  0  0  0  0  0  0  0
  -26.2109  -33.4702   24.0957 N   0  0  0  0  0  0  0  0  0  0  0  0
  -21.3351  -29.6195   21.9897 N   0  0  0  0  0  0  0  0  0  0  0  0
  -20.6167  -28.3163   18.6953 N   0  3  0  0  0  0  0  0  0  0  0  0
  -22.3893  -14.3828   21.6215 O   0  0  0  0  0  0  0  0  0  0  0  0
  -26.2954  -31.1532   24.3119 O   0  0  0  0  0  0  0  0  0  0  0  0
  -31.4610  -15.5851   19.9252 O   0  0  0  0  0  0  0  0  0  0  0  0
  -22.5255  -32.0679   22.8825 O   0  0  0  0  0  0  0  0  0  0  0  0
  -22.2164  -27.7494   20.9394 O   0  0  0  0  0  0  0  0  0  0  0  0
  -22.2021   -6.6025   21.7175 O   0  0  0  0  0  0  0  0  0  0  0  0
  -28.9823  -27.0760   20.5914 O   0  0  0  0  0  0  0  0  0  1  0  0
  -30.7779  -18.0897   20.5190 O   0  0  0  0  0  0  0  0  0  0  0  0
  -17.7637   -6.5151   24.9880 F   0  0  0  0  0  0  0  0  0  0  0  0
  -22.2039   -5.1545   24.0724 F   0  0  0  0  0  0  0  0  0  0  0  0
  1  2  1  0  0  0  0
  1  5  2  0  0  0  0
  2  6  2  0  0  0  0
  3  9  2  0  0  0  0
  3 18  1  0  0  0  0
  4 10  1  0  0  0  0
  4 18  2  0  0  0  0
  5 20  1  0  0  0  0
  6 22  1  0  0  0  0
  7 11  2  0  0  0  0
  7 21  1  0  0  0  0
  8 12  2  0  0  0  0
  8 25  1  0  0  0  0
  9 26  1  0  0  0  0
 10 26  2  0  0  0  0
 11 27  1  0  0  0  0
 12 28  1  0  0  0  0
 13 14  2  0  0  0  0
 13 29  1  0  0  0  0
 14 30  1  0  0  0  0
 15 23  1  0  0  0  0
 15 27  2  0  0  0  0
 16 24  1  0  0  0  0
 16 25  2  0  0  0  0
 17 30  2  0  0  0  0
 17 31  1  0  0  0  0
 18 32  1  0  0  0  0
 19 32  1  0  0  0  0
 19 33  2  0  0  0  0
 19 36  1  0  0  0  0
 20 22  2  0  0  0  0
 20 41  1  0  0  0  0
 21 23  2  0  0  0  0
 21 42  1  0  0  0  0
 22 53  1  0  0  0  0
 23 43  1  0  0  0  0
 24 28  2  0  0  0  0
 24 56  1  0  0  0  0
 25 69  1  0  0  0  0
 26 82  1  0  0  0  0
 27 83  1  0  0  0  0
 28 84  1  0  0  0  0
 29 31  2  0  0  0  0
 29 82  1  0  0  0  0
 30 85  1  0  0  0  0
 31 86  1  0  0  0  0
 32 67  2  0  0  0  0
 33 68  1  0  0  0  0
 33 72  1  0  0  0  0
 34 35  2  0  0  0  0
 34 44  1  0  0  0  0
 34 45  1  0  0  0  0
 35 83  1  0  0  0  0
 36 73  1  0  0  0  0
 36 77  2  0  0  0  0
 37 54  1  0  0  0  0
 37 74  1  0  0  0  0
 37 78  2  0  0  0  0
 38 62  1  0  0  0  0
 38 71  1  0  0  0  0
 38 79  2  0  0  0  0
 39 64  1  0  0  0  0
 39 70  1  0  0  0  0
 39 80  2  0  0  0  0
 40 65  1  0  0  0  0
 40 75  1  0  0  0  0
 40 81  2  0  0  0  0
 41 46  1  0  0  0  0
 42 54  1  0  0  0  0
 43 70  1  0  0  0  0
 44 50  1  0  0  0  0
 45 69  1  0  0  0  0
 46 48  1  0  0  0  0
 47 49  1  0  0  0  0
 47 51  1  0  0  0  0
 48 53  1  0  0  0  0
 49 55  1  0  0  0  0
 50 69  1  0  0  0  0
 51 71  1  0  0  0  0
 52 55  1  0  0  0  0
 52 71  1  0  0  0  0
 53 74  1  0  0  0  0
 54 70  1  0  0  0  0
 55 68  1  0  0  0  0
 57 65  1  0  0  0  0
 58 66  1  0  0  0  0
 59 66  1  0  0  0  0
 60 66  1  0  0  0  0
 61 76  1  0  0  0  0
 62 63  1  0  0  0  0
 63 84  1  0  0  0  0
 64 66  1  0  0  0  0
 64 75  1  0  0  0  0
 65 76  1  0  0  0  0
 67 68  1  0  0  0  0
M  CHG  1  76   1
M  ISO  4  35 101  38 100  62 100  83 101
M  END
> <Batch ID>
0122

> <Smiles>
CNC(C)C(=O)NC(C(=O)N1Cc2cc([101O:1][101CH:1]=C3CCN(c4ccc(OC[100CH2:0][100C:0](=O)N5CCCC(n6nc(-c7ccc(Oc8ccc(F)cc8F)cc7)c(C(N)=O)c6N)C5)c(C)c4)C3)ccc2CC1C(=O)NC1CCCc2ccccc21)C(C)(C)C

> <Shape>
0.365

> <Color>
0.214

> <Negative vol penalty>
0.000

$$$$

  -OEChem-04052302003D

 82 90  0     1  0  0  0  0  0999 V2000
  -38.0424  -20.1284   38.0829 C   0  0  0  0  0  0  0  0  0  0  0  0
  -37.2421  -20.0320   36.9491 C   0  0  0  0  0  0  0  0  0  0  0  0
  -23.0760   -9.8682   19.9408 C   0  0  0  0  0  0  0  0  0  0  0  0
  -23.8345   -9.8755   22.2347 C   0  0  0  0  0  0  0  0  0  0  0  0
  -39.2210  -19.3883   38.1678 C   0  0  0  0  0  0  0  0  0  0  0  0
  -37.6205  -19.1963   35.8989 C   0  0  0  0  0  0  0  0  0  0  0  0
  -33.9152  -15.9663   32.2460 C   0  0  0  0  0  0  0  0  0  0  0  0
  -32.6509  -17.4914   23.4581 C   0  0  0  0  0  0  0  0  0  0  0  0
  -32.0633  -16.6076   22.5529 C   0  0  0  0  0  0  0  0  0  0  0  0
  -22.3317   -8.7153   20.1906 C   0  0  0  0  0  0  0  0  0  0  0  0
  -23.0902   -8.7226   22.4845 C   0  0  0  0  0  0  0  0  0  0  0  0
  -33.4194  -16.2053   30.9650 C   0  0  0  0  0  0  0  0  0  0  0  0
  -19.8615   -7.9257   23.0852 C   0  0  0  0  0  0  0  0  0  0  0  0
  -19.1038   -7.8862   24.2557 C   0  0  0  0  0  0  0  0  0  0  0  0
  -35.2009  -14.8719   30.0334 C   0  0  0  0  0  0  0  0  0  0  0  0
  -29.8794  -17.4570   23.1415 C   0  0  0  0  0  0  0  0  0  0  0  0
  -20.3443   -5.9486   24.9933 C   0  0  0  0  0  0  0  0  0  0  0  0
  -23.8275  -10.4483   20.9629 C   0  0  0  0  0  0  0  0  0  0  0  0
  -24.1700  -12.9733   20.8425 C   0  0  0  0  0  0  0  0  0  0  0  0
  -39.6091  -18.5358   37.1223 C   0  0  0  0  0  0  0  0  0  0  0  0
  -35.0658  -15.1861   32.4298 C   0  0  0  0  0  0  0  0  0  0  0  0
  -38.8060  -18.4452   35.9693 C   0  0  0  0  0  0  0  0  0  0  0  0
  -35.7077  -14.6224   31.3179 C   0  0  0  0  0  0  0  0  0  0  0  0
  -31.8528  -18.3578   24.2050 C   0  0  0  0  0  0  0  0  0  0  0  0
  -30.6776  -16.5904   22.3946 C   0  0  0  0  0  0  0  0  0  0  0  0
  -30.4671  -18.3407   24.0467 C   0  0  0  0  0  0  0  0  0  0  0  0
  -22.3388   -8.1425   21.4624 C   0  0  0  0  0  0  0  0  0  0  0  0
  -34.0639  -15.6604   29.8583 C   0  0  0  0  0  0  0  0  0  0  0  0
  -20.8605   -6.9766   22.8688 C   0  0  0  0  0  0  0  0  0  0  0  0
  -19.3452   -6.8977   25.2097 C   0  0  0  0  0  0  0  0  0  0  0  0
  -21.1019   -5.9881   23.8228 C   0  0  0  0  0  0  0  0  0  0  0  0
  -24.5970  -11.6389   20.7053 C   0  0  0  0  0  0  0  0  0  0  0  0
  -25.2626  -13.7224   20.4797 C   0  0  0  0  0  0  0  0  0  0  0  0
  -22.8994  -13.4895   21.2605 C   0  0  0  0  0  0  0  0  0  0  0  0
  -37.9594  -15.7063   33.6382 C   0  0  0  0  0  0  0  0  0  0  0  0
  -38.2983  -12.5129   33.1799 C   0  0  0  0  0  0  0  0  0  0  0  0
  -37.3245   -9.7080   31.4974 C   0  0  0  0  0  0  0  0  0  0  0  0
  -30.7289  -14.7667   20.6574 C   0  0  0  0  0  0  0  0  0  0  0  0
  -40.9157  -17.7917   37.2393 C   0  0  0  0  0  0  0  0  0  0  0  0
  -35.5724  -14.9156   33.8200 C   0  0  0  0  0  0  0  0  0  0  0  0
  -36.9346  -13.7609   31.4629 C   0  0  0  0  0  0  0  0  0  0  0  0
  -41.0546  -16.6440   36.2424 C   0  0  0  0  0  0  0  0  0  0  0  0
  -29.6153  -12.3526   18.2890 C   0  0  0  0  0  0  0  0  0  0  0  0
  -40.6407  -17.0970   34.8459 C   0  0  0  0  0  0  0  0  0  0  0  0
  -28.1754  -12.0615   18.7178 C   0  0  0  0  0  0  0  0  0  0  0  0
  -30.5298  -12.5815   19.4912 C   0  0  0  0  0  0  0  0  0  0  0  0
  -28.6222  -13.3067   20.8711 C   0  0  0  0  0  0  0  0  0  0  0  0
  -39.1701  -17.5308   34.8198 C   0  0  1  0  0  0  0  0  0  0  0  0
  -37.0483  -14.5310   33.8538 C   0  0  1  0  0  0  0  0  0  0  0  0
  -27.6500  -13.1334   19.6928 C   0  0  2  0  0  0  0  0  0  0  0  0
  -37.8095   -7.2527   31.3143 C   0  0  0  0  0  0  0  0  0  0  0  0
  -40.8405  -13.1345   31.6111 C   0  0  0  0  0  0  0  0  0  0  0  0
  -40.7473  -10.8141   30.6756 C   0  0  0  0  0  0  0  0  0  0  0  0
  -41.0107  -11.1569   33.1324 C   0  0  0  0  0  0  0  0  0  0  0  0
  -34.5707   -8.9856   32.3058 C   0  0  0  0  0  0  0  0  0  0  0  0
  -32.5148  -19.3028   25.1760 C   0  0  0  0  0  0  0  0  0  0  0  0
  -32.3890  -18.8729   26.6418 C   0  0  0  0  0  0  0  0  0  0  0  0
  -33.0827  -17.5423   26.9370 C   0  0  0  0  0  0  0  0  0  0  0  0
  -32.9028  -17.1287   28.3914 C   0  0  0  0  0  0  0  0  0  1  0  0
  -38.7799  -11.6408   32.0457 C   0  0  1  0  0  0  0  0  0  0  0  0
  -36.9561   -8.3182   31.9844 C   0  0  2  0  0  0  0  0  0  0  0  0
  -40.3226  -11.7044   31.8630 C   0  0  0  0  0  0  0  0  0  0  0  0
  -25.8621  -11.5427   20.2878 N   0  0  0  0  0  0  0  0  0  0  0  0
  -26.2394  -12.8261   20.1594 N   0  0  0  0  0  0  0  0  0  0  0  0
  -37.3951  -13.5307   32.8422 N   0  0  0  0  0  0  0  0  0  0  0  0
  -29.9705  -13.6126   20.3680 N   0  0  0  0  0  0  0  0  0  0  0  0
  -29.6440  -19.2104   24.7956 N   0  0  0  0  0  0  0  0  0  0  0  0
  -25.4734  -15.0538   20.4065 N   0  0  0  0  0  0  0  0  0  0  0  0
  -21.8871  -12.5807   21.5974 N   0  0  0  0  0  0  0  0  0  0  0  0
  -30.0813  -15.6921   21.4752 N   0  0  0  0  0  0  0  0  0  0  0  0
  -38.3020  -16.3730   34.7990 N   0  0  0  0  0  0  0  0  0  0  0  0
  -38.2644  -10.3024   32.3126 N   0  0  0  0  0  0  0  0  0  0  0  0
  -35.5245   -8.0283   31.6886 N   0  3  0  0  0  0  0  0  0  0  0  0
  -22.6634  -14.7202   21.3174 O   0  0  0  0  0  0  0  0  0  0  0  0
  -38.3257  -15.9865   32.5028 O   0  0  0  0  0  0  0  0  0  0  0  0
  -38.7030  -12.2945   34.3245 O   0  0  0  0  0  0  0  0  0  0  0  0
  -36.8309  -10.2142   30.4920 O   0  0  0  0  0  0  0  0  0  0  0  0
  -31.8583  -14.9350   20.1905 O   0  0  0  0  0  0  0  0  0  0  0  0
  -21.6124   -7.0176   21.7066 O   0  0  0  0  0  0  0  0  0  0  0  0
  -33.5825  -15.8927   28.6068 O   0  0  0  0  0  0  0  0  0  1  0  0
  -18.6186   -6.8609   26.3344 F   0  0  0  0  0  0  0  0  0  0  0  0
  -22.0612   -5.0743   23.6210 F   0  0  0  0  0  0  0  0  0  0  0  0
  1  2  1  0  0  0  0
  1  5  2  0  0  0  0
  2  6  2  0  0  0  0
  3 10  2  0  0  0  0
  3 18  1  0  0  0  0
  4 11  1  0  0  0  0
  4 18  2  0  0  0  0
  5 20  1  0  0  0  0
  6 22  1  0  0  0  0
  7 12  2  0  0  0  0
  7 21  1  0  0  0  0
  8  9  2  0  0  0  0
  8 24  1  0  0  0  0
  9 25  1  0  0  0  0
 10 27  1  0  0  0  0
 11 27  2  0  0  0  0
 12 28  1  0  0  0  0
 13 14  2  0  0  0  0
 13 29  1  0  0  0  0
 14 30  1  0  0  0  0
 15 23  1  0  0  0  0
 15 28  2  0  0  0  0
 16 25  2  0  0  0  0
 16 26  1  0  0  0  0
 17 30  2  0  0  0  0
 17 31  1  0  0  0  0
 18 32  1  0  0  0  0
 19 32  1  0  0  0  0
 19 33  2  0  0  0  0
 19 34  1  0  0  0  0
 20 22  2  0  0  0  0
 20 39  1  0  0  0  0
 21 23  2  0  0  0  0
 21 40  1  0  0  0  0
 22 48  1  0  0  0  0
 23 41  1  0  0  0  0
 24 26  2  0  0  0  0
 24 56  1  0  0  0  0
 25 70  1  0  0  0  0
 26 67  1  0  0  0  0
 27 79  1  0  0  0  0
 28 80  1  0  0  0  0
 29 31  2  0  0  0  0
 29 79  1  0  0  0  0
 30 81  1  0  0  0  0
 31 82  1  0  0  0  0
 32 63  2  0  0  0  0
 33 64  1  0  0  0  0
 33 68  1  0  0  0  0
 34 69  1  0  0  0  0
 34 74  2  0  0  0  0
 35 49  1  0  0  0  0
 35 71  1  0  0  0  0
 35 75  2  0  0  0  0
 36 60  1  0  0  0  0
 36 65  1  0  0  0  0
 36 76  2  0  0  0  0
 37 61  1  0  0  0  0
 37 72  1  0  0  0  0
 37 77  2  0  0  0  0
 38 66  1  0  0  0  0
 38 70  1  0  0  0  0
 38 78  2  0  0  0  0
 39 42  1  0  0  0  0
 40 49  1  0  0  0  0
 41 65  1  0  0  0  0
 42 44  1  0  0  0  0
 43 45  1  0  0  0  0
 43 46  1  0  0  0  0
 44 48  1  0  0  0  0
 45 50  1  0  0  0  0
 46 66  1  0  0  0  0
 47 50  1  0  0  0  0
 47 66  1  0  0  0  0
 48 71  1  0  0  0  0
 49 65  1  0  0  0  0
 50 64  1  0  0  0  0
 51 61  1  0  0  0  0
 52 62  1  0  0  0  0
 53 62  1  0  0  0  0
 54 62  1  0  0  0  0
 55 73  1  0  0  0  0
 56 57  1  0  0  0  0
 57 58  1  0  0  0  0
 58 59  1  0  0  0  0
 59 80  1  0  0  0  0
 60 62  1  0  0  0  0
 60 72  1  0  0  0  0
 61 73  1  0  0  0  0
 63 64  1  0  0  0  0
M  CHG  1  73   1
M  ISO  4  38 100  59 101  70 100  80 101
M  END
> <Batch ID>
0122

> <Smiles>
CNC(C)C(=O)NC(C(=O)N1Cc2cc([101O:1][101CH2:1]CCCc3ccc([100NH:0][100C:0](=O)N4CCCC(n5nc(-c6ccc(Oc7ccc(F)cc7F)cc6)c(C(N)=O)c5N)C4)cc3N)ccc2CC1C(=O)NC1CCCc2ccccc21)C(C)(C)C

> <Shape>
0.167

> <Color>
0.192

> <Negative vol penalty>
0.000

$$$$

  -OEChem-04052302003D

 83 91  0     1  0  0  0  0  0999 V2000
  -22.1128  -18.0825   19.0237 C   0  0  0  0  0  0  0  0  0  0  0  0
  -23.0910  -19.0617   18.8834 C   0  0  0  0  0  0  0  0  0  0  0  0
  -23.3002   -9.7646   20.0141 C   0  0  0  0  0  0  0  0  0  0  0  0
  -24.1525   -9.5950   22.2684 C   0  0  0  0  0  0  0  0  0  0  0  0
  -30.6106  -19.4901   16.5168 C   0  0  0  0  0  0  0  0  0  0  0  0
  -20.7665  -18.4435   19.0580 C   0  0  0  0  0  0  0  0  0  0  0  0
  -22.7234  -20.4025   18.7762 C   0  0  0  0  0  0  0  0  0  0  0  0
  -25.5758  -23.4353   21.6589 C   0  0  0  0  0  0  0  0  0  0  0  0
  -31.6520  -20.3489   16.1655 C   0  0  0  0  0  0  0  0  0  0  0  0
  -23.0071   -8.4010   20.0223 C   0  0  0  0  0  0  0  0  0  0  0  0
  -23.8593   -8.2313   22.2766 C   0  0  0  0  0  0  0  0  0  0  0  0
  -26.8476  -23.7535   21.1843 C   0  0  0  0  0  0  0  0  0  0  0  0
  -23.0034   -4.7774   23.0225 C   0  0  0  0  0  0  0  0  0  0  0  0
  -22.3801   -4.2541   24.1552 C   0  0  0  0  0  0  0  0  0  0  0  0
  -29.5646  -21.2712   17.7702 C   0  0  0  0  0  0  0  0  0  0  0  0
  -26.0194  -25.8830   20.4106 C   0  0  0  0  0  0  0  0  0  0  0  0
  -20.5111   -5.7472   23.8164 C   0  0  0  0  0  0  0  0  0  0  0  0
  -23.8729  -10.3617   21.1372 C   0  0  0  0  0  0  0  0  0  0  0  0
  -29.5668  -19.9513   17.3191 C   0  0  0  0  0  0  0  0  0  0  0  0
  -30.6062  -22.1300   17.4189 C   0  0  0  0  0  0  0  0  0  0  0  0
  -23.3324  -12.8240   21.5278 C   0  0  0  0  0  0  0  0  0  0  0  0
  -20.3827  -19.7903   18.9609 C   0  0  0  0  0  0  0  0  0  0  0  0
  -24.5121  -24.3356   21.5030 C   0  0  0  0  0  0  0  0  0  0  0  0
  -21.3706  -20.7817   18.8079 C   0  0  0  0  0  0  0  0  0  0  0  0
  -24.7357  -25.5749   20.8864 C   0  0  0  0  0  0  0  0  0  0  0  0
  -31.6499  -21.6688   16.6166 C   0  0  0  0  0  0  0  0  0  0  0  0
  -23.2866   -7.6343   21.1535 C   0  0  0  0  0  0  0  0  0  0  0  0
  -27.0688  -24.9763   20.5575 C   0  0  0  0  0  0  0  0  0  0  0  0
  -22.3807   -5.7857   22.2867 C   0  0  0  0  0  0  0  0  0  0  0  0
  -21.1339   -4.7390   24.5522 C   0  0  0  0  0  0  0  0  0  0  0  0
  -21.1345   -6.2705   22.6837 C   0  0  0  0  0  0  0  0  0  0  0  0
  -24.1765  -11.7702   21.1291 C   0  0  0  0  0  0  0  0  0  0  0  0
  -24.0821  -13.9578   21.3305 C   0  0  0  0  0  0  0  0  0  0  0  0
  -28.4814  -19.0547   17.6847 C   0  0  0  0  0  0  0  0  0  0  0  0
  -30.5760  -23.5174   17.9108 C   0  0  0  0  0  0  0  0  0  0  0  0
  -28.5351  -17.7061   17.6526 C   0  0  0  0  0  0  0  0  0  0  0  0
  -29.6170  -24.4149   17.6343 C   0  0  0  0  0  0  0  0  0  0  0  0
  -21.9907  -12.7817   22.0314 C   0  0  0  0  0  0  0  0  0  0  0  0
  -27.3476  -16.9315   18.0656 C   0  0  0  0  0  0  0  0  0  0  0  0
  -21.7175  -24.2654   19.9899 C   0  0  0  0  0  0  0  0  0  0  0  0
  -21.2856  -27.1189   21.4707 C   0  0  0  0  0  0  0  0  0  0  0  0
  -22.6873  -29.8700   22.9246 C   0  0  0  0  0  0  0  0  0  0  0  0
  -18.9127  -20.1276   18.9555 C   0  0  0  0  0  0  0  0  0  0  0  0
  -23.1523  -23.9885   22.0443 C   0  0  0  0  0  0  0  0  0  0  0  0
  -23.6319  -26.5848   20.7124 C   0  0  0  0  0  0  0  0  0  0  0  0
  -18.6259  -21.6048   19.2122 C   0  0  0  0  0  0  0  0  0  0  0  0
  -28.9860  -14.5422   20.3103 C   0  0  0  0  0  0  0  0  0  0  0  0
  -19.5387  -22.4817   18.3610 C   0  0  0  0  0  0  0  0  0  0  0  0
  -27.8056  -13.6640   20.7167 C   0  0  0  0  0  0  0  0  0  0  0  0
  -28.8600  -15.0394   18.8711 C   0  0  0  0  0  0  0  0  0  0  0  0
  -26.3918  -14.8608   18.9994 C   0  0  0  0  0  0  0  0  0  0  0  0
  -21.0128  -22.2491   18.7136 C   0  0  1  0  0  0  0  0  0  0  0  0
  -22.0252  -24.7667   21.3725 C   0  0  1  0  0  0  0  0  0  0  0  0
  -26.4745  -14.3879   20.4591 C   0  0  1  0  0  0  0  0  0  0  0  0
  -32.7829  -22.5604   16.2212 C   0  0  0  0  0  0  0  0  0  0  0  0
  -22.0800  -32.0506   24.0079 C   0  0  0  0  0  0  0  0  0  0  0  0
  -20.6708  -28.3073   18.7285 C   0  0  0  0  0  0  0  0  0  0  0  0
  -21.0124  -30.5828   19.7152 C   0  0  0  0  0  0  0  0  0  0  0  0
  -19.1864  -29.1149   20.5720 C   0  0  0  0  0  0  0  0  0  0  0  0
  -23.9599  -29.0882   25.4796 C   0  0  0  0  0  0  0  0  0  0  0  0
  -29.6321  -25.8285   18.1485 C   0  0  0  0  0  0  0  0  0  0  0  0
  -28.3787  -26.1476   18.9549 C   0  0  0  0  0  0  0  0  0  1  0  0
  -21.5889  -28.5577   21.1286 C   0  0  1  0  0  0  0  0  0  0  0  0
  -22.3904  -30.5790   24.2337 C   0  0  2  0  0  0  0  0  0  0  0  0
  -20.6352  -29.1210   20.0375 C   0  0  0  0  0  0  0  0  0  0  0  0
  -25.3709  -12.1965   20.7102 N   0  0  0  0  0  0  0  0  0  0  0  0
  -25.2828  -13.5308   20.8444 N   0  0  0  0  0  0  0  0  0  0  0  0
  -27.5557  -15.6759   18.6337 N   0  0  0  0  0  0  0  0  0  0  0  0
  -22.3187  -26.1963   21.2528 N   0  0  0  0  0  0  0  0  0  0  0  0
  -23.8249  -15.2683   21.5272 N   0  0  0  0  0  0  0  0  0  0  0  0
  -21.3687  -11.5336   22.1718 N   0  0  0  0  0  0  0  0  0  0  0  0
  -21.3526  -22.9334   19.9427 N   0  0  0  0  0  0  0  0  0  0  0  0
  -21.5558  -29.2926   22.3885 N   0  0  0  0  0  0  0  0  0  0  0  0
  -23.5594  -30.4809   25.1527 N   0  3  0  0  0  0  0  0  0  0  0  0
  -21.3561  -13.8212   22.3320 O   0  0  0  0  0  0  0  0  0  0  0  0
  -26.2419  -17.4422   17.8777 O   0  0  0  0  0  0  0  0  0  0  0  0
  -21.8034  -25.0307   19.0367 O   0  0  0  0  0  0  0  0  0  0  0  0
  -20.1756  -26.8256   21.9217 O   0  0  0  0  0  0  0  0  0  0  0  0
  -23.8099  -29.8353   22.4256 O   0  0  0  0  0  0  0  0  0  0  0  0
  -23.0006   -6.3036   21.1619 O   0  0  0  0  0  0  0  0  0  0  0  0
  -28.3090  -25.2892   20.0927 O   0  0  0  0  0  0  0  0  0  1  0  0
  -20.5346   -4.2352   25.6391 F   0  0  0  0  0  0  0  0  0  0  0  0
  -20.5308   -7.2382   21.9802 F   0  0  0  0  0  0  0  0  0  0  0  0
  1  2  1  0  0  0  0
  1  6  2  0  0  0  0
  2  7  2  0  0  0  0
  3 10  2  0  0  0  0
  3 18  1  0  0  0  0
  4 11  1  0  0  0  0
  4 18  2  0  0  0  0
  5  9  2  0  0  0  0
  5 19  1  0  0  0  0
  6 22  1  0  0  0  0
  7 24  1  0  0  0  0
  8 12  2  0  0  0  0
  8 23  1  0  0  0  0
  9 26  1  0  0  0  0
 10 27  1  0  0  0  0
 11 27  2  0  0  0  0
 12 28  1  0  0  0  0
 13 14  2  0  0  0  0
 13 29  1  0  0  0  0
 14 30  1  0  0  0  0
 15 19  2  0  0  0  0
 15 20  1  0  0  0  0
 16 25  1  0  0  0  0
 16 28  2  0  0  0  0
 17 30  2  0  0  0  0
 17 31  1  0  0  0  0
 18 32  1  0  0  0  0
 19 34  1  0  0  0  0
 20 26  2  0  0  0  0
 20 35  1  0  0  0  0
 21 32  1  0  0  0  0
 21 33  2  0  0  0  0
 21 38  1  0  0  0  0
 22 24  2  0  0  0  0
 22 43  1  0  0  0  0
 23 25  2  0  0  0  0
 23 44  1  0  0  0  0
 24 52  1  0  0  0  0
 25 45  1  0  0  0  0
 26 55  1  0  0  0  0
 27 80  1  0  0  0  0
 28 81  1  0  0  0  0
 29 31  2  0  0  0  0
 29 80  1  0  0  0  0
 30 82  1  0  0  0  0
 31 83  1  0  0  0  0
 32 66  2  0  0  0  0
 33 67  1  0  0  0  0
 33 70  1  0  0  0  0
 34 36  2  0  0  0  0
 35 37  2  0  0  0  0
 36 39  1  0  0  0  0
 37 61  1  0  0  0  0
 38 71  1  0  0  0  0
 38 75  2  0  0  0  0
 39 68  1  0  0  0  0
 39 76  2  0  0  0  0
 40 53  1  0  0  0  0
 40 72  1  0  0  0  0
 40 77  2  0  0  0  0
 41 63  1  0  0  0  0
 41 69  1  0  0  0  0
 41 78  2  0  0  0  0
 42 64  1  0  0  0  0
 42 73  1  0  0  0  0
 42 79  2  0  0  0  0
 43 46  1  0  0  0  0
 44 53  1  0  0  0  0
 45 69  1  0  0  0  0
 46 48  1  0  0  0  0
 47 49  1  0  0  0  0
 47 50  1  0  0  0  0
 48 52  1  0  0  0  0
 49 54  1  0  0  0  0
 50 68  1  0  0  0  0
 51 54  1  0  0  0  0
 51 68  1  0  0  0  0
 52 72  1  0  0  0  0
 53 69  1  0  0  0  0
 54 67  1  0  0  0  0
 56 64  1  0  0  0  0
 57 65  1  0  0  0  0
 58 65  1  0  0  0  0
 59 65  1  0  0  0  0
 60 74  1  0  0  0  0
 61 62  1  0  0  0  0
 62 81  1  0  0  0  0
 63 65  1  0  0  0  0
 63 73  1  0  0  0  0
 64 74  1  0  0  0  0
 66 67  1  0  0  0  0
M  CHG  1  74   1
M  ISO  4  36 100  39 100  62 101  81 101
M  END
> <Batch ID>
0122

> <Smiles>
CNC(C)C(=O)NC(C(=O)N1Cc2cc([101O:1][101CH2:1]CC=Cc3cc(C=[100CH:0][100C:0](=O)N4CCCC(n5nc(-c6ccc(Oc7ccc(F)cc7F)cc6)c(C(N)=O)c5N)C4)ccc3C)ccc2CC1C(=O)NC1CCCc2ccccc21)C(C)(C)C

> <Shape>
0.216

> <Color>
0.088

> <Negative vol penalty>
0.000

$$$$

  -OEChem-04052302003D

 86 94  0     1  0  0  0  0  0999 V2000
  -29.9595  -33.9455   25.1059 C   0  0  0  0  0  0  0  0  0  0  0  0
  -29.4663  -32.7763   24.5358 C   0  0  0  0  0  0  0  0  0  0  0  0
  -22.9882  -10.1548   19.9031 C   0  0  0  0  0  0  0  0  0  0  0  0
  -24.3510   -9.6292   21.8275 C   0  0  0  0  0  0  0  0  0  0  0  0
  -28.8096  -20.4589   21.4484 C   0  0  0  0  0  0  0  0  0  0  0  0
  -29.0911  -34.8255   25.7505 C   0  0  0  0  0  0  0  0  0  0  0  0
  -28.1045  -32.4858   24.6109 C   0  0  0  0  0  0  0  0  0  0  0  0
  -26.2215  -30.8483   20.2044 C   0  0  0  0  0  0  0  0  0  0  0  0
  -28.7840  -19.0932   21.7309 C   0  0  0  0  0  0  0  0  0  0  0  0
  -22.3732   -8.9065   19.9977 C   0  0  0  0  0  0  0  0  0  0  0  0
  -23.7359   -8.3809   21.9222 C   0  0  0  0  0  0  0  0  0  0  0  0
  -26.4776  -29.5229   19.8557 C   0  0  0  0  0  0  0  0  0  0  0  0
  -20.8218   -7.1235   23.0829 C   0  0  0  0  0  0  0  0  0  0  0  0
  -20.4187   -6.6956   24.3478 C   0  0  0  0  0  0  0  0  0  0  0  0
  -29.2243  -19.9693   19.1192 C   0  0  0  0  0  0  0  0  0  0  0  0
  -24.2695  -28.9053   20.6054 C   0  0  0  0  0  0  0  0  0  0  0  0
  -21.8662   -4.7705   24.1578 C   0  0  0  0  0  0  0  0  0  0  0  0
  -23.9772  -10.5162   20.8180 C   0  0  0  0  0  0  0  0  0  0  0  0
  -29.0297  -20.8970   20.1425 C   0  0  0  0  0  0  0  0  0  0  0  0
  -24.2054  -13.0034   21.3367 C   0  0  0  0  0  0  0  0  0  0  0  0
  -27.7166  -34.5504   25.8251 C   0  0  0  0  0  0  0  0  0  0  0  0
  -24.9893  -31.2108   20.7672 C   0  0  0  0  0  0  0  0  0  0  0  0
  -27.2172  -33.3623   25.2582 C   0  0  0  0  0  0  0  0  0  0  0  0
  -23.9993  -30.2364   20.9579 C   0  0  0  0  0  0  0  0  0  0  0  0
  -28.9785  -18.1655   20.7076 C   0  0  0  0  0  0  0  0  0  0  0  0
  -29.1987  -18.6036   19.4017 C   0  0  0  0  0  0  0  0  0  0  0  0
  -22.7470   -8.0195   21.0073 C   0  0  0  0  0  0  0  0  0  0  0  0
  -25.5026  -28.5507   20.0589 C   0  0  0  0  0  0  0  0  0  0  0  0
  -21.7470   -6.3749   22.3554 C   0  0  0  0  0  0  0  0  0  0  0  0
  -20.9409   -5.5191   24.8853 C   0  0  0  0  0  0  0  0  0  0  0  0
  -22.2692   -5.1984   22.8929 C   0  0  0  0  0  0  0  0  0  0  0  0
  -24.6134  -11.8053   20.7204 C   0  0  0  0  0  0  0  0  0  0  0  0
  -25.1346  -13.9309   20.9331 C   0  0  0  0  0  0  0  0  0  0  0  0
  -29.0563  -22.3386   19.8443 C   0  0  0  0  0  0  0  0  0  0  0  0
  -28.5238  -23.2987   20.6166 C   0  0  0  0  0  0  0  0  0  0  0  0
  -23.0867  -13.2554   22.1973 C   0  0  0  0  0  0  0  0  0  0  0  0
  -24.0717  -32.4599   23.5423 C   0  0  0  0  0  0  0  0  0  0  0  0
  -27.1689  -25.3375   20.1449 C   0  0  0  0  0  0  0  0  0  0  0  0
  -21.1661  -32.5369   22.1022 C   0  0  0  0  0  0  0  0  0  0  0  0
  -19.0860  -31.2805   19.7060 C   0  0  0  0  0  0  0  0  0  0  0  0
  -30.6725  -15.0268   20.2634 C   0  0  0  0  0  0  0  0  0  0  0  0
  -26.8240  -35.5087   26.5734 C   0  0  0  0  0  0  0  0  0  0  0  0
  -24.7189  -32.6494   21.1131 C   0  0  0  0  0  0  0  0  0  0  0  0
  -22.6527  -30.5774   21.5400 C   0  0  0  0  0  0  0  0  0  0  0  0
  -25.3386  -35.3106   26.2828 C   0  0  0  0  0  0  0  0  0  0  0  0
  -28.7390  -13.6866   17.4056 C   0  0  0  0  0  0  0  0  0  0  0  0
  -24.9739  -33.8310   26.3509 C   0  0  0  0  0  0  0  0  0  0  0  0
  -27.4950  -13.1151   18.0837 C   0  0  0  0  0  0  0  0  0  0  0  0
  -29.9499  -13.6684   18.3336 C   0  0  0  0  0  0  0  0  0  0  0  0
  -28.4756  -13.7762   20.3158 C   0  0  0  0  0  0  0  0  0  0  0  0
  -25.7426  -33.0243   25.2974 C   0  0  1  0  0  0  0  0  0  0  0  0
  -23.6173  -32.8165   22.1552 C   0  0  1  0  0  0  0  0  0  0  0  0
  -27.2264  -13.8229   19.4232 C   0  0  2  0  0  0  0  0  0  0  0  0
  -29.4091  -17.6290   18.2898 C   0  0  0  0  0  0  0  0  0  0  0  0
  -16.7595  -31.5175   18.7958 C   0  0  0  0  0  0  0  0  0  0  0  0
  -20.0717  -31.0147   24.5095 C   0  0  0  0  0  0  0  0  0  0  0  0
  -18.0443  -30.4601   23.1492 C   0  0  0  0  0  0  0  0  0  0  0  0
  -18.5850  -32.8400   23.6655 C   0  0  0  0  0  0  0  0  0  0  0  0
  -31.3029  -16.8986   21.7393 C   0  0  0  0  0  0  0  0  0  0  0  0
  -20.0869  -32.0589   17.0319 C   0  0  0  0  0  0  0  0  0  0  0  0
  -28.9465  -16.7088   21.0344 C   0  0  0  0  0  0  0  0  0  0  0  0
  -28.5699  -24.7550   20.2679 C   0  0  0  0  0  0  0  0  0  0  0  0
  -27.1043  -26.8123   19.7967 C   0  0  0  0  0  0  0  0  0  1  0  0
  -20.0020  -31.5821   21.9917 C   0  0  1  0  0  0  0  0  0  0  0  0
  -18.2077  -31.9655   18.6746 C   0  0  2  0  0  0  0  0  0  0  0  0
  -19.2017  -31.4672   23.3198 C   0  0  0  0  0  0  0  0  0  0  0  0
  -25.7158  -11.9551   19.9813 N   0  0  0  0  0  0  0  0  0  0  0  0
  -26.0084  -13.2582   20.1305 N   0  0  0  0  0  0  0  0  0  0  0  0
  -22.4385  -31.9966   21.8680 N   0  0  0  0  0  0  0  0  0  0  0  0
  -29.6537  -14.3092   19.6154 N   0  0  0  0  0  0  0  0  0  0  0  0
  -25.2812  -15.2481   21.1899 N   0  0  0  0  0  0  0  0  0  0  0  0
  -22.2316  -12.1901   22.5109 N   0  0  0  0  0  0  0  0  0  0  0  0
  -25.1471  -33.2029   23.9905 N   0  0  0  0  0  0  0  0  0  0  0  0
  -19.2093  -32.0348   20.8537 N   0  0  0  0  0  0  0  0  0  0  0  0
  -30.2822  -16.1165   21.0564 N   0  0  0  0  0  0  0  0  0  0  0  0
  -18.6835  -31.6506   17.2979 N   0  3  0  0  0  0  0  0  0  0  0  0
  -22.8428  -14.3953   22.6608 O   0  0  0  0  0  0  0  0  0  0  0  0
  -23.4887  -31.5771   24.1608 O   0  0  0  0  0  0  0  0  0  0  0  0
  -26.1493  -24.6663   20.2993 O   0  0  0  0  0  0  0  0  0  0  0  0
  -20.9536  -33.7201   22.3787 O   0  0  0  0  0  0  0  0  0  0  0  0
  -19.6073  -30.1841   19.5144 O   0  0  0  0  0  0  0  0  0  0  0  0
  -31.8637  -14.7172   20.1326 O   0  0  0  0  0  0  0  0  0  0  0  0
  -22.1468   -6.8015   21.1000 O   0  0  0  0  0  0  0  0  0  0  0  0
  -25.7502  -27.2561   19.7201 O   0  0  0  0  0  0  0  0  0  1  0  0
  -20.5549   -5.1091   26.1006 F   0  0  0  0  0  0  0  0  0  0  0  0
  -23.1593   -4.4756   22.1992 F   0  0  0  0  0  0  0  0  0  0  0  0
  1  2  1  0  0  0  0
  1  6  2  0  0  0  0
  2  7  2  0  0  0  0
  3 10  2  0  0  0  0
  3 18  1  0  0  0  0
  4 11  1  0  0  0  0
  4 18  2  0  0  0  0
  5  9  2  0  0  0  0
  5 19  1  0  0  0  0
  6 21  1  0  0  0  0
  7 23  1  0  0  0  0
  8 12  2  0  0  0  0
  8 22  1  0  0  0  0
  9 25  1  0  0  0  0
 10 27  1  0  0  0  0
 11 27  2  0  0  0  0
 12 28  1  0  0  0  0
 13 14  2  0  0  0  0
 13 29  1  0  0  0  0
 14 30  1  0  0  0  0
 15 19  2  0  0  0  0
 15 26  1  0  0  0  0
 16 24  1  0  0  0  0
 16 28  2  0  0  0  0
 17 30  2  0  0  0  0
 17 31  1  0  0  0  0
 18 32  1  0  0  0  0
 19 34  1  0  0  0  0
 20 32  1  0  0  0  0
 20 33  2  0  0  0  0
 20 36  1  0  0  0  0
 21 23  2  0  0  0  0
 21 42  1  0  0  0  0
 22 24  2  0  0  0  0
 22 43  1  0  0  0  0
 23 51  1  0  0  0  0
 24 44  1  0  0  0  0
 25 26  2  0  0  0  0
 25 61  1  0  0  0  0
 26 54  1  0  0  0  0
 27 83  1  0  0  0  0
 28 84  1  0  0  0  0
 29 31  2  0  0  0  0
 29 83  1  0  0  0  0
 30 85  1  0  0  0  0
 31 86  1  0  0  0  0
 32 67  2  0  0  0  0
 33 68  1  0  0  0  0
 33 71  1  0  0  0  0
 34 35  2  0  0  0  0
 35 62  1  0  0  0  0
 36 72  1  0  0  0  0
 36 77  2  0  0  0  0
 37 52  1  0  0  0  0
 37 73  1  0  0  0  0
 37 78  2  0  0  0  0
 38 62  1  0  0  0  0
 38 63  1  0  0  0  0
 38 79  2  0  0  0  0
 39 64  1  0  0  0  0
 39 69  1  0  0  0  0
 39 80  2  0  0  0  0
 40 65  1  0  0  0  0
 40 74  1  0  0  0  0
 40 81  2  0  0  0  0
 41 70  1  0  0  0  0
 41 75  1  0  0  0  0
 41 82  2  0  0  0  0
 42 45  1  0  0  0  0
 43 52  1  0  0  0  0
 44 69  1  0  0  0  0
 45 47  1  0  0  0  0
 46 48  1  0  0  0  0
 46 49  1  0  0  0  0
 47 51  1  0  0  0  0
 48 53  1  0  0  0  0
 49 70  1  0  0  0  0
 50 53  1  0  0  0  0
 50 70  1  0  0  0  0
 51 73  1  0  0  0  0
 52 69  1  0  0  0  0
 53 68  1  0  0  0  0
 55 65  1  0  0  0  0
 56 66  1  0  0  0  0
 57 66  1  0  0  0  0
 58 66  1  0  0  0  0
 59 75  1  0  0  0  0
 60 76  1  0  0  0  0
 61 75  1  0  0  0  0
 63 84  1  0  0  0  0
 64 66  1  0  0  0  0
 64 74  1  0  0  0  0
 65 76  1  0  0  0  0
 67 68  1  0  0  0  0
M  CHG  1  76   1
M  ISO  4  41 100  63 101  75 100  84 101
M  END
> <Batch ID>
0122

> <Smiles>
CNC(C)C(=O)NC(C(=O)N1Cc2cc([101O:1][101CH2:1]C(=O)CC=Cc3ccc(C[100N:0](C)[100C:0](=O)N4CCCC(n5nc(-c6ccc(Oc7ccc(F)cc7F)cc6)c(C(N)=O)c5N)C4)c(C)c3)ccc2CC1C(=O)NC1CCCc2ccccc21)C(C)(C)C

> <Shape>
0.369

> <Color>
0.178

> <Negative vol penalty>
0.000

$$$$

  -OEChem-04052302003D

 86 94  0     1  0  0  0  0  0999 V2000
  -23.9554  -32.9653   14.4049 C   0  0  0  0  0  0  0  0  0  0  0  0
  -24.8275  -32.0821   15.0333 C   0  0  0  0  0  0  0  0  0  0  0  0
  -23.3253   -7.1031   23.3551 C   0  0  0  0  0  0  0  0  0  0  0  0
  -21.0567   -7.7659   22.8540 C   0  0  0  0  0  0  0  0  0  0  0  0
  -28.4346  -18.3312   18.4109 C   0  0  0  0  0  0  0  0  0  0  0  0
  -23.4392  -34.0526   15.1087 C   0  0  0  0  0  0  0  0  0  0  0  0
  -25.1849  -32.2864   16.3656 C   0  0  0  0  0  0  0  0  0  0  0  0
  -25.0423  -28.0207   19.0911 C   0  0  0  0  0  0  0  0  0  0  0  0
  -22.8485   -6.1571   24.2625 C   0  0  0  0  0  0  0  0  0  0  0  0
  -20.5799   -6.8199   23.7614 C   0  0  0  0  0  0  0  0  0  0  0  0
  -28.8497  -19.6626   18.3837 C   0  0  0  0  0  0  0  0  0  0  0  0
  -26.1112  -27.1373   18.9474 C   0  0  0  0  0  0  0  0  0  0  0  0
  -21.6625   -6.1187   27.4274 C   0  0  0  0  0  0  0  0  0  0  0  0
  -22.2940   -6.0363   28.6684 C   0  0  0  0  0  0  0  0  0  0  0  0
  -28.6184  -18.3232   20.8199 C   0  0  0  0  0  0  0  0  0  0  0  0
  -27.0719  -27.9761   20.9950 C   0  0  0  0  0  0  0  0  0  0  0  0
  -22.8741   -3.7342   28.2204 C   0  0  0  0  0  0  0  0  0  0  0  0
  -22.4294   -7.9075   22.6509 C   0  0  0  0  0  0  0  0  0  0  0  0
  -28.3189  -17.6615   19.6291 C   0  0  0  0  0  0  0  0  0  0  0  0
  -23.1695   -8.6974   20.3409 C   0  0  0  0  0  0  0  0  0  0  0  0
  -23.7828  -34.2649   16.4531 C   0  0  0  0  0  0  0  0  0  0  0  0
  -24.9856  -28.8976   20.1840 C   0  0  0  0  0  0  0  0  0  0  0  0
  -24.6739  -33.3783   17.0876 C   0  0  0  0  0  0  0  0  0  0  0  0
  -25.9999  -28.8679   21.1516 C   0  0  0  0  0  0  0  0  0  0  0  0
  -29.0335  -19.6546   20.7927 C   0  0  0  0  0  0  0  0  0  0  0  0
  -21.4758   -6.0155   24.4656 C   0  0  0  0  0  0  0  0  0  0  0  0
  -27.1277  -27.1169   19.8978 C   0  0  0  0  0  0  0  0  0  0  0  0
  -29.1491  -20.3243   19.5745 C   0  0  0  0  0  0  0  0  0  0  0  0
  -21.6368   -5.0088   26.5829 C   0  0  0  0  0  0  0  0  0  0  0  0
  -22.8998   -4.8441   29.0649 C   0  0  0  0  0  0  0  0  0  0  0  0
  -22.2425   -3.8165   26.9794 C   0  0  0  0  0  0  0  0  0  0  0  0
  -22.9214   -8.8853   21.7138 C   0  0  0  0  0  0  0  0  0  0  0  0
  -23.6220   -9.9182   19.9035 C   0  0  0  0  0  0  0  0  0  0  0  0
  -27.7889  -22.0093   23.1383 C   0  0  0  0  0  0  0  0  0  0  0  0
  -27.8849  -16.2735   19.6553 C   0  0  0  0  0  0  0  0  0  0  0  0
  -27.3719  -15.6335   20.7276 C   0  0  0  0  0  0  0  0  0  0  0  0
  -28.1187  -20.7456   22.8486 C   0  0  0  0  0  0  0  0  0  0  0  0
  -23.0057   -7.5242   19.5331 C   0  0  0  0  0  0  0  0  0  0  0  0
  -26.9666  -14.2199   20.5924 C   0  0  0  0  0  0  0  0  0  0  0  0
  -24.9696  -32.0577   20.5258 C   0  0  0  0  0  0  0  0  0  0  0  0
  -28.8294  -23.9308   19.6070 C   0  0  0  0  0  0  0  0  0  0  0  0
  -24.4634  -31.3272   23.6455 C   0  0  0  0  0  0  0  0  0  0  0  0
  -24.7694  -29.0582   26.1763 C   0  0  0  0  0  0  0  0  0  0  0  0
  -23.2367  -35.4808   17.1588 C   0  0  0  0  0  0  0  0  0  0  0  0
  -23.8122  -29.8259   20.3387 C   0  0  0  0  0  0  0  0  0  0  0  0
  -25.9757  -29.7747   22.3539 C   0  0  0  0  0  0  0  0  0  0  0  0
  -23.3711  -35.4151   18.6779 C   0  0  0  0  0  0  0  0  0  0  0  0
  -23.6582  -14.4304   22.1550 C   0  0  0  0  0  0  0  0  0  0  0  0
  -24.7732  -34.9605   19.0707 C   0  0  0  0  0  0  0  0  0  0  0  0
  -23.2165  -12.9702   22.1054 C   0  0  0  0  0  0  0  0  0  0  0  0
  -25.1652  -14.5650   22.3678 C   0  0  0  0  0  0  0  0  0  0  0  0
  -25.5358  -12.3501   21.3203 C   0  0  0  0  0  0  0  0  0  0  0  0
  -25.0658  -33.5523   18.5389 C   0  0  1  0  0  0  0  0  0  0  0  0
  -24.1175  -31.0331   21.2199 C   0  0  1  0  0  0  0  0  0  0  0  0
  -24.0298  -12.1908   21.0599 C   0  0  1  0  0  0  0  0  0  0  0  0
  -24.2983  -28.7610   28.6232 C   0  0  0  0  0  0  0  0  0  0  0  0
  -26.8563  -33.0966   24.3186 C   0  0  0  0  0  0  0  0  0  0  0  0
  -26.9222  -32.0271   26.5813 C   0  0  0  0  0  0  0  0  0  0  0  0
  -24.9149  -33.3302   25.8776 C   0  0  0  0  0  0  0  0  0  0  0  0
  -22.9590  -26.7726   25.6688 C   0  0  0  0  0  0  0  0  0  0  0  0
  -29.3493  -20.3481   22.0766 C   0  0  0  0  0  0  0  0  0  0  0  0
  -27.9133  -25.0219   19.0917 C   0  0  0  0  0  0  0  0  0  1  0  0
  -28.6646  -22.5704   18.9613 C   0  0  0  0  0  0  0  0  0  0  0  0
  -25.3492  -31.0661   24.8397 C   0  0  1  0  0  0  0  0  0  0  0  0
  -23.7743  -28.5614   27.2095 C   0  0  2  0  0  0  0  0  0  0  0  0
  -26.0124  -32.3642   25.3808 C   0  0  0  0  0  0  0  0  0  0  0  0
  -23.1937  -10.1276   22.1217 N   0  0  0  0  0  0  0  0  0  0  0  0
  -23.6178  -10.7314   20.9985 N   0  0  0  0  0  0  0  0  0  0  0  0
  -25.9202  -13.7643   21.3923 N   0  0  0  0  0  0  0  0  0  0  0  0
  -24.8106  -30.6688   22.4573 N   0  0  0  0  0  0  0  0  0  0  0  0
  -24.0191  -10.3647   18.6930 N   0  0  0  0  0  0  0  0  0  0  0  0
  -22.5303   -6.3548   20.1421 N   0  0  0  0  0  0  0  0  0  0  0  0
  -24.4150  -32.5558   19.3623 N   0  0  0  0  0  0  0  0  0  0  0  0
  -24.5219  -30.3660   25.8164 N   0  0  0  0  0  0  0  0  0  0  0  0
  -23.5014  -27.1100   27.0100 N   0  3  0  0  0  0  0  0  0  0  0  0
  -23.2885   -7.5086   18.3111 O   0  0  0  0  0  0  0  0  0  0  0  0
  -27.5835  -13.5266   19.7816 O   0  0  0  0  0  0  0  0  0  0  0  0
  -26.0496  -32.3742   21.0109 O   0  0  0  0  0  0  0  0  0  0  0  0
  -29.6554  -24.1369   20.4949 O   0  0  0  0  0  0  0  0  0  0  0  0
  -23.4948  -32.0817   23.7645 O   0  0  0  0  0  0  0  0  0  0  0  0
  -25.6777  -28.3574   25.7355 O   0  0  0  0  0  0  0  0  0  0  0  0
  -21.0101   -5.0924   25.3508 O   0  0  0  0  0  0  0  0  0  0  0  0
  -28.1725  -26.2560   19.7596 O   0  0  0  0  0  0  0  0  0  1  0  0
  -29.5581  -21.6361   19.5292 O   0  0  0  0  0  0  0  0  0  0  0  0
  -23.5074   -4.7656   30.2560 F   0  0  0  0  0  0  0  0  0  0  0  0
  -22.2221   -2.7472   26.1719 F   0  0  0  0  0  0  0  0  0  0  0  0
  1  2  1  0  0  0  0
  1  6  2  0  0  0  0
  2  7  2  0  0  0  0
  3  9  2  0  0  0  0
  3 18  1  0  0  0  0
  4 10  1  0  0  0  0
  4 18  2  0  0  0  0
  5 11  2  0  0  0  0
  5 19  1  0  0  0  0
  6 21  1  0  0  0  0
  7 23  1  0  0  0  0
  8 12  2  0  0  0  0
  8 22  1  0  0  0  0
  9 26  1  0  0  0  0
 10 26  2  0  0  0  0
 11 28  1  0  0  0  0
 12 27  1  0  0  0  0
 13 14  2  0  0  0  0
 13 29  1  0  0  0  0
 14 30  1  0  0  0  0
 15 19  2  0  0  0  0
 15 25  1  0  0  0  0
 16 24  1  0  0  0  0
 16 27  2  0  0  0  0
 17 30  2  0  0  0  0
 17 31  1  0  0  0  0
 18 32  1  0  0  0  0
 19 35  1  0  0  0  0
 20 32  1  0  0  0  0
 20 33  2  0  0  0  0
 20 38  1  0  0  0  0
 21 23  2  0  0  0  0
 21 44  1  0  0  0  0
 22 24  2  0  0  0  0
 22 45  1  0  0  0  0
 23 53  1  0  0  0  0
 24 46  1  0  0  0  0
 25 28  2  0  0  0  0
 25 61  1  0  0  0  0
 26 82  1  0  0  0  0
 27 83  1  0  0  0  0
 28 84  1  0  0  0  0
 29 31  2  0  0  0  0
 29 82  1  0  0  0  0
 30 85  1  0  0  0  0
 31 86  1  0  0  0  0
 32 67  2  0  0  0  0
 33 68  1  0  0  0  0
 33 71  1  0  0  0  0
 34 37  2  0  0  0  0
 35 36  2  0  0  0  0
 36 39  1  0  0  0  0
 37 61  1  0  0  0  0
 38 72  1  0  0  0  0
 38 76  2  0  0  0  0
 39 69  1  0  0  0  0
 39 77  2  0  0  0  0
 40 54  1  0  0  0  0
 40 73  1  0  0  0  0
 40 78  2  0  0  0  0
 41 62  1  0  0  0  0
 41 63  1  0  0  0  0
 41 79  2  0  0  0  0
 42 64  1  0  0  0  0
 42 70  1  0  0  0  0
 42 80  2  0  0  0  0
 43 65  1  0  0  0  0
 43 74  1  0  0  0  0
 43 81  2  0  0  0  0
 44 47  1  0  0  0  0
 45 54  1  0  0  0  0
 46 70  1  0  0  0  0
 47 49  1  0  0  0  0
 48 50  1  0  0  0  0
 48 51  1  0  0  0  0
 49 53  1  0  0  0  0
 50 55  1  0  0  0  0
 51 69  1  0  0  0  0
 52 55  1  0  0  0  0
 52 69  1  0  0  0  0
 53 73  1  0  0  0  0
 54 70  1  0  0  0  0
 55 68  1  0  0  0  0
 56 65  1  0  0  0  0
 57 66  1  0  0  0  0
 58 66  1  0  0  0  0
 59 66  1  0  0  0  0
 60 75  1  0  0  0  0
 62 83  1  0  0  0  0
 63 84  1  0  0  0  0
 64 66  1  0  0  0  0
 64 74  1  0  0  0  0
 65 75  1  0  0  0  0
 67 68  1  0  0  0  0
M  CHG  1  75   1
M  ISO  4  36 100  39 100  62 101  83 101
M  END
> <Batch ID>
0122

> <Smiles>
C=CCc1cc(C=[100CH:0][100C:0](=O)N2CCCC(n3nc(-c4ccc(Oc5ccc(F)cc5F)cc4)c(C(N)=O)c3N)C2)ccc1OCC(=O)[101CH2:1][101O:1]c1ccc2c(c1)CN(C(=O)C(NC(=O)C(C)NC)C(C)(C)C)C(C(=O)NC1CCCc3ccccc31)C2

> <Shape>
0.279

> <Color>
0.095

> <Negative vol penalty>
0.000

$$$$

  -OEChem-04052302003D

 84 92  0     1  0  0  0  0  0999 V2000
  -26.5352  -18.2842   21.0491 C   0  0  0  0  0  0  0  0  0  0  0  0
  -25.7734  -19.4462   20.9796 C   0  0  0  0  0  0  0  0  0  0  0  0
  -23.5873  -15.4442   19.9505 C   0  0  0  0  0  0  0  0  0  0  0  0
  -24.8146  -15.0393   21.9917 C   0  0  0  0  0  0  0  0  0  0  0  0
  -27.8619  -18.3461   21.4732 C   0  0  0  0  0  0  0  0  0  0  0  0
  -26.3376  -20.6707   21.3353 C   0  0  0  0  0  0  0  0  0  0  0  0
  -25.1602  -26.1333   18.8295 C   0  0  0  0  0  0  0  0  0  0  0  0
  -24.5878  -14.8018   19.2214 C   0  0  0  0  0  0  0  0  0  0  0  0
  -25.8152  -14.3967   21.2626 C   0  0  0  0  0  0  0  0  0  0  0  0
  -24.3312  -27.1847   19.2184 C   0  0  0  0  0  0  0  0  0  0  0  0
  -28.4439  -15.2778   19.3276 C   0  0  0  0  0  0  0  0  0  0  0  0
  -29.7689  -15.5955   19.6262 C   0  0  0  0  0  0  0  0  0  0  0  0
  -20.2427  -26.9629   22.1227 C   0  0  0  0  0  0  0  0  0  0  0  0
  -26.2126  -28.2732   20.2646 C   0  0  0  0  0  0  0  0  0  0  0  0
  -17.8587  -27.5658   23.4403 C   0  0  0  0  0  0  0  0  0  0  0  0
  -30.1936  -13.2866   20.1973 C   0  0  0  0  0  0  0  0  0  0  0  0
  -23.7007  -15.5631   21.3357 C   0  0  0  0  0  0  0  0  0  0  0  0
  -19.3455  -25.9438   22.4423 C   0  0  0  0  0  0  0  0  0  0  0  0
  -19.9480  -28.2834   22.4620 C   0  0  0  0  0  0  0  0  0  0  0  0
  -21.5228  -15.6412   22.6617 C   0  0  0  0  0  0  0  0  0  0  0  0
  -28.4456  -19.5733   21.8250 C   0  0  0  0  0  0  0  0  0  0  0  0
  -26.5217  -26.1388   19.1652 C   0  0  0  0  0  0  0  0  0  0  0  0
  -27.6730  -20.7489   21.7658 C   0  0  0  0  0  0  0  0  0  0  0  0
  -27.0573  -27.2220   19.8766 C   0  0  0  0  0  0  0  0  0  0  0  0
  -18.1535  -26.2452   23.1011 C   0  0  0  0  0  0  0  0  0  0  0  0
  -18.7560  -28.5848   23.1207 C   0  0  0  0  0  0  0  0  0  0  0  0
  -25.7018  -14.2780   19.8774 C   0  0  0  0  0  0  0  0  0  0  0  0
  -24.8568  -28.2534   19.9386 C   0  0  0  0  0  0  0  0  0  0  0  0
  -27.9937  -13.9646   19.4639 C   0  0  0  0  0  0  0  0  0  0  0  0
  -30.6437  -14.5999   20.0610 C   0  0  0  0  0  0  0  0  0  0  0  0
  -28.8686  -12.9690   19.8987 C   0  0  0  0  0  0  0  0  0  0  0  0
  -22.6677  -16.2272   22.0893 C   0  0  0  0  0  0  0  0  0  0  0  0
  -20.8668  -16.6866   23.2645 C   0  0  0  0  0  0  0  0  0  0  0  0
  -19.6811  -24.5743   22.0751 C   0  0  0  0  0  0  0  0  0  0  0  0
  -20.9148  -29.3370   22.1113 C   0  0  0  0  0  0  0  0  0  0  0  0
  -20.7564  -23.8893   22.5148 C   0  0  0  0  0  0  0  0  0  0  0  0
  -22.1791  -29.4054   22.5570 C   0  0  0  0  0  0  0  0  0  0  0  0
  -21.0909  -14.2740   22.6497 C   0  0  0  0  0  0  0  0  0  0  0  0
  -20.9544  -22.4993   22.0573 C   0  0  0  0  0  0  0  0  0  0  0  0
  -28.4105  -24.2659   20.9054 C   0  0  0  0  0  0  0  0  0  0  0  0
  -30.7419  -26.2038   19.7516 C   0  0  0  0  0  0  0  0  0  0  0  0
  -31.6074  -29.2387   18.4526 C   0  0  0  0  0  0  0  0  0  0  0  0
  -29.8693  -19.5839   22.3228 C   0  0  0  0  0  0  0  0  0  0  0  0
  -27.4081  -25.0101   18.7151 C   0  0  0  0  0  0  0  0  0  0  0  0
  -28.5165  -27.2855   20.2444 C   0  0  0  0  0  0  0  0  0  0  0  0
  -30.5038  -20.9723   22.3238 C   0  0  0  0  0  0  0  0  0  0  0  0
  -21.6399  -20.9316   25.2984 C   0  0  0  0  0  0  0  0  0  0  0  0
  -29.5509  -21.9943   22.9356 C   0  0  0  0  0  0  0  0  0  0  0  0
  -21.9236  -19.4930   24.8746 C   0  0  0  0  0  0  0  0  0  0  0  0
  -22.1227  -21.9402   24.2571 C   0  0  0  0  0  0  0  0  0  0  0  0
  -21.8698  -20.2479   22.4647 C   0  0  0  0  0  0  0  0  0  0  0  0
  -28.2568  -22.0995   22.1196 C   0  0  1  0  0  0  0  0  0  0  0  0
  -28.6735  -24.8722   19.5561 C   0  0  1  0  0  0  0  0  0  0  0  0
  -21.3501  -19.2144   23.4762 C   0  0  1  0  0  0  0  0  0  0  0  0
  -17.1689  -25.1788   23.4593 C   0  0  0  0  0  0  0  0  0  0  0  0
  -18.4073  -29.9885   23.4995 C   0  0  0  0  0  0  0  0  0  0  0  0
  -33.5940  -30.5409   17.6433 C   0  0  0  0  0  0  0  0  0  0  0  0
  -31.6081  -26.6725   22.6395 C   0  0  0  0  0  0  0  0  0  0  0  0
  -32.9192  -28.6544   21.8513 C   0  0  0  0  0  0  0  0  0  0  0  0
  -33.4910  -26.3726   21.0213 C   0  0  0  0  0  0  0  0  0  0  0  0
  -30.4733  -29.5004   15.7315 C   0  0  0  0  0  0  0  0  0  0  0  0
  -23.1310  -30.5084   22.1827 C   0  0  0  0  0  0  0  0  0  0  0  0
  -24.3933  -29.9636   21.5249 C   0  0  0  0  0  0  0  0  0  1  0  0
  -31.3789  -27.4958   20.2032 C   0  0  1  0  0  0  0  0  0  0  0  0
  -32.4534  -29.6152   17.2497 C   0  0  2  0  0  0  0  0  0  0  0  0
  -32.3214  -27.2970   21.4237 C   0  0  0  0  0  0  0  0  0  0  0  0
  -22.7379  -17.5428   22.3087 N   0  0  0  0  0  0  0  0  0  0  0  0
  -21.6289  -17.7922   23.0255 N   0  0  0  0  0  0  0  0  0  0  0  0
  -21.6082  -21.6187   22.9174 N   0  0  0  0  0  0  0  0  0  0  0  0
  -29.3411  -26.1549   19.7871 N   0  0  0  0  0  0  0  0  0  0  0  0
  -19.7183  -16.7588   23.9702 N   0  0  0  0  0  0  0  0  0  0  0  0
  -21.8836  -13.3287   21.9846 N   0  0  0  0  0  0  0  0  0  0  0  0
  -28.4755  -22.8857   20.9244 N   0  0  0  0  0  0  0  0  0  0  0  0
  -32.0339  -28.0605   19.0283 N   0  0  0  0  0  0  0  0  0  0  0  0
  -31.6195  -30.3060   16.2258 N   0  3  0  0  0  0  0  0  0  0  0  0
  -20.0249  -13.9046   23.1980 O   0  0  0  0  0  0  0  0  0  0  0  0
  -20.5326  -22.2035   20.9378 O   0  0  0  0  0  0  0  0  0  0  0  0
  -28.1680  -24.9962   21.8591 O   0  0  0  0  0  0  0  0  0  0  0  0
  -31.4604  -25.2748   19.3743 O   0  0  0  0  0  0  0  0  0  0  0  0
  -30.6650  -29.9232   18.8447 O   0  0  0  0  0  0  0  0  0  0  0  0
  -26.6782  -13.6507   19.1663 O   0  0  0  0  0  0  0  0  0  0  0  0
  -24.0497  -29.2805   20.3200 O   0  0  0  0  0  0  0  0  0  1  0  0
  -31.9165  -14.9047   20.3462 F   0  0  0  0  0  0  0  0  0  0  0  0
  -28.4422  -11.7055   20.0305 F   0  0  0  0  0  0  0  0  0  0  0  0
  1  2  1  0  0  0  0
  1  5  2  0  0  0  0
  2  6  2  0  0  0  0
  3  8  2  0  0  0  0
  3 17  1  0  0  0  0
  4  9  1  0  0  0  0
  4 17  2  0  0  0  0
  5 21  1  0  0  0  0
  6 23  1  0  0  0  0
  7 10  2  0  0  0  0
  7 22  1  0  0  0  0
  8 27  1  0  0  0  0
  9 27  2  0  0  0  0
 10 28  1  0  0  0  0
 11 12  2  0  0  0  0
 11 29  1  0  0  0  0
 12 30  1  0  0  0  0
 13 18  2  0  0  0  0
 13 19  1  0  0  0  0
 14 24  1  0  0  0  0
 14 28  2  0  0  0  0
 15 25  2  0  0  0  0
 15 26  1  0  0  0  0
 16 30  2  0  0  0  0
 16 31  1  0  0  0  0
 17 32  1  0  0  0  0
 18 25  1  0  0  0  0
 18 34  1  0  0  0  0
 19 26  2  0  0  0  0
 19 35  1  0  0  0  0
 20 32  1  0  0  0  0
 20 33  2  0  0  0  0
 20 38  1  0  0  0  0
 21 23  2  0  0  0  0
 21 43  1  0  0  0  0
 22 24  2  0  0  0  0
 22 44  1  0  0  0  0
 23 52  1  0  0  0  0
 24 45  1  0  0  0  0
 25 55  1  0  0  0  0
 26 56  1  0  0  0  0
 27 81  1  0  0  0  0
 28 82  1  0  0  0  0
 29 31  2  0  0  0  0
 29 81  1  0  0  0  0
 30 83  1  0  0  0  0
 31 84  1  0  0  0  0
 32 67  2  0  0  0  0
 33 68  1  0  0  0  0
 33 71  1  0  0  0  0
 34 36  2  0  0  0  0
 35 37  2  0  0  0  0
 36 39  1  0  0  0  0
 37 62  1  0  0  0  0
 38 72  1  0  0  0  0
 38 76  2  0  0  0  0
 39 69  1  0  0  0  0
 39 77  2  0  0  0  0
 40 53  1  0  0  0  0
 40 73  1  0  0  0  0
 40 78  2  0  0  0  0
 41 64  1  0  0  0  0
 41 70  1  0  0  0  0
 41 79  2  0  0  0  0
 42 65  1  0  0  0  0
 42 74  1  0  0  0  0
 42 80  2  0  0  0  0
 43 46  1  0  0  0  0
 44 53  1  0  0  0  0
 45 70  1  0  0  0  0
 46 48  1  0  0  0  0
 47 49  1  0  0  0  0
 47 50  1  0  0  0  0
 48 52  1  0  0  0  0
 49 54  1  0  0  0  0
 50 69  1  0  0  0  0
 51 54  1  0  0  0  0
 51 69  1  0  0  0  0
 52 73  1  0  0  0  0
 53 70  1  0  0  0  0
 54 68  1  0  0  0  0
 57 65  1  0  0  0  0
 58 66  1  0  0  0  0
 59 66  1  0  0  0  0
 60 66  1  0  0  0  0
 61 75  1  0  0  0  0
 62 63  1  0  0  0  0
 63 82  1  0  0  0  0
 64 66  1  0  0  0  0
 64 74  1  0  0  0  0
 65 75  1  0  0  0  0
 67 68  1  0  0  0  0
M  CHG  1  75   1
M  ISO  4  36 100  39 100  63 101  82 101
M  END
> <Batch ID>
0122

> <Smiles>
CNC(C)C(=O)NC(C(=O)N1Cc2cc([101O:1][101CH2:1]CC=Cc3cc(C=[100CH:0][100C:0](=O)N4CCCC(n5nc(-c6ccc(Oc7ccc(F)cc7F)cc6)c(C(N)=O)c5N)C4)c(C)cc3C)ccc2CC1C(=O)NC1CCCc2ccccc21)C(C)(C)C

> <Shape>
0.242

> <Color>
0.048

> <Negative vol penalty>
0.000

$$$$

  -OEChem-04052302003D

 85 93  0     1  0  0  0  0  0999 V2000
  -27.7092  -34.1729   24.9501 C   0  0  0  0  0  0  0  0  0  0  0  0
  -27.9233  -32.8852   24.4692 C   0  0  0  0  0  0  0  0  0  0  0  0
  -25.3864  -15.5530   21.9281 C   0  0  0  0  0  0  0  0  0  0  0  0
  -26.5704  -15.7803   19.8344 C   0  0  0  0  0  0  0  0  0  0  0  0
  -26.4306  -34.5651   25.3440 C   0  0  0  0  0  0  0  0  0  0  0  0
  -26.8589  -31.9884   24.3829 C   0  0  0  0  0  0  0  0  0  0  0  0
  -26.8010  -29.4581   19.9967 C   0  0  0  0  0  0  0  0  0  0  0  0
  -25.4039  -14.1654   21.7873 C   0  0  0  0  0  0  0  0  0  0  0  0
  -26.5880  -14.3927   19.6937 C   0  0  0  0  0  0  0  0  0  0  0  0
  -27.6960  -28.3976   19.8616 C   0  0  0  0  0  0  0  0  0  0  0  0
  -23.7006  -11.8164   20.0537 C   0  0  0  0  0  0  0  0  0  0  0  0
  -22.5188  -11.1241   20.3176 C   0  0  0  0  0  0  0  0  0  0  0  0
  -28.0022  -22.8379   14.1985 C   0  0  0  0  0  0  0  0  0  0  0  0
  -26.3286  -23.4018   15.8471 C   0  0  0  0  0  0  0  0  0  0  0  0
  -25.9191  -26.8429   20.3566 C   0  0  0  0  0  0  0  0  0  0  0  0
  -25.6886  -22.2537   13.8200 C   0  0  0  0  0  0  0  0  0  0  0  0
  -23.6355   -9.8838   22.0646 C   0  0  0  0  0  0  0  0  0  0  0  0
  -25.9696  -16.3605   20.9515 C   0  0  0  0  0  0  0  0  0  0  0  0
  -27.6576  -23.4086   15.4237 C   0  0  0  0  0  0  0  0  0  0  0  0
  -26.9185  -18.5969   21.7299 C   0  0  0  0  0  0  0  0  0  0  0  0
  -25.3482  -33.6759   25.2535 C   0  0  0  0  0  0  0  0  0  0  0  0
  -25.4586  -29.2192   20.3241 C   0  0  0  0  0  0  0  0  0  0  0  0
  -25.5648  -32.3687   24.7773 C   0  0  0  0  0  0  0  0  0  0  0  0
  -25.0086  -27.9019   20.4928 C   0  0  0  0  0  0  0  0  0  0  0  0
  -27.0177  -22.2605   13.3966 C   0  0  0  0  0  0  0  0  0  0  0  0
  -25.3441  -22.8244   15.0452 C   0  0  0  0  0  0  0  0  0  0  0  0
  -26.0047  -13.5852   20.6702 C   0  0  0  0  0  0  0  0  0  0  0  0
  -27.2557  -27.0900   20.0444 C   0  0  0  0  0  0  0  0  0  0  0  0
  -24.8499  -11.5424   20.7953 C   0  0  0  0  0  0  0  0  0  0  0  0
  -22.4863  -10.1578   21.3230 C   0  0  0  0  0  0  0  0  0  0  0  0
  -24.8173  -10.5762   21.8007 C   0  0  0  0  0  0  0  0  0  0  0  0
  -25.9514  -17.7940   21.0961 C   0  0  0  0  0  0  0  0  0  0  0  0
  -26.4412  -19.8780   21.5981 C   0  0  0  0  0  0  0  0  0  0  0  0
  -31.3836  -23.4814   19.6179 C   0  0  0  0  0  0  0  0  0  0  0  0
  -28.6970  -24.0181   16.2695 C   0  0  0  0  0  0  0  0  0  0  0  0
  -30.1321  -23.9426   19.5060 C   0  0  0  0  0  0  0  0  0  0  0  0
  -28.5826  -24.2481   17.5877 C   0  0  0  0  0  0  0  0  0  0  0  0
  -28.1393  -18.2185   22.3797 C   0  0  0  0  0  0  0  0  0  0  0  0
  -23.5675  -30.0087   22.7539 C   0  0  0  0  0  0  0  0  0  0  0  0
  -21.2783  -28.6363   20.9104 C   0  0  0  0  0  0  0  0  0  0  0  0
  -20.4967  -26.4385   18.4193 C   0  0  0  0  0  0  0  0  0  0  0  0
  -22.7518  -22.4693   17.6580 C   0  0  0  0  0  0  0  0  0  0  0  0
  -23.9932  -34.1301   25.7356 C   0  0  0  0  0  0  0  0  0  0  0  0
  -24.4998  -30.3724   20.4400 C   0  0  0  0  0  0  0  0  0  0  0  0
  -23.5729  -27.5908   20.8252 C   0  0  0  0  0  0  0  0  0  0  0  0
  -22.8478  -33.2397   25.2608 C   0  0  0  0  0  0  0  0  0  0  0  0
  -22.3509  -22.3267   21.1929 C   0  0  0  0  0  0  0  0  0  0  0  0
  -23.1956  -31.7685   25.4645 C   0  0  0  0  0  0  0  0  0  0  0  0
  -23.3155  -21.2213   21.6261 C   0  0  0  0  0  0  0  0  0  0  0  0
  -21.6951  -22.0094   19.8508 C   0  0  0  0  0  0  0  0  0  0  0  0
  -23.6016  -20.5933   19.1925 C   0  0  0  0  0  0  0  0  0  0  0  0
  -24.4309  -31.3752   24.6455 C   0  0  1  0  0  0  0  0  0  0  0  0
  -23.2702  -30.0449   21.2815 C   0  0  1  0  0  0  0  0  0  0  0  0
  -24.3298  -20.8944   20.5137 C   0  0  2  0  0  0  0  0  0  0  0  0
  -27.3858  -21.6504   12.0864 C   0  0  0  0  0  0  0  0  0  0  0  0
  -18.5378  -25.5049   17.1589 C   0  0  0  0  0  0  0  0  0  0  0  0
  -20.5717  -26.8877   23.3089 C   0  0  0  0  0  0  0  0  0  0  0  0
  -19.3198  -25.3789   21.7518 C   0  0  0  0  0  0  0  0  0  0  0  0
  -18.6028  -27.7517   22.0317 C   0  0  0  0  0  0  0  0  0  0  0  0
  -21.5128  -27.4766   15.8408 C   0  0  0  0  0  0  0  0  0  0  0  0
  -23.9230  -22.8173   15.4979 C   0  0  0  0  0  0  0  0  0  0  0  0
  -29.2134  -26.2281   19.0047 C   0  0  0  0  0  0  0  0  0  1  0  0
  -29.6750  -24.8848   18.4179 C   0  0  1  0  0  0  0  0  0  0  0  0
  -20.7248  -27.2404   20.7558 C   0  0  1  0  0  0  0  0  0  0  0  0
  -19.6138  -26.5790   17.1924 C   0  0  2  0  0  0  0  0  0  0  0  0
  -19.8323  -26.8203   21.9577 C   0  0  0  0  0  0  0  0  0  0  0  0
  -24.9363  -18.5054   20.5987 N   0  0  0  0  0  0  0  0  0  0  0  0
  -25.2629  -19.7688   20.9200 N   0  0  0  0  0  0  0  0  0  0  0  0
  -22.6754  -28.7527   20.9341 N   0  0  0  0  0  0  0  0  0  0  0  0
  -22.7114  -21.7102   18.8392 N   0  0  0  0  0  0  0  0  0  0  0  0
  -26.9186  -21.0760   21.9973 N   0  0  0  0  0  0  0  0  0  0  0  0
  -28.4787  -16.8594   22.4250 N   0  0  0  0  0  0  0  0  0  0  0  0
  -24.0775  -31.1916   23.2542 N   0  0  0  0  0  0  0  0  0  0  0  0
  -20.0427  -27.2122   19.4665 N   0  0  0  0  0  0  0  0  0  0  0  0
  -23.7499  -22.1243   16.7550 N   0  0  0  0  0  0  0  0  0  0  0  0
  -20.4303  -26.4651   15.9509 N   0  3  0  0  0  0  0  0  0  0  0  0
  -28.8983  -19.0591   22.9191 O   0  0  0  0  0  0  0  0  0  0  0  0
  -23.3488  -28.9840   23.3894 O   0  0  0  0  0  0  0  0  0  0  0  0
  -20.5000  -29.5891   20.9993 O   0  0  0  0  0  0  0  0  0  0  0  0
  -21.4877  -25.7121   18.4472 O   0  0  0  0  0  0  0  0  0  0  0  0
  -21.9605  -23.3901   17.4278 O   0  0  0  0  0  0  0  0  0  0  0  0
  -26.0222  -12.2312   20.5326 O   0  0  0  0  0  0  0  0  0  0  0  0
  -28.1273  -26.0531   19.9137 O   0  0  0  0  0  0  0  0  0  1  0  0
  -21.3509   -9.4941   21.5773 F   0  0  0  0  0  0  0  0  0  0  0  0
  -25.9179  -10.3094   22.5172 F   0  0  0  0  0  0  0  0  0  0  0  0
  1  2  1  0  0  0  0
  1  5  2  0  0  0  0
  2  6  2  0  0  0  0
  3  8  2  0  0  0  0
  3 18  1  0  0  0  0
  4  9  1  0  0  0  0
  4 18  2  0  0  0  0
  5 21  1  0  0  0  0
  6 23  1  0  0  0  0
  7 10  2  0  0  0  0
  7 22  1  0  0  0  0
  8 27  1  0  0  0  0
  9 27  2  0  0  0  0
 10 28  1  0  0  0  0
 11 12  2  0  0  0  0
 11 29  1  0  0  0  0
 12 30  1  0  0  0  0
 13 19  1  0  0  0  0
 13 25  2  0  0  0  0
 14 19  2  0  0  0  0
 14 26  1  0  0  0  0
 15 24  1  0  0  0  0
 15 28  2  0  0  0  0
 16 25  1  0  0  0  0
 16 26  2  0  0  0  0
 17 30  2  0  0  0  0
 17 31  1  0  0  0  0
 18 32  1  0  0  0  0
 19 35  1  0  0  0  0
 20 32  1  0  0  0  0
 20 33  2  0  0  0  0
 20 38  1  0  0  0  0
 21 23  2  0  0  0  0
 21 43  1  0  0  0  0
 22 24  2  0  0  0  0
 22 44  1  0  0  0  0
 23 52  1  0  0  0  0
 24 45  1  0  0  0  0
 25 55  1  0  0  0  0
 26 61  1  0  0  0  0
 27 82  1  0  0  0  0
 28 83  1  0  0  0  0
 29 31  2  0  0  0  0
 29 82  1  0  0  0  0
 30 84  1  0  0  0  0
 31 85  1  0  0  0  0
 32 67  2  0  0  0  0
 33 68  1  0  0  0  0
 33 71  1  0  0  0  0
 34 36  2  0  0  0  0
 35 37  2  0  0  0  0
 36 63  1  0  0  0  0
 37 63  1  0  0  0  0
 38 72  1  0  0  0  0
 38 77  2  0  0  0  0
 39 53  1  0  0  0  0
 39 73  1  0  0  0  0
 39 78  2  0  0  0  0
 40 64  1  0  0  0  0
 40 69  1  0  0  0  0
 40 79  2  0  0  0  0
 41 65  1  0  0  0  0
 41 74  1  0  0  0  0
 41 80  2  0  0  0  0
 42 70  1  0  0  0  0
 42 75  1  0  0  0  0
 42 81  2  0  0  0  0
 43 46  1  0  0  0  0
 44 53  1  0  0  0  0
 45 69  1  0  0  0  0
 46 48  1  0  0  0  0
 47 49  1  0  0  0  0
 47 50  1  0  0  0  0
 48 52  1  0  0  0  0
 49 54  1  0  0  0  0
 50 70  1  0  0  0  0
 51 54  1  0  0  0  0
 51 70  1  0  0  0  0
 52 73  1  0  0  0  0
 53 69  1  0  0  0  0
 54 68  1  0  0  0  0
 56 65  1  0  0  0  0
 57 66  1  0  0  0  0
 58 66  1  0  0  0  0
 59 66  1  0  0  0  0
 60 76  1  0  0  0  0
 61 75  1  0  0  0  0
 62 63  1  0  0  0  0
 62 83  1  0  0  0  0
 64 66  1  0  0  0  0
 64 74  1  0  0  0  0
 65 76  1  0  0  0  0
 67 68  1  0  0  0  0
M  CHG  1  76   1
M  ISO  4  42 100  62 101  75 100  83 101
M  END
> <Batch ID>
0122

> <Smiles>
C=CC(C=Cc1cc(C)cc(C[100NH:0][100C:0](=O)N2CCCC(n3nc(-c4ccc(Oc5ccc(F)cc5F)cc4)c(C(N)=O)c3N)C2)c1)[101CH2:1][101O:1]c1ccc2c(c1)CN(C(=O)C(NC(=O)C(C)NC)C(C)(C)C)C(C(=O)NC1CCCc3ccccc31)C2

> <Shape>
0.241

> <Color>
0.066

> <Negative vol penalty>
0.000

$$$$

  -OEChem-04052302003D

 85 93  0     1  0  0  0  0  0999 V2000
  -27.8241  -32.5336   25.0778 C   0  0  0  0  0  0  0  0  0  0  0  0
  -27.7928  -31.4959   24.1518 C   0  0  0  0  0  0  0  0  0  0  0  0
  -25.3474  -13.3232   21.7294 C   0  0  0  0  0  0  0  0  0  0  0  0
  -26.1434  -13.1661   19.4537 C   0  0  0  0  0  0  0  0  0  0  0  0
  -27.0452  -32.4603   26.2319 C   0  0  0  0  0  0  0  0  0  0  0  0
  -26.9833  -30.3836   24.3799 C   0  0  0  0  0  0  0  0  0  0  0  0
  -24.4016  -28.9814   20.2551 C   0  0  0  0  0  0  0  0  0  0  0  0
  -24.8409  -12.0265   21.6418 C   0  0  0  0  0  0  0  0  0  0  0  0
  -25.6370  -11.8694   19.3661 C   0  0  0  0  0  0  0  0  0  0  0  0
  -25.0972  -28.2664   19.2811 C   0  0  0  0  0  0  0  0  0  0  0  0
  -23.0219   -8.8880   21.8963 C   0  0  0  0  0  0  0  0  0  0  0  0
  -21.7382   -8.6567   22.3906 C   0  0  0  0  0  0  0  0  0  0  0  0
  -24.1492  -26.2130   20.1202 C   0  0  0  0  0  0  0  0  0  0  0  0
  -28.6486  -21.4887   22.8558 C   0  0  0  0  0  0  0  0  0  0  0  0
  -29.9585  -21.8307   20.8548 C   0  0  0  0  0  0  0  0  0  0  0  0
  -27.5898  -22.3060   20.8439 C   0  0  0  0  0  0  0  0  0  0  0  0
  -20.8448  -10.2614   20.8209 C   0  0  0  0  0  0  0  0  0  0  0  0
  -25.9985  -13.8930   20.6353 C   0  0  0  0  0  0  0  0  0  0  0  0
  -27.8079  -15.6166   21.1483 C   0  0  0  0  0  0  0  0  0  0  0  0
  -26.2183  -31.3511   26.4695 C   0  0  0  0  0  0  0  0  0  0  0  0
  -23.5817  -28.3153   21.1774 C   0  0  0  0  0  0  0  0  0  0  0  0
  -26.1936  -30.2948   25.5388 C   0  0  0  0  0  0  0  0  0  0  0  0
  -23.4423  -26.9221   21.1033 C   0  0  0  0  0  0  0  0  0  0  0  0
  -29.8748  -21.4443   22.1925 C   0  0  0  0  0  0  0  0  0  0  0  0
  -27.5061  -21.9195   22.1815 C   0  0  0  0  0  0  0  0  0  0  0  0
  -24.9858  -11.2995   20.4601 C   0  0  0  0  0  0  0  0  0  0  0  0
  -24.9733  -26.8817   19.2153 C   0  0  0  0  0  0  0  0  0  0  0  0
  -23.2171   -9.8061   20.8645 C   0  0  0  0  0  0  0  0  0  0  0  0
  -28.8160  -22.2616   20.1805 C   0  0  0  0  0  0  0  0  0  0  0  0
  -20.6497   -9.3434   21.8529 C   0  0  0  0  0  0  0  0  0  0  0  0
  -22.1285  -10.4928   20.3268 C   0  0  0  0  0  0  0  0  0  0  0  0
  -26.5214  -15.2327   20.7250 C   0  0  0  0  0  0  0  0  0  0  0  0
  -27.8064  -16.9867   21.0524 C   0  0  0  0  0  0  0  0  0  0  0  0
  -28.9864  -25.3469   17.8475 C   0  0  0  0  0  0  0  0  0  0  0  0
  -27.7787  -25.6199   17.3324 C   0  0  0  0  0  0  0  0  0  0  0  0
  -28.9062  -14.8070   21.5889 C   0  0  0  0  0  0  0  0  0  0  0  0
  -23.5663  -27.9902   24.3393 C   0  0  0  0  0  0  0  0  0  0  0  0
  -20.7458  -26.4884   23.7808 C   0  0  0  0  0  0  0  0  0  0  0  0
  -18.7582  -24.7746   21.5992 C   0  0  0  0  0  0  0  0  0  0  0  0
  -25.0019  -21.7814   22.2183 C   0  0  0  0  0  0  0  0  0  0  0  0
  -25.4302  -31.2950   27.7542 C   0  0  0  0  0  0  0  0  0  0  0  0
  -22.8172  -29.1038   22.2051 C   0  0  0  0  0  0  0  0  0  0  0  0
  -22.5590  -26.1616   22.0572 C   0  0  0  0  0  0  0  0  0  0  0  0
  -24.3146  -30.2532   27.7394 C   0  0  0  0  0  0  0  0  0  0  0  0
  -24.5221  -20.1709   18.9214 C   0  0  0  0  0  0  0  0  0  0  0  0
  -24.8293  -28.9278   27.1867 C   0  0  0  0  0  0  0  0  0  0  0  0
  -25.0280  -18.7497   19.1613 C   0  0  0  0  0  0  0  0  0  0  0  0
  -23.9682  -20.7978   20.1973 C   0  0  0  0  0  0  0  0  0  0  0  0
  -25.4436  -19.3618   21.5766 C   0  0  0  0  0  0  0  0  0  0  0  0
  -25.3093  -29.0831   25.7387 C   0  0  1  0  0  0  0  0  0  0  0  0
  -22.4131  -28.2710   23.4179 C   0  0  1  0  0  0  0  0  0  0  0  0
  -26.0438  -18.7230   20.3153 C   0  0  1  0  0  0  0  0  0  0  0  0
  -31.0964  -20.9835   22.9131 C   0  0  0  0  0  0  0  0  0  0  0  0
  -16.5235  -23.6438   21.4418 C   0  0  0  0  0  0  0  0  0  0  0  0
  -21.8334  -24.1231   25.3721 C   0  0  0  0  0  0  0  0  0  0  0  0
  -20.0086  -22.7154   24.3938 C   0  0  0  0  0  0  0  0  0  0  0  0
  -19.4371  -24.6742   25.8288 C   0  0  0  0  0  0  0  0  0  0  0  0
  -26.2175  -22.4783   24.2353 C   0  0  0  0  0  0  0  0  0  0  0  0
  -17.8554  -26.6010   19.4525 C   0  0  0  0  0  0  0  0  0  0  0  0
  -29.8761  -24.2407   17.3544 C   0  0  0  0  0  0  0  0  0  0  0  0
  -26.8973  -26.7213   17.8266 C   0  0  0  0  0  0  0  0  0  1  0  0
  -30.1333  -23.1986   18.4363 C   0  0  0  0  0  0  0  0  0  0  0  0
  -20.3303  -25.0653   23.4961 C   0  0  1  0  0  0  0  0  0  0  0  0
  -17.2950  -24.9370   21.2289 C   0  0  2  0  0  0  0  0  0  0  0  0
  -20.4206  -24.1583   24.7558 C   0  0  0  0  0  0  0  0  0  0  0  0
  -25.7579  -16.2748   20.3855 N   0  0  0  0  0  0  0  0  0  0  0  0
  -26.5672  -17.3270   20.5955 N   0  0  0  0  0  0  0  0  0  0  0  0
  -21.8370  -26.9766   23.0481 N   0  0  0  0  0  0  0  0  0  0  0  0
  -24.9231  -20.7113   21.3034 N   0  0  0  0  0  0  0  0  0  0  0  0
  -28.7442  -17.9216   21.3151 N   0  0  0  0  0  0  0  0  0  0  0  0
  -28.7380  -13.4161   21.6268 N   0  0  0  0  0  0  0  0  0  0  0  0
  -24.1806  -29.1249   24.8338 N   0  0  0  0  0  0  0  0  0  0  0  0
  -18.9976  -25.1391   22.9073 N   0  0  0  0  0  0  0  0  0  0  0  0
  -26.2378  -21.9655   22.8672 N   0  0  0  0  0  0  0  0  0  0  0  0
  -17.1635  -25.3326   19.7982 N   0  3  0  0  0  0  0  0  0  0  0  0
  -29.9988  -15.3035   21.9541 O   0  0  0  0  0  0  0  0  0  0  0  0
  -23.8748  -26.8299   24.5848 O   0  0  0  0  0  0  0  0  0  0  0  0
  -20.1205  -27.1452   24.6171 O   0  0  0  0  0  0  0  0  0  0  0  0
  -19.6036  -24.3620   20.8082 O   0  0  0  0  0  0  0  0  0  0  0  0
  -24.0230  -22.4905   22.4818 O   0  0  0  0  0  0  0  0  0  0  0  0
  -24.4920  -10.0341   20.3744 O   0  0  0  0  0  0  0  0  0  0  0  0
  -25.6517  -26.1813   18.2660 O   0  0  0  0  0  0  0  0  0  1  0  0
  -28.8982  -22.6408   18.8662 O   0  0  0  0  0  0  0  0  0  0  0  0
  -19.4168   -9.1200   22.3265 F   0  0  0  0  0  0  0  0  0  0  0  0
  -22.3096  -11.3751   19.3345 F   0  0  0  0  0  0  0  0  0  0  0  0
  1  2  1  0  0  0  0
  1  5  2  0  0  0  0
  2  6  2  0  0  0  0
  3  8  2  0  0  0  0
  3 18  1  0  0  0  0
  4  9  1  0  0  0  0
  4 18  2  0  0  0  0
  5 20  1  0  0  0  0
  6 22  1  0  0  0  0
  7 10  2  0  0  0  0
  7 21  1  0  0  0  0
  8 26  1  0  0  0  0
  9 26  2  0  0  0  0
 10 27  1  0  0  0  0
 11 12  2  0  0  0  0
 11 28  1  0  0  0  0
 12 30  1  0  0  0  0
 13 23  1  0  0  0  0
 13 27  2  0  0  0  0
 14 24  1  0  0  0  0
 14 25  2  0  0  0  0
 15 24  2  0  0  0  0
 15 29  1  0  0  0  0
 16 25  1  0  0  0  0
 16 29  2  0  0  0  0
 17 30  2  0  0  0  0
 17 31  1  0  0  0  0
 18 32  1  0  0  0  0
 19 32  1  0  0  0  0
 19 33  2  0  0  0  0
 19 36  1  0  0  0  0
 20 22  2  0  0  0  0
 20 41  1  0  0  0  0
 21 23  2  0  0  0  0
 21 42  1  0  0  0  0
 22 50  1  0  0  0  0
 23 43  1  0  0  0  0
 24 53  1  0  0  0  0
 25 74  1  0  0  0  0
 26 81  1  0  0  0  0
 27 82  1  0  0  0  0
 28 31  2  0  0  0  0
 28 81  1  0  0  0  0
 29 83  1  0  0  0  0
 30 84  1  0  0  0  0
 31 85  1  0  0  0  0
 32 66  2  0  0  0  0
 33 67  1  0  0  0  0
 33 70  1  0  0  0  0
 34 35  2  0  0  0  0
 34 60  1  0  0  0  0
 35 61  1  0  0  0  0
 36 71  1  0  0  0  0
 36 76  2  0  0  0  0
 37 51  1  0  0  0  0
 37 72  1  0  0  0  0
 37 77  2  0  0  0  0
 38 63  1  0  0  0  0
 38 68  1  0  0  0  0
 38 78  2  0  0  0  0
 39 64  1  0  0  0  0
 39 73  1  0  0  0  0
 39 79  2  0  0  0  0
 40 69  1  0  0  0  0
 40 74  1  0  0  0  0
 40 80  2  0  0  0  0
 41 44  1  0  0  0  0
 42 51  1  0  0  0  0
 43 68  1  0  0  0  0
 44 46  1  0  0  0  0
 45 47  1  0  0  0  0
 45 48  1  0  0  0  0
 46 50  1  0  0  0  0
 47 52  1  0  0  0  0
 48 69  1  0  0  0  0
 49 52  1  0  0  0  0
 49 69  1  0  0  0  0
 50 72  1  0  0  0  0
 51 68  1  0  0  0  0
 52 67  1  0  0  0  0
 54 64  1  0  0  0  0
 55 65  1  0  0  0  0
 56 65  1  0  0  0  0
 57 65  1  0  0  0  0
 58 74  1  0  0  0  0
 59 75  1  0  0  0  0
 60 62  1  0  0  0  0
 61 82  1  0  0  0  0
 62 83  1  0  0  0  0
 63 65  1  0  0  0  0
 63 73  1  0  0  0  0
 64 75  1  0  0  0  0
 66 67  1  0  0  0  0
M  CHG  1  75   1
M  ISO  4  40 100  61 101  74 100  82 101
M  END
> <Batch ID>
0122

> <Smiles>
CNC(C)C(=O)NC(C(=O)N1Cc2cc([101O:1][101CH2:1]C=CCCOc3cc(C)cc([100N:0](C)[100C:0](=O)N4CCCC(n5nc(-c6ccc(Oc7ccc(F)cc7F)cc6)c(C(N)=O)c5N)C4)c3)ccc2CC1C(=O)NC1CCCc2ccccc21)C(C)(C)C

> <Shape>
0.247

> <Color>
0.045

> <Negative vol penalty>
0.000

$$$$

  -OEChem-04052302003D

 86 94  0     1  0  0  0  0  0999 V2000
  -27.9807  -32.6533   27.7221 C   0  0  0  0  0  0  0  0  0  0  0  0
  -28.3244  -31.8551   26.6358 C   0  0  0  0  0  0  0  0  0  0  0  0
  -24.0044   -8.6597   19.7458 C   0  0  0  0  0  0  0  0  0  0  0  0
  -23.1575  -10.4711   21.1016 C   0  0  0  0  0  0  0  0  0  0  0  0
  -26.6768  -32.6335   28.2154 C   0  0  0  0  0  0  0  0  0  0  0  0
  -27.3645  -31.0357   26.0428 C   0  0  0  0  0  0  0  0  0  0  0  0
  -26.8923  -29.6229   20.1025 C   0  0  0  0  0  0  0  0  0  0  0  0
  -23.1406   -7.7738   20.3897 C   0  0  0  0  0  0  0  0  0  0  0  0
  -22.2936   -9.5853   21.7456 C   0  0  0  0  0  0  0  0  0  0  0  0
  -27.2984  -28.5096   19.3680 C   0  0  0  0  0  0  0  0  0  0  0  0
  -19.3333   -8.0865   21.1045 C   0  0  0  0  0  0  0  0  0  0  0  0
  -18.0123   -8.4931   21.2922 C   0  0  0  0  0  0  0  0  0  0  0  0
  -25.0867  -27.5701   19.5804 C   0  0  0  0  0  0  0  0  0  0  0  0
  -30.0969  -18.4379   19.9482 C   0  0  0  0  0  0  0  0  0  0  0  0
  -18.2857   -8.2771   23.6830 C   0  0  0  0  0  0  0  0  0  0  0  0
  -24.0129  -10.0084   20.1017 C   0  0  0  0  0  0  0  0  0  0  0  0
  -24.6439  -11.6725   18.2741 C   0  0  0  0  0  0  0  0  0  0  0  0
  -25.6980  -31.8207   27.6220 C   0  0  0  0  0  0  0  0  0  0  0  0
  -25.5812  -29.7132   20.5917 C   0  0  0  0  0  0  0  0  0  0  0  0
  -26.0466  -31.0040   26.5294 C   0  0  0  0  0  0  0  0  0  0  0  0
  -24.6658  -28.6868   20.3187 C   0  0  0  0  0  0  0  0  0  0  0  0
  -28.1412  -18.4540   18.5299 C   0  0  0  0  0  0  0  0  0  0  0  0
  -29.1158  -17.7485   19.2357 C   0  0  0  0  0  0  0  0  0  0  0  0
  -22.2852   -8.2366   21.3896 C   0  0  0  0  0  0  0  0  0  0  0  0
  -26.3964  -27.4817   19.1093 C   0  0  0  0  0  0  0  0  0  0  0  0
  -20.1305   -7.7752   22.2060 C   0  0  0  0  0  0  0  0  0  0  0  0
  -29.1290  -20.5382   19.2492 C   0  0  0  0  0  0  0  0  0  0  0  0
  -17.4885   -8.5884   22.5815 C   0  0  0  0  0  0  0  0  0  0  0  0
  -30.1035  -19.8327   19.9550 C   0  0  0  0  0  0  0  0  0  0  0  0
  -19.6067   -7.8705   23.4953 C   0  0  0  0  0  0  0  0  0  0  0  0
  -28.1478  -19.8489   18.5367 C   0  0  0  0  0  0  0  0  0  0  0  0
  -24.9053  -10.9239   19.4373 C   0  0  0  0  0  0  0  0  0  0  0  0
  -25.8006  -12.3795   18.0536 C   0  0  0  0  0  0  0  0  0  0  0  0
  -23.4611  -11.7242   17.4653 C   0  0  0  0  0  0  0  0  0  0  0  0
  -24.2734  -29.8957   23.4830 C   0  0  0  0  0  0  0  0  0  0  0  0
  -21.5383  -30.3227   21.7921 C   0  0  0  0  0  0  0  0  0  0  0  0
  -19.8373  -29.8630   18.8694 C   0  0  0  0  0  0  0  0  0  0  0  0
  -30.0306  -15.4962   19.8964 C   0  0  0  0  0  0  0  0  0  0  0  0
  -24.3136  -31.7975   28.2200 C   0  0  0  0  0  0  0  0  0  0  0  0
  -25.1513  -30.9330   21.3595 C   0  0  0  0  0  0  0  0  0  0  0  0
  -23.2412  -28.7449   20.8041 C   0  0  0  0  0  0  0  0  0  0  0  0
  -23.2627  -31.1827   27.2993 C   0  0  0  0  0  0  0  0  0  0  0  0
  -30.3724  -11.9640   20.1861 C   0  0  0  0  0  0  0  0  0  0  0  0
  -23.7770  -29.8786   26.6979 C   0  0  0  0  0  0  0  0  0  0  0  0
  -28.9590  -11.4401   19.9215 C   0  0  0  0  0  0  0  0  0  0  0  0
  -30.3536  -13.2770   20.9668 C   0  0  0  0  0  0  0  0  0  0  0  0
  -28.1020  -13.8093   20.1205 C   0  0  0  0  0  0  0  0  0  0  0  0
  -25.0273  -30.1204   25.8435 C   0  0  1  0  0  0  0  0  0  0  0  0
  -23.9367  -30.6824   22.2480 C   0  0  1  0  0  0  0  0  0  0  0  0
  -28.0678  -12.5220   19.2806 C   0  0  2  0  0  0  0  0  0  0  0  0
  -27.5962  -17.1812   16.4396 C   0  0  0  0  0  0  0  0  0  0  0  0
  -17.6067  -30.2867   17.8008 C   0  0  0  0  0  0  0  0  0  0  0  0
  -20.3364  -28.0208   23.3941 C   0  0  0  0  0  0  0  0  0  0  0  0
  -18.5182  -27.8689   21.6796 C   0  0  0  0  0  0  0  0  0  0  0  0
  -18.7916  -29.9524   23.0238 C   0  0  0  0  0  0  0  0  0  0  0  0
  -21.0396  -31.5534   16.7584 C   0  0  0  0  0  0  0  0  0  0  0  0
  -27.0778  -17.7383   17.7616 C   0  0  0  0  0  0  0  0  0  0  0  0
  -28.2997  -24.5121   18.2818 C   0  0  0  0  0  0  0  0  0  0  0  0
  -29.7507  -24.0584   18.3971 C   0  0  0  0  0  0  0  0  0  0  0  0
  -28.1627  -26.0146   18.4899 C   0  0  0  0  0  0  0  0  0  1  0  0
  -29.8833  -22.5511   18.2318 C   0  0  0  0  0  0  0  0  0  0  0  0
  -20.4801  -29.4093   21.2221 C   0  0  1  0  0  0  0  0  0  0  0  0
  -19.0148  -30.8168   18.0219 C   0  0  2  0  0  0  0  0  0  0  0  0
  -19.5589  -28.8105   22.3223 C   0  0  0  0  0  0  0  0  0  0  0  0
  -26.1319  -11.1354   19.9218 N   0  0  0  0  0  0  0  0  0  0  0  0
  -26.6515  -12.0249   19.0587 N   0  0  0  0  0  0  0  0  0  0  0  0
  -22.8706  -29.9553   21.5560 N   0  0  0  0  0  0  0  0  0  0  0  0
  -29.4928  -14.2552   20.2982 N   0  0  0  0  0  0  0  0  0  0  0  0
  -26.1627  -13.2636   17.0998 N   0  0  0  0  0  0  0  0  0  0  0  0
  -22.3641  -10.9339   17.8346 N   0  0  0  0  0  0  0  0  0  0  0  0
  -29.1262  -16.3316   19.2415 N   0  0  0  0  0  0  0  0  0  0  0  0
  -24.6612  -30.6736   24.5573 N   0  0  0  0  0  0  0  0  0  0  0  0
  -19.7738  -30.1853   20.2086 N   0  0  0  0  0  0  0  0  0  0  0  0
  -19.6573  -31.0133   16.6917 N   0  3  0  0  0  0  0  0  0  0  0  0
  -23.3853  -12.4373   16.4361 O   0  0  0  0  0  0  0  0  0  0  0  0
  -24.1863  -28.6735   23.4633 O   0  0  0  0  0  0  0  0  0  0  0  0
  -21.1954  -31.3291   22.4175 O   0  0  0  0  0  0  0  0  0  0  0  0
  -20.4697  -28.9237   18.3917 O   0  0  0  0  0  0  0  0  0  0  0  0
  -31.2139  -15.7848   20.0927 O   0  0  0  0  0  0  0  0  0  0  0  0
  -21.4420   -7.3725   22.0180 O   0  0  0  0  0  0  0  0  0  0  0  0
  -26.7904  -26.3937   18.3931 O   0  0  0  0  0  0  0  0  0  1  0  0
  -29.1358  -21.9089   19.2556 O   0  0  0  0  0  0  0  0  0  0  0  0
  -16.2204   -8.9803   22.7617 F   0  0  0  0  0  0  0  0  0  0  0  0
  -31.0485  -20.4893   20.6421 F   0  0  0  0  0  0  0  0  0  0  0  0
  -20.3680   -7.5739   24.5574 F   0  0  0  0  0  0  0  0  0  0  0  0
  -27.2121  -20.5311   17.8605 F   0  0  0  0  0  0  0  0  0  0  0  0
  1  2  1  0  0  0  0
  1  5  2  0  0  0  0
  2  6  2  0  0  0  0
  3  8  2  0  0  0  0
  3 16  1  0  0  0  0
  4  9  1  0  0  0  0
  4 16  2  0  0  0  0
  5 18  1  0  0  0  0
  6 20  1  0  0  0  0
  7 10  2  0  0  0  0
  7 19  1  0  0  0  0
  8 24  1  0  0  0  0
  9 24  2  0  0  0  0
 10 25  1  0  0  0  0
 11 12  2  0  0  0  0
 11 26  1  0  0  0  0
 12 28  1  0  0  0  0
 13 21  1  0  0  0  0
 13 25  2  0  0  0  0
 14 23  2  0  0  0  0
 14 29  1  0  0  0  0
 15 28  2  0  0  0  0
 15 30  1  0  0  0  0
 16 32  1  0  0  0  0
 17 32  1  0  0  0  0
 17 33  2  0  0  0  0
 17 34  1  0  0  0  0
 18 20  2  0  0  0  0
 18 39  1  0  0  0  0
 19 21  2  0  0  0  0
 19 40  1  0  0  0  0
 20 48  1  0  0  0  0
 21 41  1  0  0  0  0
 22 23  1  0  0  0  0
 22 31  2  0  0  0  0
 22 57  1  0  0  0  0
 23 71  1  0  0  0  0
 24 80  1  0  0  0  0
 25 81  1  0  0  0  0
 26 30  2  0  0  0  0
 26 80  1  0  0  0  0
 27 29  2  0  0  0  0
 27 31  1  0  0  0  0
 27 82  1  0  0  0  0
 28 83  1  0  0  0  0
 29 84  1  0  0  0  0
 30 85  1  0  0  0  0
 31 86  1  0  0  0  0
 32 65  2  0  0  0  0
 33 66  1  0  0  0  0
 33 69  1  0  0  0  0
 34 70  1  0  0  0  0
 34 75  2  0  0  0  0
 35 49  1  0  0  0  0
 35 72  1  0  0  0  0
 35 76  2  0  0  0  0
 36 62  1  0  0  0  0
 36 67  1  0  0  0  0
 36 77  2  0  0  0  0
 37 63  1  0  0  0  0
 37 73  1  0  0  0  0
 37 78  2  0  0  0  0
 38 68  1  0  0  0  0
 38 71  1  0  0  0  0
 38 79  2  0  0  0  0
 39 42  1  0  0  0  0
 40 49  1  0  0  0  0
 41 67  1  0  0  0  0
 42 44  1  0  0  0  0
 43 45  1  0  0  0  0
 43 46  1  0  0  0  0
 44 48  1  0  0  0  0
 45 50  1  0  0  0  0
 46 68  1  0  0  0  0
 47 50  1  0  0  0  0
 47 68  1  0  0  0  0
 48 72  1  0  0  0  0
 49 67  1  0  0  0  0
 50 66  1  0  0  0  0
 51 57  1  0  0  0  0
 52 63  1  0  0  0  0
 53 64  1  0  0  0  0
 54 64  1  0  0  0  0
 55 64  1  0  0  0  0
 56 74  1  0  0  0  0
 58 59  1  0  0  0  0
 58 60  1  0  0  0  0
 59 61  1  0  0  0  0
 60 81  1  0  0  0  0
 61 82  1  0  0  0  0
 62 64  1  0  0  0  0
 62 73  1  0  0  0  0
 63 74  1  0  0  0  0
 65 66  1  0  0  0  0
M  CHG  1  74   1
M  ISO  4  38 100  60 101  71 100  81 101
M  END
> <Batch ID>
0122

> <Smiles>
CCc1c([100NH:0][100C:0](=O)N2CCCC(n3nc(-c4ccc(Oc5ccc(F)cc5F)cc4)c(C(N)=O)c3N)C2)cc(F)c(OCCC[101CH2:1][101O:1]c2ccc3c(c2)CN(C(=O)C(NC(=O)C(C)NC)C(C)(C)C)C(C(=O)NC2CCCc4ccccc42)C3)c1F

> <Shape>
0.291

> <Color>
0.101

> <Negative vol penalty>
0.000

$$$$

  -OEChem-04052302003D

 84 92  0     1  0  0  0  0  0999 V2000
  -23.1072  -19.9582   24.9233 C   0  0  0  0  0  0  0  0  0  0  0  0
  -23.7621  -20.7124   23.9549 C   0  0  0  0  0  0  0  0  0  0  0  0
  -23.4864  -10.0152   22.7004 C   0  0  0  0  0  0  0  0  0  0  0  0
  -23.8907   -9.8670   20.3231 C   0  0  0  0  0  0  0  0  0  0  0  0
  -21.9062  -20.4136   25.4656 C   0  0  0  0  0  0  0  0  0  0  0  0
  -23.2158  -21.9220   23.5275 C   0  0  0  0  0  0  0  0  0  0  0  0
  -26.6722  -25.6091   23.2062 C   0  0  0  0  0  0  0  0  0  0  0  0
  -22.6200   -8.9249   22.6210 C   0  0  0  0  0  0  0  0  0  0  0  0
  -23.0244   -8.7767   20.2437 C   0  0  0  0  0  0  0  0  0  0  0  0
  -27.5094  -25.6016   22.0914 C   0  0  0  0  0  0  0  0  0  0  0  0
  -20.5810   -5.9546   23.1059 C   0  0  0  0  0  0  0  0  0  0  0  0
  -20.6996   -4.9601   24.0766 C   0  0  0  0  0  0  0  0  0  0  0  0
  -29.0398  -19.4332   18.6638 C   0  0  0  0  0  0  0  0  0  0  0  0
  -31.3371  -19.3265   17.9237 C   0  0  0  0  0  0  0  0  0  0  0  0
  -26.1416  -27.3001   21.0602 C   0  0  0  0  0  0  0  0  0  0  0  0
  -30.1584  -17.2979   18.5003 C   0  0  0  0  0  0  0  0  0  0  0  0
  -22.9820   -4.5629   23.3909 C   0  0  0  0  0  0  0  0  0  0  0  0
  -24.1217  -10.4863   21.5514 C   0  0  0  0  0  0  0  0  0  0  0  0
  -30.1985  -20.0738   18.2249 C   0  0  0  0  0  0  0  0  0  0  0  0
  -26.4035  -11.5813   21.8704 C   0  0  0  0  0  0  0  0  0  0  0  0
  -21.3498  -21.6341   25.0516 C   0  0  0  0  0  0  0  0  0  0  0  0
  -25.5553  -26.4557   23.2518 C   0  0  0  0  0  0  0  0  0  0  0  0
  -22.0055  -22.3935   24.0638 C   0  0  0  0  0  0  0  0  0  0  0  0
  -25.2932  -27.3182   22.1778 C   0  0  0  0  0  0  0  0  0  0  0  0
  -29.0197  -18.0452   18.8015 C   0  0  0  0  0  0  0  0  0  0  0  0
  -22.3890   -8.3056   21.3926 C   0  0  0  0  0  0  0  0  0  0  0  0
  -27.2425  -26.4451   21.0169 C   0  0  0  0  0  0  0  0  0  0  0  0
  -21.6629   -6.2534   22.2776 C   0  0  0  0  0  0  0  0  0  0  0  0
  -21.9000   -4.2642   24.2192 C   0  0  0  0  0  0  0  0  0  0  0  0
  -31.3171  -17.9386   18.0614 C   0  0  0  0  0  0  0  0  0  0  0  0
  -22.8634   -5.5575   22.4201 C   0  0  0  0  0  0  0  0  0  0  0  0
  -25.0164  -11.6128   21.6326 C   0  0  0  0  0  0  0  0  0  0  0  0
  -26.7851  -12.9006   21.8522 C   0  0  0  0  0  0  0  0  0  0  0  0
  -30.2204  -21.5399   18.0803 C   0  0  0  0  0  0  0  0  0  0  0  0
  -29.1337  -22.3198   17.9653 C   0  0  0  0  0  0  0  0  0  0  0  0
  -29.2143  -23.7567   17.8156 C   0  0  0  0  0  0  0  0  0  0  0  0
  -28.1345  -24.5443   17.7000 C   0  0  0  0  0  0  0  0  0  0  0  0
  -27.2698  -10.4598   22.0881 C   0  0  0  0  0  0  0  0  0  0  0  0
  -22.4141  -26.0158   23.4594 C   0  0  0  0  0  0  0  0  0  0  0  0
  -22.3709  -29.2493   23.7139 C   0  0  0  0  0  0  0  0  0  0  0  0
  -23.9219  -32.2253   23.0935 C   0  0  0  0  0  0  0  0  0  0  0  0
  -26.6277  -17.9858   19.5896 C   0  0  0  0  0  0  0  0  0  0  0  0
  -20.0254  -22.0623   25.6323 C   0  0  0  0  0  0  0  0  0  0  0  0
  -24.6772  -26.4711   24.4729 C   0  0  0  0  0  0  0  0  0  0  0  0
  -24.1185  -28.2608   22.1861 C   0  0  0  0  0  0  0  0  0  0  0  0
  -19.7049  -23.5361   25.3966 C   0  0  0  0  0  0  0  0  0  0  0  0
  -24.0082  -17.1328   21.8451 C   0  0  0  0  0  0  0  0  0  0  0  0
  -19.9773  -23.9161   23.9447 C   0  0  0  0  0  0  0  0  0  0  0  0
  -24.1511  -15.6180   22.0105 C   0  0  0  0  0  0  0  0  0  0  0  0
  -24.3204  -17.5794   20.4180 C   0  0  0  0  0  0  0  0  0  0  0  0
  -25.7583  -15.6113   20.0602 C   0  0  0  0  0  0  0  0  0  0  0  0
  -21.4572  -23.7229   23.5922 C   0  0  1  0  0  0  0  0  0  0  0  0
  -23.2752  -27.0040   24.1940 C   0  0  1  0  0  0  0  0  0  0  0  0
  -25.5170  -15.1215   21.4974 C   0  0  2  0  0  0  0  0  0  0  0  0
  -23.6249  -34.6999   23.3854 C   0  0  0  0  0  0  0  0  0  0  0  0
  -20.3731  -29.2791   21.4079 C   0  0  0  0  0  0  0  0  0  0  0  0
  -20.8422  -31.7220   21.1248 C   0  0  0  0  0  0  0  0  0  0  0  0
  -19.8563  -30.8820   23.2567 C   0  0  0  0  0  0  0  0  0  0  0  0
  -26.3490  -32.4356   24.7740 C   0  0  0  0  0  0  0  0  0  0  0  0
  -28.2063  -26.0388   17.5494 C   0  0  0  0  0  0  0  0  0  0  0  0
  -27.4632  -26.7575   18.6697 C   0  0  0  0  0  0  0  0  0  1  0  0
  -22.2828  -30.3975   22.7377 C   0  0  1  0  0  0  0  0  0  0  0  0
  -24.1952  -33.4237   23.9843 C   0  0  2  0  0  0  0  0  0  0  0  0
  -20.8597  -30.5511   22.1305 C   0  0  0  0  0  0  0  0  0  0  0  0
  -24.5482  -12.8538   21.4752 N   0  0  0  0  0  0  0  0  0  0  0  0
  -25.6474  -13.6144   21.6143 N   0  0  0  0  0  0  0  0  0  0  0  0
  -23.2858  -28.2343   23.3999 N   0  0  0  0  0  0  0  0  0  0  0  0
  -25.6311  -17.0759   20.0016 N   0  0  0  0  0  0  0  0  0  0  0  0
  -27.9793  -13.5082   22.0167 N   0  0  0  0  0  0  0  0  0  0  0  0
  -26.7136   -9.1734   22.0744 N   0  0  0  0  0  0  0  0  0  0  0  0
  -27.8432  -17.3939   19.2479 N   0  0  0  0  0  0  0  0  0  0  0  0
  -22.2490  -24.8133   24.1199 N   0  0  0  0  0  0  0  0  0  0  0  0
  -22.7585  -31.5776   23.4514 N   0  0  0  0  0  0  0  0  0  0  0  0
  -25.6624  -33.6067   24.1707 N   0  3  0  0  0  0  0  0  0  0  0  0
  -28.4978  -10.5954   22.3051 O   0  0  0  0  0  0  0  0  0  0  0  0
  -21.9338  -26.3221   22.3745 O   0  0  0  0  0  0  0  0  0  0  0  0
  -21.6596  -29.2564   24.7217 O   0  0  0  0  0  0  0  0  0  0  0  0
  -24.6642  -31.8987   22.1700 O   0  0  0  0  0  0  0  0  0  0  0  0
  -26.4269  -19.2029   19.5693 O   0  0  0  0  0  0  0  0  0  0  0  0
  -21.5438   -7.2416   21.3148 O   0  0  0  0  0  0  0  0  0  0  0  0
  -28.0578  -26.4393   19.9273 O   0  0  0  0  0  0  0  0  0  1  0  0
  -22.0143   -3.3102   25.1524 F   0  0  0  0  0  0  0  0  0  0  0  0
  -32.4111  -17.2208   17.7749 F   0  0  0  0  0  0  0  0  0  0  0  0
  -23.9066   -5.8409   21.6282 F   0  0  0  0  0  0  0  0  0  0  0  0
  1  2  1  0  0  0  0
  1  5  2  0  0  0  0
  2  6  2  0  0  0  0
  3  8  2  0  0  0  0
  3 18  1  0  0  0  0
  4  9  1  0  0  0  0
  4 18  2  0  0  0  0
  5 21  1  0  0  0  0
  6 23  1  0  0  0  0
  7 10  2  0  0  0  0
  7 22  1  0  0  0  0
  8 26  1  0  0  0  0
  9 26  2  0  0  0  0
 10 27  1  0  0  0  0
 11 12  2  0  0  0  0
 11 28  1  0  0  0  0
 12 29  1  0  0  0  0
 13 19  2  0  0  0  0
 13 25  1  0  0  0  0
 14 19  1  0  0  0  0
 14 30  2  0  0  0  0
 15 24  1  0  0  0  0
 15 27  2  0  0  0  0
 16 25  2  0  0  0  0
 16 30  1  0  0  0  0
 17 29  2  0  0  0  0
 17 31  1  0  0  0  0
 18 32  1  0  0  0  0
 19 34  1  0  0  0  0
 20 32  1  0  0  0  0
 20 33  2  0  0  0  0
 20 38  1  0  0  0  0
 21 23  2  0  0  0  0
 21 43  1  0  0  0  0
 22 24  2  0  0  0  0
 22 44  1  0  0  0  0
 23 52  1  0  0  0  0
 24 45  1  0  0  0  0
 25 71  1  0  0  0  0
 26 80  1  0  0  0  0
 27 81  1  0  0  0  0
 28 31  2  0  0  0  0
 28 80  1  0  0  0  0
 29 82  1  0  0  0  0
 30 83  1  0  0  0  0
 31 84  1  0  0  0  0
 32 65  2  0  0  0  0
 33 66  1  0  0  0  0
 33 69  1  0  0  0  0
 34 35  2  0  0  0  0
 35 36  1  0  0  0  0
 36 37  2  0  0  0  0
 37 60  1  0  0  0  0
 38 70  1  0  0  0  0
 38 75  2  0  0  0  0
 39 53  1  0  0  0  0
 39 72  1  0  0  0  0
 39 76  2  0  0  0  0
 40 62  1  0  0  0  0
 40 67  1  0  0  0  0
 40 77  2  0  0  0  0
 41 63  1  0  0  0  0
 41 73  1  0  0  0  0
 41 78  2  0  0  0  0
 42 68  1  0  0  0  0
 42 71  1  0  0  0  0
 42 79  2  0  0  0  0
 43 46  1  0  0  0  0
 44 53  1  0  0  0  0
 45 67  1  0  0  0  0
 46 48  1  0  0  0  0
 47 49  1  0  0  0  0
 47 50  1  0  0  0  0
 48 52  1  0  0  0  0
 49 54  1  0  0  0  0
 50 68  1  0  0  0  0
 51 54  1  0  0  0  0
 51 68  1  0  0  0  0
 52 72  1  0  0  0  0
 53 67  1  0  0  0  0
 54 66  1  0  0  0  0
 55 63  1  0  0  0  0
 56 64  1  0  0  0  0
 57 64  1  0  0  0  0
 58 64  1  0  0  0  0
 59 74  1  0  0  0  0
 60 61  1  0  0  0  0
 61 81  1  0  0  0  0
 62 64  1  0  0  0  0
 62 73  1  0  0  0  0
 63 74  1  0  0  0  0
 65 66  1  0  0  0  0
M  CHG  1  74   1
M  ISO  4  42 100  61 101  71 100  81 101
M  END
> <Batch ID>
0122

> <Smiles>
CNC(C)C(=O)NC(C(=O)N1Cc2cc([101O:1][101CH2:1]CC=CC=Cc3cc(F)cc([100NH:0][100C:0](=O)N4CCCC(n5nc(-c6ccc(Oc7ccc(F)cc7F)cc6)c(C(N)=O)c5N)C4)c3)ccc2CC1C(=O)NC1CCCc2ccccc21)C(C)(C)C

> <Shape>
0.224

> <Color>
0.095

> <Negative vol penalty>
0.000

$$$$

  -OEChem-04052302003D

 86 94  0     1  0  0  0  0  0999 V2000
  -28.7319  -38.0725   21.3297 C   0  0  0  0  0  0  0  0  0  0  0  0
  -29.1264  -36.7862   20.9759 C   0  0  0  0  0  0  0  0  0  0  0  0
  -28.9722  -17.8998   18.7548 C   0  0  0  0  0  0  0  0  0  0  0  0
  -24.6374   -8.6441   21.9627 C   0  0  0  0  0  0  0  0  0  0  0  0
  -23.5336   -9.1259   19.8683 C   0  0  0  0  0  0  0  0  0  0  0  0
  -27.7575  -38.2567   22.3098 C   0  0  0  0  0  0  0  0  0  0  0  0
  -28.5476  -35.6833   21.6029 C   0  0  0  0  0  0  0  0  0  0  0  0
  -27.3304  -30.2354   19.0839 C   0  0  0  0  0  0  0  0  0  0  0  0
  -29.1377  -17.1762   19.9357 C   0  0  0  0  0  0  0  0  0  0  0  0
  -28.3095  -19.1271   18.7758 C   0  0  0  0  0  0  0  0  0  0  0  0
  -23.5342   -7.8951   22.3719 C   0  0  0  0  0  0  0  0  0  0  0  0
  -22.4304   -8.3768   20.2774 C   0  0  0  0  0  0  0  0  0  0  0  0
  -28.0126  -29.0197   19.1032 C   0  0  0  0  0  0  0  0  0  0  0  0
  -22.2719   -4.8089   21.8104 C   0  0  0  0  0  0  0  0  0  0  0  0
  -22.5136   -3.5699   22.4036 C   0  0  0  0  0  0  0  0  0  0  0  0
  -26.6282  -28.2787   20.9344 C   0  0  0  0  0  0  0  0  0  0  0  0
  -21.3992   -4.3150   24.4136 C   0  0  0  0  0  0  0  0  0  0  0  0
  -24.6371   -9.2596   20.7109 C   0  0  0  0  0  0  0  0  0  0  0  0
  -26.9054   -9.5713   19.5861 C   0  0  0  0  0  0  0  0  0  0  0  0
  -27.1595  -37.1553   22.9423 C   0  0  0  0  0  0  0  0  0  0  0  0
  -26.2975  -30.4865   19.9985 C   0  0  0  0  0  0  0  0  0  0  0  0
  -27.5653  -35.8530   22.5933 C   0  0  0  0  0  0  0  0  0  0  0  0
  -25.9327  -29.4974   20.9230 C   0  0  0  0  0  0  0  0  0  0  0  0
  -27.9777  -18.9071   21.1588 C   0  0  0  0  0  0  0  0  0  0  0  0
  -28.6405  -17.6798   21.1377 C   0  0  0  0  0  0  0  0  0  0  0  0
  -22.4307   -7.7614   21.5292 C   0  0  0  0  0  0  0  0  0  0  0  0
  -27.6635  -28.0422   20.0304 C   0  0  0  0  0  0  0  0  0  0  0  0
  -27.8123  -19.6307   19.9778 C   0  0  0  0  0  0  0  0  0  0  0  0
  -21.5939   -5.8011   22.5187 C   0  0  0  0  0  0  0  0  0  0  0  0
  -22.0772   -3.3229   23.7052 C   0  0  0  0  0  0  0  0  0  0  0  0
  -21.1575   -5.5541   23.8203 C   0  0  0  0  0  0  0  0  0  0  0  0
  -25.7762  -10.0339   20.2879 C   0  0  0  0  0  0  0  0  0  0  0  0
  -27.6916  -10.6862   19.4273 C   0  0  0  0  0  0  0  0  0  0  0  0
  -32.1170  -17.9700   22.7061 C   0  0  0  0  0  0  0  0  0  0  0  0
  -31.1578  -17.0640   22.9269 C   0  0  0  0  0  0  0  0  0  0  0  0
  -27.2159   -8.2516   19.1194 C   0  0  0  0  0  0  0  0  0  0  0  0
  -25.8216  -32.6070   22.3181 C   0  0  0  0  0  0  0  0  0  0  0  0
  -22.8812  -31.2418   22.4308 C   0  0  0  0  0  0  0  0  0  0  0  0
  -20.9263  -28.5163   21.8010 C   0  0  0  0  0  0  0  0  0  0  0  0
  -28.2954  -15.6111   22.4766 C   0  0  0  0  0  0  0  0  0  0  0  0
  -26.1446  -37.4054   24.0295 C   0  0  0  0  0  0  0  0  0  0  0  0
  -25.5536  -31.7928   19.9472 C   0  0  0  0  0  0  0  0  0  0  0  0
  -24.8176  -29.7097   21.9129 C   0  0  0  0  0  0  0  0  0  0  0  0
  -25.3114  -36.1752   24.3796 C   0  0  0  0  0  0  0  0  0  0  0  0
  -27.4266  -15.4393   19.0329 C   0  0  0  0  0  0  0  0  0  0  0  0
  -26.2077  -34.9514   24.5401 C   0  0  0  0  0  0  0  0  0  0  0  0
  -27.0012  -13.9775   18.8999 C   0  0  0  0  0  0  0  0  0  0  0  0
  -26.9602  -16.0533   20.3533 C   0  0  0  0  0  0  0  0  0  0  0  0
  -26.9400  -13.8195   21.4183 C   0  0  0  0  0  0  0  0  0  0  0  0
  -26.9430  -34.6309   23.2331 C   0  0  1  0  0  0  0  0  0  0  0  0
  -24.8611  -32.1381   21.2620 C   0  0  1  0  0  0  0  0  0  0  0  0
  -27.4447  -13.1595   20.1256 C   0  0  1  0  0  0  0  0  0  0  0  0
  -27.4400  -19.4558   22.4427 C   0  0  0  0  0  0  0  0  0  0  0  0
  -18.5701  -27.6853   22.0361 C   0  0  0  0  0  0  0  0  0  0  0  0
  -23.3356  -30.8055   25.4163 C   0  0  0  0  0  0  0  0  0  0  0  0
  -21.4378  -29.1727   25.3956 C   0  0  0  0  0  0  0  0  0  0  0  0
  -21.0303  -31.5634   24.8117 C   0  0  0  0  0  0  0  0  0  0  0  0
  -20.6314  -28.1754   18.8759 C   0  0  0  0  0  0  0  0  0  0  0  0
  -29.7697  -17.4091   23.3535 C   0  0  0  0  0  0  0  0  0  0  0  0
  -28.1497  -24.4585   19.8155 C   0  0  0  0  0  0  0  0  0  0  0  0
  -27.3834  -23.2093   20.2362 C   0  0  0  0  0  0  0  0  0  0  0  0
  -27.5972  -25.7091   20.4864 C   0  0  0  0  0  0  0  0  0  1  0  0
  -27.9072  -21.9650   19.5333 C   0  0  0  0  0  0  0  0  0  0  0  0
  -22.2686  -30.0826   23.1791 C   0  0  1  0  0  0  0  0  0  0  0  0
  -19.5720  -28.3818   21.1284 C   0  0  2  0  0  0  0  0  0  0  0  0
  -22.0404  -30.4025   24.6834 C   0  0  0  0  0  0  0  0  0  0  0  0
  -25.8359  -11.3410   20.5566 N   0  0  0  0  0  0  0  0  0  0  0  0
  -27.0121  -11.7091   20.0208 N   0  0  0  0  0  0  0  0  0  0  0  0
  -24.1245  -31.0058   21.8273 N   0  0  0  0  0  0  0  0  0  0  0  0
  -27.3711  -15.2177   21.4904 N   0  0  0  0  0  0  0  0  0  0  0  0
  -28.8910  -10.8817   18.8393 N   0  0  0  0  0  0  0  0  0  0  0  0
  -26.2979   -7.2220   19.3673 N   0  0  0  0  0  0  0  0  0  0  0  0
  -26.0541  -33.9691   22.3023 N   0  0  0  0  0  0  0  0  0  0  0  0
  -21.0547  -29.7241   22.4536 N   0  0  0  0  0  0  0  0  0  0  0  0
  -28.8229  -16.9140   22.3483 N   0  0  0  0  0  0  0  0  0  0  0  0
  -19.6945  -27.5922   19.8704 N   0  3  0  0  0  0  0  0  0  0  0  0
  -28.2837   -7.9898   18.5153 O   0  0  0  0  0  0  0  0  0  0  0  0
  -26.3140  -31.7936   23.0911 O   0  0  0  0  0  0  0  0  0  0  0  0
  -22.2754  -32.3151   22.3775 O   0  0  0  0  0  0  0  0  0  0  0  0
  -21.7830  -27.6363   21.7553 O   0  0  0  0  0  0  0  0  0  0  0  0
  -28.6056  -14.8661   23.4140 O   0  0  0  0  0  0  0  0  0  0  0  0
  -21.3541   -7.0304   21.9281 O   0  0  0  0  0  0  0  0  0  0  0  0
  -28.3282  -26.8549   20.0517 O   0  0  0  0  0  0  0  0  0  1  0  0
  -27.1642  -20.8385   19.9782 O   0  0  0  0  0  0  0  0  0  0  0  0
  -22.3080   -2.1325   24.2743 F   0  0  0  0  0  0  0  0  0  0  0  0
  -20.5046   -6.5028   24.5054 F   0  0  0  0  0  0  0  0  0  0  0  0
  1  2  1  0  0  0  0
  1  6  2  0  0  0  0
  2  7  2  0  0  0  0
  3  9  2  0  0  0  0
  3 10  1  0  0  0  0
  4 11  2  0  0  0  0
  4 18  1  0  0  0  0
  5 12  1  0  0  0  0
  5 18  2  0  0  0  0
  6 20  1  0  0  0  0
  7 22  1  0  0  0  0
  8 13  2  0  0  0  0
  8 21  1  0  0  0  0
  9 25  1  0  0  0  0
 10 28  2  0  0  0  0
 11 26  1  0  0  0  0
 12 26  2  0  0  0  0
 13 27  1  0  0  0  0
 14 15  2  0  0  0  0
 14 29  1  0  0  0  0
 15 30  1  0  0  0  0
 16 23  1  0  0  0  0
 16 27  2  0  0  0  0
 17 30  2  0  0  0  0
 17 31  1  0  0  0  0
 18 32  1  0  0  0  0
 19 32  1  0  0  0  0
 19 33  2  0  0  0  0
 19 36  1  0  0  0  0
 20 22  2  0  0  0  0
 20 41  1  0  0  0  0
 21 23  2  0  0  0  0
 21 42  1  0  0  0  0
 22 50  1  0  0  0  0
 23 43  1  0  0  0  0
 24 25  2  0  0  0  0
 24 28  1  0  0  0  0
 24 53  1  0  0  0  0
 25 75  1  0  0  0  0
 26 82  1  0  0  0  0
 27 83  1  0  0  0  0
 28 84  1  0  0  0  0
 29 31  2  0  0  0  0
 29 82  1  0  0  0  0
 30 85  1  0  0  0  0
 31 86  1  0  0  0  0
 32 67  2  0  0  0  0
 33 68  1  0  0  0  0
 33 71  1  0  0  0  0
 34 35  2  0  0  0  0
 35 59  1  0  0  0  0
 36 72  1  0  0  0  0
 36 77  2  0  0  0  0
 37 51  1  0  0  0  0
 37 73  1  0  0  0  0
 37 78  2  0  0  0  0
 38 64  1  0  0  0  0
 38 69  1  0  0  0  0
 38 79  2  0  0  0  0
 39 65  1  0  0  0  0
 39 74  1  0  0  0  0
 39 80  2  0  0  0  0
 40 70  1  0  0  0  0
 40 75  1  0  0  0  0
 40 81  2  0  0  0  0
 41 44  1  0  0  0  0
 42 51  1  0  0  0  0
 43 69  1  0  0  0  0
 44 46  1  0  0  0  0
 45 47  1  0  0  0  0
 45 48  1  0  0  0  0
 46 50  1  0  0  0  0
 47 52  1  0  0  0  0
 48 70  1  0  0  0  0
 49 52  1  0  0  0  0
 49 70  1  0  0  0  0
 50 73  1  0  0  0  0
 51 69  1  0  0  0  0
 52 68  1  0  0  0  0
 54 65  1  0  0  0  0
 55 66  1  0  0  0  0
 56 66  1  0  0  0  0
 57 66  1  0  0  0  0
 58 76  1  0  0  0  0
 59 75  1  0  0  0  0
 60 61  1  0  0  0  0
 60 62  1  0  0  0  0
 61 63  1  0  0  0  0
 62 83  1  0  0  0  0
 63 84  1  0  0  0  0
 64 66  1  0  0  0  0
 64 74  1  0  0  0  0
 65 76  1  0  0  0  0
 67 68  1  0  0  0  0
M  CHG  1  76   1
M  ISO  4  40 100  62 101  75 100  83 101
M  END
> <Batch ID>
0122

> <Smiles>
C=CC[100N:0](c1cccc(OCCC[101CH2:1][101O:1]c2ccc3c(c2)CN(C(=O)C(NC(=O)C(C)NC)C(C)(C)C)C(C(=O)NC2CCCc4ccccc42)C3)c1C)[100C:0](=O)N1CCCC(n2nc(-c3ccc(Oc4ccc(F)cc4F)cc3)c(C(N)=O)c2N)C1

> <Shape>
0.326

> <Color>
0.101

> <Negative vol penalty>
0.000

$$$$

  -OEChem-04052302003D

 81 89  0     1  0  0  0  0  0999 V2000
  -32.8437  -35.5249   17.4305 C   0  0  0  0  0  0  0  0  0  0  0  0
  -32.5773  -34.1966   17.7468 C   0  0  0  0  0  0  0  0  0  0  0  0
  -23.2023   -9.2110   20.0008 C   0  0  0  0  0  0  0  0  0  0  0  0
  -23.4305   -9.3317   22.4030 C   0  0  0  0  0  0  0  0  0  0  0  0
  -32.4367  -36.5410   18.2940 C   0  0  0  0  0  0  0  0  0  0  0  0
  -31.9047  -33.8836   18.9275 C   0  0  0  0  0  0  0  0  0  0  0  0
  -28.2808  -30.4142   18.2380 C   0  0  0  0  0  0  0  0  0  0  0  0
  -23.1563   -7.8189   20.0751 C   0  0  0  0  0  0  0  0  0  0  0  0
  -23.3844   -7.9395   22.4773 C   0  0  0  0  0  0  0  0  0  0  0  0
  -28.6853  -29.0848   18.1245 C   0  0  0  0  0  0  0  0  0  0  0  0
  -21.0295   -5.5179   22.3743 C   0  0  0  0  0  0  0  0  0  0  0  0
  -20.2204   -4.9493   23.3580 C   0  0  0  0  0  0  0  0  0  0  0  0
  -28.0880  -28.7124   20.4319 C   0  0  0  0  0  0  0  0  0  0  0  0
  -29.4916  -20.1598   17.8658 C   0  0  0  0  0  0  0  0  0  0  0  0
  -22.1525   -3.8629   24.3192 C   0  0  0  0  0  0  0  0  0  0  0  0
  -23.3395   -9.9674   21.1648 C   0  0  0  0  0  0  0  0  0  0  0  0
  -22.2996  -12.2968   21.1475 C   0  0  0  0  0  0  0  0  0  0  0  0
  -31.7503  -36.2409   19.4812 C   0  0  0  0  0  0  0  0  0  0  0  0
  -27.7862  -30.9063   19.4544 C   0  0  0  0  0  0  0  0  0  0  0  0
  -31.4894  -34.8966   19.8084 C   0  0  0  0  0  0  0  0  0  0  0  0
  -27.6754  -30.0478   20.5574 C   0  0  0  0  0  0  0  0  0  0  0  0
  -30.1055  -21.4354   17.7039 C   0  0  0  0  0  0  0  0  0  0  0  0
  -23.2473   -7.1832   21.3133 C   0  0  0  0  0  0  0  0  0  0  0  0
  -28.5917  -28.2345   19.2224 C   0  0  0  0  0  0  0  0  0  0  0  0
  -22.4001   -5.2589   22.3630 C   0  0  0  0  0  0  0  0  0  0  0  0
  -20.7819   -4.1219   24.3305 C   0  0  0  0  0  0  0  0  0  0  0  0
  -22.9616   -4.4315   23.3355 C   0  0  0  0  0  0  0  0  0  0  0  0
  -23.3876  -11.4055   21.0887 C   0  0  0  0  0  0  0  0  0  0  0  0
  -28.1201  -20.2530   17.9537 C   0  0  0  0  0  0  0  0  0  0  0  0
  -29.1796  -22.4551   17.6741 C   0  0  0  0  0  0  0  0  0  0  0  0
  -22.8687  -13.5415   21.0318 C   0  0  0  0  0  0  0  0  0  0  0  0
  -27.1756  -19.2168   18.1163 C   0  0  0  0  0  0  0  0  0  0  0  0
  -29.3977  -23.9036   17.5241 C   0  0  0  0  0  0  0  0  0  0  0  0
  -27.4376  -17.8726   18.2440 C   0  0  0  0  0  0  0  0  0  0  0  0
  -28.6019  -24.8621   18.0233 C   0  0  0  0  0  0  0  0  0  0  0  0
  -20.8996  -12.0241   21.2937 C   0  0  0  0  0  0  0  0  0  0  0  0
  -26.3339  -16.9071   18.4182 C   0  0  0  0  0  0  0  0  0  0  0  0
  -28.7012  -33.1601   21.5006 C   0  0  0  0  0  0  0  0  0  0  0  0
  -25.8893  -32.4397   22.9484 C   0  0  0  0  0  0  0  0  0  0  0  0
  -23.4085  -30.1586   23.4864 C   0  0  0  0  0  0  0  0  0  0  0  0
  -31.3721  -37.3704   20.4064 C   0  0  0  0  0  0  0  0  0  0  0  0
  -27.3290  -32.3359   19.5529 C   0  0  0  0  0  0  0  0  0  0  0  0
  -27.1323  -30.5217   21.8798 C   0  0  0  0  0  0  0  0  0  0  0  0
  -30.3340  -36.9776   21.4544 C   0  0  0  0  0  0  0  0  0  0  0  0
  -27.6902  -15.0042   21.2415 C   0  0  0  0  0  0  0  0  0  0  0  0
  -30.7074  -35.6488   22.1037 C   0  0  0  0  0  0  0  0  0  0  0  0
  -26.6127  -13.9383   21.4219 C   0  0  0  0  0  0  0  0  0  0  0  0
  -27.8740  -15.3888   19.7743 C   0  0  0  0  0  0  0  0  0  0  0  0
  -25.5314  -14.7449   19.2864 C   0  0  0  0  0  0  0  0  0  0  0  0
  -30.7404  -34.5186   21.0679 C   0  0  1  0  0  0  0  0  0  0  0  0
  -27.3217  -32.8636   20.9843 C   0  0  1  0  0  0  0  0  0  0  0  0
  -25.2969  -14.3769   20.7598 C   0  0  1  0  0  0  0  0  0  0  0  0
  -31.5733  -21.6207   17.5838 C   0  0  0  0  0  0  0  0  0  0  0  0
  -21.2617  -29.8435   24.7470 C   0  0  0  0  0  0  0  0  0  0  0  0
  -27.4670  -32.0244   25.5268 C   0  0  0  0  0  0  0  0  0  0  0  0
  -25.4822  -30.8212   26.4655 C   0  0  0  0  0  0  0  0  0  0  0  0
  -25.2910  -33.2223   25.8168 C   0  0  0  0  0  0  0  0  0  0  0  0
  -21.8630  -29.7832   20.9906 C   0  0  0  0  0  0  0  0  0  0  0  0
  -28.8574  -26.3228   17.8328 C   0  0  0  0  0  0  0  0  0  1  0  0
  -25.4543  -31.4600   24.0114 C   0  0  1  0  0  0  0  0  0  0  0  0
  -21.8965  -30.2844   23.4373 C   0  0  2  0  0  0  0  0  0  0  0  0
  -25.9357  -31.8732   25.4309 C   0  0  0  0  0  0  0  0  0  0  0  0
  -24.5593  -12.0308   20.9465 N   0  0  0  0  0  0  0  0  0  0  0  0
  -24.2107  -13.3283   20.9149 N   0  0  0  0  0  0  0  0  0  0  0  0
  -26.5931  -15.7480   19.1474 N   0  0  0  0  0  0  0  0  0  0  0  0
  -26.7042  -31.9296   21.9279 N   0  0  0  0  0  0  0  0  0  0  0  0
  -22.3471  -14.7865   21.0195 N   0  0  0  0  0  0  0  0  0  0  0  0
  -20.4865  -10.6890   21.3992 N   0  0  0  0  0  0  0  0  0  0  0  0
  -29.3966  -34.0870   20.7478 N   0  0  0  0  0  0  0  0  0  0  0  0
  -24.0063  -31.3358   23.8842 N   0  0  0  0  0  0  0  0  0  0  0  0
  -21.3421  -29.4426   22.3396 N   0  3  0  0  0  0  0  0  0  0  0  0
  -20.0389  -12.9364   21.3132 O   0  0  0  0  0  0  0  0  0  0  0  0
  -25.2494  -17.1841   17.9026 O   0  0  0  0  0  0  0  0  0  0  0  0
  -29.1044  -32.5911   22.5083 O   0  0  0  0  0  0  0  0  0  0  0  0
  -25.5138  -33.6127   23.0170 O   0  0  0  0  0  0  0  0  0  0  0  0
  -24.0000  -29.1189   23.2041 O   0  0  0  0  0  0  0  0  0  0  0  0
  -23.2022   -5.8248   21.3862 O   0  0  0  0  0  0  0  0  0  0  0  0
  -28.9864  -26.9366   19.1145 O   0  0  0  0  0  0  0  0  0  1  0  0
  -20.0051   -3.5772   25.2760 F   0  0  0  0  0  0  0  0  0  0  0  0
  -24.2779   -4.1800   23.3304 F   0  0  0  0  0  0  0  0  0  0  0  0
  -27.5777  -21.8734   17.8411 S   0  0  0  0  0  0  0  0  0  0  0  0
  1  2  1  0  0  0  0
  1  5  2  0  0  0  0
  2  6  2  0  0  0  0
  3  8  2  0  0  0  0
  3 16  1  0  0  0  0
  4  9  1  0  0  0  0
  4 16  2  0  0  0  0
  5 18  1  0  0  0  0
  6 20  1  0  0  0  0
  7 10  2  0  0  0  0
  7 19  1  0  0  0  0
  8 23  1  0  0  0  0
  9 23  2  0  0  0  0
 10 24  1  0  0  0  0
 11 12  2  0  0  0  0
 11 25  1  0  0  0  0
 12 26  1  0  0  0  0
 13 21  1  0  0  0  0
 13 24  2  0  0  0  0
 14 22  1  0  0  0  0
 14 29  2  0  0  0  0
 15 26  2  0  0  0  0
 15 27  1  0  0  0  0
 16 28  1  0  0  0  0
 17 28  1  0  0  0  0
 17 31  2  0  0  0  0
 17 36  1  0  0  0  0
 18 20  2  0  0  0  0
 18 41  1  0  0  0  0
 19 21  2  0  0  0  0
 19 42  1  0  0  0  0
 20 50  1  0  0  0  0
 21 43  1  0  0  0  0
 22 30  2  0  0  0  0
 22 53  1  0  0  0  0
 23 77  1  0  0  0  0
 24 78  1  0  0  0  0
 25 27  2  0  0  0  0
 25 77  1  0  0  0  0
 26 79  1  0  0  0  0
 27 80  1  0  0  0  0
 28 63  2  0  0  0  0
 29 32  1  0  0  0  0
 29 81  1  0  0  0  0
 30 33  1  0  0  0  0
 30 81  1  0  0  0  0
 31 64  1  0  0  0  0
 31 67  1  0  0  0  0
 32 34  2  0  0  0  0
 33 35  2  0  0  0  0
 34 37  1  0  0  0  0
 35 59  1  0  0  0  0
 36 68  1  0  0  0  0
 36 72  2  0  0  0  0
 37 65  1  0  0  0  0
 37 73  2  0  0  0  0
 38 51  1  0  0  0  0
 38 69  1  0  0  0  0
 38 74  2  0  0  0  0
 39 60  1  0  0  0  0
 39 66  1  0  0  0  0
 39 75  2  0  0  0  0
 40 61  1  0  0  0  0
 40 70  1  0  0  0  0
 40 76  2  0  0  0  0
 41 44  1  0  0  0  0
 42 51  1  0  0  0  0
 43 66  1  0  0  0  0
 44 46  1  0  0  0  0
 45 47  1  0  0  0  0
 45 48  1  0  0  0  0
 46 50  1  0  0  0  0
 47 52  1  0  0  0  0
 48 65  1  0  0  0  0
 49 52  1  0  0  0  0
 49 65  1  0  0  0  0
 50 69  1  0  0  0  0
 51 66  1  0  0  0  0
 52 64  1  0  0  0  0
 54 61  1  0  0  0  0
 55 62  1  0  0  0  0
 56 62  1  0  0  0  0
 57 62  1  0  0  0  0
 58 71  1  0  0  0  0
 59 78  1  0  0  0  0
 60 62  1  0  0  0  0
 60 70  1  0  0  0  0
 61 71  1  0  0  0  0
 63 64  1  0  0  0  0
M  CHG  1  71   1
M  ISO  4  34 100  37 100  59 101  78 101
M  END
> <Batch ID>
0122

> <Smiles>
CNC(C)C(=O)NC(C(=O)N1Cc2cc([101O:1][101CH2:1]C=Cc3sc(C=[100CH:0][100C:0](=O)N4CCCC(n5nc(-c6ccc(Oc7ccc(F)cc7F)cc6)c(C(N)=O)c5N)C4)cc3C)ccc2CC1C(=O)NC1CCCc2ccccc21)C(C)(C)C

> <Shape>
0.244

> <Color>
0.100

> <Negative vol penalty>
0.000

$$$$

  -OEChem-04052302003D

 82 90  0     1  0  0  0  0  0999 V2000
  -19.5805  -27.5794   16.0679 C   0  0  0  0  0  0  0  0  0  0  0  0
  -20.9596  -27.6131   16.2479 C   0  0  0  0  0  0  0  0  0  0  0  0
  -34.6415  -22.1223   18.5547 C   0  0  0  0  0  0  0  0  0  0  0  0
  -24.0924  -12.7053   22.3004 C   0  0  0  0  0  0  0  0  0  0  0  0
  -22.4739  -13.4807   20.6829 C   0  0  0  0  0  0  0  0  0  0  0  0
  -33.9322  -20.9259   18.6602 C   0  0  0  0  0  0  0  0  0  0  0  0
  -18.8002  -28.6650   16.4637 C   0  0  0  0  0  0  0  0  0  0  0  0
  -21.5594  -28.7329   16.8229 C   0  0  0  0  0  0  0  0  0  0  0  0
  -25.0170  -27.5074   20.3140 C   0  0  0  0  0  0  0  0  0  0  0  0
  -34.0656  -23.3153   18.9915 C   0  0  0  0  0  0  0  0  0  0  0  0
  -23.0654  -12.1438   23.0590 C   0  0  0  0  0  0  0  0  0  0  0  0
  -21.4468  -12.9192   21.4415 C   0  0  0  0  0  0  0  0  0  0  0  0
  -26.2635  -27.0846   19.8546 C   0  0  0  0  0  0  0  0  0  0  0  0
  -21.1439   -9.3627   22.9792 C   0  0  0  0  0  0  0  0  0  0  0  0
  -21.3337   -8.0720   23.4727 C   0  0  0  0  0  0  0  0  0  0  0  0
  -32.0711  -22.1155   19.6390 C   0  0  0  0  0  0  0  0  0  0  0  0
  -27.1582  -29.2850   20.2754 C   0  0  0  0  0  0  0  0  0  0  0  0
  -21.0939   -8.8997   25.7298 C   0  0  0  0  0  0  0  0  0  0  0  0
  -23.7967  -13.3738   21.1124 C   0  0  0  0  0  0  0  0  0  0  0  0
  -32.6470  -20.9224   19.2023 C   0  0  0  0  0  0  0  0  0  0  0  0
  -25.5898  -13.3352   19.2982 C   0  0  0  0  0  0  0  0  0  0  0  0
  -19.3897  -29.7947   17.0527 C   0  0  0  0  0  0  0  0  0  0  0  0
  -24.8286  -28.8275   20.7481 C   0  0  0  0  0  0  0  0  0  0  0  0
  -20.7864  -29.8352   17.2258 C   0  0  0  0  0  0  0  0  0  0  0  0
  -25.9089  -29.7214   20.7422 C   0  0  0  0  0  0  0  0  0  0  0  0
  -21.7426  -12.2507   22.6295 C   0  0  0  0  0  0  0  0  0  0  0  0
  -32.7804  -23.3119   19.5336 C   0  0  0  0  0  0  0  0  0  0  0  0
  -27.3337  -27.9742   19.8325 C   0  0  0  0  0  0  0  0  0  0  0  0
  -20.9292  -10.4220   23.8610 C   0  0  0  0  0  0  0  0  0  0  0  0
  -21.3086   -7.8405   24.8480 C   0  0  0  0  0  0  0  0  0  0  0  0
  -20.9041  -10.1905   25.2362 C   0  0  0  0  0  0  0  0  0  0  0  0
  -24.8572  -13.9545   20.3286 C   0  0  0  0  0  0  0  0  0  0  0  0
  -26.4720  -14.2999   18.8767 C   0  0  0  0  0  0  0  0  0  0  0  0
  -31.9075  -19.6751   19.3125 C   0  0  0  0  0  0  0  0  0  0  0  0
  -30.8578  -19.4565   20.1331 C   0  0  0  0  0  0  0  0  0  0  0  0
  -25.4824  -12.0069   18.7695 C   0  0  0  0  0  0  0  0  0  0  0  0
  -30.2030  -18.1330   20.1227 C   0  0  0  0  0  0  0  0  0  0  0  0
  -23.0141  -31.2613   19.8058 C   0  0  0  0  0  0  0  0  0  0  0  0
  -24.2004  -32.6721   22.4750 C   0  0  0  0  0  0  0  0  0  0  0  0
  -26.6924  -32.8378   24.8008 C   0  0  0  0  0  0  0  0  0  0  0  0
  -18.5105  -30.9634   17.4212 C   0  0  0  0  0  0  0  0  0  0  0  0
  -23.4845  -29.2605   21.2658 C   0  0  0  0  0  0  0  0  0  0  0  0
  -25.7641  -31.1435   21.2165 C   0  0  0  0  0  0  0  0  0  0  0  0
  -19.1822  -31.9570   18.3656 C   0  0  0  0  0  0  0  0  0  0  0  0
  -26.7139  -19.2322   19.8986 C   0  0  0  0  0  0  0  0  0  0  0  0
  -20.5937  -32.2792   17.8855 C   0  0  0  0  0  0  0  0  0  0  0  0
  -25.9805  -17.8947   19.9549 C   0  0  0  0  0  0  0  0  0  0  0  0
  -27.9826  -19.2248   20.7501 C   0  0  0  0  0  0  0  0  0  0  0  0
  -28.1809  -16.7699   20.4776 C   0  0  0  0  0  0  0  0  0  0  0  0
  -21.4712  -31.0218   17.8685 C   0  0  1  0  0  0  0  0  0  0  0  0
  -23.2775  -30.7706   21.2013 C   0  0  1  0  0  0  0  0  0  0  0  0
  -26.9265  -16.7395   19.5906 C   0  0  1  0  0  0  0  0  0  0  0  0
  -27.4023  -34.1173   26.8395 C   0  0  0  0  0  0  0  0  0  0  0  0
  -25.0608  -35.0058   20.7077 C   0  0  0  0  0  0  0  0  0  0  0  0
  -26.5574  -35.7690   22.5640 C   0  0  0  0  0  0  0  0  0  0  0  0
  -24.0895  -35.6709   22.9142 C   0  0  0  0  0  0  0  0  0  0  0  0
  -26.6184  -30.4104   26.4924 C   0  0  0  0  0  0  0  0  0  0  0  0
  -30.3909  -26.0323   19.6849 C   0  0  0  0  0  0  0  0  0  0  0  0
  -30.7988  -24.5804   19.8801 C   0  0  0  0  0  0  0  0  0  0  0  0
  -28.8827  -26.1888   19.5700 C   0  0  0  0  0  0  0  0  0  1  0  0
  -25.4102  -33.5186   22.7891 C   0  0  1  0  0  0  0  0  0  0  0  0
  -26.6525  -32.9018   26.3170 C   0  0  2  0  0  0  0  0  0  0  0  0
  -25.2821  -34.9649   22.2329 C   0  0  0  0  0  0  0  0  0  0  0  0
  -25.2407  -15.2149   20.5483 N   0  0  0  0  0  0  0  0  0  0  0  0
  -26.2241  -15.3954   19.6502 N   0  0  0  0  0  0  0  0  0  0  0  0
  -28.8433  -18.0779   20.4238 N   0  0  0  0  0  0  0  0  0  0  0  0
  -24.4285  -31.5210   21.7077 N   0  0  0  0  0  0  0  0  0  0  0  0
  -27.4279  -14.3093   17.9235 N   0  0  0  0  0  0  0  0  0  0  0  0
  -24.5228  -11.1451   19.3177 N   0  0  0  0  0  0  0  0  0  0  0  0
  -21.9062  -30.6909   19.2086 N   0  0  0  0  0  0  0  0  0  0  0  0
  -25.5933  -33.4485   24.2348 N   0  0  0  0  0  0  0  0  0  0  0  0
  -27.2718  -31.6797   26.9035 N   0  3  0  0  0  0  0  0  0  0  0  0
  -26.2269  -11.5910   17.8495 O   0  0  0  0  0  0  0  0  0  0  0  0
  -30.9021  -17.1548   19.8522 O   0  0  0  0  0  0  0  0  0  0  0  0
  -23.7600  -32.0966   19.3082 O   0  0  0  0  0  0  0  0  0  0  0  0
  -23.0948  -33.0155   22.9010 O   0  0  0  0  0  0  0  0  0  0  0  0
  -27.6088  -32.3031   24.1805 O   0  0  0  0  0  0  0  0  0  0  0  0
  -20.7402  -11.7028   23.3694 O   0  0  0  0  0  0  0  0  0  0  0  0
  -32.2144  -24.4841   19.9629 O   0  0  0  0  0  0  0  0  0  0  0  0
  -28.5513  -27.5643   19.3839 O   0  0  0  0  0  0  0  0  0  1  0  0
  -21.4893   -6.6007   25.3217 F   0  0  0  0  0  0  0  0  0  0  0  0
  -20.6971  -11.2039   26.0882 F   0  0  0  0  0  0  0  0  0  0  0  0
  1  2  1  0  0  0  0
  1  7  2  0  0  0  0
  2  8  2  0  0  0  0
  3  6  1  0  0  0  0
  3 10  2  0  0  0  0
  4 11  2  0  0  0  0
  4 19  1  0  0  0  0
  5 12  1  0  0  0  0
  5 19  2  0  0  0  0
  6 20  2  0  0  0  0
  7 22  1  0  0  0  0
  8 24  1  0  0  0  0
  9 13  2  0  0  0  0
  9 23  1  0  0  0  0
 10 27  1  0  0  0  0
 11 26  1  0  0  0  0
 12 26  2  0  0  0  0
 13 28  1  0  0  0  0
 14 15  2  0  0  0  0
 14 29  1  0  0  0  0
 15 30  1  0  0  0  0
 16 20  1  0  0  0  0
 16 27  2  0  0  0  0
 17 25  1  0  0  0  0
 17 28  2  0  0  0  0
 18 30  2  0  0  0  0
 18 31  1  0  0  0  0
 19 32  1  0  0  0  0
 20 34  1  0  0  0  0
 21 32  1  0  0  0  0
 21 33  2  0  0  0  0
 21 36  1  0  0  0  0
 22 24  2  0  0  0  0
 22 41  1  0  0  0  0
 23 25  2  0  0  0  0
 23 42  1  0  0  0  0
 24 50  1  0  0  0  0
 25 43  1  0  0  0  0
 26 78  1  0  0  0  0
 27 79  1  0  0  0  0
 28 80  1  0  0  0  0
 29 31  2  0  0  0  0
 29 78  1  0  0  0  0
 30 81  1  0  0  0  0
 31 82  1  0  0  0  0
 32 64  2  0  0  0  0
 33 65  1  0  0  0  0
 33 68  1  0  0  0  0
 34 35  2  0  0  0  0
 35 37  1  0  0  0  0
 36 69  1  0  0  0  0
 36 73  2  0  0  0  0
 37 66  1  0  0  0  0
 37 74  2  0  0  0  0
 38 51  1  0  0  0  0
 38 70  1  0  0  0  0
 38 75  2  0  0  0  0
 39 61  1  0  0  0  0
 39 67  1  0  0  0  0
 39 76  2  0  0  0  0
 40 62  1  0  0  0  0
 40 71  1  0  0  0  0
 40 77  2  0  0  0  0
 41 44  1  0  0  0  0
 42 51  1  0  0  0  0
 43 67  1  0  0  0  0
 44 46  1  0  0  0  0
 45 47  1  0  0  0  0
 45 48  1  0  0  0  0
 46 50  1  0  0  0  0
 47 52  1  0  0  0  0
 48 66  1  0  0  0  0
 49 52  1  0  0  0  0
 49 66  1  0  0  0  0
 50 70  1  0  0  0  0
 51 67  1  0  0  0  0
 52 65  1  0  0  0  0
 53 62  1  0  0  0  0
 54 63  1  0  0  0  0
 55 63  1  0  0  0  0
 56 63  1  0  0  0  0
 57 72  1  0  0  0  0
 58 59  1  0  0  0  0
 58 60  1  0  0  0  0
 59 79  1  0  0  0  0
 60 80  1  0  0  0  0
 61 63  1  0  0  0  0
 61 71  1  0  0  0  0
 62 72  1  0  0  0  0
 64 65  1  0  0  0  0
M  CHG  1  72   1
M  ISO  4  35 100  37 100  60 101  80 101
M  END
> <Batch ID>
0122

> <Smiles>
CNC(C)C(=O)NC(C(=O)N1Cc2cc([101O:1][101CH2:1]CCOc3cccc(C=[100CH:0][100C:0](=O)N4CCCC(n5nc(-c6ccc(Oc7ccc(F)cc7F)cc6)c(C(N)=O)c5N)C4)c3)ccc2CC1C(=O)NC1CCCc2ccccc21)C(C)(C)C

> <Shape>
0.246

> <Color>
0.098

> <Negative vol penalty>
0.000

$$$$

  -OEChem-04052302003D

 88 97  0     1  0  0  0  0  0999 V2000
  -26.0454  -38.2253   24.5034 C   0  0  0  0  0  0  0  0  0  0  0  0
  -26.8250  -37.4817   23.6232 C   0  0  0  0  0  0  0  0  0  0  0  0
  -25.0203   -8.4619   22.0022 C   0  0  0  0  0  0  0  0  0  0  0  0
  -25.0497   -7.4474   19.8097 C   0  0  0  0  0  0  0  0  0  0  0  0
  -25.2673  -37.5773   25.4617 C   0  0  0  0  0  0  0  0  0  0  0  0
  -26.8278  -36.0895   23.7017 C   0  0  0  0  0  0  0  0  0  0  0  0
  -27.4043  -30.2661   19.5698 C   0  0  0  0  0  0  0  0  0  0  0  0
  -23.7323   -7.9696   22.2127 C   0  0  0  0  0  0  0  0  0  0  0  0
  -23.7617   -6.9551   20.0202 C   0  0  0  0  0  0  0  0  0  0  0  0
  -28.1328  -29.0813   19.4740 C   0  0  0  0  0  0  0  0  0  0  0  0
  -22.2979   -5.0275   23.0610 C   0  0  0  0  0  0  0  0  0  0  0  0
  -22.0243   -4.4333   24.2930 C   0  0  0  0  0  0  0  0  0  0  0  0
  -31.7654  -18.1305   18.5238 C   0  0  0  0  0  0  0  0  0  0  0  0
  -26.6881  -28.0671   21.1183 C   0  0  0  0  0  0  0  0  0  0  0  0
  -32.0345  -20.5291   18.6308 C   0  0  0  0  0  0  0  0  0  0  0  0
  -20.3031   -6.0781   24.7041 C   0  0  0  0  0  0  0  0  0  0  0  0
  -25.6790   -8.2008   20.8007 C   0  0  0  0  0  0  0  0  0  0  0  0
  -30.8502  -18.1862   19.5749 C   0  0  0  0  0  0  0  0  0  0  0  0
  -28.2250   -8.0717   20.8936 C   0  0  0  0  0  0  0  0  0  0  0  0
  -25.2531  -36.1761   25.5457 C   0  0  0  0  0  0  0  0  0  0  0  0
  -26.3171  -30.3640   20.4501 C   0  0  0  0  0  0  0  0  0  0  0  0
  -26.0498  -35.4221   24.6630 C   0  0  0  0  0  0  0  0  0  0  0  0
  -25.9458  -29.2535   21.2215 C   0  0  0  0  0  0  0  0  0  0  0  0
  -32.3576  -19.3019   18.0518 C   0  0  0  0  0  0  0  0  0  0  0  0
  -31.1192  -20.5849   19.6819 C   0  0  0  0  0  0  0  0  0  0  0  0
  -30.5270  -19.4134   20.1539 C   0  0  0  0  0  0  0  0  0  0  0  0
  -23.1030   -7.2162   21.2218 C   0  0  0  0  0  0  0  0  0  0  0  0
  -27.7766  -27.9825   20.2504 C   0  0  0  0  0  0  0  0  0  0  0  0
  -21.5741   -6.1471   22.6506 C   0  0  0  0  0  0  0  0  0  0  0  0
  -21.0269   -4.9586   25.1145 C   0  0  0  0  0  0  0  0  0  0  0  0
  -20.5767   -6.6723   23.4721 C   0  0  0  0  0  0  0  0  0  0  0  0
  -27.0093   -8.7096   20.5824 C   0  0  0  0  0  0  0  0  0  0  0  0
  -29.1918   -8.9617   20.4939 C   0  0  0  0  0  0  0  0  0  0  0  0
  -28.7092  -24.7265   19.0639 C   0  0  0  0  0  0  0  0  0  0  0  0
  -30.2497  -16.9438   20.0428 C   0  0  0  0  0  0  0  0  0  0  0  0
  -28.0874  -25.8963   19.2395 C   0  0  0  0  0  0  0  0  0  1  0  0
  -29.5225  -16.0954   19.2877 C   0  0  0  0  0  0  0  0  0  0  0  0
  -28.4595   -6.7894   21.4906 C   0  0  0  0  0  0  0  0  0  0  0  0
  -28.9872  -14.8665   19.9075 C   0  0  0  0  0  0  0  0  0  0  0  0
  -25.6395  -32.1544   22.9876 C   0  0  0  0  0  0  0  0  0  0  0  0
  -22.7543  -30.6888   22.7649 C   0  0  0  0  0  0  0  0  0  0  0  0
  -20.9447  -28.0022   21.6907 C   0  0  0  0  0  0  0  0  0  0  0  0
  -24.4325  -35.5220   26.6290 C   0  0  0  0  0  0  0  0  0  0  0  0
  -25.5250  -31.6406   20.5220 C   0  0  0  0  0  0  0  0  0  0  0  0
  -24.7743  -29.3006   22.1669 C   0  0  0  0  0  0  0  0  0  0  0  0
  -28.3165  -23.6722   18.0722 C   0  0  0  0  0  0  0  0  0  0  0  0
  -29.8713  -24.2393   19.8694 C   0  0  0  0  0  0  0  0  0  0  0  0
  -24.2023  -34.0301   26.4019 C   0  0  0  0  0  0  0  0  0  0  0  0
  -30.0119  -12.4522   17.3476 C   0  0  0  0  0  0  0  0  0  0  0  0
  -25.5069  -33.3418   26.0132 C   0  0  0  0  0  0  0  0  0  0  0  0
  -29.4186  -11.1618   17.9067 C   0  0  0  0  0  0  0  0  0  0  0  0
  -29.1376  -13.6658   17.6599 C   0  0  0  0  0  0  0  0  0  0  0  0
  -28.2376  -12.5310   19.6705 C   0  0  0  0  0  0  0  0  0  0  0  0
  -28.9306  -22.4015   18.6445 C   0  0  0  0  0  0  0  0  0  0  0  0
  -26.0603  -33.9093   24.7005 C   0  0  1  0  0  0  0  0  0  0  0  0
  -24.7535  -31.7922   21.8294 C   0  0  1  0  0  0  0  0  0  0  0  0
  -29.1246  -11.3038   19.4086 C   0  0  1  0  0  0  0  0  0  0  0  0
  -33.3371  -19.2426   16.9285 C   0  0  0  0  0  0  0  0  0  0  0  0
  -30.2341  -19.6738   22.6304 C   0  0  0  0  0  0  0  0  0  0  0  0
  -18.6148  -27.0700   21.6888 C   0  0  0  0  0  0  0  0  0  0  0  0
  -23.0738  -29.8909   25.6926 C   0  0  0  0  0  0  0  0  0  0  0  0
  -21.2465  -28.2117   25.3620 C   0  0  0  0  0  0  0  0  0  0  0  0
  -20.7736  -30.6424   25.0612 C   0  0  0  0  0  0  0  0  0  0  0  0
  -20.8124  -28.0274   18.7342 C   0  0  0  0  0  0  0  0  0  0  0  0
  -29.5463  -19.4856   21.2833 C   0  0  0  0  0  0  0  0  0  0  0  0
  -30.7899  -21.9178   20.2866 C   0  0  0  0  0  0  0  0  0  0  0  0
  -22.1515  -29.4239   23.3267 C   0  0  1  0  0  0  0  0  0  0  0  0
  -19.6327  -27.9095   20.9326 C   0  0  2  0  0  0  0  0  0  0  0  0
  -21.8347  -29.5416   24.8443 C   0  0  0  0  0  0  0  0  0  0  0  0
  -27.1850   -9.9119   20.0279 N   0  0  0  0  0  0  0  0  0  0  0  0
  -28.5225  -10.0368   19.9876 N   0  0  0  0  0  0  0  0  0  0  0  0
  -28.8219  -13.7470   19.0939 N   0  0  0  0  0  0  0  0  0  0  0  0
  -24.0351  -30.5732   22.2063 N   0  0  0  0  0  0  0  0  0  0  0  0
  -30.5407   -8.9217   20.5297 N   0  0  0  0  0  0  0  0  0  0  0  0
  -27.3534   -6.0030   21.8404 N   0  0  0  0  0  0  0  0  0  0  0  0
  -25.3345  -33.3695   23.5708 N   0  0  0  0  0  0  0  0  0  0  0  0
  -20.9913  -29.1206   22.4958 N   0  0  0  0  0  0  0  0  0  0  0  0
  -30.2052  -22.8772   19.3042 N   0  3  2  0  0  0  0  0  0  0  0  0
  -19.8504  -27.2913   19.5942 N   0  3  0  0  0  0  0  0  0  0  0  0
  -29.6154   -6.3608   21.7224 O   0  0  0  0  0  0  0  0  0  0  0  0
  -28.7142  -14.9078   21.1085 O   0  0  0  0  0  0  0  0  0  0  0  0
  -26.5328  -31.3876   23.3278 O   0  0  0  0  0  0  0  0  0  0  0  0
  -22.1094  -31.7393   22.8133 O   0  0  0  0  0  0  0  0  0  0  0  0
  -21.8372  -27.1642   21.5824 O   0  0  0  0  0  0  0  0  0  0  0  0
  -21.8463   -6.7354   21.4269 O   0  0  0  0  0  0  0  0  0  0  0  0
  -28.4863  -26.8250   20.1594 O   0  0  0  0  0  0  0  0  0  1  0  0
  -20.7633   -4.3869   26.2968 F   0  0  0  0  0  0  0  0  0  0  0  0
  -19.8772   -7.7470   23.0828 F   0  0  0  0  0  0  0  0  0  0  0  0
  1  2  1  0  0  0  0
  1  5  2  0  0  0  0
  2  6  2  0  0  0  0
  3  8  2  0  0  0  0
  3 17  1  0  0  0  0
  4  9  1  0  0  0  0
  4 17  2  0  0  0  0
  5 20  1  0  0  0  0
  6 22  1  0  0  0  0
  7 10  2  0  0  0  0
  7 21  1  0  0  0  0
  8 27  1  0  0  0  0
  9 27  2  0  0  0  0
 10 28  1  0  0  0  0
 11 12  2  0  0  0  0
 11 29  1  0  0  0  0
 12 30  1  0  0  0  0
 13 18  2  0  0  0  0
 13 24  1  0  0  0  0
 14 23  1  0  0  0  0
 14 28  2  0  0  0  0
 15 24  2  0  0  0  0
 15 25  1  0  0  0  0
 16 30  2  0  0  0  0
 16 31  1  0  0  0  0
 17 32  1  0  0  0  0
 18 26  1  0  0  0  0
 18 35  1  0  0  0  0
 19 32  1  0  0  0  0
 19 33  2  0  0  0  0
 19 38  1  0  0  0  0
 20 22  2  0  0  0  0
 20 43  1  0  0  0  0
 21 23  2  0  0  0  0
 21 44  1  0  0  0  0
 22 55  1  0  0  0  0
 23 45  1  0  0  0  0
 24 58  1  0  0  0  0
 25 26  2  0  0  0  0
 25 66  1  0  0  0  0
 26 65  1  0  0  0  0
 27 85  1  0  0  0  0
 28 86  1  0  0  0  0
 29 31  2  0  0  0  0
 29 85  1  0  0  0  0
 30 87  1  0  0  0  0
 31 88  1  0  0  0  0
 32 70  2  0  0  0  0
 33 71  1  0  0  0  0
 33 74  1  0  0  0  0
 34 36  2  0  0  0  0
 34 46  1  0  0  0  0
 34 47  1  0  0  0  0
 35 37  2  0  0  0  0
 36 86  1  0  0  0  0
 37 39  1  0  0  0  0
 38 75  1  0  0  0  0
 38 80  2  0  0  0  0
 39 72  1  0  0  0  0
 39 81  2  0  0  0  0
 40 56  1  0  0  0  0
 40 76  1  0  0  0  0
 40 82  2  0  0  0  0
 41 67  1  0  0  0  0
 41 73  1  0  0  0  0
 41 83  2  0  0  0  0
 42 68  1  0  0  0  0
 42 77  1  0  0  0  0
 42 84  2  0  0  0  0
 43 48  1  0  0  0  0
 44 56  1  0  0  0  0
 45 73  1  0  0  0  0
 46 54  1  0  0  0  0
 47 78  1  0  0  0  0
 48 50  1  0  0  0  0
 49 51  1  0  0  0  0
 49 52  1  0  0  0  0
 50 55  1  0  0  0  0
 51 57  1  0  0  0  0
 52 72  1  0  0  0  0
 53 57  1  0  0  0  0
 53 72  1  0  0  0  0
 54 78  1  0  0  0  0
 55 76  1  0  0  0  0
 56 73  1  0  0  0  0
 57 71  1  0  0  0  0
 59 65  1  0  0  0  0
 60 68  1  0  0  0  0
 61 69  1  0  0  0  0
 62 69  1  0  0  0  0
 63 69  1  0  0  0  0
 64 79  1  0  0  0  0
 66 78  1  0  0  0  0
 67 69  1  0  0  0  0
 67 77  1  0  0  0  0
 68 79  1  0  0  0  0
 70 71  1  0  0  0  0
M  CHG  2  78   1  79   1
M  ISO  4  36 101  37 100  39 100  86 101
M  END
> <Batch ID>
0122

> <Smiles>
CCc1c(C=[100CH:0][100C:0](=O)N2CCCC(n3nc(-c4ccc(Oc5ccc(F)cc5F)cc4)c(C(N)=O)c3N)C2)cc(C)cc1CN1CCC(=[101CH:1][101O:1]c2ccc3c(c2)CN(C(=O)C(NC(=O)C(C)NC)C(C)(C)C)C(C(=O)NC2CCCc4ccccc42)C3)C1

> <Shape>
0.312

> <Color>
0.096

> <Negative vol penalty>
0.000

$$$$

  -OEChem-04052302003D

 81 89  0     1  0  0  0  0  0999 V2000
  -29.2953  -36.9862   20.5713 C   0  0  0  0  0  0  0  0  0  0  0  0
  -29.5226  -35.6421   20.2934 C   0  0  0  0  0  0  0  0  0  0  0  0
  -22.2208  -10.4568   22.1253 C   0  0  0  0  0  0  0  0  0  0  0  0
  -24.2724   -9.2319   22.4823 C   0  0  0  0  0  0  0  0  0  0  0  0
  -28.4037  -37.3471   21.5805 C   0  0  0  0  0  0  0  0  0  0  0  0
  -28.8590  -34.6581   21.0254 C   0  0  0  0  0  0  0  0  0  0  0  0
  -26.8994  -29.2326   18.9688 C   0  0  0  0  0  0  0  0  0  0  0  0
  -21.5823   -9.2766   21.7449 C   0  0  0  0  0  0  0  0  0  0  0  0
  -23.6338   -8.0515   22.1020 C   0  0  0  0  0  0  0  0  0  0  0  0
  -27.4406  -27.9499   19.0438 C   0  0  0  0  0  0  0  0  0  0  0  0
  -21.5255   -5.8037   23.4886 C   0  0  0  0  0  0  0  0  0  0  0  0
  -21.7408   -4.6705   24.2728 C   0  0  0  0  0  0  0  0  0  0  0  0
  -26.0852  -27.4982   20.9875 C   0  0  0  0  0  0  0  0  0  0  0  0
  -28.2371  -22.4141   21.2528 C   0  0  0  0  0  0  0  0  0  0  0  0
  -22.6642   -3.5213   22.3587 C   0  0  0  0  0  0  0  0  0  0  0  0
  -28.7375  -22.4809   19.0799 C   0  0  0  0  0  0  0  0  0  0  0  0
  -23.5659  -10.4345   22.4940 C   0  0  0  0  0  0  0  0  0  0  0  0
  -24.3204  -12.1893   24.1849 C   0  0  0  0  0  0  0  0  0  0  0  0
  -27.7216  -36.3672   22.3188 C   0  0  0  0  0  0  0  0  0  0  0  0
  -25.9535  -29.6622   19.9106 C   0  0  0  0  0  0  0  0  0  0  0  0
  -27.9584  -35.0062   22.0464 C   0  0  0  0  0  0  0  0  0  0  0  0
  -25.5316  -28.7859   20.9207 C   0  0  0  0  0  0  0  0  0  0  0  0
  -28.8766  -23.1853   20.2531 C   0  0  0  0  0  0  0  0  0  0  0  0
  -22.2887   -8.0739   21.7333 C   0  0  0  0  0  0  0  0  0  0  0  0
  -27.0357  -27.0835   20.0549 C   0  0  0  0  0  0  0  0  0  0  0  0
  -21.8795   -5.7958   22.1394 C   0  0  0  0  0  0  0  0  0  0  0  0
  -22.3102   -3.5293   23.7079 C   0  0  0  0  0  0  0  0  0  0  0  0
  -22.4489   -4.6546   21.5745 C   0  0  0  0  0  0  0  0  0  0  0  0
  -24.2263  -11.6536   22.8865 C   0  0  0  0  0  0  0  0  0  0  0  0
  -27.7525  -21.2935   20.6192 C   0  0  0  0  0  0  0  0  0  0  0  0
  -25.0408  -13.3480   24.0268 C   0  0  0  0  0  0  0  0  0  0  0  0
  -32.0427  -24.6540   20.9231 C   0  0  0  0  0  0  0  0  0  0  0  0
  -27.0360  -20.2222   21.2008 C   0  0  0  0  0  0  0  0  0  0  0  0
  -26.5747  -19.0966   20.5619 C   0  0  0  0  0  0  0  0  0  0  0  0
  -31.0391  -24.4353   20.0652 C   0  0  0  0  0  0  0  0  0  0  0  0
  -23.8031  -11.6846   25.4232 C   0  0  0  0  0  0  0  0  0  0  0  0
  -25.8466  -18.0554   21.3145 C   0  0  0  0  0  0  0  0  0  0  0  0
  -25.8482  -31.9734   22.0903 C   0  0  0  0  0  0  0  0  0  0  0  0
  -22.7837  -30.9692   22.4409 C   0  0  0  0  0  0  0  0  0  0  0  0
  -20.5030  -28.4530   22.1037 C   0  0  0  0  0  0  0  0  0  0  0  0
  -26.8030  -36.8052   23.4319 C   0  0  0  0  0  0  0  0  0  0  0  0
  -25.3595  -31.0397   19.8001 C   0  0  0  0  0  0  0  0  0  0  0  0
  -24.5040  -29.1917   21.9443 C   0  0  0  0  0  0  0  0  0  0  0  0
  -25.8574  -35.7060   23.9094 C   0  0  0  0  0  0  0  0  0  0  0  0
  -27.6461  -15.1090   20.0846 C   0  0  0  0  0  0  0  0  0  0  0  0
  -26.6180  -34.3999   24.1155 C   0  0  0  0  0  0  0  0  0  0  0  0
  -26.8831  -13.9864   20.7825 C   0  0  0  0  0  0  0  0  0  0  0  0
  -26.7327  -16.2761   19.7128 C   0  0  0  0  0  0  0  0  0  0  0  0
  -25.1926  -15.6926   21.5642 C   0  0  0  0  0  0  0  0  0  0  0  0
  -27.2390  -33.9100   22.8019 C   0  0  1  0  0  0  0  0  0  0  0  0
  -24.7841  -31.5498   21.1177 C   0  0  1  0  0  0  0  0  0  0  0  0
  -26.1008  -14.5283   21.9894 C   0  0  1  0  0  0  0  0  0  0  0  0
  -18.0849  -27.9186   22.5099 C   0  0  0  0  0  0  0  0  0  0  0  0
  -23.3508  -30.6830   25.4252 C   0  0  0  0  0  0  0  0  0  0  0  0
  -21.2833  -29.2836   25.6130 C   0  0  0  0  0  0  0  0  0  0  0  0
  -21.1154  -31.6613   24.8773 C   0  0  0  0  0  0  0  0  0  0  0  0
  -20.0101  -27.9546   19.2284 C   0  0  0  0  0  0  0  0  0  0  0  0
  -28.8960  -25.6576   19.6524 C   0  0  0  0  0  0  0  0  0  1  0  0
  -29.5777  -24.5247   20.4368 C   0  0  1  0  0  0  0  0  0  0  0  0
  -22.0871  -29.9413   23.2994 C   0  0  1  0  0  0  0  0  0  0  0  0
  -19.1070  -28.4320   21.5077 C   0  0  2  0  0  0  0  0  0  0  0  0
  -21.9800  -30.3850   24.7857 C   0  0  0  0  0  0  0  0  0  0  0  0
  -24.8378  -12.4099   21.9710 N   0  0  0  0  0  0  0  0  0  0  0  0
  -25.3230  -13.4327   22.6952 N   0  0  0  0  0  0  0  0  0  0  0  0
  -25.9521  -16.7385   20.8702 N   0  0  0  0  0  0  0  0  0  0  0  0
  -23.9573  -30.5508   21.7978 N   0  0  0  0  0  0  0  0  0  0  0  0
  -25.4539  -14.2925   24.8984 N   0  0  0  0  0  0  0  0  0  0  0  0
  -23.0861  -10.4805   25.4065 N   0  0  0  0  0  0  0  0  0  0  0  0
  -26.2312  -33.2952   21.9648 N   0  0  0  0  0  0  0  0  0  0  0  0
  -20.8023  -29.6786   22.6602 N   0  0  0  0  0  0  0  0  0  0  0  0
  -19.0701  -27.5516   20.3058 N   0  3  0  0  0  0  0  0  0  0  0  0
  -23.9575  -12.2922   26.5097 O   0  0  0  0  0  0  0  0  0  0  0  0
  -25.1844  -18.4163   22.2891 O   0  0  0  0  0  0  0  0  0  0  0  0
  -26.2881  -31.1616   22.8960 O   0  0  0  0  0  0  0  0  0  0  0  0
  -22.3004  -32.0995   22.3386 O   0  0  0  0  0  0  0  0  0  0  0  0
  -21.2515  -27.4784   22.0814 O   0  0  0  0  0  0  0  0  0  0  0  0
  -28.0533  -21.3266   19.2944 O   0  0  0  0  0  0  0  0  0  0  0  0
  -21.6659   -6.9219   21.3624 O   0  0  0  0  0  0  0  0  0  0  0  0
  -27.5628  -25.8312   20.1308 O   0  0  0  0  0  0  0  0  0  1  0  0
  -22.5183   -2.4416   24.4614 F   0  0  0  0  0  0  0  0  0  0  0  0
  -22.7922   -4.6414   20.2792 F   0  0  0  0  0  0  0  0  0  0  0  0
  1  2  1  0  0  0  0
  1  5  2  0  0  0  0
  2  6  2  0  0  0  0
  3  8  2  0  0  0  0
  3 17  1  0  0  0  0
  4  9  1  0  0  0  0
  4 17  2  0  0  0  0
  5 19  1  0  0  0  0
  6 21  1  0  0  0  0
  7 10  2  0  0  0  0
  7 20  1  0  0  0  0
  8 24  1  0  0  0  0
  9 24  2  0  0  0  0
 10 25  1  0  0  0  0
 11 12  2  0  0  0  0
 11 26  1  0  0  0  0
 12 27  1  0  0  0  0
 13 22  1  0  0  0  0
 13 25  2  0  0  0  0
 14 23  1  0  0  0  0
 14 30  2  0  0  0  0
 15 27  2  0  0  0  0
 15 28  1  0  0  0  0
 16 23  2  0  0  0  0
 16 77  1  0  0  0  0
 17 29  1  0  0  0  0
 18 29  1  0  0  0  0
 18 31  2  0  0  0  0
 18 36  1  0  0  0  0
 19 21  2  0  0  0  0
 19 41  1  0  0  0  0
 20 22  2  0  0  0  0
 20 42  1  0  0  0  0
 21 50  1  0  0  0  0
 22 43  1  0  0  0  0
 23 59  1  0  0  0  0
 24 78  1  0  0  0  0
 25 79  1  0  0  0  0
 26 28  2  0  0  0  0
 26 78  1  0  0  0  0
 27 80  1  0  0  0  0
 28 81  1  0  0  0  0
 29 63  2  0  0  0  0
 30 33  1  0  0  0  0
 30 77  1  0  0  0  0
 31 64  1  0  0  0  0
 31 67  1  0  0  0  0
 32 35  2  0  0  0  0
 33 34  2  0  0  0  0
 34 37  1  0  0  0  0
 35 59  1  0  0  0  0
 36 68  1  0  0  0  0
 36 72  2  0  0  0  0
 37 65  1  0  0  0  0
 37 73  2  0  0  0  0
 38 51  1  0  0  0  0
 38 69  1  0  0  0  0
 38 74  2  0  0  0  0
 39 60  1  0  0  0  0
 39 66  1  0  0  0  0
 39 75  2  0  0  0  0
 40 61  1  0  0  0  0
 40 70  1  0  0  0  0
 40 76  2  0  0  0  0
 41 44  1  0  0  0  0
 42 51  1  0  0  0  0
 43 66  1  0  0  0  0
 44 46  1  0  0  0  0
 45 47  1  0  0  0  0
 45 48  1  0  0  0  0
 46 50  1  0  0  0  0
 47 52  1  0  0  0  0
 48 65  1  0  0  0  0
 49 52  1  0  0  0  0
 49 65  1  0  0  0  0
 50 69  1  0  0  0  0
 51 66  1  0  0  0  0
 52 64  1  0  0  0  0
 53 61  1  0  0  0  0
 54 62  1  0  0  0  0
 55 62  1  0  0  0  0
 56 62  1  0  0  0  0
 57 71  1  0  0  0  0
 58 59  1  0  0  0  0
 58 79  1  0  0  0  0
 60 62  1  0  0  0  0
 60 70  1  0  0  0  0
 61 71  1  0  0  0  0
 63 64  1  0  0  0  0
M  CHG  1  71   1
M  ISO  4  34 100  37 100  58 101  79 101
M  END
> <Batch ID>
0122

> <Smiles>
C=CC(c1coc(C=[100CH:0][100C:0](=O)N2CCCC(n3nc(-c4ccc(Oc5ccc(F)cc5F)cc4)c(C(N)=O)c3N)C2)c1)[101CH2:1][101O:1]c1ccc2c(c1)CN(C(=O)C(NC(=O)C(C)NC)C(C)(C)C)C(C(=O)NC1CCCc3ccccc31)C2

> <Shape>
0.276

> <Color>
0.087

> <Negative vol penalty>
0.000

$$$$

  -OEChem-04052302003D

 83 91  0     1  0  0  0  0  0999 V2000
  -18.3935  -26.5437   19.1357 C   0  0  0  0  0  0  0  0  0  0  0  0
  -19.6216  -27.1426   18.8740 C   0  0  0  0  0  0  0  0  0  0  0  0
  -24.0366  -15.0496   20.7714 C   0  0  0  0  0  0  0  0  0  0  0  0
  -25.9510  -13.5772   20.8357 C   0  0  0  0  0  0  0  0  0  0  0  0
  -17.9068  -26.4957   20.4414 C   0  0  0  0  0  0  0  0  0  0  0  0
  -20.3632  -27.6950   19.9177 C   0  0  0  0  0  0  0  0  0  0  0  0
  -25.2706  -26.4688   19.6753 C   0  0  0  0  0  0  0  0  0  0  0  0
  -23.2297  -13.9832   20.3747 C   0  0  0  0  0  0  0  0  0  0  0  0
  -25.1441  -12.5108   20.4389 C   0  0  0  0  0  0  0  0  0  0  0  0
  -26.0563  -27.1652   18.7580 C   0  0  0  0  0  0  0  0  0  0  0  0
  -22.9169  -10.4086   21.8675 C   0  0  0  0  0  0  0  0  0  0  0  0
  -23.0654   -9.1984   22.5449 C   0  0  0  0  0  0  0  0  0  0  0  0
  -30.0608  -26.1654   18.5896 C   0  0  0  0  0  0  0  0  0  0  0  0
  -26.8760  -28.5724   20.5377 C   0  0  0  0  0  0  0  0  0  0  0  0
  -32.7645  -26.4463   19.2171 C   0  0  0  0  0  0  0  0  0  0  0  0
  -23.6675   -8.1122   20.4725 C   0  0  0  0  0  0  0  0  0  0  0  0
  -25.3972  -14.8466   21.0019 C   0  0  0  0  0  0  0  0  0  0  0  0
  -30.6641  -25.2831   19.4858 C   0  0  0  0  0  0  0  0  0  0  0  0
  -26.5063  -16.3624   22.7282 C   0  0  0  0  0  0  0  0  0  0  0  0
  -18.6473  -27.0392   21.5030 C   0  0  0  0  0  0  0  0  0  0  0  0
  -25.2734  -26.8266   21.0312 C   0  0  0  0  0  0  0  0  0  0  0  0
  -19.8853  -27.6555   21.2386 C   0  0  0  0  0  0  0  0  0  0  0  0
  -26.0914  -27.8773   21.4706 C   0  0  0  0  0  0  0  0  0  0  0  0
  -30.8094  -27.1881   18.0071 C   0  0  0  0  0  0  0  0  0  0  0  0
  -32.0159  -25.4235   19.7996 C   0  0  0  0  0  0  0  0  0  0  0  0
  -23.7834  -12.7138   20.2084 C   0  0  0  0  0  0  0  0  0  0  0  0
  -26.8570  -28.2191   19.1887 C   0  0  0  0  0  0  0  0  0  0  0  0
  -23.1435  -10.4706   20.4925 C   0  0  0  0  0  0  0  0  0  0  0  0
  -23.4408   -8.0502   21.8475 C   0  0  0  0  0  0  0  0  0  0  0  0
  -32.1612  -27.3285   18.3208 C   0  0  0  0  0  0  0  0  0  0  0  0
  -23.5188   -9.3224   19.7951 C   0  0  0  0  0  0  0  0  0  0  0  0
  -26.2314  -15.9478   21.4112 C   0  0  0  0  0  0  0  0  0  0  0  0
  -27.3426  -17.4419   22.5808 C   0  0  0  0  0  0  0  0  0  0  0  0
  -29.8566  -24.2240   20.0768 C   0  0  0  0  0  0  0  0  0  0  0  0
  -29.2317  -23.2444   19.3922 C   0  0  0  0  0  0  0  0  0  0  0  0
  -26.0468  -15.8201   23.9734 C   0  0  0  0  0  0  0  0  0  0  0  0
  -28.4556  -22.2338   20.1386 C   0  0  0  0  0  0  0  0  0  0  0  0
  -23.0828  -27.8872   23.0757 C   0  0  0  0  0  0  0  0  0  0  0  0
  -25.4809  -27.5245   25.2297 C   0  0  0  0  0  0  0  0  0  0  0  0
  -28.8364  -27.3522   25.8280 C   0  0  0  0  0  0  0  0  0  0  0  0
  -18.0582  -27.0056   22.8910 C   0  0  0  0  0  0  0  0  0  0  0  0
  -24.4404  -26.0482   22.0124 C   0  0  0  0  0  0  0  0  0  0  0  0
  -26.1457  -28.2877   22.9187 C   0  0  0  0  0  0  0  0  0  0  0  0
  -19.0785  -27.2813   23.9925 C   0  0  0  0  0  0  0  0  0  0  0  0
  -29.7712  -19.2138   18.5320 C   0  0  0  0  0  0  0  0  0  0  0  0
  -19.9357  -28.4914   23.6353 C   0  0  0  0  0  0  0  0  0  0  0  0
  -28.9459  -18.1309   19.2220 C   0  0  0  0  0  0  0  0  0  0  0  0
  -28.9738  -20.5023   18.3358 C   0  0  0  0  0  0  0  0  0  0  0  0
  -27.5493  -19.9469   20.2859 C   0  0  0  0  0  0  0  0  0  0  0  0
  -20.7305  -28.2438   22.3475 C   0  0  1  0  0  0  0  0  0  0  0  0
  -24.1299  -26.8301   23.2850 C   0  0  1  0  0  0  0  0  0  0  0  0
  -28.3468  -18.6573   20.5358 C   0  0  1  0  0  0  0  0  0  0  0  0
  -32.6958  -24.4969   20.7557 C   0  0  0  0  0  0  0  0  0  0  0  0
  -30.4937  -27.0888   27.6938 C   0  0  0  0  0  0  0  0  0  0  0  0
  -25.0126  -30.4252   26.0520 C   0  0  0  0  0  0  0  0  0  0  0  0
  -27.2445  -30.3912   27.1858 C   0  0  0  0  0  0  0  0  0  0  0  0
  -25.4339  -28.8568   27.9539 C   0  0  0  0  0  0  0  0  0  0  0  0
  -29.9109  -24.8470   24.6753 C   0  0  0  0  0  0  0  0  0  0  0  0
  -30.1543  -28.1408   17.0392 C   0  0  0  0  0  0  0  0  0  0  0  0
  -29.8489  -29.5150   17.6390 C   0  0  0  0  0  0  0  0  0  0  0  0
  -28.8417  -29.4647   18.7820 C   0  0  0  0  0  0  0  0  0  1  0  0
  -26.5910  -28.4042   25.7520 C   0  0  1  0  0  0  0  0  0  0  0  0
  -29.6662  -26.3724   26.6379 C   0  0  2  0  0  0  0  0  0  0  0  0
  -26.0682  -29.5131   26.7082 C   0  0  0  0  0  0  0  0  0  0  0  0
  -26.8433  -16.7026   20.4947 N   0  0  0  0  0  0  0  0  0  0  0  0
  -27.5109  -17.6023   21.2369 N   0  0  0  0  0  0  0  0  0  0  0  0
  -28.3623  -20.9539   19.5948 N   0  0  0  0  0  0  0  0  0  0  0  0
  -25.3084  -27.5001   23.8385 N   0  0  0  0  0  0  0  0  0  0  0  0
  -27.9429  -18.2601   23.4710 N   0  0  0  0  0  0  0  0  0  0  0  0
  -25.1926  -14.7093   23.9437 N   0  0  0  0  0  0  0  0  0  0  0  0
  -21.8751  -27.3993   22.6144 N   0  0  0  0  0  0  0  0  0  0  0  0
  -27.5720  -27.5086   26.3553 N   0  0  0  0  0  0  0  0  0  0  0  0
  -30.5923  -25.6177   25.7471 N   0  3  0  0  0  0  0  0  0  0  0  0
  -26.3707  -16.3161   25.0790 O   0  0  0  0  0  0  0  0  0  0  0  0
  -27.9325  -22.5864   21.1972 O   0  0  0  0  0  0  0  0  0  0  0  0
  -23.3503  -29.0586   23.3165 O   0  0  0  0  0  0  0  0  0  0  0  0
  -24.7969  -26.8770   26.0263 O   0  0  0  0  0  0  0  0  0  0  0  0
  -29.2680  -27.9244   24.8296 O   0  0  0  0  0  0  0  0  0  0  0  0
  -22.9963  -11.6730   19.8215 O   0  0  0  0  0  0  0  0  0  0  0  0
  -27.6244  -28.9009   18.2954 O   0  0  0  0  0  0  0  0  0  1  0  0
  -23.5849   -6.8885   22.4985 F   0  0  0  0  0  0  0  0  0  0  0  0
  -32.8890  -28.3073   17.7649 F   0  0  0  0  0  0  0  0  0  0  0  0
  -23.7391   -9.3761   18.4743 F   0  0  0  0  0  0  0  0  0  0  0  0
  1  2  1  0  0  0  0
  1  5  2  0  0  0  0
  2  6  2  0  0  0  0
  3  8  2  0  0  0  0
  3 17  1  0  0  0  0
  4  9  1  0  0  0  0
  4 17  2  0  0  0  0
  5 20  1  0  0  0  0
  6 22  1  0  0  0  0
  7 10  2  0  0  0  0
  7 21  1  0  0  0  0
  8 26  1  0  0  0  0
  9 26  2  0  0  0  0
 10 27  1  0  0  0  0
 11 12  2  0  0  0  0
 11 28  1  0  0  0  0
 12 29  1  0  0  0  0
 13 18  2  0  0  0  0
 13 24  1  0  0  0  0
 14 23  1  0  0  0  0
 14 27  2  0  0  0  0
 15 25  2  0  0  0  0
 15 30  1  0  0  0  0
 16 29  2  0  0  0  0
 16 31  1  0  0  0  0
 17 32  1  0  0  0  0
 18 25  1  0  0  0  0
 18 34  1  0  0  0  0
 19 32  1  0  0  0  0
 19 33  2  0  0  0  0
 19 36  1  0  0  0  0
 20 22  2  0  0  0  0
 20 41  1  0  0  0  0
 21 23  2  0  0  0  0
 21 42  1  0  0  0  0
 22 50  1  0  0  0  0
 23 43  1  0  0  0  0
 24 30  2  0  0  0  0
 24 59  1  0  0  0  0
 25 53  1  0  0  0  0
 26 79  1  0  0  0  0
 27 80  1  0  0  0  0
 28 31  2  0  0  0  0
 28 79  1  0  0  0  0
 29 81  1  0  0  0  0
 30 82  1  0  0  0  0
 31 83  1  0  0  0  0
 32 65  2  0  0  0  0
 33 66  1  0  0  0  0
 33 69  1  0  0  0  0
 34 35  2  0  0  0  0
 35 37  1  0  0  0  0
 36 70  1  0  0  0  0
 36 74  2  0  0  0  0
 37 67  1  0  0  0  0
 37 75  2  0  0  0  0
 38 51  1  0  0  0  0
 38 71  1  0  0  0  0
 38 76  2  0  0  0  0
 39 62  1  0  0  0  0
 39 68  1  0  0  0  0
 39 77  2  0  0  0  0
 40 63  1  0  0  0  0
 40 72  1  0  0  0  0
 40 78  2  0  0  0  0
 41 44  1  0  0  0  0
 42 51  1  0  0  0  0
 43 68  1  0  0  0  0
 44 46  1  0  0  0  0
 45 47  1  0  0  0  0
 45 48  1  0  0  0  0
 46 50  1  0  0  0  0
 47 52  1  0  0  0  0
 48 67  1  0  0  0  0
 49 52  1  0  0  0  0
 49 67  1  0  0  0  0
 50 71  1  0  0  0  0
 51 68  1  0  0  0  0
 52 66  1  0  0  0  0
 54 63  1  0  0  0  0
 55 64  1  0  0  0  0
 56 64  1  0  0  0  0
 57 64  1  0  0  0  0
 58 73  1  0  0  0  0
 59 60  1  0  0  0  0
 60 61  1  0  0  0  0
 61 80  1  0  0  0  0
 62 64  1  0  0  0  0
 62 72  1  0  0  0  0
 63 73  1  0  0  0  0
 65 66  1  0  0  0  0
M  CHG  1  73   1
M  ISO  4  35 100  37 100  61 101  80 101
M  END
> <Batch ID>
0122

> <Smiles>
CNC(C)C(=O)NC(C(=O)N1Cc2cc([101O:1][101CH2:1]CCc3cc(C=[100CH:0][100C:0](=O)N4CCCC(n5nc(-c6ccc(Oc7ccc(F)cc7F)cc6)c(C(N)=O)c5N)C4)c(C)cc3F)ccc2CC1C(=O)NC1CCCc2ccccc21)C(C)(C)C

> <Shape>
0.240

> <Color>
0.076

> <Negative vol penalty>
0.000

$$$$

  -OEChem-04052302003D

 85 93  0     1  0  0  0  0  0999 V2000
  -17.0415  -28.9856   24.6315 C   0  0  0  0  0  0  0  0  0  0  0  0
  -17.7261  -27.9092   24.0764 C   0  0  0  0  0  0  0  0  0  0  0  0
  -28.6213  -19.0367   20.8809 C   0  0  0  0  0  0  0  0  0  0  0  0
  -26.4244  -19.9620   20.4879 C   0  0  0  0  0  0  0  0  0  0  0  0
  -18.7821  -17.5691   17.1872 C   0  0  0  0  0  0  0  0  0  0  0  0
  -17.3078  -30.2814   24.1912 C   0  0  0  0  0  0  0  0  0  0  0  0
  -18.6766  -28.1279   23.0799 C   0  0  0  0  0  0  0  0  0  0  0  0
  -22.9204  -25.4671   23.8252 C   0  0  0  0  0  0  0  0  0  0  0  0
  -18.7573  -16.4635   16.3372 C   0  0  0  0  0  0  0  0  0  0  0  0
  -29.1989  -20.1451   20.2617 C   0  0  0  0  0  0  0  0  0  0  0  0
  -27.0020  -21.0704   19.8688 C   0  0  0  0  0  0  0  0  0  0  0  0
  -22.8908  -24.1142   23.4899 C   0  0  0  0  0  0  0  0  0  0  0  0
  -29.9143  -23.3523   21.0588 C   0  0  0  0  0  0  0  0  0  0  0  0
  -31.0111  -23.9456   21.6837 C   0  0  0  0  0  0  0  0  0  0  0  0
  -20.6238  -16.5903   18.4066 C   0  0  0  0  0  0  0  0  0  0  0  0
  -24.0074  -24.6113   21.4102 C   0  0  0  0  0  0  0  0  0  0  0  0
  -32.3645  -23.4983   19.7330 C   0  0  0  0  0  0  0  0  0  0  0  0
  -27.2340  -18.9451   20.9940 C   0  0  0  0  0  0  0  0  0  0  0  0
  -19.7154  -17.6326   18.2219 C   0  0  0  0  0  0  0  0  0  0  0  0
  -20.5990  -15.4846   17.5566 C   0  0  0  0  0  0  0  0  0  0  0  0
  -26.3301  -17.6527   22.9990 C   0  0  0  0  0  0  0  0  0  0  0  0
  -18.2689  -30.5170   23.1956 C   0  0  0  0  0  0  0  0  0  0  0  0
  -23.4849  -26.4053   22.9491 C   0  0  0  0  0  0  0  0  0  0  0  0
  -18.9550  -29.4280   22.6249 C   0  0  0  0  0  0  0  0  0  0  0  0
  -24.0452  -25.9752   21.7378 C   0  0  0  0  0  0  0  0  0  0  0  0
  -19.6657  -15.4212   16.5219 C   0  0  0  0  0  0  0  0  0  0  0  0
  -28.3892  -21.1620   19.7557 C   0  0  0  0  0  0  0  0  0  0  0  0
  -23.4317  -23.6864   22.2810 C   0  0  0  0  0  0  0  0  0  0  0  0
  -30.0426  -22.8319   19.7710 C   0  0  0  0  0  0  0  0  0  0  0  0
  -32.2362  -24.0186   21.0208 C   0  0  0  0  0  0  0  0  0  0  0  0
  -31.2677  -22.9049   19.1081 C   0  0  0  0  0  0  0  0  0  0  0  0
  -26.6367  -17.8001   21.6330 C   0  0  0  0  0  0  0  0  0  0  0  0
  -25.7830  -16.3964   23.0945 C   0  0  0  0  0  0  0  0  0  0  0  0
  -19.7405  -18.8013   19.1194 C   0  0  0  0  0  0  0  0  0  0  0  0
  -21.5603  -14.4115   17.7748 C   0  0  0  0  0  0  0  0  0  0  0  0
  -20.7925  -19.1563   19.8771 C   0  0  0  0  0  0  0  0  0  0  0  0
  -22.0671  -14.0487   18.9707 C   0  0  0  0  0  0  0  0  0  0  0  0
  -22.0050  -20.5092   21.4775 C   0  0  0  0  0  0  0  0  0  0  0  0
  -26.5225  -18.5693   24.0846 C   0  0  0  0  0  0  0  0  0  0  0  0
  -20.8616  -20.3014   20.7912 C   0  0  0  0  0  0  0  0  0  0  0  0
  -23.0314  -12.9263   19.0298 C   0  0  0  0  0  0  0  0  0  0  0  0
  -22.3928  -28.9346   21.3636 C   0  0  0  0  0  0  0  0  0  0  0  0
  -25.5203  -29.3122   20.5901 C   0  0  0  0  0  0  0  0  0  0  0  0
  -28.5964  -27.8910   20.1840 C   0  0  0  0  0  0  0  0  0  0  0  0
  -18.4885  -31.9309   22.7186 C   0  0  0  0  0  0  0  0  0  0  0  0
  -23.5330  -27.8577   23.3375 C   0  0  0  0  0  0  0  0  0  0  0  0
  -24.6812  -26.9398   20.7715 C   0  0  0  0  0  0  0  0  0  0  0  0
  -19.7789  -32.1120   21.9235 C   0  0  0  0  0  0  0  0  0  0  0  0
  -25.8850  -12.0895   21.0331 C   0  0  0  0  0  0  0  0  0  0  0  0
  -19.9275  -31.0027   20.8870 C   0  0  0  0  0  0  0  0  0  0  0  0
  -26.3954  -13.4501   21.5064 C   0  0  0  0  0  0  0  0  0  0  0  0
  -25.2988  -12.1712   19.6274 C   0  0  0  0  0  0  0  0  0  0  0  0
  -24.7256  -14.5611   19.9562 C   0  0  0  0  0  0  0  0  0  0  0  0
  -20.0110  -29.6271   21.5594 C   0  0  1  0  0  0  0  0  0  0  0  0
  -23.6715  -28.7922   22.1396 C   0  0  1  0  0  0  0  0  0  0  0  0
  -25.2999  -14.5241   21.3832 C   0  0  2  0  0  0  0  0  0  0  0  0
  -19.6092  -14.2516   15.5924 C   0  0  0  0  0  0  0  0  0  0  0  0
  -19.6424  -21.1795   20.9010 C   0  0  0  0  0  0  0  0  0  0  0  0
  -31.0671  -27.7677   19.7623 C   0  0  0  0  0  0  0  0  0  0  0  0
  -24.6577  -29.3924   17.6644 C   0  0  0  0  0  0  0  0  0  0  0  0
  -27.0438  -28.9893   17.0222 C   0  0  0  0  0  0  0  0  0  0  0  0
  -26.4236  -31.0539   18.2773 C   0  0  0  0  0  0  0  0  0  0  0  0
  -29.2227  -28.2900   23.0489 C   0  0  0  0  0  0  0  0  0  0  0  0
  -22.3192  -21.5923   22.4620 C   0  0  0  0  0  0  0  0  0  1  0  0
  -26.4115  -28.8261   19.4726 C   0  0  1  0  0  0  0  0  0  0  0  0
  -29.9725  -28.3129   20.6664 C   0  0  2  0  0  0  0  0  0  0  0  0
  -26.1205  -29.5473   18.1263 C   0  0  0  0  0  0  0  0  0  0  0  0
  -26.3117  -16.7235   20.9124 N   0  0  0  0  0  0  0  0  0  0  0  0
  -25.7951  -15.8875   21.8291 N   0  0  0  0  0  0  0  0  0  0  0  0
  -24.2889  -13.2237   19.5362 N   0  0  0  0  0  0  0  0  0  0  0  0
  -24.6981  -28.3501   21.1936 N   0  0  0  0  0  0  0  0  0  0  0  0
  -25.2977  -15.6885   24.1365 N   0  0  0  0  0  0  0  0  0  0  0  0
  -27.0980  -19.8176   23.8109 N   0  0  0  0  0  0  0  0  0  0  0  0
  -21.3323  -29.4127   22.1094 N   0  0  0  0  0  0  0  0  0  0  0  0
  -27.7823  -28.9786   19.9481 N   0  0  0  0  0  0  0  0  0  0  0  0
  -30.2126  -27.8122   22.0494 N   0  3  0  0  0  0  0  0  0  0  0  0
  -26.2089  -18.2834   25.2650 O   0  0  0  0  0  0  0  0  0  0  0  0
  -22.6136  -11.8501   18.6227 O   0  0  0  0  0  0  0  0  0  0  0  0
  -22.3703  -28.6344   20.1757 O   0  0  0  0  0  0  0  0  0  0  0  0
  -25.5577  -30.5001   20.9202 O   0  0  0  0  0  0  0  0  0  0  0  0
  -28.2769  -26.7145   20.0282 O   0  0  0  0  0  0  0  0  0  0  0  0
  -28.9525  -22.2438   19.1516 O   0  0  0  0  0  0  0  0  0  0  0  0
  -23.4036  -22.3665   21.9510 O   0  0  0  0  0  0  0  0  0  1  0  0
  -33.2890  -24.5898   21.6205 F   0  0  0  0  0  0  0  0  0  0  0  0
  -31.3967  -22.4078   17.8703 F   0  0  0  0  0  0  0  0  0  0  0  0
  1  2  1  0  0  0  0
  1  6  2  0  0  0  0
  2  7  2  0  0  0  0
  3 10  2  0  0  0  0
  3 18  1  0  0  0  0
  4 11  1  0  0  0  0
  4 18  2  0  0  0  0
  5  9  2  0  0  0  0
  5 19  1  0  0  0  0
  6 22  1  0  0  0  0
  7 24  1  0  0  0  0
  8 12  2  0  0  0  0
  8 23  1  0  0  0  0
  9 26  1  0  0  0  0
 10 27  1  0  0  0  0
 11 27  2  0  0  0  0
 12 28  1  0  0  0  0
 13 14  2  0  0  0  0
 13 29  1  0  0  0  0
 14 30  1  0  0  0  0
 15 19  2  0  0  0  0
 15 20  1  0  0  0  0
 16 25  1  0  0  0  0
 16 28  2  0  0  0  0
 17 30  2  0  0  0  0
 17 31  1  0  0  0  0
 18 32  1  0  0  0  0
 19 34  1  0  0  0  0
 20 26  2  0  0  0  0
 20 35  1  0  0  0  0
 21 32  1  0  0  0  0
 21 33  2  0  0  0  0
 21 39  1  0  0  0  0
 22 24  2  0  0  0  0
 22 45  1  0  0  0  0
 23 25  2  0  0  0  0
 23 46  1  0  0  0  0
 24 54  1  0  0  0  0
 25 47  1  0  0  0  0
 26 57  1  0  0  0  0
 27 82  1  0  0  0  0
 28 83  1  0  0  0  0
 29 31  2  0  0  0  0
 29 82  1  0  0  0  0
 30 84  1  0  0  0  0
 31 85  1  0  0  0  0
 32 68  2  0  0  0  0
 33 69  1  0  0  0  0
 33 72  1  0  0  0  0
 34 36  2  0  0  0  0
 35 37  2  0  0  0  0
 36 40  1  0  0  0  0
 37 41  1  0  0  0  0
 38 40  2  0  0  0  0
 38 64  1  0  0  0  0
 39 73  1  0  0  0  0
 39 77  2  0  0  0  0
 40 58  1  0  0  0  0
 41 70  1  0  0  0  0
 41 78  2  0  0  0  0
 42 55  1  0  0  0  0
 42 74  1  0  0  0  0
 42 79  2  0  0  0  0
 43 65  1  0  0  0  0
 43 71  1  0  0  0  0
 43 80  2  0  0  0  0
 44 66  1  0  0  0  0
 44 75  1  0  0  0  0
 44 81  2  0  0  0  0
 45 48  1  0  0  0  0
 46 55  1  0  0  0  0
 47 71  1  0  0  0  0
 48 50  1  0  0  0  0
 49 51  1  0  0  0  0
 49 52  1  0  0  0  0
 50 54  1  0  0  0  0
 51 56  1  0  0  0  0
 52 70  1  0  0  0  0
 53 56  1  0  0  0  0
 53 70  1  0  0  0  0
 54 74  1  0  0  0  0
 55 71  1  0  0  0  0
 56 69  1  0  0  0  0
 59 66  1  0  0  0  0
 60 67  1  0  0  0  0
 61 67  1  0  0  0  0
 62 67  1  0  0  0  0
 63 76  1  0  0  0  0
 64 83  1  0  0  0  0
 65 67  1  0  0  0  0
 65 75  1  0  0  0  0
 66 76  1  0  0  0  0
 68 69  1  0  0  0  0
M  CHG  1  76   1
M  ISO  4  37 100  41 100  64 101  83 101
M  END
> <Batch ID>
0122

> <Smiles>
CNC(C)C(=O)NC(C(=O)N1Cc2cc([101O:1][101CH2:1]C=C(C)C=Cc3ccc(C)c(C=[100CH:0][100C:0](=O)N4CCCC(n5nc(-c6ccc(Oc7ccc(F)cc7F)cc6)c(C(N)=O)c5N)C4)c3)ccc2CC1C(=O)NC1CCCc2ccccc21)C(C)(C)C

> <Shape>
0.183

> <Color>
0.080

> <Negative vol penalty>
0.000

$$$$

  -OEChem-04052302003D

 84 92  0     1  0  0  0  0  0999 V2000
  -27.4271  -33.7328   26.4622 C   0  0  0  0  0  0  0  0  0  0  0  0
  -27.7101  -32.5658   25.7598 C   0  0  0  0  0  0  0  0  0  0  0  0
  -26.2730  -11.7286   21.3206 C   0  0  0  0  0  0  0  0  0  0  0  0
  -25.6058  -12.3501   19.0833 C   0  0  0  0  0  0  0  0  0  0  0  0
  -26.1064  -34.0576   26.7688 C   0  0  0  0  0  0  0  0  0  0  0  0
  -26.6724  -31.7223   25.3645 C   0  0  0  0  0  0  0  0  0  0  0  0
  -27.1749  -30.1332   20.5826 C   0  0  0  0  0  0  0  0  0  0  0  0
  -24.9902  -11.2398   21.5675 C   0  0  0  0  0  0  0  0  0  0  0  0
  -24.3229  -11.8612   19.3302 C   0  0  0  0  0  0  0  0  0  0  0  0
  -28.0892  -29.1078   20.3451 C   0  0  0  0  0  0  0  0  0  0  0  0
  -23.2010   -8.4629   20.8459 C   0  0  0  0  0  0  0  0  0  0  0  0
  -23.0897   -7.2236   21.4763 C   0  0  0  0  0  0  0  0  0  0  0  0
  -28.9659  -20.9631   17.0064 C   0  0  0  0  0  0  0  0  0  0  0  0
  -27.8346  -21.4128   14.9197 C   0  0  0  0  0  0  0  0  0  0  0  0
  -26.2793  -27.5139   20.2944 C   0  0  0  0  0  0  0  0  0  0  0  0
  -28.3557  -19.1382   15.5454 C   0  0  0  0  0  0  0  0  0  0  0  0
  -21.8814   -8.2574   23.2952 C   0  0  0  0  0  0  0  0  0  0  0  0
  -26.5808  -12.2838   20.0786 C   0  0  0  0  0  0  0  0  0  0  0  0
  -28.4151  -21.8712   16.1022 C   0  0  0  0  0  0  0  0  0  0  0  0
  -29.0009  -12.0773   19.2985 C   0  0  0  0  0  0  0  0  0  0  0  0
  -25.0513  -33.2226   26.3687 C   0  0  0  0  0  0  0  0  0  0  0  0
  -25.8047  -29.8546   20.6887 C   0  0  0  0  0  0  0  0  0  0  0  0
  -25.3364  -32.0356   25.6673 C   0  0  0  0  0  0  0  0  0  0  0  0
  -25.3494  -28.5379   20.5307 C   0  0  0  0  0  0  0  0  0  0  0  0
  -28.9362  -19.5966   16.7280 C   0  0  0  0  0  0  0  0  0  0  0  0
  -24.0151  -11.3060   20.5723 C   0  0  0  0  0  0  0  0  0  0  0  0
  -27.6418  -27.7975   20.2038 C   0  0  0  0  0  0  0  0  0  0  0  0
  -22.6526   -9.5994   21.4402 C   0  0  0  0  0  0  0  0  0  0  0  0
  -22.4299   -7.1208   22.7009 C   0  0  0  0  0  0  0  0  0  0  0  0
  -27.8048  -20.0463   14.6412 C   0  0  0  0  0  0  0  0  0  0  0  0
  -21.9928   -9.4967   22.6648 C   0  0  0  0  0  0  0  0  0  0  0  0
  -27.9057  -12.7894   19.8232 C   0  0  0  0  0  0  0  0  0  0  0  0
  -30.0182  -12.9987   19.2501 C   0  0  0  0  0  0  0  0  0  0  0  0
  -28.4471  -23.3149   16.3956 C   0  0  0  0  0  0  0  0  0  0  0  0
  -29.2827  -23.8962   17.2677 C   0  0  0  0  0  0  0  0  0  0  0  0
  -29.0905  -10.7055   18.8912 C   0  0  0  0  0  0  0  0  0  0  0  0
  -29.2284  -25.3703   17.5012 C   0  0  0  0  0  0  0  0  0  0  0  0
  -23.6233  -30.1663   22.9796 C   0  0  0  0  0  0  0  0  0  0  0  0
  -21.5896  -29.2323   20.6313 C   0  0  0  0  0  0  0  0  0  0  0  0
  -21.1388  -27.5970   17.6700 C   0  0  0  0  0  0  0  0  0  0  0  0
  -30.1107  -18.9609   18.8641 C   0  0  0  0  0  0  0  0  0  0  0  0
  -23.6434  -33.5915   26.7644 C   0  0  0  0  0  0  0  0  0  0  0  0
  -24.8286  -30.9757   20.9185 C   0  0  0  0  0  0  0  0  0  0  0  0
  -23.8867  -28.1890   20.6158 C   0  0  0  0  0  0  0  0  0  0  0  0
  -22.5729  -32.8341   25.9831 C   0  0  0  0  0  0  0  0  0  0  0  0
  -31.5804  -16.9698   21.4238 C   0  0  0  0  0  0  0  0  0  0  0  0
  -22.9064  -31.3468   25.9248 C   0  0  0  0  0  0  0  0  0  0  0  0
  -30.9090  -15.6053   21.2522 C   0  0  0  0  0  0  0  0  0  0  0  0
  -30.6110  -18.1176   21.1474 C   0  0  0  0  0  0  0  0  0  0  0  0
  -29.2452  -16.6818   19.6838 C   0  0  0  0  0  0  0  0  0  0  0  0
  -24.2362  -31.1076   25.1997 C   0  0  1  0  0  0  0  0  0  0  0  0
  -23.5082  -30.5045   21.5201 C   0  0  1  0  0  0  0  0  0  0  0  0
  -30.1994  -15.4939   19.8885 C   0  0  2  0  0  0  0  0  0  0  0  0
  -19.3575  -26.9693   16.0177 C   0  0  0  0  0  0  0  0  0  0  0  0
  -20.6104  -27.0460   22.5211 C   0  0  0  0  0  0  0  0  0  0  0  0
  -19.5723  -25.9039   20.5498 C   0  0  0  0  0  0  0  0  0  0  0  0
  -18.8050  -28.1821   21.2157 C   0  0  0  0  0  0  0  0  0  0  0  0
  -22.4536  -29.1190   15.4989 C   0  0  0  0  0  0  0  0  0  0  0  0
  -30.2286  -25.9058   18.5143 C   0  0  0  0  0  0  0  0  0  0  0  0
  -29.7197  -27.1326   19.2572 C   0  0  0  0  0  0  0  0  0  1  0  0
  -21.0718  -27.9056   20.1307 C   0  0  1  0  0  0  0  0  0  0  0  0
  -20.4115  -27.9971   16.3990 C   0  0  2  0  0  0  0  0  0  0  0  0
  -20.0427  -27.2654   21.1046 C   0  0  0  0  0  0  0  0  0  0  0  0
  -28.1997  -14.0648   20.0892 N   0  0  0  0  0  0  0  0  0  0  0  0
  -29.4912  -14.1614   19.7304 N   0  0  0  0  0  0  0  0  0  0  0  0
  -22.9721  -29.3191   20.8481 N   0  0  0  0  0  0  0  0  0  0  0  0
  -29.9799  -17.9473   19.8368 N   0  0  0  0  0  0  0  0  0  0  0  0
  -31.3033  -12.9198   18.8442 N   0  0  0  0  0  0  0  0  0  0  0  0
  -27.9508   -9.8981   19.0076 N   0  0  0  0  0  0  0  0  0  0  0  0
  -29.4962  -18.6735   17.6457 N   0  0  0  0  0  0  0  0  0  0  0  0
  -24.0575  -31.2151   23.7676 N   0  0  0  0  0  0  0  0  0  0  0  0
  -20.5530  -28.1499   18.7892 N   0  0  0  0  0  0  0  0  0  0  0  0
  -21.3749  -28.1237   15.2690 N   0  3  0  0  0  0  0  0  0  0  0  0
  -30.1544  -10.2061   18.4528 O   0  0  0  0  0  0  0  0  0  0  0  0
  -28.4281  -26.0890   16.9089 O   0  0  0  0  0  0  0  0  0  0  0  0
  -23.3378  -29.0378   23.3626 O   0  0  0  0  0  0  0  0  0  0  0  0
  -20.7976  -30.1597   20.8163 O   0  0  0  0  0  0  0  0  0  0  0  0
  -22.1254  -26.8641   17.6704 O   0  0  0  0  0  0  0  0  0  0  0  0
  -30.7460  -19.9950   19.0857 O   0  0  0  0  0  0  0  0  0  0  0  0
  -22.7633  -10.8289   20.8127 O   0  0  0  0  0  0  0  0  0  0  0  0
  -28.5321  -26.7947   19.9726 O   0  0  0  0  0  0  0  0  0  1  0  0
  -22.3217   -5.9304   23.3054 F   0  0  0  0  0  0  0  0  0  0  0  0
  -27.2499  -19.6059   13.5045 F   0  0  0  0  0  0  0  0  0  0  0  0
  -21.4628  -10.5848   23.2400 F   0  0  0  0  0  0  0  0  0  0  0  0
  1  2  1  0  0  0  0
  1  5  2  0  0  0  0
  2  6  2  0  0  0  0
  3  8  2  0  0  0  0
  3 18  1  0  0  0  0
  4  9  1  0  0  0  0
  4 18  2  0  0  0  0
  5 21  1  0  0  0  0
  6 23  1  0  0  0  0
  7 10  2  0  0  0  0
  7 22  1  0  0  0  0
  8 26  1  0  0  0  0
  9 26  2  0  0  0  0
 10 27  1  0  0  0  0
 11 12  2  0  0  0  0
 11 28  1  0  0  0  0
 12 29  1  0  0  0  0
 13 19  2  0  0  0  0
 13 25  1  0  0  0  0
 14 19  1  0  0  0  0
 14 30  2  0  0  0  0
 15 24  1  0  0  0  0
 15 27  2  0  0  0  0
 16 25  2  0  0  0  0
 16 30  1  0  0  0  0
 17 29  2  0  0  0  0
 17 31  1  0  0  0  0
 18 32  1  0  0  0  0
 19 34  1  0  0  0  0
 20 32  1  0  0  0  0
 20 33  2  0  0  0  0
 20 36  1  0  0  0  0
 21 23  2  0  0  0  0
 21 42  1  0  0  0  0
 22 24  2  0  0  0  0
 22 43  1  0  0  0  0
 23 51  1  0  0  0  0
 24 44  1  0  0  0  0
 25 70  1  0  0  0  0
 26 80  1  0  0  0  0
 27 81  1  0  0  0  0
 28 31  2  0  0  0  0
 28 80  1  0  0  0  0
 29 82  1  0  0  0  0
 30 83  1  0  0  0  0
 31 84  1  0  0  0  0
 32 64  2  0  0  0  0
 33 65  1  0  0  0  0
 33 68  1  0  0  0  0
 34 35  2  0  0  0  0
 35 37  1  0  0  0  0
 36 69  1  0  0  0  0
 36 74  2  0  0  0  0
 37 59  1  0  0  0  0
 37 75  2  0  0  0  0
 38 52  1  0  0  0  0
 38 71  1  0  0  0  0
 38 76  2  0  0  0  0
 39 61  1  0  0  0  0
 39 66  1  0  0  0  0
 39 77  2  0  0  0  0
 40 62  1  0  0  0  0
 40 72  1  0  0  0  0
 40 78  2  0  0  0  0
 41 67  1  0  0  0  0
 41 70  1  0  0  0  0
 41 79  2  0  0  0  0
 42 45  1  0  0  0  0
 43 52  1  0  0  0  0
 44 66  1  0  0  0  0
 45 47  1  0  0  0  0
 46 48  1  0  0  0  0
 46 49  1  0  0  0  0
 47 51  1  0  0  0  0
 48 53  1  0  0  0  0
 49 67  1  0  0  0  0
 50 53  1  0  0  0  0
 50 67  1  0  0  0  0
 51 71  1  0  0  0  0
 52 66  1  0  0  0  0
 53 65  1  0  0  0  0
 54 62  1  0  0  0  0
 55 63  1  0  0  0  0
 56 63  1  0  0  0  0
 57 63  1  0  0  0  0
 58 73  1  0  0  0  0
 59 60  1  0  0  0  0
 60 81  1  0  0  0  0
 61 63  1  0  0  0  0
 61 72  1  0  0  0  0
 62 73  1  0  0  0  0
 64 65  1  0  0  0  0
M  CHG  1  73   1
M  ISO  4  41 100  60 101  70 100  81 101
M  END
> <Batch ID>
0122

> <Smiles>
CNC(C)C(=O)NC(C(=O)N1Cc2cc([101O:1][101CH2:1]CC(=O)C=Cc3cc(F)cc([100NH:0][100C:0](=O)N4CCCC(n5nc(-c6ccc(Oc7ccc(F)cc7F)cc6)c(C(N)=O)c5N)C4)c3)ccc2CC1C(=O)NC1CCCc2ccccc21)C(C)(C)C

> <Shape>
0.329

> <Color>
0.088

> <Negative vol penalty>
0.000

$$$$

  -OEChem-04052302003D

 85 93  0     1  0  0  0  0  0999 V2000
  -26.5935  -37.7691   22.4753 C   0  0  0  0  0  0  0  0  0  0  0  0
  -27.2742  -36.6218   22.0807 C   0  0  0  0  0  0  0  0  0  0  0  0
  -26.1876  -10.4475   18.1104 C   0  0  0  0  0  0  0  0  0  0  0  0
  -27.1171   -9.6339   20.1867 C   0  0  0  0  0  0  0  0  0  0  0  0
  -27.5807  -19.8955   20.4106 C   0  0  0  0  0  0  0  0  0  0  0  0
  -25.4757  -37.6655   23.3022 C   0  0  0  0  0  0  0  0  0  0  0  0
  -26.8381  -35.3701   22.5137 C   0  0  0  0  0  0  0  0  0  0  0  0
  -27.0567  -30.1101   19.3848 C   0  0  0  0  0  0  0  0  0  0  0  0
  -27.0515   -9.6161   17.3978 C   0  0  0  0  0  0  0  0  0  0  0  0
  -27.9811   -8.8024   19.4741 C   0  0  0  0  0  0  0  0  0  0  0  0
  -28.4398  -20.8249   19.8243 C   0  0  0  0  0  0  0  0  0  0  0  0
  -27.9515  -29.0411   19.4085 C   0  0  0  0  0  0  0  0  0  0  0  0
  -30.2996   -9.6148   16.4628 C   0  0  0  0  0  0  0  0  0  0  0  0
  -30.9631  -10.1602   15.3637 C   0  0  0  0  0  0  0  0  0  0  0  0
  -26.4961  -27.8644   20.9305 C   0  0  0  0  0  0  0  0  0  0  0  0
  -26.5667  -22.2925   19.4062 C   0  0  0  0  0  0  0  0  0  0  0  0
  -29.9270   -8.5198   13.9241 C   0  0  0  0  0  0  0  0  0  0  0  0
  -26.2204  -10.4565   19.5049 C   0  0  0  0  0  0  0  0  0  0  0  0
  -26.2146  -20.1646   20.4947 C   0  0  0  0  0  0  0  0  0  0  0  0
  -24.0342  -11.0049   20.6996 C   0  0  0  0  0  0  0  0  0  0  0  0
  -25.0199  -36.4112   23.7377 C   0  0  0  0  0  0  0  0  0  0  0  0
  -25.8782  -30.0687   20.1437 C   0  0  0  0  0  0  0  0  0  0  0  0
  -25.7139  -35.2497   23.3483 C   0  0  0  0  0  0  0  0  0  0  0  0
  -25.5868  -28.9330   20.9127 C   0  0  0  0  0  0  0  0  0  0  0  0
  -25.7076  -21.3631   19.9925 C   0  0  0  0  0  0  0  0  0  0  0  0
  -27.9483   -8.7935   18.0796 C   0  0  0  0  0  0  0  0  0  0  0  0
  -27.6727  -27.9193   20.1836 C   0  0  0  0  0  0  0  0  0  0  0  0
  -27.9328  -22.0234   19.3221 C   0  0  0  0  0  0  0  0  0  0  0  0
  -29.4499   -8.5218   16.2925 C   0  0  0  0  0  0  0  0  0  0  0  0
  -30.7768   -9.6127   14.0944 C   0  0  0  0  0  0  0  0  0  0  0  0
  -29.2635   -7.9743   15.0232 C   0  0  0  0  0  0  0  0  0  0  0  0
  -25.3286  -11.3156   20.2416 C   0  0  0  0  0  0  0  0  0  0  0  0
  -23.6122  -12.1462   21.3367 C   0  0  0  0  0  0  0  0  0  0  0  0
  -25.3403  -19.1760   21.1112 C   0  0  0  0  0  0  0  0  0  0  0  0
  -23.2806   -9.7930   20.5615 C   0  0  0  0  0  0  0  0  0  0  0  0
  -25.2238  -17.8085   20.5659 C   0  0  0  0  0  0  0  0  0  0  0  0
  -24.6851  -31.7965   22.5301 C   0  0  0  0  0  0  0  0  0  0  0  0
  -22.0770  -29.9249   22.0640 C   0  0  0  0  0  0  0  0  0  0  0  0
  -20.7917  -26.9826   20.9074 C   0  0  0  0  0  0  0  0  0  0  0  0
  -23.8352  -36.3527   24.6691 C   0  0  0  0  0  0  0  0  0  0  0  0
  -24.9105  -31.2187   20.0864 C   0  0  0  0  0  0  0  0  0  0  0  0
  -24.3255  -28.8306   21.7295 C   0  0  0  0  0  0  0  0  0  0  0  0
  -23.2149  -34.9622   24.7791 C   0  0  0  0  0  0  0  0  0  0  0  0
  -25.2501  -15.9405   23.7189 C   0  0  0  0  0  0  0  0  0  0  0  0
  -24.2997  -33.9078   24.9746 C   0  0  0  0  0  0  0  0  0  0  0  0
  -25.2017  -14.5027   23.2088 C   0  0  0  0  0  0  0  0  0  0  0  0
  -26.0453  -16.8519   22.7854 C   0  0  0  0  0  0  0  0  0  0  0  0
  -25.5212  -15.3802   20.8618 C   0  0  0  0  0  0  0  0  0  0  0  0
  -25.2568  -33.8723   23.7771 C   0  0  1  0  0  0  0  0  0  0  0  0
  -23.9890  -31.2853   21.3005 C   0  0  1  0  0  0  0  0  0  0  0  0
  -24.6864  -14.4556   21.7616 C   0  0  1  0  0  0  0  0  0  0  0  0
  -22.4554  -23.0231   21.2466 C   0  0  0  0  0  0  0  0  0  0  0  0
  -18.6309  -25.7237   20.6987 C   0  0  0  0  0  0  0  0  0  0  0  0
  -22.1890  -29.2445   25.0362 C   0  0  0  0  0  0  0  0  0  0  0  0
  -20.6638  -27.3121   24.5801 C   0  0  0  0  0  0  0  0  0  0  0  0
  -19.8871  -29.6420   24.1431 C   0  0  0  0  0  0  0  0  0  0  0  0
  -20.9763  -26.9250   17.9542 C   0  0  0  0  0  0  0  0  0  0  0  0
  -24.2490  -21.6767   20.0708 C   0  0  0  0  0  0  0  0  0  0  0  0
  -23.9355  -22.6795   21.1902 C   0  0  0  0  0  0  0  0  0  0  0  0
  -29.6582  -25.1699   18.9148 C   0  0  0  0  0  0  0  0  0  0  0  0
  -29.3206  -26.6478   19.0331 C   0  0  0  0  0  0  0  0  0  1  0  0
  -28.4095  -24.3046   18.8482 C   0  0  0  0  0  0  0  0  0  0  0  0
  -21.6022  -28.5985   22.6064 C   0  0  1  0  0  0  0  0  0  0  0  0
  -19.5953  -26.6850   20.0216 C   0  0  2  0  0  0  0  0  0  0  0  0
  -21.1103  -28.7017   24.0777 C   0  0  0  0  0  0  0  0  0  0  0  0
  -25.7042  -12.5570   20.5605 N   0  0  0  0  0  0  0  0  0  0  0  0
  -24.6155  -19.4230   22.1673 N   0  0  0  0  0  0  0  0  0  0  0  0
  -24.6394  -13.0365   21.2256 N   0  0  0  0  0  0  0  0  0  0  0  0
  -25.5720  -16.7453   21.3971 N   0  0  0  0  0  0  0  0  0  0  0  0
  -23.4138  -29.9836   21.6455 N   0  0  0  0  0  0  0  0  0  0  0  0
  -22.4664  -12.4650   21.9754 N   0  0  0  0  0  0  0  0  0  0  0  0
  -23.8641   -8.7175   19.8779 N   0  0  0  0  0  0  0  0  0  0  0  0
  -24.6501  -33.1712   22.6658 N   0  0  0  0  0  0  0  0  0  0  0  0
  -20.5928  -28.1130   21.6716 N   0  0  0  0  0  0  0  0  0  0  0  0
  -20.0411  -26.0762   18.7365 N   0  3  0  0  0  0  0  0  0  0  0  0
  -22.1176   -9.6730   21.0161 O   0  0  0  0  0  0  0  0  0  0  0  0
  -24.8293  -17.6913   19.4043 O   0  0  0  0  0  0  0  0  0  0  0  0
  -25.2134  -31.0024   23.2995 O   0  0  0  0  0  0  0  0  0  0  0  0
  -21.2886  -30.8720   22.0068 O   0  0  0  0  0  0  0  0  0  0  0  0
  -21.8001  -26.2802   20.9229 O   0  0  0  0  0  0  0  0  0  0  0  0
  -28.7913   -7.9819   17.3845 O   0  0  0  0  0  0  0  0  0  0  0  0
  -28.5446  -26.8748   20.2090 O   0  0  0  0  0  0  0  0  0  1  0  0
  -28.7763  -22.9356   18.7433 O   0  0  0  0  0  0  0  0  0  0  0  0
  -31.4127  -10.1376   13.0388 F   0  0  0  0  0  0  0  0  0  0  0  0
  -28.4475   -6.9250   14.8532 F   0  0  0  0  0  0  0  0  0  0  0  0
  1  2  1  0  0  0  0
  1  6  2  0  0  0  0
  2  7  2  0  0  0  0
  3  9  2  0  0  0  0
  3 18  1  0  0  0  0
  4 10  1  0  0  0  0
  4 18  2  0  0  0  0
  5 11  2  0  0  0  0
  5 19  1  0  0  0  0
  6 21  1  0  0  0  0
  7 23  1  0  0  0  0
  8 12  2  0  0  0  0
  8 22  1  0  0  0  0
  9 26  1  0  0  0  0
 10 26  2  0  0  0  0
 11 28  1  0  0  0  0
 12 27  1  0  0  0  0
 13 14  2  0  0  0  0
 13 29  1  0  0  0  0
 14 30  1  0  0  0  0
 15 24  1  0  0  0  0
 15 27  2  0  0  0  0
 16 25  1  0  0  0  0
 16 28  2  0  0  0  0
 17 30  2  0  0  0  0
 17 31  1  0  0  0  0
 18 32  1  0  0  0  0
 19 25  2  0  0  0  0
 19 34  1  0  0  0  0
 20 32  1  0  0  0  0
 20 33  2  0  0  0  0
 20 35  1  0  0  0  0
 21 23  2  0  0  0  0
 21 40  1  0  0  0  0
 22 24  2  0  0  0  0
 22 41  1  0  0  0  0
 23 49  1  0  0  0  0
 24 42  1  0  0  0  0
 25 58  1  0  0  0  0
 26 81  1  0  0  0  0
 27 82  1  0  0  0  0
 28 83  1  0  0  0  0
 29 31  2  0  0  0  0
 29 81  1  0  0  0  0
 30 84  1  0  0  0  0
 31 85  1  0  0  0  0
 32 66  2  0  0  0  0
 33 68  1  0  0  0  0
 33 71  1  0  0  0  0
 34 36  1  0  0  0  0
 34 67  2  0  0  0  0
 35 72  1  0  0  0  0
 35 76  2  0  0  0  0
 36 69  1  0  0  0  0
 36 77  2  0  0  0  0
 37 50  1  0  0  0  0
 37 73  1  0  0  0  0
 37 78  2  0  0  0  0
 38 63  1  0  0  0  0
 38 70  1  0  0  0  0
 38 79  2  0  0  0  0
 39 64  1  0  0  0  0
 39 74  1  0  0  0  0
 39 80  2  0  0  0  0
 40 43  1  0  0  0  0
 41 50  1  0  0  0  0
 42 70  1  0  0  0  0
 43 45  1  0  0  0  0
 44 46  1  0  0  0  0
 44 47  1  0  0  0  0
 45 49  1  0  0  0  0
 46 51  1  0  0  0  0
 47 69  1  0  0  0  0
 48 51  1  0  0  0  0
 48 69  1  0  0  0  0
 49 73  1  0  0  0  0
 50 70  1  0  0  0  0
 51 68  1  0  0  0  0
 52 59  1  0  0  0  0
 53 64  1  0  0  0  0
 54 65  1  0  0  0  0
 55 65  1  0  0  0  0
 56 65  1  0  0  0  0
 57 75  1  0  0  0  0
 58 59  1  0  0  0  0
 60 61  1  0  0  0  0
 60 62  1  0  0  0  0
 61 82  1  0  0  0  0
 62 83  1  0  0  0  0
 63 65  1  0  0  0  0
 63 74  1  0  0  0  0
 64 75  1  0  0  0  0
 66 68  1  0  0  0  0
M  CHG  1  75   1
M  ISO  4  34 100  36 100  61 101  82 101
M  END
> <Batch ID>
0122

> <Smiles>
CCCc1cc(OCC[101CH2:1][101O:1]c2ccc3c(c2)CN(C(=O)C(NC(=O)C(C)NC)C(C)(C)C)C(C(=O)NC2CCCc4ccccc42)C3)ccc1[100C:0](=N)[100C:0](=O)N1CCCC(n2nc(-c3ccc(Oc4ccc(F)cc4F)cc3)c(C(N)=O)c2N)C1

> <Shape>
0.259

> <Color>
0.096

> <Negative vol penalty>
0.000

$$$$

  -OEChem-04052302003D

 85 93  0     1  0  0  0  0  0999 V2000
  -19.9605  -28.2169   15.3031 C   0  0  0  0  0  0  0  0  0  0  0  0
  -20.7494  -27.8481   16.3880 C   0  0  0  0  0  0  0  0  0  0  0  0
  -23.1932   -9.6851   20.1533 C   0  0  0  0  0  0  0  0  0  0  0  0
  -23.7757  -10.0816   22.4643 C   0  0  0  0  0  0  0  0  0  0  0  0
  -19.0591  -29.2735   15.4253 C   0  0  0  0  0  0  0  0  0  0  0  0
  -20.6383  -28.5366   17.5955 C   0  0  0  0  0  0  0  0  0  0  0  0
  -20.4777  -25.4331   21.5939 C   0  0  0  0  0  0  0  0  0  0  0  0
  -22.4659   -8.5562   20.5303 C   0  0  0  0  0  0  0  0  0  0  0  0
  -23.0483   -8.9527   22.8413 C   0  0  0  0  0  0  0  0  0  0  0  0
  -21.6859  -24.8869   22.0249 C   0  0  0  0  0  0  0  0  0  0  0  0
  -19.8078   -8.1293   23.3333 C   0  0  0  0  0  0  0  0  0  0  0  0
  -18.9653   -8.2426   24.4391 C   0  0  0  0  0  0  0  0  0  0  0  0
  -28.1900  -18.0738   22.5358 C   0  0  0  0  0  0  0  0  0  0  0  0
  -29.3876  -19.5534   21.0481 C   0  0  0  0  0  0  0  0  0  0  0  0
  -21.8004  -26.5392   23.7787 C   0  0  0  0  0  0  0  0  0  0  0  0
  -20.2021   -6.4960   25.5603 C   0  0  0  0  0  0  0  0  0  0  0  0
  -23.8482  -10.4478   21.1203 C   0  0  0  0  0  0  0  0  0  0  0  0
  -29.1182  -18.2661   21.5126 C   0  0  0  0  0  0  0  0  0  0  0  0
  -27.8003  -20.4563   22.6300 C   0  0  0  0  0  0  0  0  0  0  0  0
  -24.1256  -12.9347   20.6246 C   0  0  0  0  0  0  0  0  0  0  0  0
  -18.9300  -29.9691   16.6378 C   0  0  0  0  0  0  0  0  0  0  0  0
  -19.9263  -26.5451   22.2464 C   0  0  0  0  0  0  0  0  0  0  0  0
  -19.7353  -29.6045   17.7336 C   0  0  0  0  0  0  0  0  0  0  0  0
  -20.5838  -27.0961   23.3556 C   0  0  0  0  0  0  0  0  0  0  0  0
  -27.5310  -19.1690   23.0945 C   0  0  0  0  0  0  0  0  0  0  0  0
  -28.7286  -20.6486   21.6068 C   0  0  0  0  0  0  0  0  0  0  0  0
  -22.3934   -8.1900   21.8742 C   0  0  0  0  0  0  0  0  0  0  0  0
  -22.3489  -25.4417   23.1156 C   0  0  0  0  0  0  0  0  0  0  0  0
  -20.8474   -7.1993   23.3409 C   0  0  0  0  0  0  0  0  0  0  0  0
  -19.1624   -7.4260   25.5526 C   0  0  0  0  0  0  0  0  0  0  0  0
  -21.0446   -6.3827   24.4544 C   0  0  0  0  0  0  0  0  0  0  0  0
  -24.6002  -11.6137   20.7315 C   0  0  0  0  0  0  0  0  0  0  0  0
  -25.2203  -13.6616   20.2249 C   0  0  0  0  0  0  0  0  0  0  0  0
  -29.8055  -17.1245   20.9291 C   0  0  0  0  0  0  0  0  0  0  0  0
  -27.1029  -21.6127   23.2199 C   0  0  0  0  0  0  0  0  0  0  0  0
  -29.9375  -15.9112   21.5061 C   0  0  0  0  0  0  0  0  0  0  0  0
  -25.9506  -22.1214   22.7616 C   0  0  0  0  0  0  0  0  0  0  0  0
  -22.8126  -13.4580   20.8653 C   0  0  0  0  0  0  0  0  0  0  0  0
  -25.3293  -23.3037   23.4262 C   0  0  0  0  0  0  0  0  0  0  0  0
  -30.6598  -14.8434   20.7772 C   0  0  0  0  0  0  0  0  0  0  0  0
  -19.2118  -29.5217   21.3904 C   0  0  0  0  0  0  0  0  0  0  0  0
  -17.9255  -29.6539   24.3654 C   0  0  0  0  0  0  0  0  0  0  0  0
  -17.8669  -28.4367   27.5531 C   0  0  0  0  0  0  0  0  0  0  0  0
  -17.9758  -31.1350   16.7078 C   0  0  0  0  0  0  0  0  0  0  0  0
  -18.6089  -27.1059   21.7858 C   0  0  0  0  0  0  0  0  0  0  0  0
  -20.0237  -28.2775   24.1032 C   0  0  0  0  0  0  0  0  0  0  0  0
  -17.6504  -31.5711   18.1340 C   0  0  0  0  0  0  0  0  0  0  0  0
  -29.7513  -12.1693   18.5681 C   0  0  0  0  0  0  0  0  0  0  0  0
  -18.9252  -31.6713   18.9657 C   0  0  0  0  0  0  0  0  0  0  0  0
  -28.3030  -11.8696   18.9534 C   0  0  0  0  0  0  0  0  0  0  0  0
  -30.5753  -12.5925   19.7798 C   0  0  0  0  0  0  0  0  0  0  0  0
  -28.5470  -13.4582   20.9135 C   0  0  0  0  0  0  0  0  0  0  0  0
  -19.6259  -30.3110   19.0674 C   0  0  1  0  0  0  0  0  0  0  0  0
  -18.3977  -28.5573   22.2058 C   0  0  1  0  0  0  0  0  0  0  0  0
  -27.6768  -13.0541   19.7107 C   0  0  2  0  0  0  0  0  0  0  0  0
  -26.5430  -18.9215   24.1893 C   0  0  0  0  0  0  0  0  0  0  0  0
  -29.0444  -22.0127   21.0812 C   0  0  0  0  0  0  0  0  0  0  0  0
  -16.7370  -28.7707   29.7688 C   0  0  0  0  0  0  0  0  0  0  0  0
  -19.6208  -32.1438   24.8518 C   0  0  0  0  0  0  0  0  0  0  0  0
  -19.1938  -31.8704   27.3036 C   0  0  0  0  0  0  0  0  0  0  0  0
  -17.2889  -32.2784   25.7455 C   0  0  0  0  0  0  0  0  0  0  0  0
  -16.7623  -25.6911   27.5346 C   0  0  0  0  0  0  0  0  0  0  0  0
  -24.0296  -23.7858   22.8172 C   0  0  0  0  0  0  0  0  0  1  0  0
  -18.4375  -30.0262   25.7359 C   0  0  1  0  0  0  0  0  0  0  0  0
  -16.7165  -28.0149   28.4493 C   0  0  2  0  0  0  0  0  0  0  0  0
  -18.6470  -31.5586   25.8941 C   0  0  0  0  0  0  0  0  0  0  0  0
  -25.8955  -11.5047   20.4242 N   0  0  0  0  0  0  0  0  0  0  0  0
  -26.2441  -12.7665   20.1203 N   0  0  0  0  0  0  0  0  0  0  0  0
  -29.9348  -13.6939   20.4960 N   0  0  0  0  0  0  0  0  0  0  0  0
  -18.7361  -28.7941   23.6106 N   0  0  0  0  0  0  0  0  0  0  0  0
  -25.3974  -14.9726   19.9561 N   0  0  0  0  0  0  0  0  0  0  0  0
  -21.8045  -12.5728   21.2705 N   0  0  0  0  0  0  0  0  0  0  0  0
  -18.9550  -29.4680   20.0337 N   0  0  0  0  0  0  0  0  0  0  0  0
  -17.4992  -29.4494   26.6927 N   0  0  0  0  0  0  0  0  0  0  0  0
  -16.7961  -26.5558   28.7421 N   0  3  0  0  0  0  0  0  0  0  0  0
  -22.5375  -14.6719   20.7093 O   0  0  0  0  0  0  0  0  0  0  0  0
  -25.8403  -23.8469   24.4019 O   0  0  0  0  0  0  0  0  0  0  0  0
  -31.8261  -15.0905   20.4996 O   0  0  0  0  0  0  0  0  0  0  0  0
  -20.0125  -30.2610   21.9509 O   0  0  0  0  0  0  0  0  0  0  0  0
  -16.8429  -30.1035   23.9816 O   0  0  0  0  0  0  0  0  0  0  0  0
  -18.9814  -27.9220   27.6132 O   0  0  0  0  0  0  0  0  0  0  0  0
  -21.6835   -7.0886   22.2425 O   0  0  0  0  0  0  0  0  0  0  0  0
  -23.5286  -24.9109   23.5379 O   0  0  0  0  0  0  0  0  0  1  0  0
  -18.3543   -7.5360   26.6152 F   0  0  0  0  0  0  0  0  0  0  0  0
  -22.0423   -5.4883   24.4680 F   0  0  0  0  0  0  0  0  0  0  0  0
  1  2  1  0  0  0  0
  1  5  2  0  0  0  0
  2  6  2  0  0  0  0
  3  8  2  0  0  0  0
  3 17  1  0  0  0  0
  4  9  1  0  0  0  0
  4 17  2  0  0  0  0
  5 21  1  0  0  0  0
  6 23  1  0  0  0  0
  7 10  2  0  0  0  0
  7 22  1  0  0  0  0
  8 27  1  0  0  0  0
  9 27  2  0  0  0  0
 10 28  1  0  0  0  0
 11 12  2  0  0  0  0
 11 29  1  0  0  0  0
 12 30  1  0  0  0  0
 13 18  1  0  0  0  0
 13 25  2  0  0  0  0
 14 18  2  0  0  0  0
 14 26  1  0  0  0  0
 15 24  1  0  0  0  0
 15 28  2  0  0  0  0
 16 30  2  0  0  0  0
 16 31  1  0  0  0  0
 17 32  1  0  0  0  0
 18 34  1  0  0  0  0
 19 25  1  0  0  0  0
 19 26  2  0  0  0  0
 19 35  1  0  0  0  0
 20 32  1  0  0  0  0
 20 33  2  0  0  0  0
 20 38  1  0  0  0  0
 21 23  2  0  0  0  0
 21 44  1  0  0  0  0
 22 24  2  0  0  0  0
 22 45  1  0  0  0  0
 23 53  1  0  0  0  0
 24 46  1  0  0  0  0
 25 56  1  0  0  0  0
 26 57  1  0  0  0  0
 27 82  1  0  0  0  0
 28 83  1  0  0  0  0
 29 31  2  0  0  0  0
 29 82  1  0  0  0  0
 30 84  1  0  0  0  0
 31 85  1  0  0  0  0
 32 67  2  0  0  0  0
 33 68  1  0  0  0  0
 33 71  1  0  0  0  0
 34 36  2  0  0  0  0
 35 37  2  0  0  0  0
 36 40  1  0  0  0  0
 37 39  1  0  0  0  0
 38 72  1  0  0  0  0
 38 76  2  0  0  0  0
 39 63  1  0  0  0  0
 39 77  2  0  0  0  0
 40 69  1  0  0  0  0
 40 78  2  0  0  0  0
 41 54  1  0  0  0  0
 41 73  1  0  0  0  0
 41 79  2  0  0  0  0
 42 64  1  0  0  0  0
 42 70  1  0  0  0  0
 42 80  2  0  0  0  0
 43 65  1  0  0  0  0
 43 74  1  0  0  0  0
 43 81  2  0  0  0  0
 44 47  1  0  0  0  0
 45 54  1  0  0  0  0
 46 70  1  0  0  0  0
 47 49  1  0  0  0  0
 48 50  1  0  0  0  0
 48 51  1  0  0  0  0
 49 53  1  0  0  0  0
 50 55  1  0  0  0  0
 51 69  1  0  0  0  0
 52 55  1  0  0  0  0
 52 69  1  0  0  0  0
 53 73  1  0  0  0  0
 54 70  1  0  0  0  0
 55 68  1  0  0  0  0
 58 65  1  0  0  0  0
 59 66  1  0  0  0  0
 60 66  1  0  0  0  0
 61 66  1  0  0  0  0
 62 75  1  0  0  0  0
 63 83  1  0  0  0  0
 64 66  1  0  0  0  0
 64 74  1  0  0  0  0
 65 75  1  0  0  0  0
 67 68  1  0  0  0  0
M  CHG  1  75   1
M  ISO  4  36 100  40 100  63 101  83 101
M  END
> <Batch ID>
0122

> <Smiles>
CNC(C)C(=O)NC(C(=O)N1Cc2cc([101O:1][101CH2:1]C(=O)C=Cc3c(C)cc(C=[100CH:0][100C:0](=O)N4CCCC(n5nc(-c6ccc(Oc7ccc(F)cc7F)cc6)c(C(N)=O)c5N)C4)cc3C)ccc2CC1C(=O)NC1CCCc2ccccc21)C(C)(C)C

> <Shape>
0.254

> <Color>
0.197

> <Negative vol penalty>
0.000

$$$$

  -OEChem-04052302003D

 82 90  0     1  0  0  0  0  0999 V2000
  -16.5383  -29.4493   23.5291 C   0  0  0  0  0  0  0  0  0  0  0  0
  -17.3768  -29.6728   22.4417 C   0  0  0  0  0  0  0  0  0  0  0  0
  -26.7811  -13.7077   22.5106 C   0  0  0  0  0  0  0  0  0  0  0  0
  -26.2897  -13.2752   20.1849 C   0  0  0  0  0  0  0  0  0  0  0  0
  -17.0823  -29.1443   24.7761 C   0  0  0  0  0  0  0  0  0  0  0  0
  -18.7597  -29.5925   22.6009 C   0  0  0  0  0  0  0  0  0  0  0  0
  -24.6889  -27.7142   19.0465 C   0  0  0  0  0  0  0  0  0  0  0  0
  -25.5933  -13.0760   22.8790 C   0  0  0  0  0  0  0  0  0  0  0  0
  -25.1019  -12.6434   20.5534 C   0  0  0  0  0  0  0  0  0  0  0  0
  -25.9457  -28.2140   18.7082 C   0  0  0  0  0  0  0  0  0  0  0  0
  -24.1563   -9.6378   21.7751 C   0  0  0  0  0  0  0  0  0  0  0  0
  -23.8508   -8.4248   21.1581 C   0  0  0  0  0  0  0  0  0  0  0  0
  -26.7701  -27.6019   20.8911 C   0  0  0  0  0  0  0  0  0  0  0  0
  -33.2757  -25.7772   20.6569 C   0  0  0  0  0  0  0  0  0  0  0  0
  -21.8120   -9.3827   20.2846 C   0  0  0  0  0  0  0  0  0  0  0  0
  -27.1293  -13.8073   21.1635 C   0  0  0  0  0  0  0  0  0  0  0  0
  -29.6221  -13.8656   20.6251 C   0  0  0  0  0  0  0  0  0  0  0  0
  -18.4723  -29.0507   24.9486 C   0  0  0  0  0  0  0  0  0  0  0  0
  -24.4600  -27.1635   20.3157 C   0  0  0  0  0  0  0  0  0  0  0  0
  -19.3228  -29.2872   23.8517 C   0  0  0  0  0  0  0  0  0  0  0  0
  -25.5102  -27.0935   21.2421 C   0  0  0  0  0  0  0  0  0  0  0  0
  -33.2939  -24.4557   21.1633 C   0  0  0  0  0  0  0  0  0  0  0  0
  -24.7538  -12.5438   21.9004 C   0  0  0  0  0  0  0  0  0  0  0  0
  -26.9857  -28.1605   19.6315 C   0  0  0  0  0  0  0  0  0  0  0  0
  -23.2896  -10.7233   21.6470 C   0  0  0  0  0  0  0  0  0  0  0  0
  -22.6786   -8.2972   20.4128 C   0  0  0  0  0  0  0  0  0  0  0  0
  -22.1175  -10.5957   20.9018 C   0  0  0  0  0  0  0  0  0  0  0  0
  -28.3558  -14.4602   20.7822 C   0  0  0  0  0  0  0  0  0  0  0  0
  -32.0251  -25.9614   20.1148 C   0  0  0  0  0  0  0  0  0  0  0  0
  -32.0529  -23.9266   20.8948 C   0  0  0  0  0  0  0  0  0  0  0  0
  -30.4450  -14.9022   20.2576 C   0  0  0  0  0  0  0  0  0  0  0  0
  -31.5057  -27.1736   19.4601 C   0  0  0  0  0  0  0  0  0  0  0  0
  -31.5780  -22.6302   21.2056 C   0  0  0  0  0  0  0  0  0  0  0  0
  -30.3403  -22.1146   20.9089 C   0  0  0  0  0  0  0  0  0  0  0  0
  -30.5997  -27.1896   18.4699 C   0  0  0  0  0  0  0  0  0  0  0  0
  -30.0191  -12.4985   20.7959 C   0  0  0  0  0  0  0  0  0  0  0  0
  -29.9959  -20.7311   21.2939 C   0  0  0  0  0  0  0  0  0  0  0  0
  -22.5601  -27.8784   22.7617 C   0  0  0  0  0  0  0  0  0  0  0  0
  -23.7167  -25.0983   23.9681 C   0  0  0  0  0  0  0  0  0  0  0  0
  -26.2170  -22.7759   24.0093 C   0  0  0  0  0  0  0  0  0  0  0  0
  -19.0153  -28.7648   26.3263 C   0  0  0  0  0  0  0  0  0  0  0  0
  -23.1057  -26.6044   20.6557 C   0  0  0  0  0  0  0  0  0  0  0  0
  -25.3216  -26.4937   22.6108 C   0  0  0  0  0  0  0  0  0  0  0  0
  -20.4785  -28.3299   26.3261 C   0  0  0  0  0  0  0  0  0  0  0  0
  -30.4042  -19.1190   18.0280 C   0  0  0  0  0  0  0  0  0  0  0  0
  -21.3081  -29.2477   25.4338 C   0  0  0  0  0  0  0  0  0  0  0  0
  -29.9898  -17.6866   18.3537 C   0  0  0  0  0  0  0  0  0  0  0  0
  -29.6116  -20.1423   18.8400 C   0  0  0  0  0  0  0  0  0  0  0  0
  -29.2534  -18.4748   20.6377 C   0  0  0  0  0  0  0  0  0  0  0  0
  -20.8273  -29.1847   23.9790 C   0  0  1  0  0  0  0  0  0  0  0  0
  -22.8486  -26.5332   22.1578 C   0  0  1  0  0  0  0  0  0  0  0  0
  -30.0710  -17.4271   19.8664 C   0  0  1  0  0  0  0  0  0  0  0  0
  -34.4278  -23.7968   21.8408 C   0  0  0  0  0  0  0  0  0  0  0  0
  -26.8977  -20.6338   25.1252 C   0  0  0  0  0  0  0  0  0  0  0  0
  -24.4881  -26.6535   26.4773 C   0  0  0  0  0  0  0  0  0  0  0  0
  -25.9709  -24.7419   27.1218 C   0  0  0  0  0  0  0  0  0  0  0  0
  -23.5099  -24.3930   26.9106 C   0  0  0  0  0  0  0  0  0  0  0  0
  -26.2342  -21.3074   21.4398 C   0  0  0  0  0  0  0  0  0  0  0  0
  -30.1052  -28.4527   17.8196 C   0  0  0  0  0  0  0  0  0  0  0  0
  -28.5910  -28.5868   17.9293 C   0  0  0  0  0  0  0  0  0  1  0  0
  -24.8999  -24.7142   24.8233 C   0  0  1  0  0  0  0  0  0  0  0  0
  -26.1850  -21.2600   23.9366 C   0  0  2  0  0  0  0  0  0  0  0  0
  -24.7206  -25.1388   26.3082 C   0  0  0  0  0  0  0  0  0  0  0  0
  -28.3682  -15.7728   20.5350 N   0  0  0  0  0  0  0  0  0  0  0  0
  -29.6524  -16.0115   20.2188 N   0  0  0  0  0  0  0  0  0  0  0  0
  -29.6562  -19.8391   20.2783 N   0  0  0  0  0  0  0  0  0  0  0  0
  -23.9775  -25.9661   22.8982 N   0  0  0  0  0  0  0  0  0  0  0  0
  -31.7619  -14.9638   19.9672 N   0  0  0  0  0  0  0  0  0  0  0  0
  -29.0472  -11.5631   21.1760 N   0  0  0  0  0  0  0  0  0  0  0  0
  -21.3088  -27.9792   23.3392 N   0  0  0  0  0  0  0  0  0  0  0  0
  -25.0947  -23.2813   24.6308 N   0  0  0  0  0  0  0  0  0  0  0  0
  -26.8481  -20.7871   22.6886 N   0  3  0  0  0  0  0  0  0  0  0  0
  -31.2041  -12.1208   20.6327 O   0  0  0  0  0  0  0  0  0  0  0  0
  -30.0254  -20.4507   22.4936 O   0  0  0  0  0  0  0  0  0  0  0  0
  -23.4104  -28.7593   22.7090 O   0  0  0  0  0  0  0  0  0  0  0  0
  -22.6032  -24.6394   24.2351 O   0  0  0  0  0  0  0  0  0  0  0  0
  -27.1465  -23.4447   23.5628 O   0  0  0  0  0  0  0  0  0  0  0  0
  -31.2735  -24.8381   20.2558 O   0  0  0  0  0  0  0  0  0  0  0  0
  -23.5948  -11.9272   22.2596 O   0  0  0  0  0  0  0  0  0  0  0  0
  -28.2132  -28.6482   19.3041 O   0  0  0  0  0  0  0  0  0  1  0  0
  -22.3861   -7.1327   19.8190 F   0  0  0  0  0  0  0  0  0  0  0  0
  -21.2816  -11.6353   20.7741 F   0  0  0  0  0  0  0  0  0  0  0  0
  1  2  1  0  0  0  0
  1  5  2  0  0  0  0
  2  6  2  0  0  0  0
  3  8  2  0  0  0  0
  3 16  1  0  0  0  0
  4  9  1  0  0  0  0
  4 16  2  0  0  0  0
  5 18  1  0  0  0  0
  6 20  1  0  0  0  0
  7 10  2  0  0  0  0
  7 19  1  0  0  0  0
  8 23  1  0  0  0  0
  9 23  2  0  0  0  0
 10 24  1  0  0  0  0
 11 12  2  0  0  0  0
 11 25  1  0  0  0  0
 12 26  1  0  0  0  0
 13 21  1  0  0  0  0
 13 24  2  0  0  0  0
 14 22  1  0  0  0  0
 14 29  2  0  0  0  0
 15 26  2  0  0  0  0
 15 27  1  0  0  0  0
 16 28  1  0  0  0  0
 17 28  1  0  0  0  0
 17 31  2  0  0  0  0
 17 36  1  0  0  0  0
 18 20  2  0  0  0  0
 18 41  1  0  0  0  0
 19 21  2  0  0  0  0
 19 42  1  0  0  0  0
 20 50  1  0  0  0  0
 21 43  1  0  0  0  0
 22 30  2  0  0  0  0
 22 53  1  0  0  0  0
 23 79  1  0  0  0  0
 24 80  1  0  0  0  0
 25 27  2  0  0  0  0
 25 79  1  0  0  0  0
 26 81  1  0  0  0  0
 27 82  1  0  0  0  0
 28 64  2  0  0  0  0
 29 32  1  0  0  0  0
 29 78  1  0  0  0  0
 30 33  1  0  0  0  0
 30 78  1  0  0  0  0
 31 65  1  0  0  0  0
 31 68  1  0  0  0  0
 32 35  2  0  0  0  0
 33 34  2  0  0  0  0
 34 37  1  0  0  0  0
 35 59  1  0  0  0  0
 36 69  1  0  0  0  0
 36 73  2  0  0  0  0
 37 66  1  0  0  0  0
 37 74  2  0  0  0  0
 38 51  1  0  0  0  0
 38 70  1  0  0  0  0
 38 75  2  0  0  0  0
 39 61  1  0  0  0  0
 39 67  1  0  0  0  0
 39 76  2  0  0  0  0
 40 62  1  0  0  0  0
 40 71  1  0  0  0  0
 40 77  2  0  0  0  0
 41 44  1  0  0  0  0
 42 51  1  0  0  0  0
 43 67  1  0  0  0  0
 44 46  1  0  0  0  0
 45 47  1  0  0  0  0
 45 48  1  0  0  0  0
 46 50  1  0  0  0  0
 47 52  1  0  0  0  0
 48 66  1  0  0  0  0
 49 52  1  0  0  0  0
 49 66  1  0  0  0  0
 50 70  1  0  0  0  0
 51 67  1  0  0  0  0
 52 65  1  0  0  0  0
 54 62  1  0  0  0  0
 55 63  1  0  0  0  0
 56 63  1  0  0  0  0
 57 63  1  0  0  0  0
 58 72  1  0  0  0  0
 59 60  1  0  0  0  0
 60 80  1  0  0  0  0
 61 63  1  0  0  0  0
 61 71  1  0  0  0  0
 62 72  1  0  0  0  0
 64 65  1  0  0  0  0
M  CHG  1  72   1
M  ISO  4  34 100  37 100  60 101  80 101
M  END
> <Batch ID>
0122

> <Smiles>
CNC(C)C(=O)NC(C(=O)N1Cc2cc([101O:1][101CH2:1]CC=Cc3cc(C)c(C=[100CH:0][100C:0](=O)N4CCCC(n5nc(-c6ccc(Oc7ccc(F)cc7F)cc6)c(C(N)=O)c5N)C4)o3)ccc2CC1C(=O)NC1CCCc2ccccc21)C(C)(C)C

> <Shape>
0.232

> <Color>
0.095

> <Negative vol penalty>
0.000

$$$$

  -OEChem-04052302003D

 84 92  0     1  0  0  0  0  0999 V2000
  -29.9453  -11.3863   19.4776 C   0  0  0  0  0  0  0  0  0  0  0  0
  -29.3971  -11.9038   18.3084 C   0  0  0  0  0  0  0  0  0  0  0  0
  -26.2912  -31.5805   20.9914 C   0  0  0  0  0  0  0  0  0  0  0  0
  -27.5589  -30.2021   22.5178 C   0  0  0  0  0  0  0  0  0  0  0  0
  -19.3414  -19.4023   19.2472 C   0  0  0  0  0  0  0  0  0  0  0  0
  -29.7040  -12.0164   20.6977 C   0  0  0  0  0  0  0  0  0  0  0  0
  -28.6063  -13.0512   18.3588 C   0  0  0  0  0  0  0  0  0  0  0  0
  -26.9458  -18.8605   14.5102 C   0  0  0  0  0  0  0  0  0  0  0  0
  -19.2300  -18.4871   20.2939 C   0  0  0  0  0  0  0  0  0  0  0  0
  -26.5853  -32.7050   21.7625 C   0  0  0  0  0  0  0  0  0  0  0  0
  -27.8531  -31.3266   23.2889 C   0  0  0  0  0  0  0  0  0  0  0  0
  -25.8353  -19.5493   14.0243 C   0  0  0  0  0  0  0  0  0  0  0  0
  -25.4963  -34.1063   24.6391 C   0  0  0  0  0  0  0  0  0  0  0  0
  -24.4537  -34.9890   24.9205 C   0  0  0  0  0  0  0  0  0  0  0  0
  -25.5516  -20.5986   16.1778 C   0  0  0  0  0  0  0  0  0  0  0  0
  -21.4861  -19.0046   20.9865 C   0  0  0  0  0  0  0  0  0  0  0  0
  -25.6575  -36.7650   23.8098 C   0  0  0  0  0  0  0  0  0  0  0  0
  -26.7780  -30.3290   21.3690 C   0  0  0  0  0  0  0  0  0  0  0  0
  -20.5251  -20.1187   19.0701 C   0  0  0  0  0  0  0  0  0  0  0  0
  -27.2200  -28.6572   19.4936 C   0  0  0  0  0  0  0  0  0  0  0  0
  -28.9178  -13.1776   20.7618 C   0  0  0  0  0  0  0  0  0  0  0  0
  -27.3617  -19.0275   15.8389 C   0  0  0  0  0  0  0  0  0  0  0  0
  -28.3532  -13.6967   19.5811 C   0  0  0  0  0  0  0  0  0  0  0  0
  -26.6692  -19.9127   16.6774 C   0  0  0  0  0  0  0  0  0  0  0  0
  -20.3023  -18.2882   21.1635 C   0  0  0  0  0  0  0  0  0  0  0  0
  -21.5974  -19.9198   19.9398 C   0  0  0  0  0  0  0  0  0  0  0  0
  -27.3663  -32.5780   22.9112 C   0  0  0  0  0  0  0  0  0  0  0  0
  -25.1363  -20.4164   14.8590 C   0  0  0  0  0  0  0  0  0  0  0  0
  -26.6197  -34.5529   23.9431 C   0  0  0  0  0  0  0  0  0  0  0  0
  -24.5342  -36.3183   24.5058 C   0  0  0  0  0  0  0  0  0  0  0  0
  -26.7002  -35.8823   23.5284 C   0  0  0  0  0  0  0  0  0  0  0  0
  -26.4740  -29.1670   20.5732 C   0  0  0  0  0  0  0  0  0  0  0  0
  -26.5162  -27.5520   19.0815 C   0  0  0  0  0  0  0  0  0  0  0  0
  -20.6112  -21.0772   17.9557 C   0  0  0  0  0  0  0  0  0  0  0  0
  -20.4503  -20.7729   16.6583 C   0  0  0  0  0  0  0  0  0  0  0  0
  -28.4400  -29.1394   18.9151 C   0  0  0  0  0  0  0  0  0  0  0  0
  -27.6439  -17.1108   18.3589 C   0  0  0  0  0  0  0  0  0  0  0  0
  -28.9880  -19.7337   19.7137 C   0  0  0  0  0  0  0  0  0  0  0  0
  -29.3040  -23.1315   19.7588 C   0  0  0  0  0  0  0  0  0  0  0  0
  -23.8596  -22.9061   20.2239 C   0  0  0  0  0  0  0  0  0  0  0  0
  -28.6459  -13.7967   22.1099 C   0  0  0  0  0  0  0  0  0  0  0  0
  -28.5776  -18.2975   16.3400 C   0  0  0  0  0  0  0  0  0  0  0  0
  -27.0872  -20.1427   18.1060 C   0  0  0  0  0  0  0  0  0  0  0  0
  -28.1056  -15.2221   22.0278 C   0  0  0  0  0  0  0  0  0  0  0  0
  -21.8875  -25.9387   20.3321 C   0  0  0  0  0  0  0  0  0  0  0  0
  -26.9917  -15.3118   20.9895 C   0  0  0  0  0  0  0  0  0  0  0  0
  -22.9780  -27.0114   20.3149 C   0  0  0  0  0  0  0  0  0  0  0  0
  -22.3140  -24.7301   21.1602 C   0  0  0  0  0  0  0  0  0  0  0  0
  -24.6950  -25.1867   20.7175 C   0  0  0  0  0  0  0  0  0  0  0  0
  -27.5105  -14.9536   19.5916 C   0  0  1  0  0  0  0  0  0  0  0  0
  -28.6040  -18.1526   17.8585 C   0  0  1  0  0  0  0  0  0  0  0  0
  -24.3336  -26.4254   19.8778 C   0  0  2  0  0  0  0  0  0  0  0  0
  -20.1832  -17.3110   22.2837 C   0  0  0  0  0  0  0  0  0  0  0  0
  -30.4437  -24.9876   21.0052 C   0  0  0  0  0  0  0  0  0  0  0  0
  -26.9885  -19.4246   21.9976 C   0  0  0  0  0  0  0  0  0  0  0  0
  -27.5206  -21.7714   22.6885 C   0  0  0  0  0  0  0  0  0  0  0  0
  -29.3064  -20.0300   22.7153 C   0  0  0  0  0  0  0  0  0  0  0  0
  -30.7668  -24.0128   17.3416 C   0  0  0  0  0  0  0  0  0  0  0  0
  -22.8810  -20.6695   19.7801 C   0  0  0  0  0  0  0  0  0  0  0  0
  -20.5428  -21.7874   15.5538 C   0  0  0  0  0  0  0  0  0  0  0  0
  -21.6907  -21.4638   14.5993 C   0  0  0  0  0  0  0  0  0  0  0  0
  -23.0267  -21.4093   15.3274 C   0  0  0  0  0  0  0  0  0  1  0  0
  -28.4714  -20.9150   20.4991 C   0  0  1  0  0  0  0  0  0  0  0  0
  -30.5266  -24.0286   19.8278 C   0  0  2  0  0  0  0  0  0  0  0  0
  -28.0624  -20.5296   21.9488 C   0  0  0  0  0  0  0  0  0  0  0  0
  -25.3801  -28.4451   20.8306 N   0  0  0  0  0  0  0  0  0  0  0  0
  -25.4335  -27.4704   19.9069 N   0  0  0  0  0  0  0  0  0  0  0  0
  -28.2785  -19.4010   18.5511 N   0  0  0  0  0  0  0  0  0  0  0  0
  -23.6021  -24.2092   20.6812 N   0  0  0  0  0  0  0  0  0  0  0  0
  -26.7240  -26.6518   18.0972 N   0  0  0  0  0  0  0  0  0  0  0  0
  -29.0301  -30.2876   19.4608 N   0  0  0  0  0  0  0  0  0  0  0  0
  -28.2485  -16.0630   19.0268 N   0  0  0  0  0  0  0  0  0  0  0  0
  -29.5065  -21.9402   20.4227 N   0  0  0  0  0  0  0  0  0  0  0  0
  -22.7729  -22.0402   20.2277 N   0  0  0  0  0  0  0  0  0  0  0  0
  -30.6527  -24.8295   18.5773 N   0  3  0  0  0  0  0  0  0  0  0  0
  -28.9819  -28.5784   17.9327 O   0  0  0  0  0  0  0  0  0  0  0  0
  -26.4433  -17.2481   18.1554 O   0  0  0  0  0  0  0  0  0  0  0  0
  -29.9886  -19.1329   20.1132 O   0  0  0  0  0  0  0  0  0  0  0  0
  -28.2711  -23.4568   19.1774 O   0  0  0  0  0  0  0  0  0  0  0  0
  -24.9749  -22.5423   19.8354 O   0  0  0  0  0  0  0  0  0  0  0  0
  -27.6537  -33.6751   23.6638 O   0  0  0  0  0  0  0  0  0  0  0  0
  -24.0517  -21.0895   14.3875 O   0  0  0  0  0  0  0  0  0  1  0  0
  -23.5321  -37.1655   24.7748 F   0  0  0  0  0  0  0  0  0  0  0  0
  -27.7763  -36.3169   22.8584 F   0  0  0  0  0  0  0  0  0  0  0  0
  1  2  1  0  0  0  0
  1  6  2  0  0  0  0
  2  7  2  0  0  0  0
  3 10  2  0  0  0  0
  3 18  1  0  0  0  0
  4 11  1  0  0  0  0
  4 18  2  0  0  0  0
  5  9  2  0  0  0  0
  5 19  1  0  0  0  0
  6 21  1  0  0  0  0
  7 23  1  0  0  0  0
  8 12  2  0  0  0  0
  8 22  1  0  0  0  0
  9 25  1  0  0  0  0
 10 27  1  0  0  0  0
 11 27  2  0  0  0  0
 12 28  1  0  0  0  0
 13 14  2  0  0  0  0
 13 29  1  0  0  0  0
 14 30  1  0  0  0  0
 15 24  1  0  0  0  0
 15 28  2  0  0  0  0
 16 25  2  0  0  0  0
 16 26  1  0  0  0  0
 17 30  2  0  0  0  0
 17 31  1  0  0  0  0
 18 32  1  0  0  0  0
 19 26  2  0  0  0  0
 19 34  1  0  0  0  0
 20 32  1  0  0  0  0
 20 33  2  0  0  0  0
 20 36  1  0  0  0  0
 21 23  2  0  0  0  0
 21 41  1  0  0  0  0
 22 24  2  0  0  0  0
 22 42  1  0  0  0  0
 23 50  1  0  0  0  0
 24 43  1  0  0  0  0
 25 53  1  0  0  0  0
 26 59  1  0  0  0  0
 27 81  1  0  0  0  0
 28 82  1  0  0  0  0
 29 31  2  0  0  0  0
 29 81  1  0  0  0  0
 30 83  1  0  0  0  0
 31 84  1  0  0  0  0
 32 66  2  0  0  0  0
 33 67  1  0  0  0  0
 33 70  1  0  0  0  0
 34 35  2  0  0  0  0
 35 60  1  0  0  0  0
 36 71  1  0  0  0  0
 36 76  2  0  0  0  0
 37 51  1  0  0  0  0
 37 72  1  0  0  0  0
 37 77  2  0  0  0  0
 38 63  1  0  0  0  0
 38 68  1  0  0  0  0
 38 78  2  0  0  0  0
 39 64  1  0  0  0  0
 39 73  1  0  0  0  0
 39 79  2  0  0  0  0
 40 69  1  0  0  0  0
 40 74  1  0  0  0  0
 40 80  2  0  0  0  0
 41 44  1  0  0  0  0
 42 51  1  0  0  0  0
 43 68  1  0  0  0  0
 44 46  1  0  0  0  0
 45 47  1  0  0  0  0
 45 48  1  0  0  0  0
 46 50  1  0  0  0  0
 47 52  1  0  0  0  0
 48 69  1  0  0  0  0
 49 52  1  0  0  0  0
 49 69  1  0  0  0  0
 50 72  1  0  0  0  0
 51 68  1  0  0  0  0
 52 67  1  0  0  0  0
 54 64  1  0  0  0  0
 55 65  1  0  0  0  0
 56 65  1  0  0  0  0
 57 65  1  0  0  0  0
 58 75  1  0  0  0  0
 59 74  1  0  0  0  0
 60 61  1  0  0  0  0
 61 62  1  0  0  0  0
 62 82  1  0  0  0  0
 63 65  1  0  0  0  0
 63 73  1  0  0  0  0
 64 75  1  0  0  0  0
 66 67  1  0  0  0  0
M  CHG  1  75   1
M  ISO  4  40 100  62 101  74 100  82 101
M  END
> <Batch ID>
0122

> <Smiles>
CNC(C)C(=O)NC(C(=O)N1Cc2cc([101O:1][101CH2:1]CCC=Cc3ccc(C)cc3C[100NH:0][100C:0](=O)N3CCCC(n4nc(-c5ccc(Oc6ccc(F)cc6F)cc5)c(C(N)=O)c4N)C3)ccc2CC1C(=O)NC1CCCc2ccccc21)C(C)(C)C

> <Shape>
0.228

> <Color>
0.050

> <Negative vol penalty>
0.000

$$$$

  -OEChem-04052302003D

 84 92  0     1  0  0  0  0  0999 V2000
  -33.3835   -4.1490   38.4640 C   0  0  0  0  0  0  0  0  0  0  0  0
  -33.4664   -5.1650   37.5173 C   0  0  0  0  0  0  0  0  0  0  0  0
  -23.1900   -9.8197   19.9314 C   0  0  0  0  0  0  0  0  0  0  0  0
  -23.5687   -9.9995   22.3107 C   0  0  0  0  0  0  0  0  0  0  0  0
  -32.8100   -2.9249   38.1228 C   0  0  0  0  0  0  0  0  0  0  0  0
  -32.9767   -4.9570   36.2283 C   0  0  0  0  0  0  0  0  0  0  0  0
  -30.2467   -8.8704   34.5321 C   0  0  0  0  0  0  0  0  0  0  0  0
  -22.4239   -8.6729   20.1400 C   0  0  0  0  0  0  0  0  0  0  0  0
  -22.8026   -8.8527   22.5194 C   0  0  0  0  0  0  0  0  0  0  0  0
  -30.9478   -9.9866   34.0779 C   0  0  0  0  0  0  0  0  0  0  0  0
  -21.2458   -5.7684   23.6478 C   0  0  0  0  0  0  0  0  0  0  0  0
  -21.7424   -4.8085   24.5294 C   0  0  0  0  0  0  0  0  0  0  0  0
  -31.4592  -12.1944   26.4613 C   0  0  0  0  0  0  0  0  0  0  0  0
  -30.6279   -9.2537   31.8020 C   0  0  0  0  0  0  0  0  0  0  0  0
  -32.6569  -12.1079   23.9432 C   0  0  0  0  0  0  0  0  0  0  0  0
  -23.7008   -4.5450   23.1393 C   0  0  0  0  0  0  0  0  0  0  0  0
  -23.7624  -10.4830   21.0168 C   0  0  0  0  0  0  0  0  0  0  0  0
  -32.8019  -11.8366   26.3395 C   0  0  0  0  0  0  0  0  0  0  0  0
  -24.1008  -12.9998   20.7736 C   0  0  0  0  0  0  0  0  0  0  0  0
  -32.3044   -2.7051   36.8318 C   0  0  0  0  0  0  0  0  0  0  0  0
  -29.7395   -7.9302   33.6237 C   0  0  0  0  0  0  0  0  0  0  0  0
  -32.3972   -3.7283   35.8691 C   0  0  0  0  0  0  0  0  0  0  0  0
  -29.9185   -8.1278   32.2471 C   0  0  0  0  0  0  0  0  0  0  0  0
  -30.7153  -12.5089   25.3240 C   0  0  0  0  0  0  0  0  0  0  0  0
  -31.3142  -12.4657   24.0649 C   0  0  0  0  0  0  0  0  0  0  0  0
  -22.2302   -8.1894   21.4340 C   0  0  0  0  0  0  0  0  0  0  0  0
  -31.1410  -10.1769   32.7128 C   0  0  0  0  0  0  0  0  0  0  0  0
  -21.9766   -6.1167   22.5118 C   0  0  0  0  0  0  0  0  0  0  0  0
  -22.9700   -4.1968   24.2752 C   0  0  0  0  0  0  0  0  0  0  0  0
  -33.4007  -11.7934   25.0805 C   0  0  0  0  0  0  0  0  0  0  0  0
  -23.2041   -5.5050   22.2576 C   0  0  0  0  0  0  0  0  0  0  0  0
  -24.5544  -11.6674   20.8019 C   0  0  0  0  0  0  0  0  0  0  0  0
  -25.2318  -13.7426   20.5382 C   0  0  0  0  0  0  0  0  0  0  0  0
  -33.5827  -11.5055   27.5432 C   0  0  0  0  0  0  0  0  0  0  0  0
  -33.7818  -12.3256   28.5870 C   0  0  0  0  0  0  0  0  0  0  0  0
  -22.7755  -13.5195   20.9448 C   0  0  0  0  0  0  0  0  0  0  0  0
  -30.2370   -4.8375   33.0841 C   0  0  0  0  0  0  0  0  0  0  0  0
  -27.7930   -5.2098   30.9840 C   0  0  0  0  0  0  0  0  0  0  0  0
  -25.9759   -7.3047   28.9950 C   0  0  0  0  0  0  0  0  0  0  0  0
  -31.0366  -12.7825   21.5812 C   0  0  0  0  0  0  0  0  0  0  0  0
  -31.7361   -1.3490   36.4959 C   0  0  0  0  0  0  0  0  0  0  0  0
  -28.9623   -6.7455   34.1285 C   0  0  0  0  0  0  0  0  0  0  0  0
  -29.3764   -7.1585   31.2297 C   0  0  0  0  0  0  0  0  0  0  0  0
  -30.9020   -1.3378   35.2175 C   0  0  0  0  0  0  0  0  0  0  0  0
  -29.5234  -13.4647   18.4313 C   0  0  0  0  0  0  0  0  0  0  0  0
  -31.6288   -2.0781   34.0993 C   0  0  0  0  0  0  0  0  0  0  0  0
  -28.0354  -13.2083   18.6808 C   0  0  0  0  0  0  0  0  0  0  0  0
  -30.4048  -12.4796   19.1971 C   0  0  0  0  0  0  0  0  0  0  0  0
  -28.6454  -12.1375   20.8872 C   0  0  0  0  0  0  0  0  0  0  0  0
  -31.8548   -3.5494   34.4677 C   0  0  1  0  0  0  0  0  0  0  0  0
  -28.9342   -5.5840   33.1397 C   0  0  1  0  0  0  0  0  0  0  0  0
  -27.7193  -13.1460   20.1880 C   0  0  2  0  0  0  0  0  0  0  0  0
  -29.2787  -12.8888   25.4834 C   0  0  0  0  0  0  0  0  0  0  0  0
  -24.0651   -7.3119   27.3682 C   0  0  0  0  0  0  0  0  0  0  0  0
  -29.6093   -4.0043   28.8491 C   0  0  0  0  0  0  0  0  0  0  0  0
  -28.0441   -4.8987   27.1117 C   0  0  0  0  0  0  0  0  0  0  0  0
  -27.2373   -3.2160   28.7671 C   0  0  0  0  0  0  0  0  0  0  0  0
  -24.3858   -9.1350   30.6924 C   0  0  0  0  0  0  0  0  0  0  0  0
  -34.5839  -11.9419   29.7983 C   0  0  0  0  0  0  0  0  0  0  0  0
  -33.7509  -12.0578   31.0735 C   0  0  0  0  0  0  0  0  0  0  0  0
  -32.5514  -11.1207   31.0466 C   0  0  0  0  0  0  0  0  0  1  0  0
  -27.6841   -5.5859   29.5261 C   0  0  1  0  0  0  0  0  0  0  0  0
  -24.4782   -7.4822   28.8219 C   0  0  2  0  0  0  0  0  0  0  0  0
  -28.1557   -4.4437   28.5825 C   0  0  0  0  0  0  0  0  0  0  0  0
  -25.8709  -11.5665   20.6004 N   0  0  0  0  0  0  0  0  0  0  0  0
  -26.2543  -12.8449   20.4432 N   0  0  0  0  0  0  0  0  0  0  0  0
  -28.6290   -6.0124   31.7731 N   0  0  0  0  0  0  0  0  0  0  0  0
  -30.0514  -12.4777   20.6183 N   0  0  0  0  0  0  0  0  0  0  0  0
  -25.4416  -15.0695   20.4053 N   0  0  0  0  0  0  0  0  0  0  0  0
  -21.7290  -12.6170   21.1788 N   0  0  0  0  0  0  0  0  0  0  0  0
  -30.5761  -12.7818   22.8975 N   0  0  0  0  0  0  0  0  0  0  0  0
  -30.6334   -4.3066   34.2967 N   0  0  0  0  0  0  0  0  0  0  0  0
  -26.3024   -6.0037   29.3143 N   0  0  0  0  0  0  0  0  0  0  0  0
  -24.0620   -8.8403   29.2727 N   0  3  0  0  0  0  0  0  0  0  0  0
  -22.5242  -14.7465   20.8755 O   0  0  0  0  0  0  0  0  0  0  0  0
  -30.8374   -4.7484   32.0195 O   0  0  0  0  0  0  0  0  0  0  0  0
  -27.1540   -4.2438   31.4086 O   0  0  0  0  0  0  0  0  0  0  0  0
  -26.7763   -8.2271   28.8569 O   0  0  0  0  0  0  0  0  0  0  0  0
  -32.1966  -13.0528   21.2597 O   0  0  0  0  0  0  0  0  0  0  0  0
  -21.4824   -7.0705   21.6379 O   0  0  0  0  0  0  0  0  0  0  0  0
  -31.8256  -11.2651   32.2667 O   0  0  0  0  0  0  0  0  0  1  0  0
  -23.4476   -3.2760   25.1228 F   0  0  0  0  0  0  0  0  0  0  0  0
  -34.6905  -11.4507   24.9474 F   0  0  0  0  0  0  0  0  0  0  0  0
  -23.9113   -5.8363   21.1686 F   0  0  0  0  0  0  0  0  0  0  0  0
  1  2  1  0  0  0  0
  1  5  2  0  0  0  0
  2  6  2  0  0  0  0
  3  8  2  0  0  0  0
  3 17  1  0  0  0  0
  4  9  1  0  0  0  0
  4 17  2  0  0  0  0
  5 20  1  0  0  0  0
  6 22  1  0  0  0  0
  7 10  2  0  0  0  0
  7 21  1  0  0  0  0
  8 26  1  0  0  0  0
  9 26  2  0  0  0  0
 10 27  1  0  0  0  0
 11 12  2  0  0  0  0
 11 28  1  0  0  0  0
 12 29  1  0  0  0  0
 13 18  1  0  0  0  0
 13 24  2  0  0  0  0
 14 23  1  0  0  0  0
 14 27  2  0  0  0  0
 15 25  2  0  0  0  0
 15 30  1  0  0  0  0
 16 29  2  0  0  0  0
 16 31  1  0  0  0  0
 17 32  1  0  0  0  0
 18 30  2  0  0  0  0
 18 34  1  0  0  0  0
 19 32  1  0  0  0  0
 19 33  2  0  0  0  0
 19 36  1  0  0  0  0
 20 22  2  0  0  0  0
 20 41  1  0  0  0  0
 21 23  2  0  0  0  0
 21 42  1  0  0  0  0
 22 50  1  0  0  0  0
 23 43  1  0  0  0  0
 24 25  1  0  0  0  0
 24 53  1  0  0  0  0
 25 71  1  0  0  0  0
 26 80  1  0  0  0  0
 27 81  1  0  0  0  0
 28 31  2  0  0  0  0
 28 80  1  0  0  0  0
 29 82  1  0  0  0  0
 30 83  1  0  0  0  0
 31 84  1  0  0  0  0
 32 65  2  0  0  0  0
 33 66  1  0  0  0  0
 33 69  1  0  0  0  0
 34 35  2  0  0  0  0
 35 59  1  0  0  0  0
 36 70  1  0  0  0  0
 36 75  2  0  0  0  0
 37 51  1  0  0  0  0
 37 72  1  0  0  0  0
 37 76  2  0  0  0  0
 38 62  1  0  0  0  0
 38 67  1  0  0  0  0
 38 77  2  0  0  0  0
 39 63  1  0  0  0  0
 39 73  1  0  0  0  0
 39 78  2  0  0  0  0
 40 68  1  0  0  0  0
 40 71  1  0  0  0  0
 40 79  2  0  0  0  0
 41 44  1  0  0  0  0
 42 51  1  0  0  0  0
 43 67  1  0  0  0  0
 44 46  1  0  0  0  0
 45 47  1  0  0  0  0
 45 48  1  0  0  0  0
 46 50  1  0  0  0  0
 47 52  1  0  0  0  0
 48 68  1  0  0  0  0
 49 52  1  0  0  0  0
 49 68  1  0  0  0  0
 50 72  1  0  0  0  0
 51 67  1  0  0  0  0
 52 66  1  0  0  0  0
 54 63  1  0  0  0  0
 55 64  1  0  0  0  0
 56 64  1  0  0  0  0
 57 64  1  0  0  0  0
 58 74  1  0  0  0  0
 59 60  1  0  0  0  0
 60 61  1  0  0  0  0
 61 81  1  0  0  0  0
 62 64  1  0  0  0  0
 62 73  1  0  0  0  0
 63 74  1  0  0  0  0
 65 66  1  0  0  0  0
M  CHG  1  74   1
M  ISO  4  40 100  61 101  71 100  81 101
M  END
> <Batch ID>
0122

> <Smiles>
CNC(C)C(=O)NC(C(=O)N1Cc2cc([101O:1][101CH2:1]CCC=Cc3cc(C)c([100NH:0][100C:0](=O)N4CCCC(n5nc(-c6ccc(Oc7ccc(F)cc7F)cc6)c(C(N)=O)c5N)C4)cc3F)ccc2CC1C(=O)NC1CCCc2ccccc21)C(C)(C)C

> <Shape>
0.138

> <Color>
0.190

> <Negative vol penalty>
0.000

$$$$

  -OEChem-04052302003D

 84 92  0     1  0  0  0  0  0999 V2000
  -17.7360  -25.7402   22.4938 C   0  0  0  0  0  0  0  0  0  0  0  0
  -19.0527  -25.3709   22.2381 C   0  0  0  0  0  0  0  0  0  0  0  0
  -24.9707  -11.0564   23.2926 C   0  0  0  0  0  0  0  0  0  0  0  0
  -24.1853   -9.9122   21.3150 C   0  0  0  0  0  0  0  0  0  0  0  0
  -31.2087  -22.2789   15.6803 C   0  0  0  0  0  0  0  0  0  0  0  0
  -17.3424  -27.0684   22.3355 C   0  0  0  0  0  0  0  0  0  0  0  0
  -19.9763  -26.3295   21.8228 C   0  0  0  0  0  0  0  0  0  0  0  0
  -25.9384  -26.5396   23.2068 C   0  0  0  0  0  0  0  0  0  0  0  0
  -31.3762  -21.0408   15.0602 C   0  0  0  0  0  0  0  0  0  0  0  0
  -23.9519  -10.4649   24.0395 C   0  0  0  0  0  0  0  0  0  0  0  0
  -23.1665   -9.3206   22.0619 C   0  0  0  0  0  0  0  0  0  0  0  0
  -27.0777  -26.1393   22.5101 C   0  0  0  0  0  0  0  0  0  0  0  0
  -22.8401   -6.7455   24.2258 C   0  0  0  0  0  0  0  0  0  0  0  0
  -22.6094   -5.3826   24.0391 C   0  0  0  0  0  0  0  0  0  0  0  0
  -30.5796  -21.1669   17.7308 C   0  0  0  0  0  0  0  0  0  0  0  0
  -27.3710  -28.3946   21.7058 C   0  0  0  0  0  0  0  0  0  0  0  0
  -20.3482   -5.8618   23.3357 C   0  0  0  0  0  0  0  0  0  0  0  0
  -25.0873  -10.7801   21.9304 C   0  0  0  0  0  0  0  0  0  0  0  0
  -30.8104  -22.3420   17.0156 C   0  0  0  0  0  0  0  0  0  0  0  0
  -30.7471  -19.9287   17.1107 C   0  0  0  0  0  0  0  0  0  0  0  0
  -27.4342  -10.8860   20.9360 C   0  0  0  0  0  0  0  0  0  0  0  0
  -18.2640  -28.0455   21.9273 C   0  0  0  0  0  0  0  0  0  0  0  0
  -25.4999  -27.8703   23.1493 C   0  0  0  0  0  0  0  0  0  0  0  0
  -19.5944  -27.6717   21.6575 C   0  0  0  0  0  0  0  0  0  0  0  0
  -26.2273  -28.8098   22.4047 C   0  0  0  0  0  0  0  0  0  0  0  0
  -31.1454  -19.8657   15.7754 C   0  0  0  0  0  0  0  0  0  0  0  0
  -23.0499   -9.5970   23.4242 C   0  0  0  0  0  0  0  0  0  0  0  0
  -27.7926  -27.0661   21.7571 C   0  0  0  0  0  0  0  0  0  0  0  0
  -21.8249   -7.6666   23.9676 C   0  0  0  0  0  0  0  0  0  0  0  0
  -21.3635   -4.9408   23.5941 C   0  0  0  0  0  0  0  0  0  0  0  0
  -20.5790   -7.2247   23.5225 C   0  0  0  0  0  0  0  0  0  0  0  0
  -26.1392  -11.3913   21.1582 C   0  0  0  0  0  0  0  0  0  0  0  0
  -28.0411  -11.8320   20.1466 C   0  0  0  0  0  0  0  0  0  0  0  0
  -30.6337  -23.6507   17.6695 C   0  0  0  0  0  0  0  0  0  0  0  0
  -30.4981  -18.7188   17.8836 C   0  0  0  0  0  0  0  0  0  0  0  0
  -29.9110  -23.8555   18.7795 C   0  0  0  0  0  0  0  0  0  0  0  0
  -29.3199  -18.3800   18.4454 C   0  0  0  0  0  0  0  0  0  0  0  0
  -28.0348   -9.6701   21.4014 C   0  0  0  0  0  0  0  0  0  0  0  0
  -29.7866  -25.2249   19.3582 C   0  0  0  0  0  0  0  0  0  0  0  0
  -29.2234  -17.1101   19.1929 C   0  0  0  0  0  0  0  0  0  0  0  0
  -22.8685  -29.3223   22.1142 C   0  0  0  0  0  0  0  0  0  0  0  0
  -24.2768  -31.9442   23.4043 C   0  0  0  0  0  0  0  0  0  0  0  0
  -27.1503  -33.5037   24.3829 C   0  0  0  0  0  0  0  0  0  0  0  0
  -17.7806  -29.4596   21.7245 C   0  0  0  0  0  0  0  0  0  0  0  0
  -24.2841  -28.2920   23.9282 C   0  0  0  0  0  0  0  0  0  0  0  0
  -25.8099  -30.2548   22.3269 C   0  0  0  0  0  0  0  0  0  0  0  0
  -18.9099  -30.4835   21.6423 C   0  0  0  0  0  0  0  0  0  0  0  0
  -26.1389  -15.8103   17.7001 C   0  0  0  0  0  0  0  0  0  0  0  0
  -20.0113  -29.9898   20.7096 C   0  0  0  0  0  0  0  0  0  0  0  0
  -25.9509  -14.5191   18.4921 C   0  0  0  0  0  0  0  0  0  0  0  0
  -26.7605  -16.9172   18.5505 C   0  0  0  0  0  0  0  0  0  0  0  0
  -27.8521  -15.2270   19.9969 C   0  0  0  0  0  0  0  0  0  0  0  0
  -20.6315  -28.6871   21.2292 C   0  0  1  0  0  0  0  0  0  0  0  0
  -23.6362  -29.5612   23.3835 C   0  0  1  0  0  0  0  0  0  0  0  0
  -27.2715  -14.0854   19.1477 C   0  0  1  0  0  0  0  0  0  0  0  0
  -31.3338  -18.5567   15.0782 C   0  0  0  0  0  0  0  0  0  0  0  0
  -27.9873  -35.6557   25.3657 C   0  0  0  0  0  0  0  0  0  0  0  0
  -23.8989  -33.3201   20.7073 C   0  0  0  0  0  0  0  0  0  0  0  0
  -25.5572  -35.0487   21.4353 C   0  0  0  0  0  0  0  0  0  0  0  0
  -23.4209  -34.7652   22.6916 C   0  0  0  0  0  0  0  0  0  0  0  0
  -28.2553  -32.1246   26.7570 C   0  0  0  0  0  0  0  0  0  0  0  0
  -28.9445  -25.3288   20.6123 C   0  0  0  0  0  0  0  0  0  1  0  0
  -25.2245  -33.0058   22.9005 C   0  0  1  0  0  0  0  0  0  0  0  0
  -27.5115  -34.2414   25.6595 C   0  0  2  0  0  0  0  0  0  0  0  0
  -24.5324  -34.0074   21.9333 C   0  0  0  0  0  0  0  0  0  0  0  0
  -25.9346  -12.5671   20.5586 N   0  0  0  0  0  0  0  0  0  0  0  0
  -27.1091  -12.8086   19.9518 N   0  0  0  0  0  0  0  0  0  0  0  0
  -27.9908  -16.4599   19.2137 N   0  0  0  0  0  0  0  0  0  0  0  0
  -24.6109  -30.6168   23.1008 N   0  0  0  0  0  0  0  0  0  0  0  0
  -29.2758  -11.9155   19.6071 N   0  0  0  0  0  0  0  0  0  0  0  0
  -27.2702   -8.8114   22.2029 N   0  0  0  0  0  0  0  0  0  0  0  0
  -21.5495  -28.9619   22.3138 N   0  0  0  0  0  0  0  0  0  0  0  0
  -25.8097  -33.6258   24.0843 N   0  0  0  0  0  0  0  0  0  0  0  0
  -28.5965  -33.5216   26.3845 N   0  3  0  0  0  0  0  0  0  0  0  0
  -29.2199   -9.3624   21.1287 O   0  0  0  0  0  0  0  0  0  0  0  0
  -30.3321  -26.2003   18.8492 O   0  0  0  0  0  0  0  0  0  0  0  0
  -30.2406  -16.7044   19.7582 O   0  0  0  0  0  0  0  0  0  0  0  0
  -23.4308  -29.4565   21.0337 O   0  0  0  0  0  0  0  0  0  0  0  0
  -23.2806  -32.2799   24.0498 O   0  0  0  0  0  0  0  0  0  0  0  0
  -27.9756  -32.8844   23.7152 O   0  0  0  0  0  0  0  0  0  0  0  0
  -22.0558   -9.0194   24.1527 O   0  0  0  0  0  0  0  0  0  0  0  0
  -28.9046  -26.6779   21.0756 O   0  0  0  0  0  0  0  0  0  1  0  0
  -21.1425   -3.6321   23.4133 F   0  0  0  0  0  0  0  0  0  0  0  0
  -19.6002   -8.1049   23.2716 F   0  0  0  0  0  0  0  0  0  0  0  0
  1  2  1  0  0  0  0
  1  6  2  0  0  0  0
  2  7  2  0  0  0  0
  3 10  2  0  0  0  0
  3 18  1  0  0  0  0
  4 11  1  0  0  0  0
  4 18  2  0  0  0  0
  5  9  2  0  0  0  0
  5 19  1  0  0  0  0
  6 22  1  0  0  0  0
  7 24  1  0  0  0  0
  8 12  2  0  0  0  0
  8 23  1  0  0  0  0
  9 26  1  0  0  0  0
 10 27  1  0  0  0  0
 11 27  2  0  0  0  0
 12 28  1  0  0  0  0
 13 14  2  0  0  0  0
 13 29  1  0  0  0  0
 14 30  1  0  0  0  0
 15 19  2  0  0  0  0
 15 20  1  0  0  0  0
 16 25  1  0  0  0  0
 16 28  2  0  0  0  0
 17 30  2  0  0  0  0
 17 31  1  0  0  0  0
 18 32  1  0  0  0  0
 19 34  1  0  0  0  0
 20 26  2  0  0  0  0
 20 35  1  0  0  0  0
 21 32  1  0  0  0  0
 21 33  2  0  0  0  0
 21 38  1  0  0  0  0
 22 24  2  0  0  0  0
 22 44  1  0  0  0  0
 23 25  2  0  0  0  0
 23 45  1  0  0  0  0
 24 53  1  0  0  0  0
 25 46  1  0  0  0  0
 26 56  1  0  0  0  0
 27 81  1  0  0  0  0
 28 82  1  0  0  0  0
 29 31  2  0  0  0  0
 29 81  1  0  0  0  0
 30 83  1  0  0  0  0
 31 84  1  0  0  0  0
 32 66  2  0  0  0  0
 33 67  1  0  0  0  0
 33 70  1  0  0  0  0
 34 36  2  0  0  0  0
 35 37  2  0  0  0  0
 36 39  1  0  0  0  0
 37 40  1  0  0  0  0
 38 71  1  0  0  0  0
 38 75  2  0  0  0  0
 39 62  1  0  0  0  0
 39 76  2  0  0  0  0
 40 68  1  0  0  0  0
 40 77  2  0  0  0  0
 41 54  1  0  0  0  0
 41 72  1  0  0  0  0
 41 78  2  0  0  0  0
 42 63  1  0  0  0  0
 42 69  1  0  0  0  0
 42 79  2  0  0  0  0
 43 64  1  0  0  0  0
 43 73  1  0  0  0  0
 43 80  2  0  0  0  0
 44 47  1  0  0  0  0
 45 54  1  0  0  0  0
 46 69  1  0  0  0  0
 47 49  1  0  0  0  0
 48 50  1  0  0  0  0
 48 51  1  0  0  0  0
 49 53  1  0  0  0  0
 50 55  1  0  0  0  0
 51 68  1  0  0  0  0
 52 55  1  0  0  0  0
 52 68  1  0  0  0  0
 53 72  1  0  0  0  0
 54 69  1  0  0  0  0
 55 67  1  0  0  0  0
 57 64  1  0  0  0  0
 58 65  1  0  0  0  0
 59 65  1  0  0  0  0
 60 65  1  0  0  0  0
 61 74  1  0  0  0  0
 62 82  1  0  0  0  0
 63 65  1  0  0  0  0
 63 73  1  0  0  0  0
 64 74  1  0  0  0  0
 66 67  1  0  0  0  0
M  CHG  1  74   1
M  ISO  4  37 100  40 100  62 101  82 101
M  END
> <Batch ID>
0122

> <Smiles>
CNC(C)C(=O)NC(C(=O)N1Cc2cc([101O:1][101CH2:1]C(=O)C=Cc3ccc(C)c(C=[100CH:0][100C:0](=O)N4CCCC(n5nc(-c6ccc(Oc7ccc(F)cc7F)cc6)c(C(N)=O)c5N)C4)c3)ccc2CC1C(=O)NC1CCCc2ccccc21)C(C)(C)C

> <Shape>
0.290

> <Color>
0.091

> <Negative vol penalty>
0.000

$$$$

  -OEChem-04052302003D

 82 90  0     1  0  0  0  0  0999 V2000
  -28.0727  -38.3616   24.5955 C   0  0  0  0  0  0  0  0  0  0  0  0
  -28.6891  -37.2320   24.0668 C   0  0  0  0  0  0  0  0  0  0  0  0
  -22.3480   -8.9918   20.7233 C   0  0  0  0  0  0  0  0  0  0  0  0
  -23.6111   -8.3181   22.6695 C   0  0  0  0  0  0  0  0  0  0  0  0
  -26.9260  -38.2271   25.3770 C   0  0  0  0  0  0  0  0  0  0  0  0
  -28.1597  -35.9671   24.3203 C   0  0  0  0  0  0  0  0  0  0  0  0
  -28.1314  -31.1601   20.5259 C   0  0  0  0  0  0  0  0  0  0  0  0
  -22.0648   -7.6549   20.4443 C   0  0  0  0  0  0  0  0  0  0  0  0
  -23.3279   -6.9811   22.3905 C   0  0  0  0  0  0  0  0  0  0  0  0
  -28.9537  -30.0386   20.4266 C   0  0  0  0  0  0  0  0  0  0  0  0
  -22.6360   -3.4118   22.3941 C   0  0  0  0  0  0  0  0  0  0  0  0
  -22.2390   -2.5973   23.4545 C   0  0  0  0  0  0  0  0  0  0  0  0
  -27.9688  -21.1463   19.9391 C   0  0  0  0  0  0  0  0  0  0  0  0
  -27.3794  -28.7748   21.7471 C   0  0  0  0  0  0  0  0  0  0  0  0
  -20.3363   -4.0339   23.8456 C   0  0  0  0  0  0  0  0  0  0  0  0
  -29.7734  -20.7006   18.7057 C   0  0  0  0  0  0  0  0  0  0  0  0
  -23.1212   -9.3234   21.8360 C   0  0  0  0  0  0  0  0  0  0  0  0
  -29.1401  -21.7154   19.3847 C   0  0  0  0  0  0  0  0  0  0  0  0
  -22.6586  -11.5857   22.9204 C   0  0  0  0  0  0  0  0  0  0  0  0
  -26.3766  -36.9607   25.6321 C   0  0  0  0  0  0  0  0  0  0  0  0
  -26.9302  -31.1003   21.2469 C   0  0  0  0  0  0  0  0  0  0  0  0
  -27.0052  -35.8155   25.1070 C   0  0  0  0  0  0  0  0  0  0  0  0
  -26.5424  -29.8962   21.8518 C   0  0  0  0  0  0  0  0  0  0  0  0
  -22.5547   -6.6495   21.2778 C   0  0  0  0  0  0  0  0  0  0  0  0
  -28.5792  -28.8465   21.0397 C   0  0  0  0  0  0  0  0  0  0  0  0
  -21.8832   -4.5375   22.0595 C   0  0  0  0  0  0  0  0  0  0  0  0
  -21.0891   -2.9083   24.1802 C   0  0  0  0  0  0  0  0  0  0  0  0
  -20.7334   -4.8485   22.7853 C   0  0  0  0  0  0  0  0  0  0  0  0
  -23.4146  -10.7043   22.1244 C   0  0  0  0  0  0  0  0  0  0  0  0
  -27.9697  -19.8243   19.5591 C   0  0  0  0  0  0  0  0  0  0  0  0
  -23.3551  -12.7688   22.8790 C   0  0  0  0  0  0  0  0  0  0  0  0
  -29.6182  -23.1054   19.4886 C   0  0  0  0  0  0  0  0  0  0  0  0
  -27.0026  -18.8413   19.8721 C   0  0  0  0  0  0  0  0  0  0  0  0
  -28.9842  -24.0806   20.1546 C   0  0  0  0  0  0  0  0  0  0  0  0
  -27.0247  -17.5176   19.5045 C   0  0  0  0  0  0  0  0  0  0  0  0
  -21.4363  -11.3555   23.6335 C   0  0  0  0  0  0  0  0  0  0  0  0
  -29.5484  -25.4611   20.1910 C   0  0  0  0  0  0  0  0  0  0  0  0
  -25.9383  -16.6080   19.9205 C   0  0  0  0  0  0  0  0  0  0  0  0
  -25.7797  -32.5778   23.8153 C   0  0  0  0  0  0  0  0  0  0  0  0
  -23.0709  -30.9663   23.0486 C   0  0  0  0  0  0  0  0  0  0  0  0
  -21.6331  -28.2958   21.4840 C   0  0  0  0  0  0  0  0  0  0  0  0
  -25.1628  -36.8618   26.5218 C   0  0  0  0  0  0  0  0  0  0  0  0
  -26.0413  -32.3114   21.3221 C   0  0  0  0  0  0  0  0  0  0  0  0
  -25.2528  -29.7741   22.6203 C   0  0  0  0  0  0  0  0  0  0  0  0
  -24.4505  -35.5146   26.4327 C   0  0  0  0  0  0  0  0  0  0  0  0
  -27.9767  -13.8259   21.1603 C   0  0  0  0  0  0  0  0  0  0  0  0
  -25.4580  -34.3719   26.5098 C   0  0  0  0  0  0  0  0  0  0  0  0
  -26.8962  -12.8179   21.5429 C   0  0  0  0  0  0  0  0  0  0  0  0
  -27.5800  -14.6532   19.9386 C   0  0  0  0  0  0  0  0  0  0  0  0
  -25.1808  -14.3273   20.4662 C   0  0  0  0  0  0  0  0  0  0  0  0
  -26.4468  -34.4283   25.3391 C   0  0  1  0  0  0  0  0  0  0  0  0
  -25.0897  -32.2810   22.5140 C   0  0  1  0  0  0  0  0  0  0  0  0
  -25.5389  -13.5164   21.7214 C   0  0  1  0  0  0  0  0  0  0  0  0
  -19.4024  -27.2259   21.0634 C   0  0  0  0  0  0  0  0  0  0  0  0
  -23.0481  -29.8961   25.9059 C   0  0  0  0  0  0  0  0  0  0  0  0
  -21.4152  -28.1491   25.1644 C   0  0  0  0  0  0  0  0  0  0  0  0
  -20.8051  -30.5638   25.0240 C   0  0  0  0  0  0  0  0  0  0  0  0
  -21.9033  -28.6133   18.5540 C   0  0  0  0  0  0  0  0  0  0  0  0
  -28.7418  -26.4748   20.9748 C   0  0  0  0  0  0  0  0  0  1  0  0
  -22.4947  -29.6159   23.3996 C   0  0  1  0  0  0  0  0  0  0  0  0
  -20.4474  -28.1995   20.5409 C   0  0  2  0  0  0  0  0  0  0  0  0
  -21.9661  -29.5587   24.8607 C   0  0  0  0  0  0  0  0  0  0  0  0
  -24.5074  -11.2785   21.6146 N   0  0  0  0  0  0  0  0  0  0  0  0
  -24.4432  -12.5334   22.0912 N   0  0  0  0  0  0  0  0  0  0  0  0
  -26.2528  -15.2634   20.1095 N   0  0  0  0  0  0  0  0  0  0  0  0
  -24.4209  -30.9878   22.6706 N   0  0  0  0  0  0  0  0  0  0  0  0
  -23.1366  -13.9771   23.4400 N   0  0  0  0  0  0  0  0  0  0  0  0
  -20.8548  -10.0818   23.5690 N   0  0  0  0  0  0  0  0  0  0  0  0
  -25.8300  -33.9220   24.1317 N   0  0  0  0  0  0  0  0  0  0  0  0
  -21.4848  -29.3272   22.3871 N   0  0  0  0  0  0  0  0  0  0  0  0
  -20.8916  -27.7353   19.1962 N   0  3  0  0  0  0  0  0  0  0  0  0
  -20.8675  -12.2572   24.2945 O   0  0  0  0  0  0  0  0  0  0  0  0
  -30.5973  -25.7524   19.6225 O   0  0  0  0  0  0  0  0  0  0  0  0
  -24.8159  -17.0941   20.0708 O   0  0  0  0  0  0  0  0  0  0  0  0
  -26.2317  -31.6555   24.4837 O   0  0  0  0  0  0  0  0  0  0  0  0
  -22.3479  -31.9644   23.1007 O   0  0  0  0  0  0  0  0  0  0  0  0
  -22.5928  -27.5302   21.4279 O   0  0  0  0  0  0  0  0  0  0  0  0
  -29.0663  -19.5446   18.8070 O   0  0  0  0  0  0  0  0  0  0  0  0
  -22.2783   -5.3448   21.0060 O   0  0  0  0  0  0  0  0  0  0  0  0
  -29.3803  -27.7506   20.9449 O   0  0  0  0  0  0  0  0  0  1  0  0
  -20.7071   -2.1251   25.1975 F   0  0  0  0  0  0  0  0  0  0  0  0
  -20.0055   -5.9279   22.4677 F   0  0  0  0  0  0  0  0  0  0  0  0
  1  2  1  0  0  0  0
  1  5  2  0  0  0  0
  2  6  2  0  0  0  0
  3  8  2  0  0  0  0
  3 17  1  0  0  0  0
  4  9  1  0  0  0  0
  4 17  2  0  0  0  0
  5 20  1  0  0  0  0
  6 22  1  0  0  0  0
  7 10  2  0  0  0  0
  7 21  1  0  0  0  0
  8 24  1  0  0  0  0
  9 24  2  0  0  0  0
 10 25  1  0  0  0  0
 11 12  2  0  0  0  0
 11 26  1  0  0  0  0
 12 27  1  0  0  0  0
 13 18  1  0  0  0  0
 13 30  2  0  0  0  0
 14 23  1  0  0  0  0
 14 25  2  0  0  0  0
 15 27  2  0  0  0  0
 15 28  1  0  0  0  0
 16 18  2  0  0  0  0
 16 78  1  0  0  0  0
 17 29  1  0  0  0  0
 18 32  1  0  0  0  0
 19 29  1  0  0  0  0
 19 31  2  0  0  0  0
 19 36  1  0  0  0  0
 20 22  2  0  0  0  0
 20 42  1  0  0  0  0
 21 23  2  0  0  0  0
 21 43  1  0  0  0  0
 22 51  1  0  0  0  0
 23 44  1  0  0  0  0
 24 79  1  0  0  0  0
 25 80  1  0  0  0  0
 26 28  2  0  0  0  0
 26 79  1  0  0  0  0
 27 81  1  0  0  0  0
 28 82  1  0  0  0  0
 29 63  2  0  0  0  0
 30 33  1  0  0  0  0
 30 78  1  0  0  0  0
 31 64  1  0  0  0  0
 31 67  1  0  0  0  0
 32 34  2  0  0  0  0
 33 35  2  0  0  0  0
 34 37  1  0  0  0  0
 35 38  1  0  0  0  0
 36 68  1  0  0  0  0
 36 72  2  0  0  0  0
 37 59  1  0  0  0  0
 37 73  2  0  0  0  0
 38 65  1  0  0  0  0
 38 74  2  0  0  0  0
 39 52  1  0  0  0  0
 39 69  1  0  0  0  0
 39 75  2  0  0  0  0
 40 60  1  0  0  0  0
 40 66  1  0  0  0  0
 40 76  2  0  0  0  0
 41 61  1  0  0  0  0
 41 70  1  0  0  0  0
 41 77  2  0  0  0  0
 42 45  1  0  0  0  0
 43 52  1  0  0  0  0
 44 66  1  0  0  0  0
 45 47  1  0  0  0  0
 46 48  1  0  0  0  0
 46 49  1  0  0  0  0
 47 51  1  0  0  0  0
 48 53  1  0  0  0  0
 49 65  1  0  0  0  0
 50 53  1  0  0  0  0
 50 65  1  0  0  0  0
 51 69  1  0  0  0  0
 52 66  1  0  0  0  0
 53 64  1  0  0  0  0
 54 61  1  0  0  0  0
 55 62  1  0  0  0  0
 56 62  1  0  0  0  0
 57 62  1  0  0  0  0
 58 71  1  0  0  0  0
 59 80  1  0  0  0  0
 60 62  1  0  0  0  0
 60 70  1  0  0  0  0
 61 71  1  0  0  0  0
 63 64  1  0  0  0  0
M  CHG  1  71   1
M  ISO  4  35 100  38 100  59 101  80 101
M  END
> <Batch ID>
0122

> <Smiles>
CNC(C)C(=O)NC(C(=O)N1Cc2cc([101O:1][101CH2:1]C(=O)C=Cc3coc(C=[100CH:0][100C:0](=O)N4CCCC(n5nc(-c6ccc(Oc7ccc(F)cc7F)cc6)c(C(N)=O)c5N)C4)c3)ccc2CC1C(=O)NC1CCCc2ccccc21)C(C)(C)C

> <Shape>
0.329

> <Color>
0.068

> <Negative vol penalty>
0.000

$$$$

  -OEChem-04052302003D

 85 93  0     1  0  0  0  0  0999 V2000
  -23.8209  -28.0479   17.7573 C   0  0  0  0  0  0  0  0  0  0  0  0
  -24.0247  -27.3144   18.9217 C   0  0  0  0  0  0  0  0  0  0  0  0
  -23.0969   -9.8101   19.9325 C   0  0  0  0  0  0  0  0  0  0  0  0
  -23.8087   -9.8633   22.2407 C   0  0  0  0  0  0  0  0  0  0  0  0
  -23.3899  -29.3716   17.8351 C   0  0  0  0  0  0  0  0  0  0  0  0
  -23.7985  -27.9045   20.1647 C   0  0  0  0  0  0  0  0  0  0  0  0
  -21.2262  -24.8828   23.3107 C   0  0  0  0  0  0  0  0  0  0  0  0
  -22.3755   -8.6426   20.1819 C   0  0  0  0  0  0  0  0  0  0  0  0
  -23.0873   -8.6959   22.4901 C   0  0  0  0  0  0  0  0  0  0  0  0
  -21.9381  -23.8590   23.9343 C   0  0  0  0  0  0  0  0  0  0  0  0
  -23.4682   -5.3752   21.9811 C   0  0  0  0  0  0  0  0  0  0  0  0
  -24.0928   -4.3738   22.7245 C   0  0  0  0  0  0  0  0  0  0  0  0
  -29.6512  -17.5993   23.1719 C   0  0  0  0  0  0  0  0  0  0  0  0
  -31.5806  -18.5598   24.2636 C   0  0  0  0  0  0  0  0  0  0  0  0
  -22.0929  -25.1948   25.9370 C   0  0  0  0  0  0  0  0  0  0  0  0
  -31.8661  -16.7952   22.6383 C   0  0  0  0  0  0  0  0  0  0  0  0
  -22.3527   -4.5275   24.3936 C   0  0  0  0  0  0  0  0  0  0  0  0
  -23.8136  -10.4204   20.9619 C   0  0  0  0  0  0  0  0  0  0  0  0
  -30.1991  -18.5076   24.0776 C   0  0  0  0  0  0  0  0  0  0  0  0
  -24.0980  -12.9514   20.8168 C   0  0  0  0  0  0  0  0  0  0  0  0
  -23.1490  -29.9752   19.0794 C   0  0  0  0  0  0  0  0  0  0  0  0
  -20.9513  -26.0766   23.9931 C   0  0  0  0  0  0  0  0  0  0  0  0
  -23.3651  -29.2379   20.2593 C   0  0  0  0  0  0  0  0  0  0  0  0
  -21.3752  -26.2312   25.3207 C   0  0  0  0  0  0  0  0  0  0  0  0
  -30.4847  -16.7430   22.4523 C   0  0  0  0  0  0  0  0  0  0  0  0
  -22.3707   -8.0855   21.4607 C   0  0  0  0  0  0  0  0  0  0  0  0
  -22.3741  -24.0161   25.2467 C   0  0  0  0  0  0  0  0  0  0  0  0
  -22.2859   -5.9529   22.4440 C   0  0  0  0  0  0  0  0  0  0  0  0
  -23.5350   -3.9499   23.9307 C   0  0  0  0  0  0  0  0  0  0  0  0
  -32.4141  -17.7036   23.5439 C   0  0  0  0  0  0  0  0  0  0  0  0
  -21.7282   -5.5290   23.6502 C   0  0  0  0  0  0  0  0  0  0  0  0
  -24.5595  -11.6261   20.7048 C   0  0  0  0  0  0  0  0  0  0  0  0
  -25.1794  -13.7222   20.4664 C   0  0  0  0  0  0  0  0  0  0  0  0
  -29.3199  -19.4107   24.8379 C   0  0  0  0  0  0  0  0  0  0  0  0
  -28.0077  -19.2185   25.0445 C   0  0  0  0  0  0  0  0  0  0  0  0
  -22.8073  -13.4418   21.2031 C   0  0  0  0  0  0  0  0  0  0  0  0
  -21.7102  -29.1330   23.5613 C   0  0  0  0  0  0  0  0  0  0  0  0
  -25.0709  -21.6547   25.7901 C   0  0  0  0  0  0  0  0  0  0  0  0
  -19.6885  -29.5839   26.0575 C   0  0  0  0  0  0  0  0  0  0  0  0
  -18.1661  -28.2881   28.8234 C   0  0  0  0  0  0  0  0  0  0  0  0
  -30.6146  -14.9003   20.7394 C   0  0  0  0  0  0  0  0  0  0  0  0
  -22.7293  -31.4234   19.1146 C   0  0  0  0  0  0  0  0  0  0  0  0
  -20.1592  -27.1608   23.3152 C   0  0  0  0  0  0  0  0  0  0  0  0
  -21.0882  -27.4853   26.1038 C   0  0  0  0  0  0  0  0  0  0  0  0
  -22.1525  -31.8579   20.4595 C   0  0  0  0  0  0  0  0  0  0  0  0
  -29.6069  -12.4317   18.3798 C   0  0  0  0  0  0  0  0  0  0  0  0
  -23.0352  -31.3669   21.6026 C   0  0  0  0  0  0  0  0  0  0  0  0
  -28.1660  -12.1111   18.7835 C   0  0  0  0  0  0  0  0  0  0  0  0
  -30.4912  -12.6971   19.5969 C   0  0  0  0  0  0  0  0  0  0  0  0
  -28.5395  -13.3926   20.9296 C   0  0  0  0  0  0  0  0  0  0  0  0
  -23.1068  -29.8352   21.6255 C   0  0  1  0  0  0  0  0  0  0  0  0
  -20.3814  -28.5381   23.9325 C   0  0  1  0  0  0  0  0  0  0  0  0
  -27.5956  -13.1817   19.7344 C   0  0  2  0  0  0  0  0  0  0  0  0
  -16.5983  -28.9088   30.6819 C   0  0  0  0  0  0  0  0  0  0  0  0
  -21.9374  -31.1132   27.4408 C   0  0  0  0  0  0  0  0  0  0  0  0
  -20.6805  -30.8763   29.5931 C   0  0  0  0  0  0  0  0  0  0  0  0
  -19.6700  -32.1379   27.6930 C   0  0  0  0  0  0  0  0  0  0  0  0
  -16.1872  -26.2512   27.9904 C   0  0  0  0  0  0  0  0  0  0  0  0
  -27.1469  -20.1632   25.8380 C   0  0  0  0  0  0  0  0  0  0  0  0
  -25.9960  -20.7327   25.0088 C   0  0  0  0  0  0  0  0  0  0  0  0
  -23.8732  -22.1832   25.0253 C   0  0  0  0  0  0  0  0  0  1  0  0
  -19.8355  -29.6186   27.5596 C   0  0  1  0  0  0  0  0  0  0  0  0
  -16.7204  -28.3195   29.2853 C   0  0  2  0  0  0  0  0  0  0  0  0
  -20.5381  -30.9135   28.0565 C   0  0  0  0  0  0  0  0  0  0  0  0
  -25.8346  -11.5554   20.3137 N   0  0  0  0  0  0  0  0  0  0  0  0
  -26.1837  -12.8460   20.1768 N   0  0  0  0  0  0  0  0  0  0  0  0
  -20.3157  -28.5191   25.3953 N   0  0  0  0  0  0  0  0  0  0  0  0
  -29.8900  -13.7249   20.4495 N   0  0  0  0  0  0  0  0  0  0  0  0
  -25.3598  -15.0574   20.3808 N   0  0  0  0  0  0  0  0  0  0  0  0
  -21.8104  -12.5128   21.5311 N   0  0  0  0  0  0  0  0  0  0  0  0
  -29.9287  -15.8196   21.5326 N   0  0  0  0  0  0  0  0  0  0  0  0
  -21.8998  -29.2814   22.2006 N   0  0  0  0  0  0  0  0  0  0  0  0
  -18.4976  -29.4176   28.1055 N   0  0  0  0  0  0  0  0  0  0  0  0
  -16.1530  -26.9415   29.3054 N   0  3  0  0  0  0  0  0  0  0  0  0
  -22.5408  -14.6670   21.2399 O   0  0  0  0  0  0  0  0  0  0  0  0
  -22.5042  -29.4364   24.4440 O   0  0  0  0  0  0  0  0  0  0  0  0
  -25.2602  -21.9390   26.9716 O   0  0  0  0  0  0  0  0  0  0  0  0
  -19.0349  -30.4649   25.4934 O   0  0  0  0  0  0  0  0  0  0  0  0
  -18.9265  -27.3565   29.0776 O   0  0  0  0  0  0  0  0  0  0  0  0
  -31.7488  -15.0903   20.2929 O   0  0  0  0  0  0  0  0  0  0  0  0
  -21.6666   -6.9465   21.7044 O   0  0  0  0  0  0  0  0  0  0  0  0
  -23.0696  -23.0186   25.8576 O   0  0  0  0  0  0  0  0  0  1  0  0
  -24.1341   -2.9871   24.6437 F   0  0  0  0  0  0  0  0  0  0  0  0
  -33.7405  -17.7515   23.7242 F   0  0  0  0  0  0  0  0  0  0  0  0
  -20.5919   -6.0794   24.0994 F   0  0  0  0  0  0  0  0  0  0  0  0
  1  2  1  0  0  0  0
  1  5  2  0  0  0  0
  2  6  2  0  0  0  0
  3  8  2  0  0  0  0
  3 18  1  0  0  0  0
  4  9  1  0  0  0  0
  4 18  2  0  0  0  0
  5 21  1  0  0  0  0
  6 23  1  0  0  0  0
  7 10  2  0  0  0  0
  7 22  1  0  0  0  0
  8 26  1  0  0  0  0
  9 26  2  0  0  0  0
 10 27  1  0  0  0  0
 11 12  2  0  0  0  0
 11 28  1  0  0  0  0
 12 29  1  0  0  0  0
 13 19  2  0  0  0  0
 13 25  1  0  0  0  0
 14 19  1  0  0  0  0
 14 30  2  0  0  0  0
 15 24  1  0  0  0  0
 15 27  2  0  0  0  0
 16 25  2  0  0  0  0
 16 30  1  0  0  0  0
 17 29  2  0  0  0  0
 17 31  1  0  0  0  0
 18 32  1  0  0  0  0
 19 34  1  0  0  0  0
 20 32  1  0  0  0  0
 20 33  2  0  0  0  0
 20 36  1  0  0  0  0
 21 23  2  0  0  0  0
 21 42  1  0  0  0  0
 22 24  2  0  0  0  0
 22 43  1  0  0  0  0
 23 51  1  0  0  0  0
 24 44  1  0  0  0  0
 25 71  1  0  0  0  0
 26 81  1  0  0  0  0
 27 82  1  0  0  0  0
 28 31  2  0  0  0  0
 28 81  1  0  0  0  0
 29 83  1  0  0  0  0
 30 84  1  0  0  0  0
 31 85  1  0  0  0  0
 32 65  2  0  0  0  0
 33 66  1  0  0  0  0
 33 69  1  0  0  0  0
 34 35  2  0  0  0  0
 35 59  1  0  0  0  0
 36 70  1  0  0  0  0
 36 75  2  0  0  0  0
 37 52  1  0  0  0  0
 37 72  1  0  0  0  0
 37 76  2  0  0  0  0
 38 60  1  0  0  0  0
 38 61  1  0  0  0  0
 38 77  2  0  0  0  0
 39 62  1  0  0  0  0
 39 67  1  0  0  0  0
 39 78  2  0  0  0  0
 40 63  1  0  0  0  0
 40 73  1  0  0  0  0
 40 79  2  0  0  0  0
 41 68  1  0  0  0  0
 41 71  1  0  0  0  0
 41 80  2  0  0  0  0
 42 45  1  0  0  0  0
 43 52  1  0  0  0  0
 44 67  1  0  0  0  0
 45 47  1  0  0  0  0
 46 48  1  0  0  0  0
 46 49  1  0  0  0  0
 47 51  1  0  0  0  0
 48 53  1  0  0  0  0
 49 68  1  0  0  0  0
 50 53  1  0  0  0  0
 50 68  1  0  0  0  0
 51 72  1  0  0  0  0
 52 67  1  0  0  0  0
 53 66  1  0  0  0  0
 54 63  1  0  0  0  0
 55 64  1  0  0  0  0
 56 64  1  0  0  0  0
 57 64  1  0  0  0  0
 58 74  1  0  0  0  0
 59 60  1  0  0  0  0
 61 82  1  0  0  0  0
 62 64  1  0  0  0  0
 62 73  1  0  0  0  0
 63 74  1  0  0  0  0
 65 66  1  0  0  0  0
M  CHG  1  74   1
M  ISO  4  41 100  61 101  71 100  82 101
M  END
> <Batch ID>
0122

> <Smiles>
CNC(C)C(=O)NC(C(=O)N1Cc2cc([101O:1][101CH2:1]C(=O)CCC=Cc3cc(F)cc([100NH:0][100C:0](=O)N4CCCC(n5nc(-c6ccc(Oc7ccc(F)cc7F)cc6)c(C(N)=O)c5N)C4)c3)ccc2CC1C(=O)NC1CCCc2ccccc21)C(C)(C)C

> <Shape>
0.252

> <Color>
0.220

> <Negative vol penalty>
0.000

$$$$

  -OEChem-04052302003D

 85 93  0     1  0  0  0  0  0999 V2000
  -17.8356  -31.2307   23.4840 C   0  0  0  0  0  0  0  0  0  0  0  0
  -19.2200  -31.3298   23.5797 C   0  0  0  0  0  0  0  0  0  0  0  0
  -24.2475   -9.4084   21.9918 C   0  0  0  0  0  0  0  0  0  0  0  0
  -23.3648   -9.3531   19.7435 C   0  0  0  0  0  0  0  0  0  0  0  0
  -28.5594  -21.1862   20.5923 C   0  0  0  0  0  0  0  0  0  0  0  0
  -28.7529  -22.5648   20.5041 C   0  0  0  0  0  0  0  0  0  0  0  0
  -17.2487  -30.0228   23.1093 C   0  0  0  0  0  0  0  0  0  0  0  0
  -20.0182  -30.2207   23.3018 C   0  0  0  0  0  0  0  0  0  0  0  0
  -25.5569  -30.2329   20.6888 C   0  0  0  0  0  0  0  0  0  0  0  0
  -23.2714   -8.4982   22.3975 C   0  0  0  0  0  0  0  0  0  0  0  0
  -22.3888   -8.4429   20.1491 C   0  0  0  0  0  0  0  0  0  0  0  0
  -26.8444  -30.1628   21.2191 C   0  0  0  0  0  0  0  0  0  0  0  0
  -22.7410   -5.1643   22.2063 C   0  0  0  0  0  0  0  0  0  0  0  0
  -23.1430   -4.0987   23.0115 C   0  0  0  0  0  0  0  0  0  0  0  0
  -30.9501  -20.8580   20.7081 C   0  0  0  0  0  0  0  0  0  0  0  0
  -26.8675  -27.7818   20.8326 C   0  0  0  0  0  0  0  0  0  0  0  0
  -21.6391   -4.8446   24.7492 C   0  0  0  0  0  0  0  0  0  0  0  0
  -24.2942   -9.8358   20.6649 C   0  0  0  0  0  0  0  0  0  0  0  0
  -29.6580  -20.3328   20.6944 C   0  0  0  0  0  0  0  0  0  0  0  0
  -30.0450  -23.0899   20.5178 C   0  0  0  0  0  0  0  0  0  0  0  0
  -26.5856  -10.4817   19.7485 C   0  0  0  0  0  0  0  0  0  0  0  0
  -18.0405  -28.9010   22.8173 C   0  0  0  0  0  0  0  0  0  0  0  0
  -24.9098  -29.0743   20.2356 C   0  0  0  0  0  0  0  0  0  0  0  0
  -19.4412  -28.9963   22.9242 C   0  0  0  0  0  0  0  0  0  0  0  0
  -25.5729  -27.8402   20.2946 C   0  0  0  0  0  0  0  0  0  0  0  0
  -31.1437  -22.2366   20.6198 C   0  0  0  0  0  0  0  0  0  0  0  0
  -22.3421   -8.0155   21.4761 C   0  0  0  0  0  0  0  0  0  0  0  0
  -27.4988  -28.9367   21.2937 C   0  0  0  0  0  0  0  0  0  0  0  0
  -21.7882   -6.0702   22.6725 C   0  0  0  0  0  0  0  0  0  0  0  0
  -22.5920   -3.9388   24.2829 C   0  0  0  0  0  0  0  0  0  0  0  0
  -21.2372   -5.9102   23.9439 C   0  0  0  0  0  0  0  0  0  0  0  0
  -25.3019  -10.7764   20.2454 C   0  0  0  0  0  0  0  0  0  0  0  0
  -27.1468  -11.7099   19.4970 C   0  0  0  0  0  0  0  0  0  0  0  0
  -29.4549  -18.8955   20.7866 C   0  0  0  0  0  0  0  0  0  0  0  0
  -28.3086  -18.2890   21.1617 C   0  0  0  0  0  0  0  0  0  0  0  0
  -29.6064  -25.4001   21.4854 C   0  0  0  0  0  0  0  0  0  0  0  0
  -29.7216  -26.7348   21.4360 C   0  0  0  0  0  0  0  0  0  0  0  0
  -30.2214  -24.5593   20.4231 C   0  0  0  0  0  0  0  0  0  0  0  0
  -27.2146   -9.2114   19.5333 C   0  0  0  0  0  0  0  0  0  0  0  0
  -28.2563  -16.8135   21.1961 C   0  0  0  0  0  0  0  0  0  0  0  0
  -22.2657  -27.5140   21.0593 C   0  0  0  0  0  0  0  0  0  0  0  0
  -22.9761  -25.7234   18.4494 C   0  0  0  0  0  0  0  0  0  0  0  0
  -25.3440  -24.6009   16.2632 C   0  0  0  0  0  0  0  0  0  0  0  0
  -17.3585  -27.6035   22.4622 C   0  0  0  0  0  0  0  0  0  0  0  0
  -23.5313  -29.1707   19.6416 C   0  0  0  0  0  0  0  0  0  0  0  0
  -24.9297  -26.5701   19.8029 C   0  0  0  0  0  0  0  0  0  0  0  0
  -18.2922  -26.5800   21.8213 C   0  0  0  0  0  0  0  0  0  0  0  0
  -25.1036  -16.3192   19.3939 C   0  0  0  0  0  0  0  0  0  0  0  0
  -19.5965  -26.4822   22.6062 C   0  0  0  0  0  0  0  0  0  0  0  0
  -24.9623  -14.8008   19.4605 C   0  0  0  0  0  0  0  0  0  0  0  0
  -25.7641  -16.8875   20.6490 C   0  0  0  0  0  0  0  0  0  0  0  0
  -26.9364  -14.7388   21.0351 C   0  0  0  0  0  0  0  0  0  0  0  0
  -20.3419  -27.8224   22.6067 C   0  0  1  0  0  0  0  0  0  0  0  0
  -22.7687  -27.8501   19.6839 C   0  0  1  0  0  0  0  0  0  0  0  0
  -26.3170  -14.1407   19.7623 C   0  0  1  0  0  0  0  0  0  0  0  0
  -32.5379  -22.7736   20.6375 C   0  0  0  0  0  0  0  0  0  0  0  0
  -30.1153  -27.9591   23.5752 C   0  0  0  0  0  0  0  0  0  0  0  0
  -25.6292  -23.1197   14.2576 C   0  0  0  0  0  0  0  0  0  0  0  0
  -22.8001  -23.2626   20.2448 C   0  0  0  0  0  0  0  0  0  0  0  0
  -23.9973  -21.9669   18.4683 C   0  0  0  0  0  0  0  0  0  0  0  0
  -21.7699  -22.9800   17.9835 C   0  0  0  0  0  0  0  0  0  0  0  0
  -26.2788  -26.8541   14.5874 C   0  0  0  0  0  0  0  0  0  0  0  0
  -29.1211  -27.6500   22.4635 C   0  0  1  0  0  0  0  0  0  1  0  0
  -23.7939  -24.4800   18.1964 C   0  0  1  0  0  0  0  0  0  0  0  0
  -25.3645  -24.5352   14.7467 C   0  0  2  0  0  0  0  0  0  0  0  0
  -23.1019  -23.1958   18.7344 C   0  0  0  0  0  0  0  0  0  0  0  0
  -25.0616  -12.0888   20.3069 N   0  0  0  0  0  0  0  0  0  0  0  0
  -26.2020  -12.6297   19.8454 N   0  0  0  0  0  0  0  0  0  0  0  0
  -27.0291  -16.2006   20.9497 N   0  0  0  0  0  0  0  0  0  0  0  0
  -23.5786  -26.7152   19.2363 N   0  0  0  0  0  0  0  0  0  0  0  0
  -28.3513  -12.0819   19.0142 N   0  0  0  0  0  0  0  0  0  0  0  0
  -26.4963   -8.0489   19.8447 N   0  0  0  0  0  0  0  0  0  0  0  0
  -21.0142  -28.0273   21.3417 N   0  0  0  0  0  0  0  0  0  0  0  0
  -24.0673  -24.4559   16.7635 N   0  0  0  0  0  0  0  0  0  0  0  0
  -26.4282  -25.4267   14.2039 N   0  3  0  0  0  0  0  0  0  0  0  0
  -30.8355  -25.0384   19.4762 O   0  0  0  0  0  0  0  0  0  0  0  0
  -28.3851   -9.1105   19.0938 O   0  0  0  0  0  0  0  0  0  0  0  0
  -29.3032  -16.2132   21.4460 O   0  0  0  0  0  0  0  0  0  0  0  0
  -22.9610  -26.8378   21.8084 O   0  0  0  0  0  0  0  0  0  0  0  0
  -21.8471  -25.8145   17.9608 O   0  0  0  0  0  0  0  0  0  0  0  0
  -26.3595  -24.7608   16.9367 O   0  0  0  0  0  0  0  0  0  0  0  0
  -21.3896   -7.1272   21.8715 O   0  0  0  0  0  0  0  0  0  0  0  0
  -28.7553  -28.8655   21.8115 O   0  0  0  0  0  0  0  0  0  1  0  0
  -22.9769   -2.9145   25.0555 F   0  0  0  0  0  0  0  0  0  0  0  0
  -20.3206   -6.7766   24.3968 F   0  0  0  0  0  0  0  0  0  0  0  0
  1  2  1  0  0  0  0
  1  7  2  0  0  0  0
  2  8  2  0  0  0  0
  3 10  2  0  0  0  0
  3 18  1  0  0  0  0
  4 11  1  0  0  0  0
  4 18  2  0  0  0  0
  5  6  2  0  0  0  0
  5 19  1  0  0  0  0
  6 20  1  0  0  0  0
  7 22  1  0  0  0  0
  8 24  1  0  0  0  0
  9 12  2  0  0  0  0
  9 23  1  0  0  0  0
 10 27  1  0  0  0  0
 11 27  2  0  0  0  0
 12 28  1  0  0  0  0
 13 14  2  0  0  0  0
 13 29  1  0  0  0  0
 14 30  1  0  0  0  0
 15 19  2  0  0  0  0
 15 26  1  0  0  0  0
 16 25  1  0  0  0  0
 16 28  2  0  0  0  0
 17 30  2  0  0  0  0
 17 31  1  0  0  0  0
 18 32  1  0  0  0  0
 19 34  1  0  0  0  0
 20 26  2  0  0  0  0
 20 38  1  0  0  0  0
 21 32  1  0  0  0  0
 21 33  2  0  0  0  0
 21 39  1  0  0  0  0
 22 24  2  0  0  0  0
 22 44  1  0  0  0  0
 23 25  2  0  0  0  0
 23 45  1  0  0  0  0
 24 53  1  0  0  0  0
 25 46  1  0  0  0  0
 26 56  1  0  0  0  0
 27 82  1  0  0  0  0
 28 83  1  0  0  0  0
 29 31  2  0  0  0  0
 29 82  1  0  0  0  0
 30 84  1  0  0  0  0
 31 85  1  0  0  0  0
 32 67  2  0  0  0  0
 33 68  1  0  0  0  0
 33 71  1  0  0  0  0
 34 35  2  0  0  0  0
 35 40  1  0  0  0  0
 36 37  2  0  0  0  0
 36 38  1  0  0  0  0
 37 63  1  0  0  0  0
 38 76  2  0  0  0  0
 39 72  1  0  0  0  0
 39 77  2  0  0  0  0
 40 69  1  0  0  0  0
 40 78  2  0  0  0  0
 41 54  1  0  0  0  0
 41 73  1  0  0  0  0
 41 79  2  0  0  0  0
 42 64  1  0  0  0  0
 42 70  1  0  0  0  0
 42 80  2  0  0  0  0
 43 65  1  0  0  0  0
 43 74  1  0  0  0  0
 43 81  2  0  0  0  0
 44 47  1  0  0  0  0
 45 54  1  0  0  0  0
 46 70  1  0  0  0  0
 47 49  1  0  0  0  0
 48 50  1  0  0  0  0
 48 51  1  0  0  0  0
 49 53  1  0  0  0  0
 50 55  1  0  0  0  0
 51 69  1  0  0  0  0
 52 55  1  0  0  0  0
 52 69  1  0  0  0  0
 53 73  1  0  0  0  0
 54 70  1  0  0  0  0
 55 68  1  0  0  0  0
 57 63  1  0  0  0  0
 58 65  1  0  0  0  0
 59 66  1  0  0  0  0
 60 66  1  0  0  0  0
 61 66  1  0  0  0  0
 62 75  1  0  0  0  0
 63 83  1  0  0  0  0
 64 66  1  0  0  0  0
 64 74  1  0  0  0  0
 65 75  1  0  0  0  0
 67 68  1  0  0  0  0
M  CHG  1  75   1
M  ISO  4  35 100  40 100  63 101  83 101
M  END
> <Batch ID>
0122

> <Smiles>
CNC(C)C(=O)NC(C(=O)N1Cc2cc([101O:1][101CH:1](C)C=CC(=O)c3ccc(C=[100CH:0][100C:0](=O)N4CCCC(n5nc(-c6ccc(Oc7ccc(F)cc7F)cc6)c(C(N)=O)c5N)C4)cc3C)ccc2CC1C(=O)NC1CCCc2ccccc21)C(C)(C)C

> <Shape>
0.313

> <Color>
0.107

> <Negative vol penalty>
0.000

$$$$

  -OEChem-04052302003D

 86 94  0     1  0  0  0  0  0999 V2000
  -28.9925  -37.4408   25.0308 C   0  0  0  0  0  0  0  0  0  0  0  0
  -29.4153  -36.1414   24.7698 C   0  0  0  0  0  0  0  0  0  0  0  0
  -23.7755   -8.7471   20.0661 C   0  0  0  0  0  0  0  0  0  0  0  0
  -23.2802  -10.5335   21.6154 C   0  0  0  0  0  0  0  0  0  0  0  0
  -27.7099  -37.6688   25.5275 C   0  0  0  0  0  0  0  0  0  0  0  0
  -28.5559  -35.0690   25.0062 C   0  0  0  0  0  0  0  0  0  0  0  0
  -28.1650  -29.8823   21.7734 C   0  0  0  0  0  0  0  0  0  0  0  0
  -22.9248   -7.8977   20.7735 C   0  0  0  0  0  0  0  0  0  0  0  0
  -22.4295   -9.6841   22.3229 C   0  0  0  0  0  0  0  0  0  0  0  0
  -28.6950  -28.6088   21.9757 C   0  0  0  0  0  0  0  0  0  0  0  0
  -19.5974   -7.3558   21.0332 C   0  0  0  0  0  0  0  0  0  0  0  0
  -18.7111   -6.5676   20.2992 C   0  0  0  0  0  0  0  0  0  0  0  0
  -29.1479  -19.5879   18.4448 C   0  0  0  0  0  0  0  0  0  0  0  0
  -30.4036  -19.3515   20.4952 C   0  0  0  0  0  0  0  0  0  0  0  0
  -26.6224  -27.9148   22.9965 C   0  0  0  0  0  0  0  0  0  0  0  0
  -19.7153   -4.5753   21.2260 C   0  0  0  0  0  0  0  0  0  0  0  0
  -23.9532  -10.0650   20.4871 C   0  0  0  0  0  0  0  0  0  0  0  0
  -29.8384  -20.1630   19.5115 C   0  0  0  0  0  0  0  0  0  0  0  0
  -24.4922  -11.7830   18.6799 C   0  0  0  0  0  0  0  0  0  0  0  0
  -26.8309  -36.5994   25.7610 C   0  0  0  0  0  0  0  0  0  0  0  0
  -26.8613  -30.1853   22.1917 C   0  0  0  0  0  0  0  0  0  0  0  0
  -27.2607  -35.2828   25.5077 C   0  0  0  0  0  0  0  0  0  0  0  0
  -26.0773  -29.1922   22.7961 C   0  0  0  0  0  0  0  0  0  0  0  0
  -29.0225  -18.2011   18.3617 C   0  0  0  0  0  0  0  0  0  0  0  0
  -29.5877  -17.3895   19.3453 C   0  0  0  0  0  0  0  0  0  0  0  0
  -22.2518   -8.3662   21.9019 C   0  0  0  0  0  0  0  0  0  0  0  0
  -27.9248  -27.6256   22.5899 C   0  0  0  0  0  0  0  0  0  0  0  0
  -20.5427   -6.7537   21.8636 C   0  0  0  0  0  0  0  0  0  0  0  0
  -18.7700   -5.1774   20.3956 C   0  0  0  0  0  0  0  0  0  0  0  0
  -30.2782  -17.9647   20.4121 C   0  0  0  0  0  0  0  0  0  0  0  0
  -20.6017   -5.3635   21.9600 C   0  0  0  0  0  0  0  0  0  0  0  0
  -24.8322  -10.9428   19.7571 C   0  0  0  0  0  0  0  0  0  0  0  0
  -25.6704  -12.4031   18.3429 C   0  0  0  0  0  0  0  0  0  0  0  0
  -29.9710  -21.6268   19.5997 C   0  0  0  0  0  0  0  0  0  0  0  0
  -30.2576  -22.3122   20.7177 C   0  0  0  0  0  0  0  0  0  0  0  0
  -23.2245  -11.9849   18.0412 C   0  0  0  0  0  0  0  0  0  0  0  0
  -25.5896  -32.2298   24.2670 C   0  0  0  0  0  0  0  0  0  0  0  0
  -29.3704  -24.4111   21.7288 C   0  0  0  0  0  0  0  0  0  0  0  0
  -22.7946  -31.1406   23.0326 C   0  0  0  0  0  0  0  0  0  0  0  0
  -21.1159  -28.6415   21.4253 C   0  0  0  0  0  0  0  0  0  0  0  0
  -30.3704  -15.0311   19.7595 C   0  0  0  0  0  0  0  0  0  0  0  0
  -25.4706  -36.8917   26.3430 C   0  0  0  0  0  0  0  0  0  0  0  0
  -26.2948  -31.5562   21.9421 C   0  0  0  0  0  0  0  0  0  0  0  0
  -24.6650  -29.4608   23.2452 C   0  0  0  0  0  0  0  0  0  0  0  0
  -24.4897  -35.7293   26.2125 C   0  0  0  0  0  0  0  0  0  0  0  0
  -30.4222  -11.4715   19.8174 C   0  0  0  0  0  0  0  0  0  0  0  0
  -25.1533  -34.4212   26.6311 C   0  0  0  0  0  0  0  0  0  0  0  0
  -28.9446  -11.0857   19.7183 C   0  0  0  0  0  0  0  0  0  0  0  0
  -30.6247  -12.7292   20.6605 C   0  0  0  0  0  0  0  0  0  0  0  0
  -28.3408  -13.5010   20.1531 C   0  0  0  0  0  0  0  0  0  0  0  0
  -26.3488  -34.0953   25.7279 C   0  0  1  0  0  0  0  0  0  0  0  0
  -25.1363  -31.9024   22.8724 C   0  0  1  0  0  0  0  0  0  0  0  0
  -28.0807  -12.2770   19.2598 C   0  0  2  0  0  0  0  0  0  0  0  0
  -29.2135  -17.0300   16.1529 C   0  0  0  0  0  0  0  0  0  0  0  0
  -18.8321  -28.0235   20.5889 C   0  0  0  0  0  0  0  0  0  0  0  0
  -21.9177  -30.5244   25.8894 C   0  0  0  0  0  0  0  0  0  0  0  0
  -20.1044  -29.0781   24.9467 C   0  0  0  0  0  0  0  0  0  0  0  0
  -20.1370  -31.5212   24.4436 C   0  0  0  0  0  0  0  0  0  0  0  0
  -22.0612  -28.4671   18.6262 C   0  0  0  0  0  0  0  0  0  0  0  0
  -28.2778  -17.6120   17.2076 C   0  0  0  0  0  0  0  0  0  0  0  0
  -30.3760  -23.8050   20.7600 C   0  0  0  0  0  0  0  0  0  0  0  0
  -29.4102  -25.9225   21.8489 C   0  0  0  0  0  0  0  0  0  1  0  0
  -21.8498  -30.0096   23.3602 C   0  0  1  0  0  0  0  0  0  0  0  0
  -20.1662  -28.6654   20.2413 C   0  0  2  0  0  0  0  0  0  0  0  0
  -21.0295  -30.2785   24.6534 C   0  0  0  0  0  0  0  0  0  0  0  0
  -26.1253  -11.0196   20.0827 N   0  0  0  0  0  0  0  0  0  0  0  0
  -26.6082  -11.9154   19.2048 N   0  0  0  0  0  0  0  0  0  0  0  0
  -24.1583  -30.8183   22.9847 N   0  0  0  0  0  0  0  0  0  0  0  0
  -29.7778  -13.8166   20.1652 N   0  0  0  0  0  0  0  0  0  0  0  0
  -25.9855  -13.3125   17.3962 N   0  0  0  0  0  0  0  0  0  0  0  0
  -22.1168  -11.2675   18.5131 N   0  0  0  0  0  0  0  0  0  0  0  0
  -29.4692  -15.9793   19.2763 N   0  0  0  0  0  0  0  0  0  0  0  0
  -25.8948  -33.5635   24.4608 N   0  0  0  0  0  0  0  0  0  0  0  0
  -21.0349  -29.8002   22.1684 N   0  0  0  0  0  0  0  0  0  0  0  0
  -20.7566  -27.9277   19.0888 N   0  3  0  0  0  0  0  0  0  0  0  0
  -23.0818  -12.7657   17.0698 O   0  0  0  0  0  0  0  0  0  0  0  0
  -25.6561  -31.3387   25.1055 O   0  0  0  0  0  0  0  0  0  0  0  0
  -28.5639  -23.7347   22.3660 O   0  0  0  0  0  0  0  0  0  0  0  0
  -22.3387  -32.2669   22.8196 O   0  0  0  0  0  0  0  0  0  0  0  0
  -21.8529  -27.6886   21.6689 O   0  0  0  0  0  0  0  0  0  0  0  0
  -31.5905  -15.2065   19.8097 O   0  0  0  0  0  0  0  0  0  0  0  0
  -21.4215   -7.5377   22.5923 O   0  0  0  0  0  0  0  0  0  0  0  0
  -28.4399  -26.3819   22.7891 O   0  0  0  0  0  0  0  0  0  1  0  0
  -17.9178   -4.4206   19.6918 F   0  0  0  0  0  0  0  0  0  0  0  0
  -30.8260  -17.1955   21.3640 F   0  0  0  0  0  0  0  0  0  0  0  0
  -21.5069   -4.7794   22.7570 F   0  0  0  0  0  0  0  0  0  0  0  0
  1  2  1  0  0  0  0
  1  5  2  0  0  0  0
  2  6  2  0  0  0  0
  3  8  2  0  0  0  0
  3 17  1  0  0  0  0
  4  9  1  0  0  0  0
  4 17  2  0  0  0  0
  5 20  1  0  0  0  0
  6 22  1  0  0  0  0
  7 10  2  0  0  0  0
  7 21  1  0  0  0  0
  8 26  1  0  0  0  0
  9 26  2  0  0  0  0
 10 27  1  0  0  0  0
 11 12  2  0  0  0  0
 11 28  1  0  0  0  0
 12 29  1  0  0  0  0
 13 18  2  0  0  0  0
 13 24  1  0  0  0  0
 14 18  1  0  0  0  0
 14 30  2  0  0  0  0
 15 23  1  0  0  0  0
 15 27  2  0  0  0  0
 16 29  2  0  0  0  0
 16 31  1  0  0  0  0
 17 32  1  0  0  0  0
 18 34  1  0  0  0  0
 19 32  1  0  0  0  0
 19 33  2  0  0  0  0
 19 36  1  0  0  0  0
 20 22  2  0  0  0  0
 20 42  1  0  0  0  0
 21 23  2  0  0  0  0
 21 43  1  0  0  0  0
 22 51  1  0  0  0  0
 23 44  1  0  0  0  0
 24 25  2  0  0  0  0
 24 60  1  0  0  0  0
 25 30  1  0  0  0  0
 25 72  1  0  0  0  0
 26 82  1  0  0  0  0
 27 83  1  0  0  0  0
 28 31  2  0  0  0  0
 28 82  1  0  0  0  0
 29 84  1  0  0  0  0
 30 85  1  0  0  0  0
 31 86  1  0  0  0  0
 32 66  2  0  0  0  0
 33 67  1  0  0  0  0
 33 70  1  0  0  0  0
 34 35  2  0  0  0  0
 35 61  1  0  0  0  0
 36 71  1  0  0  0  0
 36 76  2  0  0  0  0
 37 52  1  0  0  0  0
 37 73  1  0  0  0  0
 37 77  2  0  0  0  0
 38 61  1  0  0  0  0
 38 62  1  0  0  0  0
 38 78  2  0  0  0  0
 39 63  1  0  0  0  0
 39 68  1  0  0  0  0
 39 79  2  0  0  0  0
 40 64  1  0  0  0  0
 40 74  1  0  0  0  0
 40 80  2  0  0  0  0
 41 69  1  0  0  0  0
 41 72  1  0  0  0  0
 41 81  2  0  0  0  0
 42 45  1  0  0  0  0
 43 52  1  0  0  0  0
 44 68  1  0  0  0  0
 45 47  1  0  0  0  0
 46 48  1  0  0  0  0
 46 49  1  0  0  0  0
 47 51  1  0  0  0  0
 48 53  1  0  0  0  0
 49 69  1  0  0  0  0
 50 53  1  0  0  0  0
 50 69  1  0  0  0  0
 51 73  1  0  0  0  0
 52 68  1  0  0  0  0
 53 67  1  0  0  0  0
 54 60  1  0  0  0  0
 55 64  1  0  0  0  0
 56 65  1  0  0  0  0
 57 65  1  0  0  0  0
 58 65  1  0  0  0  0
 59 75  1  0  0  0  0
 62 83  1  0  0  0  0
 63 65  1  0  0  0  0
 63 74  1  0  0  0  0
 64 75  1  0  0  0  0
 66 67  1  0  0  0  0
M  CHG  1  75   1
M  ISO  4  41 100  62 101  72 100  83 101
M  END
> <Batch ID>
0122

> <Smiles>
CCc1cc(C=CCC(=O)[101CH2:1][101O:1]c2ccc3c(c2)CN(C(=O)C(NC(=O)C(C)NC)C(C)(C)C)C(C(=O)NC2CCCc4ccccc42)C3)cc(F)c1[100NH:0][100C:0](=O)N1CCCC(n2nc(-c3ccc(Oc4ccc(F)cc4F)cc3)c(C(N)=O)c2N)C1

> <Shape>
0.292

> <Color>
0.091

> <Negative vol penalty>
0.000

$$$$
