
  -OEChem-04052302033D

 83 91  0     1  0  0  0  0  0999 V2000
  -31.4662  -34.9780   24.2796 C   0  0  0  0  0  0  0  0  0  0  0  0
  -31.5680  -33.6846   23.7774 C   0  0  0  0  0  0  0  0  0  0  0  0
  -23.6217   -9.7483   21.4923 C   0  0  0  0  0  0  0  0  0  0  0  0
  -24.1468  -10.8554   23.5745 C   0  0  0  0  0  0  0  0  0  0  0  0
  -30.3959  -35.3221   25.1043 C   0  0  0  0  0  0  0  0  0  0  0  0
  -30.6002  -32.7342   24.1006 C   0  0  0  0  0  0  0  0  0  0  0  0
  -28.5220  -28.2286   20.5108 C   0  0  0  0  0  0  0  0  0  0  0  0
  -23.0527   -8.6889   22.1990 C   0  0  0  0  0  0  0  0  0  0  0  0
  -23.5777   -9.7961   24.2812 C   0  0  0  0  0  0  0  0  0  0  0  0
  -28.8367  -26.8728   20.4301 C   0  0  0  0  0  0  0  0  0  0  0  0
  -24.1210   -5.9673   23.8949 C   0  0  0  0  0  0  0  0  0  0  0  0
  -24.4426   -4.6720   23.4897 C   0  0  0  0  0  0  0  0  0  0  0  0
  -28.4254  -20.0080   18.0649 C   0  0  0  0  0  0  0  0  0  0  0  0
  -28.4287  -17.6753   18.6936 C   0  0  0  0  0  0  0  0  0  0  0  0
  -26.9586  -26.3584   21.8540 C   0  0  0  0  0  0  0  0  0  0  0  0
  -22.1074   -4.2274   23.0579 C   0  0  0  0  0  0  0  0  0  0  0  0
  -24.1689  -10.8315   22.1800 C   0  0  0  0  0  0  0  0  0  0  0  0
  -29.1190  -20.3239   19.2331 C   0  0  0  0  0  0  0  0  0  0  0  0
  -29.1223  -17.9911   19.8618 C   0  0  0  0  0  0  0  0  0  0  0  0
  -24.1098  -13.0899   20.9951 C   0  0  0  0  0  0  0  0  0  0  0  0
  -29.4093  -34.3781   25.4298 C   0  0  0  0  0  0  0  0  0  0  0  0
  -27.4279  -28.6612   21.2738 C   0  0  0  0  0  0  0  0  0  0  0  0
  -29.5164  -33.0656   24.9315 C   0  0  0  0  0  0  0  0  0  0  0  0
  -26.6306  -27.7200   21.9406 C   0  0  0  0  0  0  0  0  0  0  0  0
  -28.0802  -18.6837   17.7952 C   0  0  0  0  0  0  0  0  0  0  0  0
  -29.4675  -19.3154   20.1316 C   0  0  0  0  0  0  0  0  0  0  0  0
  -23.0306   -8.7128   23.5935 C   0  0  0  0  0  0  0  0  0  0  0  0
  -28.0567  -25.9377   21.1041 C   0  0  0  0  0  0  0  0  0  0  0  0
  -22.7927   -6.3928   23.8817 C   0  0  0  0  0  0  0  0  0  0  0  0
  -23.4357   -3.8020   23.0712 C   0  0  0  0  0  0  0  0  0  0  0  0
  -21.7858   -5.5228   23.4632 C   0  0  0  0  0  0  0  0  0  0  0  0
  -24.7574  -11.9258   21.4505 C   0  0  0  0  0  0  0  0  0  0  0  0
  -25.0968  -13.8079   20.3653 C   0  0  0  0  0  0  0  0  0  0  0  0
  -29.4666  -21.7320   19.4869 C   0  0  0  0  0  0  0  0  0  0  0  0
  -28.5870  -22.7412   19.5835 C   0  0  0  0  0  0  0  0  0  0  0  0
  -29.4704  -16.9152   20.7808 C   0  0  0  0  0  0  0  0  0  0  0  0
  -22.7385  -13.4866   21.1294 C   0  0  0  0  0  0  0  0  0  0  0  0
  -30.3290  -15.7866   20.3536 C   0  0  0  0  0  0  0  0  0  0  0  0
  -27.0667  -30.5341   23.8165 C   0  0  0  0  0  0  0  0  0  0  0  0
  -23.9112  -30.0916   23.2088 C   0  0  0  0  0  0  0  0  0  0  0  0
  -21.4743  -28.1582   21.8052 C   0  0  0  0  0  0  0  0  0  0  0  0
  -28.2963  -34.7838   26.3633 C   0  0  0  0  0  0  0  0  0  0  0  0
  -27.0858  -30.1248   21.3289 C   0  0  0  0  0  0  0  0  0  0  0  0
  -25.4333  -28.1310   22.7566 C   0  0  0  0  0  0  0  0  0  0  0  0
  -27.1120  -33.8206   26.3539 C   0  0  0  0  0  0  0  0  0  0  0  0
  -29.7861  -12.5025   19.0210 C   0  0  0  0  0  0  0  0  0  0  0  0
  -27.5971  -32.3772   26.4440 C   0  0  0  0  0  0  0  0  0  0  0  0
  -28.3913  -12.1408   19.5304 C   0  0  0  0  0  0  0  0  0  0  0  0
  -30.5466  -13.3539   20.0324 C   0  0  0  0  0  0  0  0  0  0  0  0
  -28.4211  -14.2374   20.9548 C   0  0  0  0  0  0  0  0  0  0  0  0
  -28.4732  -32.0134   25.2392 C   0  0  1  0  0  0  0  0  0  0  0  0
  -26.2550  -30.4986   22.5526 C   0  0  1  0  0  0  0  0  0  0  0  0
  -27.6123  -13.4007   19.9483 C   0  0  2  0  0  0  0  0  0  0  0  0
  -27.3387  -18.3450   16.5464 C   0  0  0  0  0  0  0  0  0  0  0  0
  -30.2129  -19.6457   21.3885 C   0  0  0  0  0  0  0  0  0  0  0  0
  -18.9860  -28.0356   21.5046 C   0  0  0  0  0  0  0  0  0  0  0  0
  -23.6081  -29.1867   26.1069 C   0  0  0  0  0  0  0  0  0  0  0  0
  -21.3905  -28.1995   25.4937 C   0  0  0  0  0  0  0  0  0  0  0  0
  -21.7636  -30.6562   25.2746 C   0  0  0  0  0  0  0  0  0  0  0  0
  -21.7083  -28.2720   18.8571 C   0  0  0  0  0  0  0  0  0  0  0  0
  -28.9895  -24.1601   19.8289 C   0  0  0  0  0  0  0  0  0  1  0  0
  -22.8716  -29.0832   23.6345 C   0  0  1  0  0  0  0  0  0  0  0  0
  -20.3018  -28.5098   20.9074 C   0  0  2  0  0  0  0  0  0  0  0  0
  -22.4321  -29.2735   25.1137 C   0  0  0  0  0  0  0  0  0  0  0  0
  -26.0555  -11.9017   21.1366 N   0  0  0  0  0  0  0  0  0  0  0  0
  -29.0605  -16.8726   22.0181 N   0  0  0  0  0  0  0  0  0  0  0  0
  -26.2314  -13.0594   20.4771 N   0  0  0  0  0  0  0  0  0  0  0  0
  -29.7646  -14.5213   20.4347 N   0  0  0  0  0  0  0  0  0  0  0  0
  -25.1434  -29.5741   22.7849 N   0  0  0  0  0  0  0  0  0  0  0  0
  -25.0962  -15.0003   19.7323 N   0  0  0  0  0  0  0  0  0  0  0  0
  -21.8585  -12.6307   21.8056 N   0  0  0  0  0  0  0  0  0  0  0  0
  -27.6516  -31.7590   24.0753 N   0  0  0  0  0  0  0  0  0  0  0  0
  -21.7825  -29.1874   22.6694 N   0  0  0  0  0  0  0  0  0  0  0  0
  -20.4660  -27.8757   19.5688 N   0  3  0  0  0  0  0  0  0  0  0  0
  -22.3029  -14.5605   20.6493 O   0  0  0  0  0  0  0  0  0  0  0  0
  -31.4514  -16.0926   19.9731 O   0  0  0  0  0  0  0  0  0  0  0  0
  -27.1546  -29.5253   24.5067 O   0  0  0  0  0  0  0  0  0  0  0  0
  -23.6375  -31.2939   23.2441 O   0  0  0  0  0  0  0  0  0  0  0  0
  -22.0561  -27.0771   21.7482 O   0  0  0  0  0  0  0  0  0  0  0  0
  -22.4752   -7.6794   24.2835 O   0  0  0  0  0  0  0  0  0  0  0  0
  -28.3620  -24.6137   21.0276 O   0  0  0  0  0  0  0  0  0  1  0  0
  -23.7448   -2.5586   22.6807 F   0  0  0  0  0  0  0  0  0  0  0  0
  -20.5080   -5.9262   23.4472 F   0  0  0  0  0  0  0  0  0  0  0  0
  1  2  1  0  0  0  0
  1  5  2  0  0  0  0
  2  6  2  0  0  0  0
  3  8  2  0  0  0  0
  3 17  1  0  0  0  0
  4  9  1  0  0  0  0
  4 17  2  0  0  0  0
  5 21  1  0  0  0  0
  6 23  1  0  0  0  0
  7 10  2  0  0  0  0
  7 22  1  0  0  0  0
  8 27  1  0  0  0  0
  9 27  2  0  0  0  0
 10 28  1  0  0  0  0
 11 12  2  0  0  0  0
 11 29  1  0  0  0  0
 12 30  1  0  0  0  0
 13 18  1  0  0  0  0
 13 25  2  0  0  0  0
 14 19  2  0  0  0  0
 14 25  1  0  0  0  0
 15 24  1  0  0  0  0
 15 28  2  0  0  0  0
 16 30  2  0  0  0  0
 16 31  1  0  0  0  0
 17 32  1  0  0  0  0
 18 26  2  0  0  0  0
 18 34  1  0  0  0  0
 19 26  1  0  0  0  0
 19 36  1  0  0  0  0
 20 32  1  0  0  0  0
 20 33  2  0  0  0  0
 20 37  1  0  0  0  0
 21 23  2  0  0  0  0
 21 42  1  0  0  0  0
 22 24  2  0  0  0  0
 22 43  1  0  0  0  0
 23 51  1  0  0  0  0
 24 44  1  0  0  0  0
 25 54  1  0  0  0  0
 26 55  1  0  0  0  0
 27 80  1  0  0  0  0
 28 81  1  0  0  0  0
 29 31  2  0  0  0  0
 29 80  1  0  0  0  0
 30 82  1  0  0  0  0
 31 83  1  0  0  0  0
 32 65  2  0  0  0  0
 33 67  1  0  0  0  0
 33 70  1  0  0  0  0
 34 35  2  0  0  0  0
 35 61  1  0  0  0  0
 36 38  1  0  0  0  0
 36 66  2  0  0  0  0
 37 71  1  0  0  0  0
 37 75  2  0  0  0  0
 38 68  1  0  0  0  0
 38 76  2  0  0  0  0
 39 52  1  0  0  0  0
 39 72  1  0  0  0  0
 39 77  2  0  0  0  0
 40 62  1  0  0  0  0
 40 69  1  0  0  0  0
 40 78  2  0  0  0  0
 41 63  1  0  0  0  0
 41 73  1  0  0  0  0
 41 79  2  0  0  0  0
 42 45  1  0  0  0  0
 43 52  1  0  0  0  0
 44 69  1  0  0  0  0
 45 47  1  0  0  0  0
 46 48  1  0  0  0  0
 46 49  1  0  0  0  0
 47 51  1  0  0  0  0
 48 53  1  0  0  0  0
 49 68  1  0  0  0  0
 50 53  1  0  0  0  0
 50 68  1  0  0  0  0
 51 72  1  0  0  0  0
 52 69  1  0  0  0  0
 53 67  1  0  0  0  0
 56 63  1  0  0  0  0
 57 64  1  0  0  0  0
 58 64  1  0  0  0  0
 59 64  1  0  0  0  0
 60 74  1  0  0  0  0
 61 81  1  0  0  0  0
 62 64  1  0  0  0  0
 62 73  1  0  0  0  0
 63 74  1  0  0  0  0
 65 67  1  0  0  0  0
M  CHG  1  74   1
M  ISO  4  36 100  38 100  61 101  81 101
M  END
> <Batch ID>
0123

> <Smiles>
CNC(C)C(=O)NC(C(=O)N1Cc2cc([101O:1][101CH2:1]C=Cc3cc(C)cc([100C:0](=N)[100C:0](=O)N4CCCC(n5nc(-c6ccc(Oc7ccc(F)cc7F)cc6)c(C(N)=O)c5N)C4)c3C)ccc2CC1C(=O)NC1CCCc2ccccc21)C(C)(C)C

> <Shape>
0.334

> <Color>
0.138

> <Negative vol penalty>
0.000

$$$$

  -OEChem-04052302033D

 85 93  0     1  0  0  0  0  0999 V2000
  -40.6770  -27.1408   16.7970 C   0  0  0  0  0  0  0  0  0  0  0  0
  -40.3722  -26.1889   17.7646 C   0  0  0  0  0  0  0  0  0  0  0  0
  -23.0858   -9.8425   19.9359 C   0  0  0  0  0  0  0  0  0  0  0  0
  -23.8387   -9.8618   22.2315 C   0  0  0  0  0  0  0  0  0  0  0  0
  -31.7929  -18.4236   24.1964 C   0  0  0  0  0  0  0  0  0  0  0  0
  -39.7137  -28.0704   16.4075 C   0  0  0  0  0  0  0  0  0  0  0  0
  -39.1041  -26.1666   18.3440 C   0  0  0  0  0  0  0  0  0  0  0  0
  -37.2006  -21.4855   18.6737 C   0  0  0  0  0  0  0  0  0  0  0  0
  -30.4061  -18.4048   24.0478 C   0  0  0  0  0  0  0  0  0  0  0  0
  -22.3537   -8.6819   20.1857 C   0  0  0  0  0  0  0  0  0  0  0  0
  -23.1065   -8.7012   22.4814 C   0  0  0  0  0  0  0  0  0  0  0  0
  -37.6773  -20.6753   19.7033 C   0  0  0  0  0  0  0  0  0  0  0  0
  -19.4099   -7.8561   21.6297 C   0  0  0  0  0  0  0  0  0  0  0  0
  -18.1050   -7.7949   21.1406 C   0  0  0  0  0  0  0  0  0  0  0  0
  -31.9937  -16.6710   22.5456 C   0  0  0  0  0  0  0  0  0  0  0  0
  -35.7036  -21.1706   20.9988 C   0  0  0  0  0  0  0  0  0  0  0  0
  -18.6896   -5.8556   19.8236 C   0  0  0  0  0  0  0  0  0  0  0  0
  -23.8284  -10.4325   20.9588 C   0  0  0  0  0  0  0  0  0  0  0  0
  -32.5867  -17.5568   23.4452 C   0  0  0  0  0  0  0  0  0  0  0  0
  -24.1433  -12.9610   20.8352 C   0  0  0  0  0  0  0  0  0  0  0  0
  -38.4300  -28.0535   16.9755 C   0  0  0  0  0  0  0  0  0  0  0  0
  -35.9748  -22.1541   18.8036 C   0  0  0  0  0  0  0  0  0  0  0  0
  -38.1231  -27.0977   17.9627 C   0  0  0  0  0  0  0  0  0  0  0  0
  -35.2123  -21.9866   19.9684 C   0  0  0  0  0  0  0  0  0  0  0  0
  -29.8131  -17.5190   23.1481 C   0  0  0  0  0  0  0  0  0  0  0  0
  -30.6068  -16.6521   22.3970 C   0  0  0  0  0  0  0  0  0  0  0  0
  -22.3640   -8.1112   21.4585 C   0  0  0  0  0  0  0  0  0  0  0  0
  -36.9302  -20.5201   20.8673 C   0  0  0  0  0  0  0  0  0  0  0  0
  -20.3547   -6.9171   21.2157 C   0  0  0  0  0  0  0  0  0  0  0  0
  -17.7449   -6.7947   20.2376 C   0  0  0  0  0  0  0  0  0  0  0  0
  -19.9945   -5.9169   20.3127 C   0  0  0  0  0  0  0  0  0  0  0  0
  -24.5854  -11.6311   20.7012 C   0  0  0  0  0  0  0  0  0  0  0  0
  -25.2284  -13.7215   20.4738 C   0  0  0  0  0  0  0  0  0  0  0  0
  -36.6340  -14.2803   24.2132 C   0  0  0  0  0  0  0  0  0  0  0  0
  -34.0504  -17.5784   23.6029 C   0  0  0  0  0  0  0  0  0  0  0  0
  -37.1170  -15.4913   23.9072 C   0  0  0  0  0  0  0  0  0  0  0  0
  -34.8742  -16.5782   23.2496 C   0  0  0  0  0  0  0  0  0  0  0  0
  -36.9889  -17.7755   23.1623 C   0  0  0  0  0  0  0  0  0  0  0  0
  -22.8661  -13.4638   21.2494 C   0  0  0  0  0  0  0  0  0  0  0  0
  -36.3259  -16.6252   23.4200 C   0  0  0  0  0  0  0  0  0  0  0  0
  -35.0756  -25.2026   18.8429 C   0  0  0  0  0  0  0  0  0  0  0  0
  -32.0969  -23.9188   18.8778 C   0  0  0  0  0  0  0  0  0  0  0  0
  -30.1005  -21.2506   19.6140 C   0  0  0  0  0  0  0  0  0  0  0  0
  -30.6825  -14.8264   20.6629 C   0  0  0  0  0  0  0  0  0  0  0  0
  -37.4369  -29.1084   16.5566 C   0  0  0  0  0  0  0  0  0  0  0  0
  -35.4619  -23.0031   17.6729 C   0  0  0  0  0  0  0  0  0  0  0  0
  -33.8805  -22.6664   20.1489 C   0  0  0  0  0  0  0  0  0  0  0  0
  -35.9984  -28.7806   16.9485 C   0  0  0  0  0  0  0  0  0  0  0  0
  -29.6013  -12.3964   18.2957 C   0  0  0  0  0  0  0  0  0  0  0  0
  -35.9343  -28.3085   18.3976 C   0  0  0  0  0  0  0  0  0  0  0  0
  -28.1636  -12.0901   18.7215 C   0  0  0  0  0  0  0  0  0  0  0  0
  -30.5103  -12.6372   19.4997 C   0  0  0  0  0  0  0  0  0  0  0  0
  -28.5915  -13.3436   20.8739 C   0  0  0  0  0  0  0  0  0  0  0  0
  -36.7508  -27.0258   18.5966 C   0  0  1  0  0  0  0  0  0  0  0  0
  -34.4429  -24.0455   18.1230 C   0  0  1  0  0  0  0  0  0  0  0  0
  -27.6241  -13.1577   19.6935 C   0  0  2  0  0  0  0  0  0  0  0  0
  -28.3251  -17.5198   23.0105 C   0  0  0  0  0  0  0  0  0  0  0  0
  -27.7024  -20.5127   19.5682 C   0  0  0  0  0  0  0  0  0  0  0  0
  -31.5297  -25.6169   21.3486 C   0  0  0  0  0  0  0  0  0  0  0  0
  -29.5384  -24.1685   21.8012 C   0  0  0  0  0  0  0  0  0  0  0  0
  -29.6506  -25.5110   19.7018 C   0  0  0  0  0  0  0  0  0  0  0  0
  -30.6973  -19.0340   17.7460 C   0  0  0  0  0  0  0  0  0  0  0  0
  -36.4200  -19.0806   22.6903 C   0  0  0  0  0  0  0  0  0  1  0  0
  -31.1345  -23.4797   19.9549 C   0  0  1  0  0  0  0  0  0  0  0  0
  -29.0206  -20.5486   18.8107 C   0  0  2  0  0  0  0  0  0  0  0  0
  -30.4893  -24.6826   20.6993 C   0  0  0  0  0  0  0  0  0  0  0  0
  -25.8524  -11.5482   20.2868 N   0  0  0  0  0  0  0  0  0  0  0  0
  -26.2159  -12.8355   20.1573 N   0  0  0  0  0  0  0  0  0  0  0  0
  -33.4248  -23.4911   19.0177 N   0  0  0  0  0  0  0  0  0  0  0  0
  -29.9376  -13.6635   20.3735 N   0  0  0  0  0  0  0  0  0  0  0  0
  -25.4247  -15.0551   20.3990 N   0  0  0  0  0  0  0  0  0  0  0  0
  -21.8631  -12.5444   21.5853 N   0  0  0  0  0  0  0  0  0  0  0  0
  -30.0227  -15.7458   21.4777 N   0  0  0  0  0  0  0  0  0  0  0  0
  -36.0215  -25.8799   18.0972 N   0  0  0  0  0  0  0  0  0  0  0  0
  -30.1740  -22.5929   19.3073 N   0  0  0  0  0  0  0  0  0  0  0  0
  -29.4278  -19.1471   18.5093 N   0  3  0  0  0  0  0  0  0  0  0  0
  -22.6164  -14.6919   21.3038 O   0  0  0  0  0  0  0  0  0  0  0  0
  -34.7302  -25.4627   19.9895 O   0  0  0  0  0  0  0  0  0  0  0  0
  -31.6841  -24.6096   17.9430 O   0  0  0  0  0  0  0  0  0  0  0  0
  -30.8056  -20.6674   20.4345 O   0  0  0  0  0  0  0  0  0  0  0  0
  -31.8111  -15.0064   20.1983 O   0  0  0  0  0  0  0  0  0  0  0  0
  -21.6495   -6.9788   21.7027 O   0  0  0  0  0  0  0  0  0  0  0  0
  -37.3936  -19.7304   21.8741 O   0  0  0  0  0  0  0  0  0  1  0  0
  -16.4914   -6.7351   19.7693 F   0  0  0  0  0  0  0  0  0  0  0  0
  -20.8975   -5.0113   19.9122 F   0  0  0  0  0  0  0  0  0  0  0  0
  1  2  1  0  0  0  0
  1  6  2  0  0  0  0
  2  7  2  0  0  0  0
  3 10  2  0  0  0  0
  3 18  1  0  0  0  0
  4 11  1  0  0  0  0
  4 18  2  0  0  0  0
  5  9  2  0  0  0  0
  5 19  1  0  0  0  0
  6 21  1  0  0  0  0
  7 23  1  0  0  0  0
  8 12  2  0  0  0  0
  8 22  1  0  0  0  0
  9 25  1  0  0  0  0
 10 27  1  0  0  0  0
 11 27  2  0  0  0  0
 12 28  1  0  0  0  0
 13 14  2  0  0  0  0
 13 29  1  0  0  0  0
 14 30  1  0  0  0  0
 15 19  2  0  0  0  0
 15 26  1  0  0  0  0
 16 24  1  0  0  0  0
 16 28  2  0  0  0  0
 17 30  2  0  0  0  0
 17 31  1  0  0  0  0
 18 32  1  0  0  0  0
 19 35  1  0  0  0  0
 20 32  1  0  0  0  0
 20 33  2  0  0  0  0
 20 39  1  0  0  0  0
 21 23  2  0  0  0  0
 21 45  1  0  0  0  0
 22 24  2  0  0  0  0
 22 46  1  0  0  0  0
 23 54  1  0  0  0  0
 24 47  1  0  0  0  0
 25 26  2  0  0  0  0
 25 57  1  0  0  0  0
 26 73  1  0  0  0  0
 27 82  1  0  0  0  0
 28 83  1  0  0  0  0
 29 31  2  0  0  0  0
 29 82  1  0  0  0  0
 30 84  1  0  0  0  0
 31 85  1  0  0  0  0
 32 67  2  0  0  0  0
 33 68  1  0  0  0  0
 33 71  1  0  0  0  0
 34 36  2  0  0  0  0
 35 37  2  0  0  0  0
 36 40  1  0  0  0  0
 37 40  1  0  0  0  0
 38 40  2  0  0  0  0
 38 63  1  0  0  0  0
 39 72  1  0  0  0  0
 39 77  2  0  0  0  0
 41 55  1  0  0  0  0
 41 74  1  0  0  0  0
 41 78  2  0  0  0  0
 42 64  1  0  0  0  0
 42 69  1  0  0  0  0
 42 79  2  0  0  0  0
 43 65  1  0  0  0  0
 43 75  1  0  0  0  0
 43 80  2  0  0  0  0
 44 70  1  0  0  0  0
 44 73  1  0  0  0  0
 44 81  2  0  0  0  0
 45 48  1  0  0  0  0
 46 55  1  0  0  0  0
 47 69  1  0  0  0  0
 48 50  1  0  0  0  0
 49 51  1  0  0  0  0
 49 52  1  0  0  0  0
 50 54  1  0  0  0  0
 51 56  1  0  0  0  0
 52 70  1  0  0  0  0
 53 56  1  0  0  0  0
 53 70  1  0  0  0  0
 54 74  1  0  0  0  0
 55 69  1  0  0  0  0
 56 68  1  0  0  0  0
 58 65  1  0  0  0  0
 59 66  1  0  0  0  0
 60 66  1  0  0  0  0
 61 66  1  0  0  0  0
 62 76  1  0  0  0  0
 63 83  1  0  0  0  0
 64 66  1  0  0  0  0
 64 75  1  0  0  0  0
 65 76  1  0  0  0  0
 67 68  1  0  0  0  0
M  CHG  1  76   1
M  ISO  4  44 100  63 101  73 100  83 101
M  END
> <Batch ID>
0123

> <Smiles>
C=CC(C=Cc1ccc(C)c([100NH:0][100C:0](=O)N2CCCC(n3nc(-c4ccc(Oc5ccc(F)cc5F)cc4)c(C(N)=O)c3N)C2)c1)=C[101CH2:1][101O:1]c1ccc2c(c1)CN(C(=O)C(NC(=O)C(C)NC)C(C)(C)C)C(C(=O)NC1CCCc3ccccc31)C2

> <Shape>
0.200

> <Color>
0.198

> <Negative vol penalty>
0.000

$$$$

  -OEChem-04052302033D

 85 94  0     1  0  0  0  0  0999 V2000
  -23.1221  -10.8083   18.5962 C   0  0  0  0  0  0  0  0  0  0  0  0
  -22.4798  -12.0388   18.6888 C   0  0  0  0  0  0  0  0  0  0  0  0
  -29.7275  -26.8385   20.6096 C   0  0  0  0  0  0  0  0  0  0  0  0
  -28.3033  -26.3446   22.4976 C   0  0  0  0  0  0  0  0  0  0  0  0
  -24.3188  -10.5948   19.2789 C   0  0  0  0  0  0  0  0  0  0  0  0
  -23.0333  -13.0563   19.4651 C   0  0  0  0  0  0  0  0  0  0  0  0
  -22.8434  -19.0713   18.3295 C   0  0  0  0  0  0  0  0  0  0  0  0
  -18.6721  -28.8903   22.3490 C   0  0  0  0  0  0  0  0  0  0  0  0
  -17.8958  -27.9242   21.7091 C   0  0  0  0  0  0  0  0  0  0  0  0
  -30.8220  -26.3158   21.2984 C   0  0  0  0  0  0  0  0  0  0  0  0
  -29.3977  -25.8219   23.1865 C   0  0  0  0  0  0  0  0  0  0  0  0
  -22.0239  -20.0913   18.8109 C   0  0  0  0  0  0  0  0  0  0  0  0
  -32.0463  -27.0067   24.9221 C   0  0  0  0  0  0  0  0  0  0  0  0
  -32.2085  -27.3764   26.2572 C   0  0  0  0  0  0  0  0  0  0  0  0
  -23.6905  -20.6409   20.4661 C   0  0  0  0  0  0  0  0  0  0  0  0
  -20.1119  -27.1565   23.2199 C   0  0  0  0  0  0  0  0  0  0  0  0
  -32.0483  -25.0583   26.9187 C   0  0  0  0  0  0  0  0  0  0  0  0
  -28.4681  -26.8529   21.2092 C   0  0  0  0  0  0  0  0  0  0  0  0
  -26.8139  -26.9483   19.2695 C   0  0  0  0  0  0  0  0  0  0  0  0
  -24.8923  -11.6134   20.0562 C   0  0  0  0  0  0  0  0  0  0  0  0
  -24.0900  -18.8209   18.9208 C   0  0  0  0  0  0  0  0  0  0  0  0
  -24.2382  -12.8558   20.1600 C   0  0  0  0  0  0  0  0  0  0  0  0
  -24.5250  -19.6188   19.9887 C   0  0  0  0  0  0  0  0  0  0  0  0
  -19.7803  -28.5065   23.1044 C   0  0  0  0  0  0  0  0  0  0  0  0
  -18.2275  -26.5742   21.8246 C   0  0  0  0  0  0  0  0  0  0  0  0
  -19.3355  -26.1904   22.5800 C   0  0  0  0  0  0  0  0  0  0  0  0
  -30.6571  -25.8075   22.5868 C   0  0  0  0  0  0  0  0  0  0  0  0
  -22.4462  -20.8744   19.8812 C   0  0  0  0  0  0  0  0  0  0  0  0
  -31.8850  -25.6627   24.5852 C   0  0  0  0  0  0  0  0  0  0  0  0
  -32.2095  -26.4022   27.2555 C   0  0  0  0  0  0  0  0  0  0  0  0
  -31.8860  -24.6885   25.5835 C   0  0  0  0  0  0  0  0  0  0  0  0
  -27.3373  -27.3933   20.4983 C   0  0  0  0  0  0  0  0  0  0  0  0
  -25.7513  -27.7838   19.0262 C   0  0  0  0  0  0  0  0  0  0  0  0
  -20.4591  -22.7286   22.2261 C   0  0  0  0  0  0  0  0  0  0  0  0
  -21.2431  -21.8067   21.6572 C   0  0  0  0  0  0  0  0  0  1  0  0
  -27.2494  -25.8756   18.4237 C   0  0  0  0  0  0  0  0  0  0  0  0
  -25.3976  -16.3531   20.4387 C   0  0  0  0  0  0  0  0  0  0  0  0
  -28.0606  -18.2026   20.3385 C   0  0  0  0  0  0  0  0  0  0  0  0
  -29.4100  -21.3282   20.1006 C   0  0  0  0  0  0  0  0  0  0  0  0
  -22.2090  -31.0236   22.6049 C   0  0  0  0  0  0  0  0  0  0  0  0
  -26.1629  -11.3201   20.8141 C   0  0  0  0  0  0  0  0  0  0  0  0
  -24.9737  -17.7342   18.3726 C   0  0  0  0  0  0  0  0  0  0  0  0
  -25.8633  -19.4038   20.6454 C   0  0  0  0  0  0  0  0  0  0  0  0
  -19.9910  -22.7019   23.6467 C   0  0  0  0  0  0  0  0  0  0  0  0
  -20.0155  -24.0025   21.5719 C   0  0  0  0  0  0  0  0  0  0  0  0
  -26.8769  -12.5733   21.3142 C   0  0  0  0  0  0  0  0  0  0  0  0
  -24.2000  -32.2231   19.9079 C   0  0  0  0  0  0  0  0  0  0  0  0
  -25.8844  -13.5262   21.9728 C   0  0  0  0  0  0  0  0  0  0  0  0
  -25.1826  -31.0811   19.6425 C   0  0  0  0  0  0  0  0  0  0  0  0
  -19.8605  -24.1833   23.9892 C   0  0  0  0  0  0  0  0  0  0  0  0
  -23.8988  -32.3737   21.3974 C   0  0  0  0  0  0  0  0  0  0  0  0
  -24.4219  -29.9991   21.7987 C   0  0  0  0  0  0  0  0  0  0  0  0
  -24.8201  -13.9925   20.9721 C   0  0  1  0  0  0  0  0  0  0  0  0
  -26.0022  -17.2341   19.3823 C   0  0  1  0  0  0  0  0  0  0  0  0
  -24.7132  -29.7721   20.3054 C   0  0  2  0  0  0  0  0  0  0  0  0
  -17.3773  -25.5606   21.1301 C   0  0  0  0  0  0  0  0  0  0  0  0
  -31.6152  -22.5259   20.0855 C   0  0  0  0  0  0  0  0  0  0  0  0
  -28.2793  -17.8328   23.3593 C   0  0  0  0  0  0  0  0  0  0  0  0
  -29.8714  -19.7643   23.4104 C   0  0  0  0  0  0  0  0  0  0  0  0
  -30.4546  -17.7030   22.1323 C   0  0  0  0  0  0  0  0  0  0  0  0
  -28.9448  -22.3929   17.3786 C   0  0  0  0  0  0  0  0  0  0  0  0
  -20.6099  -29.5398   23.7883 C   0  0  0  0  0  0  0  0  0  0  0  0
  -28.6678  -19.2521   21.2378 C   0  0  1  0  0  0  0  0  0  0  0  0
  -30.5314  -21.8782   19.2378 C   0  0  2  0  0  0  0  0  0  0  0  0
  -29.2922  -18.6411   22.5241 C   0  0  0  0  0  0  0  0  0  0  0  0
  -26.6628  -28.4310   21.0006 N   0  0  0  0  0  0  0  0  0  0  0  0
  -25.7047  -28.6451   20.0827 N   0  0  0  0  0  0  0  0  0  0  0  0
  -19.6774  -24.8583   22.7065 N   0  0  3  0  0  0  0  0  0  0  0  0
  -26.6885  -18.3249   20.0774 N   0  0  0  0  0  0  0  0  0  0  0  0
  -23.4572  -31.0975   21.9650 N   0  0  0  0  0  0  0  0  0  0  0  0
  -24.8616  -27.8585   18.0137 N   0  0  0  0  0  0  0  0  0  0  0  0
  -28.1993  -26.1512   17.4307 N   0  0  0  0  0  0  0  0  0  0  0  0
  -25.3592  -15.0139   20.1002 N   0  0  0  0  0  0  0  0  0  0  0  0
  -29.6106  -20.0003   20.4133 N   0  0  0  0  0  0  0  0  0  0  0  0
  -21.8645  -29.7755   23.1092 N   0  0  0  0  0  0  0  0  0  0  0  0
  -30.0026  -22.8997   18.2903 N   0  3  0  0  0  0  0  0  0  0  0  0
  -26.7971  -24.7109   18.5342 O   0  0  0  0  0  0  0  0  0  0  0  0
  -24.9970  -16.8513   21.4842 O   0  0  0  0  0  0  0  0  0  0  0  0
  -28.7788  -17.3113   19.8786 O   0  0  0  0  0  0  0  0  0  0  0  0
  -28.4538  -22.0094   20.4640 O   0  0  0  0  0  0  0  0  0  0  0  0
  -21.4549  -31.9964   22.7137 O   0  0  0  0  0  0  0  0  0  0  0  0
  -31.7248  -25.2971   23.2592 O   0  0  0  0  0  0  0  0  0  0  0  0
  -21.6480  -21.8703   20.3534 O   0  0  0  0  0  0  0  0  0  1  0  0
  -32.3669  -26.7573   28.5374 F   0  0  0  0  0  0  0  0  0  0  0  0
  -31.7327  -23.3957   25.2660 F   0  0  0  0  0  0  0  0  0  0  0  0
  1  2  1  0  0  0  0
  1  5  2  0  0  0  0
  2  6  2  0  0  0  0
  3 10  2  0  0  0  0
  3 18  1  0  0  0  0
  4 11  1  0  0  0  0
  4 18  2  0  0  0  0
  5 20  1  0  0  0  0
  6 22  1  0  0  0  0
  7 12  2  0  0  0  0
  7 21  1  0  0  0  0
  8  9  2  0  0  0  0
  8 24  1  0  0  0  0
  9 25  1  0  0  0  0
 10 27  1  0  0  0  0
 11 27  2  0  0  0  0
 12 28  1  0  0  0  0
 13 14  2  0  0  0  0
 13 29  1  0  0  0  0
 14 30  1  0  0  0  0
 15 23  1  0  0  0  0
 15 28  2  0  0  0  0
 16 24  2  0  0  0  0
 16 26  1  0  0  0  0
 17 30  2  0  0  0  0
 17 31  1  0  0  0  0
 18 32  1  0  0  0  0
 19 32  1  0  0  0  0
 19 33  2  0  0  0  0
 19 36  1  0  0  0  0
 20 22  2  0  0  0  0
 20 41  1  0  0  0  0
 21 23  2  0  0  0  0
 21 42  1  0  0  0  0
 22 53  1  0  0  0  0
 23 43  1  0  0  0  0
 24 62  1  0  0  0  0
 25 26  2  0  0  0  0
 25 56  1  0  0  0  0
 26 68  1  0  0  0  0
 27 82  1  0  0  0  0
 28 83  1  0  0  0  0
 29 31  2  0  0  0  0
 29 82  1  0  0  0  0
 30 84  1  0  0  0  0
 31 85  1  0  0  0  0
 32 66  2  0  0  0  0
 33 67  1  0  0  0  0
 33 71  1  0  0  0  0
 34 35  2  0  0  0  0
 34 44  1  0  0  0  0
 34 45  1  0  0  0  0
 35 83  1  0  0  0  0
 36 72  1  0  0  0  0
 36 77  2  0  0  0  0
 37 54  1  0  0  0  0
 37 73  1  0  0  0  0
 37 78  2  0  0  0  0
 38 63  1  0  0  0  0
 38 69  1  0  0  0  0
 38 79  2  0  0  0  0
 39 64  1  0  0  0  0
 39 74  1  0  0  0  0
 39 80  2  0  0  0  0
 40 70  1  0  0  0  0
 40 75  1  0  0  0  0
 40 81  2  0  0  0  0
 41 46  1  0  0  0  0
 42 54  1  0  0  0  0
 43 69  1  0  0  0  0
 44 50  1  0  0  0  0
 45 68  1  0  0  0  0
 46 48  1  0  0  0  0
 47 49  1  0  0  0  0
 47 51  1  0  0  0  0
 48 53  1  0  0  0  0
 49 55  1  0  0  0  0
 50 68  1  0  0  0  0
 51 70  1  0  0  0  0
 52 55  1  0  0  0  0
 52 70  1  0  0  0  0
 53 73  1  0  0  0  0
 54 69  1  0  0  0  0
 55 67  1  0  0  0  0
 57 64  1  0  0  0  0
 58 65  1  0  0  0  0
 59 65  1  0  0  0  0
 60 65  1  0  0  0  0
 61 76  1  0  0  0  0
 62 75  1  0  0  0  0
 63 65  1  0  0  0  0
 63 74  1  0  0  0  0
 64 76  1  0  0  0  0
 66 67  1  0  0  0  0
M  CHG  1  76   1
M  ISO  4  35 101  40 100  75 100  83 101
M  END
> <Batch ID>
0123

> <Smiles>
CNC(C)C(=O)NC(C(=O)N1Cc2cc([101O:1][101CH:1]=C3CCN(c4cc(C[100NH:0][100C:0](=O)N5CCCC(n6nc(-c7ccc(Oc8ccc(F)cc8F)cc7)c(C(N)=O)c6N)C5)ccc4C)C3)ccc2CC1C(=O)NC1CCCc2ccccc21)C(C)(C)C

> <Shape>
0.235

> <Color>
0.083

> <Negative vol penalty>
0.000

$$$$

  -OEChem-04052302033D

 84 92  0     1  0  0  0  0  0999 V2000
  -28.5374  -24.4536   17.4279 C   0  0  0  0  0  0  0  0  0  0  0  0
  -27.3560  -24.6271   18.1418 C   0  0  0  0  0  0  0  0  0  0  0  0
  -28.6710  -13.8099   20.0206 C   0  0  0  0  0  0  0  0  0  0  0  0
  -26.5688  -14.8258   19.3994 C   0  0  0  0  0  0  0  0  0  0  0  0
  -29.7033  -25.0939   17.8456 C   0  0  0  0  0  0  0  0  0  0  0  0
  -27.3401  -25.4403   19.2745 C   0  0  0  0  0  0  0  0  0  0  0  0
  -23.3311  -28.5321   19.3905 C   0  0  0  0  0  0  0  0  0  0  0  0
  -28.0093  -12.6162   20.3081 C   0  0  0  0  0  0  0  0  0  0  0  0
  -25.9070  -13.6320   19.6868 C   0  0  0  0  0  0  0  0  0  0  0  0
  -22.1117  -27.9792   19.7792 C   0  0  0  0  0  0  0  0  0  0  0  0
  -25.4129  -10.6389   18.1977 C   0  0  0  0  0  0  0  0  0  0  0  0
  -24.4630  -10.1892   17.2806 C   0  0  0  0  0  0  0  0  0  0  0  0
  -23.7609  -23.3209   21.4520 C   0  0  0  0  0  0  0  0  0  0  0  0
  -22.4119  -28.8888   21.9932 C   0  0  0  0  0  0  0  0  0  0  0  0
  -26.0505  -23.5592   23.0279 C   0  0  0  0  0  0  0  0  0  0  0  0
  -22.7614  -10.2926   18.9926 C   0  0  0  0  0  0  0  0  0  0  0  0
  -27.9508  -14.9147   19.5664 C   0  0  0  0  0  0  0  0  0  0  0  0
  -23.7479  -24.1390   22.5816 C   0  0  0  0  0  0  0  0  0  0  0  0
  -29.1868  -16.5383   18.0354 C   0  0  0  0  0  0  0  0  0  0  0  0
  -29.6995  -25.9230   18.9785 C   0  0  0  0  0  0  0  0  0  0  0  0
  -24.1065  -29.2595   20.3049 C   0  0  0  0  0  0  0  0  0  0  0  0
  -28.5074  -26.0912   19.7085 C   0  0  0  0  0  0  0  0  0  0  0  0
  -23.6395  -29.4521   21.6129 C   0  0  0  0  0  0  0  0  0  0  0  0
  -24.9186  -22.6218   21.1104 C   0  0  0  0  0  0  0  0  0  0  0  0
  -24.8927  -24.2582   23.3696 C   0  0  0  0  0  0  0  0  0  0  0  0
  -26.0634  -22.7410   21.8983 C   0  0  0  0  0  0  0  0  0  0  0  0
  -26.6273  -12.5272   20.1412 C   0  0  0  0  0  0  0  0  0  0  0  0
  -21.6532  -28.1551   21.0815 C   0  0  0  0  0  0  0  0  0  0  0  0
  -25.0371  -10.9153   19.5122 C   0  0  0  0  0  0  0  0  0  0  0  0
  -23.1372  -10.0161   17.6780 C   0  0  0  0  0  0  0  0  0  0  0  0
  -23.7113  -10.7422   19.9097 C   0  0  0  0  0  0  0  0  0  0  0  0
  -28.6338  -16.1483   19.2698 C   0  0  0  0  0  0  0  0  0  0  0  0
  -29.7166  -17.7828   18.2743 C   0  0  0  0  0  0  0  0  0  0  0  0
  -22.5108  -24.8640   22.9164 C   0  0  0  0  0  0  0  0  0  0  0  0
  -21.2662  -24.4308   22.6615 C   0  0  0  0  0  0  0  0  0  0  0  0
  -29.2187  -15.8383   16.7845 C   0  0  0  0  0  0  0  0  0  0  0  0
  -27.0066  -28.9149   21.5598 C   0  0  0  0  0  0  0  0  0  0  0  0
  -26.3746  -31.8289   22.8370 C   0  0  0  0  0  0  0  0  0  0  0  0
  -24.0412  -34.1134   23.8285 C   0  0  0  0  0  0  0  0  0  0  0  0
  -28.4617  -22.0579   22.2560 C   0  0  0  0  0  0  0  0  0  0  0  0
  -30.9955  -26.5565   19.4187 C   0  0  0  0  0  0  0  0  0  0  0  0
  -25.4070  -29.8722   19.8624 C   0  0  0  0  0  0  0  0  0  0  0  0
  -24.4246  -30.2419   22.6270 C   0  0  0  0  0  0  0  0  0  0  0  0
  -30.8078  -27.6996   20.4130 C   0  0  0  0  0  0  0  0  0  0  0  0
  -31.5985  -20.4404   21.7857 C   0  0  0  0  0  0  0  0  0  0  0  0
  -29.8282  -27.2968   21.5107 C   0  0  0  0  0  0  0  0  0  0  0  0
  -31.2454  -19.1948   20.9696 C   0  0  0  0  0  0  0  0  0  0  0  0
  -30.5153  -20.7731   22.8102 C   0  0  0  0  0  0  0  0  0  0  0  0
  -28.8040  -19.6404   21.4472 C   0  0  0  0  0  0  0  0  0  0  0  0
  -28.4444  -26.9850   20.9280 C   0  0  1  0  0  0  0  0  0  0  0  0
  -26.3575  -30.1582   21.0209 C   0  0  1  0  0  0  0  0  0  0  0  0
  -29.8350  -19.3032   20.3577 C   0  0  2  0  0  0  0  0  0  0  0  0
  -24.9034  -21.7519   19.8954 C   0  0  0  0  0  0  0  0  0  0  0  0
  -24.9147  -25.1258   24.5871 C   0  0  0  0  0  0  0  0  0  0  0  0
  -23.8282  -36.3868   24.8693 C   0  0  0  0  0  0  0  0  0  0  0  0
  -27.0470  -30.6401   25.5655 C   0  0  0  0  0  0  0  0  0  0  0  0
  -25.9244  -32.6120   26.6237 C   0  0  0  0  0  0  0  0  0  0  0  0
  -27.9347  -32.9470   25.1852 C   0  0  0  0  0  0  0  0  0  0  0  0
  -22.6602  -35.2015   21.4478 C   0  0  0  0  0  0  0  0  0  0  0  0
  -20.0309  -25.2046   23.0262 C   0  0  0  0  0  0  0  0  0  0  0  0
  -19.2278  -25.5838   21.7833 C   0  0  0  0  0  0  0  0  0  0  0  0
  -20.0564  -26.4134   20.8122 C   0  0  0  0  0  0  0  0  0  1  0  0
  -25.7329  -32.3211   24.1117 C   0  0  1  0  0  0  0  0  0  0  0  0
  -23.9167  -35.6038   23.5687 C   0  0  2  0  0  0  0  0  0  0  0  0
  -26.6457  -32.1135   25.3532 C   0  0  0  0  0  0  0  0  0  0  0  0
  -28.7972  -17.0703   20.2223 N   0  0  0  0  0  0  0  0  0  0  0  0
  -29.4590  -18.0519   19.5864 N   0  0  0  0  0  0  0  0  0  0  0  0
  -25.6930  -30.8158   22.1480 N   0  0  0  0  0  0  0  0  0  0  0  0
  -29.2073  -20.8640   22.1577 N   0  0  0  0  0  0  0  0  0  0  0  0
  -30.3730  -18.6621   17.4881 N   0  0  0  0  0  0  0  0  0  0  0  0
  -28.6274  -14.5696   16.7136 N   0  0  0  0  0  0  0  0  0  0  0  0
  -27.2488  -22.0385   21.5682 N   0  0  0  0  0  0  0  0  0  0  0  0
  -27.7371  -28.2100   20.6222 N   0  0  0  0  0  0  0  0  0  0  0  0
  -25.3592  -33.7106   23.8705 N   0  0  0  0  0  0  0  0  0  0  0  0
  -22.6951  -35.8891   22.7642 N   0  3  0  0  0  0  0  0  0  0  0  0
  -29.7700  -16.3166   15.7643 O   0  0  0  0  0  0  0  0  0  0  0  0
  -26.8570  -28.6178   22.7392 O   0  0  0  0  0  0  0  0  0  0  0  0
  -27.4378  -32.3300   22.4625 O   0  0  0  0  0  0  0  0  0  0  0  0
  -23.0667  -33.3805   23.9828 O   0  0  0  0  0  0  0  0  0  0  0  0
  -28.8815  -23.0357   22.8802 O   0  0  0  0  0  0  0  0  0  0  0  0
  -25.9812  -11.3624   20.4213 O   0  0  0  0  0  0  0  0  0  0  0  0
  -20.4636  -27.6159   21.4637 O   0  0  0  0  0  0  0  0  0  1  0  0
  -22.2248   -9.5858   16.7969 F   0  0  0  0  0  0  0  0  0  0  0  0
  -23.3441  -11.0073   21.1709 F   0  0  0  0  0  0  0  0  0  0  0  0
  1  2  1  0  0  0  0
  1  5  2  0  0  0  0
  2  6  2  0  0  0  0
  3  8  2  0  0  0  0
  3 17  1  0  0  0  0
  4  9  1  0  0  0  0
  4 17  2  0  0  0  0
  5 20  1  0  0  0  0
  6 22  1  0  0  0  0
  7 10  2  0  0  0  0
  7 21  1  0  0  0  0
  8 27  1  0  0  0  0
  9 27  2  0  0  0  0
 10 28  1  0  0  0  0
 11 12  2  0  0  0  0
 11 29  1  0  0  0  0
 12 30  1  0  0  0  0
 13 18  1  0  0  0  0
 13 24  2  0  0  0  0
 14 23  1  0  0  0  0
 14 28  2  0  0  0  0
 15 25  1  0  0  0  0
 15 26  2  0  0  0  0
 16 30  2  0  0  0  0
 16 31  1  0  0  0  0
 17 32  1  0  0  0  0
 18 25  2  0  0  0  0
 18 34  1  0  0  0  0
 19 32  1  0  0  0  0
 19 33  2  0  0  0  0
 19 36  1  0  0  0  0
 20 22  2  0  0  0  0
 20 41  1  0  0  0  0
 21 23  2  0  0  0  0
 21 42  1  0  0  0  0
 22 50  1  0  0  0  0
 23 43  1  0  0  0  0
 24 26  1  0  0  0  0
 24 53  1  0  0  0  0
 25 54  1  0  0  0  0
 26 72  1  0  0  0  0
 27 81  1  0  0  0  0
 28 82  1  0  0  0  0
 29 31  2  0  0  0  0
 29 81  1  0  0  0  0
 30 83  1  0  0  0  0
 31 84  1  0  0  0  0
 32 66  2  0  0  0  0
 33 67  1  0  0  0  0
 33 70  1  0  0  0  0
 34 35  2  0  0  0  0
 35 60  1  0  0  0  0
 36 71  1  0  0  0  0
 36 76  2  0  0  0  0
 37 51  1  0  0  0  0
 37 73  1  0  0  0  0
 37 77  2  0  0  0  0
 38 63  1  0  0  0  0
 38 68  1  0  0  0  0
 38 78  2  0  0  0  0
 39 64  1  0  0  0  0
 39 74  1  0  0  0  0
 39 79  2  0  0  0  0
 40 69  1  0  0  0  0
 40 72  1  0  0  0  0
 40 80  2  0  0  0  0
 41 44  1  0  0  0  0
 42 51  1  0  0  0  0
 43 68  1  0  0  0  0
 44 46  1  0  0  0  0
 45 47  1  0  0  0  0
 45 48  1  0  0  0  0
 46 50  1  0  0  0  0
 47 52  1  0  0  0  0
 48 69  1  0  0  0  0
 49 52  1  0  0  0  0
 49 69  1  0  0  0  0
 50 73  1  0  0  0  0
 51 68  1  0  0  0  0
 52 67  1  0  0  0  0
 55 64  1  0  0  0  0
 56 65  1  0  0  0  0
 57 65  1  0  0  0  0
 58 65  1  0  0  0  0
 59 75  1  0  0  0  0
 60 61  1  0  0  0  0
 61 62  1  0  0  0  0
 62 82  1  0  0  0  0
 63 65  1  0  0  0  0
 63 74  1  0  0  0  0
 64 75  1  0  0  0  0
 66 67  1  0  0  0  0
M  CHG  1  75   1
M  ISO  4  40 100  62 101  72 100  82 101
M  END
> <Batch ID>
0123

> <Smiles>
CNC(C)C(=O)NC(C(=O)N1Cc2cc([101O:1][101CH2:1]CCC=Cc3cc(C)c([100NH:0][100C:0](=O)N4CCCC(n5nc(-c6ccc(Oc7ccc(F)cc7F)cc6)c(C(N)=O)c5N)C4)cc3C)ccc2CC1C(=O)NC1CCCc2ccccc21)C(C)(C)C

> <Shape>
0.302

> <Color>
0.067

> <Negative vol penalty>
0.000

$$$$

  -OEChem-04052302033D

 83 91  0     1  0  0  0  0  0999 V2000
  -31.0114  -31.8188   25.3568 C   0  0  0  0  0  0  0  0  0  0  0  0
  -30.3909  -30.7808   24.6691 C   0  0  0  0  0  0  0  0  0  0  0  0
  -24.4989   -8.8744   21.4560 C   0  0  0  0  0  0  0  0  0  0  0  0
  -24.3177  -10.2602   23.4268 C   0  0  0  0  0  0  0  0  0  0  0  0
  -30.2406  -32.7969   25.9838 C   0  0  0  0  0  0  0  0  0  0  0  0
  -28.9991  -30.7197   24.6090 C   0  0  0  0  0  0  0  0  0  0  0  0
  -27.3002  -29.6570   19.9582 C   0  0  0  0  0  0  0  0  0  0  0  0
  -28.1657  -21.2400   21.1781 C   0  0  0  0  0  0  0  0  0  0  0  0
  -27.9250  -19.8748   21.3329 C   0  0  0  0  0  0  0  0  0  0  0  0
  -24.2250   -7.7439   22.2257 C   0  0  0  0  0  0  0  0  0  0  0  0
  -24.0437   -9.1297   24.1965 C   0  0  0  0  0  0  0  0  0  0  0  0
  -27.3693  -28.3277   19.5434 C   0  0  0  0  0  0  0  0  0  0  0  0
  -23.2173   -4.5365   23.6084 C   0  0  0  0  0  0  0  0  0  0  0  0
  -22.3029   -3.6129   23.1019 C   0  0  0  0  0  0  0  0  0  0  0  0
  -28.2893  -20.9465   18.7831 C   0  0  0  0  0  0  0  0  0  0  0  0
  -25.0293  -28.0512   20.0602 C   0  0  0  0  0  0  0  0  0  0  0  0
  -20.5954   -5.3219   23.0685 C   0  0  0  0  0  0  0  0  0  0  0  0
  -24.5453  -10.1326   22.0565 C   0  0  0  0  0  0  0  0  0  0  0  0
  -28.0486  -19.5813   18.9380 C   0  0  0  0  0  0  0  0  0  0  0  0
  -23.8989  -12.1234   20.5983 C   0  0  0  0  0  0  0  0  0  0  0  0
  -28.8388  -32.7531   25.9232 C   0  0  0  0  0  0  0  0  0  0  0  0
  -26.0957  -30.1912   20.4382 C   0  0  0  0  0  0  0  0  0  0  0  0
  -28.2088  -31.6974   25.2369 C   0  0  0  0  0  0  0  0  0  0  0  0
  -24.9469  -29.3882   20.4781 C   0  0  0  0  0  0  0  0  0  0  0  0
  -28.3478  -21.7758   19.9031 C   0  0  0  0  0  0  0  0  0  0  0  0
  -27.8665  -19.0455   20.2129 C   0  0  0  0  0  0  0  0  0  0  0  0
  -23.9974   -7.8715   23.5960 C   0  0  0  0  0  0  0  0  0  0  0  0
  -26.2344  -27.5238   19.5971 C   0  0  0  0  0  0  0  0  0  0  0  0
  -22.8207   -5.8527   23.8451 C   0  0  0  0  0  0  0  0  0  0  0  0
  -20.9920   -4.0056   22.8319 C   0  0  0  0  0  0  0  0  0  0  0  0
  -21.5098   -6.2454   23.5752 C   0  0  0  0  0  0  0  0  0  0  0  0
  -24.8287  -11.3007   21.2621 C   0  0  0  0  0  0  0  0  0  0  0  0
  -24.6657  -13.0880   19.9916 C   0  0  0  0  0  0  0  0  0  0  0  0
  -29.0132  -18.5752   16.9200 C   0  0  0  0  0  0  0  0  0  0  0  0
  -27.9936  -18.7409   17.7489 C   0  0  0  0  0  0  0  0  0  0  0  0
  -22.4700  -12.0246   20.5358 C   0  0  0  0  0  0  0  0  0  0  0  0
  -25.1350  -31.4282   23.2041 C   0  0  0  0  0  0  0  0  0  0  0  0
  -27.3419  -24.0712   19.5718 C   0  0  0  0  0  0  0  0  0  0  0  0
  -28.8664  -16.7732   20.2445 C   0  0  0  0  0  0  0  0  0  0  0  0
  -22.4300  -32.0683   21.5321 C   0  0  0  0  0  0  0  0  0  0  0  0
  -20.4094  -31.3076   18.8891 C   0  0  0  0  0  0  0  0  0  0  0  0
  -28.0472  -33.8067   26.6566 C   0  0  0  0  0  0  0  0  0  0  0  0
  -26.0313  -31.6344   20.8567 C   0  0  0  0  0  0  0  0  0  0  0  0
  -23.6247  -29.9194   20.9661 C   0  0  0  0  0  0  0  0  0  0  0  0
  -26.5835  -33.8767   26.2288 C   0  0  0  0  0  0  0  0  0  0  0  0
  -29.6633  -13.4009   19.3321 C   0  0  0  0  0  0  0  0  0  0  0  0
  -25.9784  -32.4779   26.1654 C   0  0  0  0  0  0  0  0  0  0  0  0
  -28.4120  -12.6171   19.7262 C   0  0  0  0  0  0  0  0  0  0  0  0
  -29.9353  -14.5443   20.3046 C   0  0  0  0  0  0  0  0  0  0  0  0
  -27.5320  -14.7001   20.8716 C   0  0  0  0  0  0  0  0  0  0  0  0
  -26.7019  -31.6103   25.1283 C   0  0  1  0  0  0  0  0  0  0  0  0
  -24.8779  -31.9289   21.8109 C   0  0  1  0  0  0  0  0  0  0  0  0
  -27.2037  -13.5546   19.8977 C   0  0  2  0  0  0  0  0  0  0  0  0
  -18.2491  -31.9799   17.8037 C   0  0  0  0  0  0  0  0  0  0  0  0
  -20.8801  -30.6266   23.7296 C   0  0  0  0  0  0  0  0  0  0  0  0
  -18.9273  -30.4931   22.1684 C   0  0  0  0  0  0  0  0  0  0  0  0
  -19.7963  -32.7177   22.8887 C   0  0  0  0  0  0  0  0  0  0  0  0
  -21.7719  -32.0470   16.3680 C   0  0  0  0  0  0  0  0  0  0  0  0
  -28.6077  -23.2499   19.7373 C   0  0  0  0  0  0  0  0  0  0  0  0
  -27.6086  -17.5870   20.4166 C   0  0  0  0  0  0  0  0  0  0  0  0
  -27.5498  -25.5574   19.3540 C   0  0  0  0  0  0  0  0  0  1  0  0
  -21.1419  -31.3298   21.2592 C   0  0  1  0  0  0  0  0  0  0  0  0
  -19.7557  -32.1840   17.8360 C   0  0  2  0  0  0  0  0  0  0  0  0
  -20.2116  -31.2809   22.5041 C   0  0  0  0  0  0  0  0  0  0  0  0
  -26.0897  -11.7071   21.0929 N   0  0  0  0  0  0  0  0  0  0  0  0
  -25.9578  -12.7956   20.3159 N   0  0  0  0  0  0  0  0  0  0  0  0
  -23.6141  -31.3350   21.3703 N   0  0  0  0  0  0  0  0  0  0  0  0
  -28.7565  -15.3989   20.4571 N   0  0  0  0  0  0  0  0  0  0  0  0
  -24.3541  -14.1493   19.2176 N   0  0  0  0  0  0  0  0  0  0  0  0
  -21.8426  -10.9726   21.2170 N   0  0  0  0  0  0  0  0  0  0  0  0
  -26.2697  -31.9552   23.7909 N   0  0  0  0  0  0  0  0  0  0  0  0
  -20.5446  -31.9687   20.0916 N   0  0  0  0  0  0  0  0  0  0  0  0
  -20.3020  -31.8668   16.4862 N   0  3  0  0  0  0  0  0  0  0  0  0
  -21.7714  -12.8354   19.8815 O   0  0  0  0  0  0  0  0  0  0  0  0
  -24.3605  -30.6245   23.7098 O   0  0  0  0  0  0  0  0  0  0  0  0
  -26.2164  -23.5757   19.6106 O   0  0  0  0  0  0  0  0  0  0  0  0
  -29.9136  -17.3433   19.9276 O   0  0  0  0  0  0  0  0  0  0  0  0
  -22.3875  -33.2541   21.8693 O   0  0  0  0  0  0  0  0  0  0  0  0
  -20.7613  -30.1509   18.6683 O   0  0  0  0  0  0  0  0  0  0  0  0
  -23.7299   -6.7686   24.3473 O   0  0  0  0  0  0  0  0  0  0  0  0
  -26.2992  -26.2258   19.1934 O   0  0  0  0  0  0  0  0  0  1  0  0
  -20.1144   -3.1191   22.3440 F   0  0  0  0  0  0  0  0  0  0  0  0
  -21.1233   -7.5088   23.7994 F   0  0  0  0  0  0  0  0  0  0  0  0
  1  2  1  0  0  0  0
  1  5  2  0  0  0  0
  2  6  2  0  0  0  0
  3 10  2  0  0  0  0
  3 18  1  0  0  0  0
  4 11  1  0  0  0  0
  4 18  2  0  0  0  0
  5 21  1  0  0  0  0
  6 23  1  0  0  0  0
  7 12  2  0  0  0  0
  7 22  1  0  0  0  0
  8  9  2  0  0  0  0
  8 25  1  0  0  0  0
  9 26  1  0  0  0  0
 10 27  1  0  0  0  0
 11 27  2  0  0  0  0
 12 28  1  0  0  0  0
 13 14  2  0  0  0  0
 13 29  1  0  0  0  0
 14 30  1  0  0  0  0
 15 19  1  0  0  0  0
 15 25  2  0  0  0  0
 16 24  1  0  0  0  0
 16 28  2  0  0  0  0
 17 30  2  0  0  0  0
 17 31  1  0  0  0  0
 18 32  1  0  0  0  0
 19 26  2  0  0  0  0
 19 35  1  0  0  0  0
 20 32  1  0  0  0  0
 20 33  2  0  0  0  0
 20 36  1  0  0  0  0
 21 23  2  0  0  0  0
 21 42  1  0  0  0  0
 22 24  2  0  0  0  0
 22 43  1  0  0  0  0
 23 51  1  0  0  0  0
 24 44  1  0  0  0  0
 25 59  1  0  0  0  0
 26 60  1  0  0  0  0
 27 80  1  0  0  0  0
 28 81  1  0  0  0  0
 29 31  2  0  0  0  0
 29 80  1  0  0  0  0
 30 82  1  0  0  0  0
 31 83  1  0  0  0  0
 32 65  2  0  0  0  0
 33 66  1  0  0  0  0
 33 69  1  0  0  0  0
 34 35  2  0  0  0  0
 36 70  1  0  0  0  0
 36 74  2  0  0  0  0
 37 52  1  0  0  0  0
 37 71  1  0  0  0  0
 37 75  2  0  0  0  0
 38 59  1  0  0  0  0
 38 61  1  0  0  0  0
 38 76  2  0  0  0  0
 39 60  1  0  0  0  0
 39 68  1  0  0  0  0
 39 77  2  0  0  0  0
 40 62  1  0  0  0  0
 40 67  1  0  0  0  0
 40 78  2  0  0  0  0
 41 63  1  0  0  0  0
 41 72  1  0  0  0  0
 41 79  2  0  0  0  0
 42 45  1  0  0  0  0
 43 52  1  0  0  0  0
 44 67  1  0  0  0  0
 45 47  1  0  0  0  0
 46 48  1  0  0  0  0
 46 49  1  0  0  0  0
 47 51  1  0  0  0  0
 48 53  1  0  0  0  0
 49 68  1  0  0  0  0
 50 53  1  0  0  0  0
 50 68  1  0  0  0  0
 51 71  1  0  0  0  0
 52 67  1  0  0  0  0
 53 66  1  0  0  0  0
 54 63  1  0  0  0  0
 55 64  1  0  0  0  0
 56 64  1  0  0  0  0
 57 64  1  0  0  0  0
 58 73  1  0  0  0  0
 61 81  1  0  0  0  0
 62 64  1  0  0  0  0
 62 72  1  0  0  0  0
 63 73  1  0  0  0  0
 65 66  1  0  0  0  0
M  CHG  1  73   1
M  ISO  4  39 100  60 100  61 101  81 101
M  END
> <Batch ID>
0123

> <Smiles>
C=Cc1cc(CC(=O)[101CH2:1][101O:1]c2ccc3c(c2)CN(C(=O)C(NC(=O)C(C)NC)C(C)(C)C)C(C(=O)NC2CCCc4ccccc42)C3)ccc1[100CH2:0][100C:0](=O)N1CCCC(n2nc(-c3ccc(Oc4ccc(F)cc4F)cc3)c(C(N)=O)c2N)C1

> <Shape>
0.316

> <Color>
0.095

> <Negative vol penalty>
0.000

$$$$

  -OEChem-04052302033D

 82 90  0     1  0  0  0  0  0999 V2000
  -26.2110  -29.3583   20.4052 C   0  0  0  0  0  0  0  0  0  0  0  0
  -27.3381  -28.6705   20.8433 C   0  0  0  0  0  0  0  0  0  0  0  0
  -23.4616   -9.7031   20.2600 C   0  0  0  0  0  0  0  0  0  0  0  0
  -23.9234  -10.1718   22.5847 C   0  0  0  0  0  0  0  0  0  0  0  0
  -25.1083  -28.6532   19.9249 C   0  0  0  0  0  0  0  0  0  0  0  0
  -27.3626  -27.2769   20.8025 C   0  0  0  0  0  0  0  0  0  0  0  0
  -32.2108  -23.7118   19.6662 C   0  0  0  0  0  0  0  0  0  0  0  0
  -22.8202   -8.5198   20.6260 C   0  0  0  0  0  0  0  0  0  0  0  0
  -23.2819   -8.9884   22.9507 C   0  0  0  0  0  0  0  0  0  0  0  0
  -33.0799  -23.0152   20.5047 C   0  0  0  0  0  0  0  0  0  0  0  0
  -23.7039   -5.3896   21.5456 C   0  0  0  0  0  0  0  0  0  0  0  0
  -23.9976   -4.2404   20.8117 C   0  0  0  0  0  0  0  0  0  0  0  0
  -31.7661  -21.0158   20.1954 C   0  0  0  0  0  0  0  0  0  0  0  0
  -32.0509  -15.5200   23.1317 C   0  0  0  0  0  0  0  0  0  0  0  0
  -21.6719   -4.0448   20.1872 C   0  0  0  0  0  0  0  0  0  0  0  0
  -31.9527  -16.3442   25.3605 C   0  0  0  0  0  0  0  0  0  0  0  0
  -24.0133  -10.5291   21.2394 C   0  0  0  0  0  0  0  0  0  0  0  0
  -24.0949  -13.0255   20.7208 C   0  0  0  0  0  0  0  0  0  0  0  0
  -25.1230  -27.2506   19.8692 C   0  0  0  0  0  0  0  0  0  0  0  0
  -31.1047  -23.0674   19.0937 C   0  0  0  0  0  0  0  0  0  0  0  0
  -26.2585  -26.5522   20.3224 C   0  0  0  0  0  0  0  0  0  0  0  0
  -30.8859  -21.7059   19.3480 C   0  0  0  0  0  0  0  0  0  0  0  0
  -31.0998  -14.5656   23.4751 C   0  0  0  0  0  0  0  0  0  0  0  0
  -22.7303   -8.1625   21.9713 C   0  0  0  0  0  0  0  0  0  0  0  0
  -32.8560  -21.6677   20.7717 C   0  0  0  0  0  0  0  0  0  0  0  0
  -22.3941   -5.8664   21.6004 C   0  0  0  0  0  0  0  0  0  0  0  0
  -32.4908  -16.4299   24.0866 C   0  0  0  0  0  0  0  0  0  0  0  0
  -22.9816   -3.5680   20.1325 C   0  0  0  0  0  0  0  0  0  0  0  0
  -21.3782   -5.1941   20.9212 C   0  0  0  0  0  0  0  0  0  0  0  0
  -24.6765  -11.7513   20.8620 C   0  0  0  0  0  0  0  0  0  0  0  0
  -30.6241  -14.5633   24.7764 C   0  0  0  0  0  0  0  0  0  0  0  0
  -25.1372  -13.8396   20.3505 C   0  0  0  0  0  0  0  0  0  0  0  0
  -22.7340  -13.4365   20.9078 C   0  0  0  0  0  0  0  0  0  0  0  0
  -27.9531  -23.4437   19.2647 C   0  0  0  0  0  0  0  0  0  0  0  0
  -27.9469  -21.1587   16.9623 C   0  0  0  0  0  0  0  0  0  0  0  0
  -29.5560  -18.5452   15.4699 C   0  0  0  0  0  0  0  0  0  0  0  0
  -31.0474  -13.5353   21.1768 C   0  0  0  0  0  0  0  0  0  0  0  0
  -23.8891  -26.5302   19.3863 C   0  0  0  0  0  0  0  0  0  0  0  0
  -30.1918  -23.8262   18.1701 C   0  0  0  0  0  0  0  0  0  0  0  0
  -29.7244  -20.9627   18.7420 C   0  0  0  0  0  0  0  0  0  0  0  0
  -24.1391  -25.0680   19.0261 C   0  0  0  0  0  0  0  0  0  0  0  0
  -29.3406  -13.7328   18.0583 C   0  0  0  0  0  0  0  0  0  0  0  0
  -24.9570  -24.3822   20.1159 C   0  0  0  0  0  0  0  0  0  0  0  0
  -27.8967  -13.3689   18.4116 C   0  0  0  0  0  0  0  0  0  0  0  0
  -30.3457  -12.9210   18.8735 C   0  0  0  0  0  0  0  0  0  0  0  0
  -28.7024  -12.6022   20.6810 C   0  0  0  0  0  0  0  0  0  0  0  0
  -26.3327  -25.0416   20.2707 C   0  0  1  0  0  0  0  0  0  0  0  0
  -28.8059  -23.1994   18.0520 C   0  0  1  0  0  0  0  0  0  0  0  0
  -27.6534  -13.4402   19.9319 C   0  0  2  0  0  0  0  0  0  0  0  0
  -29.6020  -13.5613   25.2060 C   0  0  0  0  0  0  0  0  0  0  0  0
  -29.2846  -16.8521   13.6377 C   0  0  0  0  0  0  0  0  0  0  0  0
  -26.0176  -19.5738   18.7160 C   0  0  0  0  0  0  0  0  0  0  0  0
  -26.5283  -17.5523   17.3301 C   0  0  0  0  0  0  0  0  0  0  0  0
  -25.4693  -19.5498   16.2761 C   0  0  0  0  0  0  0  0  0  0  0  0
  -31.9358  -19.5530   14.0277 C   0  0  0  0  0  0  0  0  0  0  0  0
  -33.9222  -19.7335   23.6412 C   0  0  0  0  0  0  0  0  0  0  0  0
  -33.1492  -19.9069   22.3432 C   0  0  0  0  0  0  0  0  0  1  0  0
  -33.3590  -18.6064   24.4925 C   0  0  0  0  0  0  0  0  0  0  0  0
  -27.9030  -19.6498   16.9537 C   0  0  1  0  0  0  0  0  0  0  0  0
  -29.8197  -18.2262   14.0093 C   0  0  2  0  0  0  0  0  0  0  0  0
  -26.5004  -19.0956   17.3321 C   0  0  0  0  0  0  0  0  0  0  0  0
  -31.0273  -15.4311   25.7314 N   0  0  0  0  0  0  0  0  0  0  0  0
  -25.9867  -11.7509   20.6023 N   0  0  0  0  0  0  0  0  0  0  0  0
  -26.2369  -13.0348   20.2942 N   0  0  0  0  0  0  0  0  0  0  0  0
  -28.8565  -21.7498   17.8506 N   0  0  0  0  0  0  0  0  0  0  0  0
  -30.0557  -13.0394   20.3041 N   0  0  0  0  0  0  0  0  0  0  0  0
  -25.2112  -15.1582   20.0708 N   0  0  0  0  0  0  0  0  0  0  0  0
  -21.7912  -12.4720   21.2888 N   0  0  0  0  0  0  0  0  0  0  0  0
  -30.6463  -13.6338   22.5088 N   0  0  0  0  0  0  0  0  0  0  0  0
  -27.2203  -24.6140   19.2105 N   0  0  0  0  0  0  0  0  0  0  0  0
  -28.3739  -19.2351   15.6366 N   0  0  0  0  0  0  0  0  0  0  0  0
  -31.2832  -18.2522   13.7295 N   0  3  0  0  0  0  0  0  0  0  0  0
  -22.3620  -14.6205   20.7261 O   0  0  0  0  0  0  0  0  0  0  0  0
  -27.9583  -22.6300   20.1809 O   0  0  0  0  0  0  0  0  0  0  0  0
  -27.2068  -21.7896   16.2034 O   0  0  0  0  0  0  0  0  0  0  0  0
  -30.3203  -18.2122   16.3729 O   0  0  0  0  0  0  0  0  0  0  0  0
  -32.1607  -13.8750   20.7680 O   0  0  0  0  0  0  0  0  0  0  0  0
  -22.1043   -7.0080   22.3288 O   0  0  0  0  0  0  0  0  0  0  0  0
  -33.7024  -20.9855   21.5904 O   0  0  0  0  0  0  0  0  0  1  0  0
  -33.4284  -17.3805   23.7770 O   0  0  0  0  0  0  0  0  0  0  0  0
  -23.2641   -2.4653   19.4265 F   0  0  0  0  0  0  0  0  0  0  0  0
  -20.1182   -5.6480   20.9691 F   0  0  0  0  0  0  0  0  0  0  0  0
  1  2  1  0  0  0  0
  1  5  2  0  0  0  0
  2  6  2  0  0  0  0
  3  8  2  0  0  0  0
  3 17  1  0  0  0  0
  4  9  1  0  0  0  0
  4 17  2  0  0  0  0
  5 19  1  0  0  0  0
  6 21  1  0  0  0  0
  7 10  2  0  0  0  0
  7 20  1  0  0  0  0
  8 24  1  0  0  0  0
  9 24  2  0  0  0  0
 10 25  1  0  0  0  0
 11 12  2  0  0  0  0
 11 26  1  0  0  0  0
 12 28  1  0  0  0  0
 13 22  1  0  0  0  0
 13 25  2  0  0  0  0
 14 23  1  0  0  0  0
 14 27  2  0  0  0  0
 15 28  2  0  0  0  0
 15 29  1  0  0  0  0
 16 27  1  0  0  0  0
 16 62  2  0  0  0  0
 17 30  1  0  0  0  0
 18 30  1  0  0  0  0
 18 32  2  0  0  0  0
 18 33  1  0  0  0  0
 19 21  2  0  0  0  0
 19 38  1  0  0  0  0
 20 22  2  0  0  0  0
 20 39  1  0  0  0  0
 21 47  1  0  0  0  0
 22 40  1  0  0  0  0
 23 31  2  0  0  0  0
 23 69  1  0  0  0  0
 24 78  1  0  0  0  0
 25 79  1  0  0  0  0
 26 29  2  0  0  0  0
 26 78  1  0  0  0  0
 27 80  1  0  0  0  0
 28 81  1  0  0  0  0
 29 82  1  0  0  0  0
 30 63  2  0  0  0  0
 31 50  1  0  0  0  0
 31 62  1  0  0  0  0
 32 64  1  0  0  0  0
 32 67  1  0  0  0  0
 33 68  1  0  0  0  0
 33 73  2  0  0  0  0
 34 48  1  0  0  0  0
 34 70  1  0  0  0  0
 34 74  2  0  0  0  0
 35 59  1  0  0  0  0
 35 65  1  0  0  0  0
 35 75  2  0  0  0  0
 36 60  1  0  0  0  0
 36 71  1  0  0  0  0
 36 76  2  0  0  0  0
 37 66  1  0  0  0  0
 37 69  1  0  0  0  0
 37 77  2  0  0  0  0
 38 41  1  0  0  0  0
 39 48  1  0  0  0  0
 40 65  1  0  0  0  0
 41 43  1  0  0  0  0
 42 44  1  0  0  0  0
 42 45  1  0  0  0  0
 43 47  1  0  0  0  0
 44 49  1  0  0  0  0
 45 66  1  0  0  0  0
 46 49  1  0  0  0  0
 46 66  1  0  0  0  0
 47 70  1  0  0  0  0
 48 65  1  0  0  0  0
 49 64  1  0  0  0  0
 51 60  1  0  0  0  0
 52 61  1  0  0  0  0
 53 61  1  0  0  0  0
 54 61  1  0  0  0  0
 55 72  1  0  0  0  0
 56 57  1  0  0  0  0
 56 58  1  0  0  0  0
 57 79  1  0  0  0  0
 58 80  1  0  0  0  0
 59 61  1  0  0  0  0
 59 71  1  0  0  0  0
 60 72  1  0  0  0  0
 63 64  1  0  0  0  0
M  CHG  1  72   1
M  ISO  4  37 100  57 101  69 100  79 101
M  END
> <Batch ID>
0123

> <Smiles>
CNC(C)C(=O)NC(C(=O)N1Cc2cc([101O:1][101CH2:1]CCOc3cnc(C)c([100NH:0][100C:0](=O)N4CCCC(n5nc(-c6ccc(Oc7ccc(F)cc7F)cc6)c(C(N)=O)c5N)C4)c3)ccc2CC1C(=O)NC1CCCc2ccccc21)C(C)(C)C

> <Shape>
0.216

> <Color>
0.175

> <Negative vol penalty>
0.000

$$$$

  -OEChem-04052302033D

 85 93  0     1  0  0  0  0  0999 V2000
  -23.3093  -20.3031   25.6229 C   0  0  0  0  0  0  0  0  0  0  0  0
  -24.5357  -20.8174   25.2144 C   0  0  0  0  0  0  0  0  0  0  0  0
  -28.7757  -25.5619   16.3618 C   0  0  0  0  0  0  0  0  0  0  0  0
  -24.9166  -14.6856   21.7345 C   0  0  0  0  0  0  0  0  0  0  0  0
  -26.8455  -14.6941   20.2797 C   0  0  0  0  0  0  0  0  0  0  0  0
  -22.1258  -20.8513   25.1303 C   0  0  0  0  0  0  0  0  0  0  0  0
  -24.5793  -21.8797   24.3121 C   0  0  0  0  0  0  0  0  0  0  0  0
  -28.6752  -26.4306   24.1785 C   0  0  0  0  0  0  0  0  0  0  0  0
  -27.7747  -24.6804   16.7699 C   0  0  0  0  0  0  0  0  0  0  0  0
  -29.9428  -25.6889   17.1152 C   0  0  0  0  0  0  0  0  0  0  0  0
  -24.8897  -13.2918   21.6907 C   0  0  0  0  0  0  0  0  0  0  0  0
  -26.8186  -13.3001   20.2360 C   0  0  0  0  0  0  0  0  0  0  0  0
  -29.8235  -26.6370   23.4152 C   0  0  0  0  0  0  0  0  0  0  0  0
  -23.8492  -10.8868   19.5557 C   0  0  0  0  0  0  0  0  0  0  0  0
  -22.6136  -10.2690   19.3635 C   0  0  0  0  0  0  0  0  0  0  0  0
  -28.5484  -27.9830   21.8719 C   0  0  0  0  0  0  0  0  0  0  0  0
  -22.8563   -9.1256   21.4780 C   0  0  0  0  0  0  0  0  0  0  0  0
  -25.8945  -15.3868   21.0289 C   0  0  0  0  0  0  0  0  0  0  0  0
  -29.1077  -24.0530   18.6847 C   0  0  0  0  0  0  0  0  0  0  0  0
  -26.6142  -17.6356   21.9948 C   0  0  0  0  0  0  0  0  0  0  0  0
  -22.1547  -21.9272   24.2290 C   0  0  0  0  0  0  0  0  0  0  0  0
  -27.4505  -26.9909   23.7876 C   0  0  0  0  0  0  0  0  0  0  0  0
  -23.3951  -22.4420   23.8060 C   0  0  0  0  0  0  0  0  0  0  0  0
  -27.3866  -27.7844   22.6334 C   0  0  0  0  0  0  0  0  0  0  0  0
  -27.9406  -23.9260   17.9313 C   0  0  0  0  0  0  0  0  0  0  0  0
  -25.8406  -12.5990   20.9415 C   0  0  0  0  0  0  0  0  0  0  0  0
  -29.7596  -27.4109   22.2601 C   0  0  0  0  0  0  0  0  0  0  0  0
  -30.1087  -24.9345   18.2766 C   0  0  0  0  0  0  0  0  0  0  0  0
  -24.5885  -10.6240   20.7090 C   0  0  0  0  0  0  0  0  0  0  0  0
  -22.1171   -9.3884   20.3246 C   0  0  0  0  0  0  0  0  0  0  0  0
  -24.0921   -9.7435   21.6701 C   0  0  0  0  0  0  0  0  0  0  0  0
  -25.9225  -16.8267   21.0733 C   0  0  0  0  0  0  0  0  0  0  0  0
  -26.3205  -18.9213   21.6113 C   0  0  0  0  0  0  0  0  0  0  0  0
  -33.9742  -26.7883   20.2375 C   0  0  0  0  0  0  0  0  0  0  0  0
  -29.2907  -23.2719   19.9044 C   0  0  0  0  0  0  0  0  0  0  0  0
  -27.4479  -17.2584   23.0986 C   0  0  0  0  0  0  0  0  0  0  0  0
  -32.6474  -26.5836   20.2371 C   0  0  0  0  0  0  0  0  0  0  0  0
  -24.6150  -25.8233   22.9507 C   0  0  0  0  0  0  0  0  0  0  0  0
  -23.7592  -28.9521   22.9599 C   0  0  0  0  0  0  0  0  0  0  0  0
  -24.7155  -32.2181   22.7033 C   0  0  0  0  0  0  0  0  0  0  0  0
  -25.6981  -22.8078   17.6729 C   0  0  0  0  0  0  0  0  0  0  0  0
  -20.8501  -22.4557   23.6873 C   0  0  0  0  0  0  0  0  0  0  0  0
  -26.2267  -26.7809   24.6364 C   0  0  0  0  0  0  0  0  0  0  0  0
  -26.1005  -28.4249   22.1816 C   0  0  0  0  0  0  0  0  0  0  0  0
  -20.9762  -23.8245   23.0234 C   0  0  0  0  0  0  0  0  0  0  0  0
  -22.9170  -20.6749   18.3003 C   0  0  0  0  0  0  0  0  0  0  0  0
  -22.1765  -23.8530   22.0826 C   0  0  0  0  0  0  0  0  0  0  0  0
  -23.5079  -19.5501   19.1534 C   0  0  0  0  0  0  0  0  0  0  0  0
  -23.8988  -21.1516   17.2314 C   0  0  0  0  0  0  0  0  0  0  0  0
  -25.8170  -20.4060   18.5855 C   0  0  0  0  0  0  0  0  0  0  0  0
  -23.4831  -23.6100   22.8477 C   0  0  1  0  0  0  0  0  0  0  0  0
  -24.9245  -26.9744   23.8655 C   0  0  1  0  0  0  0  0  0  0  0  0
  -24.8889  -19.9371   19.7180 C   0  0  2  0  0  0  0  0  0  0  0  0
  -30.4626  -22.3393   19.9547 C   0  0  0  0  0  0  0  0  0  0  0  0
  -23.7865  -34.5492   22.7123 C   0  0  0  0  0  0  0  0  0  0  0  0
  -22.7246  -28.5482   20.1180 C   0  0  0  0  0  0  0  0  0  0  0  0
  -22.6989  -31.0371   19.8481 C   0  0  0  0  0  0  0  0  0  0  0  0
  -21.2562  -29.9564   21.5725 C   0  0  0  0  0  0  0  0  0  0  0  0
  -26.3024  -32.9658   25.0869 C   0  0  0  0  0  0  0  0  0  0  0  0
  -31.8612  -26.5784   21.5211 C   0  0  0  0  0  0  0  0  0  1  0  0
  -31.8990  -26.3458   18.9541 C   0  0  0  0  0  0  0  0  0  0  0  0
  -23.7558  -30.0625   21.9371 C   0  0  1  0  0  0  0  0  0  0  0  0
  -24.3880  -33.4332   23.5522 C   0  0  2  0  0  0  0  0  0  0  0  0
  -22.6328  -29.8875   20.8761 C   0  0  0  0  0  0  0  0  0  0  0  0
  -25.2406  -17.5389   20.1723 N   0  0  0  0  0  0  0  0  0  0  0  0
  -25.5022  -18.8088   20.5259 N   0  0  0  0  0  0  0  0  0  0  0  0
  -24.9299  -28.1850   23.0417 N   0  0  0  0  0  0  0  0  0  0  0  0
  -25.1831  -21.5048   17.8402 N   0  0  0  0  0  0  0  0  0  0  0  0
  -26.6848  -20.1258   22.1001 N   0  0  0  0  0  0  0  0  0  0  0  0
  -27.6441  -15.8940   23.3521 N   0  0  0  0  0  0  0  0  0  0  0  0
  -26.9096  -23.0369   18.3242 N   0  0  0  0  0  0  0  0  0  0  0  0
  -23.8897  -24.8097   23.5474 N   0  0  0  0  0  0  0  0  0  0  0  0
  -23.6779  -31.3101   22.6894 N   0  0  0  0  0  0  0  0  0  0  0  0
  -25.6200  -33.9524   24.2106 N   0  3  0  0  0  0  0  0  0  0  0  0
  -28.5520  -23.3219   20.8862 O   0  0  0  0  0  0  0  0  0  0  0  0
  -27.9891  -18.1061   23.8482 O   0  0  0  0  0  0  0  0  0  0  0  0
  -25.0042  -25.8531   21.7891 O   0  0  0  0  0  0  0  0  0  0  0  0
  -22.7626  -28.7766   23.6653 O   0  0  0  0  0  0  0  0  0  0  0  0
  -25.7834  -32.0891   22.1087 O   0  0  0  0  0  0  0  0  0  0  0  0
  -25.0943  -23.6658   17.0239 O   0  0  0  0  0  0  0  0  0  0  0  0
  -25.8148  -11.2388   20.8988 O   0  0  0  0  0  0  0  0  0  0  0  0
  -30.8788  -27.6133   21.5129 O   0  0  0  0  0  0  0  0  0  1  0  0
  -31.2641  -25.0750   19.0004 O   0  0  0  0  0  0  0  0  0  0  0  0
  -20.9297   -8.7964   20.1406 F   0  0  0  0  0  0  0  0  0  0  0  0
  -24.7972   -9.4879   22.7807 F   0  0  0  0  0  0  0  0  0  0  0  0
  1  2  1  0  0  0  0
  1  6  2  0  0  0  0
  2  7  2  0  0  0  0
  3  9  1  0  0  0  0
  3 10  2  0  0  0  0
  4 11  2  0  0  0  0
  4 18  1  0  0  0  0
  5 12  1  0  0  0  0
  5 18  2  0  0  0  0
  6 21  1  0  0  0  0
  7 23  1  0  0  0  0
  8 13  2  0  0  0  0
  8 22  1  0  0  0  0
  9 25  2  0  0  0  0
 10 28  1  0  0  0  0
 11 26  1  0  0  0  0
 12 26  2  0  0  0  0
 13 27  1  0  0  0  0
 14 15  2  0  0  0  0
 14 29  1  0  0  0  0
 15 30  1  0  0  0  0
 16 24  1  0  0  0  0
 16 27  2  0  0  0  0
 17 30  2  0  0  0  0
 17 31  1  0  0  0  0
 18 32  1  0  0  0  0
 19 25  1  0  0  0  0
 19 28  2  0  0  0  0
 19 35  1  0  0  0  0
 20 32  1  0  0  0  0
 20 33  2  0  0  0  0
 20 36  1  0  0  0  0
 21 23  2  0  0  0  0
 21 42  1  0  0  0  0
 22 24  2  0  0  0  0
 22 43  1  0  0  0  0
 23 51  1  0  0  0  0
 24 44  1  0  0  0  0
 25 71  1  0  0  0  0
 26 81  1  0  0  0  0
 27 82  1  0  0  0  0
 28 83  1  0  0  0  0
 29 31  2  0  0  0  0
 29 81  1  0  0  0  0
 30 84  1  0  0  0  0
 31 85  1  0  0  0  0
 32 65  2  0  0  0  0
 33 66  1  0  0  0  0
 33 69  1  0  0  0  0
 34 37  2  0  0  0  0
 35 54  1  0  0  0  0
 35 75  2  0  0  0  0
 36 70  1  0  0  0  0
 36 76  2  0  0  0  0
 37 60  1  0  0  0  0
 37 61  1  0  0  0  0
 38 52  1  0  0  0  0
 38 72  1  0  0  0  0
 38 77  2  0  0  0  0
 39 62  1  0  0  0  0
 39 67  1  0  0  0  0
 39 78  2  0  0  0  0
 40 63  1  0  0  0  0
 40 73  1  0  0  0  0
 40 79  2  0  0  0  0
 41 68  1  0  0  0  0
 41 71  1  0  0  0  0
 41 80  2  0  0  0  0
 42 45  1  0  0  0  0
 43 52  1  0  0  0  0
 44 67  1  0  0  0  0
 45 47  1  0  0  0  0
 46 48  1  0  0  0  0
 46 49  1  0  0  0  0
 47 51  1  0  0  0  0
 48 53  1  0  0  0  0
 49 68  1  0  0  0  0
 50 53  1  0  0  0  0
 50 68  1  0  0  0  0
 51 72  1  0  0  0  0
 52 67  1  0  0  0  0
 53 66  1  0  0  0  0
 55 63  1  0  0  0  0
 56 64  1  0  0  0  0
 57 64  1  0  0  0  0
 58 64  1  0  0  0  0
 59 74  1  0  0  0  0
 60 82  1  0  0  0  0
 61 83  1  0  0  0  0
 62 64  1  0  0  0  0
 62 73  1  0  0  0  0
 63 74  1  0  0  0  0
 65 66  1  0  0  0  0
M  CHG  1  74   1
M  ISO  4  41 100  60 101  71 100  82 101
M  END
> <Batch ID>
0123

> <Smiles>
C=C(COc1cccc([100NH:0][100C:0](=O)N2CCCC(n3nc(-c4ccc(Oc5ccc(F)cc5F)cc4)c(C(N)=O)c3N)C2)c1C(C)=O)[101CH2:1][101O:1]c1ccc2c(c1)CN(C(=O)C(NC(=O)C(C)NC)C(C)(C)C)C(C(=O)NC1CCCc3ccccc31)C2

> <Shape>
0.204

> <Color>
0.062

> <Negative vol penalty>
0.000

$$$$

  -OEChem-04052302033D

 85 93  0     1  0  0  0  0  0999 V2000
  -29.4169  -23.4569    2.7019 C   0  0  0  0  0  0  0  0  0  0  0  0
  -29.6386  -22.5489    3.7323 C   0  0  0  0  0  0  0  0  0  0  0  0
  -22.9888   -9.9050   19.9900 C   0  0  0  0  0  0  0  0  0  0  0  0
  -23.7676   -9.9337   22.2768 C   0  0  0  0  0  0  0  0  0  0  0  0
  -29.5614  -24.8238    2.9357 C   0  0  0  0  0  0  0  0  0  0  0  0
  -30.0060  -23.0072    4.9969 C   0  0  0  0  0  0  0  0  0  0  0  0
  -28.4327  -20.5775   10.3939 C   0  0  0  0  0  0  0  0  0  0  0  0
  -27.7104  -18.3969   21.3888 C   0  0  0  0  0  0  0  0  0  0  0  0
  -22.2297   -8.7671   20.2627 C   0  0  0  0  0  0  0  0  0  0  0  0
  -23.0084   -8.7957   22.5496 C   0  0  0  0  0  0  0  0  0  0  0  0
  -29.1012  -19.7210   11.2676 C   0  0  0  0  0  0  0  0  0  0  0  0
  -28.0789  -18.9506   20.1628 C   0  0  0  0  0  0  0  0  0  0  0  0
  -23.2444   -5.4620   22.0386 C   0  0  0  0  0  0  0  0  0  0  0  0
  -23.8503   -4.4379   22.7665 C   0  0  0  0  0  0  0  0  0  0  0  0
  -29.8028  -17.2747   19.9242 C   0  0  0  0  0  0  0  0  0  0  0  0
  -29.8517  -21.6227   12.5480 C   0  0  0  0  0  0  0  0  0  0  0  0
  -22.1658   -4.6622   24.4839 C   0  0  0  0  0  0  0  0  0  0  0  0
  -23.7578  -10.4883   20.9970 C   0  0  0  0  0  0  0  0  0  0  0  0
  -29.4342  -16.7211   21.1503 C   0  0  0  0  0  0  0  0  0  0  0  0
  -24.1368  -13.0060   20.8373 C   0  0  0  0  0  0  0  0  0  0  0  0
  -29.9214  -25.2997    4.2064 C   0  0  0  0  0  0  0  0  0  0  0  0
  -28.4778  -21.9660   10.5848 C   0  0  0  0  0  0  0  0  0  0  0  0
  -30.1568  -24.3817    5.2476 C   0  0  0  0  0  0  0  0  0  0  0  0
  -29.1808  -22.4945   11.6768 C   0  0  0  0  0  0  0  0  0  0  0  0
  -28.3880  -17.2822   21.8826 C   0  0  0  0  0  0  0  0  0  0  0  0
  -22.2394   -8.2125   21.5425 C   0  0  0  0  0  0  0  0  0  0  0  0
  -29.1251  -18.3895   19.4305 C   0  0  0  0  0  0  0  0  0  0  0  0
  -29.8133  -20.2437   12.3431 C   0  0  0  0  0  0  0  0  0  0  0  0
  -22.0993   -6.0862   22.5333 C   0  0  0  0  0  0  0  0  0  0  0  0
  -23.3109   -4.0380   23.9891 C   0  0  0  0  0  0  0  0  0  0  0  0
  -21.5600   -5.6863   23.7559 C   0  0  0  0  0  0  0  0  0  0  0  0
  -24.5427  -11.6635   20.7157 C   0  0  0  0  0  0  0  0  0  0  0  0
  -25.2371  -13.7334   20.4544 C   0  0  0  0  0  0  0  0  0  0  0  0
  -30.1584  -15.5569   21.6424 C   0  0  0  0  0  0  0  0  0  0  0  0
  -22.8777  -13.5471   21.2589 C   0  0  0  0  0  0  0  0  0  0  0  0
  -30.7612  -14.5756   20.7113 C   0  0  0  0  0  0  0  0  0  0  0  0
  -29.5660  -24.4284    8.8948 C   0  0  0  0  0  0  0  0  0  0  0  0
  -28.1815  -26.1628   11.2606 C   0  0  0  0  0  0  0  0  0  0  0  0
  -27.0834  -26.3012   14.4889 C   0  0  0  0  0  0  0  0  0  0  0  0
  -30.1116  -26.7834    4.3988 C   0  0  0  0  0  0  0  0  0  0  0  0
  -27.7292  -22.8748    9.6488 C   0  0  0  0  0  0  0  0  0  0  0  0
  -29.2434  -23.9766   11.9375 C   0  0  0  0  0  0  0  0  0  0  0  0
  -30.1384  -27.2090    5.8645 C   0  0  0  0  0  0  0  0  0  0  0  0
  -29.5364  -12.2966   18.2289 C   0  0  0  0  0  0  0  0  0  0  0  0
  -31.0457  -26.2861    6.6719 C   0  0  0  0  0  0  0  0  0  0  0  0
  -28.1072  -12.0094   18.6878 C   0  0  0  0  0  0  0  0  0  0  0  0
  -30.4732  -12.5007   19.4151 C   0  0  0  0  0  0  0  0  0  0  0  0
  -28.5899  -13.2820   20.8262 C   0  0  0  0  0  0  0  0  0  0  0  0
  -30.5326  -24.8415    6.6396 C   0  0  1  0  0  0  0  0  0  0  0  0
  -28.2689  -24.3018    9.6425 C   0  0  1  0  0  0  0  0  0  0  0  0
  -27.6088  -13.0975   19.6554 C   0  0  2  0  0  0  0  0  0  0  0  0
  -28.4793  -17.5377   24.3752 C   0  0  0  0  0  0  0  0  0  0  0  0
  -26.0331  -27.8647   16.1471 C   0  0  0  0  0  0  0  0  0  0  0  0
  -30.8616  -27.5756   11.6225 C   0  0  0  0  0  0  0  0  0  0  0  0
  -30.0485  -28.3996   13.8424 C   0  0  0  0  0  0  0  0  0  0  0  0
  -28.8653  -29.0762   11.7532 C   0  0  0  0  0  0  0  0  0  0  0  0
  -24.7034  -24.5680   14.7907 C   0  0  0  0  0  0  0  0  0  0  0  0
  -27.9726  -16.7095   23.1985 C   0  0  0  0  0  0  0  0  0  0  0  0
  -29.7170  -18.5562   15.8571 C   0  0  0  0  0  0  0  0  0  0  0  0
  -30.2629  -17.6211   14.7835 C   0  0  0  0  0  0  0  0  0  0  0  0
  -30.0291  -18.0461   17.2577 C   0  0  0  0  0  0  0  0  0  0  0  0
  -29.9144  -18.1078   13.3840 C   0  0  0  0  0  0  0  0  0  1  0  0
  -28.6347  -26.7035   12.5953 C   0  0  1  0  0  0  0  0  0  0  0  0
  -25.7820  -26.8010   15.0897 C   0  0  2  0  0  0  0  0  0  0  0  0
  -29.6032  -27.9109   12.4476 C   0  0  0  0  0  0  0  0  0  0  0  0
  -25.8024  -11.5423   20.2888 N   0  0  0  0  0  0  0  0  0  0  0  0
  -30.3251  -15.3031   22.9110 N   0  0  0  0  0  0  0  0  0  0  0  0
  -26.1976  -12.8180   20.1387 N   0  0  0  0  0  0  0  0  0  0  0  0
  -29.9529  -13.5134   20.3315 N   0  0  0  0  0  0  0  0  0  0  0  0
  -28.5004  -24.8244   10.9906 N   0  0  0  0  0  0  0  0  0  0  0  0
  -25.4670  -15.0603   20.3603 N   0  0  0  0  0  0  0  0  0  0  0  0
  -21.8550  -12.6584   21.6175 N   0  0  0  0  0  0  0  0  0  0  0  0
  -29.4148  -24.6818    7.5448 N   0  0  0  0  0  0  0  0  0  0  0  0
  -27.4212  -26.9996   13.3491 N   0  0  0  0  0  0  0  0  0  0  0  0
  -25.0377  -25.6756   15.7226 N   0  3  0  0  0  0  0  0  0  0  0  0
  -22.6606  -14.7819   21.3001 O   0  0  0  0  0  0  0  0  0  0  0  0
  -31.9150  -14.8078   20.3749 O   0  0  0  0  0  0  0  0  0  0  0  0
  -30.6256  -24.3068    9.4982 O   0  0  0  0  0  0  0  0  0  0  0  0
  -27.5610  -26.8986   10.4892 O   0  0  0  0  0  0  0  0  0  0  0  0
  -27.7370  -25.3854   14.9836 O   0  0  0  0  0  0  0  0  0  0  0  0
  -21.4986   -7.1022   21.8091 O   0  0  0  0  0  0  0  0  0  0  0  0
  -29.4876  -18.9344   18.2263 O   0  0  0  0  0  0  0  0  0  0  0  0
  -30.4672  -19.4100   13.1970 O   0  0  0  0  0  0  0  0  0  1  0  0
  -23.8919   -3.0535   24.6873 F   0  0  0  0  0  0  0  0  0  0  0  0
  -20.4594   -6.2814   24.2358 F   0  0  0  0  0  0  0  0  0  0  0  0
  1  2  1  0  0  0  0
  1  5  2  0  0  0  0
  2  6  2  0  0  0  0
  3  9  2  0  0  0  0
  3 18  1  0  0  0  0
  4 10  1  0  0  0  0
  4 18  2  0  0  0  0
  5 21  1  0  0  0  0
  6 23  1  0  0  0  0
  7 11  2  0  0  0  0
  7 22  1  0  0  0  0
  8 12  2  0  0  0  0
  8 25  1  0  0  0  0
  9 26  1  0  0  0  0
 10 26  2  0  0  0  0
 11 28  1  0  0  0  0
 12 27  1  0  0  0  0
 13 14  2  0  0  0  0
 13 29  1  0  0  0  0
 14 30  1  0  0  0  0
 15 19  1  0  0  0  0
 15 27  2  0  0  0  0
 16 24  1  0  0  0  0
 16 28  2  0  0  0  0
 17 30  2  0  0  0  0
 17 31  1  0  0  0  0
 18 32  1  0  0  0  0
 19 25  2  0  0  0  0
 19 34  1  0  0  0  0
 20 32  1  0  0  0  0
 20 33  2  0  0  0  0
 20 35  1  0  0  0  0
 21 23  2  0  0  0  0
 21 40  1  0  0  0  0
 22 24  2  0  0  0  0
 22 41  1  0  0  0  0
 23 49  1  0  0  0  0
 24 42  1  0  0  0  0
 25 58  1  0  0  0  0
 26 81  1  0  0  0  0
 27 82  1  0  0  0  0
 28 83  1  0  0  0  0
 29 31  2  0  0  0  0
 29 81  1  0  0  0  0
 30 84  1  0  0  0  0
 31 85  1  0  0  0  0
 32 66  2  0  0  0  0
 33 68  1  0  0  0  0
 33 71  1  0  0  0  0
 34 36  1  0  0  0  0
 34 67  2  0  0  0  0
 35 72  1  0  0  0  0
 35 76  2  0  0  0  0
 36 69  1  0  0  0  0
 36 77  2  0  0  0  0
 37 50  1  0  0  0  0
 37 73  1  0  0  0  0
 37 78  2  0  0  0  0
 38 63  1  0  0  0  0
 38 70  1  0  0  0  0
 38 79  2  0  0  0  0
 39 64  1  0  0  0  0
 39 74  1  0  0  0  0
 39 80  2  0  0  0  0
 40 43  1  0  0  0  0
 41 50  1  0  0  0  0
 42 70  1  0  0  0  0
 43 45  1  0  0  0  0
 44 46  1  0  0  0  0
 44 47  1  0  0  0  0
 45 49  1  0  0  0  0
 46 51  1  0  0  0  0
 47 69  1  0  0  0  0
 48 51  1  0  0  0  0
 48 69  1  0  0  0  0
 49 73  1  0  0  0  0
 50 70  1  0  0  0  0
 51 68  1  0  0  0  0
 52 58  1  0  0  0  0
 53 64  1  0  0  0  0
 54 65  1  0  0  0  0
 55 65  1  0  0  0  0
 56 65  1  0  0  0  0
 57 75  1  0  0  0  0
 59 60  1  0  0  0  0
 59 61  1  0  0  0  0
 60 62  1  0  0  0  0
 61 82  1  0  0  0  0
 62 83  1  0  0  0  0
 63 65  1  0  0  0  0
 63 74  1  0  0  0  0
 64 75  1  0  0  0  0
 66 68  1  0  0  0  0
M  CHG  1  75   1
M  ISO  4  34 100  36 100  62 101  83 101
M  END
> <Batch ID>
0123

> <Smiles>
CCc1ccc(OCCC[101CH2:1][101O:1]c2ccc3c(c2)CN(C(=O)C(NC(=O)C(C)NC)C(C)(C)C)C(C(=O)NC2CCCc4ccccc42)C3)cc1[100C:0](=N)[100C:0](=O)N1CCCC(n2nc(-c3ccc(Oc4ccc(F)cc4F)cc3)c(C(N)=O)c2N)C1

> <Shape>
0.201

> <Color>
0.190

> <Negative vol penalty>
0.000

$$$$

  -OEChem-04052302033D

 87 95  0     1  0  0  0  0  0999 V2000
  -31.6003  -14.8451   21.7114 C   0  0  0  0  0  0  0  0  0  0  0  0
  -30.8111  -15.9781   21.5411 C   0  0  0  0  0  0  0  0  0  0  0  0
  -25.1167  -27.1602   16.7128 C   0  0  0  0  0  0  0  0  0  0  0  0
  -27.0044  -28.6129   16.3085 C   0  0  0  0  0  0  0  0  0  0  0  0
  -18.7936  -26.0993   22.3084 C   0  0  0  0  0  0  0  0  0  0  0  0
  -18.0072  -27.2463   22.2013 C   0  0  0  0  0  0  0  0  0  0  0  0
  -31.1701  -13.6160   21.2131 C   0  0  0  0  0  0  0  0  0  0  0  0
  -29.5918  -15.8828   20.8713 C   0  0  0  0  0  0  0  0  0  0  0  0
  -25.8745  -18.3767   23.2394 C   0  0  0  0  0  0  0  0  0  0  0  0
  -25.0115  -26.9157   15.3436 C   0  0  0  0  0  0  0  0  0  0  0  0
  -26.8992  -28.3684   14.9392 C   0  0  0  0  0  0  0  0  0  0  0  0
  -25.8408  -19.7623   23.0888 C   0  0  0  0  0  0  0  0  0  0  0  0
  -26.5630  -25.0005   13.0288 C   0  0  0  0  0  0  0  0  0  0  0  0
  -26.3750  -23.6807   12.6186 C   0  0  0  0  0  0  0  0  0  0  0  0
  -20.6377  -27.4384   23.1103 C   0  0  0  0  0  0  0  0  0  0  0  0
  -24.1186  -19.5324   21.4154 C   0  0  0  0  0  0  0  0  0  0  0  0
  -24.2853  -24.3021   11.5772 C   0  0  0  0  0  0  0  0  0  0  0  0
  -26.1131  -28.0088   17.1953 C   0  0  0  0  0  0  0  0  0  0  0  0
  -20.1089  -26.1953   22.7630 C   0  0  0  0  0  0  0  0  0  0  0  0
  -18.5361  -28.4894   22.5487 C   0  0  0  0  0  0  0  0  0  0  0  0
  -19.8513  -28.5855   23.0032 C   0  0  0  0  0  0  0  0  0  0  0  0
  -26.9812  -27.5369   19.5471 C   0  0  0  0  0  0  0  0  0  0  0  0
  -29.9404  -13.5038   20.5454 C   0  0  0  0  0  0  0  0  0  0  0  0
  -25.0369  -17.5565   22.4700 C   0  0  0  0  0  0  0  0  0  0  0  0
  -29.1454  -14.6513   20.3625 C   0  0  0  0  0  0  0  0  0  0  0  0
  -24.1418  -18.1368   21.5600 C   0  0  0  0  0  0  0  0  0  0  0  0
  -25.9028  -27.5197   14.4568 C   0  0  0  0  0  0  0  0  0  0  0  0
  -24.9648  -20.3402   22.1746 C   0  0  0  0  0  0  0  0  0  0  0  0
  -25.6121  -25.9712   12.7133 C   0  0  0  0  0  0  0  0  0  0  0  0
  -25.2362  -23.3315   11.8927 C   0  0  0  0  0  0  0  0  0  0  0  0
  -24.4733  -25.6219   11.9875 C   0  0  0  0  0  0  0  0  0  0  0  0
  -26.2219  -28.2622   18.6095 C   0  0  0  0  0  0  0  0  0  0  0  0
  -26.7491  -28.1726   20.7423 C   0  0  0  0  0  0  0  0  0  0  0  0
  -16.5606  -29.8334   23.1023 C   0  0  0  0  0  0  0  0  0  0  0  0
  -20.9389  -24.9829   22.8759 C   0  0  0  0  0  0  0  0  0  0  0  0
  -17.6857  -29.6668   22.4241 C   0  0  0  0  0  0  0  0  0  0  0  0
  -22.2785  -24.9792   22.9236 C   0  0  0  0  0  0  0  0  0  0  0  0
  -20.4521  -29.8899   23.3834 C   0  0  0  0  0  0  0  0  0  0  0  0
  -27.8213  -26.3910   19.3549 C   0  0  0  0  0  0  0  0  0  0  0  0
  -23.0289  -23.6922   23.0287 C   0  0  0  0  0  0  0  0  0  0  0  0
  -25.5030  -15.2705   20.3111 C   0  0  0  0  0  0  0  0  0  0  0  0
  -22.2797  -14.9653   20.5100 C   0  0  0  0  0  0  0  0  0  0  0  0
  -19.2756  -16.3949   21.2704 C   0  0  0  0  0  0  0  0  0  0  0  0
  -22.2670  -31.4760   22.8233 C   0  0  0  0  0  0  0  0  0  0  0  0
  -29.5395  -12.1631   19.9829 C   0  0  0  0  0  0  0  0  0  0  0  0
  -25.0664  -16.0651   22.6636 C   0  0  0  0  0  0  0  0  0  0  0  0
  -23.2074  -17.3017   20.7246 C   0  0  0  0  0  0  0  0  0  0  0  0
  -28.0610  -12.0749   19.6136 C   0  0  0  0  0  0  0  0  0  0  0  0
  -25.6464  -32.4754   22.5444 C   0  0  0  0  0  0  0  0  0  0  0  0
  -27.6326  -13.3097   18.8271 C   0  0  0  0  0  0  0  0  0  0  0  0
  -26.2543  -31.4340   21.6009 C   0  0  0  0  0  0  0  0  0  0  0  0
  -24.2193  -32.8427   22.1403 C   0  0  0  0  0  0  0  0  0  0  0  0
  -23.9158  -30.6688   21.0267 C   0  0  0  0  0  0  0  0  0  0  0  0
  -27.8050  -14.5836   19.6633 C   0  0  1  0  0  0  0  0  0  0  0  0
  -24.5336  -15.2956   21.4589 C   0  0  1  0  0  0  0  0  0  0  0  0
  -25.3270  -30.2137   21.4324 C   0  0  1  0  0  0  0  0  0  0  0  0
  -16.8136  -15.9101   21.2962 C   0  0  0  0  0  0  0  0  0  0  0  0
  -22.1881  -15.2813   17.4766 C   0  0  0  0  0  0  0  0  0  0  0  0
  -19.7344  -15.7404   17.6683 C   0  0  0  0  0  0  0  0  0  0  0  0
  -20.6490  -13.5348   18.3904 C   0  0  0  0  0  0  0  0  0  0  0  0
  -19.1044  -16.8219   24.1940 C   0  0  0  0  0  0  0  0  0  0  0  0
  -24.5435  -23.8241   23.0744 C   0  0  0  0  0  0  0  0  0  0  0  0
  -25.2522  -22.4808   23.1702 C   0  0  0  0  0  0  0  0  0  1  0  0
  -21.1012  -15.5852   19.7987 C   0  0  1  0  0  0  0  0  0  0  0  0
  -18.1049  -15.8985   22.0994 C   0  0  2  0  0  0  0  0  0  0  0  0
  -20.9370  -15.0513   18.3477 C   0  0  0  0  0  0  0  0  0  0  0  0
  -25.5571  -29.2806   19.1615 N   0  0  0  0  0  0  0  0  0  0  0  0
  -25.8978  -29.1998   20.4590 N   0  0  0  0  0  0  0  0  0  0  0  0
  -23.2783  -15.8479   20.9455 N   0  0  0  0  0  0  0  0  0  0  0  0
  -23.4037  -31.6338   22.0112 N   0  0  0  0  0  0  0  0  0  0  0  0
  -27.1922  -27.9475   21.9975 N   0  0  0  0  0  0  0  0  0  0  0  0
  -27.9483  -25.8650   18.0620 N   0  0  0  0  0  0  0  0  0  0  0  0
  -21.5798  -30.2688   22.6546 N   0  0  0  0  0  0  0  0  0  0  0  0
  -26.7272  -14.7093   20.6208 N   0  0  0  0  0  0  0  0  0  0  0  0
  -19.9418  -15.3568   20.6543 N   0  0  0  0  0  0  0  0  0  0  0  0
  -17.9187  -16.7601   23.3010 N   0  3  0  0  0  0  0  0  0  0  0  0
  -19.9180  -30.5608   24.2623 O   0  0  0  0  0  0  0  0  0  0  0  0
  -28.4281  -25.8397   20.3043 O   0  0  0  0  0  0  0  0  0  0  0  0
  -22.4512  -22.6096   23.0756 O   0  0  0  0  0  0  0  0  0  0  0  0
  -25.1648  -15.7252   19.2246 O   0  0  0  0  0  0  0  0  0  0  0  0
  -22.3096  -13.7438   20.6794 O   0  0  0  0  0  0  0  0  0  0  0  0
  -19.5675  -17.5851   21.1756 O   0  0  0  0  0  0  0  0  0  0  0  0
  -21.9159  -32.3198   23.6539 O   0  0  0  0  0  0  0  0  0  0  0  0
  -25.8006  -27.2812   13.1207 O   0  0  0  0  0  0  0  0  0  0  0  0
  -24.9303  -21.6924   22.0252 O   0  0  0  0  0  0  0  0  0  1  0  0
  -25.0565  -22.0644   11.4975 F   0  0  0  0  0  0  0  0  0  0  0  0
  -23.5570  -26.5503   11.6804 F   0  0  0  0  0  0  0  0  0  0  0  0
  1  2  1  0  0  0  0
  1  7  2  0  0  0  0
  2  8  2  0  0  0  0
  3 10  2  0  0  0  0
  3 18  1  0  0  0  0
  4 11  1  0  0  0  0
  4 18  2  0  0  0  0
  5  6  2  0  0  0  0
  5 19  1  0  0  0  0
  6 20  1  0  0  0  0
  7 23  1  0  0  0  0
  8 25  1  0  0  0  0
  9 12  2  0  0  0  0
  9 24  1  0  0  0  0
 10 27  1  0  0  0  0
 11 27  2  0  0  0  0
 12 28  1  0  0  0  0
 13 14  2  0  0  0  0
 13 29  1  0  0  0  0
 14 30  1  0  0  0  0
 15 19  2  0  0  0  0
 15 21  1  0  0  0  0
 16 26  1  0  0  0  0
 16 28  2  0  0  0  0
 17 30  2  0  0  0  0
 17 31  1  0  0  0  0
 18 32  1  0  0  0  0
 19 35  1  0  0  0  0
 20 21  2  0  0  0  0
 20 36  1  0  0  0  0
 21 38  1  0  0  0  0
 22 32  1  0  0  0  0
 22 33  2  0  0  0  0
 22 39  1  0  0  0  0
 23 25  2  0  0  0  0
 23 45  1  0  0  0  0
 24 26  2  0  0  0  0
 24 46  1  0  0  0  0
 25 54  1  0  0  0  0
 26 47  1  0  0  0  0
 27 84  1  0  0  0  0
 28 85  1  0  0  0  0
 29 31  2  0  0  0  0
 29 84  1  0  0  0  0
 30 86  1  0  0  0  0
 31 87  1  0  0  0  0
 32 67  2  0  0  0  0
 33 68  1  0  0  0  0
 33 71  1  0  0  0  0
 34 36  2  0  0  0  0
 35 37  2  0  0  0  0
 37 40  1  0  0  0  0
 38 73  1  0  0  0  0
 38 77  2  0  0  0  0
 39 72  1  0  0  0  0
 39 78  2  0  0  0  0
 40 62  1  0  0  0  0
 40 79  2  0  0  0  0
 41 55  1  0  0  0  0
 41 74  1  0  0  0  0
 41 80  2  0  0  0  0
 42 64  1  0  0  0  0
 42 69  1  0  0  0  0
 42 81  2  0  0  0  0
 43 65  1  0  0  0  0
 43 75  1  0  0  0  0
 43 82  2  0  0  0  0
 44 70  1  0  0  0  0
 44 73  1  0  0  0  0
 44 83  2  0  0  0  0
 45 48  1  0  0  0  0
 46 55  1  0  0  0  0
 47 69  1  0  0  0  0
 48 50  1  0  0  0  0
 49 51  1  0  0  0  0
 49 52  1  0  0  0  0
 50 54  1  0  0  0  0
 51 56  1  0  0  0  0
 52 70  1  0  0  0  0
 53 56  1  0  0  0  0
 53 70  1  0  0  0  0
 54 74  1  0  0  0  0
 55 69  1  0  0  0  0
 56 68  1  0  0  0  0
 57 65  1  0  0  0  0
 58 66  1  0  0  0  0
 59 66  1  0  0  0  0
 60 66  1  0  0  0  0
 61 76  1  0  0  0  0
 62 63  1  0  0  0  0
 63 85  1  0  0  0  0
 64 66  1  0  0  0  0
 64 75  1  0  0  0  0
 65 76  1  0  0  0  0
 67 68  1  0  0  0  0
M  CHG  1  76   1
M  ISO  4  44 100  63 101  73 100  85 101
M  END
> <Batch ID>
0123

> <Smiles>
C=Cc1ccc(C=CC(=O)C[101CH2:1][101O:1]c2ccc3c(c2)CN(C(=O)C(NC(=O)C(C)NC)C(C)(C)C)C(C(=O)NC2CCCc4ccccc42)C3)cc1C(=O)[100NH:0][100C:0](=O)N1CCCC(n2nc(-c3ccc(Oc4ccc(F)cc4F)cc3)c(C(N)=O)c2N)C1

> <Shape>
0.208

> <Color>
0.075

> <Negative vol penalty>
0.000

$$$$

  -OEChem-04052302033D

 86 94  0     1  0  0  0  0  0999 V2000
  -26.1986  -16.1506   34.4882 C   0  0  0  0  0  0  0  0  0  0  0  0
  -27.4088  -15.5283   34.1996 C   0  0  0  0  0  0  0  0  0  0  0  0
  -23.0737   -9.8698   19.9418 C   0  0  0  0  0  0  0  0  0  0  0  0
  -23.8318   -9.8780   22.2358 C   0  0  0  0  0  0  0  0  0  0  0  0
  -25.7548  -17.2099   33.6977 C   0  0  0  0  0  0  0  0  0  0  0  0
  -28.1756  -15.9642   33.1195 C   0  0  0  0  0  0  0  0  0  0  0  0
  -34.9930  -16.6653   31.0344 C   0  0  0  0  0  0  0  0  0  0  0  0
  -22.3287   -8.7174   20.1921 C   0  0  0  0  0  0  0  0  0  0  0  0
  -23.0867   -8.7256   22.4861 C   0  0  0  0  0  0  0  0  0  0  0  0
  -35.8351  -16.3305   29.9749 C   0  0  0  0  0  0  0  0  0  0  0  0
  -19.3787   -7.9244   21.6417 C   0  0  0  0  0  0  0  0  0  0  0  0
  -18.0721   -7.8788   21.1555 C   0  0  0  0  0  0  0  0  0  0  0  0
  -29.8802  -17.4567   23.1388 C   0  0  0  0  0  0  0  0  0  0  0  0
  -32.0642  -16.6068   22.5516 C   0  0  0  0  0  0  0  0  0  0  0  0
  -35.0064  -18.2212   28.7267 C   0  0  0  0  0  0  0  0  0  0  0  0
  -18.6313   -5.9342   19.8352 C   0  0  0  0  0  0  0  0  0  0  0  0
  -23.8253  -10.4500   20.9637 C   0  0  0  0  0  0  0  0  0  0  0  0
  -30.4677  -18.3417   24.0428 C   0  0  0  0  0  0  0  0  0  0  0  0
  -32.6517  -17.4918   23.4557 C   0  0  0  0  0  0  0  0  0  0  0  0
  -31.8534  -18.3593   24.2013 C   0  0  0  0  0  0  0  0  0  0  0  0
  -24.1693  -12.9748   20.8419 C   0  0  0  0  0  0  0  0  0  0  0  0
  -26.5210  -17.6653   32.6133 C   0  0  0  0  0  0  0  0  0  0  0  0
  -34.1419  -17.7761   30.9435 C   0  0  0  0  0  0  0  0  0  0  0  0
  -27.7409  -17.0297   32.3129 C   0  0  0  0  0  0  0  0  0  0  0  0
  -34.1563  -18.5695   29.7875 C   0  0  0  0  0  0  0  0  0  0  0  0
  -30.6785  -16.5892   22.3932 C   0  0  0  0  0  0  0  0  0  0  0  0
  -22.3352   -8.1453   21.4643 C   0  0  0  0  0  0  0  0  0  0  0  0
  -35.8398  -17.1068   28.8197 C   0  0  0  0  0  0  0  0  0  0  0  0
  -20.3116   -6.9749   21.2246 C   0  0  0  0  0  0  0  0  0  0  0  0
  -17.6984   -6.8837   20.2522 C   0  0  0  0  0  0  0  0  0  0  0  0
  -19.9379   -5.9798   20.3214 C   0  0  0  0  0  0  0  0  0  0  0  0
  -24.5956  -11.6401   20.7056 C   0  0  0  0  0  0  0  0  0  0  0  0
  -25.2623  -13.7231   20.4789 C   0  0  0  0  0  0  0  0  0  0  0  0
  -28.6603  -18.7942   25.6378 C   0  0  0  0  0  0  0  0  0  0  0  0
  -32.8275  -20.5204   24.8307 C   0  0  0  0  0  0  0  0  0  0  0  0
  -29.5872  -19.2271   24.7986 C   0  0  0  0  0  0  0  0  0  0  0  0
  -34.1184  -17.4693   23.5845 C   0  0  0  0  0  0  0  0  0  0  0  0
  -32.4698  -19.2891   25.1486 C   0  0  0  0  0  0  0  0  0  0  0  0
  -34.8485  -16.3996   23.9370 C   0  0  0  0  0  0  0  0  0  0  0  0
  -22.8989  -13.4920   21.2594 C   0  0  0  0  0  0  0  0  0  0  0  0
  -30.9922  -18.1996   31.0038 C   0  0  0  0  0  0  0  0  0  0  0  0
  -31.8057  -21.3396   30.9830 C   0  0  0  0  0  0  0  0  0  0  0  0
  -34.1155  -23.7290   30.2066 C   0  0  0  0  0  0  0  0  0  0  0  0
  -30.7292  -14.7645   20.6571 C   0  0  0  0  0  0  0  0  0  0  0  0
  -25.9775  -18.7829   31.7588 C   0  0  0  0  0  0  0  0  0  0  0  0
  -33.2589  -18.1394   32.1057 C   0  0  0  0  0  0  0  0  0  0  0  0
  -33.2765  -19.7839   29.6481 C   0  0  0  0  0  0  0  0  0  0  0  0
  -27.0285  -19.4286   30.8595 C   0  0  0  0  0  0  0  0  0  0  0  0
  -29.6147  -12.3497   18.2899 C   0  0  0  0  0  0  0  0  0  0  0  0
  -27.8564  -18.3596   30.1534 C   0  0  0  0  0  0  0  0  0  0  0  0
  -28.1745  -12.0596   18.7185 C   0  0  0  0  0  0  0  0  0  0  0  0
  -30.5291  -12.5787   19.4921 C   0  0  0  0  0  0  0  0  0  0  0  0
  -28.6216  -13.3058   20.8712 C   0  0  0  0  0  0  0  0  0  0  0  0
  -28.6128  -17.4900   31.1649 C   0  0  1  0  0  0  0  0  0  0  0  0
  -32.0605  -18.9927   31.7018 C   0  0  1  0  0  0  0  0  0  0  0  0
  -27.6496  -13.1324   19.6928 C   0  0  2  0  0  0  0  0  0  0  0  0
  -34.4806  -26.2109   30.2719 C   0  0  0  0  0  0  0  0  0  0  0  0
  -29.9679  -21.6711   28.5701 C   0  0  0  0  0  0  0  0  0  0  0  0
  -31.0819  -23.8657   28.1108 C   0  0  0  0  0  0  0  0  0  0  0  0
  -29.8356  -23.5240   30.2445 C   0  0  0  0  0  0  0  0  0  0  0  0
  -36.4521  -23.4548   32.0022 C   0  0  0  0  0  0  0  0  0  0  0  0
  -36.3465  -16.4228   24.0512 C   0  0  0  0  0  0  0  0  0  0  0  0
  -36.7977  -16.1246   25.4799 C   0  0  0  0  0  0  0  0  0  0  0  0
  -36.2155  -17.1224   26.4714 C   0  0  0  0  0  0  0  0  0  1  0  0
  -32.0607  -22.3709   29.9104 C   0  0  1  0  0  0  0  0  0  0  0  0
  -34.6686  -24.8935   31.0081 C   0  0  2  0  0  0  0  0  0  0  0  0
  -30.7518  -22.8340   29.2105 C   0  0  0  0  0  0  0  0  0  0  0  0
  -25.8607  -11.5429   20.2884 N   0  0  0  0  0  0  0  0  0  0  0  0
  -26.2387  -12.8261   20.1593 N   0  0  0  0  0  0  0  0  0  0  0  0
  -32.4263  -20.0944   30.8092 N   0  0  0  0  0  0  0  0  0  0  0  0
  -29.9702  -13.6106   20.3682 N   0  0  0  0  0  0  0  0  0  0  0  0
  -25.4738  -15.0544   20.4050 N   0  0  0  0  0  0  0  0  0  0  0  0
  -21.8859  -12.5839   21.5966 N   0  0  0  0  0  0  0  0  0  0  0  0
  -30.0819  -15.6907   21.4743 N   0  0  0  0  0  0  0  0  0  0  0  0
  -29.7774  -18.1905   31.6623 N   0  0  0  0  0  0  0  0  0  0  0  0
  -32.8098  -23.4475   30.5491 N   0  0  0  0  0  0  0  0  0  0  0  0
  -36.1242  -24.7015   31.2637 N   0  3  0  0  0  0  0  0  0  0  0  0
  -22.6636  -14.7228   21.3156 O   0  0  0  0  0  0  0  0  0  0  0  0
  -31.2504  -17.6386   29.9453 O   0  0  0  0  0  0  0  0  0  0  0  0
  -31.0884  -21.6306   31.9435 O   0  0  0  0  0  0  0  0  0  0  0  0
  -34.7745  -23.1313   29.3586 O   0  0  0  0  0  0  0  0  0  0  0  0
  -31.8588  -14.9319   20.1903 O   0  0  0  0  0  0  0  0  0  0  0  0
  -21.6082   -7.0210   21.7089 O   0  0  0  0  0  0  0  0  0  0  0  0
  -36.6603  -16.7819   27.7838 O   0  0  0  0  0  0  0  0  0  1  0  0
  -16.4433   -6.8392   19.7866 F   0  0  0  0  0  0  0  0  0  0  0  0
  -20.8294   -5.0642   19.9180 F   0  0  0  0  0  0  0  0  0  0  0  0
  1  2  1  0  0  0  0
  1  5  2  0  0  0  0
  2  6  2  0  0  0  0
  3  8  2  0  0  0  0
  3 17  1  0  0  0  0
  4  9  1  0  0  0  0
  4 17  2  0  0  0  0
  5 22  1  0  0  0  0
  6 24  1  0  0  0  0
  7 10  2  0  0  0  0
  7 23  1  0  0  0  0
  8 27  1  0  0  0  0
  9 27  2  0  0  0  0
 10 28  1  0  0  0  0
 11 12  2  0  0  0  0
 11 29  1  0  0  0  0
 12 30  1  0  0  0  0
 13 18  1  0  0  0  0
 13 26  2  0  0  0  0
 14 19  2  0  0  0  0
 14 26  1  0  0  0  0
 15 25  1  0  0  0  0
 15 28  2  0  0  0  0
 16 30  2  0  0  0  0
 16 31  1  0  0  0  0
 17 32  1  0  0  0  0
 18 20  2  0  0  0  0
 18 36  1  0  0  0  0
 19 20  1  0  0  0  0
 19 37  1  0  0  0  0
 20 38  1  0  0  0  0
 21 32  1  0  0  0  0
 21 33  2  0  0  0  0
 21 40  1  0  0  0  0
 22 24  2  0  0  0  0
 22 45  1  0  0  0  0
 23 25  2  0  0  0  0
 23 46  1  0  0  0  0
 24 54  1  0  0  0  0
 25 47  1  0  0  0  0
 26 74  1  0  0  0  0
 27 83  1  0  0  0  0
 28 84  1  0  0  0  0
 29 31  2  0  0  0  0
 29 83  1  0  0  0  0
 30 85  1  0  0  0  0
 31 86  1  0  0  0  0
 32 68  2  0  0  0  0
 33 69  1  0  0  0  0
 33 72  1  0  0  0  0
 34 36  2  0  0  0  0
 35 38  2  0  0  0  0
 37 39  2  0  0  0  0
 39 62  1  0  0  0  0
 40 73  1  0  0  0  0
 40 78  2  0  0  0  0
 41 55  1  0  0  0  0
 41 75  1  0  0  0  0
 41 79  2  0  0  0  0
 42 65  1  0  0  0  0
 42 70  1  0  0  0  0
 42 80  2  0  0  0  0
 43 66  1  0  0  0  0
 43 76  1  0  0  0  0
 43 81  2  0  0  0  0
 44 71  1  0  0  0  0
 44 74  1  0  0  0  0
 44 82  2  0  0  0  0
 45 48  1  0  0  0  0
 46 55  1  0  0  0  0
 47 70  1  0  0  0  0
 48 50  1  0  0  0  0
 49 51  1  0  0  0  0
 49 52  1  0  0  0  0
 50 54  1  0  0  0  0
 51 56  1  0  0  0  0
 52 71  1  0  0  0  0
 53 56  1  0  0  0  0
 53 71  1  0  0  0  0
 54 75  1  0  0  0  0
 55 70  1  0  0  0  0
 56 69  1  0  0  0  0
 57 66  1  0  0  0  0
 58 67  1  0  0  0  0
 59 67  1  0  0  0  0
 60 67  1  0  0  0  0
 61 77  1  0  0  0  0
 62 63  1  0  0  0  0
 63 64  1  0  0  0  0
 64 84  1  0  0  0  0
 65 67  1  0  0  0  0
 65 76  1  0  0  0  0
 66 77  1  0  0  0  0
 68 69  1  0  0  0  0
M  CHG  1  77   1
M  ISO  4  44 100  64 101  74 100  84 101
M  END
> <Batch ID>
0123

> <Smiles>
C=Cc1cc([100NH:0][100C:0](=O)N2CCCC(n3nc(-c4ccc(Oc5ccc(F)cc5F)cc4)c(C(N)=O)c3N)C2)cc(C=CCC[101CH2:1][101O:1]c2ccc3c(c2)CN(C(=O)C(NC(=O)C(C)NC)C(C)(C)C)C(C(=O)NC2CCCc4ccccc42)C3)c1C=C

> <Shape>
0.145

> <Color>
0.191

> <Negative vol penalty>
0.000

$$$$

  -OEChem-04052302033D

 86 95  0     1  0  0  0  0  0999 V2000
  -27.6507  -20.4668   27.0699 C   0  0  0  0  0  0  0  0  0  0  0  0
  -27.8119  -21.1396   25.8629 C   0  0  0  0  0  0  0  0  0  0  0  0
  -26.5275  -12.8687   21.0641 C   0  0  0  0  0  0  0  0  0  0  0  0
  -24.9170  -14.6694   21.0350 C   0  0  0  0  0  0  0  0  0  0  0  0
  -26.3790  -20.3260   27.6238 C   0  0  0  0  0  0  0  0  0  0  0  0
  -26.7012  -21.6712   25.2086 C   0  0  0  0  0  0  0  0  0  0  0  0
  -27.5174  -26.3673   23.4982 C   0  0  0  0  0  0  0  0  0  0  0  0
  -25.4385  -23.9163   18.7188 C   0  0  0  0  0  0  0  0  0  0  0  0
  -26.4901  -24.5989   18.1074 C   0  0  0  0  0  0  0  0  0  0  0  0
  -25.5437  -11.9963   21.5293 C   0  0  0  0  0  0  0  0  0  0  0  0
  -23.9331  -13.7970   21.5002 C   0  0  0  0  0  0  0  0  0  0  0  0
  -28.2613  -26.4978   22.3262 C   0  0  0  0  0  0  0  0  0  0  0  0
  -23.3684   -9.2109   22.3810 C   0  0  0  0  0  0  0  0  0  0  0  0
  -23.2836   -7.9524   21.7858 C   0  0  0  0  0  0  0  0  0  0  0  0
  -26.2220  -26.7926   21.0718 C   0  0  0  0  0  0  0  0  0  0  0  0
  -28.0772  -23.2611   19.3437 C   0  0  0  0  0  0  0  0  0  0  0  0
  -22.8637   -8.9927   19.6460 C   0  0  0  0  0  0  0  0  0  0  0  0
  -26.2142  -14.2053   20.8169 C   0  0  0  0  0  0  0  0  0  0  0  0
  -27.9700  -14.9971   19.1442 C   0  0  0  0  0  0  0  0  0  0  0  0
  -25.2533  -20.8646   26.9807 C   0  0  0  0  0  0  0  0  0  0  0  0
  -26.1173  -26.4377   23.4641 C   0  0  0  0  0  0  0  0  0  0  0  0
  -25.4130  -21.5364   25.7537 C   0  0  0  0  0  0  0  0  0  0  0  0
  -25.4628  -26.6653   22.2451 C   0  0  0  0  0  0  0  0  0  0  0  0
  -25.7062  -22.9061   19.6427 C   0  0  0  0  0  0  0  0  0  0  0  0
  -27.8094  -24.2713   18.4198 C   0  0  0  0  0  0  0  0  0  0  0  0
  -27.0256  -22.5785   19.9551 C   0  0  0  0  0  0  0  0  0  0  0  0
  -24.2464  -12.4604   21.7474 C   0  0  0  0  0  0  0  0  0  0  0  0
  -27.6134  -26.7076   21.1124 C   0  0  0  0  0  0  0  0  0  0  0  0
  -23.2008  -10.3604   21.6088 C   0  0  0  0  0  0  0  0  0  0  0  0
  -23.0313   -7.8432   20.4183 C   0  0  0  0  0  0  0  0  0  0  0  0
  -22.9485  -10.2513   20.2413 C   0  0  0  0  0  0  0  0  0  0  0  0
  -27.2302  -15.1072   20.3369 C   0  0  0  0  0  0  0  0  0  0  0  0
  -28.7973  -16.0934   19.1509 C   0  0  0  0  0  0  0  0  0  0  0  0
  -30.9838  -26.1447   17.8369 C   0  0  0  0  0  0  0  0  0  0  0  0
  -29.8627  -25.7175   18.4742 C   0  0  0  0  0  0  0  0  0  0  0  0
  -27.9142  -13.9936   18.1217 C   0  0  0  0  0  0  0  0  0  0  0  0
  -23.7526  -24.4375   24.1792 C   0  0  0  0  0  0  0  0  0  0  0  0
  -21.8996  -27.0330   23.5857 C   0  0  0  0  0  0  0  0  0  0  0  0
  -21.8001  -29.6971   21.1546 C   0  0  0  0  0  0  0  0  0  0  0  0
  -28.4280  -21.4706   21.7306 C   0  0  0  0  0  0  0  0  0  0  0  0
  -23.8930  -20.6461   27.5943 C   0  0  0  0  0  0  0  0  0  0  0  0
  -25.3308  -26.3217   24.7409 C   0  0  0  0  0  0  0  0  0  0  0  0
  -23.9628  -26.7690   22.1577 C   0  0  0  0  0  0  0  0  0  0  0  0
  -31.2246  -25.8167   16.3774 C   0  0  0  0  0  0  0  0  0  0  0  0
  -22.8138  -21.5639   27.0257 C   0  0  0  0  0  0  0  0  0  0  0  0
  -30.3227  -24.7086   15.8429 C   0  0  0  0  0  0  0  0  0  0  0  0
  -31.0322  -19.0799   22.1543 C   0  0  0  0  0  0  0  0  0  0  0  0
  -22.8873  -21.5946   25.5024 C   0  0  0  0  0  0  0  0  0  0  0  0
  -30.4222  -17.7811   21.6222 C   0  0  0  0  0  0  0  0  0  0  0  0
  -28.8880  -24.8743   16.3283 C   0  0  0  0  0  0  0  0  0  0  0  0
  -29.9991  -19.9326   22.8887 C   0  0  0  0  0  0  0  0  0  0  0  0
  -28.1640  -18.9156   21.5973 C   0  0  0  0  0  0  0  0  0  0  0  0
  -24.2356  -22.1484   25.0262 C   0  0  1  0  0  0  0  0  0  0  0  0
  -23.8833  -25.8964   24.5145 C   0  0  1  0  0  0  0  0  0  0  0  0
  -29.1513  -18.0534   20.7938 C   0  0  2  0  0  0  0  0  0  0  0  0
  -24.5600  -22.1919   20.2820 C   0  0  0  0  0  0  0  0  0  0  0  0
  -32.0863  -26.9625   18.4577 C   0  0  0  0  0  0  0  0  0  0  0  0
  -20.8894  -32.0292   21.3262 C   0  0  0  0  0  0  0  0  0  0  0  0
  -19.3642  -25.8196   22.3987 C   0  0  0  0  0  0  0  0  0  0  0  0
  -19.0731  -27.9137   21.0578 C   0  0  0  0  0  0  0  0  0  0  0  0
  -19.0302  -28.0144   23.5500 C   0  0  0  0  0  0  0  0  0  0  0  0
  -24.3832  -30.8902   20.3403 C   0  0  0  0  0  0  0  0  0  0  0  0
  -29.5792  -26.1352   19.9024 C   0  0  0  0  0  0  0  0  0  1  0  0
  -21.2255  -27.6084   22.3636 C   0  0  1  0  0  0  0  0  0  0  0  0
  -22.1344  -31.1585   21.3937 C   0  0  2  0  0  0  0  0  0  0  0  0
  -19.6972  -27.3238   22.3405 C   0  0  0  0  0  0  0  0  0  0  0  0
  -27.5587  -16.1881   21.0495 N   0  0  0  0  0  0  0  0  0  0  0  0
  -28.5141  -16.7671   20.3025 N   0  0  0  0  0  0  0  0  0  0  0  0
  -28.8793  -24.9662   17.7975 N   0  0  0  0  0  0  0  0  0  0  0  0
  -23.2376  -26.6426   23.4327 N   0  0  0  0  0  0  0  0  0  0  0  0
  -28.8250  -20.1528   22.0414 N   0  0  0  0  0  0  0  0  0  0  0  0
  -29.7323  -16.5372   18.2841 N   0  0  0  0  0  0  0  0  0  0  0  0
  -27.0283  -14.1787   17.0515 N   0  0  0  0  0  0  0  0  0  0  0  0
  -27.3178  -21.5554   20.8909 N   0  0  0  0  0  0  0  0  0  0  0  0
  -24.2603  -23.5905   25.1457 N   0  0  0  0  0  0  0  0  0  0  0  0
  -21.5698  -29.0259   22.3368 N   0  0  0  0  0  0  0  0  0  0  0  0
  -23.1026  -31.6427   20.3694 N   0  3  0  0  0  0  0  0  0  0  0  0
  -28.6169  -12.9554   18.1644 O   0  0  0  0  0  0  0  0  0  0  0  0
  -23.2286  -24.1050   23.1225 O   0  0  0  0  0  0  0  0  0  0  0  0
  -21.2647  -26.9402   24.6392 O   0  0  0  0  0  0  0  0  0  0  0  0
  -21.7449  -29.2016   20.0313 O   0  0  0  0  0  0  0  0  0  0  0  0
  -29.0450  -22.4513   22.1543 O   0  0  0  0  0  0  0  0  0  0  0  0
  -23.2861  -11.6093   22.2011 O   0  0  0  0  0  0  0  0  0  0  0  0
  -28.3371  -26.8347   19.9669 O   0  0  0  0  0  0  0  0  0  1  0  0
  -22.9514   -6.6345   19.8465 F   0  0  0  0  0  0  0  0  0  0  0  0
  -22.7878  -11.3520   19.4941 F   0  0  0  0  0  0  0  0  0  0  0  0
  1  2  1  0  0  0  0
  1  5  2  0  0  0  0
  2  6  2  0  0  0  0
  3 10  2  0  0  0  0
  3 18  1  0  0  0  0
  4 11  1  0  0  0  0
  4 18  2  0  0  0  0
  5 20  1  0  0  0  0
  6 22  1  0  0  0  0
  7 12  2  0  0  0  0
  7 21  1  0  0  0  0
  8  9  2  0  0  0  0
  8 24  1  0  0  0  0
  9 25  1  0  0  0  0
 10 27  1  0  0  0  0
 11 27  2  0  0  0  0
 12 28  1  0  0  0  0
 13 14  2  0  0  0  0
 13 29  1  0  0  0  0
 14 30  1  0  0  0  0
 15 23  1  0  0  0  0
 15 28  2  0  0  0  0
 16 25  2  0  0  0  0
 16 26  1  0  0  0  0
 17 30  2  0  0  0  0
 17 31  1  0  0  0  0
 18 32  1  0  0  0  0
 19 32  1  0  0  0  0
 19 33  2  0  0  0  0
 19 36  1  0  0  0  0
 20 22  2  0  0  0  0
 20 41  1  0  0  0  0
 21 23  2  0  0  0  0
 21 42  1  0  0  0  0
 22 53  1  0  0  0  0
 23 43  1  0  0  0  0
 24 26  2  0  0  0  0
 24 56  1  0  0  0  0
 25 69  1  0  0  0  0
 26 74  1  0  0  0  0
 27 83  1  0  0  0  0
 28 84  1  0  0  0  0
 29 31  2  0  0  0  0
 29 83  1  0  0  0  0
 30 85  1  0  0  0  0
 31 86  1  0  0  0  0
 32 67  2  0  0  0  0
 33 68  1  0  0  0  0
 33 72  1  0  0  0  0
 34 35  2  0  0  0  0
 34 44  1  0  0  0  0
 34 57  1  0  0  0  0
 35 63  1  0  0  0  0
 35 69  1  0  0  0  0
 36 73  1  0  0  0  0
 36 78  2  0  0  0  0
 37 54  1  0  0  0  0
 37 75  1  0  0  0  0
 37 79  2  0  0  0  0
 38 64  1  0  0  0  0
 38 70  1  0  0  0  0
 38 80  2  0  0  0  0
 39 65  1  0  0  0  0
 39 76  1  0  0  0  0
 39 81  2  0  0  0  0
 40 71  1  0  0  0  0
 40 74  1  0  0  0  0
 40 82  2  0  0  0  0
 41 45  1  0  0  0  0
 42 54  1  0  0  0  0
 43 70  1  0  0  0  0
 44 46  1  0  0  0  0
 45 48  1  0  0  0  0
 46 50  1  0  0  0  0
 47 49  1  0  0  0  0
 47 51  1  0  0  0  0
 48 53  1  0  0  0  0
 49 55  1  0  0  0  0
 50 69  1  0  0  0  0
 51 71  1  0  0  0  0
 52 55  1  0  0  0  0
 52 71  1  0  0  0  0
 53 75  1  0  0  0  0
 54 70  1  0  0  0  0
 55 68  1  0  0  0  0
 58 65  1  0  0  0  0
 59 66  1  0  0  0  0
 60 66  1  0  0  0  0
 61 66  1  0  0  0  0
 62 77  1  0  0  0  0
 63 84  1  0  0  0  0
 64 66  1  0  0  0  0
 64 76  1  0  0  0  0
 65 77  1  0  0  0  0
 67 68  1  0  0  0  0
M  CHG  1  77   1
M  ISO  4  40 100  63 101  74 100  84 101
M  END
> <Batch ID>
0123

> <Smiles>
CNC(C)C(=O)NC(C(=O)N1Cc2cc([101O:1][101CH2:1]C3=C(C)CCCN3c3ccc(C)c([100NH:0][100C:0](=O)N4CCCC(n5nc(-c6ccc(Oc7ccc(F)cc7F)cc6)c(C(N)=O)c5N)C4)c3)ccc2CC1C(=O)NC1CCCc2ccccc21)C(C)(C)C

> <Shape>
0.238

> <Color>
0.063

> <Negative vol penalty>
0.000

$$$$

  -OEChem-04052302033D

 85 93  0     1  0  0  0  0  0999 V2000
  -27.1917  -34.6699   23.5576 C   0  0  0  0  0  0  0  0  0  0  0  0
  -27.5231  -33.3309   23.3776 C   0  0  0  0  0  0  0  0  0  0  0  0
  -22.4947  -11.1281   22.4800 C   0  0  0  0  0  0  0  0  0  0  0  0
  -22.0282  -10.8453   20.1264 C   0  0  0  0  0  0  0  0  0  0  0  0
  -25.8761  -35.0282   23.8490 C   0  0  0  0  0  0  0  0  0  0  0  0
  -26.5392  -32.3491   23.4899 C   0  0  0  0  0  0  0  0  0  0  0  0
  -26.7927  -28.9113   19.7801 C   0  0  0  0  0  0  0  0  0  0  0  0
  -21.9305   -9.8796   22.7418 C   0  0  0  0  0  0  0  0  0  0  0  0
  -21.4640   -9.5968   20.3881 C   0  0  0  0  0  0  0  0  0  0  0  0
  -27.7756  -27.9285   19.8889 C   0  0  0  0  0  0  0  0  0  0  0  0
  -22.8407   -6.6328   22.4915 C   0  0  0  0  0  0  0  0  0  0  0  0
  -23.5289   -5.7782   23.3527 C   0  0  0  0  0  0  0  0  0  0  0  0
  -26.1233  -26.3756   20.7120 C   0  0  0  0  0  0  0  0  0  0  0  0
  -25.9068  -22.6772   18.4725 C   0  0  0  0  0  0  0  0  0  0  0  0
  -21.6294   -5.7531   24.8456 C   0  0  0  0  0  0  0  0  0  0  0  0
  -22.5435  -11.6110   21.1723 C   0  0  0  0  0  0  0  0  0  0  0  0
  -24.4725  -13.1794   20.6007 C   0  0  0  0  0  0  0  0  0  0  0  0
  -24.8738  -34.0512   23.9554 C   0  0  0  0  0  0  0  0  0  0  0  0
  -25.4676  -28.6364   20.1474 C   0  0  0  0  0  0  0  0  0  0  0  0
  -25.2093  -32.6945   23.7843 C   0  0  0  0  0  0  0  0  0  0  0  0
  -25.1250  -27.3559   20.6046 C   0  0  0  0  0  0  0  0  0  0  0  0
  -26.3984  -20.0517   17.6677 C   0  0  0  0  0  0  0  0  0  0  0  0
  -27.3858  -20.7715   18.3405 C   0  0  0  0  0  0  0  0  0  0  0  0
  -25.1651  -20.6447   17.3974 C   0  0  0  0  0  0  0  0  0  0  0  0
  -27.1400  -22.0842   18.7429 C   0  0  0  0  0  0  0  0  0  0  0  0
  -21.4152   -9.1139   21.6959 C   0  0  0  0  0  0  0  0  0  0  0  0
  -27.4416  -26.6613   20.3576 C   0  0  0  0  0  0  0  0  0  0  0  0
  -21.5469   -7.0477   22.8074 C   0  0  0  0  0  0  0  0  0  0  0  0
  -22.9232   -5.3383   24.5297 C   0  0  0  0  0  0  0  0  0  0  0  0
  -24.9193  -21.9574   17.7998 C   0  0  0  0  0  0  0  0  0  0  0  0
  -20.9413   -6.6078   23.9844 C   0  0  0  0  0  0  0  0  0  0  0  0
  -23.1257  -12.9008   20.9013 C   0  0  0  0  0  0  0  0  0  0  0  0
  -24.5112  -14.5415   20.4285 C   0  0  0  0  0  0  0  0  0  0  0  0
  -28.9240  -23.5116   18.6736 C   0  0  0  0  0  0  0  0  0  0  0  0
  -25.5887  -12.2868   20.4872 C   0  0  0  0  0  0  0  0  0  0  0  0
  -23.4621  -29.7805   22.3321 C   0  0  0  0  0  0  0  0  0  0  0  0
  -21.3380  -27.8404   20.8333 C   0  0  0  0  0  0  0  0  0  0  0  0
  -20.7993  -25.0847   18.8935 C   0  0  0  0  0  0  0  0  0  0  0  0
  -22.3597  -19.2452   18.3329 C   0  0  0  0  0  0  0  0  0  0  0  0
  -23.4750  -34.4828   24.3186 C   0  0  0  0  0  0  0  0  0  0  0  0
  -24.4139  -29.6995   19.9990 C   0  0  0  0  0  0  0  0  0  0  0  0
  -23.7129  -27.0039   20.9927 C   0  0  0  0  0  0  0  0  0  0  0  0
  -22.4188  -33.4137   24.0506 C   0  0  0  0  0  0  0  0  0  0  0  0
  -21.0456  -18.0867   21.4325 C   0  0  0  0  0  0  0  0  0  0  0  0
  -22.8830  -32.0603   24.5792 C   0  0  0  0  0  0  0  0  0  0  0  0
  -21.5754  -16.6559   21.5425 C   0  0  0  0  0  0  0  0  0  0  0  0
  -20.6991  -18.4509   19.9905 C   0  0  0  0  0  0  0  0  0  0  0  0
  -22.3168  -16.8036   19.1285 C   0  0  0  0  0  0  0  0  0  0  0  0
  -24.1653  -31.6027   23.8736 C   0  0  1  0  0  0  0  0  0  0  0  0
  -23.1968  -29.4626   20.8877 C   0  0  1  0  0  0  0  0  0  0  0  0
  -22.7326  -16.4091   20.5560 C   0  0  2  0  0  0  0  0  0  0  0  0
  -26.6600  -18.6436   17.2353 C   0  0  0  0  0  0  0  0  0  0  0  0
  -28.7096  -20.1369   18.6314 C   0  0  0  0  0  0  0  0  0  0  0  0
  -18.9543  -23.7289   17.8664 C   0  0  0  0  0  0  0  0  0  0  0  0
  -20.7243  -26.6148   23.5593 C   0  0  0  0  0  0  0  0  0  0  0  0
  -19.6383  -24.6953   22.3741 C   0  0  0  0  0  0  0  0  0  0  0  0
  -18.7202  -27.0001   22.1137 C   0  0  0  0  0  0  0  0  0  0  0  0
  -21.7845  -25.6070   16.1521 C   0  0  0  0  0  0  0  0  0  0  0  0
  -24.0927  -19.8931   16.6788 C   0  0  0  0  0  0  0  0  0  0  0  0
  -30.0073  -24.3576   19.2872 C   0  0  0  0  0  0  0  0  0  0  0  0
  -29.4875  -25.7619   19.5444 C   0  0  0  0  0  0  0  0  0  1  0  0
  -20.9061  -26.4027   20.9926 C   0  0  1  0  0  0  0  0  0  0  0  0
  -19.9362  -24.8722   17.6629 C   0  0  2  0  0  0  0  0  0  0  0  0
  -20.0243  -26.1851   22.2545 C   0  0  0  0  0  0  0  0  0  0  0  0
  -22.3640  -13.9978   20.9199 N   0  0  0  0  0  0  0  0  0  0  0  0
  -28.1214  -22.8265   19.4209 N   0  0  0  0  0  0  0  0  0  0  0  0
  -23.2350  -14.9790   20.6290 N   0  0  0  0  0  0  0  0  0  0  0  0
  -22.7196  -28.0792   20.8357 N   0  0  0  0  0  0  0  0  0  0  0  0
  -21.8390  -18.1950   19.1068 N   0  0  0  0  0  0  0  0  0  0  0  0
  -25.5120  -15.3958   20.1269 N   0  0  0  0  0  0  0  0  0  0  0  0
  -25.3731  -10.9176   20.6951 N   0  0  0  0  0  0  0  0  0  0  0  0
  -23.8603  -31.0844   22.5572 N   0  0  0  0  0  0  0  0  0  0  0  0
  -20.2586  -26.0298   19.7396 N   0  0  0  0  0  0  0  0  0  0  0  0
  -23.4439  -18.9187   17.5275 N   0  0  0  0  0  0  0  0  0  0  0  0
  -20.7876  -24.5559   16.4814 N   0  3  0  0  0  0  0  0  0  0  0  0
  -26.7463  -12.6932   20.2257 O   0  0  0  0  0  0  0  0  0  0  0  0
  -23.3149  -28.9079   23.1797 O   0  0  0  0  0  0  0  0  0  0  0  0
  -20.4812  -28.7184   20.7040 O   0  0  0  0  0  0  0  0  0  0  0  0
  -21.8463  -24.4708   19.0869 O   0  0  0  0  0  0  0  0  0  0  0  0
  -21.8964  -20.3904   18.3619 O   0  0  0  0  0  0  0  0  0  0  0  0
  -20.8648   -7.8955   21.9510 O   0  0  0  0  0  0  0  0  0  0  0  0
  -28.3991  -25.7004   20.4653 O   0  0  0  0  0  0  0  0  0  1  0  0
  -23.5836   -4.5164   25.3559 F   0  0  0  0  0  0  0  0  0  0  0  0
  -23.7368  -22.5357   17.5467 F   0  0  0  0  0  0  0  0  0  0  0  0
  -19.6982   -7.0020   24.2926 F   0  0  0  0  0  0  0  0  0  0  0  0
  1  2  1  0  0  0  0
  1  5  2  0  0  0  0
  2  6  2  0  0  0  0
  3  8  2  0  0  0  0
  3 16  1  0  0  0  0
  4  9  1  0  0  0  0
  4 16  2  0  0  0  0
  5 18  1  0  0  0  0
  6 20  1  0  0  0  0
  7 10  2  0  0  0  0
  7 19  1  0  0  0  0
  8 26  1  0  0  0  0
  9 26  2  0  0  0  0
 10 27  1  0  0  0  0
 11 12  2  0  0  0  0
 11 28  1  0  0  0  0
 12 29  1  0  0  0  0
 13 21  1  0  0  0  0
 13 27  2  0  0  0  0
 14 25  1  0  0  0  0
 14 30  2  0  0  0  0
 15 29  2  0  0  0  0
 15 31  1  0  0  0  0
 16 32  1  0  0  0  0
 17 32  1  0  0  0  0
 17 33  2  0  0  0  0
 17 35  1  0  0  0  0
 18 20  2  0  0  0  0
 18 40  1  0  0  0  0
 19 21  2  0  0  0  0
 19 41  1  0  0  0  0
 20 49  1  0  0  0  0
 21 42  1  0  0  0  0
 22 23  1  0  0  0  0
 22 24  2  0  0  0  0
 22 52  1  0  0  0  0
 23 25  2  0  0  0  0
 23 53  1  0  0  0  0
 24 30  1  0  0  0  0
 24 59  1  0  0  0  0
 25 66  1  0  0  0  0
 26 81  1  0  0  0  0
 27 82  1  0  0  0  0
 28 31  2  0  0  0  0
 28 81  1  0  0  0  0
 29 83  1  0  0  0  0
 30 84  1  0  0  0  0
 31 85  1  0  0  0  0
 32 65  2  0  0  0  0
 33 67  1  0  0  0  0
 33 70  1  0  0  0  0
 34 60  1  0  0  0  0
 34 66  2  0  0  0  0
 35 71  1  0  0  0  0
 35 76  2  0  0  0  0
 36 50  1  0  0  0  0
 36 72  1  0  0  0  0
 36 77  2  0  0  0  0
 37 62  1  0  0  0  0
 37 68  1  0  0  0  0
 37 78  2  0  0  0  0
 38 63  1  0  0  0  0
 38 73  1  0  0  0  0
 38 79  2  0  0  0  0
 39 69  1  0  0  0  0
 39 74  1  0  0  0  0
 39 80  2  0  0  0  0
 40 43  1  0  0  0  0
 41 50  1  0  0  0  0
 42 68  1  0  0  0  0
 43 45  1  0  0  0  0
 44 46  1  0  0  0  0
 44 47  1  0  0  0  0
 45 49  1  0  0  0  0
 46 51  1  0  0  0  0
 47 69  1  0  0  0  0
 48 51  1  0  0  0  0
 48 69  1  0  0  0  0
 49 72  1  0  0  0  0
 50 68  1  0  0  0  0
 51 67  1  0  0  0  0
 54 63  1  0  0  0  0
 55 64  1  0  0  0  0
 56 64  1  0  0  0  0
 57 64  1  0  0  0  0
 58 75  1  0  0  0  0
 59 74  1  0  0  0  0
 60 61  1  0  0  0  0
 61 82  1  0  0  0  0
 62 64  1  0  0  0  0
 62 73  1  0  0  0  0
 63 75  1  0  0  0  0
 65 67  1  0  0  0  0
M  CHG  1  75   1
M  ISO  4  39 100  61 101  74 100  82 101
M  END
> <Batch ID>
0123

> <Smiles>
CNC(C)C(=O)NC(C(=O)N1Cc2cc([101O:1][101CH2:1]C=CNc3cc(F)c(C[100NH:0][100C:0](=O)N4CCCC(n5nc(-c6ccc(Oc7ccc(F)cc7F)cc6)c(C(N)=O)c5N)C4)c(C)c3C)ccc2CC1C(=O)NC1CCCc2ccccc21)C(C)(C)C

> <Shape>
0.271

> <Color>
0.106

> <Negative vol penalty>
0.000

$$$$

  -OEChem-04052302033D

 85 93  0     1  0  0  0  0  0999 V2000
  -18.5544  -25.0066   21.3717 C   0  0  0  0  0  0  0  0  0  0  0  0
  -19.8519  -25.1707   20.8973 C   0  0  0  0  0  0  0  0  0  0  0  0
  -24.2838  -12.7969   19.6518 C   0  0  0  0  0  0  0  0  0  0  0  0
  -25.7469  -13.7906   21.2978 C   0  0  0  0  0  0  0  0  0  0  0  0
  -29.9011  -22.8975   18.6125 C   0  0  0  0  0  0  0  0  0  0  0  0
  -17.8109  -26.1190   21.7637 C   0  0  0  0  0  0  0  0  0  0  0  0
  -20.4063  -26.4474   20.8137 C   0  0  0  0  0  0  0  0  0  0  0  0
  -25.1532  -26.6231   22.5688 C   0  0  0  0  0  0  0  0  0  0  0  0
  -28.7097  -22.2632   18.2610 C   0  0  0  0  0  0  0  0  0  0  0  0
  -24.9229  -11.5693   19.8249 C   0  0  0  0  0  0  0  0  0  0  0  0
  -26.3860  -12.5629   21.4708 C   0  0  0  0  0  0  0  0  0  0  0  0
  -26.1592  -26.1394   21.7334 C   0  0  0  0  0  0  0  0  0  0  0  0
  -24.8768   -9.0297   22.0567 C   0  0  0  0  0  0  0  0  0  0  0  0
  -24.0766   -7.8932   22.1744 C   0  0  0  0  0  0  0  0  0  0  0  0
  -26.7056  -28.4000   21.0926 C   0  0  0  0  0  0  0  0  0  0  0  0
  -28.5062  -21.3999   20.5083 C   0  0  0  0  0  0  0  0  0  0  0  0
  -25.1300   -6.9488   20.2159 C   0  0  0  0  0  0  0  0  0  0  0  0
  -24.6959  -13.9077   20.3883 C   0  0  0  0  0  0  0  0  0  0  0  0
  -30.3952  -22.7830   19.9120 C   0  0  0  0  0  0  0  0  0  0  0  0
  -22.9170  -15.6591   20.9135 C   0  0  0  0  0  0  0  0  0  0  0  0
  -18.3598  -27.4091   21.6939 C   0  0  0  0  0  0  0  0  0  0  0  0
  -24.9083  -28.0005   22.6642 C   0  0  0  0  0  0  0  0  0  0  0  0
  -19.6689  -27.5782   21.2039 C   0  0  0  0  0  0  0  0  0  0  0  0
  -25.6976  -28.8987   21.9318 C   0  0  0  0  0  0  0  0  0  0  0  0
  -29.6977  -22.0342   20.8598 C   0  0  0  0  0  0  0  0  0  0  0  0
  -28.0122  -21.5144   19.2089 C   0  0  0  0  0  0  0  0  0  0  0  0
  -25.9740  -11.4522   20.7344 C   0  0  0  0  0  0  0  0  0  0  0  0
  -26.9337  -27.0277   20.9930 C   0  0  0  0  0  0  0  0  0  0  0  0
  -25.8035   -9.1258   21.0186 C   0  0  0  0  0  0  0  0  0  0  0  0
  -24.2033   -6.8528   21.2540 C   0  0  0  0  0  0  0  0  0  0  0  0
  -25.9301   -8.0853   20.0982 C   0  0  0  0  0  0  0  0  0  0  0  0
  -24.0365  -15.1763   20.2095 C   0  0  0  0  0  0  0  0  0  0  0  0
  -22.6817  -16.9003   20.3745 C   0  0  0  0  0  0  0  0  0  0  0  0
  -33.4254  -26.4502   21.4700 C   0  0  0  0  0  0  0  0  0  0  0  0
  -31.6501  -23.4621   20.2507 C   0  0  0  0  0  0  0  0  0  0  0  0
  -33.0990  -25.2393   21.0010 C   0  0  0  0  0  0  0  0  0  0  0  0
  -22.1578  -15.0409   21.9609 C   0  0  0  0  0  0  0  0  0  0  0  0
  -31.7586  -24.7224   20.7240 C   0  0  0  0  0  0  0  0  0  0  0  0
  -22.4357  -29.8893   22.0143 C   0  0  0  0  0  0  0  0  0  0  0  0
  -24.3127  -32.1601   23.3718 C   0  0  0  0  0  0  0  0  0  0  0  0
  -27.4541  -33.2131   24.1897 C   0  0  0  0  0  0  0  0  0  0  0  0
  -26.1768  -20.8776   17.6051 C   0  0  0  0  0  0  0  0  0  0  0  0
  -17.5008  -28.5856   22.0844 C   0  0  0  0  0  0  0  0  0  0  0  0
  -23.8370  -28.5078   23.5902 C   0  0  0  0  0  0  0  0  0  0  0  0
  -25.4882  -30.3879   22.0143 C   0  0  0  0  0  0  0  0  0  0  0  0
  -18.2945  -29.8686   22.3174 C   0  0  0  0  0  0  0  0  0  0  0  0
  -23.2150  -19.3820   16.3136 C   0  0  0  0  0  0  0  0  0  0  0  0
  -19.2957  -30.0895   21.1880 C   0  0  0  0  0  0  0  0  0  0  0  0
  -22.9842  -18.1812   17.2339 C   0  0  0  0  0  0  0  0  0  0  0  0
  -24.7013  -19.6185   16.0518 C   0  0  0  0  0  0  0  0  0  0  0  0
  -25.3035  -18.5268   18.1766 C   0  0  0  0  0  0  0  0  0  0  0  0
  -20.3139  -28.9447   21.1217 C   0  0  1  0  0  0  0  0  0  0  0  0
  -23.3352  -29.8995   23.2178 C   0  0  1  0  0  0  0  0  0  0  0  0
  -23.8244  -18.2885   18.5216 C   0  0  2  0  0  0  0  0  0  0  0  0
  -30.1969  -21.8901   22.2616 C   0  0  0  0  0  0  0  0  0  0  0  0
  -28.6739  -35.1276   25.2595 C   0  0  0  0  0  0  0  0  0  0  0  0
  -23.9090  -33.8251   20.8470 C   0  0  0  0  0  0  0  0  0  0  0  0
  -25.8556  -35.2344   21.5491 C   0  0  0  0  0  0  0  0  0  0  0  0
  -23.8156  -35.1263   22.9807 C   0  0  0  0  0  0  0  0  0  0  0  0
  -28.5466  -31.4766   26.3227 C   0  0  0  0  0  0  0  0  0  0  0  0
  -30.5602  -25.6297   20.9435 C   0  0  0  0  0  0  0  0  0  0  0  0
  -30.2754  -26.5305   19.7383 C   0  0  0  0  0  0  0  0  0  0  0  0
  -29.0484  -27.4018   19.9711 C   0  0  0  0  0  0  0  0  0  1  0  0
  -25.3573  -33.1257   22.8667 C   0  0  1  0  0  0  0  0  0  0  0  0
  -28.0256  -33.7699   25.4812 C   0  0  2  0  0  0  0  0  0  0  0  0
  -24.7373  -34.2998   22.0576 C   0  0  0  0  0  0  0  0  0  0  0  0
  -24.4813  -16.0402   19.2932 N   0  0  0  0  0  0  0  0  0  0  0  0
  -23.6370  -17.0784   19.4176 N   0  0  0  0  0  0  0  0  0  0  0  0
  -24.4244  -30.8345   22.9289 N   0  0  0  0  0  0  0  0  0  0  0  0
  -25.4329  -19.7139   17.3169 N   0  0  0  0  0  0  0  0  0  0  0  0
  -21.7527  -17.8458   20.6305 N   0  0  0  0  0  0  0  0  0  0  0  0
  -22.5358  -13.7631   22.3953 N   0  0  0  0  0  0  0  0  0  0  0  0
  -26.8033  -20.8677   18.8508 N   0  0  0  0  0  0  0  0  0  0  0  0
  -21.3131  -29.0964   22.1576 N   0  0  0  0  0  0  0  0  0  0  0  0
  -26.1247  -33.5446   24.0347 N   0  0  0  0  0  0  0  0  0  0  0  0
  -29.0530  -32.8432   26.0349 N   0  3  0  0  0  0  0  0  0  0  0  0
  -21.1634  -15.5981   22.4845 O   0  0  0  0  0  0  0  0  0  0  0  0
  -22.7370  -30.5530   21.0291 O   0  0  0  0  0  0  0  0  0  0  0  0
  -23.4341  -32.5654   24.1370 O   0  0  0  0  0  0  0  0  0  0  0  0
  -28.1214  -32.5536   23.3958 O   0  0  0  0  0  0  0  0  0  0  0  0
  -26.2303  -21.8253   16.8170 O   0  0  0  0  0  0  0  0  0  0  0  0
  -26.5977  -10.2543   20.9036 O   0  0  0  0  0  0  0  0  0  0  0  0
  -27.9158  -26.5582   20.1763 O   0  0  0  0  0  0  0  0  0  1  0  0
  -23.4359   -5.7609   21.3680 F   0  0  0  0  0  0  0  0  0  0  0  0
  -26.8195   -8.1714   19.0995 F   0  0  0  0  0  0  0  0  0  0  0  0
  1  2  1  0  0  0  0
  1  6  2  0  0  0  0
  2  7  2  0  0  0  0
  3 10  2  0  0  0  0
  3 18  1  0  0  0  0
  4 11  1  0  0  0  0
  4 18  2  0  0  0  0
  5  9  2  0  0  0  0
  5 19  1  0  0  0  0
  6 21  1  0  0  0  0
  7 23  1  0  0  0  0
  8 12  2  0  0  0  0
  8 22  1  0  0  0  0
  9 26  1  0  0  0  0
 10 27  1  0  0  0  0
 11 27  2  0  0  0  0
 12 28  1  0  0  0  0
 13 14  2  0  0  0  0
 13 29  1  0  0  0  0
 14 30  1  0  0  0  0
 15 24  1  0  0  0  0
 15 28  2  0  0  0  0
 16 25  1  0  0  0  0
 16 26  2  0  0  0  0
 17 30  2  0  0  0  0
 17 31  1  0  0  0  0
 18 32  1  0  0  0  0
 19 25  2  0  0  0  0
 19 35  1  0  0  0  0
 20 32  1  0  0  0  0
 20 33  2  0  0  0  0
 20 37  1  0  0  0  0
 21 23  2  0  0  0  0
 21 43  1  0  0  0  0
 22 24  2  0  0  0  0
 22 44  1  0  0  0  0
 23 52  1  0  0  0  0
 24 45  1  0  0  0  0
 25 55  1  0  0  0  0
 26 73  1  0  0  0  0
 27 82  1  0  0  0  0
 28 83  1  0  0  0  0
 29 31  2  0  0  0  0
 29 82  1  0  0  0  0
 30 84  1  0  0  0  0
 31 85  1  0  0  0  0
 32 67  2  0  0  0  0
 33 68  1  0  0  0  0
 33 71  1  0  0  0  0
 34 36  2  0  0  0  0
 35 38  2  0  0  0  0
 36 38  1  0  0  0  0
 37 72  1  0  0  0  0
 37 77  2  0  0  0  0
 38 61  1  0  0  0  0
 39 53  1  0  0  0  0
 39 74  1  0  0  0  0
 39 78  2  0  0  0  0
 40 64  1  0  0  0  0
 40 69  1  0  0  0  0
 40 79  2  0  0  0  0
 41 65  1  0  0  0  0
 41 75  1  0  0  0  0
 41 80  2  0  0  0  0
 42 70  1  0  0  0  0
 42 73  1  0  0  0  0
 42 81  2  0  0  0  0
 43 46  1  0  0  0  0
 44 53  1  0  0  0  0
 45 69  1  0  0  0  0
 46 48  1  0  0  0  0
 47 49  1  0  0  0  0
 47 50  1  0  0  0  0
 48 52  1  0  0  0  0
 49 54  1  0  0  0  0
 50 70  1  0  0  0  0
 51 54  1  0  0  0  0
 51 70  1  0  0  0  0
 52 74  1  0  0  0  0
 53 69  1  0  0  0  0
 54 68  1  0  0  0  0
 56 65  1  0  0  0  0
 57 66  1  0  0  0  0
 58 66  1  0  0  0  0
 59 66  1  0  0  0  0
 60 76  1  0  0  0  0
 61 62  1  0  0  0  0
 62 63  1  0  0  0  0
 63 83  1  0  0  0  0
 64 66  1  0  0  0  0
 64 75  1  0  0  0  0
 65 76  1  0  0  0  0
 67 68  1  0  0  0  0
M  CHG  1  76   1
M  ISO  4  42 100  63 101  73 100  83 101
M  END
> <Batch ID>
0123

> <Smiles>
C=CC(=Cc1ccc([100NH:0][100C:0](=O)N2CCCC(n3nc(-c4ccc(Oc5ccc(F)cc5F)cc4)c(C(N)=O)c3N)C2)cc1C)CC[101CH2:1][101O:1]c1ccc2c(c1)CN(C(=O)C(NC(=O)C(C)NC)C(C)(C)C)C(C(=O)NC1CCCc3ccccc31)C2

> <Shape>
0.261

> <Color>
0.089

> <Negative vol penalty>
0.000

$$$$

  -OEChem-04052302033D

 84 92  0     1  0  0  0  0  0999 V2000
  -29.4302  -35.9346   22.6256 C   0  0  0  0  0  0  0  0  0  0  0  0
  -29.3083  -34.5682   22.8569 C   0  0  0  0  0  0  0  0  0  0  0  0
  -23.8316   -9.6496   22.1500 C   0  0  0  0  0  0  0  0  0  0  0  0
  -23.4579  -11.8624   23.0448 C   0  0  0  0  0  0  0  0  0  0  0  0
  -28.7730  -19.3934   21.2296 C   0  0  0  0  0  0  0  0  0  0  0  0
  -28.3006  -36.7508   22.6666 C   0  0  0  0  0  0  0  0  0  0  0  0
  -28.0568  -34.0174   23.1305 C   0  0  0  0  0  0  0  0  0  0  0  0
  -27.2135  -29.7376   20.5581 C   0  0  0  0  0  0  0  0  0  0  0  0
  -28.7297  -18.0151   21.4397 C   0  0  0  0  0  0  0  0  0  0  0  0
  -23.1776   -9.0944   23.2498 C   0  0  0  0  0  0  0  0  0  0  0  0
  -22.8038  -11.3072   24.1446 C   0  0  0  0  0  0  0  0  0  0  0  0
  -27.8206  -28.5772   21.0361 C   0  0  0  0  0  0  0  0  0  0  0  0
  -19.9904   -8.6292   24.2787 C   0  0  0  0  0  0  0  0  0  0  0  0
  -19.0606   -7.6180   24.0373 C   0  0  0  0  0  0  0  0  0  0  0  0
  -25.7435  -27.9258   22.0755 C   0  0  0  0  0  0  0  0  0  0  0  0
  -30.5941  -17.7265   19.9305 C   0  0  0  0  0  0  0  0  0  0  0  0
  -20.3562   -6.1013   25.4005 C   0  0  0  0  0  0  0  0  0  0  0  0
  -23.9719  -11.0336   22.0476 C   0  0  0  0  0  0  0  0  0  0  0  0
  -29.7268  -19.9382   20.3699 C   0  0  0  0  0  0  0  0  0  0  0  0
  -24.0713  -12.0044   19.6906 C   0  0  0  0  0  0  0  0  0  0  0  0
  -27.0332  -36.2083   22.9312 C   0  0  0  0  0  0  0  0  0  0  0  0
  -25.8674  -30.0066   20.8448 C   0  0  0  0  0  0  0  0  0  0  0  0
  -26.9094  -34.8274   23.1764 C   0  0  0  0  0  0  0  0  0  0  0  0
  -25.1209  -29.0891   21.5978 C   0  0  0  0  0  0  0  0  0  0  0  0
  -30.6373  -19.1048   19.7204 C   0  0  0  0  0  0  0  0  0  0  0  0
  -29.6402  -17.1817   20.7902 C   0  0  0  0  0  0  0  0  0  0  0  0
  -22.6636   -9.9232   24.2471 C   0  0  0  0  0  0  0  0  0  0  0  0
  -27.0864  -27.6725   21.7974 C   0  0  0  0  0  0  0  0  0  0  0  0
  -21.1032   -8.3765   25.0809 C   0  0  0  0  0  0  0  0  0  0  0  0
  -19.2434   -6.3540   24.5982 C   0  0  0  0  0  0  0  0  0  0  0  0
  -21.2861   -7.1125   25.6418 C   0  0  0  0  0  0  0  0  0  0  0  0
  -24.6479  -11.6077   20.9120 C   0  0  0  0  0  0  0  0  0  0  0  0
  -25.1262  -12.4821   18.9520 C   0  0  0  0  0  0  0  0  0  0  0  0
  -29.7470  -21.3967   20.1694 C   0  0  0  0  0  0  0  0  0  0  0  0
  -29.9120  -22.3093   21.1399 C   0  0  0  0  0  0  0  0  0  0  0  0
  -22.7043  -11.9464   19.2620 C   0  0  0  0  0  0  0  0  0  0  0  0
  -24.3223  -32.3043   22.4059 C   0  0  0  0  0  0  0  0  0  0  0  0
  -28.8128  -24.4839   21.6670 C   0  0  0  0  0  0  0  0  0  0  0  0
  -21.6971  -30.7647   21.2831 C   0  0  0  0  0  0  0  0  0  0  0  0
  -20.3090  -27.8678   20.1308 C   0  0  0  0  0  0  0  0  0  0  0  0
  -30.4240  -14.8139   20.4355 C   0  0  0  0  0  0  0  0  0  0  0  0
  -25.8482  -37.1377   23.0119 C   0  0  0  0  0  0  0  0  0  0  0  0
  -25.2199  -31.2498   20.2992 C   0  0  0  0  0  0  0  0  0  0  0  0
  -23.6673  -29.3214   21.9164 C   0  0  0  0  0  0  0  0  0  0  0  0
  -24.5038  -36.4183   22.9383 C   0  0  0  0  0  0  0  0  0  0  0  0
  -29.8531  -11.9517   18.3962 C   0  0  0  0  0  0  0  0  0  0  0  0
  -24.4953  -35.2066   23.8649 C   0  0  0  0  0  0  0  0  0  0  0  0
  -28.3991  -11.5784   18.6942 C   0  0  0  0  0  0  0  0  0  0  0  0
  -30.5739  -12.4639   19.6420 C   0  0  0  0  0  0  0  0  0  0  0  0
  -28.4421  -13.1876   20.6424 C   0  0  0  0  0  0  0  0  0  0  0  0
  -25.5654  -34.1888   23.4519 C   0  0  1  0  0  0  0  0  0  0  0  0
  -23.9829  -31.6734   21.0851 C   0  0  1  0  0  0  0  0  0  0  0  0
  -27.6563  -12.7275   19.4036 C   0  0  2  0  0  0  0  0  0  0  0  0
  -31.6733  -19.6536   18.7928 C   0  0  0  0  0  0  0  0  0  0  0  0
  -18.1334  -26.9092   19.3274 C   0  0  0  0  0  0  0  0  0  0  0  0
  -20.6885  -30.6487   24.1605 C   0  0  0  0  0  0  0  0  0  0  0  0
  -19.0481  -28.8994   23.4413 C   0  0  0  0  0  0  0  0  0  0  0  0
  -18.9352  -31.1906   22.4615 C   0  0  0  0  0  0  0  0  0  0  0  0
  -21.4394  -27.2283   17.4714 C   0  0  0  0  0  0  0  0  0  0  0  0
  -29.9190  -23.7861   20.8881 C   0  0  0  0  0  0  0  0  0  0  0  0
  -28.7352  -25.9875   21.4838 C   0  0  0  0  0  0  0  0  0  1  0  0
  -20.8181  -29.6448   21.7853 C   0  0  1  0  0  0  0  0  0  0  0  0
  -19.4368  -27.5798   18.9222 C   0  0  2  0  0  0  0  0  0  0  0  0
  -19.9004  -30.0921   22.9579 C   0  0  0  0  0  0  0  0  0  0  0  0
  -25.9668  -11.8152   20.9510 N   0  0  0  0  0  0  0  0  0  0  0  0
  -26.2277  -12.3474   19.7449 N   0  0  0  0  0  0  0  0  0  0  0  0
  -23.0809  -30.5544   21.3656 N   0  0  0  0  0  0  0  0  0  0  0  0
  -29.8144  -13.5539   20.2583 N   0  0  0  0  0  0  0  0  0  0  0  0
  -25.2097  -13.0000   17.7081 N   0  0  0  0  0  0  0  0  0  0  0  0
  -21.7485  -11.4268   20.1457 N   0  0  0  0  0  0  0  0  0  0  0  0
  -29.5944  -15.7813   21.0015 N   0  0  0  0  0  0  0  0  0  0  0  0
  -25.1218  -33.4267   22.3043 N   0  0  0  0  0  0  0  0  0  0  0  0
  -20.0975  -29.1386   20.6222 N   0  0  0  0  0  0  0  0  0  0  0  0
  -20.1507  -26.6828   17.9701 N   0  3  0  0  0  0  0  0  0  0  0  0
  -22.3437  -12.3283   18.1229 O   0  0  0  0  0  0  0  0  0  0  0  0
  -23.8895  -31.8102   23.4404 O   0  0  0  0  0  0  0  0  0  0  0  0
  -28.0188  -23.8804   22.3876 O   0  0  0  0  0  0  0  0  0  0  0  0
  -21.1752  -31.7853   20.8276 O   0  0  0  0  0  0  0  0  0  0  0  0
  -21.0963  -27.0461   20.5950 O   0  0  0  0  0  0  0  0  0  0  0  0
  -31.5872  -15.0273   20.0841 O   0  0  0  0  0  0  0  0  0  0  0  0
  -22.0251   -9.3818   25.3203 O   0  0  0  0  0  0  0  0  0  0  0  0
  -27.6768  -26.5394   22.2659 O   0  0  0  0  0  0  0  0  0  1  0  0
  -18.3496   -5.3834   24.3676 F   0  0  0  0  0  0  0  0  0  0  0  0
  -22.3525   -6.8641   26.4143 F   0  0  0  0  0  0  0  0  0  0  0  0
  1  2  1  0  0  0  0
  1  6  2  0  0  0  0
  2  7  2  0  0  0  0
  3 10  2  0  0  0  0
  3 18  1  0  0  0  0
  4 11  1  0  0  0  0
  4 18  2  0  0  0  0
  5  9  2  0  0  0  0
  5 19  1  0  0  0  0
  6 21  1  0  0  0  0
  7 23  1  0  0  0  0
  8 12  2  0  0  0  0
  8 22  1  0  0  0  0
  9 26  1  0  0  0  0
 10 27  1  0  0  0  0
 11 27  2  0  0  0  0
 12 28  1  0  0  0  0
 13 14  2  0  0  0  0
 13 29  1  0  0  0  0
 14 30  1  0  0  0  0
 15 24  1  0  0  0  0
 15 28  2  0  0  0  0
 16 25  1  0  0  0  0
 16 26  2  0  0  0  0
 17 30  2  0  0  0  0
 17 31  1  0  0  0  0
 18 32  1  0  0  0  0
 19 25  2  0  0  0  0
 19 34  1  0  0  0  0
 20 32  1  0  0  0  0
 20 33  2  0  0  0  0
 20 36  1  0  0  0  0
 21 23  2  0  0  0  0
 21 42  1  0  0  0  0
 22 24  2  0  0  0  0
 22 43  1  0  0  0  0
 23 51  1  0  0  0  0
 24 44  1  0  0  0  0
 25 54  1  0  0  0  0
 26 71  1  0  0  0  0
 27 81  1  0  0  0  0
 28 82  1  0  0  0  0
 29 31  2  0  0  0  0
 29 81  1  0  0  0  0
 30 83  1  0  0  0  0
 31 84  1  0  0  0  0
 32 65  2  0  0  0  0
 33 66  1  0  0  0  0
 33 69  1  0  0  0  0
 34 35  2  0  0  0  0
 35 60  1  0  0  0  0
 36 70  1  0  0  0  0
 36 75  2  0  0  0  0
 37 52  1  0  0  0  0
 37 72  1  0  0  0  0
 37 76  2  0  0  0  0
 38 60  1  0  0  0  0
 38 61  1  0  0  0  0
 38 77  2  0  0  0  0
 39 62  1  0  0  0  0
 39 67  1  0  0  0  0
 39 78  2  0  0  0  0
 40 63  1  0  0  0  0
 40 73  1  0  0  0  0
 40 79  2  0  0  0  0
 41 68  1  0  0  0  0
 41 71  1  0  0  0  0
 41 80  2  0  0  0  0
 42 45  1  0  0  0  0
 43 52  1  0  0  0  0
 44 67  1  0  0  0  0
 45 47  1  0  0  0  0
 46 48  1  0  0  0  0
 46 49  1  0  0  0  0
 47 51  1  0  0  0  0
 48 53  1  0  0  0  0
 49 68  1  0  0  0  0
 50 53  1  0  0  0  0
 50 68  1  0  0  0  0
 51 72  1  0  0  0  0
 52 67  1  0  0  0  0
 53 66  1  0  0  0  0
 55 63  1  0  0  0  0
 56 64  1  0  0  0  0
 57 64  1  0  0  0  0
 58 64  1  0  0  0  0
 59 74  1  0  0  0  0
 61 82  1  0  0  0  0
 62 64  1  0  0  0  0
 62 73  1  0  0  0  0
 63 74  1  0  0  0  0
 65 66  1  0  0  0  0
M  CHG  1  74   1
M  ISO  4  41 100  61 101  71 100  82 101
M  END
> <Batch ID>
0123

> <Smiles>
CNC(C)C(=O)NC(C(=O)N1Cc2cc([101O:1][101CH2:1]C(=O)CC=Cc3ccc([100NH:0][100C:0](=O)N4CCCC(n5nc(-c6ccc(Oc7ccc(F)cc7F)cc6)c(C(N)=O)c5N)C4)cc3C)ccc2CC1C(=O)NC1CCCc2ccccc21)C(C)(C)C

> <Shape>
0.299

> <Color>
0.098

> <Negative vol penalty>
0.000

$$$$

  -OEChem-04052302033D

 84 92  0     1  0  0  0  0  0999 V2000
  -25.3909  -23.2337   17.9774 C   0  0  0  0  0  0  0  0  0  0  0  0
  -26.0914  -22.1250   17.5132 C   0  0  0  0  0  0  0  0  0  0  0  0
  -32.9686  -16.1357   22.7556 C   0  0  0  0  0  0  0  0  0  0  0  0
  -25.6580  -27.0702   19.4065 C   0  0  0  0  0  0  0  0  0  0  0  0
  -27.2265  -28.6501   20.3449 C   0  0  0  0  0  0  0  0  0  0  0  0
  -32.2175  -17.2441   22.3647 C   0  0  0  0  0  0  0  0  0  0  0  0
  -24.8053  -23.2073   19.2424 C   0  0  0  0  0  0  0  0  0  0  0  0
  -26.2075  -20.9895   18.3142 C   0  0  0  0  0  0  0  0  0  0  0  0
  -26.3302  -15.1599   16.4417 C   0  0  0  0  0  0  0  0  0  0  0  0
  -33.2032  -15.0985   21.8528 C   0  0  0  0  0  0  0  0  0  0  0  0
  -24.5982  -27.8148   19.9240 C   0  0  0  0  0  0  0  0  0  0  0  0
  -26.1667  -29.3948   20.8625 C   0  0  0  0  0  0  0  0  0  0  0  0
  -27.3783  -14.2676   16.2207 C   0  0  0  0  0  0  0  0  0  0  0  0
  -23.0749  -28.2352   22.9119 C   0  0  0  0  0  0  0  0  0  0  0  0
  -22.0472  -27.5413   23.5505 C   0  0  0  0  0  0  0  0  0  0  0  0
  -31.9353  -16.2781   20.1682 C   0  0  0  0  0  0  0  0  0  0  0  0
  -27.0641  -13.3599   18.4335 C   0  0  0  0  0  0  0  0  0  0  0  0
  -20.4636  -28.4099   21.9458 C   0  0  0  0  0  0  0  0  0  0  0  0
  -26.9722  -27.4877   19.6170 C   0  0  0  0  0  0  0  0  0  0  0  0
  -31.7008  -17.3153   21.0710 C   0  0  0  0  0  0  0  0  0  0  0  0
  -28.6742  -26.8659   17.8214 C   0  0  0  0  0  0  0  0  0  0  0  0
  -24.9061  -22.0674   20.0555 C   0  0  0  0  0  0  0  0  0  0  0  0
  -25.6471  -15.1664   17.6664 C   0  0  0  0  0  0  0  0  0  0  0  0
  -25.6238  -20.9484   19.5918 C   0  0  0  0  0  0  0  0  0  0  0  0
  -26.0060  -14.2516   18.6666 C   0  0  0  0  0  0  0  0  0  0  0  0
  -32.6864  -15.1697   20.5592 C   0  0  0  0  0  0  0  0  0  0  0  0
  -24.8525  -28.9772   20.6520 C   0  0  0  0  0  0  0  0  0  0  0  0
  -27.7473  -13.3693   17.2177 C   0  0  0  0  0  0  0  0  0  0  0  0
  -22.7970  -29.0165   21.7903 C   0  0  0  0  0  0  0  0  0  0  0  0
  -20.7416  -27.6286   23.0674 C   0  0  0  0  0  0  0  0  0  0  0  0
  -21.4914  -29.1039   21.3072 C   0  0  0  0  0  0  0  0  0  0  0  0
  -28.0674  -26.7186   19.0831 C   0  0  0  0  0  0  0  0  0  0  0  0
  -29.6562  -25.9059   17.7985 C   0  0  0  0  0  0  0  0  0  0  0  0
  -30.9174  -18.4715   20.6646 C   0  0  0  0  0  0  0  0  0  0  0  0
  -30.9305  -19.6784   21.2696 C   0  0  0  0  0  0  0  0  0  0  0  0
  -31.9734  -12.4051   18.2299 C   0  0  0  0  0  0  0  0  0  0  0  0
  -31.8692  -13.5270   19.1888 C   0  0  0  0  0  0  0  0  0  0  0  0
  -28.3769  -27.7882   16.7647 C   0  0  0  0  0  0  0  0  0  0  0  0
  -30.9295  -11.7296   17.7168 C   0  0  0  0  0  0  0  0  0  0  0  0
  -30.0825  -20.7601   20.7296 C   0  0  0  0  0  0  0  0  0  0  0  0
  -25.2232  -17.2965   19.9872 C   0  0  0  0  0  0  0  0  0  0  0  0
  -23.2179  -15.0350   21.1649 C   0  0  0  0  0  0  0  0  0  0  0  0
  -22.3230  -11.7446   21.3026 C   0  0  0  0  0  0  0  0  0  0  0  0
  -24.2966  -22.1032   21.4346 C   0  0  0  0  0  0  0  0  0  0  0  0
  -24.5012  -16.1171   17.8792 C   0  0  0  0  0  0  0  0  0  0  0  0
  -25.2912  -14.2043   19.9915 C   0  0  0  0  0  0  0  0  0  0  0  0
  -24.1471  -20.7235   22.0704 C   0  0  0  0  0  0  0  0  0  0  0  0
  -32.5722  -23.4487   20.6646 C   0  0  0  0  0  0  0  0  0  0  0  0
  -25.4310  -19.9168   21.9037 C   0  0  0  0  0  0  0  0  0  0  0  0
  -31.7257  -24.6211   20.1758 C   0  0  0  0  0  0  0  0  0  0  0  0
  -31.7700  -22.4926   21.5461 C   0  0  0  0  0  0  0  0  0  0  0  0
  -29.6723  -23.1694   20.4138 C   0  0  0  0  0  0  0  0  0  0  0  0
  -25.7507  -19.6890   20.4213 C   0  0  1  0  0  0  0  0  0  0  0  0
  -24.2119  -16.3838   19.3532 C   0  0  1  0  0  0  0  0  0  0  0  0
  -30.4469  -24.1191   19.4867 C   0  0  1  0  0  0  0  0  0  0  0  0
  -31.0095  -10.5863   16.7411 C   0  0  0  0  0  0  0  0  0  0  0  0
  -20.6671  -10.1969   22.3797 C   0  0  0  0  0  0  0  0  0  0  0  0
  -24.7699  -15.2027   23.7865 C   0  0  0  0  0  0  0  0  0  0  0  0
  -23.7231  -13.0318   24.4644 C   0  0  0  0  0  0  0  0  0  0  0  0
  -22.2891  -15.0310   24.0520 C   0  0  0  0  0  0  0  0  0  0  0  0
  -21.2174  -10.9182   18.6847 C   0  0  0  0  0  0  0  0  0  0  0  0
  -29.5282  -12.0947   18.1450 C   0  0  0  0  0  0  0  0  0  1  0  0
  -23.3662  -13.8526   22.0916 C   0  0  1  0  0  0  0  0  0  0  0  0
  -20.9745  -11.0609   21.1665 C   0  0  2  0  0  0  0  0  0  0  0  0
  -23.5520  -14.2815   23.5745 C   0  0  0  0  0  0  0  0  0  0  0  0
  -28.6177  -25.7418   19.8091 N   0  0  0  0  0  0  0  0  0  0  0  0
  -32.9220  -14.1240   19.6502 N   0  0  0  0  0  0  0  0  0  0  0  0
  -29.5806  -25.2666   19.0009 N   0  0  0  0  0  0  0  0  0  0  0  0
  -30.5232  -22.0727   20.8890 N   0  0  0  0  0  0  0  0  0  0  0  0
  -24.1816  -15.1582   20.1540 N   0  0  0  0  0  0  0  0  0  0  0  0
  -30.5683  -25.5546   16.8674 N   0  0  0  0  0  0  0  0  0  0  0  0
  -27.3363  -28.7079   16.9536 N   0  0  0  0  0  0  0  0  0  0  0  0
  -24.9148  -18.6392   19.8795 N   0  0  0  0  0  0  0  0  0  0  0  0
  -22.2047  -13.0016   21.8567 N   0  0  0  0  0  0  0  0  0  0  0  0
  -20.9533  -10.1939   19.9546 N   0  3  0  0  0  0  0  0  0  0  0  0
  -29.0043  -27.7856   15.6784 O   0  0  0  0  0  0  0  0  0  0  0  0
  -29.0316  -20.4351   20.1740 O   0  0  0  0  0  0  0  0  0  0  0  0
  -26.2094  -16.8179   20.5350 O   0  0  0  0  0  0  0  0  0  0  0  0
  -22.2774  -15.8165   21.3274 O   0  0  0  0  0  0  0  0  0  0  0  0
  -23.3764  -11.2149   20.9558 O   0  0  0  0  0  0  0  0  0  0  0  0
  -23.8186  -29.7042   21.1569 O   0  0  0  0  0  0  0  0  0  0  0  0
  -28.7705  -12.4977   17.0049 O   0  0  0  0  0  0  0  0  0  1  0  0
  -19.7550  -26.9609   23.6799 F   0  0  0  0  0  0  0  0  0  0  0  0
  -21.2185  -29.8520   20.2294 F   0  0  0  0  0  0  0  0  0  0  0  0
  1  2  1  0  0  0  0
  1  7  2  0  0  0  0
  2  8  2  0  0  0  0
  3  6  1  0  0  0  0
  3 10  2  0  0  0  0
  4 11  2  0  0  0  0
  4 19  1  0  0  0  0
  5 12  1  0  0  0  0
  5 19  2  0  0  0  0
  6 20  2  0  0  0  0
  7 22  1  0  0  0  0
  8 24  1  0  0  0  0
  9 13  2  0  0  0  0
  9 23  1  0  0  0  0
 10 26  1  0  0  0  0
 11 27  1  0  0  0  0
 12 27  2  0  0  0  0
 13 28  1  0  0  0  0
 14 15  2  0  0  0  0
 14 29  1  0  0  0  0
 15 30  1  0  0  0  0
 16 20  1  0  0  0  0
 16 26  2  0  0  0  0
 17 25  1  0  0  0  0
 17 28  2  0  0  0  0
 18 30  2  0  0  0  0
 18 31  1  0  0  0  0
 19 32  1  0  0  0  0
 20 34  1  0  0  0  0
 21 32  1  0  0  0  0
 21 33  2  0  0  0  0
 21 38  1  0  0  0  0
 22 24  2  0  0  0  0
 22 44  1  0  0  0  0
 23 25  2  0  0  0  0
 23 45  1  0  0  0  0
 24 53  1  0  0  0  0
 25 46  1  0  0  0  0
 26 67  1  0  0  0  0
 27 81  1  0  0  0  0
 28 82  1  0  0  0  0
 29 31  2  0  0  0  0
 29 81  1  0  0  0  0
 30 83  1  0  0  0  0
 31 84  1  0  0  0  0
 32 66  2  0  0  0  0
 33 68  1  0  0  0  0
 33 71  1  0  0  0  0
 34 35  2  0  0  0  0
 35 40  1  0  0  0  0
 36 37  1  0  0  0  0
 36 39  2  0  0  0  0
 37 67  2  0  0  0  0
 38 72  1  0  0  0  0
 38 76  2  0  0  0  0
 39 56  1  0  0  0  0
 39 62  1  0  0  0  0
 40 69  1  0  0  0  0
 40 77  2  0  0  0  0
 41 54  1  0  0  0  0
 41 73  1  0  0  0  0
 41 78  2  0  0  0  0
 42 63  1  0  0  0  0
 42 70  1  0  0  0  0
 42 79  2  0  0  0  0
 43 64  1  0  0  0  0
 43 74  1  0  0  0  0
 43 80  2  0  0  0  0
 44 47  1  0  0  0  0
 45 54  1  0  0  0  0
 46 70  1  0  0  0  0
 47 49  1  0  0  0  0
 48 50  1  0  0  0  0
 48 51  1  0  0  0  0
 49 53  1  0  0  0  0
 50 55  1  0  0  0  0
 51 69  1  0  0  0  0
 52 55  1  0  0  0  0
 52 69  1  0  0  0  0
 53 73  1  0  0  0  0
 54 70  1  0  0  0  0
 55 68  1  0  0  0  0
 57 64  1  0  0  0  0
 58 65  1  0  0  0  0
 59 65  1  0  0  0  0
 60 65  1  0  0  0  0
 61 75  1  0  0  0  0
 62 82  1  0  0  0  0
 63 65  1  0  0  0  0
 63 74  1  0  0  0  0
 64 75  1  0  0  0  0
 66 68  1  0  0  0  0
M  CHG  1  75   1
M  ISO  4  35 100  40 100  62 101  82 101
M  END
> <Batch ID>
0123

> <Smiles>
C=C(CC=Nc1cccc(C=[100CH:0][100C:0](=O)N2CCCC(n3nc(-c4ccc(Oc5ccc(F)cc5F)cc4)c(C(N)=O)c3N)C2)c1)[101CH2:1][101O:1]c1ccc2c(c1)CN(C(=O)C(NC(=O)C(C)NC)C(C)(C)C)C(C(=O)NC1CCCc3ccccc31)C2

> <Shape>
0.226

> <Color>
0.067

> <Negative vol penalty>
0.000

$$$$

  -OEChem-04052302033D

 81 89  0     1  0  0  0  0  0999 V2000
  -29.3180  -36.4962   23.3468 C   0  0  0  0  0  0  0  0  0  0  0  0
  -29.5602  -35.5337   22.3719 C   0  0  0  0  0  0  0  0  0  0  0  0
  -24.4634   -9.4635   21.6139 C   0  0  0  0  0  0  0  0  0  0  0  0
  -23.0161   -9.6920   19.6928 C   0  0  0  0  0  0  0  0  0  0  0  0
  -28.6342  -36.1503   24.5116 C   0  0  0  0  0  0  0  0  0  0  0  0
  -29.1196  -34.2244   22.5617 C   0  0  0  0  0  0  0  0  0  0  0  0
  -26.6768  -28.5704   18.9037 C   0  0  0  0  0  0  0  0  0  0  0  0
  -23.4469   -8.7999   22.3008 C   0  0  0  0  0  0  0  0  0  0  0  0
  -21.9996   -9.0283   20.3797 C   0  0  0  0  0  0  0  0  0  0  0  0
  -26.9217  -27.2081   18.7367 C   0  0  0  0  0  0  0  0  0  0  0  0
  -22.1070   -5.6963   22.3776 C   0  0  0  0  0  0  0  0  0  0  0  0
  -22.4471   -4.5405   23.0804 C   0  0  0  0  0  0  0  0  0  0  0  0
  -25.6811  -26.7440   20.7528 C   0  0  0  0  0  0  0  0  0  0  0  0
  -31.1877  -20.1220   21.3757 C   0  0  0  0  0  0  0  0  0  0  0  0
  -21.6945   -5.5675   25.1337 C   0  0  0  0  0  0  0  0  0  0  0  0
  -24.2480   -9.9096   20.3099 C   0  0  0  0  0  0  0  0  0  0  0  0
  -26.2893  -10.0196   18.7840 C   0  0  0  0  0  0  0  0  0  0  0  0
  -28.1765  -34.8383   24.7115 C   0  0  0  0  0  0  0  0  0  0  0  0
  -25.9403  -29.0314   20.0044 C   0  0  0  0  0  0  0  0  0  0  0  0
  -28.4302  -33.8603   23.7309 C   0  0  0  0  0  0  0  0  0  0  0  0
  -25.4261  -28.1124   20.9302 C   0  0  0  0  0  0  0  0  0  0  0  0
  -31.2032  -21.5016   21.0600 C   0  0  0  0  0  0  0  0  0  0  0  0
  -22.2150   -8.5822   21.6837 C   0  0  0  0  0  0  0  0  0  0  0  0
  -26.4263  -26.2949   19.6628 C   0  0  0  0  0  0  0  0  0  0  0  0
  -21.5608   -6.7879   23.0529 C   0  0  0  0  0  0  0  0  0  0  0  0
  -22.2408   -4.4760   24.4584 C   0  0  0  0  0  0  0  0  0  0  0  0
  -21.3545   -6.7234   24.4309 C   0  0  0  0  0  0  0  0  0  0  0  0
  -25.2974  -10.5958   19.6000 C   0  0  0  0  0  0  0  0  0  0  0  0
  -29.9674  -19.6475   20.9542 C   0  0  0  0  0  0  0  0  0  0  0  0
  -29.9914  -21.7717   20.4678 C   0  0  0  0  0  0  0  0  0  0  0  0
  -27.0365  -11.0859   18.3468 C   0  0  0  0  0  0  0  0  0  0  0  0
  -29.4824  -18.3230   21.0525 C   0  0  0  0  0  0  0  0  0  0  0  0
  -29.5071  -23.0639   19.9543 C   0  0  0  0  0  0  0  0  0  0  0  0
  -28.2692  -17.8549   20.6087 C   0  0  0  0  0  0  0  0  0  0  0  0
  -28.3190  -23.2660   19.3637 C   0  0  0  0  0  0  0  0  0  0  0  0
  -26.5151   -8.6434   18.4508 C   0  0  0  0  0  0  0  0  0  0  0  0
  -27.9098  -16.4324   20.7768 C   0  0  0  0  0  0  0  0  0  0  0  0
  -26.5527  -30.9366   22.4740 C   0  0  0  0  0  0  0  0  0  0  0  0
  -23.3858  -30.5482   23.0592 C   0  0  0  0  0  0  0  0  0  0  0  0
  -20.5788  -28.6474   22.6665 C   0  0  0  0  0  0  0  0  0  0  0  0
  -27.4833  -34.5009   26.0077 C   0  0  0  0  0  0  0  0  0  0  0  0
  -25.6621  -30.5019   20.1558 C   0  0  0  0  0  0  0  0  0  0  0  0
  -24.6123  -28.5544   22.1180 C   0  0  0  0  0  0  0  0  0  0  0  0
  -26.7214  -33.1788   25.9648 C   0  0  0  0  0  0  0  0  0  0  0  0
  -26.7207  -15.7462   17.3787 C   0  0  0  0  0  0  0  0  0  0  0  0
  -27.5821  -32.0868   25.3375 C   0  0  0  0  0  0  0  0  0  0  0  0
  -26.2669  -14.2951   17.5139 C   0  0  0  0  0  0  0  0  0  0  0  0
  -26.4843  -16.5411   18.6620 C   0  0  0  0  0  0  0  0  0  0  0  0
  -26.6415  -14.4652   20.0061 C   0  0  0  0  0  0  0  0  0  0  0  0
  -27.9463  -32.4352   23.8892 C   0  0  1  0  0  0  0  0  0  0  0  0
  -25.3372  -30.9038   21.5912 C   0  0  1  0  0  0  0  0  0  0  0  0
  -26.9133  -13.6348   18.7420 C   0  0  1  0  0  0  0  0  0  0  0  0
  -32.3089  -22.4438   21.3219 C   0  0  0  0  0  0  0  0  0  0  0  0
  -18.1494  -28.5692   23.2907 C   0  0  0  0  0  0  0  0  0  0  0  0
  -24.1422  -29.6787   25.8844 C   0  0  0  0  0  0  0  0  0  0  0  0
  -21.8395  -28.7277   26.1332 C   0  0  0  0  0  0  0  0  0  0  0  0
  -22.1422  -31.1745   25.7535 C   0  0  0  0  0  0  0  0  0  0  0  0
  -19.7287  -28.7268   19.8328 C   0  0  0  0  0  0  0  0  0  0  0  0
  -27.8760  -24.5964   18.8447 C   0  0  0  0  0  0  0  0  0  1  0  0
  -22.5574  -29.5641   23.8493 C   0  0  1  0  0  0  0  0  0  0  0  0
  -19.1655  -29.0121   22.2494 C   0  0  2  0  0  0  0  0  0  0  0  0
  -22.6873  -29.7778   25.3839 C   0  0  0  0  0  0  0  0  0  0  0  0
  -25.4023  -11.9250   19.6784 N   0  0  0  0  0  0  0  0  0  0  0  0
  -26.4690  -12.1929   18.9061 N   0  0  0  0  0  0  0  0  0  0  0  0
  -27.0611  -15.8601   19.8310 N   0  0  0  0  0  0  0  0  0  0  0  0
  -24.3728  -30.0030   22.2258 N   0  0  0  0  0  0  0  0  0  0  0  0
  -28.1170  -11.1753   17.5425 N   0  0  0  0  0  0  0  0  0  0  0  0
  -25.6533   -7.6764   18.9860 N   0  0  0  0  0  0  0  0  0  0  0  0
  -26.8247  -32.1805   23.0107 N   0  0  0  0  0  0  0  0  0  0  0  0
  -21.1940  -29.6793   23.3432 N   0  0  0  0  0  0  0  0  0  0  0  0
  -18.8238  -28.3615   20.9529 N   0  3  0  0  0  0  0  0  0  0  0  0
  -27.4631   -8.2805   17.7139 O   0  0  0  0  0  0  0  0  0  0  0  0
  -28.3799  -15.8382   21.7488 O   0  0  0  0  0  0  0  0  0  0  0  0
  -27.1952  -29.9091   22.6560 O   0  0  0  0  0  0  0  0  0  0  0  0
  -23.1605  -31.7558   23.1716 O   0  0  0  0  0  0  0  0  0  0  0  0
  -21.0850  -27.5548   22.4202 O   0  0  0  0  0  0  0  0  0  0  0  0
  -29.2323  -20.6467   20.3996 O   0  0  0  0  0  0  0  0  0  0  0  0
  -21.2229   -7.9344   22.3536 O   0  0  0  0  0  0  0  0  0  0  0  0
  -26.6644  -24.9647   19.5025 O   0  0  0  0  0  0  0  0  0  1  0  0
  -22.5660   -3.3654   25.1329 F   0  0  0  0  0  0  0  0  0  0  0  0
  -20.8290   -7.7684   25.0849 F   0  0  0  0  0  0  0  0  0  0  0  0
  1  2  1  0  0  0  0
  1  5  2  0  0  0  0
  2  6  2  0  0  0  0
  3  8  2  0  0  0  0
  3 16  1  0  0  0  0
  4  9  1  0  0  0  0
  4 16  2  0  0  0  0
  5 18  1  0  0  0  0
  6 20  1  0  0  0  0
  7 10  2  0  0  0  0
  7 19  1  0  0  0  0
  8 23  1  0  0  0  0
  9 23  2  0  0  0  0
 10 24  1  0  0  0  0
 11 12  2  0  0  0  0
 11 25  1  0  0  0  0
 12 26  1  0  0  0  0
 13 21  1  0  0  0  0
 13 24  2  0  0  0  0
 14 22  1  0  0  0  0
 14 29  2  0  0  0  0
 15 26  2  0  0  0  0
 15 27  1  0  0  0  0
 16 28  1  0  0  0  0
 17 28  1  0  0  0  0
 17 31  2  0  0  0  0
 17 36  1  0  0  0  0
 18 20  2  0  0  0  0
 18 41  1  0  0  0  0
 19 21  2  0  0  0  0
 19 42  1  0  0  0  0
 20 50  1  0  0  0  0
 21 43  1  0  0  0  0
 22 30  2  0  0  0  0
 22 53  1  0  0  0  0
 23 78  1  0  0  0  0
 24 79  1  0  0  0  0
 25 27  2  0  0  0  0
 25 78  1  0  0  0  0
 26 80  1  0  0  0  0
 27 81  1  0  0  0  0
 28 63  2  0  0  0  0
 29 32  1  0  0  0  0
 29 77  1  0  0  0  0
 30 33  1  0  0  0  0
 30 77  1  0  0  0  0
 31 64  1  0  0  0  0
 31 67  1  0  0  0  0
 32 34  2  0  0  0  0
 33 35  2  0  0  0  0
 34 37  1  0  0  0  0
 35 59  1  0  0  0  0
 36 68  1  0  0  0  0
 36 72  2  0  0  0  0
 37 65  1  0  0  0  0
 37 73  2  0  0  0  0
 38 51  1  0  0  0  0
 38 69  1  0  0  0  0
 38 74  2  0  0  0  0
 39 60  1  0  0  0  0
 39 66  1  0  0  0  0
 39 75  2  0  0  0  0
 40 61  1  0  0  0  0
 40 70  1  0  0  0  0
 40 76  2  0  0  0  0
 41 44  1  0  0  0  0
 42 51  1  0  0  0  0
 43 66  1  0  0  0  0
 44 46  1  0  0  0  0
 45 47  1  0  0  0  0
 45 48  1  0  0  0  0
 46 50  1  0  0  0  0
 47 52  1  0  0  0  0
 48 65  1  0  0  0  0
 49 52  1  0  0  0  0
 49 65  1  0  0  0  0
 50 69  1  0  0  0  0
 51 66  1  0  0  0  0
 52 64  1  0  0  0  0
 54 61  1  0  0  0  0
 55 62  1  0  0  0  0
 56 62  1  0  0  0  0
 57 62  1  0  0  0  0
 58 71  1  0  0  0  0
 59 79  1  0  0  0  0
 60 62  1  0  0  0  0
 60 70  1  0  0  0  0
 61 71  1  0  0  0  0
 63 64  1  0  0  0  0
M  CHG  1  71   1
M  ISO  4  34 100  37 100  59 101  79 101
M  END
> <Batch ID>
0123

> <Smiles>
CNC(C)C(=O)NC(C(=O)N1Cc2cc([101O:1][101CH2:1]C=Cc3oc(C=[100CH:0][100C:0](=O)N4CCCC(n5nc(-c6ccc(Oc7ccc(F)cc7F)cc6)c(C(N)=O)c5N)C4)cc3C)ccc2CC1C(=O)NC1CCCc2ccccc21)C(C)(C)C

> <Shape>
0.299

> <Color>
0.102

> <Negative vol penalty>
0.000

$$$$

  -OEChem-04052302033D

 85 94  0     1  0  0  0  0  0999 V2000
  -28.7513  -36.2278   20.5627 C   0  0  0  0  0  0  0  0  0  0  0  0
  -28.9604  -34.8551   20.6486 C   0  0  0  0  0  0  0  0  0  0  0  0
  -25.1085   -9.9085   18.6277 C   0  0  0  0  0  0  0  0  0  0  0  0
  -24.8160   -9.3785   20.9667 C   0  0  0  0  0  0  0  0  0  0  0  0
  -27.6991  -36.8167   21.2627 C   0  0  0  0  0  0  0  0  0  0  0  0
  -28.1179  -34.0705   21.4355 C   0  0  0  0  0  0  0  0  0  0  0  0
  -26.6951  -29.8065   19.1034 C   0  0  0  0  0  0  0  0  0  0  0  0
  -24.9541   -8.5608   18.3030 C   0  0  0  0  0  0  0  0  0  0  0  0
  -24.6615   -8.0308   20.6420 C   0  0  0  0  0  0  0  0  0  0  0  0
  -27.6190  -28.7631   19.0650 C   0  0  0  0  0  0  0  0  0  0  0  0
  -22.2284   -6.0269   19.4233 C   0  0  0  0  0  0  0  0  0  0  0  0
  -21.1884   -5.3291   20.0371 C   0  0  0  0  0  0  0  0  0  0  0  0
  -32.2866  -19.9558   21.2412 C   0  0  0  0  0  0  0  0  0  0  0  0
  -30.8923  -21.7737   20.4742 C   0  0  0  0  0  0  0  0  0  0  0  0
  -26.4829  -27.6973   20.9069 C   0  0  0  0  0  0  0  0  0  0  0  0
  -33.1074  -22.2265   21.3261 C   0  0  0  0  0  0  0  0  0  0  0  0
  -22.7877   -3.8021   21.0108 C   0  0  0  0  0  0  0  0  0  0  0  0
  -25.0395  -10.3174   19.9596 C   0  0  0  0  0  0  0  0  0  0  0  0
  -31.0835  -20.4108   20.7016 C   0  0  0  0  0  0  0  0  0  0  0  0
  -24.1870  -12.6829   20.3899 C   0  0  0  0  0  0  0  0  0  0  0  0
  -26.8375  -36.0376   22.0509 C   0  0  0  0  0  0  0  0  0  0  0  0
  -25.6629  -29.8086   20.0526 C   0  0  0  0  0  0  0  0  0  0  0  0
  -27.0540  -34.6497   22.1478 C   0  0  0  0  0  0  0  0  0  0  0  0
  -25.5457  -28.7406   20.9536 C   0  0  0  0  0  0  0  0  0  0  0  0
  -33.2985  -20.8636   21.5535 C   0  0  0  0  0  0  0  0  0  0  0  0
  -31.9043  -22.6815   20.7865 C   0  0  0  0  0  0  0  0  0  0  0  0
  -24.7306   -7.6219   19.3101 C   0  0  0  0  0  0  0  0  0  0  0  0
  -27.5147  -27.7097   19.9686 C   0  0  0  0  0  0  0  0  0  0  0  0
  -23.5481   -5.6124   19.6031 C   0  0  0  0  0  0  0  0  0  0  0  0
  -21.4680   -4.2167   20.8309 C   0  0  0  0  0  0  0  0  0  0  0  0
  -23.8277   -4.5000   20.3968 C   0  0  0  0  0  0  0  0  0  0  0  0
  -25.1995  -11.7093   20.2957 C   0  0  0  0  0  0  0  0  0  0  0  0
  -24.8499  -13.8353   20.7348 C   0  0  0  0  0  0  0  0  0  0  0  0
  -30.7045  -26.0699   20.1147 C   0  0  0  0  0  0  0  0  0  0  0  0
  -30.0277  -19.4645   20.3772 C   0  0  0  0  0  0  0  0  0  0  0  0
  -29.7346  -26.9904   20.1281 C   0  0  0  0  0  0  0  0  0  1  0  0
  -30.1961  -18.1389   20.1843 C   0  0  0  0  0  0  0  0  0  0  0  0
  -22.7737  -12.5568   20.1841 C   0  0  0  0  0  0  0  0  0  0  0  0
  -29.0186  -17.3051   19.8696 C   0  0  0  0  0  0  0  0  0  0  0  0
  -24.8257  -31.7180   22.4520 C   0  0  0  0  0  0  0  0  0  0  0  0
  -22.2454  -29.7576   22.5974 C   0  0  0  0  0  0  0  0  0  0  0  0
  -20.8909  -26.6970   21.9306 C   0  0  0  0  0  0  0  0  0  0  0  0
  -25.7425  -36.7256   22.8269 C   0  0  0  0  0  0  0  0  0  0  0  0
  -24.6585  -30.9282   20.0636 C   0  0  0  0  0  0  0  0  0  0  0  0
  -24.4438  -28.6854   21.9790 C   0  0  0  0  0  0  0  0  0  0  0  0
  -32.1593  -26.3499   20.3222 C   0  0  0  0  0  0  0  0  0  0  0  0
  -30.4849  -24.5907   20.0081 C   0  0  0  0  0  0  0  0  0  0  0  0
  -24.6677  -35.7710   23.3406 C   0  0  0  0  0  0  0  0  0  0  0  0
  -29.5973  -14.5880   22.2601 C   0  0  0  0  0  0  0  0  0  0  0  0
  -25.3065  -34.5457   23.9866 C   0  0  0  0  0  0  0  0  0  0  0  0
  -28.4373  -13.6530   21.9284 C   0  0  0  0  0  0  0  0  0  0  0  0
  -32.6631  -25.0647   20.9729 C   0  0  0  0  0  0  0  0  0  0  0  0
  -30.1213  -15.3110   21.0203 C   0  0  0  0  0  0  0  0  0  0  0  0
  -27.9032  -15.1086   19.9344 C   0  0  0  0  0  0  0  0  0  0  0  0
  -26.1466  -33.7616   22.9712 C   0  0  1  0  0  0  0  0  0  0  0  0
  -23.9521  -31.0840   21.4068 C   0  0  1  0  0  0  0  0  0  0  0  0
  -27.3295  -14.4061   21.1748 C   0  0  1  0  0  0  0  0  0  0  0  0
  -34.5843  -20.3771   22.1320 C   0  0  0  0  0  0  0  0  0  0  0  0
  -18.7724  -25.3792   22.2005 C   0  0  0  0  0  0  0  0  0  0  0  0
  -22.8790  -29.3492   25.5540 C   0  0  0  0  0  0  0  0  0  0  0  0
  -21.3693  -27.3520   25.5300 C   0  0  0  0  0  0  0  0  0  0  0  0
  -20.4471  -29.6164   25.0355 C   0  0  0  0  0  0  0  0  0  0  0  0
  -20.5793  -26.3785   19.0048 C   0  0  0  0  0  0  0  0  0  0  0  0
  -21.9163  -28.4755   23.3233 C   0  0  1  0  0  0  0  0  0  0  0  0
  -19.5744  -26.2960   21.2899 C   0  0  2  0  0  0  0  0  0  0  0  0
  -21.6750  -28.7000   24.8428 C   0  0  0  0  0  0  0  0  0  0  0  0
  -26.4133  -12.2005   20.5593 N   0  0  0  0  0  0  0  0  0  0  0  0
  -26.1678  -13.4953   20.8224 N   0  0  0  0  0  0  0  0  0  0  0  0
  -31.7140  -24.0315   20.5652 N   0  0  3  0  0  0  0  0  0  0  0  0
  -29.0345  -15.9746   20.2846 N   0  0  0  0  0  0  0  0  0  0  0  0
  -23.4901  -29.8067   21.9539 N   0  0  0  0  0  0  0  0  0  0  0  0
  -24.4282  -15.0963   20.9685 N   0  0  0  0  0  0  0  0  0  0  0  0
  -22.2589  -11.3010   19.8344 N   0  0  0  0  0  0  0  0  0  0  0  0
  -25.2920  -32.9730   22.1098 N   0  0  0  0  0  0  0  0  0  0  0  0
  -20.7825  -27.8869   22.6187 N   0  0  0  0  0  0  0  0  0  0  0  0
  -19.8198  -25.5838   20.0040 N   0  3  0  0  0  0  0  0  0  0  0  0
  -21.9926  -13.5325   20.2907 O   0  0  0  0  0  0  0  0  0  0  0  0
  -28.0934  -17.8370   19.2534 O   0  0  0  0  0  0  0  0  0  0  0  0
  -25.0583  -31.1140   23.4925 O   0  0  0  0  0  0  0  0  0  0  0  0
  -21.4251  -30.6789   22.5951 O   0  0  0  0  0  0  0  0  0  0  0  0
  -21.9123  -26.0202   21.8337 O   0  0  0  0  0  0  0  0  0  0  0  0
  -24.5796   -6.3068   18.9936 O   0  0  0  0  0  0  0  0  0  0  0  0
  -28.4155  -26.6903   19.9337 O   0  0  0  0  0  0  0  0  0  1  0  0
  -20.4692   -3.5475   21.4216 F   0  0  0  0  0  0  0  0  0  0  0  0
  -25.0936   -4.0977   20.5742 F   0  0  0  0  0  0  0  0  0  0  0  0
  1  2  1  0  0  0  0
  1  5  2  0  0  0  0
  2  6  2  0  0  0  0
  3  8  2  0  0  0  0
  3 18  1  0  0  0  0
  4  9  1  0  0  0  0
  4 18  2  0  0  0  0
  5 21  1  0  0  0  0
  6 23  1  0  0  0  0
  7 10  2  0  0  0  0
  7 22  1  0  0  0  0
  8 27  1  0  0  0  0
  9 27  2  0  0  0  0
 10 28  1  0  0  0  0
 11 12  2  0  0  0  0
 11 29  1  0  0  0  0
 12 30  1  0  0  0  0
 13 19  2  0  0  0  0
 13 25  1  0  0  0  0
 14 19  1  0  0  0  0
 14 26  2  0  0  0  0
 15 24  1  0  0  0  0
 15 28  2  0  0  0  0
 16 25  2  0  0  0  0
 16 26  1  0  0  0  0
 17 30  2  0  0  0  0
 17 31  1  0  0  0  0
 18 32  1  0  0  0  0
 19 35  1  0  0  0  0
 20 32  1  0  0  0  0
 20 33  2  0  0  0  0
 20 38  1  0  0  0  0
 21 23  2  0  0  0  0
 21 43  1  0  0  0  0
 22 24  2  0  0  0  0
 22 44  1  0  0  0  0
 23 55  1  0  0  0  0
 24 45  1  0  0  0  0
 25 58  1  0  0  0  0
 26 69  1  0  0  0  0
 27 82  1  0  0  0  0
 28 83  1  0  0  0  0
 29 31  2  0  0  0  0
 29 82  1  0  0  0  0
 30 84  1  0  0  0  0
 31 85  1  0  0  0  0
 32 67  2  0  0  0  0
 33 68  1  0  0  0  0
 33 72  1  0  0  0  0
 34 36  2  0  0  0  0
 34 46  1  0  0  0  0
 34 47  1  0  0  0  0
 35 37  2  0  0  0  0
 36 83  1  0  0  0  0
 37 39  1  0  0  0  0
 38 73  1  0  0  0  0
 38 77  2  0  0  0  0
 39 70  1  0  0  0  0
 39 78  2  0  0  0  0
 40 56  1  0  0  0  0
 40 74  1  0  0  0  0
 40 79  2  0  0  0  0
 41 64  1  0  0  0  0
 41 71  1  0  0  0  0
 41 80  2  0  0  0  0
 42 65  1  0  0  0  0
 42 75  1  0  0  0  0
 42 81  2  0  0  0  0
 43 48  1  0  0  0  0
 44 56  1  0  0  0  0
 45 71  1  0  0  0  0
 46 52  1  0  0  0  0
 47 69  1  0  0  0  0
 48 50  1  0  0  0  0
 49 51  1  0  0  0  0
 49 53  1  0  0  0  0
 50 55  1  0  0  0  0
 51 57  1  0  0  0  0
 52 69  1  0  0  0  0
 53 70  1  0  0  0  0
 54 57  1  0  0  0  0
 54 70  1  0  0  0  0
 55 74  1  0  0  0  0
 56 71  1  0  0  0  0
 57 68  1  0  0  0  0
 59 65  1  0  0  0  0
 60 66  1  0  0  0  0
 61 66  1  0  0  0  0
 62 66  1  0  0  0  0
 63 76  1  0  0  0  0
 64 66  1  0  0  0  0
 64 75  1  0  0  0  0
 65 76  1  0  0  0  0
 67 68  1  0  0  0  0
M  CHG  1  76   1
M  ISO  4  36 101  37 100  39 100  83 101
M  END
> <Batch ID>
0123

> <Smiles>
CNC(C)C(=O)NC(C(=O)N1Cc2cc([101O:1][101CH:1]=C3CCN(c4cc(C)cc(C=[100CH:0][100C:0](=O)N5CCCC(n6nc(-c7ccc(Oc8ccc(F)cc8F)cc7)c(C(N)=O)c6N)C5)c4)C3)ccc2CC1C(=O)NC1CCCc2ccccc21)C(C)(C)C

> <Shape>
0.285

> <Color>
0.101

> <Negative vol penalty>
0.000

$$$$

  -OEChem-04052302033D

 87 96  0     1  0  0  0  0  0999 V2000
  -17.6548  -31.0937   27.1349 C   0  0  0  0  0  0  0  0  0  0  0  0
  -18.6256  -30.1099   27.2933 C   0  0  0  0  0  0  0  0  0  0  0  0
  -23.2584   -9.6297   19.9929 C   0  0  0  0  0  0  0  0  0  0  0  0
  -23.8109   -9.9179   22.3272 C   0  0  0  0  0  0  0  0  0  0  0  0
  -17.1777  -31.4020   25.8616 C   0  0  0  0  0  0  0  0  0  0  0  0
  -19.1191  -29.4329   26.1786 C   0  0  0  0  0  0  0  0  0  0  0  0
  -24.8333  -27.3957   25.3401 C   0  0  0  0  0  0  0  0  0  0  0  0
  -22.5517   -8.4679   20.3036 C   0  0  0  0  0  0  0  0  0  0  0  0
  -23.1041   -8.7562   22.6379 C   0  0  0  0  0  0  0  0  0  0  0  0
  -25.4140  -26.1385   25.5013 C   0  0  0  0  0  0  0  0  0  0  0  0
  -19.8775   -7.8415   23.0533 C   0  0  0  0  0  0  0  0  0  0  0  0
  -19.0226   -7.8798   24.1547 C   0  0  0  0  0  0  0  0  0  0  0  0
  -28.9307  -19.8112   24.3534 C   0  0  0  0  0  0  0  0  0  0  0  0
  -31.6576  -20.0373   24.8926 C   0  0  0  0  0  0  0  0  0  0  0  0
  -29.3770  -17.8872   22.9036 C   0  0  0  0  0  0  0  0  0  0  0  0
  -25.1073  -25.7019   23.1487 C   0  0  0  0  0  0  0  0  0  0  0  0
  -31.6408  -17.1085   22.5930 C   0  0  0  0  0  0  0  0  0  0  0  0
  -20.2857   -6.1035   25.1970 C   0  0  0  0  0  0  0  0  0  0  0  0
  -29.8254  -18.9049   23.7612 C   0  0  0  0  0  0  0  0  0  0  0  0
  -31.2092  -19.0197   24.0349 C   0  0  0  0  0  0  0  0  0  0  0  0
  -23.8880  -10.3547   21.0047 C   0  0  0  0  0  0  0  0  0  0  0  0
  -29.3938  -20.8161   25.2031 C   0  0  0  0  0  0  0  0  0  0  0  0
  -24.1171  -12.8692   20.6409 C   0  0  0  0  0  0  0  0  0  0  0  0
  -17.6726  -30.7352   24.7297 C   0  0  0  0  0  0  0  0  0  0  0  0
  -24.3745  -27.8118   24.0820 C   0  0  0  0  0  0  0  0  0  0  0  0
  -18.6472  -29.7316   24.8891 C   0  0  0  0  0  0  0  0  0  0  0  0
  -24.5235  -26.9659   22.9737 C   0  0  0  0  0  0  0  0  0  0  0  0
  -30.7546  -20.9290   25.4722 C   0  0  0  0  0  0  0  0  0  0  0  0
  -32.1038  -18.1135   23.4427 C   0  0  0  0  0  0  0  0  0  0  0  0
  -30.2800  -16.9956   22.3239 C   0  0  0  0  0  0  0  0  0  0  0  0
  -22.4745   -8.0312   21.6261 C   0  0  0  0  0  0  0  0  0  0  0  0
  -25.5485  -25.2902   24.4061 C   0  0  0  0  0  0  0  0  0  0  0  0
  -20.9365   -6.9340   23.0236 C   0  0  0  0  0  0  0  0  0  0  0  0
  -19.2267   -7.0109   25.2266 C   0  0  0  0  0  0  0  0  0  0  0  0
  -21.1406   -6.0651   24.0954 C   0  0  0  0  0  0  0  0  0  0  0  0
  -24.6187  -11.5545   20.6843 C   0  0  0  0  0  0  0  0  0  0  0  0
  -25.1998  -13.6383   20.2906 C   0  0  0  0  0  0  0  0  0  0  0  0
  -28.0887  -22.8874   25.1565 C   0  0  0  0  0  0  0  0  0  0  0  0
  -28.4083  -21.7495   25.8053 C   0  0  0  0  0  0  0  0  0  0  0  0
  -22.7912  -13.3520   20.8947 C   0  0  0  0  0  0  0  0  0  0  0  0
  -21.5455  -28.6246   22.8823 C   0  0  0  0  0  0  0  0  0  0  0  0
  -23.3078  -29.3768   20.2649 C   0  0  0  0  0  0  0  0  0  0  0  0
  -26.1660  -28.9007   18.4619 C   0  0  0  0  0  0  0  0  0  0  0  0
  -30.5723  -15.0079   20.8041 C   0  0  0  0  0  0  0  0  0  0  0  0
  -17.0921  -31.0699   23.3785 C   0  0  0  0  0  0  0  0  0  0  0  0
  -23.7747  -29.1816   23.9196 C   0  0  0  0  0  0  0  0  0  0  0  0
  -24.0656  -27.3733   21.5979 C   0  0  0  0  0  0  0  0  0  0  0  0
  -17.9379  -30.5680   22.2110 C   0  0  0  0  0  0  0  0  0  0  0  0
  -29.7896  -12.3017   18.6266 C   0  0  0  0  0  0  0  0  0  0  0  0
  -18.3608  -29.1206   22.4415 C   0  0  0  0  0  0  0  0  0  0  0  0
  -28.3333  -11.9742   18.9643 C   0  0  0  0  0  0  0  0  0  0  0  0
  -30.5826  -12.7059   19.8682 C   0  0  0  0  0  0  0  0  0  0  0  0
  -28.5281  -13.4591   21.0000 C   0  0  0  0  0  0  0  0  0  0  0  0
  -19.2251  -28.9925   23.7017 C   0  0  1  0  0  0  0  0  0  0  0  0
  -22.8751  -29.2984   22.6931 C   0  0  1  0  0  0  0  0  0  0  0  0
  -27.6729  -13.1093   19.7712 C   0  0  2  0  0  0  0  0  0  0  0  0
  -31.2843  -21.9947   26.3774 C   0  0  0  0  0  0  0  0  0  0  0  0
  -33.5792  -18.1779   23.6898 C   0  0  0  0  0  0  0  0  0  0  0  0
  -27.8163  -21.3272   27.1223 C   0  0  0  0  0  0  0  0  0  0  0  0
  -27.3052  -29.6272   16.3472 C   0  0  0  0  0  0  0  0  0  0  0  0
  -21.4367  -27.5909   18.6463 C   0  0  0  0  0  0  0  0  0  0  0  0
  -23.1378  -27.5923   16.8093 C   0  0  0  0  0  0  0  0  0  0  0  0
  -22.0696  -29.7318   17.5191 C   0  0  0  0  0  0  0  0  0  0  0  0
  -28.4632  -30.0275   19.9493 C   0  0  0  0  0  0  0  0  0  0  0  0
  -27.0982  -23.9250   25.5851 C   0  0  0  0  0  0  0  0  0  1  0  0
  -23.7674  -28.6314   19.0352 C   0  0  1  0  0  0  0  0  0  0  0  0
  -27.1383  -29.8847   17.8367 C   0  0  2  0  0  0  0  0  0  0  0  0
  -22.6098  -28.3779   18.0286 C   0  0  0  0  0  0  0  0  0  0  0  0
  -25.9187  -11.4884   20.3853 N   0  0  0  0  0  0  0  0  0  0  0  0
  -26.2433  -12.7713   20.1505 N   0  0  0  0  0  0  0  0  0  0  0  0
  -23.4798  -28.7198   21.4915 N   0  0  0  0  0  0  0  0  0  0  0  0
  -29.8991  -13.7884   20.5795 N   0  0  0  0  0  0  0  0  0  0  0  0
  -25.3515  -14.9649   20.0916 N   0  0  0  0  0  0  0  0  0  0  0  0
  -21.7983  -12.4262   21.2432 N   0  0  0  0  0  0  0  0  0  0  0  0
  -29.8112  -15.9741   21.4610 N   0  0  0  0  0  0  0  0  0  0  0  0
  -20.5759  -29.4389   23.4357 N   0  0  0  0  0  0  0  0  0  0  0  0
  -24.8802  -29.3981   18.4853 N   0  0  0  0  0  0  0  0  0  0  0  0
  -28.4754  -29.7748   18.4854 N   0  3  0  0  0  0  0  0  0  0  0  0
  -22.4918  -14.5663   20.7987 O   0  0  0  0  0  0  0  0  0  0  0  0
  -21.4089  -27.4532   22.5493 O   0  0  0  0  0  0  0  0  0  0  0  0
  -22.8208  -30.5035   20.1423 O   0  0  0  0  0  0  0  0  0  0  0  0
  -26.5119  -27.7994   18.8837 O   0  0  0  0  0  0  0  0  0  0  0  0
  -31.7289  -15.1916   20.4162 O   0  0  0  0  0  0  0  0  0  0  0  0
  -21.7848   -6.8977   21.9296 O   0  0  0  0  0  0  0  0  0  0  0  0
  -26.1143  -24.0623   24.5607 O   0  0  0  0  0  0  0  0  0  1  0  0
  -18.4066   -7.0489   26.2850 F   0  0  0  0  0  0  0  0  0  0  0  0
  -22.1570   -5.1920   24.0732 F   0  0  0  0  0  0  0  0  0  0  0  0
  1  2  1  0  0  0  0
  1  5  2  0  0  0  0
  2  6  2  0  0  0  0
  3  8  2  0  0  0  0
  3 21  1  0  0  0  0
  4  9  1  0  0  0  0
  4 21  2  0  0  0  0
  5 24  1  0  0  0  0
  6 26  1  0  0  0  0
  7 10  2  0  0  0  0
  7 25  1  0  0  0  0
  8 31  1  0  0  0  0
  9 31  2  0  0  0  0
 10 32  1  0  0  0  0
 11 12  2  0  0  0  0
 11 33  1  0  0  0  0
 12 34  1  0  0  0  0
 13 19  2  0  0  0  0
 13 22  1  0  0  0  0
 14 20  2  0  0  0  0
 14 28  1  0  0  0  0
 15 19  1  0  0  0  0
 15 30  2  0  0  0  0
 16 27  1  0  0  0  0
 16 32  2  0  0  0  0
 17 29  2  0  0  0  0
 17 30  1  0  0  0  0
 18 34  2  0  0  0  0
 18 35  1  0  0  0  0
 19 20  1  0  0  0  0
 20 29  1  0  0  0  0
 21 36  1  0  0  0  0
 22 28  2  0  0  0  0
 22 39  1  0  0  0  0
 23 36  1  0  0  0  0
 23 37  2  0  0  0  0
 23 40  1  0  0  0  0
 24 26  2  0  0  0  0
 24 45  1  0  0  0  0
 25 27  2  0  0  0  0
 25 46  1  0  0  0  0
 26 54  1  0  0  0  0
 27 47  1  0  0  0  0
 28 57  1  0  0  0  0
 29 58  1  0  0  0  0
 30 75  1  0  0  0  0
 31 84  1  0  0  0  0
 32 85  1  0  0  0  0
 33 35  2  0  0  0  0
 33 84  1  0  0  0  0
 34 86  1  0  0  0  0
 35 87  1  0  0  0  0
 36 69  2  0  0  0  0
 37 70  1  0  0  0  0
 37 73  1  0  0  0  0
 38 39  2  0  0  0  0
 38 65  1  0  0  0  0
 39 59  1  0  0  0  0
 40 74  1  0  0  0  0
 40 79  2  0  0  0  0
 41 55  1  0  0  0  0
 41 76  1  0  0  0  0
 41 80  2  0  0  0  0
 42 66  1  0  0  0  0
 42 71  1  0  0  0  0
 42 81  2  0  0  0  0
 43 67  1  0  0  0  0
 43 77  1  0  0  0  0
 43 82  2  0  0  0  0
 44 72  1  0  0  0  0
 44 75  1  0  0  0  0
 44 83  2  0  0  0  0
 45 48  1  0  0  0  0
 46 55  1  0  0  0  0
 47 71  1  0  0  0  0
 48 50  1  0  0  0  0
 49 51  1  0  0  0  0
 49 52  1  0  0  0  0
 50 54  1  0  0  0  0
 51 56  1  0  0  0  0
 52 72  1  0  0  0  0
 53 56  1  0  0  0  0
 53 72  1  0  0  0  0
 54 76  1  0  0  0  0
 55 71  1  0  0  0  0
 56 70  1  0  0  0  0
 60 67  1  0  0  0  0
 61 68  1  0  0  0  0
 62 68  1  0  0  0  0
 63 68  1  0  0  0  0
 64 78  1  0  0  0  0
 65 85  1  0  0  0  0
 66 68  1  0  0  0  0
 66 77  1  0  0  0  0
 67 78  1  0  0  0  0
 69 70  1  0  0  0  0
M  CHG  1  78   1
M  ISO  4  44 100  65 101  75 100  85 101
M  END
> <Batch ID>
0123

> <Smiles>
CNC(C)C(=O)NC(C(=O)N1Cc2cc([101O:1][101CH2:1]C=C(C)c3cc4cc([100NH:0][100C:0](=O)N5CCCC(n6nc(-c7ccc(Oc8ccc(F)cc8F)cc7)c(C(N)=O)c6N)C5)cc(C)c4cc3C)ccc2CC1C(=O)NC1CCCc2ccccc21)C(C)(C)C

> <Shape>
0.263

> <Color>
0.194

> <Negative vol penalty>
0.000

$$$$

  -OEChem-04052302033D

 84 92  0     1  0  0  0  0  0999 V2000
  -27.6166  -37.3964   20.5162 C   0  0  0  0  0  0  0  0  0  0  0  0
  -28.0335  -36.1314   20.1146 C   0  0  0  0  0  0  0  0  0  0  0  0
  -22.9680  -11.1173   19.0186 C   0  0  0  0  0  0  0  0  0  0  0  0
  -23.3296   -9.8140   21.0205 C   0  0  0  0  0  0  0  0  0  0  0  0
  -26.8901  -37.5476   21.6965 C   0  0  0  0  0  0  0  0  0  0  0  0
  -27.7249  -35.0169   20.8937 C   0  0  0  0  0  0  0  0  0  0  0  0
  -26.4554  -29.3677   18.8985 C   0  0  0  0  0  0  0  0  0  0  0  0
  -22.0389  -10.1766   18.5740 C   0  0  0  0  0  0  0  0  0  0  0  0
  -22.4005   -8.8734   20.5760 C   0  0  0  0  0  0  0  0  0  0  0  0
  -27.2324  -28.2154   18.7875 C   0  0  0  0  0  0  0  0  0  0  0  0
  -18.8084   -9.3856   19.1833 C   0  0  0  0  0  0  0  0  0  0  0  0
  -17.6069   -9.8598   18.6569 C   0  0  0  0  0  0  0  0  0  0  0  0
  -29.3742  -17.0852   20.9375 C   0  0  0  0  0  0  0  0  0  0  0  0
  -26.3971  -27.4541   20.9187 C   0  0  0  0  0  0  0  0  0  0  0  0
  -28.3609  -18.3757   18.6814 C   0  0  0  0  0  0  0  0  0  0  0  0
  -18.1010   -8.7775   16.5541 C   0  0  0  0  0  0  0  0  0  0  0  0
  -23.6133  -10.9360   20.2418 C   0  0  0  0  0  0  0  0  0  0  0  0
  -29.6178  -16.5633   19.6672 C   0  0  0  0  0  0  0  0  0  0  0  0
  -24.3204  -13.0461   21.4888 C   0  0  0  0  0  0  0  0  0  0  0  0
  -26.5641  -36.4332   22.4855 C   0  0  0  0  0  0  0  0  0  0  0  0
  -25.6504  -29.5773   20.0274 C   0  0  0  0  0  0  0  0  0  0  0  0
  -26.9945  -35.1534   22.0864 C   0  0  0  0  0  0  0  0  0  0  0  0
  -25.6089  -28.6086   21.0404 C   0  0  0  0  0  0  0  0  0  0  0  0
  -28.6239  -18.2524   21.0799 C   0  0  0  0  0  0  0  0  0  0  0  0
  -21.7551   -9.0547   19.3527 C   0  0  0  0  0  0  0  0  0  0  0  0
  -27.2056  -27.2598   19.7989 C   0  0  0  0  0  0  0  0  0  0  0  0
  -19.6563   -8.6074   18.3951 C   0  0  0  0  0  0  0  0  0  0  0  0
  -28.1172  -18.8977   19.9518 C   0  0  0  0  0  0  0  0  0  0  0  0
  -17.2532   -9.5558   17.3424 C   0  0  0  0  0  0  0  0  0  0  0  0
  -29.1111  -17.2085   18.5391 C   0  0  0  0  0  0  0  0  0  0  0  0
  -19.3026   -8.3034   17.0805 C   0  0  0  0  0  0  0  0  0  0  0  0
  -24.5736  -11.9070   20.7013 C   0  0  0  0  0  0  0  0  0  0  0  0
  -25.5517  -13.6330   21.6494 C   0  0  0  0  0  0  0  0  0  0  0  0
  -30.4083  -15.3342   19.5210 C   0  0  0  0  0  0  0  0  0  0  0  0
  -23.0829  -13.5304   22.0270 C   0  0  0  0  0  0  0  0  0  0  0  0
  -25.5441  -31.7639   22.3320 C   0  0  0  0  0  0  0  0  0  0  0  0
  -22.8542  -30.1661   23.1885 C   0  0  0  0  0  0  0  0  0  0  0  0
  -21.0672  -27.2592   23.1262 C   0  0  0  0  0  0  0  0  0  0  0  0
  -25.8176  -36.6519   23.7776 C   0  0  0  0  0  0  0  0  0  0  0  0
  -24.7977  -30.8129   20.1197 C   0  0  0  0  0  0  0  0  0  0  0  0
  -24.7459  -28.7765   22.2633 C   0  0  0  0  0  0  0  0  0  0  0  0
  -25.2092  -35.3757   24.3531 C   0  0  0  0  0  0  0  0  0  0  0  0
  -30.1913  -11.9308   20.5753 C   0  0  0  0  0  0  0  0  0  0  0  0
  -26.2275  -34.2402   24.3277 C   0  0  0  0  0  0  0  0  0  0  0  0
  -28.6882  -11.7057   20.7488 C   0  0  0  0  0  0  0  0  0  0  0  0
  -30.4898  -12.8664   19.4065 C   0  0  0  0  0  0  0  0  0  0  0  0
  -28.2770  -13.9410   19.6375 C   0  0  0  0  0  0  0  0  0  0  0  0
  -26.6579  -33.9172   22.8918 C   0  0  1  0  0  0  0  0  0  0  0  0
  -24.4082  -31.1645   21.5522 C   0  0  1  0  0  0  0  0  0  0  0  0
  -27.9304  -13.0437   20.8370 C   0  0  1  0  0  0  0  0  0  0  0  0
  -27.2919  -18.0186   23.1912 C   0  0  0  0  0  0  0  0  0  0  0  0
  -18.9218  -26.2478   23.9456 C   0  0  0  0  0  0  0  0  0  0  0  0
  -24.0428  -29.9187   25.9878 C   0  0  0  0  0  0  0  0  0  0  0  0
  -22.3543  -28.1345   26.4715 C   0  0  0  0  0  0  0  0  0  0  0  0
  -21.5998  -30.4509   25.9351 C   0  0  0  0  0  0  0  0  0  0  0  0
  -20.1193  -26.7495   20.3693 C   0  0  0  0  0  0  0  0  0  0  0  0
  -28.3729  -18.7971   22.4472 C   0  0  0  0  0  0  0  0  0  0  0  0
  -27.9571  -23.7227   19.5755 C   0  0  0  0  0  0  0  0  0  0  0  0
  -27.4318  -22.4367   20.2039 C   0  0  0  0  0  0  0  0  0  0  0  0
  -27.4661  -24.9549   20.3238 C   0  0  0  0  0  0  0  0  0  1  0  0
  -27.8870  -21.2067   19.4312 C   0  0  0  0  0  0  0  0  0  0  0  0
  -22.5471  -28.9987   24.0951 C   0  0  1  0  0  0  0  0  0  0  0  0
  -19.6105  -26.9791   22.8038 C   0  0  2  0  0  0  0  0  0  0  0  0
  -22.6539  -29.3731   25.6004 C   0  0  0  0  0  0  0  0  0  0  0  0
  -25.8643  -11.7762   20.3836 N   0  0  0  0  0  0  0  0  0  0  0  0
  -26.4332  -12.8409   20.9744 N   0  0  0  0  0  0  0  0  0  0  0  0
  -29.7331  -14.1113   19.5340 N   0  0  0  0  0  0  0  0  0  0  0  0
  -23.9351  -30.0045   22.3102 N   0  0  0  0  0  0  0  0  0  0  0  0
  -25.9556  -14.7444   22.3008 N   0  0  0  0  0  0  0  0  0  0  0  0
  -21.9118  -12.8059   21.7660 N   0  0  0  0  0  0  0  0  0  0  0  0
  -25.6389  -33.1381   22.2218 N   0  0  0  0  0  0  0  0  0  0  0  0
  -21.2343  -28.5046   23.6939 N   0  0  0  0  0  0  0  0  0  0  0  0
  -19.5036  -26.1407   21.5764 N   0  3  0  0  0  0  0  0  0  0  0  0
  -31.6245  -15.4804   19.4089 O   0  0  0  0  0  0  0  0  0  0  0  0
  -23.0150  -14.5835   22.7051 O   0  0  0  0  0  0  0  0  0  0  0  0
  -26.2792  -31.0338   22.9865 O   0  0  0  0  0  0  0  0  0  0  0  0
  -22.1562  -31.1811   23.2522 O   0  0  0  0  0  0  0  0  0  0  0  0
  -21.9665  -26.4524   22.9006 O   0  0  0  0  0  0  0  0  0  0  0  0
  -20.8485   -8.1367   18.9194 O   0  0  0  0  0  0  0  0  0  0  0  0
  -27.9635  -26.1345   19.6934 O   0  0  0  0  0  0  0  0  0  1  0  0
  -27.3786  -20.0459   20.0740 O   0  0  0  0  0  0  0  0  0  0  0  0
  -16.0986  -10.0099   16.8375 F   0  0  0  0  0  0  0  0  0  0  0  0
  -29.3395  -16.7164   17.3132 F   0  0  0  0  0  0  0  0  0  0  0  0
  -20.1125   -7.5552   16.3188 F   0  0  0  0  0  0  0  0  0  0  0  0
  1  2  1  0  0  0  0
  1  5  2  0  0  0  0
  2  6  2  0  0  0  0
  3  8  2  0  0  0  0
  3 17  1  0  0  0  0
  4  9  1  0  0  0  0
  4 17  2  0  0  0  0
  5 20  1  0  0  0  0
  6 22  1  0  0  0  0
  7 10  2  0  0  0  0
  7 21  1  0  0  0  0
  8 25  1  0  0  0  0
  9 25  2  0  0  0  0
 10 26  1  0  0  0  0
 11 12  2  0  0  0  0
 11 27  1  0  0  0  0
 12 29  1  0  0  0  0
 13 18  2  0  0  0  0
 13 24  1  0  0  0  0
 14 23  1  0  0  0  0
 14 26  2  0  0  0  0
 15 28  1  0  0  0  0
 15 30  2  0  0  0  0
 16 29  2  0  0  0  0
 16 31  1  0  0  0  0
 17 32  1  0  0  0  0
 18 30  1  0  0  0  0
 18 34  1  0  0  0  0
 19 32  1  0  0  0  0
 19 33  2  0  0  0  0
 19 35  1  0  0  0  0
 20 22  2  0  0  0  0
 20 39  1  0  0  0  0
 21 23  2  0  0  0  0
 21 40  1  0  0  0  0
 22 48  1  0  0  0  0
 23 41  1  0  0  0  0
 24 28  2  0  0  0  0
 24 57  1  0  0  0  0
 25 79  1  0  0  0  0
 26 80  1  0  0  0  0
 27 31  2  0  0  0  0
 27 79  1  0  0  0  0
 28 81  1  0  0  0  0
 29 82  1  0  0  0  0
 30 83  1  0  0  0  0
 31 84  1  0  0  0  0
 32 65  2  0  0  0  0
 33 66  1  0  0  0  0
 33 69  1  0  0  0  0
 34 67  1  0  0  0  0
 34 74  2  0  0  0  0
 35 70  1  0  0  0  0
 35 75  2  0  0  0  0
 36 49  1  0  0  0  0
 36 71  1  0  0  0  0
 36 76  2  0  0  0  0
 37 62  1  0  0  0  0
 37 68  1  0  0  0  0
 37 77  2  0  0  0  0
 38 63  1  0  0  0  0
 38 72  1  0  0  0  0
 38 78  2  0  0  0  0
 39 42  1  0  0  0  0
 40 49  1  0  0  0  0
 41 68  1  0  0  0  0
 42 44  1  0  0  0  0
 43 45  1  0  0  0  0
 43 46  1  0  0  0  0
 44 48  1  0  0  0  0
 45 50  1  0  0  0  0
 46 67  1  0  0  0  0
 47 50  1  0  0  0  0
 47 67  1  0  0  0  0
 48 71  1  0  0  0  0
 49 68  1  0  0  0  0
 50 66  1  0  0  0  0
 51 57  1  0  0  0  0
 52 63  1  0  0  0  0
 53 64  1  0  0  0  0
 54 64  1  0  0  0  0
 55 64  1  0  0  0  0
 56 73  1  0  0  0  0
 58 59  1  0  0  0  0
 58 60  1  0  0  0  0
 59 61  1  0  0  0  0
 60 80  1  0  0  0  0
 61 81  1  0  0  0  0
 62 64  1  0  0  0  0
 62 72  1  0  0  0  0
 63 73  1  0  0  0  0
 65 66  1  0  0  0  0
M  CHG  1  73   1
M  ISO  4  18 100  34 100  60 101  80 101
M  END
> <Batch ID>
0123

> <Smiles>
CCc1c[100c:0]([100C:0](=O)N2CCCC(n3nc(-c4ccc(Oc5ccc(F)cc5F)cc4)c(C(N)=O)c3N)C2)c(F)cc1OCCC[101CH2:1][101O:1]c1ccc2c(c1)CN(C(=O)C(NC(=O)C(C)NC)C(C)(C)C)C(C(=O)NC1CCCc3ccccc31)C2

> <Shape>
0.318

> <Color>
0.128

> <Negative vol penalty>
0.000

$$$$

  -OEChem-04052302033D

 83 91  0     1  0  0  0  0  0999 V2000
  -28.7898  -23.6229   18.0919 C   0  0  0  0  0  0  0  0  0  0  0  0
  -27.5702  -23.8642   18.7162 C   0  0  0  0  0  0  0  0  0  0  0  0
  -23.8482  -12.7647   18.0293 C   0  0  0  0  0  0  0  0  0  0  0  0
  -22.8758  -12.9473   20.2334 C   0  0  0  0  0  0  0  0  0  0  0  0
  -29.9410  -24.2690   18.5404 C   0  0  0  0  0  0  0  0  0  0  0  0
  -27.5013  -24.7510   19.7901 C   0  0  0  0  0  0  0  0  0  0  0  0
  -23.5610  -27.9136   19.4485 C   0  0  0  0  0  0  0  0  0  0  0  0
  -25.0351  -12.2950   18.5918 C   0  0  0  0  0  0  0  0  0  0  0  0
  -24.0627  -12.4776   20.7960 C   0  0  0  0  0  0  0  0  0  0  0  0
  -22.3079  -27.4093   19.7939 C   0  0  0  0  0  0  0  0  0  0  0  0
  -27.7311  -13.5938   20.1631 C   0  0  0  0  0  0  0  0  0  0  0  0
  -28.9285  -14.1305   19.6901 C   0  0  0  0  0  0  0  0  0  0  0  0
  -22.4890  -28.4586   21.9585 C   0  0  0  0  0  0  0  0  0  0  0  0
  -17.8586  -19.0444   22.1882 C   0  0  0  0  0  0  0  0  0  0  0  0
  -17.6389  -21.1518   23.3490 C   0  0  0  0  0  0  0  0  0  0  0  0
  -18.1421  -21.1209   20.9862 C   0  0  0  0  0  0  0  0  0  0  0  0
  -29.6432  -11.9281   19.0004 C   0  0  0  0  0  0  0  0  0  0  0  0
  -22.7686  -13.0909   18.8501 C   0  0  0  0  0  0  0  0  0  0  0  0
  -20.4400  -12.8102   17.8470 C   0  0  0  0  0  0  0  0  0  0  0  0
  -29.8845  -25.1715   19.6142 C   0  0  0  0  0  0  0  0  0  0  0  0
  -24.2934  -28.6864   20.3610 C   0  0  0  0  0  0  0  0  0  0  0  0
  -28.6531  -25.4087   20.2543 C   0  0  0  0  0  0  0  0  0  0  0  0
  -23.7500  -28.9737   21.6213 C   0  0  0  0  0  0  0  0  0  0  0  0
  -17.6177  -19.7571   23.3627 C   0  0  0  0  0  0  0  0  0  0  0  0
  -18.1209  -19.7263   20.9999 C   0  0  0  0  0  0  0  0  0  0  0  0
  -25.1423  -12.1515   19.9751 C   0  0  0  0  0  0  0  0  0  0  0  0
  -21.7730  -27.6793   21.0501 C   0  0  0  0  0  0  0  0  0  0  0  0
  -27.4898  -12.2242   20.0549 C   0  0  0  0  0  0  0  0  0  0  0  0
  -17.9011  -21.8337   22.1607 C   0  0  0  0  0  0  0  0  0  0  0  0
  -29.8845  -13.2977   19.1087 C   0  0  0  0  0  0  0  0  0  0  0  0
  -28.4458  -11.3914   19.4735 C   0  0  0  0  0  0  0  0  0  0  0  0
  -21.5425  -13.5766   18.2697 C   0  0  0  0  0  0  0  0  0  0  0  0
  -19.5403  -13.7342   17.3745 C   0  0  0  0  0  0  0  0  0  0  0  0
  -20.2463  -11.3899   17.8787 C   0  0  0  0  0  0  0  0  0  0  0  0
  -27.1013  -28.3751   21.8180 C   0  0  0  0  0  0  0  0  0  0  0  0
  -19.2461  -25.1752   21.7207 C   0  0  0  0  0  0  0  0  0  0  0  0
  -26.4543  -31.3782   22.8596 C   0  0  0  0  0  0  0  0  0  0  0  0
  -24.1136  -33.7642   23.5493 C   0  0  0  0  0  0  0  0  0  0  0  0
  -18.6419  -19.5249   18.5434 C   0  0  0  0  0  0  0  0  0  0  0  0
  -31.1639  -25.8100   20.0939 C   0  0  0  0  0  0  0  0  0  0  0  0
  -25.6320  -29.2454   19.9633 C   0  0  0  0  0  0  0  0  0  0  0  0
  -24.4871  -29.8152   22.6297 C   0  0  0  0  0  0  0  0  0  0  0  0
  -30.9394  -27.0197   20.9975 C   0  0  0  0  0  0  0  0  0  0  0  0
  -19.3388  -18.0770   15.3661 C   0  0  0  0  0  0  0  0  0  0  0  0
  -29.8847  -26.7081   22.0545 C   0  0  0  0  0  0  0  0  0  0  0  0
  -19.8769  -16.6866   15.7115 C   0  0  0  0  0  0  0  0  0  0  0  0
  -19.7931  -19.1282   16.3772 C   0  0  0  0  0  0  0  0  0  0  0  0
  -20.0484  -17.4122   18.1262 C   0  0  0  0  0  0  0  0  0  0  0  0
  -28.5335  -26.3826   21.4064 C   0  0  1  0  0  0  0  0  0  0  0  0
  -26.5143  -29.5911   21.1590 C   0  0  1  0  0  0  0  0  0  0  0  0
  -19.5639  -16.3080   17.1724 C   0  0  2  0  0  0  0  0  0  0  0  0
  -17.3376  -19.0284   24.6333 C   0  0  0  0  0  0  0  0  0  0  0  0
  -23.8855  -36.1052   24.4239 C   0  0  0  0  0  0  0  0  0  0  0  0
  -26.9290  -30.3618   25.6971 C   0  0  0  0  0  0  0  0  0  0  0  0
  -25.7856  -32.4190   26.5507 C   0  0  0  0  0  0  0  0  0  0  0  0
  -27.8886  -32.6224   25.2245 C   0  0  0  0  0  0  0  0  0  0  0  0
  -22.9080  -34.7157   21.0195 C   0  0  0  0  0  0  0  0  0  0  0  0
  -20.1586  -25.9519   20.7938 C   0  0  0  0  0  0  0  0  0  1  0  0
  -18.7732  -23.8305   21.2078 C   0  0  0  0  0  0  0  0  0  0  0  0
  -25.7451  -31.9653   24.0560 C   0  0  1  0  0  0  0  0  0  0  0  0
  -24.0380  -35.2360   23.1853 C   0  0  2  0  0  0  0  0  0  0  0  0
  -26.5738  -31.8246   25.3640 C   0  0  0  0  0  0  0  0  0  0  0  0
  -21.3621  -14.8867   18.0821 N   0  0  0  0  0  0  0  0  0  0  0  0
  -20.1357  -14.9506   17.5363 N   0  0  0  0  0  0  0  0  0  0  0  0
  -25.7951  -30.3337   22.1961 N   0  0  0  0  0  0  0  0  0  0  0  0
  -19.4596  -18.7036   17.7386 N   0  0  0  0  0  0  0  0  0  0  0  0
  -18.3061  -13.6168   16.8405 N   0  0  0  0  0  0  0  0  0  0  0  0
  -21.2717  -10.5871   18.3968 N   0  0  0  0  0  0  0  0  0  0  0  0
  -18.3658  -19.0026   19.8066 N   0  0  0  0  0  0  0  0  0  0  0  0
  -27.8734  -27.5968   20.9769 N   0  0  0  0  0  0  0  0  0  0  0  0
  -25.4174  -33.3420   23.7014 N   0  0  0  0  0  0  0  0  0  0  0  0
  -22.8755  -35.4886   22.2878 N   0  3  0  0  0  0  0  0  0  0  0  0
  -19.2017  -10.8475   17.4450 O   0  0  0  0  0  0  0  0  0  0  0  0
  -26.8719  -28.1597   23.0024 O   0  0  0  0  0  0  0  0  0  0  0  0
  -18.9097  -25.6098   22.8212 O   0  0  0  0  0  0  0  0  0  0  0  0
  -27.5493  -31.8346   22.5217 O   0  0  0  0  0  0  0  0  0  0  0  0
  -23.1157  -33.0603   23.6886 O   0  0  0  0  0  0  0  0  0  0  0  0
  -18.1955  -20.5988   18.1318 O   0  0  0  0  0  0  0  0  0  0  0  0
  -26.3002  -11.6930   20.5243 O   0  0  0  0  0  0  0  0  0  0  0  0
  -20.5504  -27.1877   21.3901 O   0  0  0  0  0  0  0  0  0  1  0  0
  -17.9224  -23.2083   22.1474 O   0  0  0  0  0  0  0  0  0  0  0  0
  -31.0337  -13.8135   18.6530 F   0  0  0  0  0  0  0  0  0  0  0  0
  -28.2191  -10.0750   19.3656 F   0  0  0  0  0  0  0  0  0  0  0  0
  1  2  1  0  0  0  0
  1  5  2  0  0  0  0
  2  6  2  0  0  0  0
  3  8  2  0  0  0  0
  3 18  1  0  0  0  0
  4  9  1  0  0  0  0
  4 18  2  0  0  0  0
  5 20  1  0  0  0  0
  6 22  1  0  0  0  0
  7 10  2  0  0  0  0
  7 21  1  0  0  0  0
  8 26  1  0  0  0  0
  9 26  2  0  0  0  0
 10 27  1  0  0  0  0
 11 12  2  0  0  0  0
 11 28  1  0  0  0  0
 12 30  1  0  0  0  0
 13 23  1  0  0  0  0
 13 27  2  0  0  0  0
 14 24  1  0  0  0  0
 14 25  2  0  0  0  0
 15 24  2  0  0  0  0
 15 29  1  0  0  0  0
 16 25  1  0  0  0  0
 16 29  2  0  0  0  0
 17 30  2  0  0  0  0
 17 31  1  0  0  0  0
 18 32  1  0  0  0  0
 19 32  1  0  0  0  0
 19 33  2  0  0  0  0
 19 34  1  0  0  0  0
 20 22  2  0  0  0  0
 20 40  1  0  0  0  0
 21 23  2  0  0  0  0
 21 41  1  0  0  0  0
 22 49  1  0  0  0  0
 23 42  1  0  0  0  0
 24 52  1  0  0  0  0
 25 69  1  0  0  0  0
 26 79  1  0  0  0  0
 27 80  1  0  0  0  0
 28 31  2  0  0  0  0
 28 79  1  0  0  0  0
 29 81  1  0  0  0  0
 30 82  1  0  0  0  0
 31 83  1  0  0  0  0
 32 63  2  0  0  0  0
 33 64  1  0  0  0  0
 33 67  1  0  0  0  0
 34 68  1  0  0  0  0
 34 73  2  0  0  0  0
 35 50  1  0  0  0  0
 35 70  1  0  0  0  0
 35 74  2  0  0  0  0
 36 58  1  0  0  0  0
 36 59  1  0  0  0  0
 36 75  2  0  0  0  0
 37 60  1  0  0  0  0
 37 65  1  0  0  0  0
 37 76  2  0  0  0  0
 38 61  1  0  0  0  0
 38 71  1  0  0  0  0
 38 77  2  0  0  0  0
 39 66  1  0  0  0  0
 39 69  1  0  0  0  0
 39 78  2  0  0  0  0
 40 43  1  0  0  0  0
 41 50  1  0  0  0  0
 42 65  1  0  0  0  0
 43 45  1  0  0  0  0
 44 46  1  0  0  0  0
 44 47  1  0  0  0  0
 45 49  1  0  0  0  0
 46 51  1  0  0  0  0
 47 66  1  0  0  0  0
 48 51  1  0  0  0  0
 48 66  1  0  0  0  0
 49 70  1  0  0  0  0
 50 65  1  0  0  0  0
 51 64  1  0  0  0  0
 53 61  1  0  0  0  0
 54 62  1  0  0  0  0
 55 62  1  0  0  0  0
 56 62  1  0  0  0  0
 57 72  1  0  0  0  0
 58 80  1  0  0  0  0
 59 81  1  0  0  0  0
 60 62  1  0  0  0  0
 60 71  1  0  0  0  0
 61 72  1  0  0  0  0
 63 64  1  0  0  0  0
M  CHG  1  72   1
M  ISO  4  39 100  58 101  69 100  80 101
M  END
> <Batch ID>
0123

> <Smiles>
CNC(C)C(=O)NC(C(=O)N1Cc2cc([101O:1][101CH2:1]C(=O)COc3cc(C)cc([100NH:0][100C:0](=O)N4CCCC(n5nc(-c6ccc(Oc7ccc(F)cc7F)cc6)c(C(N)=O)c5N)C4)c3)ccc2CC1C(=O)NC1CCCc2ccccc21)C(C)(C)C

> <Shape>
0.243

> <Color>
0.076

> <Negative vol penalty>
0.000

$$$$

  -OEChem-04052302033D

 87 96  0     1  0  0  0  0  0999 V2000
  -28.5276  -37.8415   23.3201 C   0  0  0  0  0  0  0  0  0  0  0  0
  -28.9588  -36.6599   22.7257 C   0  0  0  0  0  0  0  0  0  0  0  0
  -30.8714  -18.1983   21.2751 C   0  0  0  0  0  0  0  0  0  0  0  0
  -22.4432   -9.8679   22.9517 C   0  0  0  0  0  0  0  0  0  0  0  0
  -24.1942   -9.5772   21.3126 C   0  0  0  0  0  0  0  0  0  0  0  0
  -27.5392  -37.8060   24.3028 C   0  0  0  0  0  0  0  0  0  0  0  0
  -28.4025  -35.4418   23.1145 C   0  0  0  0  0  0  0  0  0  0  0  0
  -27.3515  -30.5709   19.5542 C   0  0  0  0  0  0  0  0  0  0  0  0
  -30.9774  -19.2286   20.3408 C   0  0  0  0  0  0  0  0  0  0  0  0
  -29.6218  -17.6579   21.5788 C   0  0  0  0  0  0  0  0  0  0  0  0
  -21.9120   -8.6258   22.6045 C   0  0  0  0  0  0  0  0  0  0  0  0
  -23.6629   -8.3350   20.9654 C   0  0  0  0  0  0  0  0  0  0  0  0
  -28.0647  -29.3916   19.3437 C   0  0  0  0  0  0  0  0  0  0  0  0
  -22.5753   -5.3699   23.2303 C   0  0  0  0  0  0  0  0  0  0  0  0
  -22.1989   -4.5137   24.2651 C   0  0  0  0  0  0  0  0  0  0  0  0
  -26.6818  -28.2717   20.9725 C   0  0  0  0  0  0  0  0  0  0  0  0
  -28.5841  -19.1783   20.0139 C   0  0  0  0  0  0  0  0  0  0  0  0
  -19.9286   -4.5131   23.4387 C   0  0  0  0  0  0  0  0  0  0  0  0
  -23.5844  -10.3436   22.3057 C   0  0  0  0  0  0  0  0  0  0  0  0
  -25.1015  -11.8920   23.6505 C   0  0  0  0  0  0  0  0  0  0  0  0
  -26.9637  -36.5878   24.6970 C   0  0  0  0  0  0  0  0  0  0  0  0
  -26.3034  -30.6124   20.4850 C   0  0  0  0  0  0  0  0  0  0  0  0
  -27.4064  -35.3898   24.1044 C   0  0  0  0  0  0  0  0  0  0  0  0
  -25.9552  -29.4521   21.1911 C   0  0  0  0  0  0  0  0  0  0  0  0
  -29.8337  -19.7186   19.7102 C   0  0  0  0  0  0  0  0  0  0  0  0
  -28.4782  -18.1479   20.9482 C   0  0  0  0  0  0  0  0  0  0  0  0
  -22.5218   -7.8594   21.6114 C   0  0  0  0  0  0  0  0  0  0  0  0
  -27.7318  -28.2425   20.0550 C   0  0  0  0  0  0  0  0  0  0  0  0
  -21.6283   -5.7978   22.2997 C   0  0  0  0  0  0  0  0  0  0  0  0
  -20.8756   -4.0853   24.3693 C   0  0  0  0  0  0  0  0  0  0  0  0
  -20.3050   -5.3694   22.4040 C   0  0  0  0  0  0  0  0  0  0  0  0
  -24.1333  -11.6269   22.6635 C   0  0  0  0  0  0  0  0  0  0  0  0
  -25.2805  -13.2528   23.5991 C   0  0  0  0  0  0  0  0  0  0  0  0
  -25.7786  -10.9889   24.5346 C   0  0  0  0  0  0  0  0  0  0  0  0
  -25.7499  -32.2219   23.1695 C   0  0  0  0  0  0  0  0  0  0  0  0
  -22.8448  -30.7930   22.9676 C   0  0  0  0  0  0  0  0  0  0  0  0
  -20.9674  -28.2002   21.7845 C   0  0  0  0  0  0  0  0  0  0  0  0
  -25.9756  -17.9690   20.7220 C   0  0  0  0  0  0  0  0  0  0  0  0
  -25.9319  -36.5947   25.7970 C   0  0  0  0  0  0  0  0  0  0  0  0
  -25.5265  -31.8854   20.6810 C   0  0  0  0  0  0  0  0  0  0  0  0
  -24.8253  -29.4388   22.1868 C   0  0  0  0  0  0  0  0  0  0  0  0
  -25.1274  -35.3004   25.8856 C   0  0  0  0  0  0  0  0  0  0  0  0
  -22.6337  -16.8348   21.1937 C   0  0  0  0  0  0  0  0  0  0  0  0
  -26.0534  -34.0903   25.8151 C   0  0  0  0  0  0  0  0  0  0  0  0
  -22.8056  -15.4006   21.6994 C   0  0  0  0  0  0  0  0  0  0  0  0
  -28.5413  -23.5180   21.0318 C   0  0  0  0  0  0  0  0  0  0  0  0
  -28.8654  -24.5025   18.7282 C   0  0  0  0  0  0  0  0  0  0  0  0
  -23.6850  -17.1966   20.1461 C   0  0  0  0  0  0  0  0  0  0  0  0
  -25.2474  -15.5254   21.0599 C   0  0  0  0  0  0  0  0  0  0  0  0
  -29.3757  -22.3113   20.6223 C   0  0  0  0  0  0  0  0  0  0  0  0
  -29.6976  -23.2880   18.3375 C   0  0  0  0  0  0  0  0  0  0  0  0
  -26.8096  -34.0512   24.4816 C   0  0  1  0  0  0  0  0  0  0  0  0
  -24.8124  -31.9482   22.0277 C   0  0  1  0  0  0  0  0  0  0  0  0
  -24.2511  -15.1364   22.1644 C   0  0  2  0  0  0  0  0  0  0  0  0
  -28.9145  -24.7683   20.2336 C   0  0  0  0  0  0  0  0  0  0  0  0
  -29.4088  -20.4423   17.3252 C   0  0  0  0  0  0  0  0  0  0  0  0
  -18.6313  -27.2843   21.8165 C   0  0  0  0  0  0  0  0  0  0  0  0
  -23.2809  -29.7870   25.8151 C   0  0  0  0  0  0  0  0  0  0  0  0
  -21.4263  -28.1464   25.4451 C   0  0  0  0  0  0  0  0  0  0  0  0
  -20.9628  -30.5951   25.3377 C   0  0  0  0  0  0  0  0  0  0  0  0
  -20.7104  -28.4363   18.8456 C   0  0  0  0  0  0  0  0  0  0  0  0
  -28.0320  -25.9507   20.6147 C   0  0  0  0  0  0  0  0  0  1  0  0
  -29.9490  -20.8349   18.6980 C   0  0  1  0  0  0  0  0  0  0  0  0
  -22.2551  -29.4949   23.4638 C   0  0  1  0  0  0  0  0  0  0  0  0
  -19.6238  -28.1694   21.0787 C   0  0  2  0  0  0  0  0  0  0  0  0
  -22.0039  -29.5063   24.9981 C   0  0  0  0  0  0  0  0  0  0  0  0
  -23.7256  -12.7306   22.0315 N   0  0  0  0  0  0  0  0  0  0  0  0
  -24.4411  -13.7026   22.6227 N   0  0  0  0  0  0  0  0  0  0  0  0
  -24.0998  -30.7097   22.3478 N   0  0  0  0  0  0  0  0  0  0  0  0
  -25.0297  -16.9239   20.6581 N   0  0  0  0  0  0  0  0  0  0  0  0
  -26.0724  -14.0966   24.2943 N   0  0  0  0  0  0  0  0  0  0  0  0
  -25.4758   -9.6228   24.4546 N   0  0  0  0  0  0  0  0  0  0  0  0
  -27.2091  -17.5983   21.2565 N   0  0  0  0  0  0  0  0  0  0  0  0
  -25.9473  -33.5654   23.4257 N   0  0  0  0  0  0  0  0  0  0  0  0
  -21.0581  -29.2582   22.6640 N   0  0  0  0  0  0  0  0  0  0  0  0
  -29.2455  -22.0901   19.1356 N   0  3  0  0  0  0  0  0  0  0  0  0
  -19.7791  -27.6466   19.6918 N   0  3  0  0  0  0  0  0  0  0  0  0
  -26.6149  -11.3838   25.3821 O   0  0  0  0  0  0  0  0  0  0  0  0
  -26.2556  -31.2837   23.7744 O   0  0  0  0  0  0  0  0  0  0  0  0
  -22.2121  -31.8411   23.1178 O   0  0  0  0  0  0  0  0  0  0  0  0
  -21.8470  -27.3668   21.5790 O   0  0  0  0  0  0  0  0  0  0  0  0
  -25.7020  -19.1151   20.3565 O   0  0  0  0  0  0  0  0  0  0  0  0
  -22.0038   -6.6472   21.2725 O   0  0  0  0  0  0  0  0  0  0  0  0
  -28.4267  -27.0902   19.8519 O   0  0  0  0  0  0  0  0  0  1  0  0
  -20.5146   -3.2618   25.3622 F   0  0  0  0  0  0  0  0  0  0  0  0
  -19.3911   -5.7761   21.5123 F   0  0  0  0  0  0  0  0  0  0  0  0
  -30.2002  -25.1026   20.5572 F   0  0  0  0  0  0  0  0  0  0  0  0
  1  2  1  0  0  0  0
  1  6  2  0  0  0  0
  2  7  2  0  0  0  0
  3  9  2  0  0  0  0
  3 10  1  0  0  0  0
  4 11  2  0  0  0  0
  4 19  1  0  0  0  0
  5 12  1  0  0  0  0
  5 19  2  0  0  0  0
  6 21  1  0  0  0  0
  7 23  1  0  0  0  0
  8 13  2  0  0  0  0
  8 22  1  0  0  0  0
  9 25  1  0  0  0  0
 10 26  2  0  0  0  0
 11 27  1  0  0  0  0
 12 27  2  0  0  0  0
 13 28  1  0  0  0  0
 14 15  2  0  0  0  0
 14 29  1  0  0  0  0
 15 30  1  0  0  0  0
 16 24  1  0  0  0  0
 16 28  2  0  0  0  0
 17 25  2  0  0  0  0
 17 26  1  0  0  0  0
 18 30  2  0  0  0  0
 18 31  1  0  0  0  0
 19 32  1  0  0  0  0
 20 32  1  0  0  0  0
 20 33  2  0  0  0  0
 20 34  1  0  0  0  0
 21 23  2  0  0  0  0
 21 39  1  0  0  0  0
 22 24  2  0  0  0  0
 22 40  1  0  0  0  0
 23 52  1  0  0  0  0
 24 41  1  0  0  0  0
 25 63  1  0  0  0  0
 26 73  1  0  0  0  0
 27 83  1  0  0  0  0
 28 84  1  0  0  0  0
 29 31  2  0  0  0  0
 29 83  1  0  0  0  0
 30 85  1  0  0  0  0
 31 86  1  0  0  0  0
 32 67  2  0  0  0  0
 33 68  1  0  0  0  0
 33 71  1  0  0  0  0
 34 72  1  0  0  0  0
 34 78  2  0  0  0  0
 35 53  1  0  0  0  0
 35 74  1  0  0  0  0
 35 79  2  0  0  0  0
 36 64  1  0  0  0  0
 36 69  1  0  0  0  0
 36 80  2  0  0  0  0
 37 65  1  0  0  0  0
 37 75  1  0  0  0  0
 37 81  2  0  0  0  0
 38 70  1  0  0  0  0
 38 73  1  0  0  0  0
 38 82  2  0  0  0  0
 39 42  1  0  0  0  0
 40 53  1  0  0  0  0
 41 69  1  0  0  0  0
 42 44  1  0  0  0  0
 43 45  1  0  0  0  0
 43 48  1  0  0  0  0
 44 52  1  0  0  0  0
 45 54  1  0  0  0  0
 46 50  1  0  0  0  0
 46 55  1  0  0  0  0
 47 51  1  0  0  0  0
 47 55  1  0  0  0  0
 48 70  1  0  0  0  0
 49 54  1  0  0  0  0
 49 70  1  0  0  0  0
 50 76  1  0  0  0  0
 51 76  1  0  0  0  0
 52 74  1  0  0  0  0
 53 69  1  0  0  0  0
 54 68  1  0  0  0  0
 55 62  1  0  0  0  0
 55 87  1  0  0  0  0
 56 63  1  0  0  0  0
 57 65  1  0  0  0  0
 58 66  1  0  0  0  0
 59 66  1  0  0  0  0
 60 66  1  0  0  0  0
 61 77  1  0  0  0  0
 62 84  1  0  0  0  0
 63 76  1  0  0  0  0
 64 66  1  0  0  0  0
 64 75  1  0  0  0  0
 65 77  1  0  0  0  0
 67 68  1  0  0  0  0
M  CHG  2  76   1  77   1
M  ISO  4  38 100  62 101  73 100  84 101
M  END
> <Batch ID>
0123

> <Smiles>
CNC(C)C(=O)NC(C(=O)N1Cc2cc([101O:1][101CH2:1]C3(F)CCN(C(C)c4cccc([100NH:0][100C:0](=O)N5CCCC(n6nc(-c7ccc(Oc8ccc(F)cc8F)cc7)c(C(N)=O)c6N)C5)c4)CC3)ccc2CC1C(=O)NC1CCCc2ccccc21)C(C)(C)C

> <Shape>
0.311

> <Color>
0.093

> <Negative vol penalty>
0.000

$$$$

  -OEChem-04052302033D

 85 94  0     1  0  0  0  0  0999 V2000
  -27.0857  -36.8946   24.5568 C   0  0  0  0  0  0  0  0  0  0  0  0
  -27.6958  -35.7265   24.1109 C   0  0  0  0  0  0  0  0  0  0  0  0
  -24.2660   -9.5529   21.4812 C   0  0  0  0  0  0  0  0  0  0  0  0
  -24.8835  -10.7329   23.4970 C   0  0  0  0  0  0  0  0  0  0  0  0
  -25.7628  -36.8647   24.9961 C   0  0  0  0  0  0  0  0  0  0  0  0
  -26.9837  -34.5277   24.1051 C   0  0  0  0  0  0  0  0  0  0  0  0
  -27.4613  -29.9818   20.0293 C   0  0  0  0  0  0  0  0  0  0  0  0
  -28.2979  -20.8165   21.1358 C   0  0  0  0  0  0  0  0  0  0  0  0
  -28.0711  -19.5050   20.7186 C   0  0  0  0  0  0  0  0  0  0  0  0
  -23.9301   -8.4320   22.2402 C   0  0  0  0  0  0  0  0  0  0  0  0
  -24.5476   -9.6119   24.2561 C   0  0  0  0  0  0  0  0  0  0  0  0
  -28.1532  -28.7716   20.0507 C   0  0  0  0  0  0  0  0  0  0  0  0
  -21.3453   -7.4113   24.1664 C   0  0  0  0  0  0  0  0  0  0  0  0
  -20.1473   -6.7621   23.8686 C   0  0  0  0  0  0  0  0  0  0  0  0
  -26.1532  -27.6482   20.7972 C   0  0  0  0  0  0  0  0  0  0  0  0
  -30.4357  -19.2267   20.3084 C   0  0  0  0  0  0  0  0  0  0  0  0
  -21.3672   -4.7343   23.3818 C   0  0  0  0  0  0  0  0  0  0  0  0
  -24.7428  -10.7034   22.1096 C   0  0  0  0  0  0  0  0  0  0  0  0
  -24.2451  -12.9266   20.9618 C   0  0  0  0  0  0  0  0  0  0  0  0
  -25.0310  -35.6668   24.9866 C   0  0  0  0  0  0  0  0  0  0  0  0
  -26.1107  -30.0362   20.4027 C   0  0  0  0  0  0  0  0  0  0  0  0
  -25.6502  -34.4815   24.5459 C   0  0  0  0  0  0  0  0  0  0  0  0
  -25.4457  -28.8599   20.7771 C   0  0  0  0  0  0  0  0  0  0  0  0
  -30.6625  -20.5382   20.7256 C   0  0  0  0  0  0  0  0  0  0  0  0
  -29.5936  -21.3332   21.1393 C   0  0  0  0  0  0  0  0  0  0  0  0
  -29.1400  -18.7101   20.3049 C   0  0  0  0  0  0  0  0  0  0  0  0
  -24.0708   -8.4614   23.6276 C   0  0  0  0  0  0  0  0  0  0  0  0
  -27.5000  -27.6050   20.4375 C   0  0  0  0  0  0  0  0  0  0  0  0
  -22.5544   -6.7221   24.0719 C   0  0  0  0  0  0  0  0  0  0  0  0
  -20.1581   -5.4236   23.4763 C   0  0  0  0  0  0  0  0  0  0  0  0
  -22.5652   -5.3836   23.6796 C   0  0  0  0  0  0  0  0  0  0  0  0
  -25.0905  -11.8615   21.3260 C   0  0  0  0  0  0  0  0  0  0  0  0
  -25.0466  -13.7652   20.2264 C   0  0  0  0  0  0  0  0  0  0  0  0
  -29.4990  -24.9280   21.7513 C   0  0  0  0  0  0  0  0  0  0  0  0
  -28.8085  -26.0658   21.6161 C   0  0  0  0  0  0  0  0  0  1  0  0
  -22.8592  -13.1390   21.2615 C   0  0  0  0  0  0  0  0  0  0  0  0
  -24.4760  -31.5039   22.6999 C   0  0  0  0  0  0  0  0  0  0  0  0
  -21.9172  -30.2971   21.1129 C   0  0  0  0  0  0  0  0  0  0  0  0
  -20.6752  -27.9233   18.9987 C   0  0  0  0  0  0  0  0  0  0  0  0
  -29.8580  -16.4553   19.4407 C   0  0  0  0  0  0  0  0  0  0  0  0
  -23.6186  -35.6747   25.5153 C   0  0  0  0  0  0  0  0  0  0  0  0
  -25.3714  -31.3449   20.3485 C   0  0  0  0  0  0  0  0  0  0  0  0
  -23.9911  -28.8613   21.1677 C   0  0  0  0  0  0  0  0  0  0  0  0
  -30.2086  -24.4980   22.9955 C   0  0  0  0  0  0  0  0  0  0  0  0
  -22.8152  -34.4367   25.1252 C   0  0  0  0  0  0  0  0  0  0  0  0
  -29.6957  -13.0702   18.3490 C   0  0  0  0  0  0  0  0  0  0  0  0
  -23.6343  -33.1720   25.3628 C   0  0  0  0  0  0  0  0  0  0  0  0
  -28.4136  -12.5416   18.9962 C   0  0  0  0  0  0  0  0  0  0  0  0
  -30.0721  -22.9793   22.9549 C   0  0  0  0  0  0  0  0  0  0  0  0
  -30.4338  -14.0443   19.2656 C   0  0  0  0  0  0  0  0  0  0  0  0
  -28.3378  -14.6271   20.4217 C   0  0  0  0  0  0  0  0  0  0  0  0
  -24.9029  -33.1664   24.5012 C   0  0  1  0  0  0  0  0  0  0  0  0
  -29.5749  -23.8270   20.7247 C   0  0  1  0  0  0  0  0  0  0  0  0
  -24.1355  -31.3704   21.2425 C   0  0  1  0  0  0  0  0  0  0  0  0
  -27.5261  -13.6921   19.5103 C   0  0  2  0  0  0  0  0  0  0  0  0
  -32.0599  -21.0669   20.7182 C   0  0  0  0  0  0  0  0  0  0  0  0
  -30.7499  -24.0601   19.7764 C   0  0  0  0  0  0  0  0  0  0  0  0
  -18.5390  -27.1725   17.9169 C   0  0  0  0  0  0  0  0  0  0  0  0
  -21.0070  -29.0817   23.7594 C   0  0  0  0  0  0  0  0  0  0  0  0
  -19.4560  -27.6017   22.4663 C   0  0  0  0  0  0  0  0  0  0  0  0
  -19.1720  -30.0786   22.3834 C   0  0  0  0  0  0  0  0  0  0  0  0
  -21.7602  -28.3658   16.2810 C   0  0  0  0  0  0  0  0  0  0  0  0
  -21.1247  -29.0140   21.1811 C   0  0  1  0  0  0  0  0  0  0  0  0
  -19.7854  -28.0319   17.7736 C   0  0  2  0  0  0  0  0  0  0  0  0
  -20.2179  -28.9439   22.4421 C   0  0  0  0  0  0  0  0  0  0  0  0
  -26.3338  -12.0075   20.8602 N   0  0  0  0  0  0  0  0  0  0  0  0
  -26.2755  -13.1742   20.1957 N   0  0  0  0  0  0  0  0  0  0  0  0
  -29.8003  -22.6374   21.5558 N   0  0  3  0  0  0  0  0  0  0  0  0
  -23.3132  -30.1666   21.1047 N   0  0  0  0  0  0  0  0  0  0  0  0
  -29.5317  -15.1092   19.7097 N   0  0  0  0  0  0  0  0  0  0  0  0
  -24.8131  -14.9429   19.6094 N   0  0  0  0  0  0  0  0  0  0  0  0
  -22.1867  -12.1782   22.0290 N   0  0  0  0  0  0  0  0  0  0  0  0
  -28.9095  -17.3776   19.8817 N   0  0  0  0  0  0  0  0  0  0  0  0
  -24.5843  -32.8110   23.1350 N   0  0  0  0  0  0  0  0  0  0  0  0
  -20.4011  -28.9135   19.9183 N   0  0  0  0  0  0  0  0  0  0  0  0
  -20.5235  -27.5901   16.5566 N   0  3  0  0  0  0  0  0  0  0  0  0
  -22.2314  -14.1427   20.8468 O   0  0  0  0  0  0  0  0  0  0  0  0
  -24.6277  -30.4956   23.3797 O   0  0  0  0  0  0  0  0  0  0  0  0
  -21.3196  -31.3750   21.0613 O   0  0  0  0  0  0  0  0  0  0  0  0
  -21.5255  -27.0456   19.1288 O   0  0  0  0  0  0  0  0  0  0  0  0
  -30.8887  -16.7652   18.8377 O   0  0  0  0  0  0  0  0  0  0  0  0
  -23.7429   -7.3678   24.3686 O   0  0  0  0  0  0  0  0  0  0  0  0
  -28.1732  -26.4226   20.4599 O   0  0  0  0  0  0  0  0  0  1  0  0
  -19.0074   -4.7998   23.1918 F   0  0  0  0  0  0  0  0  0  0  0  0
  -23.7235   -4.7159   23.5880 F   0  0  0  0  0  0  0  0  0  0  0  0
  1  2  1  0  0  0  0
  1  5  2  0  0  0  0
  2  6  2  0  0  0  0
  3 10  2  0  0  0  0
  3 18  1  0  0  0  0
  4 11  1  0  0  0  0
  4 18  2  0  0  0  0
  5 20  1  0  0  0  0
  6 22  1  0  0  0  0
  7 12  2  0  0  0  0
  7 21  1  0  0  0  0
  8  9  2  0  0  0  0
  8 25  1  0  0  0  0
  9 26  1  0  0  0  0
 10 27  1  0  0  0  0
 11 27  2  0  0  0  0
 12 28  1  0  0  0  0
 13 14  2  0  0  0  0
 13 29  1  0  0  0  0
 14 30  1  0  0  0  0
 15 23  1  0  0  0  0
 15 28  2  0  0  0  0
 16 24  1  0  0  0  0
 16 26  2  0  0  0  0
 17 30  2  0  0  0  0
 17 31  1  0  0  0  0
 18 32  1  0  0  0  0
 19 32  1  0  0  0  0
 19 33  2  0  0  0  0
 19 36  1  0  0  0  0
 20 22  2  0  0  0  0
 20 41  1  0  0  0  0
 21 23  2  0  0  0  0
 21 42  1  0  0  0  0
 22 52  1  0  0  0  0
 23 43  1  0  0  0  0
 24 25  2  0  0  0  0
 24 56  1  0  0  0  0
 25 68  1  0  0  0  0
 26 73  1  0  0  0  0
 27 82  1  0  0  0  0
 28 83  1  0  0  0  0
 29 31  2  0  0  0  0
 29 82  1  0  0  0  0
 30 84  1  0  0  0  0
 31 85  1  0  0  0  0
 32 66  2  0  0  0  0
 33 67  1  0  0  0  0
 33 71  1  0  0  0  0
 34 35  2  0  0  0  0
 34 44  1  0  0  0  0
 34 53  1  0  0  0  0
 35 83  1  0  0  0  0
 36 72  1  0  0  0  0
 36 77  2  0  0  0  0
 37 54  1  0  0  0  0
 37 74  1  0  0  0  0
 37 78  2  0  0  0  0
 38 63  1  0  0  0  0
 38 69  1  0  0  0  0
 38 79  2  0  0  0  0
 39 64  1  0  0  0  0
 39 75  1  0  0  0  0
 39 80  2  0  0  0  0
 40 70  1  0  0  0  0
 40 73  1  0  0  0  0
 40 81  2  0  0  0  0
 41 45  1  0  0  0  0
 42 54  1  0  0  0  0
 43 69  1  0  0  0  0
 44 49  1  0  0  0  0
 45 47  1  0  0  0  0
 46 48  1  0  0  0  0
 46 50  1  0  0  0  0
 47 52  1  0  0  0  0
 48 55  1  0  0  0  0
 49 68  1  0  0  0  0
 50 70  1  0  0  0  0
 51 55  1  0  0  0  0
 51 70  1  0  0  0  0
 52 74  1  0  0  0  0
 53 57  1  0  0  0  0
 53 68  1  0  0  0  0
 54 69  1  0  0  0  0
 55 67  1  0  0  0  0
 58 64  1  0  0  0  0
 59 65  1  0  0  0  0
 60 65  1  0  0  0  0
 61 65  1  0  0  0  0
 62 76  1  0  0  0  0
 63 65  1  0  0  0  0
 63 75  1  0  0  0  0
 64 76  1  0  0  0  0
 66 67  1  0  0  0  0
M  CHG  1  76   1
M  ISO  4  35 101  40 100  73 100  83 101
M  END
> <Batch ID>
0123

> <Smiles>
CNC(C)C(=O)NC(C(=O)N1Cc2cc([101O:1][101CH:1]=C3CCN(c4ccc([100NH:0][100C:0](=O)N5CCCC(n6nc(-c7ccc(Oc8ccc(F)cc8F)cc7)c(C(N)=O)c6N)C5)cc4C)C3C)ccc2CC1C(=O)NC1CCCc2ccccc21)C(C)(C)C

> <Shape>
0.358

> <Color>
0.140

> <Negative vol penalty>
0.000

$$$$

  -OEChem-04052302033D

 84 92  0     1  0  0  0  0  0999 V2000
  -30.5606  -24.9776   17.6990 C   0  0  0  0  0  0  0  0  0  0  0  0
  -29.1742  -24.9318   17.8050 C   0  0  0  0  0  0  0  0  0  0  0  0
  -26.2935  -14.2713   20.5812 C   0  0  0  0  0  0  0  0  0  0  0  0
  -23.9816  -14.1587   19.8888 C   0  0  0  0  0  0  0  0  0  0  0  0
  -31.3178  -25.5526   18.7188 C   0  0  0  0  0  0  0  0  0  0  0  0
  -28.5443  -25.4601   18.9313 C   0  0  0  0  0  0  0  0  0  0  0  0
  -23.1149  -28.2867   19.1270 C   0  0  0  0  0  0  0  0  0  0  0  0
  -19.5834  -20.8790   18.6071 C   0  0  0  0  0  0  0  0  0  0  0  0
  -26.1044  -13.1542   21.3947 C   0  0  0  0  0  0  0  0  0  0  0  0
  -23.7924  -13.0415   20.7023 C   0  0  0  0  0  0  0  0  0  0  0  0
  -21.8387  -27.8437   19.4716 C   0  0  0  0  0  0  0  0  0  0  0  0
  -18.2372  -21.1989   18.7827 C   0  0  0  0  0  0  0  0  0  0  0  0
  -24.4568   -9.7304   20.5777 C   0  0  0  0  0  0  0  0  0  0  0  0
  -23.7580   -8.6497   20.0398 C   0  0  0  0  0  0  0  0  0  0  0  0
  -20.2145  -22.8534   19.8482 C   0  0  0  0  0  0  0  0  0  0  0  0
  -22.1555  -28.6897   21.7083 C   0  0  0  0  0  0  0  0  0  0  0  0
  -22.0942   -8.8599   21.7790 C   0  0  0  0  0  0  0  0  0  0  0  0
  -25.2321  -14.7736   19.8283 C   0  0  0  0  0  0  0  0  0  0  0  0
  -18.8682  -23.1733   20.0238 C   0  0  0  0  0  0  0  0  0  0  0  0
  -25.8299  -15.9395   17.6394 C   0  0  0  0  0  0  0  0  0  0  0  0
  -30.6963  -26.0968   19.8537 C   0  0  0  0  0  0  0  0  0  0  0  0
  -23.9266  -28.9259   20.0752 C   0  0  0  0  0  0  0  0  0  0  0  0
  -29.2940  -26.0417   19.9678 C   0  0  0  0  0  0  0  0  0  0  0  0
  -23.4406  -29.1422   21.3726 C   0  0  0  0  0  0  0  0  0  0  0  0
  -20.5721  -21.7063   19.1399 C   0  0  0  0  0  0  0  0  0  0  0  0
  -24.8538  -12.5392   21.4553 C   0  0  0  0  0  0  0  0  0  0  0  0
  -21.3599  -28.0426   20.7632 C   0  0  0  0  0  0  0  0  0  0  0  0
  -17.8795  -22.3460   19.4910 C   0  0  0  0  0  0  0  0  0  0  0  0
  -23.9744  -10.3757   21.7163 C   0  0  0  0  0  0  0  0  0  0  0  0
  -22.5766   -8.2145   20.6403 C   0  0  0  0  0  0  0  0  0  0  0  0
  -22.7931   -9.9405   22.3169 C   0  0  0  0  0  0  0  0  0  0  0  0
  -25.4267  -15.9279   18.9882 C   0  0  0  0  0  0  0  0  0  0  0  0
  -25.8649  -17.2706   17.3029 C   0  0  0  0  0  0  0  0  0  0  0  0
  -18.5161  -24.3893   20.7757 C   0  0  0  0  0  0  0  0  0  0  0  0
  -19.2353  -24.9117   21.7815 C   0  0  0  0  0  0  0  0  0  0  0  0
  -26.1445  -14.8448   16.7686 C   0  0  0  0  0  0  0  0  0  0  0  0
  -26.7438  -28.2960   21.4056 C   0  0  0  0  0  0  0  0  0  0  0  0
  -26.3456  -31.2375   22.7139 C   0  0  0  0  0  0  0  0  0  0  0  0
  -24.2043  -33.7139   23.6777 C   0  0  0  0  0  0  0  0  0  0  0  0
  -23.0452  -22.0930   19.4240 C   0  0  0  0  0  0  0  0  0  0  0  0
  -31.5598  -26.6655   20.9518 C   0  0  0  0  0  0  0  0  0  0  0  0
  -25.2906  -29.4217   19.6802 C   0  0  0  0  0  0  0  0  0  0  0  0
  -24.2647  -29.8412   22.4218 C   0  0  0  0  0  0  0  0  0  0  0  0
  -30.7915  -27.5392   21.9400 C   0  0  0  0  0  0  0  0  0  0  0  0
  -26.5658  -21.6014   19.2232 C   0  0  0  0  0  0  0  0  0  0  0  0
  -29.4970  -26.8531   22.3649 C   0  0  0  0  0  0  0  0  0  0  0  0
  -26.7097  -20.0926   19.0113 C   0  0  0  0  0  0  0  0  0  0  0  0
  -25.4112  -21.9341   20.1666 C   0  0  0  0  0  0  0  0  0  0  0  0
  -24.2626  -19.8332   19.5869 C   0  0  0  0  0  0  0  0  0  0  0  0
  -28.5725  -26.6264   21.1626 C   0  0  1  0  0  0  0  0  0  0  0  0
  -26.2285  -29.6018   20.8699 C   0  0  1  0  0  0  0  0  0  0  0  0
  -25.3717  -19.4522   18.5928 C   0  0  2  0  0  0  0  0  0  0  0  0
  -14.6620  -23.7959   18.7566 C   0  0  0  0  0  0  0  0  0  0  0  0
  -24.1710  -35.9822   24.7506 C   0  0  0  0  0  0  0  0  0  0  0  0
  -26.8241  -29.9525   25.4396 C   0  0  0  0  0  0  0  0  0  0  0  0
  -25.8571  -32.0045   26.4990 C   0  0  0  0  0  0  0  0  0  0  0  0
  -27.9316  -32.1725   25.1240 C   0  0  0  0  0  0  0  0  0  0  0  0
  -23.0010  -34.9594   21.2777 C   0  0  0  0  0  0  0  0  0  0  0  0
  -18.8316  -26.1511   22.5322 C   0  0  0  0  0  0  0  0  0  0  0  0
  -15.7918  -22.8326   18.4613 C   0  0  0  0  0  0  0  0  0  0  0  0
  -19.9079  -27.2279   22.4614 C   0  0  0  0  0  0  0  0  0  1  0  0
  -25.7144  -31.7687   23.9781 C   0  0  1  0  0  0  0  0  0  0  0  0
  -24.2257  -35.2131   23.4398 C   0  0  2  0  0  0  0  0  0  0  0  0
  -26.5668  -31.4596   25.2412 C   0  0  0  0  0  0  0  0  0  0  0  0
  -25.2206  -17.1544   19.4753 N   0  0  0  0  0  0  0  0  0  0  0  0
  -25.4954  -17.9491   18.4269 N   0  0  0  0  0  0  0  0  0  0  0  0
  -25.5942  -30.3019   21.9887 N   0  0  0  0  0  0  0  0  0  0  0  0
  -24.1760  -21.2972   19.7047 N   0  0  0  0  0  0  0  0  0  0  0  0
  -26.1756  -17.9153   16.1582 N   0  0  0  0  0  0  0  0  0  0  0  0
  -26.0569  -13.5411   17.2757 N   0  0  0  0  0  0  0  0  0  0  0  0
  -21.9395  -21.3807   18.9608 N   0  0  0  0  0  0  0  0  0  0  0  0
  -27.9054  -27.8580   20.7987 N   0  0  0  0  0  0  0  0  0  0  0  0
  -25.4778  -33.1902   23.7501 N   0  0  0  0  0  0  0  0  0  0  0  0
  -23.0600  -35.6219   22.6061 N   0  3  0  0  0  0  0  0  0  0  0  0
  -26.5088  -15.0183   15.5809 O   0  0  0  0  0  0  0  0  0  0  0  0
  -26.1336  -27.7287   22.3042 O   0  0  0  0  0  0  0  0  0  0  0  0
  -27.4611  -31.6433   22.3782 O   0  0  0  0  0  0  0  0  0  0  0  0
  -23.1623  -33.0724   23.7918 O   0  0  0  0  0  0  0  0  0  0  0  0
  -23.0655  -23.3193   19.5569 O   0  0  0  0  0  0  0  0  0  0  0  0
  -24.6689  -11.4490   22.2488 O   0  0  0  0  0  0  0  0  0  0  0  0
  -20.1148  -27.6106   21.1023 O   0  0  0  0  0  0  0  0  0  1  0  0
  -16.5563  -22.6356   19.6484 O   0  0  0  0  0  0  0  0  0  0  0  0
  -21.9048   -7.1777   20.1227 F   0  0  0  0  0  0  0  0  0  0  0  0
  -22.3241  -10.5573   23.4103 F   0  0  0  0  0  0  0  0  0  0  0  0
  1  2  1  0  0  0  0
  1  5  2  0  0  0  0
  2  6  2  0  0  0  0
  3  9  2  0  0  0  0
  3 18  1  0  0  0  0
  4 10  1  0  0  0  0
  4 18  2  0  0  0  0
  5 21  1  0  0  0  0
  6 23  1  0  0  0  0
  7 11  2  0  0  0  0
  7 22  1  0  0  0  0
  8 12  2  0  0  0  0
  8 25  1  0  0  0  0
  9 26  1  0  0  0  0
 10 26  2  0  0  0  0
 11 27  1  0  0  0  0
 12 28  1  0  0  0  0
 13 14  2  0  0  0  0
 13 29  1  0  0  0  0
 14 30  1  0  0  0  0
 15 19  1  0  0  0  0
 15 25  2  0  0  0  0
 16 24  1  0  0  0  0
 16 27  2  0  0  0  0
 17 30  2  0  0  0  0
 17 31  1  0  0  0  0
 18 32  1  0  0  0  0
 19 28  2  0  0  0  0
 19 34  1  0  0  0  0
 20 32  1  0  0  0  0
 20 33  2  0  0  0  0
 20 36  1  0  0  0  0
 21 23  2  0  0  0  0
 21 41  1  0  0  0  0
 22 24  2  0  0  0  0
 22 42  1  0  0  0  0
 23 50  1  0  0  0  0
 24 43  1  0  0  0  0
 25 71  1  0  0  0  0
 26 80  1  0  0  0  0
 27 81  1  0  0  0  0
 28 82  1  0  0  0  0
 29 31  2  0  0  0  0
 29 80  1  0  0  0  0
 30 83  1  0  0  0  0
 31 84  1  0  0  0  0
 32 65  2  0  0  0  0
 33 66  1  0  0  0  0
 33 69  1  0  0  0  0
 34 35  2  0  0  0  0
 35 59  1  0  0  0  0
 36 70  1  0  0  0  0
 36 75  2  0  0  0  0
 37 51  1  0  0  0  0
 37 72  1  0  0  0  0
 37 76  2  0  0  0  0
 38 62  1  0  0  0  0
 38 67  1  0  0  0  0
 38 77  2  0  0  0  0
 39 63  1  0  0  0  0
 39 73  1  0  0  0  0
 39 78  2  0  0  0  0
 40 68  1  0  0  0  0
 40 71  1  0  0  0  0
 40 79  2  0  0  0  0
 41 44  1  0  0  0  0
 42 51  1  0  0  0  0
 43 67  1  0  0  0  0
 44 46  1  0  0  0  0
 45 47  1  0  0  0  0
 45 48  1  0  0  0  0
 46 50  1  0  0  0  0
 47 52  1  0  0  0  0
 48 68  1  0  0  0  0
 49 52  1  0  0  0  0
 49 68  1  0  0  0  0
 50 72  1  0  0  0  0
 51 67  1  0  0  0  0
 52 66  1  0  0  0  0
 53 60  1  0  0  0  0
 54 63  1  0  0  0  0
 55 64  1  0  0  0  0
 56 64  1  0  0  0  0
 57 64  1  0  0  0  0
 58 74  1  0  0  0  0
 59 61  1  0  0  0  0
 60 82  1  0  0  0  0
 61 81  1  0  0  0  0
 62 64  1  0  0  0  0
 62 73  1  0  0  0  0
 63 74  1  0  0  0  0
 65 66  1  0  0  0  0
M  CHG  1  74   1
M  ISO  4  40 100  61 101  71 100  81 101
M  END
> <Batch ID>
0123

> <Smiles>
CCOc1ccc([100NH:0][100C:0](=O)N2CCCC(n3nc(-c4ccc(Oc5ccc(F)cc5F)cc4)c(C(N)=O)c3N)C2)cc1C=CC[101CH2:1][101O:1]c1ccc2c(c1)CN(C(=O)C(NC(=O)C(C)NC)C(C)(C)C)C(C(=O)NC1CCCc3ccccc31)C2

> <Shape>
0.266

> <Color>
0.075

> <Negative vol penalty>
0.000

$$$$

  -OEChem-04052302033D

 84 92  0     1  0  0  0  0  0999 V2000
  -28.4105  -36.3696   20.2862 C   0  0  0  0  0  0  0  0  0  0  0  0
  -28.5820  -35.1448   20.9233 C   0  0  0  0  0  0  0  0  0  0  0  0
  -24.2922   -9.7138   21.1753 C   0  0  0  0  0  0  0  0  0  0  0  0
  -24.8011  -10.6219   23.3555 C   0  0  0  0  0  0  0  0  0  0  0  0
  -27.1580  -36.9820   20.2810 C   0  0  0  0  0  0  0  0  0  0  0  0
  -27.5012  -34.5323   21.5567 C   0  0  0  0  0  0  0  0  0  0  0  0
  -27.1980  -29.5827   20.5297 C   0  0  0  0  0  0  0  0  0  0  0  0
  -23.9242   -8.5044   21.7649 C   0  0  0  0  0  0  0  0  0  0  0  0
  -24.4331   -9.4126   23.9452 C   0  0  0  0  0  0  0  0  0  0  0  0
  -28.0693  -28.7360   21.2135 C   0  0  0  0  0  0  0  0  0  0  0  0
  -22.5078   -5.2975   22.7262 C   0  0  0  0  0  0  0  0  0  0  0  0
  -21.3317   -4.6919   22.2841 C   0  0  0  0  0  0  0  0  0  0  0  0
  -28.3129  -20.9337   22.5019 C   0  0  0  0  0  0  0  0  0  0  0  0
  -26.2943  -28.1513   22.7389 C   0  0  0  0  0  0  0  0  0  0  0  0
  -30.4707  -19.4319   21.5686 C   0  0  0  0  0  0  0  0  0  0  0  0
  -20.0733   -6.6387   22.9649 C   0  0  0  0  0  0  0  0  0  0  0  0
  -24.7307  -10.7726   21.9706 C   0  0  0  0  0  0  0  0  0  0  0  0
  -29.6118  -21.4261   22.6281 C   0  0  0  0  0  0  0  0  0  0  0  0
  -24.2800  -13.1263   21.0964 C   0  0  0  0  0  0  0  0  0  0  0  0
  -26.0591  -36.3721   20.9063 C   0  0  0  0  0  0  0  0  0  0  0  0
  -25.8690  -29.7287   20.9526 C   0  0  0  0  0  0  0  0  0  0  0  0
  -26.2332  -35.1378   21.5611 C   0  0  0  0  0  0  0  0  0  0  0  0
  -25.4074  -28.9986   22.0572 C   0  0  0  0  0  0  0  0  0  0  0  0
  -28.0929  -19.6903   21.9092 C   0  0  0  0  0  0  0  0  0  0  0  0
  -29.1718  -18.9394   21.4425 C   0  0  0  0  0  0  0  0  0  0  0  0
  -23.9946   -8.3538   23.1498 C   0  0  0  0  0  0  0  0  0  0  0  0
  -27.6183  -28.0223   22.3200 C   0  0  0  0  0  0  0  0  0  0  0  0
  -22.4667   -6.5737   23.2878 C   0  0  0  0  0  0  0  0  0  0  0  0
  -20.1144   -5.3625   22.4034 C   0  0  0  0  0  0  0  0  0  0  0  0
  -30.6907  -20.6752   22.1614 C   0  0  0  0  0  0  0  0  0  0  0  0
  -21.2495   -7.2443   23.4070 C   0  0  0  0  0  0  0  0  0  0  0  0
  -25.1115  -12.0219   21.3621 C   0  0  0  0  0  0  0  0  0  0  0  0
  -25.1133  -14.0519   20.5173 C   0  0  0  0  0  0  0  0  0  0  0  0
  -28.7739  -23.7731   23.1325 C   0  0  0  0  0  0  0  0  0  0  0  0
  -28.9263  -24.9768   23.7019 C   0  0  0  0  0  0  0  0  0  0  0  0
  -29.8429  -22.7462   23.2628 C   0  0  0  0  0  0  0  0  0  0  0  0
  -22.8797  -13.3000   21.3503 C   0  0  0  0  0  0  0  0  0  0  0  0
  -24.1069  -32.1506   22.0172 C   0  0  0  0  0  0  0  0  0  0  0  0
  -21.7127  -29.9675   21.8615 C   0  0  0  0  0  0  0  0  0  0  0  0
  -20.7810  -26.6844   21.8611 C   0  0  0  0  0  0  0  0  0  0  0  0
  -29.9441  -16.8145   20.3314 C   0  0  0  0  0  0  0  0  0  0  0  0
  -24.7355  -37.0950   20.9151 C   0  0  0  0  0  0  0  0  0  0  0  0
  -24.9344  -30.6256   20.1881 C   0  0  0  0  0  0  0  0  0  0  0  0
  -23.9845  -29.1044   22.5393 C   0  0  0  0  0  0  0  0  0  0  0  0
  -23.5555  -36.2008   21.2870 C   0  0  0  0  0  0  0  0  0  0  0  0
  -29.8548  -13.5995   18.8041 C   0  0  0  0  0  0  0  0  0  0  0  0
  -23.8901  -35.3582   22.5137 C   0  0  0  0  0  0  0  0  0  0  0  0
  -28.5444  -12.9933   19.3116 C   0  0  0  0  0  0  0  0  0  0  0  0
  -30.5406  -14.4457   19.8752 C   0  0  0  0  0  0  0  0  0  0  0  0
  -28.3859  -14.8768   20.9892 C   0  0  0  0  0  0  0  0  0  0  0  0
  -25.0793  -34.4301   22.2378 C   0  0  1  0  0  0  0  0  0  0  0  0
  -23.7411  -31.0907   21.0169 C   0  0  1  0  0  0  0  0  0  0  0  0
  -27.6261  -14.0687   19.9245 C   0  0  2  0  0  0  0  0  0  0  0  0
  -26.6909  -19.1876   21.7875 C   0  0  0  0  0  0  0  0  0  0  0  0
  -18.7509  -25.2128   21.7592 C   0  0  0  0  0  0  0  0  0  0  0  0
  -21.0935  -30.6239   24.7763 C   0  0  0  0  0  0  0  0  0  0  0  0
  -19.7467  -28.5165   24.8921 C   0  0  0  0  0  0  0  0  0  0  0  0
  -19.0799  -30.3360   23.3213 C   0  0  0  0  0  0  0  0  0  0  0  0
  -21.6900  -25.4071   19.3509 C   0  0  0  0  0  0  0  0  0  0  0  0
  -27.8938  -26.0551   23.6276 C   0  0  0  0  0  0  0  0  0  1  0  0
  -21.1313  -28.9488   22.8119 C   0  0  1  0  0  0  0  0  0  0  0  0
  -19.8435  -25.9035   20.9580 C   0  0  2  0  0  0  0  0  0  0  0  0
  -20.2902  -29.6056   23.9428 C   0  0  0  0  0  0  0  0  0  0  0  0
  -26.3760  -12.2253   20.9828 N   0  0  0  0  0  0  0  0  0  0  0  0
  -26.3452  -13.4683   20.4728 N   0  0  0  0  0  0  0  0  0  0  0  0
  -23.1109  -29.9993   21.7624 N   0  0  0  0  0  0  0  0  0  0  0  0
  -29.6117  -15.4454   20.4070 N   0  0  0  0  0  0  0  0  0  0  0  0
  -24.9051  -15.3000   20.0468 N   0  0  0  0  0  0  0  0  0  0  0  0
  -22.1743  -12.2489   21.9520 N   0  0  0  0  0  0  0  0  0  0  0  0
  -28.9699  -17.6733   20.8393 N   0  0  0  0  0  0  0  0  0  0  0  0
  -24.6578  -33.2871   21.4567 N   0  0  0  0  0  0  0  0  0  0  0  0
  -20.3888  -28.0000   21.9892 N   0  0  0  0  0  0  0  0  0  0  0  0
  -20.5986  -24.8654   20.2009 N   0  3  0  0  0  0  0  0  0  0  0  0
  -30.8777  -22.9475   23.8888 O   0  0  0  0  0  0  0  0  0  0  0  0
  -22.2684  -14.3498   21.0376 O   0  0  0  0  0  0  0  0  0  0  0  0
  -23.9029  -31.9525   23.2092 O   0  0  0  0  0  0  0  0  0  0  0  0
  -20.9539  -30.7029   21.2251 O   0  0  0  0  0  0  0  0  0  0  0  0
  -21.7610  -26.1770   22.4021 O   0  0  0  0  0  0  0  0  0  0  0  0
  -31.0023  -17.1985   19.8266 O   0  0  0  0  0  0  0  0  0  0  0  0
  -23.6354   -7.1740   23.7255 O   0  0  0  0  0  0  0  0  0  0  0  0
  -28.4669  -27.1957   22.9897 O   0  0  0  0  0  0  0  0  0  1  0  0
  -18.9853   -4.7814   21.9774 F   0  0  0  0  0  0  0  0  0  0  0  0
  -31.9433  -21.1378   22.2808 F   0  0  0  0  0  0  0  0  0  0  0  0
  -21.2039   -8.4710   23.9445 F   0  0  0  0  0  0  0  0  0  0  0  0
  1  2  1  0  0  0  0
  1  5  2  0  0  0  0
  2  6  2  0  0  0  0
  3  8  2  0  0  0  0
  3 17  1  0  0  0  0
  4  9  1  0  0  0  0
  4 17  2  0  0  0  0
  5 20  1  0  0  0  0
  6 22  1  0  0  0  0
  7 10  2  0  0  0  0
  7 21  1  0  0  0  0
  8 26  1  0  0  0  0
  9 26  2  0  0  0  0
 10 27  1  0  0  0  0
 11 12  2  0  0  0  0
 11 28  1  0  0  0  0
 12 29  1  0  0  0  0
 13 18  1  0  0  0  0
 13 24  2  0  0  0  0
 14 23  1  0  0  0  0
 14 27  2  0  0  0  0
 15 25  2  0  0  0  0
 15 30  1  0  0  0  0
 16 29  2  0  0  0  0
 16 31  1  0  0  0  0
 17 32  1  0  0  0  0
 18 30  2  0  0  0  0
 18 36  1  0  0  0  0
 19 32  1  0  0  0  0
 19 33  2  0  0  0  0
 19 37  1  0  0  0  0
 20 22  2  0  0  0  0
 20 42  1  0  0  0  0
 21 23  2  0  0  0  0
 21 43  1  0  0  0  0
 22 51  1  0  0  0  0
 23 44  1  0  0  0  0
 24 25  1  0  0  0  0
 24 54  1  0  0  0  0
 25 70  1  0  0  0  0
 26 80  1  0  0  0  0
 27 81  1  0  0  0  0
 28 31  2  0  0  0  0
 28 80  1  0  0  0  0
 29 82  1  0  0  0  0
 30 83  1  0  0  0  0
 31 84  1  0  0  0  0
 32 64  2  0  0  0  0
 33 65  1  0  0  0  0
 33 68  1  0  0  0  0
 34 35  2  0  0  0  0
 34 36  1  0  0  0  0
 35 60  1  0  0  0  0
 36 74  2  0  0  0  0
 37 69  1  0  0  0  0
 37 75  2  0  0  0  0
 38 52  1  0  0  0  0
 38 71  1  0  0  0  0
 38 76  2  0  0  0  0
 39 61  1  0  0  0  0
 39 66  1  0  0  0  0
 39 77  2  0  0  0  0
 40 62  1  0  0  0  0
 40 72  1  0  0  0  0
 40 78  2  0  0  0  0
 41 67  1  0  0  0  0
 41 70  1  0  0  0  0
 41 79  2  0  0  0  0
 42 45  1  0  0  0  0
 43 52  1  0  0  0  0
 44 66  1  0  0  0  0
 45 47  1  0  0  0  0
 46 48  1  0  0  0  0
 46 49  1  0  0  0  0
 47 51  1  0  0  0  0
 48 53  1  0  0  0  0
 49 67  1  0  0  0  0
 50 53  1  0  0  0  0
 50 67  1  0  0  0  0
 51 71  1  0  0  0  0
 52 66  1  0  0  0  0
 53 65  1  0  0  0  0
 55 62  1  0  0  0  0
 56 63  1  0  0  0  0
 57 63  1  0  0  0  0
 58 63  1  0  0  0  0
 59 73  1  0  0  0  0
 60 81  1  0  0  0  0
 61 63  1  0  0  0  0
 61 72  1  0  0  0  0
 62 73  1  0  0  0  0
 64 65  1  0  0  0  0
M  CHG  1  73   1
M  ISO  4  41 100  60 101  70 100  81 101
M  END
> <Batch ID>
0123

> <Smiles>
CNC(C)C(=O)NC(C(=O)N1Cc2cc([101O:1][101CH2:1]C=CC(=O)c3cc(C)c([100NH:0][100C:0](=O)N4CCCC(n5nc(-c6ccc(Oc7ccc(F)cc7F)cc6)c(C(N)=O)c5N)C4)cc3F)ccc2CC1C(=O)NC1CCCc2ccccc21)C(C)(C)C

> <Shape>
0.297

> <Color>
0.136

> <Negative vol penalty>
0.000

$$$$

  -OEChem-04052302033D

 85 93  0     1  0  0  0  0  0999 V2000
  -38.4791  -30.6749   26.7097 C   0  0  0  0  0  0  0  0  0  0  0  0
  -37.7376  -29.4983   26.7430 C   0  0  0  0  0  0  0  0  0  0  0  0
  -23.0316   -9.9468   19.9492 C   0  0  0  0  0  0  0  0  0  0  0  0
  -23.7753   -9.9455   22.2479 C   0  0  0  0  0  0  0  0  0  0  0  0
  -32.6951  -17.4323   23.5080 C   0  0  0  0  0  0  0  0  0  0  0  0
  -37.9752  -31.7968   26.0529 C   0  0  0  0  0  0  0  0  0  0  0  0
  -36.4910  -29.4433   26.1205 C   0  0  0  0  0  0  0  0  0  0  0  0
  -35.8585  -25.2133   23.4090 C   0  0  0  0  0  0  0  0  0  0  0  0
  -32.0846  -16.5626   22.6044 C   0  0  0  0  0  0  0  0  0  0  0  0
  -22.2717   -8.8031   20.1944 C   0  0  0  0  0  0  0  0  0  0  0  0
  -23.0154   -8.8018   22.4931 C   0  0  0  0  0  0  0  0  0  0  0  0
  -35.5519  -24.0477   24.1098 C   0  0  0  0  0  0  0  0  0  0  0  0
  -23.2690   -5.4762   21.9393 C   0  0  0  0  0  0  0  0  0  0  0  0
  -23.8666   -4.4437   22.6620 C   0  0  0  0  0  0  0  0  0  0  0  0
  -30.5330  -18.3303   24.1046 C   0  0  0  0  0  0  0  0  0  0  0  0
  -33.2249  -24.3221   23.5364 C   0  0  0  0  0  0  0  0  0  0  0  0
  -22.1555   -4.6392   24.3564 C   0  0  0  0  0  0  0  0  0  0  0  0
  -23.7834  -10.5180   20.9760 C   0  0  0  0  0  0  0  0  0  0  0  0
  -31.9193  -18.3161   24.2582 C   0  0  0  0  0  0  0  0  0  0  0  0
  -24.1574  -13.0386   20.8573 C   0  0  0  0  0  0  0  0  0  0  0  0
  -36.7261  -31.7526   25.4138 C   0  0  0  0  0  0  0  0  0  0  0  0
  -34.8473  -25.9493   22.7748 C   0  0  0  0  0  0  0  0  0  0  0  0
  -35.9692  -30.5661   25.4558 C   0  0  0  0  0  0  0  0  0  0  0  0
  -33.5216  -25.4954   22.8261 C   0  0  0  0  0  0  0  0  0  0  0  0
  -29.9225  -17.4607   23.2010 C   0  0  0  0  0  0  0  0  0  0  0  0
  -30.6982  -16.5768   22.4509 C   0  0  0  0  0  0  0  0  0  0  0  0
  -22.2636   -8.2306   21.4664 C   0  0  0  0  0  0  0  0  0  0  0  0
  -34.2346  -23.6035   24.1760 C   0  0  0  0  0  0  0  0  0  0  0  0
  -22.1146   -6.0903   22.4251 C   0  0  0  0  0  0  0  0  0  0  0  0
  -23.3099   -4.0252   23.8705 C   0  0  0  0  0  0  0  0  0  0  0  0
  -21.5579   -5.6718   23.6336 C   0  0  0  0  0  0  0  0  0  0  0  0
  -24.5690  -11.6991   20.7232 C   0  0  0  0  0  0  0  0  0  0  0  0
  -25.2613  -13.7743   20.5015 C   0  0  0  0  0  0  0  0  0  0  0  0
  -35.6349  -17.3713   27.4841 C   0  0  0  0  0  0  0  0  0  0  0  0
  -32.5642  -19.2334   25.2115 C   0  0  0  0  0  0  0  0  0  0  0  0
  -35.1772  -18.6079   27.7084 C   0  0  0  0  0  0  0  0  0  0  0  0
  -33.8586  -19.5887   25.1852 C   0  0  0  0  0  0  0  0  0  0  0  0
  -22.8905  -13.5704   21.2670 C   0  0  0  0  0  0  0  0  0  0  0  0
  -33.6851  -28.8918   23.0825 C   0  0  0  0  0  0  0  0  0  0  0  0
  -31.9606  -28.0653   20.4624 C   0  0  0  0  0  0  0  0  0  0  0  0
  -30.6037  -25.5849   18.5510 C   0  0  0  0  0  0  0  0  0  0  0  0
  -30.7387  -14.7521   20.7144 C   0  0  0  0  0  0  0  0  0  0  0  0
  -36.2019  -33.0050   24.7571 C   0  0  0  0  0  0  0  0  0  0  0  0
  -35.1981  -27.1901   22.0004 C   0  0  0  0  0  0  0  0  0  0  0  0
  -32.4021  -26.2382   22.1452 C   0  0  0  0  0  0  0  0  0  0  0  0
  -35.0389  -32.7508   23.8017 C   0  0  0  0  0  0  0  0  0  0  0  0
  -29.6112  -12.3511   18.3393 C   0  0  0  0  0  0  0  0  0  0  0  0
  -34.0104  -31.8271   24.4465 C   0  0  0  0  0  0  0  0  0  0  0  0
  -28.1650  -12.0776   18.7588 C   0  0  0  0  0  0  0  0  0  0  0  0
  -30.5205  -12.5692   19.5473 C   0  0  0  0  0  0  0  0  0  0  0  0
  -28.6130  -13.3179   20.9148 C   0  0  0  0  0  0  0  0  0  0  0  0
  -34.6239  -30.4596   24.7711 C   0  0  1  0  0  0  0  0  0  0  0  0
  -34.0166  -28.1391   21.8250 C   0  0  1  0  0  0  0  0  0  0  0  0
  -27.6465  -13.1562   19.7302 C   0  0  2  0  0  0  0  0  0  0  0  0
  -28.4355  -17.4973   23.0568 C   0  0  0  0  0  0  0  0  0  0  0  0
  -29.2166  -25.2201   16.4918 C   0  0  0  0  0  0  0  0  0  0  0  0
  -29.4584  -28.8812   22.0062 C   0  0  0  0  0  0  0  0  0  0  0  0
  -28.0944  -27.6330   20.3181 C   0  0  0  0  0  0  0  0  0  0  0  0
  -29.4781  -29.5826   19.6057 C   0  0  0  0  0  0  0  0  0  0  0  0
  -32.7727  -24.0773   17.2162 C   0  0  0  0  0  0  0  0  0  0  0  0
  -35.6348  -19.8241   26.9525 C   0  0  0  0  0  0  0  0  0  0  0  0
  -35.0146  -21.7781   25.4858 C   0  0  0  0  0  0  0  0  0  1  0  0
  -34.4868  -20.5249   26.1983 C   0  0  1  0  0  0  0  0  0  0  0  0
  -30.6193  -27.4137   20.2272 C   0  0  1  0  0  0  0  0  0  0  0  0
  -30.6249  -25.3419   17.0527 C   0  0  2  0  0  0  0  0  0  0  0  0
  -29.4332  -28.3645   20.5539 C   0  0  0  0  0  0  0  0  0  0  0  0
  -25.8355  -11.5874   20.3139 N   0  0  0  0  0  0  0  0  0  0  0  0
  -26.2292  -12.8661   20.1877 N   0  0  0  0  0  0  0  0  0  0  0  0
  -32.7949  -27.4492   21.4058 N   0  0  0  0  0  0  0  0  0  0  0  0
  -29.9682  -13.6073   20.4203 N   0  0  0  0  0  0  0  0  0  0  0  0
  -25.4887  -15.1030   20.4294 N   0  0  0  0  0  0  0  0  0  0  0  0
  -21.8650  -12.6740   21.5975 N   0  0  0  0  0  0  0  0  0  0  0  0
  -30.0971  -15.6856   21.5278 N   0  0  0  0  0  0  0  0  0  0  0  0
  -34.7276  -29.6549   23.5727 N   0  0  0  0  0  0  0  0  0  0  0  0
  -30.6360  -26.9304   18.8508 N   0  0  0  0  0  0  0  0  0  0  0  0
  -31.3648  -24.0861   16.7420 N   0  3  0  0  0  0  0  0  0  0  0  0
  -22.6691  -14.8039   21.3222 O   0  0  0  0  0  0  0  0  0  0  0  0
  -32.5660  -28.7891   23.5710 O   0  0  0  0  0  0  0  0  0  0  0  0
  -32.2600  -29.0794   19.8270 O   0  0  0  0  0  0  0  0  0  0  0  0
  -30.5589  -24.6725   19.3732 O   0  0  0  0  0  0  0  0  0  0  0  0
  -31.8731  -14.9066   20.2547 O   0  0  0  0  0  0  0  0  0  0  0  0
  -21.5220   -7.1147   21.7060 O   0  0  0  0  0  0  0  0  0  0  0  0
  -33.9325  -22.4664   24.8599 O   0  0  0  0  0  0  0  0  0  1  0  0
  -23.8830   -3.0326   24.5637 F   0  0  0  0  0  0  0  0  0  0  0  0
  -20.4483   -6.2572   24.1049 F   0  0  0  0  0  0  0  0  0  0  0  0
  1  2  1  0  0  0  0
  1  6  2  0  0  0  0
  2  7  2  0  0  0  0
  3 10  2  0  0  0  0
  3 18  1  0  0  0  0
  4 11  1  0  0  0  0
  4 18  2  0  0  0  0
  5  9  2  0  0  0  0
  5 19  1  0  0  0  0
  6 21  1  0  0  0  0
  7 23  1  0  0  0  0
  8 12  2  0  0  0  0
  8 22  1  0  0  0  0
  9 26  1  0  0  0  0
 10 27  1  0  0  0  0
 11 27  2  0  0  0  0
 12 28  1  0  0  0  0
 13 14  2  0  0  0  0
 13 29  1  0  0  0  0
 14 30  1  0  0  0  0
 15 19  2  0  0  0  0
 15 25  1  0  0  0  0
 16 24  1  0  0  0  0
 16 28  2  0  0  0  0
 17 30  2  0  0  0  0
 17 31  1  0  0  0  0
 18 32  1  0  0  0  0
 19 35  1  0  0  0  0
 20 32  1  0  0  0  0
 20 33  2  0  0  0  0
 20 38  1  0  0  0  0
 21 23  2  0  0  0  0
 21 43  1  0  0  0  0
 22 24  2  0  0  0  0
 22 44  1  0  0  0  0
 23 52  1  0  0  0  0
 24 45  1  0  0  0  0
 25 26  2  0  0  0  0
 25 55  1  0  0  0  0
 26 73  1  0  0  0  0
 27 82  1  0  0  0  0
 28 83  1  0  0  0  0
 29 31  2  0  0  0  0
 29 82  1  0  0  0  0
 30 84  1  0  0  0  0
 31 85  1  0  0  0  0
 32 67  2  0  0  0  0
 33 68  1  0  0  0  0
 33 71  1  0  0  0  0
 34 36  2  0  0  0  0
 35 37  2  0  0  0  0
 36 61  1  0  0  0  0
 37 63  1  0  0  0  0
 38 72  1  0  0  0  0
 38 77  2  0  0  0  0
 39 53  1  0  0  0  0
 39 74  1  0  0  0  0
 39 78  2  0  0  0  0
 40 64  1  0  0  0  0
 40 69  1  0  0  0  0
 40 79  2  0  0  0  0
 41 65  1  0  0  0  0
 41 75  1  0  0  0  0
 41 80  2  0  0  0  0
 42 70  1  0  0  0  0
 42 73  1  0  0  0  0
 42 81  2  0  0  0  0
 43 46  1  0  0  0  0
 44 53  1  0  0  0  0
 45 69  1  0  0  0  0
 46 48  1  0  0  0  0
 47 49  1  0  0  0  0
 47 50  1  0  0  0  0
 48 52  1  0  0  0  0
 49 54  1  0  0  0  0
 50 70  1  0  0  0  0
 51 54  1  0  0  0  0
 51 70  1  0  0  0  0
 52 74  1  0  0  0  0
 53 69  1  0  0  0  0
 54 68  1  0  0  0  0
 56 65  1  0  0  0  0
 57 66  1  0  0  0  0
 58 66  1  0  0  0  0
 59 66  1  0  0  0  0
 60 76  1  0  0  0  0
 61 63  1  0  0  0  0
 62 63  1  0  0  0  0
 62 83  1  0  0  0  0
 64 66  1  0  0  0  0
 64 75  1  0  0  0  0
 65 76  1  0  0  0  0
 67 68  1  0  0  0  0
M  CHG  1  76   1
M  ISO  4  42 100  62 101  73 100  83 101
M  END
> <Batch ID>
0123

> <Smiles>
C=CCC(C=Cc1ccc([100NH:0][100C:0](=O)N2CCCC(n3nc(-c4ccc(Oc5ccc(F)cc5F)cc4)c(C(N)=O)c3N)C2)c(C)c1)[101CH2:1][101O:1]c1ccc2c(c1)CN(C(=O)C(NC(=O)C(C)NC)C(C)(C)C)C(C(=O)NC1CCCc3ccccc31)C2

> <Shape>
0.231

> <Color>
0.213

> <Negative vol penalty>
0.000

$$$$

  -OEChem-04052302033D

 84 92  0     1  0  0  0  0  0999 V2000
  -24.4228  -18.7390   28.5982 C   0  0  0  0  0  0  0  0  0  0  0  0
  -24.7748  -19.7092   27.6654 C   0  0  0  0  0  0  0  0  0  0  0  0
  -20.3054  -26.7179   22.5335 C   0  0  0  0  0  0  0  0  0  0  0  0
  -20.1231  -29.1242   22.4176 C   0  0  0  0  0  0  0  0  0  0  0  0
  -31.3331  -30.2461   20.0438 C   0  0  0  0  0  0  0  0  0  0  0  0
  -25.1415  -17.5462   28.6667 C   0  0  0  0  0  0  0  0  0  0  0  0
  -25.8465  -19.4877   26.8012 C   0  0  0  0  0  0  0  0  0  0  0  0
  -26.3440  -21.3710   20.9950 C   0  0  0  0  0  0  0  0  0  0  0  0
  -31.2387  -31.5664   20.4835 C   0  0  0  0  0  0  0  0  0  0  0  0
  -18.9312  -26.6244   22.7535 C   0  0  0  0  0  0  0  0  0  0  0  0
  -18.7488  -29.0307   22.6376 C   0  0  0  0  0  0  0  0  0  0  0  0
  -26.9944  -22.4589   20.4143 C   0  0  0  0  0  0  0  0  0  0  0  0
  -15.4153  -25.7304   22.9862 C   0  0  0  0  0  0  0  0  0  0  0  0
  -14.7081  -24.7645   22.2703 C   0  0  0  0  0  0  0  0  0  0  0  0
  -29.4820  -29.6379   21.4723 C   0  0  0  0  0  0  0  0  0  0  0  0
  -28.8964  -21.0560   19.9311 C   0  0  0  0  0  0  0  0  0  0  0  0
  -15.3899  -25.8018   20.1975 C   0  0  0  0  0  0  0  0  0  0  0  0
  -20.9013  -27.9679   22.3656 C   0  0  0  0  0  0  0  0  0  0  0  0
  -30.4546  -29.2818   20.5381 C   0  0  0  0  0  0  0  0  0  0  0  0
  -29.3876  -30.9583   21.9121 C   0  0  0  0  0  0  0  0  0  0  0  0
  -22.9862  -28.0560   20.8982 C   0  0  0  0  0  0  0  0  0  0  0  0
  -26.2165  -17.3059   27.7964 C   0  0  0  0  0  0  0  0  0  0  0  0
  -26.9703  -20.1180   21.0581 C   0  0  0  0  0  0  0  0  0  0  0  0
  -26.5811  -18.2911   26.8590 C   0  0  0  0  0  0  0  0  0  0  0  0
  -28.2508  -19.9532   20.5109 C   0  0  0  0  0  0  0  0  0  0  0  0
  -30.2661  -31.9225   21.4177 C   0  0  0  0  0  0  0  0  0  0  0  0
  -18.1529  -27.7808   22.8055 C   0  0  0  0  0  0  0  0  0  0  0  0
  -28.2720  -22.3022   19.8848 C   0  0  0  0  0  0  0  0  0  0  0  0
  -16.1097  -26.7321   22.3078 C   0  0  0  0  0  0  0  0  0  0  0  0
  -14.6955  -24.8002   20.8759 C   0  0  0  0  0  0  0  0  0  0  0  0
  -16.0970  -26.7677   20.9134 C   0  0  0  0  0  0  0  0  0  0  0  0
  -22.3209  -28.0652   22.1388 C   0  0  0  0  0  0  0  0  0  0  0  0
  -24.3161  -28.1731   21.2209 C   0  0  0  0  0  0  0  0  0  0  0  0
  -30.5559  -27.8873   20.0727 C   0  0  0  0  0  0  0  0  0  0  0  0
  -29.5728  -26.9810   20.1646 C   0  0  0  0  0  0  0  0  0  0  0  0
  -28.3629  -31.3035   22.8883 C   0  0  0  0  0  0  0  0  0  0  0  0
  -22.4500  -27.9511   19.5726 C   0  0  0  0  0  0  0  0  0  0  0  0
  -29.7802  -25.5885   19.6710 C   0  0  0  0  0  0  0  0  0  0  0  0
  -28.3255  -30.6635   24.2233 C   0  0  0  0  0  0  0  0  0  0  0  0
  -27.8991  -18.1902   23.4086 C   0  0  0  0  0  0  0  0  0  0  0  0
  -28.5667  -16.1683   20.9614 C   0  0  0  0  0  0  0  0  0  0  0  0
  -29.3096  -15.7677   17.6547 C   0  0  0  0  0  0  0  0  0  0  0  0
  -26.9934  -16.0212   27.9398 C   0  0  0  0  0  0  0  0  0  0  0  0
  -26.2445  -18.9481   21.6639 C   0  0  0  0  0  0  0  0  0  0  0  0
  -28.9585  -18.6240   20.5352 C   0  0  0  0  0  0  0  0  0  0  0  0
  -27.8795  -15.7078   26.7370 C   0  0  0  0  0  0  0  0  0  0  0  0
  -26.6792  -27.8258   25.6703 C   0  0  0  0  0  0  0  0  0  0  0  0
  -28.6644  -16.9458   26.3151 C   0  0  0  0  0  0  0  0  0  0  0  0
  -25.4329  -27.6596   24.8013 C   0  0  0  0  0  0  0  0  0  0  0  0
  -27.0560  -29.2950   25.8309 C   0  0  0  0  0  0  0  0  0  0  0  0
  -25.9968  -29.8510   23.6588 C   0  0  0  0  0  0  0  0  0  0  0  0
  -27.7218  -18.0774   25.8878 C   0  0  1  0  0  0  0  0  0  0  0  0
  -27.1831  -17.8413   22.1345 C   0  0  1  0  0  0  0  0  0  0  0  0
  -25.6015  -28.3786   23.4510 C   0  0  2  0  0  0  0  0  0  0  0  0
  -30.1875  -33.3435   21.8728 C   0  0  0  0  0  0  0  0  0  0  0  0
  -29.8385  -13.9991   15.9548 C   0  0  0  0  0  0  0  0  0  0  0  0
  -31.3853  -15.9176   22.1027 C   0  0  0  0  0  0  0  0  0  0  0  0
  -32.1112  -14.9481   19.9115 C   0  0  0  0  0  0  0  0  0  0  0  0
  -30.3953  -13.7707   21.2871 C   0  0  0  0  0  0  0  0  0  0  0  0
  -26.9379  -16.4603   16.0256 C   0  0  0  0  0  0  0  0  0  0  0  0
  -28.5968  -24.6574   19.8295 C   0  0  0  0  0  0  0  0  0  1  0  0
  -29.7703  -15.9072   20.0884 C   0  0  1  0  0  0  0  0  0  0  0  0
  -28.7433  -14.8330   16.6011 C   0  0  2  0  0  0  0  0  0  0  0  0
  -30.9033  -15.1616   20.8485 C   0  0  0  0  0  0  0  0  0  0  0  0
  -23.1590  -28.1790   23.1726 N   0  0  0  0  0  0  0  0  0  0  0  0
  -27.4273  -32.1834   22.6608 N   0  0  0  0  0  0  0  0  0  0  0  0
  -24.3647  -28.2423   22.5822 N   0  0  0  0  0  0  0  0  0  0  0  0
  -27.1723  -29.9558   24.5324 N   0  0  0  0  0  0  0  0  0  0  0  0
  -28.2100  -17.5119   21.1440 N   0  0  0  0  0  0  0  0  0  0  0  0
  -25.4370  -28.2226   20.4703 N   0  0  0  0  0  0  0  0  0  0  0  0
  -21.0614  -27.8378   19.4207 N   0  0  0  0  0  0  0  0  0  0  0  0
  -27.2134  -17.8354   24.5546 N   0  0  0  0  0  0  0  0  0  0  0  0
  -29.2754  -15.2013   18.9114 N   0  0  0  0  0  0  0  0  0  0  0  0
  -28.0542  -15.6122   15.5339 N   0  3  0  0  0  0  0  0  0  0  0  0
  -23.1820  -27.9411   18.5540 O   0  0  0  0  0  0  0  0  0  0  0  0
  -30.8409  -25.2252   19.1698 O   0  0  0  0  0  0  0  0  0  0  0  0
  -29.3215  -30.8287   24.9154 O   0  0  0  0  0  0  0  0  0  0  0  0
  -28.9934  -18.7393   23.3557 O   0  0  0  0  0  0  0  0  0  0  0  0
  -27.9609  -15.2149   21.4571 O   0  0  0  0  0  0  0  0  0  0  0  0
  -29.7428  -16.8867   17.3889 O   0  0  0  0  0  0  0  0  0  0  0  0
  -16.8119  -27.6898   23.0200 O   0  0  0  0  0  0  0  0  0  0  0  0
  -28.9093  -23.3625   19.3179 O   0  0  0  0  0  0  0  0  0  1  0  0
  -14.0176  -23.8716   20.1885 F   0  0  0  0  0  0  0  0  0  0  0  0
  -16.7632  -27.7268   20.2561 F   0  0  0  0  0  0  0  0  0  0  0  0
  1  2  1  0  0  0  0
  1  6  2  0  0  0  0
  2  7  2  0  0  0  0
  3 10  2  0  0  0  0
  3 18  1  0  0  0  0
  4 11  1  0  0  0  0
  4 18  2  0  0  0  0
  5  9  2  0  0  0  0
  5 19  1  0  0  0  0
  6 22  1  0  0  0  0
  7 24  1  0  0  0  0
  8 12  2  0  0  0  0
  8 23  1  0  0  0  0
  9 26  1  0  0  0  0
 10 27  1  0  0  0  0
 11 27  2  0  0  0  0
 12 28  1  0  0  0  0
 13 14  2  0  0  0  0
 13 29  1  0  0  0  0
 14 30  1  0  0  0  0
 15 19  2  0  0  0  0
 15 20  1  0  0  0  0
 16 25  1  0  0  0  0
 16 28  2  0  0  0  0
 17 30  2  0  0  0  0
 17 31  1  0  0  0  0
 18 32  1  0  0  0  0
 19 34  1  0  0  0  0
 20 26  2  0  0  0  0
 20 36  1  0  0  0  0
 21 32  1  0  0  0  0
 21 33  2  0  0  0  0
 21 37  1  0  0  0  0
 22 24  2  0  0  0  0
 22 43  1  0  0  0  0
 23 25  2  0  0  0  0
 23 44  1  0  0  0  0
 24 52  1  0  0  0  0
 25 45  1  0  0  0  0
 26 55  1  0  0  0  0
 27 81  1  0  0  0  0
 28 82  1  0  0  0  0
 29 31  2  0  0  0  0
 29 81  1  0  0  0  0
 30 83  1  0  0  0  0
 31 84  1  0  0  0  0
 32 65  2  0  0  0  0
 33 67  1  0  0  0  0
 33 70  1  0  0  0  0
 34 35  2  0  0  0  0
 35 38  1  0  0  0  0
 36 39  1  0  0  0  0
 36 66  2  0  0  0  0
 37 71  1  0  0  0  0
 37 75  2  0  0  0  0
 38 61  1  0  0  0  0
 38 76  2  0  0  0  0
 39 68  1  0  0  0  0
 39 77  2  0  0  0  0
 40 53  1  0  0  0  0
 40 72  1  0  0  0  0
 40 78  2  0  0  0  0
 41 62  1  0  0  0  0
 41 69  1  0  0  0  0
 41 79  2  0  0  0  0
 42 63  1  0  0  0  0
 42 73  1  0  0  0  0
 42 80  2  0  0  0  0
 43 46  1  0  0  0  0
 44 53  1  0  0  0  0
 45 69  1  0  0  0  0
 46 48  1  0  0  0  0
 47 49  1  0  0  0  0
 47 50  1  0  0  0  0
 48 52  1  0  0  0  0
 49 54  1  0  0  0  0
 50 68  1  0  0  0  0
 51 54  1  0  0  0  0
 51 68  1  0  0  0  0
 52 72  1  0  0  0  0
 53 69  1  0  0  0  0
 54 67  1  0  0  0  0
 56 63  1  0  0  0  0
 57 64  1  0  0  0  0
 58 64  1  0  0  0  0
 59 64  1  0  0  0  0
 60 74  1  0  0  0  0
 61 82  1  0  0  0  0
 62 64  1  0  0  0  0
 62 73  1  0  0  0  0
 63 74  1  0  0  0  0
 65 67  1  0  0  0  0
M  CHG  1  74   1
M  ISO  4  36 100  39 100  61 101  82 101
M  END
> <Batch ID>
0123

> <Smiles>
CNC(C)C(=O)NC(C(=O)N1Cc2cc([101O:1][101CH2:1]C(=O)C=Cc3ccc(C)c([100C:0](=N)[100C:0](=O)N4CCCC(n5nc(-c6ccc(Oc7ccc(F)cc7F)cc6)c(C(N)=O)c5N)C4)c3)ccc2CC1C(=O)NC1CCCc2ccccc21)C(C)(C)C

> <Shape>
0.202

> <Color>
0.059

> <Negative vol penalty>
0.000

$$$$

  -OEChem-04052302033D

 84 92  0     1  0  0  0  0  0999 V2000
  -27.4256  -33.7309   26.4648 C   0  0  0  0  0  0  0  0  0  0  0  0
  -27.7091  -32.5644   25.7617 C   0  0  0  0  0  0  0  0  0  0  0  0
  -26.2711  -11.7378   21.3211 C   0  0  0  0  0  0  0  0  0  0  0  0
  -25.6064  -12.3575   19.0826 C   0  0  0  0  0  0  0  0  0  0  0  0
  -26.1047  -34.0549   26.7716 C   0  0  0  0  0  0  0  0  0  0  0  0
  -26.6719  -31.7206   25.3659 C   0  0  0  0  0  0  0  0  0  0  0  0
  -27.1752  -30.1346   20.5830 C   0  0  0  0  0  0  0  0  0  0  0  0
  -24.9879  -11.2494   21.5670 C   0  0  0  0  0  0  0  0  0  0  0  0
  -24.3232  -11.8691   19.3284 C   0  0  0  0  0  0  0  0  0  0  0  0
  -28.0900  -29.1098   20.3450 C   0  0  0  0  0  0  0  0  0  0  0  0
  -23.1991   -8.4722   20.8459 C   0  0  0  0  0  0  0  0  0  0  0  0
  -23.0868   -7.2335   21.4772 C   0  0  0  0  0  0  0  0  0  0  0  0
  -27.8386  -21.4169   14.9157 C   0  0  0  0  0  0  0  0  0  0  0  0
  -28.9705  -20.9680   17.0024 C   0  0  0  0  0  0  0  0  0  0  0  0
  -26.2808  -27.5150   20.2933 C   0  0  0  0  0  0  0  0  0  0  0  0
  -28.3598  -19.1425   15.5424 C   0  0  0  0  0  0  0  0  0  0  0  0
  -21.8767   -8.2691   23.2939 C   0  0  0  0  0  0  0  0  0  0  0  0
  -26.5804  -12.2919   20.0789 C   0  0  0  0  0  0  0  0  0  0  0  0
  -28.4194  -21.8758   16.0979 C   0  0  0  0  0  0  0  0  0  0  0  0
  -29.0012  -12.0843   19.3016 C   0  0  0  0  0  0  0  0  0  0  0  0
  -25.0500  -33.2196   26.3710 C   0  0  0  0  0  0  0  0  0  0  0  0
  -25.8051  -29.8553   20.6890 C   0  0  0  0  0  0  0  0  0  0  0  0
  -25.3357  -32.0331   25.6689 C   0  0  0  0  0  0  0  0  0  0  0  0
  -25.3504  -28.5384   20.5302 C   0  0  0  0  0  0  0  0  0  0  0  0
  -27.8087  -20.0502   14.6380 C   0  0  0  0  0  0  0  0  0  0  0  0
  -28.9407  -19.6014   16.7246 C   0  0  0  0  0  0  0  0  0  0  0  0
  -24.0139  -11.3150   20.5707 C   0  0  0  0  0  0  0  0  0  0  0  0
  -27.6432  -27.7994   20.2030 C   0  0  0  0  0  0  0  0  0  0  0  0
  -22.6502   -9.6094   21.4386 C   0  0  0  0  0  0  0  0  0  0  0  0
  -22.4256   -7.1319   22.7012 C   0  0  0  0  0  0  0  0  0  0  0  0
  -21.9890   -9.5078   22.6626 C   0  0  0  0  0  0  0  0  0  0  0  0
  -27.9056  -12.7971   19.8245 C   0  0  0  0  0  0  0  0  0  0  0  0
  -30.0188  -13.0056   19.2536 C   0  0  0  0  0  0  0  0  0  0  0  0
  -28.4508  -23.3194   16.3921 C   0  0  0  0  0  0  0  0  0  0  0  0
  -29.2861  -23.9005   17.2646 C   0  0  0  0  0  0  0  0  0  0  0  0
  -29.0910  -10.7122   18.8956 C   0  0  0  0  0  0  0  0  0  0  0  0
  -29.2310  -25.3744   17.4989 C   0  0  0  0  0  0  0  0  0  0  0  0
  -23.6235  -30.1645   22.9801 C   0  0  0  0  0  0  0  0  0  0  0  0
  -21.5903  -29.2309   20.6313 C   0  0  0  0  0  0  0  0  0  0  0  0
  -21.1403  -27.5971   17.6690 C   0  0  0  0  0  0  0  0  0  0  0  0
  -30.1128  -18.9674   18.8625 C   0  0  0  0  0  0  0  0  0  0  0  0
  -23.6420  -33.5876   26.7669 C   0  0  0  0  0  0  0  0  0  0  0  0
  -24.8284  -30.9758   20.9195 C   0  0  0  0  0  0  0  0  0  0  0  0
  -23.8879  -28.1887   20.6152 C   0  0  0  0  0  0  0  0  0  0  0  0
  -22.5718  -32.8301   25.9851 C   0  0  0  0  0  0  0  0  0  0  0  0
  -31.5793  -16.9781   21.4256 C   0  0  0  0  0  0  0  0  0  0  0  0
  -22.9061  -31.3430   25.9260 C   0  0  0  0  0  0  0  0  0  0  0  0
  -30.9078  -15.6136   21.2544 C   0  0  0  0  0  0  0  0  0  0  0  0
  -30.6104  -18.1260   21.1471 C   0  0  0  0  0  0  0  0  0  0  0  0
  -29.2459  -16.6891   19.6833 C   0  0  0  0  0  0  0  0  0  0  0  0
  -24.2360  -31.1049   25.2007 C   0  0  1  0  0  0  0  0  0  0  0  0
  -23.5083  -30.5035   21.5208 C   0  0  1  0  0  0  0  0  0  0  0  0
  -30.1997  -15.5012   19.8900 C   0  0  2  0  0  0  0  0  0  0  0  0
  -27.1871  -19.5590   13.3744 C   0  0  0  0  0  0  0  0  0  0  0  0
  -19.3593  -26.9695   16.0163 C   0  0  0  0  0  0  0  0  0  0  0  0
  -20.6122  -27.0430   22.5198 C   0  0  0  0  0  0  0  0  0  0  0  0
  -19.5746  -25.9015   20.5478 C   0  0  0  0  0  0  0  0  0  0  0  0
  -18.8062  -28.1790   21.2151 C   0  0  0  0  0  0  0  0  0  0  0  0
  -22.4543  -29.1210   15.4988 C   0  0  0  0  0  0  0  0  0  0  0  0
  -30.2309  -25.9099   18.5124 C   0  0  0  0  0  0  0  0  0  0  0  0
  -29.7214  -27.1361   19.2559 C   0  0  0  0  0  0  0  0  0  1  0  0
  -21.0731  -27.9042   20.1298 C   0  0  1  0  0  0  0  0  0  0  0  0
  -20.4128  -27.9975   16.3982 C   0  0  2  0  0  0  0  0  0  0  0  0
  -20.0444  -27.2629   21.1034 C   0  0  0  0  0  0  0  0  0  0  0  0
  -28.1995  -14.0727   20.0898 N   0  0  0  0  0  0  0  0  0  0  0  0
  -29.4914  -14.1687   19.7323 N   0  0  0  0  0  0  0  0  0  0  0  0
  -22.9727  -29.3182   20.8481 N   0  0  0  0  0  0  0  0  0  0  0  0
  -29.9807  -17.9547   19.8360 N   0  0  0  0  0  0  0  0  0  0  0  0
  -31.3042  -12.9260   18.8491 N   0  0  0  0  0  0  0  0  0  0  0  0
  -27.9511   -9.9051   19.0115 N   0  0  0  0  0  0  0  0  0  0  0  0
  -29.4995  -18.6791   17.6438 N   0  0  0  0  0  0  0  0  0  0  0  0
  -24.0572  -31.2131   23.7687 N   0  0  0  0  0  0  0  0  0  0  0  0
  -20.5542  -28.1490   18.7885 N   0  0  0  0  0  0  0  0  0  0  0  0
  -21.3761  -28.1253   15.2683 N   0  3  0  0  0  0  0  0  0  0  0  0
  -30.1553  -10.2122   18.4588 O   0  0  0  0  0  0  0  0  0  0  0  0
  -28.4303  -26.0931   16.9070 O   0  0  0  0  0  0  0  0  0  0  0  0
  -23.3385  -29.0357   23.3624 O   0  0  0  0  0  0  0  0  0  0  0  0
  -20.7978  -30.1578   20.8168 O   0  0  0  0  0  0  0  0  0  0  0  0
  -22.1273  -26.8647   17.6690 O   0  0  0  0  0  0  0  0  0  0  0  0
  -30.7480  -20.0015   19.0840 O   0  0  0  0  0  0  0  0  0  0  0  0
  -22.7617  -10.8384   20.8102 O   0  0  0  0  0  0  0  0  0  0  0  0
  -28.5340  -26.7971   19.9712 O   0  0  0  0  0  0  0  0  0  1  0  0
  -22.3166   -5.9421   23.3066 F   0  0  0  0  0  0  0  0  0  0  0  0
  -21.4586  -10.5966   23.2363 F   0  0  0  0  0  0  0  0  0  0  0  0
  1  2  1  0  0  0  0
  1  5  2  0  0  0  0
  2  6  2  0  0  0  0
  3  8  2  0  0  0  0
  3 18  1  0  0  0  0
  4  9  1  0  0  0  0
  4 18  2  0  0  0  0
  5 21  1  0  0  0  0
  6 23  1  0  0  0  0
  7 10  2  0  0  0  0
  7 22  1  0  0  0  0
  8 27  1  0  0  0  0
  9 27  2  0  0  0  0
 10 28  1  0  0  0  0
 11 12  2  0  0  0  0
 11 29  1  0  0  0  0
 12 30  1  0  0  0  0
 13 19  1  0  0  0  0
 13 25  2  0  0  0  0
 14 19  2  0  0  0  0
 14 26  1  0  0  0  0
 15 24  1  0  0  0  0
 15 28  2  0  0  0  0
 16 25  1  0  0  0  0
 16 26  2  0  0  0  0
 17 30  2  0  0  0  0
 17 31  1  0  0  0  0
 18 32  1  0  0  0  0
 19 34  1  0  0  0  0
 20 32  1  0  0  0  0
 20 33  2  0  0  0  0
 20 36  1  0  0  0  0
 21 23  2  0  0  0  0
 21 42  1  0  0  0  0
 22 24  2  0  0  0  0
 22 43  1  0  0  0  0
 23 51  1  0  0  0  0
 24 44  1  0  0  0  0
 25 54  1  0  0  0  0
 26 71  1  0  0  0  0
 27 81  1  0  0  0  0
 28 82  1  0  0  0  0
 29 31  2  0  0  0  0
 29 81  1  0  0  0  0
 30 83  1  0  0  0  0
 31 84  1  0  0  0  0
 32 65  2  0  0  0  0
 33 66  1  0  0  0  0
 33 69  1  0  0  0  0
 34 35  2  0  0  0  0
 35 37  1  0  0  0  0
 36 70  1  0  0  0  0
 36 75  2  0  0  0  0
 37 60  1  0  0  0  0
 37 76  2  0  0  0  0
 38 52  1  0  0  0  0
 38 72  1  0  0  0  0
 38 77  2  0  0  0  0
 39 62  1  0  0  0  0
 39 67  1  0  0  0  0
 39 78  2  0  0  0  0
 40 63  1  0  0  0  0
 40 73  1  0  0  0  0
 40 79  2  0  0  0  0
 41 68  1  0  0  0  0
 41 71  1  0  0  0  0
 41 80  2  0  0  0  0
 42 45  1  0  0  0  0
 43 52  1  0  0  0  0
 44 67  1  0  0  0  0
 45 47  1  0  0  0  0
 46 48  1  0  0  0  0
 46 49  1  0  0  0  0
 47 51  1  0  0  0  0
 48 53  1  0  0  0  0
 49 68  1  0  0  0  0
 50 53  1  0  0  0  0
 50 68  1  0  0  0  0
 51 72  1  0  0  0  0
 52 67  1  0  0  0  0
 53 66  1  0  0  0  0
 55 63  1  0  0  0  0
 56 64  1  0  0  0  0
 57 64  1  0  0  0  0
 58 64  1  0  0  0  0
 59 74  1  0  0  0  0
 60 61  1  0  0  0  0
 61 82  1  0  0  0  0
 62 64  1  0  0  0  0
 62 73  1  0  0  0  0
 63 74  1  0  0  0  0
 65 66  1  0  0  0  0
M  CHG  1  74   1
M  ISO  4  41 100  61 101  71 100  82 101
M  END
> <Batch ID>
0123

> <Smiles>
CNC(C)C(=O)NC(C(=O)N1Cc2cc([101O:1][101CH2:1]CC(=O)C=Cc3cc(C)cc([100NH:0][100C:0](=O)N4CCCC(n5nc(-c6ccc(Oc7ccc(F)cc7F)cc6)c(C(N)=O)c5N)C4)c3)ccc2CC1C(=O)NC1CCCc2ccccc21)C(C)(C)C

> <Shape>
0.329

> <Color>
0.088

> <Negative vol penalty>
0.000

$$$$

  -OEChem-04052302033D

 84 92  0     1  0  0  0  0  0999 V2000
  -17.4585  -29.8794   24.2802 C   0  0  0  0  0  0  0  0  0  0  0  0
  -18.8447  -29.7658   24.3110 C   0  0  0  0  0  0  0  0  0  0  0  0
  -24.4558  -14.1878   20.8667 C   0  0  0  0  0  0  0  0  0  0  0  0
  -26.7883  -13.6830   20.4900 C   0  0  0  0  0  0  0  0  0  0  0  0
  -29.1844  -25.7835   22.5799 C   0  0  0  0  0  0  0  0  0  0  0  0
  -29.2881  -24.0668   24.2768 C   0  0  0  0  0  0  0  0  0  0  0  0
  -16.7158  -29.0993   23.3949 C   0  0  0  0  0  0  0  0  0  0  0  0
  -19.4890  -28.8712   23.4572 C   0  0  0  0  0  0  0  0  0  0  0  0
  -23.5676  -30.8954   21.2409 C   0  0  0  0  0  0  0  0  0  0  0  0
  -29.7968  -24.9214   21.6703 C   0  0  0  0  0  0  0  0  0  0  0  0
  -29.9004  -23.2047   23.3672 C   0  0  0  0  0  0  0  0  0  0  0  0
  -24.1159  -12.8825   20.5117 C   0  0  0  0  0  0  0  0  0  0  0  0
  -26.4484  -12.3776   20.1350 C   0  0  0  0  0  0  0  0  0  0  0  0
  -24.7284  -30.9886   22.0074 C   0  0  0  0  0  0  0  0  0  0  0  0
  -22.6679   -9.5798   20.0525 C   0  0  0  0  0  0  0  0  0  0  0  0
  -21.7467   -8.9082   20.8561 C   0  0  0  0  0  0  0  0  0  0  0  0
  -25.5879  -29.0055   20.9361 C   0  0  0  0  0  0  0  0  0  0  0  0
  -23.2248   -9.1492   22.7519 C   0  0  0  0  0  0  0  0  0  0  0  0
  -25.7920  -14.5882   20.8558 C   0  0  0  0  0  0  0  0  0  0  0  0
  -28.9301  -25.3562   23.8832 C   0  0  0  0  0  0  0  0  0  0  0  0
  -26.4551  -16.4143   22.5090 C   0  0  0  0  0  0  0  0  0  0  0  0
  -17.3520  -28.2017   22.5231 C   0  0  0  0  0  0  0  0  0  0  0  0
  -23.4033  -29.8486   20.3225 C   0  0  0  0  0  0  0  0  0  0  0  0
  -18.7540  -28.0774   22.5604 C   0  0  0  0  0  0  0  0  0  0  0  0
  -24.4252  -28.9027   20.1572 C   0  0  0  0  0  0  0  0  0  0  0  0
  -30.1547  -23.6320   22.0639 C   0  0  0  0  0  0  0  0  0  0  0  0
  -25.1122  -11.9773   20.1459 C   0  0  0  0  0  0  0  0  0  0  0  0
  -25.7376  -30.0420   21.8572 C   0  0  0  0  0  0  0  0  0  0  0  0
  -23.8677  -10.0361   20.5986 C   0  0  0  0  0  0  0  0  0  0  0  0
  -22.0251   -8.6929   22.2058 C   0  0  0  0  0  0  0  0  0  0  0  0
  -24.1460   -9.8208   21.9483 C   0  0  0  0  0  0  0  0  0  0  0  0
  -26.1437  -15.9366   21.2219 C   0  0  0  0  0  0  0  0  0  0  0  0
  -26.7156  -17.7504   22.3256 C   0  0  0  0  0  0  0  0  0  0  0  0
  -28.5308  -27.7327   24.6703 C   0  0  0  0  0  0  0  0  0  0  0  0
  -27.6026  -28.6392   25.0046 C   0  0  0  0  0  0  0  0  0  0  0  0
  -28.2758  -26.2758   24.8552 C   0  0  0  0  0  0  0  0  0  0  0  0
  -26.5047  -15.7131   23.7586 C   0  0  0  0  0  0  0  0  0  0  0  0
  -21.3452  -27.4474   20.0027 C   0  0  0  0  0  0  0  0  0  0  0  0
  -22.9296  -26.9750   17.2119 C   0  0  0  0  0  0  0  0  0  0  0  0
  -25.7895  -27.3932   15.3972 C   0  0  0  0  0  0  0  0  0  0  0  0
  -29.1242  -21.8910   19.4622 C   0  0  0  0  0  0  0  0  0  0  0  0
  -16.5035  -27.3452   21.6168 C   0  0  0  0  0  0  0  0  0  0  0  0
  -22.1566  -29.7773   19.4840 C   0  0  0  0  0  0  0  0  0  0  0  0
  -24.3064  -27.7712   19.1704 C   0  0  0  0  0  0  0  0  0  0  0  0
  -17.2903  -26.6930   20.4829 C   0  0  0  0  0  0  0  0  0  0  0  0
  -25.9622  -20.7305   18.3084 C   0  0  0  0  0  0  0  0  0  0  0  0
  -18.5772  -26.0706   21.0152 C   0  0  0  0  0  0  0  0  0  0  0  0
  -25.7564  -19.4169   19.0648 C   0  0  0  0  0  0  0  0  0  0  0  0
  -27.4265  -20.9401   17.9293 C   0  0  0  0  0  0  0  0  0  0  0  0
  -28.1712  -19.5314   19.8094 C   0  0  0  0  0  0  0  0  0  0  0  0
  -19.4911  -27.1362   21.6325 C   0  0  1  0  0  0  0  0  0  0  0  0
  -21.8761  -28.3767   18.9482 C   0  0  1  0  0  0  0  0  0  0  0  0
  -26.7190  -19.3026   20.2621 C   0  0  2  0  0  0  0  0  0  0  0  0
  -26.7981  -26.8661   13.1607 C   0  0  0  0  0  0  0  0  0  0  0  0
  -23.3564  -24.0837   18.0885 C   0  0  0  0  0  0  0  0  0  0  0  0
  -25.1277  -23.8854   16.3303 C   0  0  0  0  0  0  0  0  0  0  0  0
  -22.7696  -24.3659   15.6738 C   0  0  0  0  0  0  0  0  0  0  0  0
  -26.1261  -30.2600   14.7437 C   0  0  0  0  0  0  0  0  0  0  0  0
  -30.8085  -22.7101   21.0906 C   0  0  0  0  0  0  0  0  0  0  0  0
  -27.7959  -30.1204   24.8332 C   0  0  0  0  0  0  0  0  0  0  0  0
  -26.7520  -30.7200   23.8985 C   0  0  0  0  0  0  0  0  0  1  0  0
  -24.1383  -26.1744   16.7910 C   0  0  1  0  0  0  0  0  0  0  0  0
  -26.0200  -27.8844   13.9795 C   0  0  2  0  0  0  0  0  0  0  0  0
  -23.8497  -24.6474   16.7410 C   0  0  0  0  0  0  0  0  0  0  0  0
  -26.2004  -16.8916   20.2898 N   0  0  0  0  0  0  0  0  0  0  0  0
  -27.5752  -25.7851   25.8275 N   0  0  0  0  0  0  0  0  0  0  0  0
  -26.5504  -17.9828   20.9919 N   0  0  0  0  0  0  0  0  0  0  0  0
  -23.0657  -27.7409   18.3783 N   0  0  0  0  0  0  0  0  0  0  0  0
  -28.2860  -20.8205   19.1095 N   0  0  0  0  0  0  0  0  0  0  0  0
  -27.0674  -18.7374   23.1768 N   0  0  0  0  0  0  0  0  0  0  0  0
  -26.2089  -14.3431   23.7681 N   0  0  0  0  0  0  0  0  0  0  0  0
  -20.1737  -27.8791   20.5950 N   0  0  0  0  0  0  0  0  0  0  0  0
  -24.5811  -26.7407   15.5215 N   0  0  0  0  0  0  0  0  0  0  0  0
  -29.9013  -21.6977   20.5978 N   0  0  0  0  0  0  0  0  0  0  0  0
  -26.7871  -29.1621   13.9923 N   0  3  0  0  0  0  0  0  0  0  0  0
  -26.7864  -16.2878   24.8374 O   0  0  0  0  0  0  0  0  0  0  0  0
  -21.9525  -26.4144   20.2589 O   0  0  0  0  0  0  0  0  0  0  0  0
  -21.9048  -26.9282   16.5268 O   0  0  0  0  0  0  0  0  0  0  0  0
  -26.6018  -27.5674   16.3029 O   0  0  0  0  0  0  0  0  0  0  0  0
  -29.1723  -22.9434   18.8163 O   0  0  0  0  0  0  0  0  0  0  0  0
  -24.7809  -10.7034   19.7996 O   0  0  0  0  0  0  0  0  0  0  0  0
  -26.8714  -30.1303   22.6046 O   0  0  0  0  0  0  0  0  0  1  0  0
  -21.1396   -8.0493   22.9777 F   0  0  0  0  0  0  0  0  0  0  0  0
  -25.2964  -10.2578   22.4789 F   0  0  0  0  0  0  0  0  0  0  0  0
  1  2  1  0  0  0  0
  1  7  2  0  0  0  0
  2  8  2  0  0  0  0
  3 12  2  0  0  0  0
  3 19  1  0  0  0  0
  4 13  1  0  0  0  0
  4 19  2  0  0  0  0
  5 10  2  0  0  0  0
  5 20  1  0  0  0  0
  6 11  1  0  0  0  0
  6 20  2  0  0  0  0
  7 22  1  0  0  0  0
  8 24  1  0  0  0  0
  9 14  2  0  0  0  0
  9 23  1  0  0  0  0
 10 26  1  0  0  0  0
 11 26  2  0  0  0  0
 12 27  1  0  0  0  0
 13 27  2  0  0  0  0
 14 28  1  0  0  0  0
 15 16  2  0  0  0  0
 15 29  1  0  0  0  0
 16 30  1  0  0  0  0
 17 25  1  0  0  0  0
 17 28  2  0  0  0  0
 18 30  2  0  0  0  0
 18 31  1  0  0  0  0
 19 32  1  0  0  0  0
 20 36  1  0  0  0  0
 21 32  1  0  0  0  0
 21 33  2  0  0  0  0
 21 37  1  0  0  0  0
 22 24  2  0  0  0  0
 22 42  1  0  0  0  0
 23 25  2  0  0  0  0
 23 43  1  0  0  0  0
 24 51  1  0  0  0  0
 25 44  1  0  0  0  0
 26 59  1  0  0  0  0
 27 81  1  0  0  0  0
 28 82  1  0  0  0  0
 29 31  2  0  0  0  0
 29 81  1  0  0  0  0
 30 83  1  0  0  0  0
 31 84  1  0  0  0  0
 32 65  2  0  0  0  0
 33 67  1  0  0  0  0
 33 70  1  0  0  0  0
 34 35  2  0  0  0  0
 34 36  1  0  0  0  0
 35 60  1  0  0  0  0
 36 66  2  0  0  0  0
 37 71  1  0  0  0  0
 37 76  2  0  0  0  0
 38 52  1  0  0  0  0
 38 72  1  0  0  0  0
 38 77  2  0  0  0  0
 39 62  1  0  0  0  0
 39 68  1  0  0  0  0
 39 78  2  0  0  0  0
 40 63  1  0  0  0  0
 40 73  1  0  0  0  0
 40 79  2  0  0  0  0
 41 69  1  0  0  0  0
 41 74  1  0  0  0  0
 41 80  2  0  0  0  0
 42 45  1  0  0  0  0
 43 52  1  0  0  0  0
 44 68  1  0  0  0  0
 45 47  1  0  0  0  0
 46 48  1  0  0  0  0
 46 49  1  0  0  0  0
 47 51  1  0  0  0  0
 48 53  1  0  0  0  0
 49 69  1  0  0  0  0
 50 53  1  0  0  0  0
 50 69  1  0  0  0  0
 51 72  1  0  0  0  0
 52 68  1  0  0  0  0
 53 67  1  0  0  0  0
 54 63  1  0  0  0  0
 55 64  1  0  0  0  0
 56 64  1  0  0  0  0
 57 64  1  0  0  0  0
 58 75  1  0  0  0  0
 59 74  1  0  0  0  0
 60 61  1  0  0  0  0
 61 82  1  0  0  0  0
 62 64  1  0  0  0  0
 62 73  1  0  0  0  0
 63 75  1  0  0  0  0
 65 67  1  0  0  0  0
M  CHG  1  75   1
M  ISO  4  41 100  61 101  74 100  82 101
M  END
> <Batch ID>
0123

> <Smiles>
CNC(C)C(=O)NC(C(=O)N1Cc2cc([101O:1][101CH2:1]CC=CC(=N)c3ccc(C[100NH:0][100C:0](=O)N4CCCC(n5nc(-c6ccc(Oc7ccc(F)cc7F)cc6)c(C(N)=O)c5N)C4)cc3)ccc2CC1C(=O)NC1CCCc2ccccc21)C(C)(C)C

> <Shape>
0.248

> <Color>
0.084

> <Negative vol penalty>
0.000

$$$$

  -OEChem-04052302033D

 83 91  0     1  0  0  0  0  0999 V2000
  -27.4398  -33.7398   26.4653 C   0  0  0  0  0  0  0  0  0  0  0  0
  -27.7223  -32.5723   25.7635 C   0  0  0  0  0  0  0  0  0  0  0  0
  -27.8163  -20.0525   14.6464 C   0  0  0  0  0  0  0  0  0  0  0  0
  -26.2433  -11.7427   21.3247 C   0  0  0  0  0  0  0  0  0  0  0  0
  -25.5831  -12.3656   19.0857 C   0  0  0  0  0  0  0  0  0  0  0  0
  -27.8491  -21.4188   14.9249 C   0  0  0  0  0  0  0  0  0  0  0  0
  -26.1190  -34.0665   26.7696 C   0  0  0  0  0  0  0  0  0  0  0  0
  -26.6842  -31.7302   25.3665 C   0  0  0  0  0  0  0  0  0  0  0  0
  -27.1929  -30.1399   20.5856 C   0  0  0  0  0  0  0  0  0  0  0  0
  -28.3635  -19.1429   15.5514 C   0  0  0  0  0  0  0  0  0  0  0  0
  -24.9583  -11.2584   21.5690 C   0  0  0  0  0  0  0  0  0  0  0  0
  -24.2980  -11.8812   19.3299 C   0  0  0  0  0  0  0  0  0  0  0  0
  -28.1061  -29.1132   20.3498 C   0  0  0  0  0  0  0  0  0  0  0  0
  -23.1612   -8.4874   20.8446 C   0  0  0  0  0  0  0  0  0  0  0  0
  -23.0442   -7.2487   21.4752 C   0  0  0  0  0  0  0  0  0  0  0  0
  -28.9764  -20.9661   17.0133 C   0  0  0  0  0  0  0  0  0  0  0  0
  -26.2940  -27.5219   20.2961 C   0  0  0  0  0  0  0  0  0  0  0  0
  -21.8354   -8.2874   23.2910 C   0  0  0  0  0  0  0  0  0  0  0  0
  -26.5558  -12.2964   20.0831 C   0  0  0  0  0  0  0  0  0  0  0  0
  -28.4292  -21.8756   16.1084 C   0  0  0  0  0  0  0  0  0  0  0  0
  -28.9768  -12.0812   19.3085 C   0  0  0  0  0  0  0  0  0  0  0  0
  -25.0634  -33.2330   26.3677 C   0  0  0  0  0  0  0  0  0  0  0  0
  -25.8220  -29.8633   20.6894 C   0  0  0  0  0  0  0  0  0  0  0  0
  -25.3481  -32.0454   25.6668 C   0  0  0  0  0  0  0  0  0  0  0  0
  -25.3651  -28.5472   20.5306 C   0  0  0  0  0  0  0  0  0  0  0  0
  -28.9436  -19.5997   16.7348 C   0  0  0  0  0  0  0  0  0  0  0  0
  -23.9856  -11.3276   20.5716 C   0  0  0  0  0  0  0  0  0  0  0  0
  -27.6570  -27.8035   20.2079 C   0  0  0  0  0  0  0  0  0  0  0  0
  -22.6154   -9.6261   21.4372 C   0  0  0  0  0  0  0  0  0  0  0  0
  -22.3814   -7.1487   22.6984 C   0  0  0  0  0  0  0  0  0  0  0  0
  -21.9525   -9.5261   22.6604 C   0  0  0  0  0  0  0  0  0  0  0  0
  -27.8829  -12.7973   19.8304 C   0  0  0  0  0  0  0  0  0  0  0  0
  -29.9974  -12.9992   19.2620 C   0  0  0  0  0  0  0  0  0  0  0  0
  -28.4627  -23.3194   16.4016 C   0  0  0  0  0  0  0  0  0  0  0  0
  -29.2976  -23.8995   17.2752 C   0  0  0  0  0  0  0  0  0  0  0  0
  -29.0626  -10.7090   18.9019 C   0  0  0  0  0  0  0  0  0  0  0  0
  -29.2450  -25.3737   17.5084 C   0  0  0  0  0  0  0  0  0  0  0  0
  -23.6370  -30.1783   22.9763 C   0  0  0  0  0  0  0  0  0  0  0  0
  -21.6062  -29.2470   20.6246 C   0  0  0  0  0  0  0  0  0  0  0  0
  -21.1582  -27.6120   17.6626 C   0  0  0  0  0  0  0  0  0  0  0  0
  -30.1112  -18.9609   18.8737 C   0  0  0  0  0  0  0  0  0  0  0  0
  -23.6554  -33.6039   26.7608 C   0  0  0  0  0  0  0  0  0  0  0  0
  -24.8472  -30.9858   20.9173 C   0  0  0  0  0  0  0  0  0  0  0  0
  -23.9018  -28.2004   20.6132 C   0  0  0  0  0  0  0  0  0  0  0  0
  -22.5851  -32.8480   25.9777 C   0  0  0  0  0  0  0  0  0  0  0  0
  -31.5684  -16.9657   21.4375 C   0  0  0  0  0  0  0  0  0  0  0  0
  -22.9166  -31.3602   25.9202 C   0  0  0  0  0  0  0  0  0  0  0  0
  -30.8927  -15.6035   21.2650 C   0  0  0  0  0  0  0  0  0  0  0  0
  -30.6036  -18.1168   21.1585 C   0  0  0  0  0  0  0  0  0  0  0  0
  -29.2360  -16.6851   19.6925 C   0  0  0  0  0  0  0  0  0  0  0  0
  -24.2474  -31.1190   25.1974 C   0  0  1  0  0  0  0  0  0  0  0  0
  -23.5250  -30.5165   21.5166 C   0  0  1  0  0  0  0  0  0  0  0  0
  -30.1857  -15.4940   19.8997 C   0  0  2  0  0  0  0  0  0  0  0  0
  -19.3790  -26.9867   16.0072 C   0  0  0  0  0  0  0  0  0  0  0  0
  -20.6205  -27.0623   22.5128 C   0  0  0  0  0  0  0  0  0  0  0  0
  -19.5843  -25.9214   20.5398 C   0  0  0  0  0  0  0  0  0  0  0  0
  -18.8190  -28.2009   21.2041 C   0  0  0  0  0  0  0  0  0  0  0  0
  -22.4790  -29.1319   15.4937 C   0  0  0  0  0  0  0  0  0  0  0  0
  -30.2441  -25.9079   18.5232 C   0  0  0  0  0  0  0  0  0  0  0  0
  -29.7357  -27.1356   19.2651 C   0  0  0  0  0  0  0  0  0  1  0  0
  -21.0873  -27.9210   20.1231 C   0  0  1  0  0  0  0  0  0  0  0  0
  -20.4338  -28.0130   16.3903 C   0  0  2  0  0  0  0  0  0  0  0  0
  -20.0556  -27.2823   21.0953 C   0  0  0  0  0  0  0  0  0  0  0  0
  -28.1807  -14.0719   20.0966 N   0  0  0  0  0  0  0  0  0  0  0  0
  -29.4733  -14.1639   19.7406 N   0  0  0  0  0  0  0  0  0  0  0  0
  -22.9884  -29.3318   20.8438 N   0  0  0  0  0  0  0  0  0  0  0  0
  -29.9747  -17.9481   19.8466 N   0  0  0  0  0  0  0  0  0  0  0  0
  -31.2831  -12.9157   18.8589 N   0  0  0  0  0  0  0  0  0  0  0  0
  -27.9199   -9.9056   19.0162 N   0  0  0  0  0  0  0  0  0  0  0  0
  -29.4984  -18.6751   17.6541 N   0  0  0  0  0  0  0  0  0  0  0  0
  -24.0713  -31.2266   23.7650 N   0  0  0  0  0  0  0  0  0  0  0  0
  -20.5713  -28.1658   18.7807 N   0  0  0  0  0  0  0  0  0  0  0  0
  -21.3994  -28.1381   15.2620 N   0  3  0  0  0  0  0  0  0  0  0  0
  -30.1258  -10.2058   18.4660 O   0  0  0  0  0  0  0  0  0  0  0  0
  -28.4468  -26.0935   16.9146 O   0  0  0  0  0  0  0  0  0  0  0  0
  -23.3492  -29.0503   23.3589 O   0  0  0  0  0  0  0  0  0  0  0  0
  -20.8151  -30.1756   20.8080 O   0  0  0  0  0  0  0  0  0  0  0  0
  -22.1438  -26.8777   17.6649 O   0  0  0  0  0  0  0  0  0  0  0  0
  -30.7495  -19.9929   19.0963 O   0  0  0  0  0  0  0  0  0  0  0  0
  -22.7316  -10.8549   20.8094 O   0  0  0  0  0  0  0  0  0  0  0  0
  -28.5464  -26.7994   19.9784 O   0  0  0  0  0  0  0  0  0  1  0  0
  -22.2678   -5.9590   23.3031 F   0  0  0  0  0  0  0  0  0  0  0  0
  -21.4250  -10.6163   23.2340 F   0  0  0  0  0  0  0  0  0  0  0  0
  1  2  1  0  0  0  0
  1  7  2  0  0  0  0
  2  8  2  0  0  0  0
  3  6  2  0  0  0  0
  3 10  1  0  0  0  0
  4 11  2  0  0  0  0
  4 19  1  0  0  0  0
  5 12  1  0  0  0  0
  5 19  2  0  0  0  0
  6 20  1  0  0  0  0
  7 22  1  0  0  0  0
  8 24  1  0  0  0  0
  9 13  2  0  0  0  0
  9 23  1  0  0  0  0
 10 26  2  0  0  0  0
 11 27  1  0  0  0  0
 12 27  2  0  0  0  0
 13 28  1  0  0  0  0
 14 15  2  0  0  0  0
 14 29  1  0  0  0  0
 15 30  1  0  0  0  0
 16 20  2  0  0  0  0
 16 26  1  0  0  0  0
 17 25  1  0  0  0  0
 17 28  2  0  0  0  0
 18 30  2  0  0  0  0
 18 31  1  0  0  0  0
 19 32  1  0  0  0  0
 20 34  1  0  0  0  0
 21 32  1  0  0  0  0
 21 33  2  0  0  0  0
 21 36  1  0  0  0  0
 22 24  2  0  0  0  0
 22 42  1  0  0  0  0
 23 25  2  0  0  0  0
 23 43  1  0  0  0  0
 24 51  1  0  0  0  0
 25 44  1  0  0  0  0
 26 70  1  0  0  0  0
 27 80  1  0  0  0  0
 28 81  1  0  0  0  0
 29 31  2  0  0  0  0
 29 80  1  0  0  0  0
 30 82  1  0  0  0  0
 31 83  1  0  0  0  0
 32 64  2  0  0  0  0
 33 65  1  0  0  0  0
 33 68  1  0  0  0  0
 34 35  2  0  0  0  0
 35 37  1  0  0  0  0
 36 69  1  0  0  0  0
 36 74  2  0  0  0  0
 37 59  1  0  0  0  0
 37 75  2  0  0  0  0
 38 52  1  0  0  0  0
 38 71  1  0  0  0  0
 38 76  2  0  0  0  0
 39 61  1  0  0  0  0
 39 66  1  0  0  0  0
 39 77  2  0  0  0  0
 40 62  1  0  0  0  0
 40 72  1  0  0  0  0
 40 78  2  0  0  0  0
 41 67  1  0  0  0  0
 41 70  1  0  0  0  0
 41 79  2  0  0  0  0
 42 45  1  0  0  0  0
 43 52  1  0  0  0  0
 44 66  1  0  0  0  0
 45 47  1  0  0  0  0
 46 48  1  0  0  0  0
 46 49  1  0  0  0  0
 47 51  1  0  0  0  0
 48 53  1  0  0  0  0
 49 67  1  0  0  0  0
 50 53  1  0  0  0  0
 50 67  1  0  0  0  0
 51 71  1  0  0  0  0
 52 66  1  0  0  0  0
 53 65  1  0  0  0  0
 54 62  1  0  0  0  0
 55 63  1  0  0  0  0
 56 63  1  0  0  0  0
 57 63  1  0  0  0  0
 58 73  1  0  0  0  0
 59 60  1  0  0  0  0
 60 81  1  0  0  0  0
 61 63  1  0  0  0  0
 61 72  1  0  0  0  0
 62 73  1  0  0  0  0
 64 65  1  0  0  0  0
M  CHG  1  73   1
M  ISO  4  41 100  60 101  70 100  81 101
M  END
> <Batch ID>
0123

> <Smiles>
CNC(C)C(=O)NC(C(=O)N1Cc2cc([101O:1][101CH2:1]CC(=O)C=Cc3cccc([100NH:0][100C:0](=O)N4CCCC(n5nc(-c6ccc(Oc7ccc(F)cc7F)cc6)c(C(N)=O)c5N)C4)c3)ccc2CC1C(=O)NC1CCCc2ccccc21)C(C)(C)C

> <Shape>
0.331

> <Color>
0.087

> <Negative vol penalty>
0.000

$$$$

  -OEChem-04052302033D

 86 95  0     1  0  0  0  0  0999 V2000
  -30.1964  -36.1654   23.9863 C   0  0  0  0  0  0  0  0  0  0  0  0
  -30.1526  -34.8040   23.7032 C   0  0  0  0  0  0  0  0  0  0  0  0
  -24.3308   -9.1880   22.1055 C   0  0  0  0  0  0  0  0  0  0  0  0
  -23.5669   -9.2090   19.8135 C   0  0  0  0  0  0  0  0  0  0  0  0
  -29.5195  -20.6755   20.4208 C   0  0  0  0  0  0  0  0  0  0  0  0
  -29.1143  -36.7810   24.6140 C   0  0  0  0  0  0  0  0  0  0  0  0
  -29.0269  -34.0571   24.0487 C   0  0  0  0  0  0  0  0  0  0  0  0
  -27.5489  -30.9421   20.3397 C   0  0  0  0  0  0  0  0  0  0  0  0
  -29.7542  -22.0484   20.3462 C   0  0  0  0  0  0  0  0  0  0  0  0
  -23.2969   -8.3143   22.4421 C   0  0  0  0  0  0  0  0  0  0  0  0
  -22.5330   -8.3353   20.1501 C   0  0  0  0  0  0  0  0  0  0  0  0
  -28.2721  -29.7618   20.1734 C   0  0  0  0  0  0  0  0  0  0  0  0
  -21.0747   -5.7944   23.8302 C   0  0  0  0  0  0  0  0  0  0  0  0
  -21.3869   -4.7007   24.6378 C   0  0  0  0  0  0  0  0  0  0  0  0
  -26.5609  -28.5521   21.3682 C   0  0  0  0  0  0  0  0  0  0  0  0
  -31.4712  -21.8466   22.0339 C   0  0  0  0  0  0  0  0  0  0  0  0
  -22.9489   -3.9153   22.9704 C   0  0  0  0  0  0  0  0  0  0  0  0
  -24.4658   -9.6354   20.7912 C   0  0  0  0  0  0  0  0  0  0  0  0
  -30.2607  -19.8881   21.3020 C   0  0  0  0  0  0  0  0  0  0  0  0
  -26.8278  -10.1968   20.0082 C   0  0  0  0  0  0  0  0  0  0  0  0
  -27.9708  -36.0432   24.9587 C   0  0  0  0  0  0  0  0  0  0  0  0
  -26.3295  -30.9381   21.0321 C   0  0  0  0  0  0  0  0  0  0  0  0
  -27.9290  -34.6631   24.6828 C   0  0  0  0  0  0  0  0  0  0  0  0
  -25.8229  -29.7332   21.5397 C   0  0  0  0  0  0  0  0  0  0  0  0
  -31.2365  -20.4736   22.1085 C   0  0  0  0  0  0  0  0  0  0  0  0
  -30.7300  -22.6340   21.1527 C   0  0  0  0  0  0  0  0  0  0  0  0
  -22.3980   -7.8879   21.4644 C   0  0  0  0  0  0  0  0  0  0  0  0
  -27.7796  -28.5671   20.6903 C   0  0  0  0  0  0  0  0  0  0  0  0
  -21.6996   -5.9485   22.5927 C   0  0  0  0  0  0  0  0  0  0  0  0
  -22.3240   -3.7613   24.2079 C   0  0  0  0  0  0  0  0  0  0  0  0
  -22.6367   -5.0090   22.1628 C   0  0  0  0  0  0  0  0  0  0  0  0
  -25.5332  -10.5384   20.4430 C   0  0  0  0  0  0  0  0  0  0  0  0
  -27.4531  -11.4036   19.8100 C   0  0  0  0  0  0  0  0  0  0  0  0
  -30.5265  -26.2706   20.9543 C   0  0  0  0  0  0  0  0  0  0  0  0
  -29.9917  -18.4569   21.3560 C   0  0  0  0  0  0  0  0  0  0  0  0
  -29.7452  -27.3522   21.0522 C   0  0  0  0  0  0  0  0  0  1  0  0
  -28.8030  -17.8970   21.6589 C   0  0  0  0  0  0  0  0  0  0  0  0
  -27.4129   -8.9042   19.8018 C   0  0  0  0  0  0  0  0  0  0  0  0
  -28.6865  -16.4249   21.6622 C   0  0  0  0  0  0  0  0  0  0  0  0
  -25.2493  -32.3248   23.6805 C   0  0  0  0  0  0  0  0  0  0  0  0
  -22.4298  -31.0200   22.7477 C   0  0  0  0  0  0  0  0  0  0  0  0
  -20.8030  -28.6071   20.9650 C   0  0  0  0  0  0  0  0  0  0  0  0
  -26.8452  -36.7428   25.6785 C   0  0  0  0  0  0  0  0  0  0  0  0
  -25.5485  -32.2151   21.1796 C   0  0  0  0  0  0  0  0  0  0  0  0
  -24.5089  -29.6719   22.2733 C   0  0  0  0  0  0  0  0  0  0  0  0
  -31.8954  -26.1453   21.5434 C   0  0  0  0  0  0  0  0  0  0  0  0
  -25.5371  -35.9560   25.6738 C   0  0  0  0  0  0  0  0  0  0  0  0
  -25.6155  -16.0981   19.6888 C   0  0  0  0  0  0  0  0  0  0  0  0
  -25.7901  -34.4972   26.0407 C   0  0  0  0  0  0  0  0  0  0  0  0
  -25.4066  -14.5865   19.7189 C   0  0  0  0  0  0  0  0  0  0  0  0
  -31.9749  -24.6648   21.9019 C   0  0  0  0  0  0  0  0  0  0  0  0
  -26.2320  -16.6160   20.9874 C   0  0  0  0  0  0  0  0  0  0  0  0
  -27.2901  -14.4123   21.3928 C   0  0  0  0  0  0  0  0  0  0  0  0
  -26.7154  -33.8241   25.0197 C   0  0  1  0  0  0  0  0  0  0  0  0
  -30.1179  -24.9517   20.3499 C   0  0  1  0  0  0  0  0  0  0  0  0
  -24.5685  -32.1845   22.3484 C   0  0  1  0  0  0  0  0  0  0  0  0
  -26.7143  -13.8633   20.0782 C   0  0  1  0  0  0  0  0  0  0  0  0
  -32.0495  -19.6607   23.0640 C   0  0  0  0  0  0  0  0  0  0  0  0
  -30.4328  -24.9281   18.8551 C   0  0  0  0  0  0  0  0  0  0  0  0
  -18.4984  -27.7730   20.4258 C   0  0  0  0  0  0  0  0  0  0  0  0
  -22.2424  -29.7544   25.5177 C   0  0  0  0  0  0  0  0  0  0  0  0
  -20.4818  -28.2174   24.6199 C   0  0  0  0  0  0  0  0  0  0  0  0
  -20.0891  -30.6807   24.6462 C   0  0  0  0  0  0  0  0  0  0  0  0
  -21.1727  -29.1081   18.0717 C   0  0  0  0  0  0  0  0  0  0  0  0
  -21.7290  -29.7046   22.9879 C   0  0  1  0  0  0  0  0  0  0  0  0
  -19.6373  -28.6845   19.9957 C   0  0  2  0  0  0  0  0  0  0  0  0
  -21.1613  -29.5904   24.4308 C   0  0  0  0  0  0  0  0  0  0  0  0
  -25.3458  -11.8588   20.5171 N   0  0  0  0  0  0  0  0  0  0  0  0
  -26.5310  -12.3575   20.1262 N   0  0  0  0  0  0  0  0  0  0  0  0
  -30.9628  -23.9969   21.0786 N   0  0  3  0  0  0  0  0  0  0  0  0
  -27.4492  -15.8699   21.3404 N   0  0  0  0  0  0  0  0  0  0  0  0
  -23.7854  -30.9481   22.3972 N   0  0  0  0  0  0  0  0  0  0  0  0
  -28.6962  -11.7312   19.3979 N   0  0  0  0  0  0  0  0  0  0  0  0
  -26.6305   -7.7688   20.0529 N   0  0  0  0  0  0  0  0  0  0  0  0
  -25.9825  -33.4880   23.8179 N   0  0  0  0  0  0  0  0  0  0  0  0
  -20.7232  -29.5803   21.9385 N   0  0  0  0  0  0  0  0  0  0  0  0
  -20.0724  -28.2800   18.6289 N   0  3  0  0  0  0  0  0  0  0  0  0
  -28.5997   -8.7601   19.4221 O   0  0  0  0  0  0  0  0  0  0  0  0
  -29.6922  -15.7755   21.9548 O   0  0  0  0  0  0  0  0  0  0  0  0
  -25.1179  -31.4436   24.5220 O   0  0  0  0  0  0  0  0  0  0  0  0
  -21.7958  -32.0723   22.8597 O   0  0  0  0  0  0  0  0  0  0  0  0
  -21.6932  -27.7650   20.8704 O   0  0  0  0  0  0  0  0  0  0  0  0
  -21.3892   -7.0352   21.7924 O   0  0  0  0  0  0  0  0  0  0  0  0
  -28.4838  -27.4137   20.5300 O   0  0  0  0  0  0  0  0  0  1  0  0
  -22.6248   -2.7119   24.9842 F   0  0  0  0  0  0  0  0  0  0  0  0
  -23.2412   -5.1523   20.9754 F   0  0  0  0  0  0  0  0  0  0  0  0
  1  2  1  0  0  0  0
  1  6  2  0  0  0  0
  2  7  2  0  0  0  0
  3 10  2  0  0  0  0
  3 18  1  0  0  0  0
  4 11  1  0  0  0  0
  4 18  2  0  0  0  0
  5  9  2  0  0  0  0
  5 19  1  0  0  0  0
  6 21  1  0  0  0  0
  7 23  1  0  0  0  0
  8 12  2  0  0  0  0
  8 22  1  0  0  0  0
  9 26  1  0  0  0  0
 10 27  1  0  0  0  0
 11 27  2  0  0  0  0
 12 28  1  0  0  0  0
 13 14  2  0  0  0  0
 13 29  1  0  0  0  0
 14 30  1  0  0  0  0
 15 24  1  0  0  0  0
 15 28  2  0  0  0  0
 16 25  1  0  0  0  0
 16 26  2  0  0  0  0
 17 30  2  0  0  0  0
 17 31  1  0  0  0  0
 18 32  1  0  0  0  0
 19 25  2  0  0  0  0
 19 35  1  0  0  0  0
 20 32  1  0  0  0  0
 20 33  2  0  0  0  0
 20 38  1  0  0  0  0
 21 23  2  0  0  0  0
 21 43  1  0  0  0  0
 22 24  2  0  0  0  0
 22 44  1  0  0  0  0
 23 54  1  0  0  0  0
 24 45  1  0  0  0  0
 25 58  1  0  0  0  0
 26 70  1  0  0  0  0
 27 83  1  0  0  0  0
 28 84  1  0  0  0  0
 29 31  2  0  0  0  0
 29 83  1  0  0  0  0
 30 85  1  0  0  0  0
 31 86  1  0  0  0  0
 32 68  2  0  0  0  0
 33 69  1  0  0  0  0
 33 73  1  0  0  0  0
 34 36  2  0  0  0  0
 34 46  1  0  0  0  0
 34 55  1  0  0  0  0
 35 37  2  0  0  0  0
 36 84  1  0  0  0  0
 37 39  1  0  0  0  0
 38 74  1  0  0  0  0
 38 78  2  0  0  0  0
 39 71  1  0  0  0  0
 39 79  2  0  0  0  0
 40 56  1  0  0  0  0
 40 75  1  0  0  0  0
 40 80  2  0  0  0  0
 41 65  1  0  0  0  0
 41 72  1  0  0  0  0
 41 81  2  0  0  0  0
 42 66  1  0  0  0  0
 42 76  1  0  0  0  0
 42 82  2  0  0  0  0
 43 47  1  0  0  0  0
 44 56  1  0  0  0  0
 45 72  1  0  0  0  0
 46 51  1  0  0  0  0
 47 49  1  0  0  0  0
 48 50  1  0  0  0  0
 48 52  1  0  0  0  0
 49 54  1  0  0  0  0
 50 57  1  0  0  0  0
 51 70  1  0  0  0  0
 52 71  1  0  0  0  0
 53 57  1  0  0  0  0
 53 71  1  0  0  0  0
 54 75  1  0  0  0  0
 55 59  1  0  0  0  0
 55 70  1  0  0  0  0
 56 72  1  0  0  0  0
 57 69  1  0  0  0  0
 60 66  1  0  0  0  0
 61 67  1  0  0  0  0
 62 67  1  0  0  0  0
 63 67  1  0  0  0  0
 64 77  1  0  0  0  0
 65 67  1  0  0  0  0
 65 76  1  0  0  0  0
 66 77  1  0  0  0  0
 68 69  1  0  0  0  0
M  CHG  1  77   1
M  ISO  4  36 101  37 100  39 100  84 101
M  END
> <Batch ID>
0123

> <Smiles>
CNC(C)C(=O)NC(C(=O)N1Cc2cc([101O:1][101CH:1]=C3CCN(c4ccc(C=[100CH:0][100C:0](=O)N5CCCC(n6nc(-c7ccc(Oc8ccc(F)cc8F)cc7)c(C(N)=O)c6N)C5)c(C)c4)C3C)ccc2CC1C(=O)NC1CCCc2ccccc21)C(C)(C)C

> <Shape>
0.332

> <Color>
0.100

> <Negative vol penalty>
0.000

$$$$

  -OEChem-04052302033D

 85 94  0     1  0  0  0  0  0999 V2000
  -30.2661  -24.7903   18.3588 C   0  0  0  0  0  0  0  0  0  0  0  0
  -28.8772  -24.8618   18.3927 C   0  0  0  0  0  0  0  0  0  0  0  0
  -25.4765  -12.5881   19.3883 C   0  0  0  0  0  0  0  0  0  0  0  0
  -24.6443  -13.3912   21.5095 C   0  0  0  0  0  0  0  0  0  0  0  0
  -23.2185  -22.4142   23.4734 C   0  0  0  0  0  0  0  0  0  0  0  0
  -31.0171  -25.3464   19.3935 C   0  0  0  0  0  0  0  0  0  0  0  0
  -28.2384  -25.4885   19.4621 C   0  0  0  0  0  0  0  0  0  0  0  0
  -23.0601  -28.7518   19.2565 C   0  0  0  0  0  0  0  0  0  0  0  0
  -22.2741  -23.4207   23.6803 C   0  0  0  0  0  0  0  0  0  0  0  0
  -25.6109  -11.3080   19.9256 C   0  0  0  0  0  0  0  0  0  0  0  0
  -24.7786  -12.1110   22.0468 C   0  0  0  0  0  0  0  0  0  0  0  0
  -21.7359  -28.4294   19.5503 C   0  0  0  0  0  0  0  0  0  0  0  0
  -23.0783   -9.1913   21.9775 C   0  0  0  0  0  0  0  0  0  0  0  0
  -22.0230   -8.6982   22.7449 C   0  0  0  0  0  0  0  0  0  0  0  0
  -22.8731  -24.4877   21.5696 C   0  0  0  0  0  0  0  0  0  0  0  0
  -22.0107  -29.3448   21.7652 C   0  0  0  0  0  0  0  0  0  0  0  0
  -23.5034   -8.4822   24.6420 C   0  0  0  0  0  0  0  0  0  0  0  0
  -24.9932  -13.6297   20.1802 C   0  0  0  0  0  0  0  0  0  0  0  0
  -23.9626  -22.4749   22.3108 C   0  0  0  0  0  0  0  0  0  0  0  0
  -23.7252  -15.4894   18.9797 C   0  0  0  0  0  0  0  0  0  0  0  0
  -30.3875  -25.9888   20.4713 C   0  0  0  0  0  0  0  0  0  0  0  0
  -23.8741  -29.3644   20.2202 C   0  0  0  0  0  0  0  0  0  0  0  0
  -28.9816  -26.0526   20.5129 C   0  0  0  0  0  0  0  0  0  0  0  0
  -23.8046  -23.4863   21.3691 C   0  0  0  0  0  0  0  0  0  0  0  0
  -23.3441  -29.6763   21.4803 C   0  0  0  0  0  0  0  0  0  0  0  0
  -22.1023  -24.4490   22.7361 C   0  0  0  0  0  0  0  0  0  0  0  0
  -25.2619  -11.0694   21.2549 C   0  0  0  0  0  0  0  0  0  0  0  0
  -21.2118  -28.7232   20.8057 C   0  0  0  0  0  0  0  0  0  0  0  0
  -24.3462   -9.3298   22.5424 C   0  0  0  0  0  0  0  0  0  0  0  0
  -22.2355   -8.3437   24.0771 C   0  0  0  0  0  0  0  0  0  0  0  0
  -24.5587   -8.9753   23.8746 C   0  0  0  0  0  0  0  0  0  0  0  0
  -24.8548  -14.9525   19.6259 C   0  0  0  0  0  0  0  0  0  0  0  0
  -24.0977  -16.7678   18.6428 C   0  0  0  0  0  0  0  0  0  0  0  0
  -25.0136  -21.5686   21.8419 C   0  0  0  0  0  0  0  0  0  0  0  0
  -19.9578  -25.2062   22.5065 C   0  0  0  0  0  0  0  0  0  0  0  0
  -22.4530  -14.8866   18.7083 C   0  0  0  0  0  0  0  0  0  0  0  0
  -26.5597  -28.5675   21.7223 C   0  0  0  0  0  0  0  0  0  0  0  0
  -26.3433  -31.5864   22.8891 C   0  0  0  0  0  0  0  0  0  0  0  0
  -24.3704  -34.2684   23.6384 C   0  0  0  0  0  0  0  0  0  0  0  0
  -26.5086  -21.5878   19.7975 C   0  0  0  0  0  0  0  0  0  0  0  0
  -31.2398  -26.5335   21.5900 C   0  0  0  0  0  0  0  0  0  0  0  0
  -25.2926  -29.7300   19.8786 C   0  0  0  0  0  0  0  0  0  0  0  0
  -24.7526  -23.2954   20.2408 C   0  0  0  0  0  0  0  0  0  0  0  0
  -24.1704  -30.3519   22.5430 C   0  0  0  0  0  0  0  0  0  0  0  0
  -30.4988  -27.5094   22.5005 C   0  0  0  0  0  0  0  0  0  0  0  0
  -28.6156  -19.0232   18.7237 C   0  0  0  0  0  0  0  0  0  0  0  0
  -29.1323  -26.9499   22.8831 C   0  0  0  0  0  0  0  0  0  0  0  0
  -27.7430  -17.7716   18.8107 C   0  0  0  0  0  0  0  0  0  0  0  0
  -28.3640  -19.9490   19.9084 C   0  0  0  0  0  0  0  0  0  0  0  0
  -26.0478  -19.1130   20.1506 C   0  0  0  0  0  0  0  0  0  0  0  0
  -28.2529  -26.7460   21.6435 C   0  0  1  0  0  0  0  0  0  0  0  0
  -26.1821  -29.8859   21.1083 C   0  0  1  0  0  0  0  0  0  0  0  0
  -26.2582  -18.1436   18.9703 C   0  0  2  0  0  0  0  0  0  0  0  0
  -24.4727  -36.5771   24.6167 C   0  0  0  0  0  0  0  0  0  0  0  0
  -26.5773  -30.3884   25.6855 C   0  0  0  0  0  0  0  0  0  0  0  0
  -25.7331  -32.5568   26.6094 C   0  0  0  0  0  0  0  0  0  0  0  0
  -27.8801  -32.4952   25.3408 C   0  0  0  0  0  0  0  0  0  0  0  0
  -23.3954  -35.5002   21.1302 C   0  0  0  0  0  0  0  0  0  0  0  0
  -18.8504  -26.2093   22.6807 C   0  0  0  0  0  0  0  0  0  0  0  0
  -18.2990  -26.6503   21.3301 C   0  0  0  0  0  0  0  0  0  0  0  0
  -19.3622  -27.2751   20.4347 C   0  0  0  0  0  0  0  0  0  1  0  0
  -25.6965  -32.2224   24.0959 C   0  0  1  0  0  0  0  0  0  0  0  0
  -24.5281  -35.7489   23.3424 C   0  0  2  0  0  0  0  0  0  0  0  0
  -26.4565  -31.9012   25.4138 C   0  0  0  0  0  0  0  0  0  0  0  0
  -25.8689  -15.8188   19.6963 N   0  0  0  0  0  0  0  0  0  0  0  0
  -21.1455  -25.4437   22.9660 N   0  0  0  0  0  0  0  0  0  0  0  0
  -25.3780  -16.9131   19.0899 N   0  0  0  0  0  0  0  0  0  0  0  0
  -25.4080  -22.0234   20.5581 N   0  0  0  0  0  0  0  0  0  0  0  0
  -25.5535  -30.6837   22.1630 N   0  0  0  0  0  0  0  0  0  0  0  0
  -26.9428  -20.2737   20.0308 N   0  0  0  0  0  0  0  0  0  0  0  0
  -23.4517  -17.7705   18.0105 N   0  0  0  0  0  0  0  0  0  0  0  0
  -22.2376  -13.5653   19.1232 N   0  0  0  0  0  0  0  0  0  0  0  0
  -27.7095  -28.0104   21.1958 N   0  0  0  0  0  0  0  0  0  0  0  0
  -25.5906  -33.6468   23.7991 N   0  0  0  0  0  0  0  0  0  0  0  0
  -23.4433  -36.2137   22.4323 N   0  3  0  0  0  0  0  0  0  0  0  0
  -25.4248  -20.6298   22.5006 O   0  0  0  0  0  0  0  0  0  0  0  0
  -21.5401  -15.4958   18.1009 O   0  0  0  0  0  0  0  0  0  0  0  0
  -25.8606  -28.0917   22.6091 O   0  0  0  0  0  0  0  0  0  0  0  0
  -27.5039  -31.8852   22.5972 O   0  0  0  0  0  0  0  0  0  0  0  0
  -23.2741  -33.7191   23.7226 O   0  0  0  0  0  0  0  0  0  0  0  0
  -27.0836  -22.3486   19.0108 O   0  0  0  0  0  0  0  0  0  0  0  0
  -25.3927   -9.8203   21.7795 O   0  0  0  0  0  0  0  0  0  0  0  0
  -19.9106  -28.4067   21.0973 O   0  0  0  0  0  0  0  0  0  1  0  0
  -21.2217   -7.8716   24.8143 F   0  0  0  0  0  0  0  0  0  0  0  0
  -25.7742   -9.1073   24.4231 F   0  0  0  0  0  0  0  0  0  0  0  0
  1  2  1  0  0  0  0
  1  6  2  0  0  0  0
  2  7  2  0  0  0  0
  3 10  2  0  0  0  0
  3 18  1  0  0  0  0
  4 11  1  0  0  0  0
  4 18  2  0  0  0  0
  5  9  2  0  0  0  0
  5 19  1  0  0  0  0
  6 21  1  0  0  0  0
  7 23  1  0  0  0  0
  8 12  2  0  0  0  0
  8 22  1  0  0  0  0
  9 26  1  0  0  0  0
 10 27  1  0  0  0  0
 11 27  2  0  0  0  0
 12 28  1  0  0  0  0
 13 14  2  0  0  0  0
 13 29  1  0  0  0  0
 14 30  1  0  0  0  0
 15 24  1  0  0  0  0
 15 26  2  0  0  0  0
 16 25  1  0  0  0  0
 16 28  2  0  0  0  0
 17 30  2  0  0  0  0
 17 31  1  0  0  0  0
 18 32  1  0  0  0  0
 19 24  2  0  0  0  0
 19 34  1  0  0  0  0
 20 32  1  0  0  0  0
 20 33  2  0  0  0  0
 20 36  1  0  0  0  0
 21 23  2  0  0  0  0
 21 41  1  0  0  0  0
 22 25  2  0  0  0  0
 22 42  1  0  0  0  0
 23 51  1  0  0  0  0
 24 43  1  0  0  0  0
 25 44  1  0  0  0  0
 26 66  1  0  0  0  0
 27 82  1  0  0  0  0
 28 83  1  0  0  0  0
 29 31  2  0  0  0  0
 29 82  1  0  0  0  0
 30 84  1  0  0  0  0
 31 85  1  0  0  0  0
 32 65  2  0  0  0  0
 33 67  1  0  0  0  0
 33 71  1  0  0  0  0
 34 68  1  0  0  0  0
 34 76  2  0  0  0  0
 35 59  1  0  0  0  0
 35 66  2  0  0  0  0
 36 72  1  0  0  0  0
 36 77  2  0  0  0  0
 37 52  1  0  0  0  0
 37 73  1  0  0  0  0
 37 78  2  0  0  0  0
 38 62  1  0  0  0  0
 38 69  1  0  0  0  0
 38 79  2  0  0  0  0
 39 63  1  0  0  0  0
 39 74  1  0  0  0  0
 39 80  2  0  0  0  0
 40 68  1  0  0  0  0
 40 70  1  0  0  0  0
 40 81  2  0  0  0  0
 41 45  1  0  0  0  0
 42 52  1  0  0  0  0
 43 68  1  0  0  0  0
 44 69  1  0  0  0  0
 45 47  1  0  0  0  0
 46 48  1  0  0  0  0
 46 49  1  0  0  0  0
 47 51  1  0  0  0  0
 48 53  1  0  0  0  0
 49 70  1  0  0  0  0
 50 53  1  0  0  0  0
 50 70  1  0  0  0  0
 51 73  1  0  0  0  0
 52 69  1  0  0  0  0
 53 67  1  0  0  0  0
 54 63  1  0  0  0  0
 55 64  1  0  0  0  0
 56 64  1  0  0  0  0
 57 64  1  0  0  0  0
 58 75  1  0  0  0  0
 59 60  1  0  0  0  0
 60 61  1  0  0  0  0
 61 83  1  0  0  0  0
 62 64  1  0  0  0  0
 62 74  1  0  0  0  0
 63 75  1  0  0  0  0
 65 67  1  0  0  0  0
M  CHG  1  75   1
M  ISO  4  40 100  61 101  68 100  83 101
M  END
> <Batch ID>
0123

> <Smiles>
CNC(C)C(=O)NC(C(=O)N1Cc2cc([101O:1][101CH2:1]CC=CNc3ccc4c(c3)C[100N:0]([100C:0](=O)N3CCCC(n5nc(-c6ccc(Oc7ccc(F)cc7F)cc6)c(C(N)=O)c5N)C3)C4=O)ccc2CC1C(=O)NC1CCCc2ccccc21)C(C)(C)C

> <Shape>
0.294

> <Color>
0.072

> <Negative vol penalty>
0.000

$$$$

  -OEChem-04052302033D

 85 93  0     1  0  0  0  0  0999 V2000
  -28.9644  -31.6329   26.8637 C   0  0  0  0  0  0  0  0  0  0  0  0
  -28.8061  -30.5897   25.9570 C   0  0  0  0  0  0  0  0  0  0  0  0
  -24.7977   -8.1988   21.2969 C   0  0  0  0  0  0  0  0  0  0  0  0
  -23.8256  -10.3092   21.9593 C   0  0  0  0  0  0  0  0  0  0  0  0
  -27.8463  -32.3148   27.3421 C   0  0  0  0  0  0  0  0  0  0  0  0
  -27.5295  -30.2271   25.5290 C   0  0  0  0  0  0  0  0  0  0  0  0
  -27.2979  -29.4767   20.5262 C   0  0  0  0  0  0  0  0  0  0  0  0
  -24.1026   -7.5570   22.3218 C   0  0  0  0  0  0  0  0  0  0  0  0
  -23.1305   -9.6673   22.9842 C   0  0  0  0  0  0  0  0  0  0  0  0
  -27.7962  -28.2689   20.0398 C   0  0  0  0  0  0  0  0  0  0  0  0
  -20.9591   -6.4455   22.8838 C   0  0  0  0  0  0  0  0  0  0  0  0
  -20.3149   -5.2466   22.5783 C   0  0  0  0  0  0  0  0  0  0  0  0
  -25.5484  -27.4045   19.9005 C   0  0  0  0  0  0  0  0  0  0  0  0
  -28.0485  -17.4244   21.1912 C   0  0  0  0  0  0  0  0  0  0  0  0
  -30.4161  -17.5303   20.7218 C   0  0  0  0  0  0  0  0  0  0  0  0
  -21.6572   -4.1044   24.2308 C   0  0  0  0  0  0  0  0  0  0  0  0
  -24.6592   -9.5750   21.1157 C   0  0  0  0  0  0  0  0  0  0  0  0
  -29.2111  -19.5386   21.3149 C   0  0  0  0  0  0  0  0  0  0  0  0
  -24.9398  -10.4519   18.7366 C   0  0  0  0  0  0  0  0  0  0  0  0
  -26.5561  -31.9667   26.9124 C   0  0  0  0  0  0  0  0  0  0  0  0
  -25.9196  -29.6540   20.7141 C   0  0  0  0  0  0  0  0  0  0  0  0
  -26.3931  -30.9041   26.0032 C   0  0  0  0  0  0  0  0  0  0  0  0
  -25.0349  -28.6164   20.3871 C   0  0  0  0  0  0  0  0  0  0  0  0
  -28.0344  -18.7985   21.4301 C   0  0  0  0  0  0  0  0  0  0  0  0
  -30.4020  -18.9045   20.9607 C   0  0  0  0  0  0  0  0  0  0  0  0
  -29.2394  -16.7902   20.8371 C   0  0  0  0  0  0  0  0  0  0  0  0
  -23.2689   -8.2911   23.1654 C   0  0  0  0  0  0  0  0  0  0  0  0
  -26.9216  -27.2315   19.7296 C   0  0  0  0  0  0  0  0  0  0  0  0
  -21.9523   -6.4739   23.8628 C   0  0  0  0  0  0  0  0  0  0  0  0
  -20.6640   -4.0761   23.2518 C   0  0  0  0  0  0  0  0  0  0  0  0
  -22.3014   -5.3033   24.5363 C   0  0  0  0  0  0  0  0  0  0  0  0
  -25.3775  -10.2387   20.0575 C   0  0  0  0  0  0  0  0  0  0  0  0
  -25.9778  -11.1200   18.1346 C   0  0  0  0  0  0  0  0  0  0  0  0
  -29.1966  -20.9911   21.5643 C   0  0  0  0  0  0  0  0  0  0  0  0
  -28.9966  -21.9237   20.6172 C   0  0  0  0  0  0  0  0  0  0  0  0
  -28.7661  -24.1699   19.7435 C   0  0  0  0  0  0  0  0  0  0  0  0
  -23.7052  -10.0794   18.1100 C   0  0  0  0  0  0  0  0  0  0  0  0
  -28.9836  -23.3772   20.8140 C   0  0  0  0  0  0  0  0  0  0  0  0
  -24.0546  -30.2416   23.2201 C   0  0  0  0  0  0  0  0  0  0  0  0
  -21.7476  -30.4876   20.9531 C   0  0  0  0  0  0  0  0  0  0  0  0
  -20.6653  -29.6734   17.8206 C   0  0  0  0  0  0  0  0  0  0  0  0
  -30.3497  -14.6109   20.2336 C   0  0  0  0  0  0  0  0  0  0  0  0
  -25.3744  -32.7018   27.4936 C   0  0  0  0  0  0  0  0  0  0  0  0
  -25.3959  -30.9723   21.2144 C   0  0  0  0  0  0  0  0  0  0  0  0
  -23.5450  -28.7633   20.5515 C   0  0  0  0  0  0  0  0  0  0  0  0
  -24.0837  -32.5012   26.7036 C   0  0  0  0  0  0  0  0  0  0  0  0
  -30.7363  -11.6162   18.3469 C   0  0  0  0  0  0  0  0  0  0  0  0
  -23.8842  -31.0256   26.3726 C   0  0  0  0  0  0  0  0  0  0  0  0
  -29.3643  -10.9455   18.4462 C   0  0  0  0  0  0  0  0  0  0  0  0
  -31.1181  -12.3217   19.6470 C   0  0  0  0  0  0  0  0  0  0  0  0
  -28.7469  -12.5994   20.2546 C   0  0  0  0  0  0  0  0  0  0  0  0
  -25.0264  -30.4975   25.4963 C   0  0  1  0  0  0  0  0  0  0  0  0
  -24.0146  -30.8630   21.8527 C   0  0  1  0  0  0  0  0  0  0  0  0
  -28.2903  -11.9307   18.9476 C   0  0  2  0  0  0  0  0  0  0  0  0
  -26.7384  -19.4410   21.8092 C   0  0  0  0  0  0  0  0  0  0  0  0
  -31.6843  -19.6620   20.8269 C   0  0  0  0  0  0  0  0  0  0  0  0
  -29.2118  -23.8929   22.2110 C   0  0  0  0  0  0  0  0  0  0  0  0
  -18.7232  -29.9901   16.2631 C   0  0  0  0  0  0  0  0  0  0  0  0
  -20.1402  -28.4401   22.5449 C   0  0  0  0  0  0  0  0  0  0  0  0
  -18.7086  -28.0934   20.5204 C   0  0  0  0  0  0  0  0  0  0  0  0
  -18.7926  -30.3320   21.6179 C   0  0  0  0  0  0  0  0  0  0  0  0
  -22.3503  -31.0473   15.8126 C   0  0  0  0  0  0  0  0  0  0  0  0
  -28.7102  -25.6647   19.6847 C   0  0  0  0  0  0  0  0  0  1  0  0
  -20.7895  -29.5251   20.2938 C   0  0  1  0  0  0  0  0  0  0  0  0
  -20.0781  -30.5203   16.7059 C   0  0  2  0  0  0  0  0  0  0  0  0
  -19.6359  -29.0939   21.2429 C   0  0  0  0  0  0  0  0  0  0  0  0
  -26.5985  -10.7313   20.2820 N   0  0  0  0  0  0  0  0  0  0  0  0
  -26.9370  -11.2606   19.0940 N   0  0  0  0  0  0  0  0  0  0  0  0
  -23.0822  -30.0690   21.0499 N   0  0  0  0  0  0  0  0  0  0  0  0
  -30.0558  -13.2420   20.0585 N   0  0  0  0  0  0  0  0  0  0  0  0
  -26.1547  -11.5950   16.8833 N   0  0  0  0  0  0  0  0  0  0  0  0
  -22.7475   -9.3978   18.8732 N   0  0  0  0  0  0  0  0  0  0  0  0
  -29.2538  -15.3944   20.5939 N   0  0  0  0  0  0  0  0  0  0  0  0
  -24.8482  -30.9216   24.1241 N   0  0  0  0  0  0  0  0  0  0  0  0
  -20.3422  -30.1718   19.0650 N   0  0  0  0  0  0  0  0  0  0  0  0
  -20.9885  -30.5271   15.5261 N   0  3  0  0  0  0  0  0  0  0  0  0
  -23.4653  -10.3287   16.9042 O   0  0  0  0  0  0  0  0  0  0  0  0
  -23.4118  -29.2215   23.4392 O   0  0  0  0  0  0  0  0  0  0  0  0
  -21.3287  -31.5740   21.3604 O   0  0  0  0  0  0  0  0  0  0  0  0
  -21.3397  -28.6681   17.6086 O   0  0  0  0  0  0  0  0  0  0  0  0
  -31.4838  -15.0599   20.0491 O   0  0  0  0  0  0  0  0  0  0  0  0
  -22.5903   -7.6651   24.1655 O   0  0  0  0  0  0  0  0  0  0  0  0
  -27.4054  -26.0513   19.2553 O   0  0  0  0  0  0  0  0  0  1  0  0
  -20.0443   -2.9251   22.9594 F   0  0  0  0  0  0  0  0  0  0  0  0
  -23.2540   -5.3246   25.4786 F   0  0  0  0  0  0  0  0  0  0  0  0
  1  2  1  0  0  0  0
  1  5  2  0  0  0  0
  2  6  2  0  0  0  0
  3  8  2  0  0  0  0
  3 17  1  0  0  0  0
  4  9  1  0  0  0  0
  4 17  2  0  0  0  0
  5 20  1  0  0  0  0
  6 22  1  0  0  0  0
  7 10  2  0  0  0  0
  7 21  1  0  0  0  0
  8 27  1  0  0  0  0
  9 27  2  0  0  0  0
 10 28  1  0  0  0  0
 11 12  2  0  0  0  0
 11 29  1  0  0  0  0
 12 30  1  0  0  0  0
 13 23  1  0  0  0  0
 13 28  2  0  0  0  0
 14 24  2  0  0  0  0
 14 26  1  0  0  0  0
 15 25  1  0  0  0  0
 15 26  2  0  0  0  0
 16 30  2  0  0  0  0
 16 31  1  0  0  0  0
 17 32  1  0  0  0  0
 18 24  1  0  0  0  0
 18 25  2  0  0  0  0
 18 34  1  0  0  0  0
 19 32  1  0  0  0  0
 19 33  2  0  0  0  0
 19 37  1  0  0  0  0
 20 22  2  0  0  0  0
 20 43  1  0  0  0  0
 21 23  2  0  0  0  0
 21 44  1  0  0  0  0
 22 52  1  0  0  0  0
 23 45  1  0  0  0  0
 24 55  1  0  0  0  0
 25 56  1  0  0  0  0
 26 73  1  0  0  0  0
 27 82  1  0  0  0  0
 28 83  1  0  0  0  0
 29 31  2  0  0  0  0
 29 82  1  0  0  0  0
 30 84  1  0  0  0  0
 31 85  1  0  0  0  0
 32 67  2  0  0  0  0
 33 68  1  0  0  0  0
 33 71  1  0  0  0  0
 34 35  2  0  0  0  0
 35 38  1  0  0  0  0
 36 38  2  0  0  0  0
 36 63  1  0  0  0  0
 37 72  1  0  0  0  0
 37 77  2  0  0  0  0
 38 57  1  0  0  0  0
 39 53  1  0  0  0  0
 39 74  1  0  0  0  0
 39 78  2  0  0  0  0
 40 64  1  0  0  0  0
 40 69  1  0  0  0  0
 40 79  2  0  0  0  0
 41 65  1  0  0  0  0
 41 75  1  0  0  0  0
 41 80  2  0  0  0  0
 42 70  1  0  0  0  0
 42 73  1  0  0  0  0
 42 81  2  0  0  0  0
 43 46  1  0  0  0  0
 44 53  1  0  0  0  0
 45 69  1  0  0  0  0
 46 48  1  0  0  0  0
 47 49  1  0  0  0  0
 47 50  1  0  0  0  0
 48 52  1  0  0  0  0
 49 54  1  0  0  0  0
 50 70  1  0  0  0  0
 51 54  1  0  0  0  0
 51 70  1  0  0  0  0
 52 74  1  0  0  0  0
 53 69  1  0  0  0  0
 54 68  1  0  0  0  0
 58 65  1  0  0  0  0
 59 66  1  0  0  0  0
 60 66  1  0  0  0  0
 61 66  1  0  0  0  0
 62 76  1  0  0  0  0
 63 83  1  0  0  0  0
 64 66  1  0  0  0  0
 64 75  1  0  0  0  0
 65 76  1  0  0  0  0
 67 68  1  0  0  0  0
M  CHG  1  76   1
M  ISO  4  42 100  63 101  73 100  83 101
M  END
> <Batch ID>
0123

> <Smiles>
CNC(C)C(=O)NC(C(=O)N1Cc2cc([101O:1][101CH2:1]C=C(C)C=Cc3c(C)cc([100NH:0][100C:0](=O)N4CCCC(n5nc(-c6ccc(Oc7ccc(F)cc7F)cc6)c(C(N)=O)c5N)C4)cc3C)ccc2CC1C(=O)NC1CCCc2ccccc21)C(C)(C)C

> <Shape>
0.323

> <Color>
0.104

> <Negative vol penalty>
0.000

$$$$

  -OEChem-04052302033D

 83 91  0     1  0  0  0  0  0999 V2000
  -19.3224  -19.5294   19.5968 C   0  0  0  0  0  0  0  0  0  0  0  0
  -20.4211  -19.7576   20.4191 C   0  0  0  0  0  0  0  0  0  0  0  0
  -23.0752   -9.8687   19.9408 C   0  0  0  0  0  0  0  0  0  0  0  0
  -23.8343   -9.8757   22.2344 C   0  0  0  0  0  0  0  0  0  0  0  0
  -18.3208  -20.4934   19.4901 C   0  0  0  0  0  0  0  0  0  0  0  0
  -20.5193  -20.9505   21.1345 C   0  0  0  0  0  0  0  0  0  0  0  0
  -21.9497  -20.2233   25.9376 C   0  0  0  0  0  0  0  0  0  0  0  0
  -22.3308   -8.7159   20.1906 C   0  0  0  0  0  0  0  0  0  0  0  0
  -23.0898   -8.7229   22.4843 C   0  0  0  0  0  0  0  0  0  0  0  0
  -23.3030  -19.9813   26.1693 C   0  0  0  0  0  0  0  0  0  0  0  0
  -19.8611   -7.9265   23.0858 C   0  0  0  0  0  0  0  0  0  0  0  0
  -19.1037   -7.8870   24.2564 C   0  0  0  0  0  0  0  0  0  0  0  0
  -31.8536  -18.3591   24.2017 C   0  0  0  0  0  0  0  0  0  0  0  0
  -29.8802  -17.4563   23.1399 C   0  0  0  0  0  0  0  0  0  0  0  0
  -23.5976  -22.2858   26.8189 C   0  0  0  0  0  0  0  0  0  0  0  0
  -32.0642  -16.6076   22.5510 C   0  0  0  0  0  0  0  0  0  0  0  0
  -20.3441   -5.9491   24.9936 C   0  0  0  0  0  0  0  0  0  0  0  0
  -23.8270  -10.4486   20.9627 C   0  0  0  0  0  0  0  0  0  0  0  0
  -30.4678  -18.3411   24.0441 C   0  0  0  0  0  0  0  0  0  0  0  0
  -24.1699  -12.9736   20.8425 C   0  0  0  0  0  0  0  0  0  0  0  0
  -18.4020  -21.6946   20.2120 C   0  0  0  0  0  0  0  0  0  0  0  0
  -21.4115  -21.5031   26.1348 C   0  0  0  0  0  0  0  0  0  0  0  0
  -19.5185  -21.9320   21.0363 C   0  0  0  0  0  0  0  0  0  0  0  0
  -22.2365  -22.5407   26.5915 C   0  0  0  0  0  0  0  0  0  0  0  0
  -32.6518  -17.4924   23.4551 C   0  0  0  0  0  0  0  0  0  0  0  0
  -30.6784  -16.5895   22.3933 C   0  0  0  0  0  0  0  0  0  0  0  0
  -22.3380   -8.1430   21.4624 C   0  0  0  0  0  0  0  0  0  0  0  0
  -24.1278  -21.0134   26.6072 C   0  0  0  0  0  0  0  0  0  0  0  0
  -20.8599   -6.9772   22.8690 C   0  0  0  0  0  0  0  0  0  0  0  0
  -19.3452   -6.8983   25.2103 C   0  0  0  0  0  0  0  0  0  0  0  0
  -21.1014   -5.9886   23.8229 C   0  0  0  0  0  0  0  0  0  0  0  0
  -24.5967  -11.6391   20.7051 C   0  0  0  0  0  0  0  0  0  0  0  0
  -25.2625  -13.7226   20.4795 C   0  0  0  0  0  0  0  0  0  0  0  0
  -29.6241  -19.2569   24.8321 C   0  0  0  0  0  0  0  0  0  0  0  0
  -28.3142  -19.0823   25.0557 C   0  0  0  0  0  0  0  0  0  0  0  0
  -22.8995  -13.4900   21.2609 C   0  0  0  0  0  0  0  0  0  0  0  0
  -27.5462  -20.0758   25.8612 C   0  0  0  0  0  0  0  0  0  0  0  0
  -20.0041  -23.6566   24.2679 C   0  0  0  0  0  0  0  0  0  0  0  0
  -19.5488  -25.2187   27.0741 C   0  0  0  0  0  0  0  0  0  0  0  0
  -20.5430  -25.7332   30.2980 C   0  0  0  0  0  0  0  0  0  0  0  0
  -30.7290  -14.7660   20.6560 C   0  0  0  0  0  0  0  0  0  0  0  0
  -17.3180  -22.7269   20.0278 C   0  0  0  0  0  0  0  0  0  0  0  0
  -19.9440  -21.7412   25.9061 C   0  0  0  0  0  0  0  0  0  0  0  0
  -21.7035  -23.9277   26.8379 C   0  0  0  0  0  0  0  0  0  0  0  0
  -17.3133  -23.8047   21.1088 C   0  0  0  0  0  0  0  0  0  0  0  0
  -29.6145  -12.3523   18.2876 C   0  0  0  0  0  0  0  0  0  0  0  0
  -18.7271  -24.3237   21.3513 C   0  0  0  0  0  0  0  0  0  0  0  0
  -28.1746  -12.0614   18.7167 C   0  0  0  0  0  0  0  0  0  0  0  0
  -30.5293  -12.5809   19.4896 C   0  0  0  0  0  0  0  0  0  0  0  0
  -28.6221  -13.3063   20.8701 C   0  0  0  0  0  0  0  0  0  0  0  0
  -19.6487  -23.2030   21.8474 C   0  0  1  0  0  0  0  0  0  0  0  0
  -19.6100  -23.2070   25.6463 C   0  0  1  0  0  0  0  0  0  0  0  0
  -27.6496  -13.1333   19.6919 C   0  0  2  0  0  0  0  0  0  0  0  0
  -34.1337  -17.5117   23.6228 C   0  0  0  0  0  0  0  0  0  0  0  0
  -20.0009  -27.0985   32.3326 C   0  0  0  0  0  0  0  0  0  0  0  0
  -20.8671  -27.6521   25.7893 C   0  0  0  0  0  0  0  0  0  0  0  0
  -21.1574  -28.6177   28.0810 C   0  0  0  0  0  0  0  0  0  0  0  0
  -18.8673  -28.1714   27.1984 C   0  0  0  0  0  0  0  0  0  0  0  0
  -19.9525  -23.3183   31.9038 C   0  0  0  0  0  0  0  0  0  0  0  0
  -26.0748  -19.7690   26.0442 C   0  0  0  0  0  0  0  0  0  1  0  0
  -20.3351  -26.2276   27.8759 C   0  0  1  0  0  0  0  0  0  0  0  0
  -19.7594  -25.7896   31.5969 C   0  0  2  0  0  0  0  0  0  0  0  0
  -20.3175  -27.6417   27.2297 C   0  0  0  0  0  0  0  0  0  0  0  0
  -25.8616  -11.5427   20.2872 N   0  0  0  0  0  0  0  0  0  0  0  0
  -26.2391  -12.8261   20.1589 N   0  0  0  0  0  0  0  0  0  0  0  0
  -20.2634  -24.1121   26.5939 N   0  0  0  0  0  0  0  0  0  0  0  0
  -29.9704  -13.6120   20.3666 N   0  0  0  0  0  0  0  0  0  0  0  0
  -25.4735  -15.0539   20.4064 N   0  0  0  0  0  0  0  0  0  0  0  0
  -21.8871  -12.5813   21.5979 N   0  0  0  0  0  0  0  0  0  0  0  0
  -30.0818  -15.6914   21.4741 N   0  0  0  0  0  0  0  0  0  0  0  0
  -19.4100  -22.9358   23.2496 N   0  0  0  0  0  0  0  0  0  0  0  0
  -19.7951  -26.1828   29.2304 N   0  0  0  0  0  0  0  0  0  0  0  0
  -20.1586  -24.6668   32.4919 N   0  3  0  0  0  0  0  0  0  0  0  0
  -22.6637  -14.7207   21.3180 O   0  0  0  0  0  0  0  0  0  0  0  0
  -28.0751  -21.0742   26.3423 O   0  0  0  0  0  0  0  0  0  0  0  0
  -20.7881  -24.5895   24.1378 O   0  0  0  0  0  0  0  0  0  0  0  0
  -18.3434  -25.4020   26.8870 O   0  0  0  0  0  0  0  0  0  0  0  0
  -21.7038  -25.3339   30.2372 O   0  0  0  0  0  0  0  0  0  0  0  0
  -31.8584  -14.9342   20.1887 O   0  0  0  0  0  0  0  0  0  0  0  0
  -21.6115   -7.0182   21.7066 O   0  0  0  0  0  0  0  0  0  0  0  0
  -25.4493  -20.7801   26.8334 O   0  0  0  0  0  0  0  0  0  1  0  0
  -18.6189   -6.8615   26.3351 F   0  0  0  0  0  0  0  0  0  0  0  0
  -22.0605   -5.0747   23.6207 F   0  0  0  0  0  0  0  0  0  0  0  0
  1  2  1  0  0  0  0
  1  5  2  0  0  0  0
  2  6  2  0  0  0  0
  3  8  2  0  0  0  0
  3 18  1  0  0  0  0
  4  9  1  0  0  0  0
  4 18  2  0  0  0  0
  5 21  1  0  0  0  0
  6 23  1  0  0  0  0
  7 10  2  0  0  0  0
  7 22  1  0  0  0  0
  8 27  1  0  0  0  0
  9 27  2  0  0  0  0
 10 28  1  0  0  0  0
 11 12  2  0  0  0  0
 11 29  1  0  0  0  0
 12 30  1  0  0  0  0
 13 19  1  0  0  0  0
 13 25  2  0  0  0  0
 14 19  2  0  0  0  0
 14 26  1  0  0  0  0
 15 24  1  0  0  0  0
 15 28  2  0  0  0  0
 16 25  1  0  0  0  0
 16 26  2  0  0  0  0
 17 30  2  0  0  0  0
 17 31  1  0  0  0  0
 18 32  1  0  0  0  0
 19 34  1  0  0  0  0
 20 32  1  0  0  0  0
 20 33  2  0  0  0  0
 20 36  1  0  0  0  0
 21 23  2  0  0  0  0
 21 42  1  0  0  0  0
 22 24  2  0  0  0  0
 22 43  1  0  0  0  0
 23 51  1  0  0  0  0
 24 44  1  0  0  0  0
 25 54  1  0  0  0  0
 26 70  1  0  0  0  0
 27 80  1  0  0  0  0
 28 81  1  0  0  0  0
 29 31  2  0  0  0  0
 29 80  1  0  0  0  0
 30 82  1  0  0  0  0
 31 83  1  0  0  0  0
 32 64  2  0  0  0  0
 33 65  1  0  0  0  0
 33 68  1  0  0  0  0
 34 35  2  0  0  0  0
 35 37  1  0  0  0  0
 36 69  1  0  0  0  0
 36 74  2  0  0  0  0
 37 60  1  0  0  0  0
 37 75  2  0  0  0  0
 38 52  1  0  0  0  0
 38 71  1  0  0  0  0
 38 76  2  0  0  0  0
 39 61  1  0  0  0  0
 39 66  1  0  0  0  0
 39 77  2  0  0  0  0
 40 62  1  0  0  0  0
 40 72  1  0  0  0  0
 40 78  2  0  0  0  0
 41 67  1  0  0  0  0
 41 70  1  0  0  0  0
 41 79  2  0  0  0  0
 42 45  1  0  0  0  0
 43 52  1  0  0  0  0
 44 66  1  0  0  0  0
 45 47  1  0  0  0  0
 46 48  1  0  0  0  0
 46 49  1  0  0  0  0
 47 51  1  0  0  0  0
 48 53  1  0  0  0  0
 49 67  1  0  0  0  0
 50 53  1  0  0  0  0
 50 67  1  0  0  0  0
 51 71  1  0  0  0  0
 52 66  1  0  0  0  0
 53 65  1  0  0  0  0
 55 62  1  0  0  0  0
 56 63  1  0  0  0  0
 57 63  1  0  0  0  0
 58 63  1  0  0  0  0
 59 73  1  0  0  0  0
 60 81  1  0  0  0  0
 61 63  1  0  0  0  0
 61 72  1  0  0  0  0
 62 73  1  0  0  0  0
 64 65  1  0  0  0  0
M  CHG  1  73   1
M  ISO  4  41 100  60 101  70 100  81 101
M  END
> <Batch ID>
0123

> <Smiles>
CNC(C)C(=O)NC(C(=O)N1Cc2cc([101O:1][101CH2:1]C(=O)C=Cc3cc(C)cc([100NH:0][100C:0](=O)N4CCCC(n5nc(-c6ccc(Oc7ccc(F)cc7F)cc6)c(C(N)=O)c5N)C4)c3)ccc2CC1C(=O)NC1CCCc2ccccc21)C(C)(C)C

> <Shape>
0.170

> <Color>
0.196

> <Negative vol penalty>
0.000

$$$$

  -OEChem-04052302033D

 83 91  0     1  0  0  0  0  0999 V2000
  -31.1706  -25.5358   18.2563 C   0  0  0  0  0  0  0  0  0  0  0  0
  -29.7836  -25.5394   18.1477 C   0  0  0  0  0  0  0  0  0  0  0  0
  -27.8495  -14.9688   21.3814 C   0  0  0  0  0  0  0  0  0  0  0  0
  -26.0891  -15.3942   19.7823 C   0  0  0  0  0  0  0  0  0  0  0  0
  -31.7791  -26.0130   19.4165 C   0  0  0  0  0  0  0  0  0  0  0  0
  -29.0043  -26.0193   19.1998 C   0  0  0  0  0  0  0  0  0  0  0  0
  -23.6972  -29.0449   18.7680 C   0  0  0  0  0  0  0  0  0  0  0  0
  -20.5164  -23.9614   21.5435 C   0  0  0  0  0  0  0  0  0  0  0  0
  -21.8334  -23.6037   21.8318 C   0  0  0  0  0  0  0  0  0  0  0  0
  -27.4464  -13.6365   21.4707 C   0  0  0  0  0  0  0  0  0  0  0  0
  -25.6860  -14.0618   19.8715 C   0  0  0  0  0  0  0  0  0  0  0  0
  -22.3704  -28.6327   18.8837 C   0  0  0  0  0  0  0  0  0  0  0  0
  -24.4194  -10.6859   19.4060 C   0  0  0  0  0  0  0  0  0  0  0  0
  -24.1367  -10.0121   18.2179 C   0  0  0  0  0  0  0  0  0  0  0  0
  -22.3650  -29.3198   21.1961 C   0  0  0  0  0  0  0  0  0  0  0  0
  -20.6593  -22.7892   19.4358 C   0  0  0  0  0  0  0  0  0  0  0  0
  -26.3990  -10.3961   17.4618 C   0  0  0  0  0  0  0  0  0  0  0  0
  -27.1708  -15.8477   20.5372 C   0  0  0  0  0  0  0  0  0  0  0  0
  -28.5285  -17.7699   19.5526 C   0  0  0  0  0  0  0  0  0  0  0  0
  -31.0072  -26.5079   20.4794 C   0  0  0  0  0  0  0  0  0  0  0  0
  -24.3724  -29.5885   19.8703 C   0  0  0  0  0  0  0  0  0  0  0  0
  -29.6030  -26.5023   20.3758 C   0  0  0  0  0  0  0  0  0  0  0  0
  -23.6995  -29.7405   21.0910 C   0  0  0  0  0  0  0  0  0  0  0  0
  -19.9293  -23.5541   20.3455 C   0  0  0  0  0  0  0  0  0  0  0  0
  -21.9764  -22.4316   19.7240 C   0  0  0  0  0  0  0  0  0  0  0  0
  -22.5635  -22.8389   20.9220 C   0  0  0  0  0  0  0  0  0  0  0  0
  -26.3647  -13.1830   20.7157 C   0  0  0  0  0  0  0  0  0  0  0  0
  -21.7050  -28.7674   20.0986 C   0  0  0  0  0  0  0  0  0  0  0  0
  -25.6919  -11.2149   19.6220 C   0  0  0  0  0  0  0  0  0  0  0  0
  -25.1265   -9.8672   17.2458 C   0  0  0  0  0  0  0  0  0  0  0  0
  -26.6817  -11.0700   18.6499 C   0  0  0  0  0  0  0  0  0  0  0  0
  -27.5863  -17.2243   20.4450 C   0  0  0  0  0  0  0  0  0  0  0  0
  -28.5650  -19.1065   19.8667 C   0  0  0  0  0  0  0  0  0  0  0  0
  -29.3015  -17.1261   18.5310 C   0  0  0  0  0  0  0  0  0  0  0  0
  -26.9313  -28.7610   21.5646 C   0  0  0  0  0  0  0  0  0  0  0  0
  -18.9082  -26.4697   20.0701 C   0  0  0  0  0  0  0  0  0  0  0  0
  -26.4257  -31.6260   22.9993 C   0  0  0  0  0  0  0  0  0  0  0  0
  -24.2374  -34.1200   23.7981 C   0  0  0  0  0  0  0  0  0  0  0  0
  -24.6156  -22.8179   22.3831 C   0  0  0  0  0  0  0  0  0  0  0  0
  -31.7083  -26.9694   21.7324 C   0  0  0  0  0  0  0  0  0  0  0  0
  -25.7953  -30.0530   19.7218 C   0  0  0  0  0  0  0  0  0  0  0  0
  -24.3732  -30.3367   22.2990 C   0  0  0  0  0  0  0  0  0  0  0  0
  -30.8240  -27.8082   22.6515 C   0  0  0  0  0  0  0  0  0  0  0  0
  -27.9080  -22.1096   23.5387 C   0  0  0  0  0  0  0  0  0  0  0  0
  -29.4595  -27.1492   22.8266 C   0  0  0  0  0  0  0  0  0  0  0  0
  -28.2872  -20.8295   22.7907 C   0  0  0  0  0  0  0  0  0  0  0  0
  -26.4314  -22.1215   23.9300 C   0  0  0  0  0  0  0  0  0  0  0  0
  -25.8738  -20.5954   22.0782 C   0  0  0  0  0  0  0  0  0  0  0  0
  -28.7244  -27.0377   21.4855 C   0  0  1  0  0  0  0  0  0  0  0  0
  -26.5441  -30.1183   21.0493 C   0  0  1  0  0  0  0  0  0  0  0  0
  -27.3367  -20.5662   21.6063 C   0  0  2  0  0  0  0  0  0  0  0  0
  -22.7357  -21.6142   18.7296 C   0  0  0  0  0  0  0  0  0  0  0  0
  -24.1080  -36.3142   25.0090 C   0  0  0  0  0  0  0  0  0  0  0  0
  -26.4404  -30.1502   25.6698 C   0  0  0  0  0  0  0  0  0  0  0  0
  -25.3844  -32.1674   26.7110 C   0  0  0  0  0  0  0  0  0  0  0  0
  -27.6498  -32.3392   25.6809 C   0  0  0  0  0  0  0  0  0  0  0  0
  -23.4555  -35.5648   21.3363 C   0  0  0  0  0  0  0  0  0  0  0  0
  -18.5044  -23.9434   20.0326 C   0  0  0  0  0  0  0  0  0  0  0  0
  -18.3868  -25.2738   19.2864 C   0  0  0  0  0  0  0  0  0  0  0  0
  -19.9896  -27.2825   19.3856 C   0  0  0  0  0  0  0  0  0  1  0  0
  -25.6239  -32.1000   24.1873 C   0  0  1  0  0  0  0  0  0  0  0  0
  -24.3403  -35.6293   23.6712 C   0  0  2  0  0  0  0  0  0  0  0  0
  -26.2623  -31.6762   25.5402 C   0  0  0  0  0  0  0  0  0  0  0  0
  -27.0622  -18.1395   21.2646 N   0  0  0  0  0  0  0  0  0  0  0  0
  -27.6773  -19.2736   20.8885 N   0  0  0  0  0  0  0  0  0  0  0  0
  -25.7668  -30.7701   22.1053 N   0  0  0  0  0  0  0  0  0  0  0  0
  -25.5912  -21.8697   22.7572 N   0  0  0  0  0  0  0  0  0  0  0  0
  -29.2696  -20.1433   19.3658 N   0  0  0  0  0  0  0  0  0  0  0  0
  -29.1414  -15.7467   18.3414 N   0  0  0  0  0  0  0  0  0  0  0  0
  -23.9000  -22.4859   21.2332 N   0  0  0  0  0  0  0  0  0  0  0  0
  -28.1586  -28.3162   21.1115 N   0  0  0  0  0  0  0  0  0  0  0  0
  -25.4682  -33.5416   24.0257 N   0  0  0  0  0  0  0  0  0  0  0  0
  -23.3295  -36.1376   22.7012 N   0  3  0  0  0  0  0  0  0  0  0  0
  -30.1224  -17.7525   17.8187 O   0  0  0  0  0  0  0  0  0  0  0  0
  -26.1734  -28.1622   22.3188 O   0  0  0  0  0  0  0  0  0  0  0  0
  -18.4626  -26.7854   21.1720 O   0  0  0  0  0  0  0  0  0  0  0  0
  -27.5912  -32.0070   22.8654 O   0  0  0  0  0  0  0  0  0  0  0  0
  -23.1713  -33.5151   23.7082 O   0  0  0  0  0  0  0  0  0  0  0  0
  -24.4473  -23.8614   23.0192 O   0  0  0  0  0  0  0  0  0  0  0  0
  -25.9713  -11.8829   20.8024 O   0  0  0  0  0  0  0  0  0  0  0  0
  -20.4101  -28.3653   20.2145 O   0  0  0  0  0  0  0  0  0  1  0  0
  -24.8552   -9.2187   16.1055 F   0  0  0  0  0  0  0  0  0  0  0  0
  -27.9064  -11.5750   18.8522 F   0  0  0  0  0  0  0  0  0  0  0  0
  1  2  1  0  0  0  0
  1  5  2  0  0  0  0
  2  6  2  0  0  0  0
  3 10  2  0  0  0  0
  3 18  1  0  0  0  0
  4 11  1  0  0  0  0
  4 18  2  0  0  0  0
  5 20  1  0  0  0  0
  6 22  1  0  0  0  0
  7 12  2  0  0  0  0
  7 21  1  0  0  0  0
  8  9  2  0  0  0  0
  8 24  1  0  0  0  0
  9 26  1  0  0  0  0
 10 27  1  0  0  0  0
 11 27  2  0  0  0  0
 12 28  1  0  0  0  0
 13 14  2  0  0  0  0
 13 29  1  0  0  0  0
 14 30  1  0  0  0  0
 15 23  1  0  0  0  0
 15 28  2  0  0  0  0
 16 24  2  0  0  0  0
 16 25  1  0  0  0  0
 17 30  2  0  0  0  0
 17 31  1  0  0  0  0
 18 32  1  0  0  0  0
 19 32  1  0  0  0  0
 19 33  2  0  0  0  0
 19 34  1  0  0  0  0
 20 22  2  0  0  0  0
 20 40  1  0  0  0  0
 21 23  2  0  0  0  0
 21 41  1  0  0  0  0
 22 49  1  0  0  0  0
 23 42  1  0  0  0  0
 24 58  1  0  0  0  0
 25 26  2  0  0  0  0
 25 52  1  0  0  0  0
 26 70  1  0  0  0  0
 27 80  1  0  0  0  0
 28 81  1  0  0  0  0
 29 31  2  0  0  0  0
 29 80  1  0  0  0  0
 30 82  1  0  0  0  0
 31 83  1  0  0  0  0
 32 64  2  0  0  0  0
 33 65  1  0  0  0  0
 33 68  1  0  0  0  0
 34 69  1  0  0  0  0
 34 74  2  0  0  0  0
 35 50  1  0  0  0  0
 35 71  1  0  0  0  0
 35 75  2  0  0  0  0
 36 59  1  0  0  0  0
 36 60  1  0  0  0  0
 36 76  2  0  0  0  0
 37 61  1  0  0  0  0
 37 66  1  0  0  0  0
 37 77  2  0  0  0  0
 38 62  1  0  0  0  0
 38 72  1  0  0  0  0
 38 78  2  0  0  0  0
 39 67  1  0  0  0  0
 39 70  1  0  0  0  0
 39 79  2  0  0  0  0
 40 43  1  0  0  0  0
 41 50  1  0  0  0  0
 42 66  1  0  0  0  0
 43 45  1  0  0  0  0
 44 46  1  0  0  0  0
 44 47  1  0  0  0  0
 45 49  1  0  0  0  0
 46 51  1  0  0  0  0
 47 67  1  0  0  0  0
 48 51  1  0  0  0  0
 48 67  1  0  0  0  0
 49 71  1  0  0  0  0
 50 66  1  0  0  0  0
 51 65  1  0  0  0  0
 53 62  1  0  0  0  0
 54 63  1  0  0  0  0
 55 63  1  0  0  0  0
 56 63  1  0  0  0  0
 57 73  1  0  0  0  0
 58 59  1  0  0  0  0
 60 81  1  0  0  0  0
 61 63  1  0  0  0  0
 61 72  1  0  0  0  0
 62 73  1  0  0  0  0
 64 65  1  0  0  0  0
M  CHG  1  73   1
M  ISO  4  39 100  60 101  70 100  81 101
M  END
> <Batch ID>
0123

> <Smiles>
CNC(C)C(=O)NC(C(=O)N1Cc2cc([101O:1][101CH2:1]C(=O)CCc3ccc([100NH:0][100C:0](=O)N4CCCC(n5nc(-c6ccc(Oc7ccc(F)cc7F)cc6)c(C(N)=O)c5N)C4)c(C)c3)ccc2CC1C(=O)NC1CCCc2ccccc21)C(C)(C)C

> <Shape>
0.278

> <Color>
0.082

> <Negative vol penalty>
0.000

$$$$

  -OEChem-04052302033D

 85 93  0     1  0  0  0  0  0999 V2000
  -28.5387  -16.7359   14.3606 C   0  0  0  0  0  0  0  0  0  0  0  0
  -28.9586  -16.1457   15.5483 C   0  0  0  0  0  0  0  0  0  0  0  0
  -26.5531  -28.2576   18.9088 C   0  0  0  0  0  0  0  0  0  0  0  0
  -26.2800  -27.2648   21.0944 C   0  0  0  0  0  0  0  0  0  0  0  0
  -27.3034  -17.3798   14.3021 C   0  0  0  0  0  0  0  0  0  0  0  0
  -28.1438  -16.1999   16.6787 C   0  0  0  0  0  0  0  0  0  0  0  0
  -27.8532  -11.7505   19.0793 C   0  0  0  0  0  0  0  0  0  0  0  0
  -25.4715  -29.1025   19.1574 C   0  0  0  0  0  0  0  0  0  0  0  0
  -25.1983  -28.1097   21.3430 C   0  0  0  0  0  0  0  0  0  0  0  0
  -28.9331  -11.3895   19.8839 C   0  0  0  0  0  0  0  0  0  0  0  0
  -22.5913  -30.2533   22.6946 C   0  0  0  0  0  0  0  0  0  0  0  0
  -22.5308  -30.8817   23.9383 C   0  0  0  0  0  0  0  0  0  0  0  0
  -29.5185  -18.0760   20.7683 C   0  0  0  0  0  0  0  0  0  0  0  0
  -29.7572  -17.4878   23.0994 C   0  0  0  0  0  0  0  0  0  0  0  0
  -27.7093  -12.1034   21.8363 C   0  0  0  0  0  0  0  0  0  0  0  0
  -28.4391  -19.4116   22.4678 C   0  0  0  0  0  0  0  0  0  0  0  0
  -24.6485  -31.9579   23.4977 C   0  0  0  0  0  0  0  0  0  0  0  0
  -26.9574  -27.3387   19.8773 C   0  0  0  0  0  0  0  0  0  0  0  0
  -30.0375  -17.2388   21.7559 C   0  0  0  0  0  0  0  0  0  0  0  0
  -29.4306  -26.7144   19.9038 C   0  0  0  0  0  0  0  0  0  0  0  0
  -26.4688  -17.4335   15.4296 C   0  0  0  0  0  0  0  0  0  0  0  0
  -26.6956  -12.3018   19.6471 C   0  0  0  0  0  0  0  0  0  0  0  0
  -26.8968  -16.8463   16.6355 C   0  0  0  0  0  0  0  0  0  0  0  0
  -26.6152  -12.4683   21.0370 C   0  0  0  0  0  0  0  0  0  0  0  0
  -28.7194  -19.1625   21.1243 C   0  0  0  0  0  0  0  0  0  0  0  0
  -24.7941  -29.0286   20.3745 C   0  0  0  0  0  0  0  0  0  0  0  0
  -28.8623  -11.5686   21.2623 C   0  0  0  0  0  0  0  0  0  0  0  0
  -23.6805  -30.4771   21.8523 C   0  0  0  0  0  0  0  0  0  0  0  0
  -23.5594  -31.7340   24.3399 C   0  0  0  0  0  0  0  0  0  0  0  0
  -28.9580  -18.5743   23.4554 C   0  0  0  0  0  0  0  0  0  0  0  0
  -24.7091  -31.3294   22.2539 C   0  0  0  0  0  0  0  0  0  0  0  0
  -28.0743  -26.4653   19.6209 C   0  0  0  0  0  0  0  0  0  0  0  0
  -30.0840  -25.5854   19.4736 C   0  0  0  0  0  0  0  0  0  0  0  0
  -30.8473  -14.8938   22.2781 C   0  0  0  0  0  0  0  0  0  0  0  0
  -31.9190  -14.1039   22.4296 C   0  0  0  0  0  0  0  0  0  0  0  0
  -30.8931  -16.0800   21.3766 C   0  0  0  0  0  0  0  0  0  0  0  0
  -30.0450  -27.8634   20.5020 C   0  0  0  0  0  0  0  0  0  0  0  0
  -25.1728  -15.0796   19.3851 C   0  0  0  0  0  0  0  0  0  0  0  0
  -22.9692  -13.6035   21.2525 C   0  0  0  0  0  0  0  0  0  0  0  0
  -22.2737  -11.1662   23.5378 C   0  0  0  0  0  0  0  0  0  0  0  0
  -28.3730  -19.9071   18.7427 C   0  0  0  0  0  0  0  0  0  0  0  0
  -25.1630  -18.1817   15.3311 C   0  0  0  0  0  0  0  0  0  0  0  0
  -25.5291  -12.6613   18.7681 C   0  0  0  0  0  0  0  0  0  0  0  0
  -25.3871  -13.0371   21.6978 C   0  0  0  0  0  0  0  0  0  0  0  0
  -24.1950  -17.8698   16.4695 C   0  0  0  0  0  0  0  0  0  0  0  0
  -29.7391  -22.0565   16.2545 C   0  0  0  0  0  0  0  0  0  0  0  0
  -24.9174  -17.9156   17.8122 C   0  0  0  0  0  0  0  0  0  0  0  0
  -29.5962  -23.4531   16.8638 C   0  0  0  0  0  0  0  0  0  0  0  0
  -28.5521  -21.1609   16.6047 C   0  0  0  0  0  0  0  0  0  0  0  0
  -28.1041  -22.4633   18.6473 C   0  0  0  0  0  0  0  0  0  0  0  0
  -26.0303  -16.8625   17.8761 C   0  0  1  0  0  0  0  0  0  0  0  0
  -24.5988  -13.6912   19.4015 C   0  0  1  0  0  0  0  0  0  0  0  0
  -29.3070  -23.3814   18.3760 C   0  0  2  0  0  0  0  0  0  0  0  0
  -20.3911  -10.2291   24.9072 C   0  0  0  0  0  0  0  0  0  0  0  0
  -23.1756  -15.9784   23.1570 C   0  0  0  0  0  0  0  0  0  0  0  0
  -22.0467  -14.5858   24.9047 C   0  0  0  0  0  0  0  0  0  0  0  0
  -20.8497  -15.1372   22.7867 C   0  0  0  0  0  0  0  0  0  0  0  0
  -22.4974   -8.5145   22.2427 C   0  0  0  0  0  0  0  0  0  0  0  0
  -31.9358  -12.9012   23.3293 C   0  0  0  0  0  0  0  0  0  0  0  0
  -32.2240  -11.6012   22.5771 C   0  0  0  0  0  0  0  0  0  0  0  0
  -31.2167  -11.3063   21.4718 C   0  0  0  0  0  0  0  0  0  1  0  0
  -22.7470  -13.4668   22.7394 C   0  0  1  0  0  0  0  0  0  0  0  0
  -21.1644  -10.1318   23.6013 C   0  0  2  0  0  0  0  0  0  0  0  0
  -22.2288  -14.7831   23.3846 C   0  0  0  0  0  0  0  0  0  0  0  0
  -27.8763  -25.2719   19.0546 N   0  0  0  0  0  0  0  0  0  0  0  0
  -31.5806  -16.1261   20.2801 N   0  0  0  0  0  0  0  0  0  0  0  0
  -29.1170  -24.7611   18.9781 N   0  0  0  0  0  0  0  0  0  0  0  0
  -24.2755  -13.3792   20.7951 N   0  0  0  0  0  0  0  0  0  0  0  0
  -28.3408  -21.1380   18.0538 N   0  0  0  0  0  0  0  0  0  0  0  0
  -31.3857  -25.2275   19.4744 N   0  0  0  0  0  0  0  0  0  0  0  0
  -29.2269  -28.9348   20.8856 N   0  0  0  0  0  0  0  0  0  0  0  0
  -28.1919  -20.0132   20.1213 N   0  0  0  0  0  0  0  0  0  0  0  0
  -25.4709  -15.5503   18.1205 N   0  0  0  0  0  0  0  0  0  0  0  0
  -21.8572  -12.3242   22.9159 N   0  0  0  0  0  0  0  0  0  0  0  0
  -21.7306   -8.7577   23.4916 N   0  3  0  0  0  0  0  0  0  0  0  0
  -31.2847  -27.9447   20.6758 O   0  0  0  0  0  0  0  0  0  0  0  0
  -25.3321  -15.6801   20.4414 O   0  0  0  0  0  0  0  0  0  0  0  0
  -22.0172  -13.8913   20.5227 O   0  0  0  0  0  0  0  0  0  0  0  0
  -23.3962  -10.9681   23.9975 O   0  0  0  0  0  0  0  0  0  0  0  0
  -28.5753  -18.8405   18.1567 O   0  0  0  0  0  0  0  0  0  0  0  0
  -23.7387  -29.8530   20.6175 O   0  0  0  0  0  0  0  0  0  0  0  0
  -29.9151  -11.2176   22.0499 O   0  0  0  0  0  0  0  0  0  1  0  0
  -23.5004  -32.3387   25.5337 F   0  0  0  0  0  0  0  0  0  0  0  0
  -28.6913  -18.8153   24.7457 F   0  0  0  0  0  0  0  0  0  0  0  0
  -25.7574  -31.5492   21.4486 F   0  0  0  0  0  0  0  0  0  0  0  0
  1  2  1  0  0  0  0
  1  5  2  0  0  0  0
  2  6  2  0  0  0  0
  3  8  2  0  0  0  0
  3 18  1  0  0  0  0
  4  9  1  0  0  0  0
  4 18  2  0  0  0  0
  5 21  1  0  0  0  0
  6 23  1  0  0  0  0
  7 10  2  0  0  0  0
  7 22  1  0  0  0  0
  8 26  1  0  0  0  0
  9 26  2  0  0  0  0
 10 27  1  0  0  0  0
 11 12  2  0  0  0  0
 11 28  1  0  0  0  0
 12 29  1  0  0  0  0
 13 19  2  0  0  0  0
 13 25  1  0  0  0  0
 14 19  1  0  0  0  0
 14 30  2  0  0  0  0
 15 24  1  0  0  0  0
 15 27  2  0  0  0  0
 16 25  2  0  0  0  0
 16 30  1  0  0  0  0
 17 29  2  0  0  0  0
 17 31  1  0  0  0  0
 18 32  1  0  0  0  0
 19 36  1  0  0  0  0
 20 32  1  0  0  0  0
 20 33  2  0  0  0  0
 20 37  1  0  0  0  0
 21 23  2  0  0  0  0
 21 42  1  0  0  0  0
 22 24  2  0  0  0  0
 22 43  1  0  0  0  0
 23 51  1  0  0  0  0
 24 44  1  0  0  0  0
 25 72  1  0  0  0  0
 26 81  1  0  0  0  0
 27 82  1  0  0  0  0
 28 31  2  0  0  0  0
 28 81  1  0  0  0  0
 29 83  1  0  0  0  0
 30 84  1  0  0  0  0
 31 85  1  0  0  0  0
 32 65  2  0  0  0  0
 33 67  1  0  0  0  0
 33 70  1  0  0  0  0
 34 35  2  0  0  0  0
 34 36  1  0  0  0  0
 35 59  1  0  0  0  0
 36 66  2  0  0  0  0
 37 71  1  0  0  0  0
 37 76  2  0  0  0  0
 38 52  1  0  0  0  0
 38 73  1  0  0  0  0
 38 77  2  0  0  0  0
 39 62  1  0  0  0  0
 39 68  1  0  0  0  0
 39 78  2  0  0  0  0
 40 63  1  0  0  0  0
 40 74  1  0  0  0  0
 40 79  2  0  0  0  0
 41 69  1  0  0  0  0
 41 72  1  0  0  0  0
 41 80  2  0  0  0  0
 42 45  1  0  0  0  0
 43 52  1  0  0  0  0
 44 68  1  0  0  0  0
 45 47  1  0  0  0  0
 46 48  1  0  0  0  0
 46 49  1  0  0  0  0
 47 51  1  0  0  0  0
 48 53  1  0  0  0  0
 49 69  1  0  0  0  0
 50 53  1  0  0  0  0
 50 69  1  0  0  0  0
 51 73  1  0  0  0  0
 52 68  1  0  0  0  0
 53 67  1  0  0  0  0
 54 63  1  0  0  0  0
 55 64  1  0  0  0  0
 56 64  1  0  0  0  0
 57 64  1  0  0  0  0
 58 75  1  0  0  0  0
 59 60  1  0  0  0  0
 60 61  1  0  0  0  0
 61 82  1  0  0  0  0
 62 64  1  0  0  0  0
 62 74  1  0  0  0  0
 63 75  1  0  0  0  0
 65 67  1  0  0  0  0
M  CHG  1  75   1
M  ISO  4  41 100  61 101  72 100  82 101
M  END
> <Batch ID>
0123

> <Smiles>
CNC(C)C(=O)NC(C(=O)N1Cc2cc([101O:1][101CH2:1]CCC=CC(=N)c3cc(F)cc([100NH:0][100C:0](=O)N4CCCC(n5nc(-c6ccc(Oc7ccc(F)cc7F)cc6)c(C(N)=O)c5N)C4)c3)ccc2CC1C(=O)NC1CCCc2ccccc21)C(C)(C)C

> <Shape>
0.271

> <Color>
0.082

> <Negative vol penalty>
0.000

$$$$

  -OEChem-04052302033D

 87 95  0     1  0  0  0  0  0999 V2000
  -31.2332  -29.2963   25.2444 C   0  0  0  0  0  0  0  0  0  0  0  0
  -30.5474  -29.2674   24.0343 C   0  0  0  0  0  0  0  0  0  0  0  0
  -26.5366  -13.7583   22.1705 C   0  0  0  0  0  0  0  0  0  0  0  0
  -26.2532  -12.9756   19.9024 C   0  0  0  0  0  0  0  0  0  0  0  0
  -30.9116  -28.3840   26.2485 C   0  0  0  0  0  0  0  0  0  0  0  0
  -29.5403  -28.3255   23.8273 C   0  0  0  0  0  0  0  0  0  0  0  0
  -25.4100  -30.3346   21.6944 C   0  0  0  0  0  0  0  0  0  0  0  0
  -25.3346  -13.1493   22.5309 C   0  0  0  0  0  0  0  0  0  0  0  0
  -25.0512  -12.3665   20.2629 C   0  0  0  0  0  0  0  0  0  0  0  0
  -25.4557  -30.5766   20.3221 C   0  0  0  0  0  0  0  0  0  0  0  0
  -24.0652   -9.5424   21.8355 C   0  0  0  0  0  0  0  0  0  0  0  0
  -23.8374   -8.2432   21.3821 C   0  0  0  0  0  0  0  0  0  0  0  0
  -30.6556  -25.0120   19.7871 C   0  0  0  0  0  0  0  0  0  0  0  0
  -24.2184  -28.5436   19.9284 C   0  0  0  0  0  0  0  0  0  0  0  0
  -29.9431  -26.9782   18.5773 C   0  0  0  0  0  0  0  0  0  0  0  0
  -21.8614   -8.9972   20.2141 C   0  0  0  0  0  0  0  0  0  0  0  0
  -26.9959  -13.6715   20.8562 C   0  0  0  0  0  0  0  0  0  0  0  0
  -29.4681  -24.3680   19.4399 C   0  0  0  0  0  0  0  0  0  0  0  0
  -29.5238  -13.7308   20.5190 C   0  0  0  0  0  0  0  0  0  0  0  0
  -29.8935  -27.4367   26.0573 C   0  0  0  0  0  0  0  0  0  0  0  0
  -24.7765  -29.1876   22.1941 C   0  0  0  0  0  0  0  0  0  0  0  0
  -29.2057  -27.3988   24.8293 C   0  0  0  0  0  0  0  0  0  0  0  0
  -24.1638  -28.2906   21.3075 C   0  0  0  0  0  0  0  0  0  0  0  0
  -30.8931  -26.3172   19.3559 C   0  0  0  0  0  0  0  0  0  0  0  0
  -28.5181  -25.0290   18.6613 C   0  0  0  0  0  0  0  0  0  0  0  0
  -28.7556  -26.3342   18.2300 C   0  0  0  0  0  0  0  0  0  0  0  0
  -24.5919  -12.4533   21.5771 C   0  0  0  0  0  0  0  0  0  0  0  0
  -24.8624  -29.6796   19.4387 C   0  0  0  0  0  0  0  0  0  0  0  0
  -23.1911  -10.5691   21.4782 C   0  0  0  0  0  0  0  0  0  0  0  0
  -22.7355   -7.9705   20.5714 C   0  0  0  0  0  0  0  0  0  0  0  0
  -22.0893  -10.2965   20.6675 C   0  0  0  0  0  0  0  0  0  0  0  0
  -28.2371  -14.3010   20.4832 C   0  0  0  0  0  0  0  0  0  0  0  0
  -30.3541  -14.7286   20.0700 C   0  0  0  0  0  0  0  0  0  0  0  0
  -29.2529  -23.0042   19.9065 C   0  0  0  0  0  0  0  0  0  0  0  0
  -30.0511  -21.9517   19.6355 C   0  0  0  0  0  0  0  0  0  0  0  0
  -29.9319  -12.4168   20.9220 C   0  0  0  0  0  0  0  0  0  0  0  0
  -29.7028  -20.6289   20.1919 C   0  0  0  0  0  0  0  0  0  0  0  0
  -25.7193  -26.6505   23.8607 C   0  0  0  0  0  0  0  0  0  0  0  0
  -22.5467  -25.9750   23.8865 C   0  0  0  0  0  0  0  0  0  0  0  0
  -27.8993  -28.3195   16.9387 C   0  0  0  0  0  0  0  0  0  0  0  0
  -19.4901  -26.3621   22.4190 C   0  0  0  0  0  0  0  0  0  0  0  0
  -29.6136  -26.4403   27.1543 C   0  0  0  0  0  0  0  0  0  0  0  0
  -24.7126  -28.9547   23.6787 C   0  0  0  0  0  0  0  0  0  0  0  0
  -23.4536  -27.0549   21.7945 C   0  0  0  0  0  0  0  0  0  0  0  0
  -28.2787  -25.7173   26.9945 C   0  0  0  0  0  0  0  0  0  0  0  0
  -30.4190  -18.5716   17.2447 C   0  0  0  0  0  0  0  0  0  0  0  0
  -28.1033  -25.2314   25.5592 C   0  0  0  0  0  0  0  0  0  0  0  0
  -30.0069  -17.1894   17.7442 C   0  0  0  0  0  0  0  0  0  0  0  0
  -29.5401  -19.6763   17.8293 C   0  0  0  0  0  0  0  0  0  0  0  0
  -29.0637  -18.2783   19.8190 C   0  0  0  0  0  0  0  0  0  0  0  0
  -28.0900  -26.4082   24.5761 C   0  0  1  0  0  0  0  0  0  0  0  0
  -24.4874  -27.4909   24.0447 C   0  0  1  0  0  0  0  0  0  0  0  0
  -29.9646  -17.1560   19.2802 C   0  0  1  0  0  0  0  0  0  0  0  0
  -32.1615  -27.0074   19.7287 C   0  0  0  0  0  0  0  0  0  0  0  0
  -26.0617  -24.8270   19.1215 C   0  0  0  0  0  0  0  0  0  0  0  0
  -17.0921  -25.6582   22.6468 C   0  0  0  0  0  0  0  0  0  0  0  0
  -23.2508  -23.2239   22.7704 C   0  0  0  0  0  0  0  0  0  0  0  0
  -20.8450  -22.9418   22.1376 C   0  0  0  0  0  0  0  0  0  0  0  0
  -21.4788  -23.2114   24.5352 C   0  0  0  0  0  0  0  0  0  0  0  0
  -18.5816  -29.1572   22.7674 C   0  0  0  0  0  0  0  0  0  0  0  0
  -27.2398  -24.3440   18.2844 C   0  0  0  0  0  0  0  0  0  0  0  0
  -26.6540  -28.6730   16.1374 C   0  0  0  0  0  0  0  0  0  0  0  0
  -26.3292  -30.1621   16.1831 C   0  0  0  0  0  0  0  0  0  0  0  0
  -26.0351  -30.6301   17.6009 C   0  0  0  0  0  0  0  0  0  1  0  0
  -21.6101  -25.2056   22.9866 C   0  0  1  0  0  0  0  0  0  0  0  0
  -18.1313  -26.7113   22.9988 C   0  0  2  0  0  0  0  0  0  0  0  0
  -21.8112  -23.6679   23.0979 C   0  0  0  0  0  0  0  0  0  0  0  0
  -28.2444  -15.5631   20.0462 N   0  0  0  0  0  0  0  0  0  0  0  0
  -29.5458  -15.7943   19.8033 N   0  0  0  0  0  0  0  0  0  0  0  0
  -29.4683  -19.5878   19.2955 N   0  0  0  0  0  0  0  0  0  0  0  0
  -23.4236  -26.8679   23.2545 N   0  0  0  0  0  0  0  0  0  0  0  0
  -31.6894  -14.7896   19.8813 N   0  0  0  0  0  0  0  0  0  0  0  0
  -28.9500  -11.5160   21.3563 N   0  0  0  0  0  0  0  0  0  0  0  0
  -27.8056  -27.0243   17.4401 N   0  0  0  0  0  0  0  0  0  0  0  0
  -26.8055  -27.0743   24.6024 N   0  0  0  0  0  0  0  0  0  0  0  0
  -20.2630  -25.6576   23.3175 N   0  0  0  0  0  0  0  0  0  0  0  0
  -17.6656  -28.0255   22.4724 N   0  3  0  0  0  0  0  0  0  0  0  0
  -31.1338  -12.0576   20.9131 O   0  0  0  0  0  0  0  0  0  0  0  0
  -29.6358  -20.5276   21.4183 O   0  0  0  0  0  0  0  0  0  0  0  0
  -25.6864  -25.6879   23.1031 O   0  0  0  0  0  0  0  0  0  0  0  0
  -22.4971  -25.7956   25.1060 O   0  0  0  0  0  0  0  0  0  0  0  0
  -28.8247  -29.1108   17.0869 O   0  0  0  0  0  0  0  0  0  0  0  0
  -19.8302  -26.6792   21.2813 O   0  0  0  0  0  0  0  0  0  0  0  0
  -23.4191  -11.8587   21.9285 O   0  0  0  0  0  0  0  0  0  0  0  0
  -24.9061  -29.9132   18.0988 O   0  0  0  0  0  0  0  0  0  1  0  0
  -22.5177   -6.7231   20.1349 F   0  0  0  0  0  0  0  0  0  0  0  0
  -21.2467  -11.2790   20.3200 F   0  0  0  0  0  0  0  0  0  0  0  0
  1  2  1  0  0  0  0
  1  5  2  0  0  0  0
  2  6  2  0  0  0  0
  3  8  2  0  0  0  0
  3 17  1  0  0  0  0
  4  9  1  0  0  0  0
  4 17  2  0  0  0  0
  5 20  1  0  0  0  0
  6 22  1  0  0  0  0
  7 10  2  0  0  0  0
  7 21  1  0  0  0  0
  8 27  1  0  0  0  0
  9 27  2  0  0  0  0
 10 28  1  0  0  0  0
 11 12  2  0  0  0  0
 11 29  1  0  0  0  0
 12 30  1  0  0  0  0
 13 18  2  0  0  0  0
 13 24  1  0  0  0  0
 14 23  1  0  0  0  0
 14 28  2  0  0  0  0
 15 24  2  0  0  0  0
 15 26  1  0  0  0  0
 16 30  2  0  0  0  0
 16 31  1  0  0  0  0
 17 32  1  0  0  0  0
 18 25  1  0  0  0  0
 18 34  1  0  0  0  0
 19 32  1  0  0  0  0
 19 33  2  0  0  0  0
 19 36  1  0  0  0  0
 20 22  2  0  0  0  0
 20 42  1  0  0  0  0
 21 23  2  0  0  0  0
 21 43  1  0  0  0  0
 22 51  1  0  0  0  0
 23 44  1  0  0  0  0
 24 54  1  0  0  0  0
 25 26  2  0  0  0  0
 25 61  1  0  0  0  0
 26 74  1  0  0  0  0
 27 84  1  0  0  0  0
 28 85  1  0  0  0  0
 29 31  2  0  0  0  0
 29 84  1  0  0  0  0
 30 86  1  0  0  0  0
 31 87  1  0  0  0  0
 32 68  2  0  0  0  0
 33 69  1  0  0  0  0
 33 72  1  0  0  0  0
 34 35  2  0  0  0  0
 35 37  1  0  0  0  0
 36 73  1  0  0  0  0
 36 78  2  0  0  0  0
 37 70  1  0  0  0  0
 37 79  2  0  0  0  0
 38 52  1  0  0  0  0
 38 75  1  0  0  0  0
 38 80  2  0  0  0  0
 39 65  1  0  0  0  0
 39 71  1  0  0  0  0
 39 81  2  0  0  0  0
 40 62  1  0  0  0  0
 40 74  1  0  0  0  0
 40 82  2  0  0  0  0
 41 66  1  0  0  0  0
 41 76  1  0  0  0  0
 41 83  2  0  0  0  0
 42 45  1  0  0  0  0
 43 52  1  0  0  0  0
 44 71  1  0  0  0  0
 45 47  1  0  0  0  0
 46 48  1  0  0  0  0
 46 49  1  0  0  0  0
 47 51  1  0  0  0  0
 48 53  1  0  0  0  0
 49 70  1  0  0  0  0
 50 53  1  0  0  0  0
 50 70  1  0  0  0  0
 51 75  1  0  0  0  0
 52 71  1  0  0  0  0
 53 69  1  0  0  0  0
 55 61  1  0  0  0  0
 56 66  1  0  0  0  0
 57 67  1  0  0  0  0
 58 67  1  0  0  0  0
 59 67  1  0  0  0  0
 60 77  1  0  0  0  0
 62 63  1  0  0  0  0
 63 64  1  0  0  0  0
 64 85  1  0  0  0  0
 65 67  1  0  0  0  0
 65 76  1  0  0  0  0
 66 77  1  0  0  0  0
 68 69  1  0  0  0  0
M  CHG  1  77   1
M  ISO  4  35 100  37 100  64 101  85 101
M  END
> <Batch ID>
0123

> <Smiles>
CCc1c(C=[100CH:0][100C:0](=O)N2CCCC(n3nc(-c4ccc(Oc5ccc(F)cc5F)cc4)c(C(N)=O)c3N)C2)cc(C)cc1NC(=O)CC[101CH2:1][101O:1]c1ccc2c(c1)CN(C(=O)C(NC(=O)C(C)NC)C(C)(C)C)C(C(=O)NC1CCCc3ccccc31)C2

> <Shape>
0.257

> <Color>
0.058

> <Negative vol penalty>
0.000

$$$$

  -OEChem-04052302033D

 86 94  0     1  0  0  0  0  0999 V2000
  -29.0590  -23.6886   18.3413 C   0  0  0  0  0  0  0  0  0  0  0  0
  -28.9277  -24.8810   18.3998 C   0  0  0  0  0  0  0  0  0  0  0  0
  -27.5168  -37.8190   21.5557 C   0  0  0  0  0  0  0  0  0  0  0  0
  -28.0243  -36.6027   21.1101 C   0  0  0  0  0  0  0  0  0  0  0  0
  -23.4247   -9.7824   21.5074 C   0  0  0  0  0  0  0  0  0  0  0  0
  -22.6731  -11.8213   20.4515 C   0  0  0  0  0  0  0  0  0  0  0  0
  -29.7674  -19.3653   19.8942 C   0  0  0  0  0  0  0  0  0  0  0  0
  -26.6155  -37.8493   22.6190 C   0  0  0  0  0  0  0  0  0  0  0  0
  -27.6316  -35.4161   21.7283 C   0  0  0  0  0  0  0  0  0  0  0  0
  -26.8352  -29.9624   19.0583 C   0  0  0  0  0  0  0  0  0  0  0  0
  -29.8547  -17.9735   19.9206 C   0  0  0  0  0  0  0  0  0  0  0  0
  -22.2549   -9.7440   22.2661 C   0  0  0  0  0  0  0  0  0  0  0  0
  -21.5032  -11.7829   21.2102 C   0  0  0  0  0  0  0  0  0  0  0  0
  -27.6513  -28.8360   18.9643 C   0  0  0  0  0  0  0  0  0  0  0  0
  -19.3038   -8.9140   24.2199 C   0  0  0  0  0  0  0  0  0  0  0  0
  -18.6420   -7.6911   24.3300 C   0  0  0  0  0  0  0  0  0  0  0  0
  -27.7706  -19.2145   18.5425 C   0  0  0  0  0  0  0  0  0  0  0  0
  -26.5232  -27.8674   20.8638 C   0  0  0  0  0  0  0  0  0  0  0  0
  -18.3620   -7.6265   21.9312 C   0  0  0  0  0  0  0  0  0  0  0  0
  -23.6338  -10.8210   20.6001 C   0  0  0  0  0  0  0  0  0  0  0  0
  -28.7253  -19.9858   19.2052 C   0  0  0  0  0  0  0  0  0  0  0  0
  -25.0541  -10.2840   18.5502 C   0  0  0  0  0  0  0  0  0  0  0  0
  -26.2041  -36.6617   23.2443 C   0  0  0  0  0  0  0  0  0  0  0  0
  -25.8626  -30.0546   20.0643 C   0  0  0  0  0  0  0  0  0  0  0  0
  -26.7250  -35.4307   22.8018 C   0  0  0  0  0  0  0  0  0  0  0  0
  -25.6943  -28.9949   20.9670 C   0  0  0  0  0  0  0  0  0  0  0  0
  -27.8579  -17.8226   18.5689 C   0  0  0  0  0  0  0  0  0  0  0  0
  -28.8999  -17.2021   19.2580 C   0  0  0  0  0  0  0  0  0  0  0  0
  -21.2941  -10.7443   22.1175 C   0  0  0  0  0  0  0  0  0  0  0  0
  -27.4974  -27.7895   19.8688 C   0  0  0  0  0  0  0  0  0  0  0  0
  -19.4945   -9.4933   22.9653 C   0  0  0  0  0  0  0  0  0  0  0  0
  -18.1712   -7.0473   23.1857 C   0  0  0  0  0  0  0  0  0  0  0  0
  -19.0237   -8.8495   21.8210 C   0  0  0  0  0  0  0  0  0  0  0  0
  -24.8423  -10.8615   19.8165 C   0  0  0  0  0  0  0  0  0  0  0  0
  -26.3534  -10.6034   18.2401 C   0  0  0  0  0  0  0  0  0  0  0  0
  -27.3250  -15.1471   16.2525 C   0  0  0  0  0  0  0  0  0  0  0  0
  -28.6338  -21.4527   19.1779 C   0  0  0  0  0  0  0  0  0  0  0  0
  -27.3182  -16.4518   16.5481 C   0  0  0  0  0  0  0  0  0  0  0  0
  -29.2129  -22.2687   18.2757 C   0  0  0  0  0  0  0  0  0  0  0  0
  -24.1565   -9.5266   17.7277 C   0  0  0  0  0  0  0  0  0  0  0  0
  -25.3476  -32.0142   22.5135 C   0  0  0  0  0  0  0  0  0  0  0  0
  -22.6036  -30.3078   22.7979 C   0  0  0  0  0  0  0  0  0  0  0  0
  -20.9272  -27.3962   22.1985 C   0  0  0  0  0  0  0  0  0  0  0  0
  -29.9852  -15.0334   19.9403 C   0  0  0  0  0  0  0  0  0  0  0  0
  -25.2642  -36.7485   24.4206 C   0  0  0  0  0  0  0  0  0  0  0  0
  -24.9723  -31.2648   20.1358 C   0  0  0  0  0  0  0  0  0  0  0  0
  -24.6513  -29.0361   22.0527 C   0  0  0  0  0  0  0  0  0  0  0  0
  -24.6107  -35.4160   24.7777 C   0  0  0  0  0  0  0  0  0  0  0  0
  -30.5733  -11.5405   20.3013 C   0  0  0  0  0  0  0  0  0  0  0  0
  -25.6518  -34.3015   24.8065 C   0  0  0  0  0  0  0  0  0  0  0  0
  -29.1908  -10.9170   20.0967 C   0  0  0  0  0  0  0  0  0  0  0  0
  -30.4910  -12.8689   21.0511 C   0  0  0  0  0  0  0  0  0  0  0  0
  -28.1828  -13.2281   20.2687 C   0  0  0  0  0  0  0  0  0  0  0  0
  -26.3040  -34.1201   23.4306 C   0  0  1  0  0  0  0  0  0  0  0  0
  -24.3602  -31.4756   21.5173 C   0  0  1  0  0  0  0  0  0  0  0  0
  -28.2086  -11.9203   19.4609 C   0  0  2  0  0  0  0  0  0  0  0  0
  -30.0285  -21.7052   17.1447 C   0  0  0  0  0  0  0  0  0  0  0  0
  -18.7107  -26.2842   22.5833 C   0  0  0  0  0  0  0  0  0  0  0  0
  -23.3595  -29.8149   25.7127 C   0  0  0  0  0  0  0  0  0  0  0  0
  -21.6667  -27.9712   25.7673 C   0  0  0  0  0  0  0  0  0  0  0  0
  -20.9392  -30.3175   25.3333 C   0  0  0  0  0  0  0  0  0  0  0  0
  -20.4234  -27.1345   19.2939 C   0  0  0  0  0  0  0  0  0  0  0  0
  -28.7638  -26.3316   18.4808 C   0  0  0  0  0  0  0  0  0  1  0  0
  -26.8214  -17.0210   17.8504 C   0  0  0  0  0  0  0  0  0  0  0  0
  -22.1945  -29.0566   23.5370 C   0  0  1  0  0  0  0  0  0  0  0  0
  -19.5446  -27.1283   21.6320 C   0  0  2  0  0  0  0  0  0  0  0  0
  -22.0610  -29.2898   25.0684 C   0  0  0  0  0  0  0  0  0  0  0  0
  -25.9207  -11.4993   20.2792 N   0  0  0  0  0  0  0  0  0  0  0  0
  -26.8227  -11.3244   19.2985 N   0  0  0  0  0  0  0  0  0  0  0  0
  -23.8094  -30.2434   22.0854 N   0  0  0  0  0  0  0  0  0  0  0  0
  -29.5454  -13.7701   20.3890 N   0  0  0  0  0  0  0  0  0  0  0  0
  -27.1289  -10.3350   17.1682 N   0  0  0  0  0  0  0  0  0  0  0  0
  -22.8575   -9.2905   18.1981 N   0  0  0  0  0  0  0  0  0  0  0  0
  -29.0061  -15.7896   19.2967 N   0  0  0  0  0  0  0  0  0  0  0  0
  -25.4203  -33.3938   22.5441 N   0  0  0  0  0  0  0  0  0  0  0  0
  -20.9719  -28.5850   22.8956 N   0  0  0  0  0  0  0  0  0  0  0  0
  -19.6483  -26.4072   20.3319 N   0  3  0  0  0  0  0  0  0  0  0  0
  -24.5015   -9.0588   16.6161 O   0  0  0  0  0  0  0  0  0  0  0  0
  -25.9945  -31.2358   23.2045 O   0  0  0  0  0  0  0  0  0  0  0  0
  -21.8765  -31.3031   22.8451 O   0  0  0  0  0  0  0  0  0  0  0  0
  -21.8720  -26.6260   22.0418 O   0  0  0  0  0  0  0  0  0  0  0  0
  -31.1520  -15.4051   20.0898 O   0  0  0  0  0  0  0  0  0  0  0  0
  -20.1524  -10.7071   22.8575 O   0  0  0  0  0  0  0  0  0  0  0  0
  -28.2931  -26.6891   19.7796 O   0  0  0  0  0  0  0  0  0  1  0  0
  -17.5371   -5.8722   23.2915 F   0  0  0  0  0  0  0  0  0  0  0  0
  -19.2051   -9.4005   20.6130 F   0  0  0  0  0  0  0  0  0  0  0  0
  1  2  3  0  0  0  0
  1 39  1  0  0  0  0
  2 63  1  0  0  0  0
  3  4  1  0  0  0  0
  3  8  2  0  0  0  0
  4  9  2  0  0  0  0
  5 12  2  0  0  0  0
  5 20  1  0  0  0  0
  6 13  1  0  0  0  0
  6 20  2  0  0  0  0
  7 11  2  0  0  0  0
  7 21  1  0  0  0  0
  8 23  1  0  0  0  0
  9 25  1  0  0  0  0
 10 14  2  0  0  0  0
 10 24  1  0  0  0  0
 11 28  1  0  0  0  0
 12 29  1  0  0  0  0
 13 29  2  0  0  0  0
 14 30  1  0  0  0  0
 15 16  2  0  0  0  0
 15 31  1  0  0  0  0
 16 32  1  0  0  0  0
 17 21  2  0  0  0  0
 17 27  1  0  0  0  0
 18 26  1  0  0  0  0
 18 30  2  0  0  0  0
 19 32  2  0  0  0  0
 19 33  1  0  0  0  0
 20 34  1  0  0  0  0
 21 37  1  0  0  0  0
 22 34  1  0  0  0  0
 22 35  2  0  0  0  0
 22 40  1  0  0  0  0
 23 25  2  0  0  0  0
 23 45  1  0  0  0  0
 24 26  2  0  0  0  0
 24 46  1  0  0  0  0
 25 54  1  0  0  0  0
 26 47  1  0  0  0  0
 27 28  2  0  0  0  0
 27 64  1  0  0  0  0
 28 74  1  0  0  0  0
 29 83  1  0  0  0  0
 30 84  1  0  0  0  0
 31 33  2  0  0  0  0
 31 83  1  0  0  0  0
 32 85  1  0  0  0  0
 33 86  1  0  0  0  0
 34 68  2  0  0  0  0
 35 69  1  0  0  0  0
 35 72  1  0  0  0  0
 36 38  2  0  0  0  0
 37 39  2  0  0  0  0
 38 64  1  0  0  0  0
 39 57  1  0  0  0  0
 40 73  1  0  0  0  0
 40 78  2  0  0  0  0
 41 55  1  0  0  0  0
 41 75  1  0  0  0  0
 41 79  2  0  0  0  0
 42 65  1  0  0  0  0
 42 70  1  0  0  0  0
 42 80  2  0  0  0  0
 43 66  1  0  0  0  0
 43 76  1  0  0  0  0
 43 81  2  0  0  0  0
 44 71  1  0  0  0  0
 44 74  1  0  0  0  0
 44 82  2  0  0  0  0
 45 48  1  0  0  0  0
 46 55  1  0  0  0  0
 47 70  1  0  0  0  0
 48 50  1  0  0  0  0
 49 51  1  0  0  0  0
 49 52  1  0  0  0  0
 50 54  1  0  0  0  0
 51 56  1  0  0  0  0
 52 71  1  0  0  0  0
 53 56  1  0  0  0  0
 53 71  1  0  0  0  0
 54 75  1  0  0  0  0
 55 70  1  0  0  0  0
 56 69  1  0  0  0  0
 58 66  1  0  0  0  0
 59 67  1  0  0  0  0
 60 67  1  0  0  0  0
 61 67  1  0  0  0  0
 62 77  1  0  0  0  0
 63 84  1  0  0  0  0
 65 67  1  0  0  0  0
 65 76  1  0  0  0  0
 66 77  1  0  0  0  0
 68 69  1  0  0  0  0
M  CHG  1  77   1
M  ISO  4  44 100  63 101  74 100  84 101
M  END
> <Batch ID>
0123

> <Smiles>
C=CCc1cc(C=C(C)C#C[101CH2:1][101O:1]c2ccc3c(c2)CN(C(=O)C(NC(=O)C(C)NC)C(C)(C)C)C(C(=O)NC2CCCc4ccccc42)C3)ccc1[100NH:0][100C:0](=O)N1CCCC(n2nc(-c3ccc(Oc4ccc(F)cc4F)cc3)c(C(N)=O)c2N)C1

> <Shape>
0.306

> <Color>
0.088

> <Negative vol penalty>
0.000

$$$$

  -OEChem-04052302033D

 83 91  0     1  0  0  0  0  0999 V2000
  -21.7571  -34.5325   15.4133 C   0  0  0  0  0  0  0  0  0  0  0  0
  -22.5566  -33.3963   15.4858 C   0  0  0  0  0  0  0  0  0  0  0  0
  -22.5268   -7.3830   23.6590 C   0  0  0  0  0  0  0  0  0  0  0  0
  -20.6556   -7.7217   22.1688 C   0  0  0  0  0  0  0  0  0  0  0  0
  -27.9291  -19.9269   20.6409 C   0  0  0  0  0  0  0  0  0  0  0  0
  -29.9657  -19.2776   19.5150 C   0  0  0  0  0  0  0  0  0  0  0  0
  -27.5660  -18.5853   20.7580 C   0  0  0  0  0  0  0  0  0  0  0  0
  -29.6026  -17.9359   19.6321 C   0  0  0  0  0  0  0  0  0  0  0  0
  -21.8289  -35.4991   16.4155 C   0  0  0  0  0  0  0  0  0  0  0  0
  -23.4293  -33.2266   16.5601 C   0  0  0  0  0  0  0  0  0  0  0  0
  -24.9613  -27.9475   19.2601 C   0  0  0  0  0  0  0  0  0  0  0  0
  -21.7365   -6.5639   24.4653 C   0  0  0  0  0  0  0  0  0  0  0  0
  -19.8653   -6.9026   22.9750 C   0  0  0  0  0  0  0  0  0  0  0  0
  -26.0666  -27.1092   19.1215 C   0  0  0  0  0  0  0  0  0  0  0  0
  -20.6085   -3.3765   24.4308 C   0  0  0  0  0  0  0  0  0  0  0  0
  -21.1625   -2.1762   24.8758 C   0  0  0  0  0  0  0  0  0  0  0  0
  -27.1036  -28.1723   21.0225 C   0  0  0  0  0  0  0  0  0  0  0  0
  -20.8687   -2.8895   27.1653 C   0  0  0  0  0  0  0  0  0  0  0  0
  -21.9864   -7.9620   22.5108 C   0  0  0  0  0  0  0  0  0  0  0  0
  -29.1289  -20.2731   20.0194 C   0  0  0  0  0  0  0  0  0  0  0  0
  -28.4028  -17.5897   20.2536 C   0  0  0  0  0  0  0  0  0  0  0  0
  -23.5993   -8.4139   20.5868 C   0  0  0  0  0  0  0  0  0  0  0  0
  -22.6958  -35.3365   17.5076 C   0  0  0  0  0  0  0  0  0  0  0  0
  -24.9234  -28.9134   20.2760 C   0  0  0  0  0  0  0  0  0  0  0  0
  -23.5137  -34.1925   17.5772 C   0  0  0  0  0  0  0  0  0  0  0  0
  -25.9955  -29.0199   21.1734 C   0  0  0  0  0  0  0  0  0  0  0  0
  -20.4057   -6.3236   24.1233 C   0  0  0  0  0  0  0  0  0  0  0  0
  -27.1393  -27.2235   20.0009 C   0  0  0  0  0  0  0  0  0  0  0  0
  -20.1847   -4.3334   25.3530 C   0  0  0  0  0  0  0  0  0  0  0  0
  -21.2925   -1.9327   26.2430 C   0  0  0  0  0  0  0  0  0  0  0  0
  -20.3148   -4.0899   26.7203 C   0  0  0  0  0  0  0  0  0  0  0  0
  -22.8021   -8.8087   21.6779 C   0  0  0  0  0  0  0  0  0  0  0  0
  -24.1677   -9.5806   20.1370 C   0  0  0  0  0  0  0  0  0  0  0  0
  -29.5121  -21.6908   19.8950 C   0  0  0  0  0  0  0  0  0  0  0  0
  -28.0246  -16.1909   20.3761 C   0  0  0  0  0  0  0  0  0  0  0  0
  -28.6558  -22.7229   19.9815 C   0  0  0  0  0  0  0  0  0  0  0  0
  -27.1269  -15.6960   21.2550 C   0  0  0  0  0  0  0  0  0  0  0  0
  -28.0230  -25.0582   19.9665 C   0  0  0  0  0  0  0  0  0  1  0  0
  -23.8074   -7.1093   20.0297 C   0  0  0  0  0  0  0  0  0  0  0  0
  -28.9961  -24.1381   19.8556 C   0  0  0  0  0  0  0  0  0  0  0  0
  -26.8420  -14.2470   21.2496 C   0  0  0  0  0  0  0  0  0  0  0  0
  -24.7534  -32.0867   20.3487 C   0  0  0  0  0  0  0  0  0  0  0  0
  -24.4815  -31.6099   23.5457 C   0  0  0  0  0  0  0  0  0  0  0  0
  -25.0679  -29.5911   26.2342 C   0  0  0  0  0  0  0  0  0  0  0  0
  -22.7731  -36.4310   18.5424 C   0  0  0  0  0  0  0  0  0  0  0  0
  -23.7122  -29.7920   20.4286 C   0  0  0  0  0  0  0  0  0  0  0  0
  -25.9951  -30.0269   22.2934 C   0  0  0  0  0  0  0  0  0  0  0  0
  -23.4511  -35.9964   19.8392 C   0  0  0  0  0  0  0  0  0  0  0  0
  -23.1800  -14.3928   21.2763 C   0  0  0  0  0  0  0  0  0  0  0  0
  -24.7398  -35.2374   19.5395 C   0  0  0  0  0  0  0  0  0  0  0  0
  -22.8276  -12.9091   21.3421 C   0  0  0  0  0  0  0  0  0  0  0  0
  -24.4613  -14.7107   22.0456 C   0  0  0  0  0  0  0  0  0  0  0  0
  -25.2759  -12.3970   21.6940 C   0  0  0  0  0  0  0  0  0  0  0  0
  -24.4547  -33.9606   18.7394 C   0  0  1  0  0  0  0  0  0  0  0  0
  -24.0038  -31.0861   21.1821 C   0  0  1  0  0  0  0  0  0  0  0  0
  -24.0157  -12.0467   20.8874 C   0  0  1  0  0  0  0  0  0  0  0  0
  -30.4298  -24.5237   19.6059 C   0  0  0  0  0  0  0  0  0  0  0  0
  -24.7656  -29.4879   28.7232 C   0  0  0  0  0  0  0  0  0  0  0  0
  -26.8095  -33.5490   23.9065 C   0  0  0  0  0  0  0  0  0  0  0  0
  -27.0737  -32.6880   26.2425 C   0  0  0  0  0  0  0  0  0  0  0  0
  -24.9577  -33.8221   25.5651 C   0  0  0  0  0  0  0  0  0  0  0  0
  -23.3592  -27.1822   26.0433 C   0  0  0  0  0  0  0  0  0  0  0  0
  -25.4522  -31.4997   24.6966 C   0  0  1  0  0  0  0  0  0  0  0  0
  -24.1675  -29.1385   27.3694 C   0  0  2  0  0  0  0  0  0  0  0  0
  -26.0744  -32.8719   25.0805 C   0  0  0  0  0  0  0  0  0  0  0  0
  -22.8567  -10.1234   21.9074 N   0  0  0  0  0  0  0  0  0  0  0  0
  -23.6950  -10.5648   20.9544 N   0  0  0  0  0  0  0  0  0  0  0  0
  -25.5678  -13.8336   21.6343 N   0  0  0  0  0  0  0  0  0  0  0  0
  -24.7909  -30.8674   22.3974 N   0  0  0  0  0  0  0  0  0  0  0  0
  -25.0207   -9.8503   19.1261 N   0  0  0  0  0  0  0  0  0  0  0  0
  -23.1462   -6.0202   20.6136 N   0  0  0  0  0  0  0  0  0  0  0  0
  -23.9406  -32.9238   19.6084 N   0  0  0  0  0  0  0  0  0  0  0  0
  -24.7267  -30.8481   25.7817 N   0  0  0  0  0  0  0  0  0  0  0  0
  -23.9637  -27.6633   27.3122 N   0  3  0  0  0  0  0  0  0  0  0  0
  -24.5704   -6.9128   19.0536 O   0  0  0  0  0  0  0  0  0  0  0  0
  -27.7525  -13.4897   20.9090 O   0  0  0  0  0  0  0  0  0  0  0  0
  -25.9785  -32.0993   20.3765 O   0  0  0  0  0  0  0  0  0  0  0  0
  -23.4817  -32.3227   23.6640 O   0  0  0  0  0  0  0  0  0  0  0  0
  -25.9849  -28.9004   25.7954 O   0  0  0  0  0  0  0  0  0  0  0  0
  -19.6343   -5.5242   24.9096 O   0  0  0  0  0  0  0  0  0  0  0  0
  -28.2197  -26.4070   19.8675 O   0  0  0  0  0  0  0  0  0  1  0  0
  -21.8231   -0.7794   26.6703 F   0  0  0  0  0  0  0  0  0  0  0  0
  -19.9084   -5.0048   27.6110 F   0  0  0  0  0  0  0  0  0  0  0  0
  1  2  1  0  0  0  0
  1  9  2  0  0  0  0
  2 10  2  0  0  0  0
  3 12  2  0  0  0  0
  3 19  1  0  0  0  0
  4 13  1  0  0  0  0
  4 19  2  0  0  0  0
  5  7  2  0  0  0  0
  5 20  1  0  0  0  0
  6  8  1  0  0  0  0
  6 20  2  0  0  0  0
  7 21  1  0  0  0  0
  8 21  2  0  0  0  0
  9 23  1  0  0  0  0
 10 25  1  0  0  0  0
 11 14  2  0  0  0  0
 11 24  1  0  0  0  0
 12 27  1  0  0  0  0
 13 27  2  0  0  0  0
 14 28  1  0  0  0  0
 15 16  2  0  0  0  0
 15 29  1  0  0  0  0
 16 30  1  0  0  0  0
 17 26  1  0  0  0  0
 17 28  2  0  0  0  0
 18 30  2  0  0  0  0
 18 31  1  0  0  0  0
 19 32  1  0  0  0  0
 20 34  1  0  0  0  0
 21 35  1  0  0  0  0
 22 32  1  0  0  0  0
 22 33  2  0  0  0  0
 22 39  1  0  0  0  0
 23 25  2  0  0  0  0
 23 45  1  0  0  0  0
 24 26  2  0  0  0  0
 24 46  1  0  0  0  0
 25 54  1  0  0  0  0
 26 47  1  0  0  0  0
 27 80  1  0  0  0  0
 28 81  1  0  0  0  0
 29 31  2  0  0  0  0
 29 80  1  0  0  0  0
 30 82  1  0  0  0  0
 31 83  1  0  0  0  0
 32 66  2  0  0  0  0
 33 67  1  0  0  0  0
 33 70  1  0  0  0  0
 34 36  2  0  0  0  0
 35 37  2  0  0  0  0
 36 40  1  0  0  0  0
 37 41  1  0  0  0  0
 38 40  2  0  0  0  0
 38 81  1  0  0  0  0
 39 71  1  0  0  0  0
 39 75  2  0  0  0  0
 40 57  1  0  0  0  0
 41 68  1  0  0  0  0
 41 76  2  0  0  0  0
 42 55  1  0  0  0  0
 42 72  1  0  0  0  0
 42 77  2  0  0  0  0
 43 63  1  0  0  0  0
 43 69  1  0  0  0  0
 43 78  2  0  0  0  0
 44 64  1  0  0  0  0
 44 73  1  0  0  0  0
 44 79  2  0  0  0  0
 45 48  1  0  0  0  0
 46 55  1  0  0  0  0
 47 69  1  0  0  0  0
 48 50  1  0  0  0  0
 49 51  1  0  0  0  0
 49 52  1  0  0  0  0
 50 54  1  0  0  0  0
 51 56  1  0  0  0  0
 52 68  1  0  0  0  0
 53 56  1  0  0  0  0
 53 68  1  0  0  0  0
 54 72  1  0  0  0  0
 55 69  1  0  0  0  0
 56 67  1  0  0  0  0
 58 64  1  0  0  0  0
 59 65  1  0  0  0  0
 60 65  1  0  0  0  0
 61 65  1  0  0  0  0
 62 74  1  0  0  0  0
 63 65  1  0  0  0  0
 63 73  1  0  0  0  0
 64 74  1  0  0  0  0
 66 67  1  0  0  0  0
M  CHG  1  74   1
M  ISO  4  37 100  38 101  41 100  81 101
M  END
> <Batch ID>
0123

> <Smiles>
CNC(C)C(=O)NC(C(=O)N1Cc2cc([101O:1][101CH:1]=C(C)C=Cc3ccc(C=[100CH:0][100C:0](=O)N4CCCC(n5nc(-c6ccc(Oc7ccc(F)cc7F)cc6)c(C(N)=O)c5N)C4)cc3)ccc2CC1C(=O)NC1CCCc2ccccc21)C(C)(C)C

> <Shape>
0.283

> <Color>
0.094

> <Negative vol penalty>
0.000

$$$$

  -OEChem-04052302033D

 85 94  0     1  0  0  0  0  0999 V2000
  -21.6701  -12.4433   19.4645 C   0  0  0  0  0  0  0  0  0  0  0  0
  -21.6383  -13.7308   19.9905 C   0  0  0  0  0  0  0  0  0  0  0  0
  -23.2959  -24.2617   15.9041 C   0  0  0  0  0  0  0  0  0  0  0  0
  -25.3063  -24.9878   14.7779 C   0  0  0  0  0  0  0  0  0  0  0  0
  -22.8479  -11.6990   19.5171 C   0  0  0  0  0  0  0  0  0  0  0  0
  -22.7839  -14.2743   20.5705 C   0  0  0  0  0  0  0  0  0  0  0  0
  -23.6210  -19.0509   19.1114 C   0  0  0  0  0  0  0  0  0  0  0  0
  -22.6817  -24.0483   14.6701 C   0  0  0  0  0  0  0  0  0  0  0  0
  -24.6921  -24.7744   13.5439 C   0  0  0  0  0  0  0  0  0  0  0  0
  -22.8524  -20.0451   19.7152 C   0  0  0  0  0  0  0  0  0  0  0  0
  -21.2010  -25.9115   12.2700 C   0  0  0  0  0  0  0  0  0  0  0  0
  -19.8947  -26.3733   12.1087 C   0  0  0  0  0  0  0  0  0  0  0  0
  -19.3630  -28.7473   22.9749 C   0  0  0  0  0  0  0  0  0  0  0  0
  -20.6365  -26.8616   22.1632 C   0  0  0  0  0  0  0  0  0  0  0  0
  -24.6911  -20.5634   21.1883 C   0  0  0  0  0  0  0  0  0  0  0  0
  -18.3094  -26.5848   22.7503 C   0  0  0  0  0  0  0  0  0  0  0  0
  -19.1536  -24.1187   11.6561 C   0  0  0  0  0  0  0  0  0  0  0  0
  -24.6082  -24.7315   15.9580 C   0  0  0  0  0  0  0  0  0  0  0  0
  -20.5632  -28.2110   22.5087 C   0  0  0  0  0  0  0  0  0  0  0  0
  -25.9960  -24.0267   17.9792 C   0  0  0  0  0  0  0  0  0  0  0  0
  -24.0113  -12.2372   20.0894 C   0  0  0  0  0  0  0  0  0  0  0  0
  -24.9289  -18.7977   19.5495 C   0  0  0  0  0  0  0  0  0  0  0  0
  -23.9780  -13.5360   20.6321 C   0  0  0  0  0  0  0  0  0  0  0  0
  -25.4751  -19.5672   20.5867 C   0  0  0  0  0  0  0  0  0  0  0  0
  -18.2360  -27.9342   23.0958 C   0  0  0  0  0  0  0  0  0  0  0  0
  -19.5096  -26.0484   22.2840 C   0  0  0  0  0  0  0  0  0  0  0  0
  -23.3798  -24.3046   13.4900 C   0  0  0  0  0  0  0  0  0  0  0  0
  -23.3864  -20.7996   20.7557 C   0  0  0  0  0  0  0  0  0  0  0  0
  -21.4836  -24.5533   12.1244 C   0  0  0  0  0  0  0  0  0  0  0  0
  -18.8710  -25.4769   11.8017 C   0  0  0  0  0  0  0  0  0  0  0  0
  -20.4599  -23.6569   11.8174 C   0  0  0  0  0  0  0  0  0  0  0  0
  -25.2431  -24.9526   17.2325 C   0  0  0  0  0  0  0  0  0  0  0  0
  -26.3760  -24.7197   19.1025 C   0  0  0  0  0  0  0  0  0  0  0  0
  -20.4185  -22.6243   21.3780 C   0  0  0  0  0  0  0  0  0  0  0  0
  -21.7538  -29.0701   22.3814 C   0  0  0  0  0  0  0  0  0  0  0  0
  -21.2822  -21.6034   21.3858 C   0  0  0  0  0  0  0  0  0  1  0  0
  -26.3228  -22.6623   17.6837 C   0  0  0  0  0  0  0  0  0  0  0  0
  -26.4220  -16.3003   20.8290 C   0  0  0  0  0  0  0  0  0  0  0  0
  -29.0400  -18.1850   20.4883 C   0  0  0  0  0  0  0  0  0  0  0  0
  -30.3259  -21.3331   20.2007 C   0  0  0  0  0  0  0  0  0  0  0  0
  -23.9588  -29.4714   21.8632 C   0  0  0  0  0  0  0  0  0  0  0  0
  -25.2477  -11.3770   20.1658 C   0  0  0  0  0  0  0  0  0  0  0  0
  -25.7543  -17.7397   18.8699 C   0  0  0  0  0  0  0  0  0  0  0  0
  -26.8811  -19.3486   21.0805 C   0  0  0  0  0  0  0  0  0  0  0  0
  -18.9290  -22.4915   21.4190 C   0  0  0  0  0  0  0  0  0  0  0  0
  -20.7987  -24.0729   21.4468 C   0  0  0  0  0  0  0  0  0  0  0  0
  -26.5210  -12.1655   20.4609 C   0  0  0  0  0  0  0  0  0  0  0  0
  -27.3363  -29.1389   20.6439 C   0  0  0  0  0  0  0  0  0  0  0  0
  -26.2891  -13.1445   21.6074 C   0  0  0  0  0  0  0  0  0  0  0  0
  -27.2403  -27.9626   19.6725 C   0  0  0  0  0  0  0  0  0  0  0  0
  -18.4950  -23.7588   22.1501 C   0  0  0  0  0  0  0  0  0  0  0  0
  -26.0654  -29.9828   20.6286 C   0  0  0  0  0  0  0  0  0  0  0  0
  -24.7199  -28.0226   19.9244 C   0  0  0  0  0  0  0  0  0  0  0  0
  -25.2070  -14.1696   21.2471 C   0  0  1  0  0  0  0  0  0  0  0  0
  -26.8950  -17.2213   19.7401 C   0  0  1  0  0  0  0  0  0  0  0  0
  -25.9728  -27.1302   19.9357 C   0  0  1  0  0  0  0  0  0  0  0  0
  -16.9532  -28.5078   23.5944 C   0  0  0  0  0  0  0  0  0  0  0  0
  -32.0516  -23.1199   19.8447 C   0  0  0  0  0  0  0  0  0  0  0  0
  -29.6032  -17.7239   23.4514 C   0  0  0  0  0  0  0  0  0  0  0  0
  -31.1736  -19.6726   23.3847 C   0  0  0  0  0  0  0  0  0  0  0  0
  -31.6263  -17.6596   21.9827 C   0  0  0  0  0  0  0  0  0  0  0  0
  -29.9371  -21.2864   17.2672 C   0  0  0  0  0  0  0  0  0  0  0  0
  -29.7360  -19.2134   21.3467 C   0  0  1  0  0  0  0  0  0  0  0  0
  -31.3373  -21.9238   19.2349 C   0  0  2  0  0  0  0  0  0  0  0  0
  -30.5076  -18.5705   22.5336 C   0  0  0  0  0  0  0  0  0  0  0  0
  -25.1490  -26.1429   17.8311 N   0  0  0  0  0  0  0  0  0  0  0  0
  -22.8838  -28.6081   21.9558 N   0  0  0  0  0  0  0  0  0  0  0  0
  -25.8478  -25.9697   18.9659 N   0  0  0  0  0  0  0  0  0  0  0  0
  -19.5823  -24.7123   21.9421 N   0  0  3  0  0  0  0  0  0  0  0  0
  -27.6461  -18.2983   20.3882 N   0  0  0  0  0  0  0  0  0  0  0  0
  -24.8802  -29.1529   20.8487 N   0  0  0  0  0  0  0  0  0  0  0  0
  -27.1070  -24.3755   20.1840 N   0  0  0  0  0  0  0  0  0  0  0  0
  -25.8518  -22.1067   16.4863 N   0  0  0  0  0  0  0  0  0  0  0  0
  -25.7460  -15.1862   20.3693 N   0  0  0  0  0  0  0  0  0  0  0  0
  -30.5724  -19.9988   20.4456 N   0  0  0  0  0  0  0  0  0  0  0  0
  -30.6604  -22.3682   17.9838 N   0  3  0  0  0  0  0  0  0  0  0  0
  -26.9982  -21.9518   18.4663 O   0  0  0  0  0  0  0  0  0  0  0  0
  -26.6545  -16.5790   21.9994 O   0  0  0  0  0  0  0  0  0  0  0  0
  -29.7092  -17.3176   19.9215 O   0  0  0  0  0  0  0  0  0  0  0  0
  -29.4111  -21.9907   20.6919 O   0  0  0  0  0  0  0  0  0  0  0  0
  -24.1180  -30.4519   22.5941 O   0  0  0  0  0  0  0  0  0  0  0  0
  -22.7808  -24.0963   12.2856 O   0  0  0  0  0  0  0  0  0  0  0  0
  -22.6381  -21.7702   21.3473 O   0  0  0  0  0  0  0  0  0  1  0  0
  -17.6164  -25.9203   11.6483 F   0  0  0  0  0  0  0  0  0  0  0  0
  -20.7251  -22.3508   11.6774 F   0  0  0  0  0  0  0  0  0  0  0  0
  1  2  1  0  0  0  0
  1  5  2  0  0  0  0
  2  6  2  0  0  0  0
  3  8  2  0  0  0  0
  3 18  1  0  0  0  0
  4  9  1  0  0  0  0
  4 18  2  0  0  0  0
  5 21  1  0  0  0  0
  6 23  1  0  0  0  0
  7 10  2  0  0  0  0
  7 22  1  0  0  0  0
  8 27  1  0  0  0  0
  9 27  2  0  0  0  0
 10 28  1  0  0  0  0
 11 12  2  0  0  0  0
 11 29  1  0  0  0  0
 12 30  1  0  0  0  0
 13 19  2  0  0  0  0
 13 25  1  0  0  0  0
 14 19  1  0  0  0  0
 14 26  2  0  0  0  0
 15 24  1  0  0  0  0
 15 28  2  0  0  0  0
 16 25  2  0  0  0  0
 16 26  1  0  0  0  0
 17 30  2  0  0  0  0
 17 31  1  0  0  0  0
 18 32  1  0  0  0  0
 19 35  1  0  0  0  0
 20 32  1  0  0  0  0
 20 33  2  0  0  0  0
 20 37  1  0  0  0  0
 21 23  2  0  0  0  0
 21 42  1  0  0  0  0
 22 24  2  0  0  0  0
 22 43  1  0  0  0  0
 23 54  1  0  0  0  0
 24 44  1  0  0  0  0
 25 57  1  0  0  0  0
 26 69  1  0  0  0  0
 27 82  1  0  0  0  0
 28 83  1  0  0  0  0
 29 31  2  0  0  0  0
 29 82  1  0  0  0  0
 30 84  1  0  0  0  0
 31 85  1  0  0  0  0
 32 66  2  0  0  0  0
 33 68  1  0  0  0  0
 33 72  1  0  0  0  0
 34 36  2  0  0  0  0
 34 45  1  0  0  0  0
 34 46  1  0  0  0  0
 35 67  2  0  0  0  0
 36 83  1  0  0  0  0
 37 73  1  0  0  0  0
 37 77  2  0  0  0  0
 38 55  1  0  0  0  0
 38 74  1  0  0  0  0
 38 78  2  0  0  0  0
 39 63  1  0  0  0  0
 39 70  1  0  0  0  0
 39 79  2  0  0  0  0
 40 64  1  0  0  0  0
 40 75  1  0  0  0  0
 40 80  2  0  0  0  0
 41 67  1  0  0  0  0
 41 71  1  0  0  0  0
 41 81  2  0  0  0  0
 42 47  1  0  0  0  0
 43 55  1  0  0  0  0
 44 70  1  0  0  0  0
 45 51  1  0  0  0  0
 46 69  1  0  0  0  0
 47 49  1  0  0  0  0
 48 50  1  0  0  0  0
 48 52  1  0  0  0  0
 49 54  1  0  0  0  0
 50 56  1  0  0  0  0
 51 69  1  0  0  0  0
 52 71  1  0  0  0  0
 53 56  1  0  0  0  0
 53 71  1  0  0  0  0
 54 74  1  0  0  0  0
 55 70  1  0  0  0  0
 56 68  1  0  0  0  0
 58 64  1  0  0  0  0
 59 65  1  0  0  0  0
 60 65  1  0  0  0  0
 61 65  1  0  0  0  0
 62 76  1  0  0  0  0
 63 65  1  0  0  0  0
 63 75  1  0  0  0  0
 64 76  1  0  0  0  0
 66 68  1  0  0  0  0
M  CHG  1  76   1
M  ISO  4  36 101  41 100  67 100  83 101
M  END
> <Batch ID>
0123

> <Smiles>
CNC(C)C(=O)NC(C(=O)N1Cc2cc([101O:1][101CH:1]=C3CCN(c4cc(C)cc(C=[100N:0][100C:0](=O)N5CCCC(n6nc(-c7ccc(Oc8ccc(F)cc8F)cc7)c(C(N)=O)c6N)C5)c4)C3)ccc2CC1C(=O)NC1CCCc2ccccc21)C(C)(C)C

> <Shape>
0.208

> <Color>
0.089

> <Negative vol penalty>
0.000

$$$$

  -OEChem-04052302033D

 88 96  0     1  0  0  0  0  0999 V2000
  -25.2977  -16.9708   27.5874 C   0  0  0  0  0  0  0  0  0  0  0  0
  -26.5323  -17.5999   27.7108 C   0  0  0  0  0  0  0  0  0  0  0  0
  -23.0770   -9.8666   19.9437 C   0  0  0  0  0  0  0  0  0  0  0  0
  -23.8337   -9.8795   22.2381 C   0  0  0  0  0  0  0  0  0  0  0  0
  -24.4351  -17.3278   26.5518 C   0  0  0  0  0  0  0  0  0  0  0  0
  -26.9056  -18.5857   26.7979 C   0  0  0  0  0  0  0  0  0  0  0  0
  -30.2524  -23.5853   27.9417 C   0  0  0  0  0  0  0  0  0  0  0  0
  -22.3327   -8.7141   20.1956 C   0  0  0  0  0  0  0  0  0  0  0  0
  -23.0894   -8.7270   22.4900 C   0  0  0  0  0  0  0  0  0  0  0  0
  -31.6039  -23.8723   27.7549 C   0  0  0  0  0  0  0  0  0  0  0  0
  -19.8604   -7.9308   23.0902 C   0  0  0  0  0  0  0  0  0  0  0  0
  -19.1018   -7.8939   24.2601 C   0  0  0  0  0  0  0  0  0  0  0  0
  -31.0829  -24.9250   25.6478 C   0  0  0  0  0  0  0  0  0  0  0  0
  -30.6314  -18.7154   23.5472 C   0  0  0  0  0  0  0  0  0  0  0  0
  -32.4445  -17.1653   23.9308 C   0  0  0  0  0  0  0  0  0  0  0  0
  -20.3422   -5.9584   25.0033 C   0  0  0  0  0  0  0  0  0  0  0  0
  -23.8275  -10.4493   20.9649 C   0  0  0  0  0  0  0  0  0  0  0  0
  -24.1695  -12.9741   20.8388 C   0  0  0  0  0  0  0  0  0  0  0  0
  -24.7939  -18.3252   25.6315 C   0  0  0  0  0  0  0  0  0  0  0  0
  -29.3058  -23.9570   26.9762 C   0  0  0  0  0  0  0  0  0  0  0  0
  -26.0476  -18.9554   25.7482 C   0  0  0  0  0  0  0  0  0  0  0  0
  -29.7197  -24.6438   25.8260 C   0  0  0  0  0  0  0  0  0  0  0  0
  -30.0561  -17.8195   22.6461 C   0  0  0  0  0  0  0  0  0  0  0  0
  -31.8257  -18.3883   24.1896 C   0  0  0  0  0  0  0  0  0  0  0  0
  -30.6749  -16.5965   22.3874 C   0  0  0  0  0  0  0  0  0  0  0  0
  -22.3389   -8.1443   21.4688 C   0  0  0  0  0  0  0  0  0  0  0  0
  -32.0197  -24.5397   26.6065 C   0  0  0  0  0  0  0  0  0  0  0  0
  -20.8598   -6.9814   22.8767 C   0  0  0  0  0  0  0  0  0  0  0  0
  -19.3427   -6.9078   25.2167 C   0  0  0  0  0  0  0  0  0  0  0  0
  -21.1007   -5.9953   23.8333 C   0  0  0  0  0  0  0  0  0  0  0  0
  -31.8691  -16.2694   23.0297 C   0  0  0  0  0  0  0  0  0  0  0  0
  -24.5969  -11.6395   20.7051 C   0  0  0  0  0  0  0  0  0  0  0  0
  -25.2622  -13.7226   20.4750 C   0  0  0  0  0  0  0  0  0  0  0  0
  -33.9239  -21.1497   25.4256 C   0  0  0  0  0  0  0  0  0  0  0  0
  -34.7753  -22.0027   24.8433 C   0  0  0  0  0  0  0  0  0  0  0  0
  -33.2393  -20.1419   24.5924 C   0  0  0  0  0  0  0  0  0  0  0  0
  -22.8984  -13.4910   21.2546 C   0  0  0  0  0  0  0  0  0  0  0  0
  -27.2672  -22.3847   25.1118 C   0  0  0  0  0  0  0  0  0  0  0  0
  -26.2712  -25.3743   24.3417 C   0  0  0  0  0  0  0  0  0  0  0  0
  -26.9912  -28.7036   24.1314 C   0  0  0  0  0  0  0  0  0  0  0  0
  -30.7281  -14.7686   20.6546 C   0  0  0  0  0  0  0  0  0  0  0  0
  -23.8481  -18.6439   24.5007 C   0  0  0  0  0  0  0  0  0  0  0  0
  -27.8484  -23.6637   27.2052 C   0  0  0  0  0  0  0  0  0  0  0  0
  -28.7406  -25.0825   24.7689 C   0  0  0  0  0  0  0  0  0  0  0  0
  -24.1621  -19.9616   23.7971 C   0  0  0  0  0  0  0  0  0  0  0  0
  -29.6170  -12.3486   18.2911 C   0  0  0  0  0  0  0  0  0  0  0  0
  -25.6544  -20.0653   23.4989 C   0  0  0  0  0  0  0  0  0  0  0  0
  -28.1767  -12.0582   18.7194 C   0  0  0  0  0  0  0  0  0  0  0  0
  -30.5304  -12.5806   19.4934 C   0  0  0  0  0  0  0  0  0  0  0  0
  -28.6216  -13.3087   20.8701 C   0  0  0  0  0  0  0  0  0  0  0  0
  -26.4780  -20.0468   24.7923 C   0  0  1  0  0  0  0  0  0  0  0  0
  -27.0351  -23.6333   25.9149 C   0  0  1  0  0  0  0  0  0  0  0  0
  -27.6504  -13.1323   19.6914 C   0  0  2  0  0  0  0  0  0  0  0  0
  -27.6929  -19.0009   19.8310 C   0  0  0  0  0  0  0  0  0  0  0  0
  -25.9902  -30.8949   23.4290 C   0  0  0  0  0  0  0  0  0  0  0  0
  -26.6901  -24.6243   21.4139 C   0  0  0  0  0  0  0  0  0  0  0  0
  -26.6050  -27.0621   20.8496 C   0  0  0  0  0  0  0  0  0  0  0  0
  -24.6172  -25.9486   21.8653 C   0  0  0  0  0  0  0  0  0  0  0  0
  -27.2458  -29.8262   26.8579 C   0  0  0  0  0  0  0  0  0  0  0  0
  -28.7762  -18.1999   21.9745 C   0  0  0  0  0  0  0  0  0  0  0  0
  -35.5259  -23.0629   25.5973 C   0  0  0  0  0  0  0  0  0  0  0  0
  -28.9996  -18.6462   20.5229 C   0  0  0  0  0  0  0  0  0  0  0  0
  -35.2768  -24.4699   25.0520 C   0  0  0  0  0  0  0  0  0  0  0  0
  -33.8078  -24.8758   25.0749 C   0  0  0  0  0  0  0  0  0  1  0  0
  -26.6546  -26.3924   23.2950 C   0  0  1  0  0  0  0  0  0  0  0  0
  -26.2207  -29.9312   24.5826 C   0  0  2  0  0  0  0  0  0  0  0  0
  -26.1607  -25.9970   21.8748 C   0  0  0  0  0  0  0  0  0  0  0  0
  -25.8624  -11.5425   20.2888 N   0  0  0  0  0  0  0  0  0  0  0  0
  -32.4052  -19.2911   25.0975 N   0  0  0  0  0  0  0  0  0  0  0  0
  -26.2395  -12.8258   20.1577 N   0  0  0  0  0  0  0  0  0  0  0  0
  -27.3275  -24.7671   25.0356 N   0  0  0  0  0  0  0  0  0  0  0  0
  -29.9702  -13.6137   20.3673 N   0  0  0  0  0  0  0  0  0  0  0  0
  -25.4727  -15.0539   20.3988 N   0  0  0  0  0  0  0  0  0  0  0  0
  -21.8860  -12.5827   21.5928 N   0  0  0  0  0  0  0  0  0  0  0  0
  -30.0796  -15.6958   21.4697 N   0  0  0  0  0  0  0  0  0  0  0  0
  -26.4270  -21.3387   25.4425 N   0  0  0  0  0  0  0  0  0  0  0  0
  -26.1469  -27.6755   23.7685 N   0  0  0  0  0  0  0  0  0  0  0  0
  -26.9702  -30.6491   25.6521 N   0  3  0  0  0  0  0  0  0  0  0  0
  -22.6621  -14.7218   21.3084 O   0  0  0  0  0  0  0  0  0  0  0  0
  -28.1427  -22.3718   24.2545 O   0  0  0  0  0  0  0  0  0  0  0  0
  -25.0783  -25.1321   24.5414 O   0  0  0  0  0  0  0  0  0  0  0  0
  -28.2191  -28.6621   24.1001 O   0  0  0  0  0  0  0  0  0  0  0  0
  -31.8579  -14.9361   20.1881 O   0  0  0  0  0  0  0  0  0  0  0  0
  -21.6126   -7.0199   21.7151 O   0  0  0  0  0  0  0  0  0  0  0  0
  -33.3383  -24.8205   26.4213 O   0  0  0  0  0  0  0  0  0  1  0  0
  -18.6152   -6.8734   26.3409 F   0  0  0  0  0  0  0  0  0  0  0  0
  -22.0604   -5.0813   23.6344 F   0  0  0  0  0  0  0  0  0  0  0  0
  -32.6716  -14.7662   22.7407 Cl  0  0  0  0  0  0  0  0  0  0  0  0
  1  2  1  0  0  0  0
  1  5  2  0  0  0  0
  2  6  2  0  0  0  0
  3  8  2  0  0  0  0
  3 17  1  0  0  0  0
  4  9  1  0  0  0  0
  4 17  2  0  0  0  0
  5 19  1  0  0  0  0
  6 21  1  0  0  0  0
  7 10  2  0  0  0  0
  7 20  1  0  0  0  0
  8 26  1  0  0  0  0
  9 26  2  0  0  0  0
 10 27  1  0  0  0  0
 11 12  2  0  0  0  0
 11 28  1  0  0  0  0
 12 29  1  0  0  0  0
 13 22  1  0  0  0  0
 13 27  2  0  0  0  0
 14 23  1  0  0  0  0
 14 24  2  0  0  0  0
 15 24  1  0  0  0  0
 15 31  2  0  0  0  0
 16 29  2  0  0  0  0
 16 30  1  0  0  0  0
 17 32  1  0  0  0  0
 18 32  1  0  0  0  0
 18 33  2  0  0  0  0
 18 37  1  0  0  0  0
 19 21  2  0  0  0  0
 19 42  1  0  0  0  0
 20 22  2  0  0  0  0
 20 43  1  0  0  0  0
 21 51  1  0  0  0  0
 22 44  1  0  0  0  0
 23 25  2  0  0  0  0
 23 60  1  0  0  0  0
 24 69  1  0  0  0  0
 25 31  1  0  0  0  0
 25 75  1  0  0  0  0
 26 84  1  0  0  0  0
 27 85  1  0  0  0  0
 28 30  2  0  0  0  0
 28 84  1  0  0  0  0
 29 86  1  0  0  0  0
 30 87  1  0  0  0  0
 31 88  1  0  0  0  0
 32 68  2  0  0  0  0
 33 70  1  0  0  0  0
 33 73  1  0  0  0  0
 34 35  2  0  0  0  0
 34 36  1  0  0  0  0
 35 61  1  0  0  0  0
 36 69  2  0  0  0  0
 37 74  1  0  0  0  0
 37 79  2  0  0  0  0
 38 52  1  0  0  0  0
 38 76  1  0  0  0  0
 38 80  2  0  0  0  0
 39 65  1  0  0  0  0
 39 71  1  0  0  0  0
 39 81  2  0  0  0  0
 40 66  1  0  0  0  0
 40 77  1  0  0  0  0
 40 82  2  0  0  0  0
 41 72  1  0  0  0  0
 41 75  1  0  0  0  0
 41 83  2  0  0  0  0
 42 45  1  0  0  0  0
 43 52  1  0  0  0  0
 44 71  1  0  0  0  0
 45 47  1  0  0  0  0
 46 48  1  0  0  0  0
 46 49  1  0  0  0  0
 47 51  1  0  0  0  0
 48 53  1  0  0  0  0
 49 72  1  0  0  0  0
 50 53  1  0  0  0  0
 50 72  1  0  0  0  0
 51 76  1  0  0  0  0
 52 71  1  0  0  0  0
 53 70  1  0  0  0  0
 54 62  1  0  0  0  0
 55 66  1  0  0  0  0
 56 67  1  0  0  0  0
 57 67  1  0  0  0  0
 58 67  1  0  0  0  0
 59 78  1  0  0  0  0
 60 62  1  0  0  0  0
 61 63  1  0  0  0  0
 63 64  1  0  0  0  0
 64 85  1  0  0  0  0
 65 67  1  0  0  0  0
 65 77  1  0  0  0  0
 66 78  1  0  0  0  0
 68 70  1  0  0  0  0
M  CHG  1  78   1
M  ISO  4  41 100  64 101  75 100  85 101
M  END
> <Batch ID>
0123

> <Smiles>
CCCc1cc(NC=CC=CC[101CH2:1][101O:1]c2ccc3c(c2)CN(C(=O)C(NC(=O)C(C)NC)C(C)(C)C)C(C(=O)NC2CCCc4ccccc42)C3)cc(Cl)c1[100NH:0][100C:0](=O)N1CCCC(n2nc(-c3ccc(Oc4ccc(F)cc4F)cc3)c(C(N)=O)c2N)C1

> <Shape>
0.217

> <Color>
0.191

> <Negative vol penalty>
0.000

$$$$

  -OEChem-04052302033D

 85 93  0     1  0  0  0  0  0999 V2000
  -16.5742  -28.9993   22.7538 C   0  0  0  0  0  0  0  0  0  0  0  0
  -17.3556  -29.7621   21.8917 C   0  0  0  0  0  0  0  0  0  0  0  0
  -29.1884  -13.7578   22.9072 C   0  0  0  0  0  0  0  0  0  0  0  0
  -30.3432  -15.6855   22.0197 C   0  0  0  0  0  0  0  0  0  0  0  0
  -17.0312  -28.7157   24.0401 C   0  0  0  0  0  0  0  0  0  0  0  0
  -18.5939  -30.2426   22.3160 C   0  0  0  0  0  0  0  0  0  0  0  0
  -24.6406  -28.5280   18.7962 C   0  0  0  0  0  0  0  0  0  0  0  0
  -29.8465  -12.9405   21.9882 C   0  0  0  0  0  0  0  0  0  0  0  0
  -31.0013  -14.8682   21.1008 C   0  0  0  0  0  0  0  0  0  0  0  0
  -25.8165  -28.4170   18.0538 C   0  0  0  0  0  0  0  0  0  0  0  0
  -30.9545  -10.3980   19.6363 C   0  0  0  0  0  0  0  0  0  0  0  0
  -30.1978   -9.4436   18.9565 C   0  0  0  0  0  0  0  0  0  0  0  0
  -25.6331  -24.4961   19.8627 C   0  0  0  0  0  0  0  0  0  0  0  0
  -26.6823  -22.9197   21.3630 C   0  0  0  0  0  0  0  0  0  0  0  0
  -27.0165  -29.6551   19.7494 C   0  0  0  0  0  0  0  0  0  0  0  0
  -24.2823  -22.9096   21.0856 C   0  0  0  0  0  0  0  0  0  0  0  0
  -28.8178  -11.1974   18.0308 C   0  0  0  0  0  0  0  0  0  0  0  0
  -29.4367  -15.1304   22.9229 C   0  0  0  0  0  0  0  0  0  0  0  0
  -26.7828  -23.9740   20.4554 C   0  0  0  0  0  0  0  0  0  0  0  0
  -29.1866  -16.3150   25.1682 C   0  0  0  0  0  0  0  0  0  0  0  0
  -18.2801  -29.1849   24.4770 C   0  0  0  0  0  0  0  0  0  0  0  0
  -24.6516  -29.1904   20.0269 C   0  0  0  0  0  0  0  0  0  0  0  0
  -19.0674  -29.9661   23.6098 C   0  0  0  0  0  0  0  0  0  0  0  0
  -25.8445  -29.7586   20.5034 C   0  0  0  0  0  0  0  0  0  0  0  0
  -24.3828  -23.9639   20.1779 C   0  0  0  0  0  0  0  0  0  0  0  0
  -25.4320  -22.3874   21.6782 C   0  0  0  0  0  0  0  0  0  0  0  0
  -30.7530  -13.4957   21.0851 C   0  0  0  0  0  0  0  0  0  0  0  0
  -27.0014  -28.9794   18.5291 C   0  0  0  0  0  0  0  0  0  0  0  0
  -30.6429  -11.7520   19.5135 C   0  0  0  0  0  0  0  0  0  0  0  0
  -29.1295   -9.8433   18.1537 C   0  0  0  0  0  0  0  0  0  0  0  0
  -29.5745  -12.1517   18.7106 C   0  0  0  0  0  0  0  0  0  0  0  0
  -28.7567  -15.9753   23.8715 C   0  0  0  0  0  0  0  0  0  0  0  0
  -28.1965  -17.1332   25.6548 C   0  0  0  0  0  0  0  0  0  0  0  0
  -28.1036  -24.5361   20.1233 C   0  0  0  0  0  0  0  0  0  0  0  0
  -28.3673  -25.2560   19.0238 C   0  0  0  0  0  0  0  0  0  0  0  0
  -30.3747  -15.9259   25.8701 C   0  0  0  0  0  0  0  0  0  0  0  0
  -29.7444  -25.7747   18.7722 C   0  0  0  0  0  0  0  0  0  0  0  0
  -22.7030  -30.2942   23.0369 C   0  0  0  0  0  0  0  0  0  0  0  0
  -25.4347  -29.3319   24.0477 C   0  0  0  0  0  0  0  0  0  0  0  0
  -27.8955  -27.4671   24.6558 C   0  0  0  0  0  0  0  0  0  0  0  0
  -24.1664  -20.6742   23.0234 C   0  0  0  0  0  0  0  0  0  0  0  0
  -18.7107  -28.8924   25.8925 C   0  0  0  0  0  0  0  0  0  0  0  0
  -23.3955  -29.3873   20.8313 C   0  0  0  0  0  0  0  0  0  0  0  0
  -25.8015  -30.4920   21.8161 C   0  0  0  0  0  0  0  0  0  0  0  0
  -20.1998  -29.1237   26.1362 C   0  0  0  0  0  0  0  0  0  0  0  0
  -23.4999  -17.9770   25.2500 C   0  0  0  0  0  0  0  0  0  0  0  0
  -20.6365  -30.4598   25.5438 C   0  0  0  0  0  0  0  0  0  0  0  0
  -24.8134  -17.1919   25.2719 C   0  0  0  0  0  0  0  0  0  0  0  0
  -23.2011  -18.5440   23.8632 C   0  0  0  0  0  0  0  0  0  0  0  0
  -25.5978  -18.5543   23.2931 C   0  0  0  0  0  0  0  0  0  0  0  0
  -20.4273  -30.4844   24.0248 C   0  0  1  0  0  0  0  0  0  0  0  0
  -23.6386  -29.3429   22.3505 C   0  0  1  0  0  0  0  0  0  0  0  0
  -25.9739  -18.0186   24.6842 C   0  0  2  0  0  0  0  0  0  0  0  0
  -23.1531  -24.5222   19.5450 C   0  0  0  0  0  0  0  0  0  0  0  0
  -29.8302  -26.6663   26.0390 C   0  0  0  0  0  0  0  0  0  0  0  0
  -26.3552  -32.2324   24.2565 C   0  0  0  0  0  0  0  0  0  0  0  0
  -28.3985  -31.4234   25.4559 C   0  0  0  0  0  0  0  0  0  0  0  0
  -26.1408  -31.0454   26.4472 C   0  0  0  0  0  0  0  0  0  0  0  0
  -26.7647  -24.7404   24.8687 C   0  0  0  0  0  0  0  0  0  0  0  0
  -29.9212  -26.5770   17.4936 C   0  0  0  0  0  0  0  0  0  0  0  0
  -30.3883  -28.0093   17.7383 C   0  0  0  0  0  0  0  0  0  0  0  0
  -29.3753  -28.8313   18.5265 C   0  0  0  0  0  0  0  0  0  1  0  0
  -26.8467  -29.7033   24.4241 C   0  0  1  0  0  0  0  0  0  0  0  0
  -28.3596  -26.4718   25.7038 C   0  0  2  0  0  0  0  0  0  0  0  0
  -26.9289  -31.0913   25.1200 C   0  0  0  0  0  0  0  0  0  0  0  0
  -27.5847  -16.5320   23.5544 N   0  0  0  0  0  0  0  0  0  0  0  0
  -27.2697  -17.2298   24.6589 N   0  0  0  0  0  0  0  0  0  0  0  0
  -24.9885  -29.7405   22.7850 N   0  0  0  0  0  0  0  0  0  0  0  0
  -24.3431  -19.3186   23.3725 N   0  0  0  0  0  0  0  0  0  0  0  0
  -28.0370  -17.7722   26.8332 N   0  0  0  0  0  0  0  0  0  0  0  0
  -31.2865  -15.0808   25.2230 N   0  0  0  0  0  0  0  0  0  0  0  0
  -25.3296  -21.3171   22.6011 N   0  0  0  0  0  0  0  0  0  0  0  0
  -21.4768  -29.7439   23.3580 N   0  0  0  0  0  0  0  0  0  0  0  0
  -27.3581  -28.5998   25.2298 N   0  0  0  0  0  0  0  0  0  0  0  0
  -28.1699  -25.0772   25.2137 N   0  3  0  0  0  0  0  0  0  0  0  0
  -30.6126  -16.3028   27.0427 O   0  0  0  0  0  0  0  0  0  0  0  0
  -30.6745  -25.5361   19.5381 O   0  0  0  0  0  0  0  0  0  0  0  0
  -23.0662  -31.4430   23.2606 O   0  0  0  0  0  0  0  0  0  0  0  0
  -24.7422  -28.7016   24.8516 O   0  0  0  0  0  0  0  0  0  0  0  0
  -28.0027  -27.2621   23.4487 O   0  0  0  0  0  0  0  0  0  0  0  0
  -23.0701  -21.2316   23.1197 O   0  0  0  0  0  0  0  0  0  0  0  0
  -31.3956  -12.6984   20.1884 O   0  0  0  0  0  0  0  0  0  0  0  0
  -28.1467  -28.8636   17.8014 O   0  0  0  0  0  0  0  0  0  1  0  0
  -28.4038   -8.9268   17.4997 F   0  0  0  0  0  0  0  0  0  0  0  0
  -29.2710  -13.4512   18.5877 F   0  0  0  0  0  0  0  0  0  0  0  0
  1  2  1  0  0  0  0
  1  5  2  0  0  0  0
  2  6  2  0  0  0  0
  3  8  2  0  0  0  0
  3 18  1  0  0  0  0
  4  9  1  0  0  0  0
  4 18  2  0  0  0  0
  5 21  1  0  0  0  0
  6 23  1  0  0  0  0
  7 10  2  0  0  0  0
  7 22  1  0  0  0  0
  8 27  1  0  0  0  0
  9 27  2  0  0  0  0
 10 28  1  0  0  0  0
 11 12  2  0  0  0  0
 11 29  1  0  0  0  0
 12 30  1  0  0  0  0
 13 19  1  0  0  0  0
 13 25  2  0  0  0  0
 14 19  2  0  0  0  0
 14 26  1  0  0  0  0
 15 24  1  0  0  0  0
 15 28  2  0  0  0  0
 16 25  1  0  0  0  0
 16 26  2  0  0  0  0
 17 30  2  0  0  0  0
 17 31  1  0  0  0  0
 18 32  1  0  0  0  0
 19 34  1  0  0  0  0
 20 32  1  0  0  0  0
 20 33  2  0  0  0  0
 20 36  1  0  0  0  0
 21 23  2  0  0  0  0
 21 42  1  0  0  0  0
 22 24  2  0  0  0  0
 22 43  1  0  0  0  0
 23 51  1  0  0  0  0
 24 44  1  0  0  0  0
 25 54  1  0  0  0  0
 26 72  1  0  0  0  0
 27 82  1  0  0  0  0
 28 83  1  0  0  0  0
 29 31  2  0  0  0  0
 29 82  1  0  0  0  0
 30 84  1  0  0  0  0
 31 85  1  0  0  0  0
 32 66  2  0  0  0  0
 33 67  1  0  0  0  0
 33 70  1  0  0  0  0
 34 35  2  0  0  0  0
 35 37  1  0  0  0  0
 36 71  1  0  0  0  0
 36 76  2  0  0  0  0
 37 60  1  0  0  0  0
 37 77  2  0  0  0  0
 38 52  1  0  0  0  0
 38 73  1  0  0  0  0
 38 78  2  0  0  0  0
 39 63  1  0  0  0  0
 39 68  1  0  0  0  0
 39 79  2  0  0  0  0
 40 64  1  0  0  0  0
 40 74  1  0  0  0  0
 40 80  2  0  0  0  0
 41 69  1  0  0  0  0
 41 72  1  0  0  0  0
 41 81  2  0  0  0  0
 42 45  1  0  0  0  0
 43 52  1  0  0  0  0
 44 68  1  0  0  0  0
 45 47  1  0  0  0  0
 46 48  1  0  0  0  0
 46 49  1  0  0  0  0
 47 51  1  0  0  0  0
 48 53  1  0  0  0  0
 49 69  1  0  0  0  0
 50 53  1  0  0  0  0
 50 69  1  0  0  0  0
 51 73  1  0  0  0  0
 52 68  1  0  0  0  0
 53 67  1  0  0  0  0
 55 64  1  0  0  0  0
 56 65  1  0  0  0  0
 57 65  1  0  0  0  0
 58 65  1  0  0  0  0
 59 75  1  0  0  0  0
 60 61  1  0  0  0  0
 61 62  1  0  0  0  0
 62 83  1  0  0  0  0
 63 65  1  0  0  0  0
 63 74  1  0  0  0  0
 64 75  1  0  0  0  0
 66 67  1  0  0  0  0
M  CHG  1  75   1
M  ISO  4  41 100  62 101  72 100  83 101
M  END
> <Batch ID>
0123

> <Smiles>
CNC(C)C(=O)NC(C(=O)N1Cc2cc([101O:1][101CH2:1]CCC(=O)C=Cc3cc(C)cc([100NH:0][100C:0](=O)N4CCCC(n5nc(-c6ccc(Oc7ccc(F)cc7F)cc6)c(C(N)=O)c5N)C4)c3)ccc2CC1C(=O)NC1CCCc2ccccc21)C(C)(C)C

> <Shape>
0.201

> <Color>
0.087

> <Negative vol penalty>
0.000

$$$$

  -OEChem-04052302033D

 83 91  0     1  0  0  0  0  0999 V2000
  -34.7144  -33.0073   20.0585 C   0  0  0  0  0  0  0  0  0  0  0  0
  -34.2170  -32.2538   21.1169 C   0  0  0  0  0  0  0  0  0  0  0  0
  -23.0776   -9.8539   19.9508 C   0  0  0  0  0  0  0  0  0  0  0  0
  -23.8322   -9.8783   22.2458 C   0  0  0  0  0  0  0  0  0  0  0  0
  -34.4380  -32.6296   18.7451 C   0  0  0  0  0  0  0  0  0  0  0  0
  -33.4421  -31.1228   20.8626 C   0  0  0  0  0  0  0  0  0  0  0  0
  -33.3138  -25.9390   24.1210 C   0  0  0  0  0  0  0  0  0  0  0  0
  -22.3348   -8.7015   20.2073 C   0  0  0  0  0  0  0  0  0  0  0  0
  -23.0893   -8.7259   22.5023 C   0  0  0  0  0  0  0  0  0  0  0  0
  -32.4416  -25.4690   25.1020 C   0  0  0  0  0  0  0  0  0  0  0  0
  -19.8609   -7.9278   23.1031 C   0  0  0  0  0  0  0  0  0  0  0  0
  -19.1013   -7.8951   24.2724 C   0  0  0  0  0  0  0  0  0  0  0  0
  -29.8627  -17.4765   23.1101 C   0  0  0  0  0  0  0  0  0  0  0  0
  -31.8326  -18.3876   24.1713 C   0  0  0  0  0  0  0  0  0  0  0  0
  -31.2310  -24.2298   23.4233 C   0  0  0  0  0  0  0  0  0  0  0  0
  -32.0490  -16.6261   22.5320 C   0  0  0  0  0  0  0  0  0  0  0  0
  -20.3438   -5.9648   25.0256 C   0  0  0  0  0  0  0  0  0  0  0  0
  -23.8263  -10.4423   20.9701 C   0  0  0  0  0  0  0  0  0  0  0  0
  -30.4472  -18.3673   24.0103 C   0  0  0  0  0  0  0  0  0  0  0  0
  -24.1648  -12.9670   20.8328 C   0  0  0  0  0  0  0  0  0  0  0  0
  -33.6674  -31.4880   18.4744 C   0  0  0  0  0  0  0  0  0  0  0  0
  -33.1443  -25.5660   22.7799 C   0  0  0  0  0  0  0  0  0  0  0  0
  -33.1540  -30.7303   19.5444 C   0  0  0  0  0  0  0  0  0  0  0  0
  -32.1039  -24.6944   22.4276 C   0  0  0  0  0  0  0  0  0  0  0  0
  -30.6636  -16.6059   22.3710 C   0  0  0  0  0  0  0  0  0  0  0  0
  -22.3406   -8.1375   21.4830 C   0  0  0  0  0  0  0  0  0  0  0  0
  -31.3983  -24.6166   24.7527 C   0  0  0  0  0  0  0  0  0  0  0  0
  -20.8619   -6.9789   22.8949 C   0  0  0  0  0  0  0  0  0  0  0  0
  -19.3428   -6.9137   25.2337 C   0  0  0  0  0  0  0  0  0  0  0  0
  -32.6335  -17.5170   23.4322 C   0  0  0  0  0  0  0  0  0  0  0  0
  -21.1034   -5.9974   23.8562 C   0  0  0  0  0  0  0  0  0  0  0  0
  -24.5943  -11.6324   20.7056 C   0  0  0  0  0  0  0  0  0  0  0  0
  -25.2567  -13.7155   20.4667 C   0  0  0  0  0  0  0  0  0  0  0  0
  -29.6021  -19.2859   24.7914 C   0  0  0  0  0  0  0  0  0  0  0  0
  -29.9701  -19.9009   25.9263 C   0  0  0  0  0  0  0  0  0  0  0  0
  -22.8926  -13.4840   21.2451 C   0  0  0  0  0  0  0  0  0  0  0  0
  -32.5407  -27.1257   20.0769 C   0  0  0  0  0  0  0  0  0  0  0  0
  -33.0094  -24.2058   18.7439 C   0  0  0  0  0  0  0  0  0  0  0  0
  -33.0059  -20.8141   19.1219 C   0  0  0  0  0  0  0  0  0  0  0  0
  -30.7210  -14.7702   20.6466 C   0  0  0  0  0  0  0  0  0  0  0  0
  -33.3556  -31.1462   17.0389 C   0  0  0  0  0  0  0  0  0  0  0  0
  -34.1097  -26.0602   21.7378 C   0  0  0  0  0  0  0  0  0  0  0  0
  -31.8910  -24.2477   21.0051 C   0  0  0  0  0  0  0  0  0  0  0  0
  -32.8399  -29.7219   16.8501 C   0  0  0  0  0  0  0  0  0  0  0  0
  -29.6156  -12.3379   18.2931 C   0  0  0  0  0  0  0  0  0  0  0  0
  -31.7662  -29.4013   17.8851 C   0  0  0  0  0  0  0  0  0  0  0  0
  -28.1754  -12.0474   18.7214 C   0  0  0  0  0  0  0  0  0  0  0  0
  -30.5276  -12.5767   19.4952 C   0  0  0  0  0  0  0  0  0  0  0  0
  -28.6164  -13.3082   20.8668 C   0  0  0  0  0  0  0  0  0  0  0  0
  -32.3303  -29.4829   19.3087 C   0  0  1  0  0  0  0  0  0  0  0  0
  -33.5338  -26.0259   20.3256 C   0  0  1  0  0  0  0  0  0  0  0  0
  -27.6465  -13.1251   19.6880 C   0  0  2  0  0  0  0  0  0  0  0  0
  -33.3936  -18.6892   17.8444 C   0  0  0  0  0  0  0  0  0  0  0  0
  -30.2912  -24.5239   17.3947 C   0  0  0  0  0  0  0  0  0  0  0  0
  -30.3092  -22.0629   16.9352 C   0  0  0  0  0  0  0  0  0  0  0  0
  -32.0668  -23.5282   15.9420 C   0  0  0  0  0  0  0  0  0  0  0  0
  -35.2424  -20.0220   20.8910 C   0  0  0  0  0  0  0  0  0  0  0  0
  -29.0734  -20.8354   26.6881 C   0  0  0  0  0  0  0  0  0  0  0  0
  -29.7139  -22.2133   26.8441 C   0  0  0  0  0  0  0  0  0  0  0  0
  -29.9619  -22.8723   25.4943 C   0  0  0  0  0  0  0  0  0  1  0  0
  -32.1269  -23.0249   18.4189 C   0  0  1  0  0  0  0  0  0  0  0  0
  -34.0207  -19.7557   18.7288 C   0  0  2  0  0  0  0  0  0  0  0  0
  -31.2011  -23.2947   17.1993 C   0  0  0  0  0  0  0  0  0  0  0  0
  -25.8603  -11.5354   20.2909 N   0  0  0  0  0  0  0  0  0  0  0  0
  -26.2356  -12.8186   20.1543 N   0  0  0  0  0  0  0  0  0  0  0  0
  -32.8576  -24.7632   20.0215 N   0  0  0  0  0  0  0  0  0  0  0  0
  -29.9651  -13.6129   20.3638 N   0  0  0  0  0  0  0  0  0  0  0  0
  -25.4654  -15.0467   20.3846 N   0  0  0  0  0  0  0  0  0  0  0  0
  -21.8812  -12.5758   21.5865 N   0  0  0  0  0  0  0  0  0  0  0  0
  -30.0704  -15.7002   21.4569 N   0  0  0  0  0  0  0  0  0  0  0  0
  -33.1048  -28.2992   19.6141 N   0  0  0  0  0  0  0  0  0  0  0  0
  -33.0190  -21.8828   18.2507 N   0  0  0  0  0  0  0  0  0  0  0  0
  -34.5749  -19.0930   19.9432 N   0  3  0  0  0  0  0  0  0  0  0  0
  -22.6545  -14.7146   21.2930 O   0  0  0  0  0  0  0  0  0  0  0  0
  -31.3505  -26.9241   20.2878 O   0  0  0  0  0  0  0  0  0  0  0  0
  -33.8091  -24.6141   17.8981 O   0  0  0  0  0  0  0  0  0  0  0  0
  -32.2723  -20.7021   20.1016 O   0  0  0  0  0  0  0  0  0  0  0  0
  -31.8509  -14.9373   20.1804 O   0  0  0  0  0  0  0  0  0  0  0  0
  -21.6157   -7.0131   21.7337 O   0  0  0  0  0  0  0  0  0  0  0  0
  -30.5452  -24.1569   25.7081 O   0  0  0  0  0  0  0  0  0  1  0  0
  -18.6143   -6.8834   26.3574 F   0  0  0  0  0  0  0  0  0  0  0  0
  -33.9637  -17.5342   23.5885 F   0  0  0  0  0  0  0  0  0  0  0  0
  -22.0645   -5.0839   23.6623 F   0  0  0  0  0  0  0  0  0  0  0  0
  1  2  1  0  0  0  0
  1  5  2  0  0  0  0
  2  6  2  0  0  0  0
  3  8  2  0  0  0  0
  3 18  1  0  0  0  0
  4  9  1  0  0  0  0
  4 18  2  0  0  0  0
  5 21  1  0  0  0  0
  6 23  1  0  0  0  0
  7 10  2  0  0  0  0
  7 22  1  0  0  0  0
  8 26  1  0  0  0  0
  9 26  2  0  0  0  0
 10 27  1  0  0  0  0
 11 12  2  0  0  0  0
 11 28  1  0  0  0  0
 12 29  1  0  0  0  0
 13 19  2  0  0  0  0
 13 25  1  0  0  0  0
 14 19  1  0  0  0  0
 14 30  2  0  0  0  0
 15 24  1  0  0  0  0
 15 27  2  0  0  0  0
 16 25  2  0  0  0  0
 16 30  1  0  0  0  0
 17 29  2  0  0  0  0
 17 31  1  0  0  0  0
 18 32  1  0  0  0  0
 19 34  1  0  0  0  0
 20 32  1  0  0  0  0
 20 33  2  0  0  0  0
 20 36  1  0  0  0  0
 21 23  2  0  0  0  0
 21 41  1  0  0  0  0
 22 24  2  0  0  0  0
 22 42  1  0  0  0  0
 23 50  1  0  0  0  0
 24 43  1  0  0  0  0
 25 70  1  0  0  0  0
 26 79  1  0  0  0  0
 27 80  1  0  0  0  0
 28 31  2  0  0  0  0
 28 79  1  0  0  0  0
 29 81  1  0  0  0  0
 30 82  1  0  0  0  0
 31 83  1  0  0  0  0
 32 64  2  0  0  0  0
 33 65  1  0  0  0  0
 33 68  1  0  0  0  0
 34 35  2  0  0  0  0
 35 58  1  0  0  0  0
 36 69  1  0  0  0  0
 36 74  2  0  0  0  0
 37 51  1  0  0  0  0
 37 71  1  0  0  0  0
 37 75  2  0  0  0  0
 38 61  1  0  0  0  0
 38 66  1  0  0  0  0
 38 76  2  0  0  0  0
 39 62  1  0  0  0  0
 39 72  1  0  0  0  0
 39 77  2  0  0  0  0
 40 67  1  0  0  0  0
 40 70  1  0  0  0  0
 40 78  2  0  0  0  0
 41 44  1  0  0  0  0
 42 51  1  0  0  0  0
 43 66  1  0  0  0  0
 44 46  1  0  0  0  0
 45 47  1  0  0  0  0
 45 48  1  0  0  0  0
 46 50  1  0  0  0  0
 47 52  1  0  0  0  0
 48 67  1  0  0  0  0
 49 52  1  0  0  0  0
 49 67  1  0  0  0  0
 50 71  1  0  0  0  0
 51 66  1  0  0  0  0
 52 65  1  0  0  0  0
 53 62  1  0  0  0  0
 54 63  1  0  0  0  0
 55 63  1  0  0  0  0
 56 63  1  0  0  0  0
 57 73  1  0  0  0  0
 58 59  1  0  0  0  0
 59 60  1  0  0  0  0
 60 80  1  0  0  0  0
 61 63  1  0  0  0  0
 61 72  1  0  0  0  0
 62 73  1  0  0  0  0
 64 65  1  0  0  0  0
M  CHG  1  73   1
M  ISO  4  40 100  60 101  70 100  80 101
M  END
> <Batch ID>
0123

> <Smiles>
CNC(C)C(=O)NC(C(=O)N1Cc2cc([101O:1][101CH2:1]CCC=Cc3cc(F)cc([100NH:0][100C:0](=O)N4CCCC(n5nc(-c6ccc(Oc7ccc(F)cc7F)cc6)c(C(N)=O)c5N)C4)c3)ccc2CC1C(=O)NC1CCCc2ccccc21)C(C)(C)C

> <Shape>
0.196

> <Color>
0.201

> <Negative vol penalty>
0.000

$$$$

  -OEChem-04052302033D

 88 97  0     1  0  0  0  0  0999 V2000
  -29.7037  -32.3224   25.4686 C   0  0  0  0  0  0  0  0  0  0  0  0
  -29.4448  -31.1306   24.7993 C   0  0  0  0  0  0  0  0  0  0  0  0
  -22.0804   -9.6158   20.9369 C   0  0  0  0  0  0  0  0  0  0  0  0
  -24.4152   -9.9864   21.4353 C   0  0  0  0  0  0  0  0  0  0  0  0
  -30.9085  -18.2492   20.6912 C   0  0  0  0  0  0  0  0  0  0  0  0
  -28.6487  -33.0759   25.9816 C   0  0  0  0  0  0  0  0  0  0  0  0
  -28.1307  -30.6909   24.6437 C   0  0  0  0  0  0  0  0  0  0  0  0
  -27.1778  -29.0385   19.9526 C   0  0  0  0  0  0  0  0  0  0  0  0
  -30.2948  -17.2729   21.4759 C   0  0  0  0  0  0  0  0  0  0  0  0
  -22.2478   -8.2504   21.1680 C   0  0  0  0  0  0  0  0  0  0  0  0
  -24.5826   -8.6211   21.6664 C   0  0  0  0  0  0  0  0  0  0  0  0
  -27.6358  -27.7641   19.6211 C   0  0  0  0  0  0  0  0  0  0  0  0
  -22.4700   -6.1843   23.8353 C   0  0  0  0  0  0  0  0  0  0  0  0
  -21.5064   -5.5345   24.6065 C   0  0  0  0  0  0  0  0  0  0  0  0
  -29.3052  -17.8418   18.9303 C   0  0  0  0  0  0  0  0  0  0  0  0
  -25.4209  -26.8801   19.9846 C   0  0  0  0  0  0  0  0  0  0  0  0
  -21.0128   -4.0661   22.7525 C   0  0  0  0  0  0  0  0  0  0  0  0
  -23.1641  -10.4838   21.0705 C   0  0  0  0  0  0  0  0  0  0  0  0
  -30.4137  -18.5337   19.4184 C   0  0  0  0  0  0  0  0  0  0  0  0
  -22.1270  -12.7724   21.5115 C   0  0  0  0  0  0  0  0  0  0  0  0
  -27.3204  -32.6501   25.8237 C   0  0  0  0  0  0  0  0  0  0  0  0
  -25.8381  -29.2418   20.3138 C   0  0  0  0  0  0  0  0  0  0  0  0
  -27.0570  -31.4387   25.1562 C   0  0  0  0  0  0  0  0  0  0  0  0
  -24.9478  -28.1585   20.3178 C   0  0  0  0  0  0  0  0  0  0  0  0
  -29.1862  -16.5811   20.9879 C   0  0  0  0  0  0  0  0  0  0  0  0
  -28.6914  -16.8655   19.7151 C   0  0  0  0  0  0  0  0  0  0  0  0
  -23.4988   -7.7531   21.5327 C   0  0  0  0  0  0  0  0  0  0  0  0
  -26.7580  -26.6842   19.6399 C   0  0  0  0  0  0  0  0  0  0  0  0
  -22.7050   -5.7752   22.5226 C   0  0  0  0  0  0  0  0  0  0  0  0
  -20.7779   -4.4753   24.0651 C   0  0  0  0  0  0  0  0  0  0  0  0
  -21.9764   -4.7160   21.9813 C   0  0  0  0  0  0  0  0  0  0  0  0
  -22.9919  -11.8942   20.8314 C   0  0  0  0  0  0  0  0  0  0  0  0
  -22.3358  -13.9913   20.9139 C   0  0  0  0  0  0  0  0  0  0  0  0
  -29.4723  -22.8469   19.2181 C   0  0  0  0  0  0  0  0  0  0  0  0
  -29.5698  -21.4016   19.5427 C   0  0  0  0  0  0  0  0  0  0  0  0
  -28.6908  -23.6849   19.9033 C   0  0  0  0  0  0  0  0  0  0  0  0
  -31.0603  -19.5622   18.5932 C   0  0  0  0  0  0  0  0  0  0  0  0
  -21.2163  -12.5098   22.5873 C   0  0  0  0  0  0  0  0  0  0  0  0
  -24.3510  -30.2699   22.9281 C   0  0  0  0  0  0  0  0  0  0  0  0
  -21.7244  -30.0889   21.0333 C   0  0  0  0  0  0  0  0  0  0  0  0
  -20.4077  -27.8064   18.5687 C   0  0  0  0  0  0  0  0  0  0  0  0
  -26.9623  -16.3490   17.9573 C   0  0  0  0  0  0  0  0  0  0  0  0
  -26.2162  -33.4744   26.4368 C   0  0  0  0  0  0  0  0  0  0  0  0
  -25.3536  -30.6272   20.6427 C   0  0  0  0  0  0  0  0  0  0  0  0
  -23.4953  -28.3271   20.6788 C   0  0  0  0  0  0  0  0  0  0  0  0
  -30.3599  -23.1823   18.0699 C   0  0  0  0  0  0  0  0  0  0  0  0
  -24.8289  -33.1279   25.9023 C   0  0  0  0  0  0  0  0  0  0  0  0
  -23.6418  -15.9403   16.7390 C   0  0  0  0  0  0  0  0  0  0  0  0
  -24.6290  -31.6159   25.8766 C   0  0  0  0  0  0  0  0  0  0  0  0
  -23.0177  -14.9409   17.7156 C   0  0  0  0  0  0  0  0  0  0  0  0
  -31.1742  -21.9175   17.8749 C   0  0  0  0  0  0  0  0  0  0  0  0
  -25.1113  -15.6244   16.4660 C   0  0  0  0  0  0  0  0  0  0  0  0
  -25.3253  -14.4865   18.6406 C   0  0  0  0  0  0  0  0  0  0  0  0
  -25.6435  -30.9410   24.9455 C   0  0  1  0  0  0  0  0  0  0  0  0
  -24.0874  -30.6310   21.4936 C   0  0  1  0  0  0  0  0  0  0  0  0
  -23.8634  -14.8018   18.9967 C   0  0  2  0  0  0  0  0  0  0  0  0
  -28.5496  -15.5398   21.8499 C   0  0  0  0  0  0  0  0  0  0  0  0
  -18.8747  -28.2120   16.6237 C   0  0  0  0  0  0  0  0  0  0  0  0
  -19.5142  -29.3000   22.9832 C   0  0  0  0  0  0  0  0  0  0  0  0
  -18.3767  -28.1031   21.1012 C   0  0  0  0  0  0  0  0  0  0  0  0
  -18.7304  -30.5693   20.9760 C   0  0  0  0  0  0  0  0  0  0  0  0
  -22.3278  -26.6149   16.6577 C   0  0  0  0  0  0  0  0  0  0  0  0
  -28.5684  -25.1424   19.6050 C   0  0  0  0  0  0  0  0  0  1  0  0
  -20.7095  -29.0184   20.7122 C   0  0  1  0  0  0  0  0  0  0  0  0
  -20.3178  -28.0387   17.0712 C   0  0  2  0  0  0  0  0  0  0  0  0
  -19.3594  -29.2412   21.4504 C   0  0  0  0  0  0  0  0  0  0  0  0
  -23.6975  -12.5034   19.8748 N   0  0  0  0  0  0  0  0  0  0  0  0
  -23.2762  -13.7774   19.9495 N   0  0  0  0  0  0  0  0  0  0  0  0
  -30.5915  -20.8837   18.7146 N   0  0  0  0  0  0  0  0  0  0  0  0
  -23.0711  -29.7001   20.9989 N   0  0  0  0  0  0  0  0  0  0  0  0
  -25.8508  -15.5115   17.7252 N   0  0  0  0  0  0  0  0  0  0  0  0
  -21.8048  -15.2145   21.1244 N   0  0  0  0  0  0  0  0  0  0  0  0
  -21.1263  -11.2016   23.0823 N   0  0  0  0  0  0  0  0  0  0  0  0
  -27.5660  -16.1741   19.2021 N   0  0  0  0  0  0  0  0  0  0  0  0
  -25.2489  -31.1067   23.5630 N   0  0  0  0  0  0  0  0  0  0  0  0
  -20.5971  -28.9855   19.2580 N   0  0  0  0  0  0  0  0  0  0  0  0
  -20.9038  -26.8850   16.3320 N   0  3  0  0  0  0  0  0  0  0  0  0
  -28.8664  -20.8301   20.3594 O   0  0  0  0  0  0  0  0  0  0  0  0
  -31.9615  -19.1963   17.8411 O   0  0  0  0  0  0  0  0  0  0  0  0
  -20.4916  -13.4053   23.0838 O   0  0  0  0  0  0  0  0  0  0  0  0
  -23.7808  -29.3046   23.4228 O   0  0  0  0  0  0  0  0  0  0  0  0
  -21.3369  -31.2297   21.2976 O   0  0  0  0  0  0  0  0  0  0  0  0
  -20.3151  -26.6910   19.0765 O   0  0  0  0  0  0  0  0  0  0  0  0
  -27.3335  -17.1805   17.1249 O   0  0  0  0  0  0  0  0  0  0  0  0
  -23.6625   -6.4209   21.7585 O   0  0  0  0  0  0  0  0  0  0  0  0
  -27.2026  -25.4391   19.3174 O   0  0  0  0  0  0  0  0  0  1  0  0
  -19.8536   -3.8504   24.8063 F   0  0  0  0  0  0  0  0  0  0  0  0
  -22.1985   -4.3177   20.7212 F   0  0  0  0  0  0  0  0  0  0  0  0
  1  2  1  0  0  0  0
  1  6  2  0  0  0  0
  2  7  2  0  0  0  0
  3 10  2  0  0  0  0
  3 18  1  0  0  0  0
  4 11  1  0  0  0  0
  4 18  2  0  0  0  0
  5  9  2  0  0  0  0
  5 19  1  0  0  0  0
  6 21  1  0  0  0  0
  7 23  1  0  0  0  0
  8 12  2  0  0  0  0
  8 22  1  0  0  0  0
  9 25  1  0  0  0  0
 10 27  1  0  0  0  0
 11 27  2  0  0  0  0
 12 28  1  0  0  0  0
 13 14  2  0  0  0  0
 13 29  1  0  0  0  0
 14 30  1  0  0  0  0
 15 19  2  0  0  0  0
 15 26  1  0  0  0  0
 16 24  1  0  0  0  0
 16 28  2  0  0  0  0
 17 30  2  0  0  0  0
 17 31  1  0  0  0  0
 18 32  1  0  0  0  0
 19 37  1  0  0  0  0
 20 32  1  0  0  0  0
 20 33  2  0  0  0  0
 20 38  1  0  0  0  0
 21 23  2  0  0  0  0
 21 43  1  0  0  0  0
 22 24  2  0  0  0  0
 22 44  1  0  0  0  0
 23 54  1  0  0  0  0
 24 45  1  0  0  0  0
 25 26  2  0  0  0  0
 25 57  1  0  0  0  0
 26 74  1  0  0  0  0
 27 85  1  0  0  0  0
 28 86  1  0  0  0  0
 29 31  2  0  0  0  0
 29 85  1  0  0  0  0
 30 87  1  0  0  0  0
 31 88  1  0  0  0  0
 32 67  2  0  0  0  0
 33 68  1  0  0  0  0
 33 72  1  0  0  0  0
 34 35  1  0  0  0  0
 34 36  2  0  0  0  0
 34 46  1  0  0  0  0
 35 69  1  0  0  0  0
 35 78  2  0  0  0  0
 36 63  1  0  0  0  0
 37 69  1  0  0  0  0
 37 79  2  0  0  0  0
 38 73  1  0  0  0  0
 38 80  2  0  0  0  0
 39 55  1  0  0  0  0
 39 75  1  0  0  0  0
 39 81  2  0  0  0  0
 40 64  1  0  0  0  0
 40 70  1  0  0  0  0
 40 82  2  0  0  0  0
 41 65  1  0  0  0  0
 41 76  1  0  0  0  0
 41 83  2  0  0  0  0
 42 71  1  0  0  0  0
 42 74  1  0  0  0  0
 42 84  2  0  0  0  0
 43 47  1  0  0  0  0
 44 55  1  0  0  0  0
 45 70  1  0  0  0  0
 46 51  1  0  0  0  0
 47 49  1  0  0  0  0
 48 50  1  0  0  0  0
 48 52  1  0  0  0  0
 49 54  1  0  0  0  0
 50 56  1  0  0  0  0
 51 69  1  0  0  0  0
 52 71  1  0  0  0  0
 53 56  1  0  0  0  0
 53 71  1  0  0  0  0
 54 75  1  0  0  0  0
 55 70  1  0  0  0  0
 56 68  1  0  0  0  0
 58 65  1  0  0  0  0
 59 66  1  0  0  0  0
 60 66  1  0  0  0  0
 61 66  1  0  0  0  0
 62 77  1  0  0  0  0
 63 86  1  0  0  0  0
 64 66  1  0  0  0  0
 64 76  1  0  0  0  0
 65 77  1  0  0  0  0
 67 68  1  0  0  0  0
M  CHG  1  77   1
M  ISO  4  42 100  63 101  74 100  86 101
M  END
> <Batch ID>
0123

> <Smiles>
CNC(C)C(=O)NC(C(=O)N1Cc2cc([101O:1][101CH2:1]C=C3CCN(C(=O)c4ccc(C)c([100NH:0][100C:0](=O)N5CCCC(n6nc(-c7ccc(Oc8ccc(F)cc8F)cc7)c(C(N)=O)c6N)C5)c4)C3=O)ccc2CC1C(=O)NC1CCCc2ccccc21)C(C)(C)C

> <Shape>
0.334

> <Color>
0.095

> <Negative vol penalty>
0.000

$$$$

  -OEChem-04052302033D

 84 92  0     1  0  0  0  0  0999 V2000
  -20.4344  -24.6406   24.1354 C   0  0  0  0  0  0  0  0  0  0  0  0
  -21.3620  -24.8250   23.1152 C   0  0  0  0  0  0  0  0  0  0  0  0
  -26.1477  -11.8971   21.2634 C   0  0  0  0  0  0  0  0  0  0  0  0
  -26.0896  -12.2580   18.8752 C   0  0  0  0  0  0  0  0  0  0  0  0
  -19.4720  -25.6178   24.3859 C   0  0  0  0  0  0  0  0  0  0  0  0
  -21.3271  -25.9863   22.3441 C   0  0  0  0  0  0  0  0  0  0  0  0
  -25.9248  -27.9877   21.6370 C   0  0  0  0  0  0  0  0  0  0  0  0
  -24.9026  -11.2716   21.1992 C   0  0  0  0  0  0  0  0  0  0  0  0
  -24.8445  -11.6325   18.8110 C   0  0  0  0  0  0  0  0  0  0  0  0
  -26.7411  -27.3857   20.6803 C   0  0  0  0  0  0  0  0  0  0  0  0
  -23.6775   -8.2457   20.3185 C   0  0  0  0  0  0  0  0  0  0  0  0
  -23.5137   -7.0538   21.0244 C   0  0  0  0  0  0  0  0  0  0  0  0
  -28.5067  -21.2224   14.5557 C   0  0  0  0  0  0  0  0  0  0  0  0
  -29.0405  -21.0393   16.9048 C   0  0  0  0  0  0  0  0  0  0  0  0
  -26.1527  -29.1116   19.1010 C   0  0  0  0  0  0  0  0  0  0  0  0
  -21.7401   -8.0635   22.3175 C   0  0  0  0  0  0  0  0  0  0  0  0
  -26.7412  -12.3903   20.1014 C   0  0  0  0  0  0  0  0  0  0  0  0
  -28.6830  -21.8184   15.8044 C   0  0  0  0  0  0  0  0  0  0  0  0
  -29.2913  -12.4298   20.0444 C   0  0  0  0  0  0  0  0  0  0  0  0
  -19.4313  -26.7960   23.6238 C   0  0  0  0  0  0  0  0  0  0  0  0
  -25.2067  -29.1521   21.3288 C   0  0  0  0  0  0  0  0  0  0  0  0
  -20.3624  -26.9796   22.5838 C   0  0  0  0  0  0  0  0  0  0  0  0
  -25.3300  -29.7279   20.0563 C   0  0  0  0  0  0  0  0  0  0  0  0
  -28.6879  -19.8473   14.4073 C   0  0  0  0  0  0  0  0  0  0  0  0
  -29.0454  -19.0682   15.5077 C   0  0  0  0  0  0  0  0  0  0  0  0
  -29.2217  -19.6642   16.7565 C   0  0  0  0  0  0  0  0  0  0  0  0
  -24.2510  -11.1393   19.9731 C   0  0  0  0  0  0  0  0  0  0  0  0
  -26.8528  -27.9460   19.4112 C   0  0  0  0  0  0  0  0  0  0  0  0
  -22.8727   -9.3465   20.6122 C   0  0  0  0  0  0  0  0  0  0  0  0
  -22.5449   -6.9627   22.0238 C   0  0  0  0  0  0  0  0  0  0  0  0
  -21.9040   -9.2554   21.6117 C   0  0  0  0  0  0  0  0  0  0  0  0
  -28.0271  -13.0370   20.1671 C   0  0  0  0  0  0  0  0  0  0  0  0
  -30.1839  -13.4651   20.1782 C   0  0  0  0  0  0  0  0  0  0  0  0
  -28.4906  -23.2710   15.9604 C   0  0  0  0  0  0  0  0  0  0  0  0
  -28.2558  -23.8866   17.1276 C   0  0  0  0  0  0  0  0  0  0  0  0
  -29.6285  -11.0531   19.8285 C   0  0  0  0  0  0  0  0  0  0  0  0
  -28.0650  -25.3654   17.1770 C   0  0  0  0  0  0  0  0  0  0  0  0
  -22.1246  -29.9195   21.2038 C   0  0  0  0  0  0  0  0  0  0  0  0
  -23.2888  -32.9016   20.6802 C   0  0  0  0  0  0  0  0  0  0  0  0
  -25.8668  -34.8557   19.5930 C   0  0  0  0  0  0  0  0  0  0  0  0
  -29.7937  -19.3451   19.1890 C   0  0  0  0  0  0  0  0  0  0  0  0
  -18.3428  -27.8026   23.9009 C   0  0  0  0  0  0  0  0  0  0  0  0
  -24.3514  -29.8042   22.3803 C   0  0  0  0  0  0  0  0  0  0  0  0
  -24.5958  -30.9885   19.6817 C   0  0  0  0  0  0  0  0  0  0  0  0
  -18.6087  -29.1729   23.2828 C   0  0  0  0  0  0  0  0  0  0  0  0
  -30.6598  -17.7544   22.2544 C   0  0  0  0  0  0  0  0  0  0  0  0
  -19.0607  -29.0261   21.8334 C   0  0  0  0  0  0  0  0  0  0  0  0
  -30.2036  -16.3074   22.0535 C   0  0  0  0  0  0  0  0  0  0  0  0
  -29.7015  -18.7474   21.5992 C   0  0  0  0  0  0  0  0  0  0  0  0
  -28.9594  -17.0446   19.9809 C   0  0  0  0  0  0  0  0  0  0  0  0
  -20.3723  -28.2370   21.7417 C   0  0  1  0  0  0  0  0  0  0  0  0
  -23.2642  -30.7002   21.7950 C   0  0  1  0  0  0  0  0  0  0  0  0
  -29.9278  -16.0046   20.5676 C   0  0  2  0  0  0  0  0  0  0  0  0
  -28.4936  -19.2337   13.0592 C   0  0  0  0  0  0  0  0  0  0  0  0
  -29.2383  -17.5931   15.3430 C   0  0  0  0  0  0  0  0  0  0  0  0
  -26.5096  -37.2571   19.2498 C   0  0  0  0  0  0  0  0  0  0  0  0
  -21.5405  -33.0099   18.1818 C   0  0  0  0  0  0  0  0  0  0  0  0
  -22.9034  -34.9580   17.3973 C   0  0  0  0  0  0  0  0  0  0  0  0
  -21.5913  -35.1270   19.5121 C   0  0  0  0  0  0  0  0  0  0  0  0
  -28.1273  -34.6429   21.4915 C   0  0  0  0  0  0  0  0  0  0  0  0
  -27.8066  -25.9440   18.5522 C   0  0  0  0  0  0  0  0  0  1  0  0
  -23.6766  -33.6985   19.4581 C   0  0  1  0  0  0  0  0  0  0  0  0
  -26.5349  -36.0739   20.2048 C   0  0  2  0  0  0  0  0  0  0  0  0
  -22.4404  -34.1735   18.6435 C   0  0  0  0  0  0  0  0  0  0  0  0
  -28.1054  -14.3558   20.3640 N   0  0  0  0  0  0  0  0  0  0  0  0
  -29.4295  -14.5858   20.3661 N   0  0  0  0  0  0  0  0  0  0  0  0
  -23.7671  -31.5851   20.7422 N   0  0  0  0  0  0  0  0  0  0  0  0
  -29.4911  -18.4001   20.1921 N   0  0  0  0  0  0  0  0  0  0  0  0
  -31.5326  -13.5171   20.1525 N   0  0  0  0  0  0  0  0  0  0  0  0
  -28.5886  -10.1205   19.7137 N   0  0  0  0  0  0  0  0  0  0  0  0
  -29.5844  -18.8912   17.8872 N   0  0  0  0  0  0  0  0  0  0  0  0
  -21.4942  -29.0779   22.1003 N   0  0  0  0  0  0  0  0  0  0  0  0
  -24.5322  -34.7813   19.9314 N   0  0  0  0  0  0  0  0  0  0  0  0
  -27.9549  -35.7717   20.5411 N   0  3  0  0  0  0  0  0  0  0  0  0
  -30.8173  -10.6591   19.7565 O   0  0  0  0  0  0  0  0  0  0  0  0
  -28.1151  -26.0637   16.1680 O   0  0  0  0  0  0  0  0  0  0  0  0
  -21.8375  -30.0706   20.0221 O   0  0  0  0  0  0  0  0  0  0  0  0
  -22.5932  -33.4301   21.5511 O   0  0  0  0  0  0  0  0  0  0  0  0
  -26.4679  -34.0528   18.8827 O   0  0  0  0  0  0  0  0  0  0  0  0
  -30.2338  -20.4645   19.4635 O   0  0  0  0  0  0  0  0  0  0  0  0
  -23.0361  -10.5288   19.9100 O   0  0  0  0  0  0  0  0  0  0  0  0
  -27.6483  -27.3601   18.4754 O   0  0  0  0  0  0  0  0  0  1  0  0
  -22.3866   -5.8176   22.7005 F   0  0  0  0  0  0  0  0  0  0  0  0
  -21.1271  -10.3092   21.8975 F   0  0  0  0  0  0  0  0  0  0  0  0
  1  2  1  0  0  0  0
  1  5  2  0  0  0  0
  2  6  2  0  0  0  0
  3  8  2  0  0  0  0
  3 17  1  0  0  0  0
  4  9  1  0  0  0  0
  4 17  2  0  0  0  0
  5 20  1  0  0  0  0
  6 22  1  0  0  0  0
  7 10  2  0  0  0  0
  7 21  1  0  0  0  0
  8 27  1  0  0  0  0
  9 27  2  0  0  0  0
 10 28  1  0  0  0  0
 11 12  2  0  0  0  0
 11 29  1  0  0  0  0
 12 30  1  0  0  0  0
 13 18  1  0  0  0  0
 13 24  2  0  0  0  0
 14 18  2  0  0  0  0
 14 26  1  0  0  0  0
 15 23  1  0  0  0  0
 15 28  2  0  0  0  0
 16 30  2  0  0  0  0
 16 31  1  0  0  0  0
 17 32  1  0  0  0  0
 18 34  1  0  0  0  0
 19 32  1  0  0  0  0
 19 33  2  0  0  0  0
 19 36  1  0  0  0  0
 20 22  2  0  0  0  0
 20 42  1  0  0  0  0
 21 23  2  0  0  0  0
 21 43  1  0  0  0  0
 22 51  1  0  0  0  0
 23 44  1  0  0  0  0
 24 25  1  0  0  0  0
 24 54  1  0  0  0  0
 25 26  2  0  0  0  0
 25 55  1  0  0  0  0
 26 71  1  0  0  0  0
 27 81  1  0  0  0  0
 28 82  1  0  0  0  0
 29 31  2  0  0  0  0
 29 81  1  0  0  0  0
 30 83  1  0  0  0  0
 31 84  1  0  0  0  0
 32 65  2  0  0  0  0
 33 66  1  0  0  0  0
 33 69  1  0  0  0  0
 34 35  2  0  0  0  0
 35 37  1  0  0  0  0
 36 70  1  0  0  0  0
 36 75  2  0  0  0  0
 37 61  1  0  0  0  0
 37 76  2  0  0  0  0
 38 52  1  0  0  0  0
 38 72  1  0  0  0  0
 38 77  2  0  0  0  0
 39 62  1  0  0  0  0
 39 67  1  0  0  0  0
 39 78  2  0  0  0  0
 40 63  1  0  0  0  0
 40 73  1  0  0  0  0
 40 79  2  0  0  0  0
 41 68  1  0  0  0  0
 41 71  1  0  0  0  0
 41 80  2  0  0  0  0
 42 45  1  0  0  0  0
 43 52  1  0  0  0  0
 44 67  1  0  0  0  0
 45 47  1  0  0  0  0
 46 48  1  0  0  0  0
 46 49  1  0  0  0  0
 47 51  1  0  0  0  0
 48 53  1  0  0  0  0
 49 68  1  0  0  0  0
 50 53  1  0  0  0  0
 50 68  1  0  0  0  0
 51 72  1  0  0  0  0
 52 67  1  0  0  0  0
 53 66  1  0  0  0  0
 56 63  1  0  0  0  0
 57 64  1  0  0  0  0
 58 64  1  0  0  0  0
 59 64  1  0  0  0  0
 60 74  1  0  0  0  0
 61 82  1  0  0  0  0
 62 64  1  0  0  0  0
 62 73  1  0  0  0  0
 63 74  1  0  0  0  0
 65 66  1  0  0  0  0
M  CHG  1  74   1
M  ISO  4  41 100  61 101  71 100  82 101
M  END
> <Batch ID>
0123

> <Smiles>
CNC(C)C(=O)NC(C(=O)N1Cc2cc([101O:1][101CH2:1]C(=O)C=Cc3cc(C)c(C)c([100NH:0][100C:0](=O)N4CCCC(n5nc(-c6ccc(Oc7ccc(F)cc7F)cc6)c(C(N)=O)c5N)C4)c3)ccc2CC1C(=O)NC1CCCc2ccccc21)C(C)(C)C

> <Shape>
0.264

> <Color>
0.099

> <Negative vol penalty>
0.000

$$$$

  -OEChem-04052302033D

 84 92  0     1  0  0  0  0  0999 V2000
  -17.1050  -32.0139   20.5752 C   0  0  0  0  0  0  0  0  0  0  0  0
  -18.4439  -32.3815   20.6621 C   0  0  0  0  0  0  0  0  0  0  0  0
  -24.9668   -8.6988   21.4253 C   0  0  0  0  0  0  0  0  0  0  0  0
  -23.3918  -10.3273   20.5861 C   0  0  0  0  0  0  0  0  0  0  0  0
  -16.6026  -31.0138   21.4067 C   0  0  0  0  0  0  0  0  0  0  0  0
  -19.2810  -31.7500   21.5813 C   0  0  0  0  0  0  0  0  0  0  0  0
  -25.1983  -28.2573   19.4185 C   0  0  0  0  0  0  0  0  0  0  0  0
  -23.9401   -7.7607   21.5321 C   0  0  0  0  0  0  0  0  0  0  0  0
  -22.3650   -9.3892   20.6928 C   0  0  0  0  0  0  0  0  0  0  0  0
  -26.4592  -27.7494   19.1048 C   0  0  0  0  0  0  0  0  0  0  0  0
  -21.6659   -5.0481   22.3647 C   0  0  0  0  0  0  0  0  0  0  0  0
  -21.5981   -4.2886   23.5327 C   0  0  0  0  0  0  0  0  0  0  0  0
  -26.7946  -27.1249   21.4169 C   0  0  0  0  0  0  0  0  0  0  0  0
  -28.3123  -19.7339   21.2419 C   0  0  0  0  0  0  0  0  0  0  0  0
  -28.4196  -19.7701   18.4545 C   0  0  0  0  0  0  0  0  0  0  0  0
  -21.3391   -6.3093   24.8316 C   0  0  0  0  0  0  0  0  0  0  0  0
  -24.6927   -9.9821   20.9524 C   0  0  0  0  0  0  0  0  0  0  0  0
  -26.5830  -11.1811   19.7289 C   0  0  0  0  0  0  0  0  0  0  0  0
  -17.4362  -30.3629   22.3298 C   0  0  0  0  0  0  0  0  0  0  0  0
  -24.7239  -28.1870   20.7313 C   0  0  0  0  0  0  0  0  0  0  0  0
  -18.7890  -30.7412   22.4268 C   0  0  0  0  0  0  0  0  0  0  0  0
  -25.5273  -27.6208   21.7347 C   0  0  0  0  0  0  0  0  0  0  0  0
  -28.3294  -20.9508   20.5605 C   0  0  0  0  0  0  0  0  0  0  0  0
  -28.3830  -20.9689   19.1668 C   0  0  0  0  0  0  0  0  0  0  0  0
  -28.3489  -18.5351   20.5297 C   0  0  0  0  0  0  0  0  0  0  0  0
  -22.6392   -8.1059   21.1658 C   0  0  0  0  0  0  0  0  0  0  0  0
  -27.2554  -27.1848   20.1016 C   0  0  0  0  0  0  0  0  0  0  0  0
  -21.5704   -6.4382   22.4301 C   0  0  0  0  0  0  0  0  0  0  0  0
  -21.4346   -4.9192   24.7661 C   0  0  0  0  0  0  0  0  0  0  0  0
  -28.4026  -18.5532   19.1360 C   0  0  0  0  0  0  0  0  0  0  0  0
  -21.4069   -7.0688   23.6636 C   0  0  0  0  0  0  0  0  0  0  0  0
  -25.7528  -10.9517   20.8425 C   0  0  0  0  0  0  0  0  0  0  0  0
  -27.4188  -12.1957   20.1269 C   0  0  0  0  0  0  0  0  0  0  0  0
  -29.6818  -25.0834   18.4678 C   0  0  0  0  0  0  0  0  0  0  0  0
  -28.5510  -25.6719   18.8747 C   0  0  0  0  0  0  0  0  0  1  0  0
  -29.5728  -22.6819   18.2277 C   0  0  0  0  0  0  0  0  0  0  0  0
  -26.5973  -10.5348   18.4492 C   0  0  0  0  0  0  0  0  0  0  0  0
  -21.9236  -28.9120   23.1205 C   0  0  0  0  0  0  0  0  0  0  0  0
  -23.0301  -26.1474   23.8572 C   0  0  0  0  0  0  0  0  0  0  0  0
  -24.2563  -22.9716   24.0760 C   0  0  0  0  0  0  0  0  0  0  0  0
  -28.2811  -17.1072   22.6041 C   0  0  0  0  0  0  0  0  0  0  0  0
  -16.8367  -29.3207   23.2403 C   0  0  0  0  0  0  0  0  0  0  0  0
  -23.3975  -28.7771   21.1265 C   0  0  0  0  0  0  0  0  0  0  0  0
  -24.9901  -27.5980   23.1396 C   0  0  0  0  0  0  0  0  0  0  0  0
  -17.8777  -28.4404   23.9270 C   0  0  0  0  0  0  0  0  0  0  0  0
  -28.1863  -14.2293   24.6983 C   0  0  0  0  0  0  0  0  0  0  0  0
  -19.0034  -29.2943   24.5019 C   0  0  0  0  0  0  0  0  0  0  0  0
  -27.6131  -13.1389   23.7902 C   0  0  0  0  0  0  0  0  0  0  0  0
  -27.5438  -15.5885   24.4275 C   0  0  0  0  0  0  0  0  0  0  0  0
  -27.0004  -14.9306   22.1165 C   0  0  0  0  0  0  0  0  0  0  0  0
  -19.7343  -30.0623   23.3940 C   0  0  1  0  0  0  0  0  0  0  0  0
  -22.6847  -27.9746   22.2297 C   0  0  1  0  0  0  0  0  0  0  0  0
  -27.6630  -13.5565   22.3074 C   0  0  2  0  0  0  0  0  0  0  0  0
  -28.2906  -22.2215   21.3451 C   0  0  0  0  0  0  0  0  0  0  0  0
  -24.0132  -20.8530   25.3989 C   0  0  0  0  0  0  0  0  0  0  0  0
  -24.5900  -27.4079   26.1554 C   0  0  0  0  0  0  0  0  0  0  0  0
  -25.1309  -25.0997   26.9604 C   0  0  0  0  0  0  0  0  0  0  0  0
  -22.7572  -25.8605   26.8630 C   0  0  0  0  0  0  0  0  0  0  0  0
  -23.4352  -21.4350   21.6836 C   0  0  0  0  0  0  0  0  0  0  0  0
  -29.7185  -23.9713   17.4692 C   0  0  0  0  0  0  0  0  0  0  0  0
  -23.9857  -25.3541   24.7121 C   0  0  1  0  0  0  0  0  0  0  0  0
  -23.5588  -21.6266   24.1709 C   0  0  2  0  0  0  0  0  0  0  0  0
  -24.1228  -25.9387   26.1463 C   0  0  0  0  0  0  0  0  0  0  0  0
  -26.0356  -11.7559   21.8708 N   0  0  0  0  0  0  0  0  0  0  0  0
  -28.4020  -22.1854   18.4639 N   0  0  0  0  0  0  0  0  0  0  0  0
  -27.0529  -12.5003   21.4050 N   0  0  0  0  0  0  0  0  0  0  0  0
  -23.5698  -27.2140   23.1281 N   0  0  0  0  0  0  0  0  0  0  0  0
  -27.6324  -15.9197   23.0037 N   0  0  0  0  0  0  0  0  0  0  0  0
  -28.4237  -12.8481   19.5048 N   0  0  0  0  0  0  0  0  0  0  0  0
  -25.6701   -9.5121   18.2067 N   0  0  0  0  0  0  0  0  0  0  0  0
  -28.3322  -17.2999   21.2239 N   0  0  0  0  0  0  0  0  0  0  0  0
  -20.6410  -29.1852   22.6847 N   0  0  0  0  0  0  0  0  0  0  0  0
  -23.5187  -23.9726   24.6721 N   0  0  0  0  0  0  0  0  0  0  0  0
  -23.8519  -20.8047   22.9628 N   0  3  0  0  0  0  0  0  0  0  0  0
  -27.4190  -10.8435   17.5531 O   0  0  0  0  0  0  0  0  0  0  0  0
  -22.4589  -29.3545   24.1301 O   0  0  0  0  0  0  0  0  0  0  0  0
  -21.8361  -25.8356   23.8387 O   0  0  0  0  0  0  0  0  0  0  0  0
  -25.3481  -23.1188   23.5311 O   0  0  0  0  0  0  0  0  0  0  0  0
  -28.7801  -17.8817   23.4245 O   0  0  0  0  0  0  0  0  0  0  0  0
  -21.6371   -7.1908   21.2696 O   0  0  0  0  0  0  0  0  0  0  0  0
  -28.4834  -26.6867   19.7876 O   0  0  0  0  0  0  0  0  0  1  0  0
  -21.3680   -4.1896   25.8875 F   0  0  0  0  0  0  0  0  0  0  0  0
  -28.4383  -17.4076   18.4406 F   0  0  0  0  0  0  0  0  0  0  0  0
  -21.3134   -8.4038   23.7326 F   0  0  0  0  0  0  0  0  0  0  0  0
  1  2  1  0  0  0  0
  1  5  2  0  0  0  0
  2  6  2  0  0  0  0
  3  8  2  0  0  0  0
  3 17  1  0  0  0  0
  4  9  1  0  0  0  0
  4 17  2  0  0  0  0
  5 19  1  0  0  0  0
  6 21  1  0  0  0  0
  7 10  2  0  0  0  0
  7 20  1  0  0  0  0
  8 26  1  0  0  0  0
  9 26  2  0  0  0  0
 10 27  1  0  0  0  0
 11 12  2  0  0  0  0
 11 28  1  0  0  0  0
 12 29  1  0  0  0  0
 13 22  1  0  0  0  0
 13 27  2  0  0  0  0
 14 23  1  0  0  0  0
 14 25  2  0  0  0  0
 15 24  1  0  0  0  0
 15 30  2  0  0  0  0
 16 29  2  0  0  0  0
 16 31  1  0  0  0  0
 17 32  1  0  0  0  0
 18 32  1  0  0  0  0
 18 33  2  0  0  0  0
 18 37  1  0  0  0  0
 19 21  2  0  0  0  0
 19 42  1  0  0  0  0
 20 22  2  0  0  0  0
 20 43  1  0  0  0  0
 21 51  1  0  0  0  0
 22 44  1  0  0  0  0
 23 24  2  0  0  0  0
 23 54  1  0  0  0  0
 24 65  1  0  0  0  0
 25 30  1  0  0  0  0
 25 71  1  0  0  0  0
 26 80  1  0  0  0  0
 27 81  1  0  0  0  0
 28 31  2  0  0  0  0
 28 80  1  0  0  0  0
 29 82  1  0  0  0  0
 30 83  1  0  0  0  0
 31 84  1  0  0  0  0
 32 64  2  0  0  0  0
 33 66  1  0  0  0  0
 33 69  1  0  0  0  0
 34 35  2  0  0  0  0
 34 60  1  0  0  0  0
 35 81  1  0  0  0  0
 36 60  1  0  0  0  0
 36 65  2  0  0  0  0
 37 70  1  0  0  0  0
 37 75  2  0  0  0  0
 38 52  1  0  0  0  0
 38 72  1  0  0  0  0
 38 76  2  0  0  0  0
 39 61  1  0  0  0  0
 39 67  1  0  0  0  0
 39 77  2  0  0  0  0
 40 62  1  0  0  0  0
 40 73  1  0  0  0  0
 40 78  2  0  0  0  0
 41 68  1  0  0  0  0
 41 71  1  0  0  0  0
 41 79  2  0  0  0  0
 42 45  1  0  0  0  0
 43 52  1  0  0  0  0
 44 67  1  0  0  0  0
 45 47  1  0  0  0  0
 46 48  1  0  0  0  0
 46 49  1  0  0  0  0
 47 51  1  0  0  0  0
 48 53  1  0  0  0  0
 49 68  1  0  0  0  0
 50 53  1  0  0  0  0
 50 68  1  0  0  0  0
 51 72  1  0  0  0  0
 52 67  1  0  0  0  0
 53 66  1  0  0  0  0
 55 62  1  0  0  0  0
 56 63  1  0  0  0  0
 57 63  1  0  0  0  0
 58 63  1  0  0  0  0
 59 74  1  0  0  0  0
 61 63  1  0  0  0  0
 61 73  1  0  0  0  0
 62 74  1  0  0  0  0
 64 66  1  0  0  0  0
M  CHG  1  74   1
M  ISO  4  35 101  41 100  71 100  81 101
M  END
> <Batch ID>
0123

> <Smiles>
CNC(C)C(=O)NC(C(=O)N1Cc2cc([101O:1][101CH:1]=CC=CNc3cc(F)c([100NH:0][100C:0](=O)N4CCCC(n5nc(-c6ccc(Oc7ccc(F)cc7F)cc6)c(C(N)=O)c5N)C4)cc3C)ccc2CC1C(=O)NC1CCCc2ccccc21)C(C)(C)C

> <Shape>
0.270

> <Color>
0.122

> <Negative vol penalty>
0.000

$$$$

  -OEChem-04052302033D

 87 96  0     1  0  0  0  0  0999 V2000
  -18.1808  -24.8124   23.7322 C   0  0  0  0  0  0  0  0  0  0  0  0
  -19.4855  -24.6994   23.2628 C   0  0  0  0  0  0  0  0  0  0  0  0
  -24.1207   -9.1619   22.5575 C   0  0  0  0  0  0  0  0  0  0  0  0
  -23.6542   -9.8365   20.2849 C   0  0  0  0  0  0  0  0  0  0  0  0
  -17.5237  -26.0406   23.6726 C   0  0  0  0  0  0  0  0  0  0  0  0
  -20.1335  -25.8144   22.7325 C   0  0  0  0  0  0  0  0  0  0  0  0
  -24.8855  -26.2842   24.4184 C   0  0  0  0  0  0  0  0  0  0  0  0
  -23.1502   -8.1647   22.4607 C   0  0  0  0  0  0  0  0  0  0  0  0
  -22.6838   -8.8393   20.1881 C   0  0  0  0  0  0  0  0  0  0  0  0
  -25.8501  -25.4586   23.8423 C   0  0  0  0  0  0  0  0  0  0  0  0
  -22.8818   -5.0717   21.1213 C   0  0  0  0  0  0  0  0  0  0  0  0
  -23.2044   -3.8040   21.6056 C   0  0  0  0  0  0  0  0  0  0  0  0
  -28.1885  -19.3853   19.0986 C   0  0  0  0  0  0  0  0  0  0  0  0
  -29.7096  -19.5359   17.2277 C   0  0  0  0  0  0  0  0  0  0  0  0
  -26.5620  -27.2832   22.4340 C   0  0  0  0  0  0  0  0  0  0  0  0
  -29.4375  -17.4396   18.3976 C   0  0  0  0  0  0  0  0  0  0  0  0
  -21.3719   -3.9372   23.1745 C   0  0  0  0  0  0  0  0  0  0  0  0
  -24.3727   -9.9978   21.4696 C   0  0  0  0  0  0  0  0  0  0  0  0
  -28.7862  -20.1342   18.0850 C   0  0  0  0  0  0  0  0  0  0  0  0
  -26.7425  -10.9175   21.2552 C   0  0  0  0  0  0  0  0  0  0  0  0
  -18.1673  -27.1735   23.1502 C   0  0  0  0  0  0  0  0  0  0  0  0
  -24.7445  -27.6146   23.9983 C   0  0  0  0  0  0  0  0  0  0  0  0
  -19.4839  -27.0586   22.6646 C   0  0  0  0  0  0  0  0  0  0  0  0
  -25.5966  -28.1244   23.0082 C   0  0  0  0  0  0  0  0  0  0  0  0
  -28.5141  -18.0379   19.2549 C   0  0  0  0  0  0  0  0  0  0  0  0
  -22.4318   -8.0034   21.2760 C   0  0  0  0  0  0  0  0  0  0  0  0
  -26.6865  -25.9573   22.8480 C   0  0  0  0  0  0  0  0  0  0  0  0
  -21.8043   -5.7721   21.6636 C   0  0  0  0  0  0  0  0  0  0  0  0
  -22.4494   -3.2367   22.6322 C   0  0  0  0  0  0  0  0  0  0  0  0
  -30.0352  -18.1885   17.3839 C   0  0  0  0  0  0  0  0  0  0  0  0
  -21.0494   -5.2049   22.6902 C   0  0  0  0  0  0  0  0  0  0  0  0
  -25.3747  -11.0285   21.5692 C   0  0  0  0  0  0  0  0  0  0  0  0
  -27.2574  -12.1633   21.5185 C   0  0  0  0  0  0  0  0  0  0  0  0
  -28.4324  -24.1700   20.2653 C   0  0  0  0  0  0  0  0  0  0  0  0
  -27.9376  -23.5443   19.1846 C   0  0  0  0  0  0  0  0  0  0  0  0
  -28.4435  -21.5581   17.9202 C   0  0  0  0  0  0  0  0  0  0  0  0
  -27.4815   -9.7892   20.7691 C   0  0  0  0  0  0  0  0  0  0  0  0
  -22.4181  -29.3043   22.6430 C   0  0  0  0  0  0  0  0  0  0  0  0
  -24.4636  -31.7756   23.1235 C   0  0  0  0  0  0  0  0  0  0  0  0
  -27.6774  -32.8301   23.5774 C   0  0  0  0  0  0  0  0  0  0  0  0
  -26.9692  -17.7158   21.2185 C   0  0  0  0  0  0  0  0  0  0  0  0
  -17.3998  -28.4688   23.0629 C   0  0  0  0  0  0  0  0  0  0  0  0
  -23.7169  -28.4999   24.6485 C   0  0  0  0  0  0  0  0  0  0  0  0
  -25.4993  -29.5513   22.5361 C   0  0  0  0  0  0  0  0  0  0  0  0
  -29.6132  -23.4231   20.8224 C   0  0  0  0  0  0  0  0  0  0  0  0
  -18.2879  -29.6886   22.8308 C   0  0  0  0  0  0  0  0  0  0  0  0
  -25.2081  -16.1422   23.8830 C   0  0  0  0  0  0  0  0  0  0  0  0
  -19.2994  -29.4095   21.7237 C   0  0  0  0  0  0  0  0  0  0  0  0
  -25.2069  -14.6624   23.4927 C   0  0  0  0  0  0  0  0  0  0  0  0
  -29.7609  -22.2199   19.8880 C   0  0  0  0  0  0  0  0  0  0  0  0
  -25.0603  -17.0504   22.6636 C   0  0  0  0  0  0  0  0  0  0  0  0
  -26.0244  -15.3237   21.1946 C   0  0  0  0  0  0  0  0  0  0  0  0
  -20.2290  -28.2510   22.1050 C   0  0  1  0  0  0  0  0  0  0  0  0
  -23.3194  -29.6905   23.7815 C   0  0  1  0  0  0  0  0  0  0  0  0
  -26.2361  -14.3714   22.3829 C   0  0  2  0  0  0  0  0  0  0  0  0
  -26.7789  -23.9427   18.3375 C   0  0  0  0  0  0  0  0  0  0  0  0
  -29.0400  -34.9119   23.9041 C   0  0  0  0  0  0  0  0  0  0  0  0
  -24.1780  -32.4253   20.1560 C   0  0  0  0  0  0  0  0  0  0  0  0
  -26.2266  -33.8525   20.3427 C   0  0  0  0  0  0  0  0  0  0  0  0
  -24.1885  -34.4201   21.6643 C   0  0  0  0  0  0  0  0  0  0  0  0
  -28.6433  -31.9220   26.2234 C   0  0  0  0  0  0  0  0  0  0  0  0
  -27.9826  -25.4212   20.9273 C   0  0  0  0  0  0  0  0  0  1  0  0
  -25.5760  -32.4130   22.3266 C   0  0  1  0  0  0  0  0  0  0  0  0
  -28.2927  -33.7789   24.5901 C   0  0  2  0  0  0  0  0  0  0  0  0
  -25.0431  -33.2502   21.1297 C   0  0  0  0  0  0  0  0  0  0  0  0
  -25.0417  -12.2484   21.9991 N   0  0  0  0  0  0  0  0  0  0  0  0
  -26.2076  -12.9154   21.9573 N   0  0  0  0  0  0  0  0  0  0  0  0
  -28.6694  -22.3991   18.9133 N   0  0  0  0  0  0  0  0  0  0  0  0
  -24.4746  -30.3755   23.1980 N   0  0  0  0  0  0  0  0  0  0  0  0
  -26.0707  -16.7199   21.6563 N   0  0  0  0  0  0  0  0  0  0  0  0
  -28.5012  -12.6778   21.4151 N   0  0  0  0  0  0  0  0  0  0  0  0
  -26.7974   -8.5852   20.5529 N   0  0  0  0  0  0  0  0  0  0  0  0
  -27.9060  -17.2765   20.2836 N   0  0  0  0  0  0  0  0  0  0  0  0
  -21.2398  -28.7002   23.0383 N   0  0  0  0  0  0  0  0  0  0  0  0
  -26.3760  -33.1749   23.2794 N   0  0  0  0  0  0  0  0  0  0  0  0
  -27.9140  -21.9742   16.7735 N   0  3  0  0  0  0  0  0  0  0  0  0
  -29.2497  -33.0490   25.4690 N   0  3  0  0  0  0  0  0  0  0  0  0
  -28.7153   -9.8423   20.5489 O   0  0  0  0  0  0  0  0  0  0  0  0
  -22.7653  -29.5383   21.4913 O   0  0  0  0  0  0  0  0  0  0  0  0
  -23.6201  -32.4938   23.6661 O   0  0  0  0  0  0  0  0  0  0  0  0
  -28.2912  -31.8804   23.0958 O   0  0  0  0  0  0  0  0  0  0  0  0
  -26.9292  -18.8663   21.6621 O   0  0  0  0  0  0  0  0  0  0  0  0
  -21.4849   -7.0302   21.1811 O   0  0  0  0  0  0  0  0  0  0  0  0
  -27.6284  -25.1534   22.2835 O   0  0  0  0  0  0  0  0  0  1  0  0
  -22.7583   -2.0187   23.0962 F   0  0  0  0  0  0  0  0  0  0  0  0
  -30.9219  -17.6141   16.5607 F   0  0  0  0  0  0  0  0  0  0  0  0
  -20.0124   -5.8725   23.2143 F   0  0  0  0  0  0  0  0  0  0  0  0
  1  2  1  0  0  0  0
  1  5  2  0  0  0  0
  2  6  2  0  0  0  0
  3  8  2  0  0  0  0
  3 18  1  0  0  0  0
  4  9  1  0  0  0  0
  4 18  2  0  0  0  0
  5 21  1  0  0  0  0
  6 23  1  0  0  0  0
  7 10  2  0  0  0  0
  7 22  1  0  0  0  0
  8 26  1  0  0  0  0
  9 26  2  0  0  0  0
 10 27  1  0  0  0  0
 11 12  2  0  0  0  0
 11 28  1  0  0  0  0
 12 29  1  0  0  0  0
 13 19  2  0  0  0  0
 13 25  1  0  0  0  0
 14 19  1  0  0  0  0
 14 30  2  0  0  0  0
 15 24  1  0  0  0  0
 15 27  2  0  0  0  0
 16 25  2  0  0  0  0
 16 30  1  0  0  0  0
 17 29  2  0  0  0  0
 17 31  1  0  0  0  0
 18 32  1  0  0  0  0
 19 36  1  0  0  0  0
 20 32  1  0  0  0  0
 20 33  2  0  0  0  0
 20 37  1  0  0  0  0
 21 23  2  0  0  0  0
 21 42  1  0  0  0  0
 22 24  2  0  0  0  0
 22 43  1  0  0  0  0
 23 53  1  0  0  0  0
 24 44  1  0  0  0  0
 25 73  1  0  0  0  0
 26 83  1  0  0  0  0
 27 84  1  0  0  0  0
 28 31  2  0  0  0  0
 28 83  1  0  0  0  0
 29 85  1  0  0  0  0
 30 86  1  0  0  0  0
 31 87  1  0  0  0  0
 32 66  2  0  0  0  0
 33 67  1  0  0  0  0
 33 71  1  0  0  0  0
 34 35  2  0  0  0  0
 34 45  1  0  0  0  0
 34 62  1  0  0  0  0
 35 56  1  0  0  0  0
 35 68  1  0  0  0  0
 36 68  1  0  0  0  0
 36 76  2  0  0  0  0
 37 72  1  0  0  0  0
 37 78  2  0  0  0  0
 38 54  1  0  0  0  0
 38 74  1  0  0  0  0
 38 79  2  0  0  0  0
 39 63  1  0  0  0  0
 39 69  1  0  0  0  0
 39 80  2  0  0  0  0
 40 64  1  0  0  0  0
 40 75  1  0  0  0  0
 40 81  2  0  0  0  0
 41 70  1  0  0  0  0
 41 73  1  0  0  0  0
 41 82  2  0  0  0  0
 42 46  1  0  0  0  0
 43 54  1  0  0  0  0
 44 69  1  0  0  0  0
 45 50  1  0  0  0  0
 46 48  1  0  0  0  0
 47 49  1  0  0  0  0
 47 51  1  0  0  0  0
 48 53  1  0  0  0  0
 49 55  1  0  0  0  0
 50 68  1  0  0  0  0
 51 70  1  0  0  0  0
 52 55  1  0  0  0  0
 52 70  1  0  0  0  0
 53 74  1  0  0  0  0
 54 69  1  0  0  0  0
 55 67  1  0  0  0  0
 57 64  1  0  0  0  0
 58 65  1  0  0  0  0
 59 65  1  0  0  0  0
 60 65  1  0  0  0  0
 61 77  1  0  0  0  0
 62 84  1  0  0  0  0
 63 65  1  0  0  0  0
 63 75  1  0  0  0  0
 64 77  1  0  0  0  0
 66 67  1  0  0  0  0
M  CHG  2  76   1  77   1
M  ISO  4  41 100  62 101  73 100  84 101
M  END
> <Batch ID>
0123

> <Smiles>
CNC(C)C(=O)NC(C(=O)N1Cc2cc([101O:1][101CH2:1]C3=C(C)N(C(=N)c4cc(F)cc([100NH:0][100C:0](=O)N5CCCC(n6nc(-c7ccc(Oc8ccc(F)cc8F)cc7)c(C(N)=O)c6N)C5)c4)CC3)ccc2CC1C(=O)NC1CCCc2ccccc21)C(C)(C)C

> <Shape>
0.272

> <Color>
0.074

> <Negative vol penalty>
0.000

$$$$

  -OEChem-04052302033D

 84 92  0     1  0  0  0  0  0999 V2000
  -26.7378  -35.4091   22.2078 C   0  0  0  0  0  0  0  0  0  0  0  0
  -27.1724  -34.0885   22.1570 C   0  0  0  0  0  0  0  0  0  0  0  0
  -23.2466  -10.7702   21.6338 C   0  0  0  0  0  0  0  0  0  0  0  0
  -22.7284  -12.9317   20.6870 C   0  0  0  0  0  0  0  0  0  0  0  0
  -25.4631  -35.7042   22.6893 C   0  0  0  0  0  0  0  0  0  0  0  0
  -26.3328  -33.0623   22.5888 C   0  0  0  0  0  0  0  0  0  0  0  0
  -26.2962  -29.1168   19.4143 C   0  0  0  0  0  0  0  0  0  0  0  0
  -22.1351  -10.8702   22.4705 C   0  0  0  0  0  0  0  0  0  0  0  0
  -21.6168  -13.0317   21.5237 C   0  0  0  0  0  0  0  0  0  0  0  0
  -27.3814  -28.2434   19.4716 C   0  0  0  0  0  0  0  0  0  0  0  0
  -20.9934  -13.7986   24.7570 C   0  0  0  0  0  0  0  0  0  0  0  0
  -20.7838  -15.0110   25.4141 C   0  0  0  0  0  0  0  0  0  0  0  0
  -26.0721  -26.7137   20.8002 C   0  0  0  0  0  0  0  0  0  0  0  0
  -30.6606  -18.0415   19.8177 C   0  0  0  0  0  0  0  0  0  0  0  0
  -28.5775  -18.1862   18.6025 C   0  0  0  0  0  0  0  0  0  0  0  0
  -18.6397  -15.2319   24.3226 C   0  0  0  0  0  0  0  0  0  0  0  0
  -23.5433  -11.8010   20.7420 C   0  0  0  0  0  0  0  0  0  0  0  0
  -29.7600  -20.2014   19.2171 C   0  0  0  0  0  0  0  0  0  0  0  0
  -24.7358  -11.1431   18.5850 C   0  0  0  0  0  0  0  0  0  0  0  0
  -24.6038  -34.6802   23.1181 C   0  0  0  0  0  0  0  0  0  0  0  0
  -25.0924  -28.7997   20.0597 C   0  0  0  0  0  0  0  0  0  0  0  0
  -25.0459  -33.3441   23.0777 C   0  0  0  0  0  0  0  0  0  0  0  0
  -24.9724  -27.5836   20.7474 C   0  0  0  0  0  0  0  0  0  0  0  0
  -29.5721  -17.4180   19.2078 C   0  0  0  0  0  0  0  0  0  0  0  0
  -21.3202  -12.0009   22.4155 C   0  0  0  0  0  0  0  0  0  0  0  0
  -27.2704  -27.0429   20.1671 C   0  0  0  0  0  0  0  0  0  0  0  0
  -20.0261  -13.3028   23.8827 C   0  0  0  0  0  0  0  0  0  0  0  0
  -19.6070  -15.7276   25.1969 C   0  0  0  0  0  0  0  0  0  0  0  0
  -30.7546  -19.4332   19.8224 C   0  0  0  0  0  0  0  0  0  0  0  0
  -28.6715  -19.5780   18.6071 C   0  0  0  0  0  0  0  0  0  0  0  0
  -18.8493  -14.0195   23.6655 C   0  0  0  0  0  0  0  0  0  0  0  0
  -24.6916  -11.6986   19.8778 C   0  0  0  0  0  0  0  0  0  0  0  0
  -26.0447  -11.2867   18.1942 C   0  0  0  0  0  0  0  0  0  0  0  0
  -29.8594  -21.6717   19.2223 C   0  0  0  0  0  0  0  0  0  0  0  0
  -28.9445  -22.4945   19.7536 C   0  0  0  0  0  0  0  0  0  0  0  0
  -23.6875  -10.5505   17.8070 C   0  0  0  0  0  0  0  0  0  0  0  0
  -29.1350  -23.9731   19.6982 C   0  0  0  0  0  0  0  0  0  0  0  0
  -23.3901  -30.1107   22.4022 C   0  0  0  0  0  0  0  0  0  0  0  0
  -21.2540  -27.7993   21.6166 C   0  0  0  0  0  0  0  0  0  0  0  0
  -20.6791  -24.7403   20.2171 C   0  0  0  0  0  0  0  0  0  0  0  0
  -30.3769  -15.0945   19.7554 C   0  0  0  0  0  0  0  0  0  0  0  0
  -23.2524  -35.0522   23.6749 C   0  0  0  0  0  0  0  0  0  0  0  0
  -23.9225  -29.7404   19.9659 C   0  0  0  0  0  0  0  0  0  0  0  0
  -23.6952  -27.1870   21.4402 C   0  0  0  0  0  0  0  0  0  0  0  0
  -22.2848  -33.8749   23.7627 C   0  0  0  0  0  0  0  0  0  0  0  0
  -30.4801  -11.5427   19.9819 C   0  0  0  0  0  0  0  0  0  0  0  0
  -22.9748  -32.6615   24.3778 C   0  0  0  0  0  0  0  0  0  0  0  0
  -29.0121  -11.1287   19.8572 C   0  0  0  0  0  0  0  0  0  0  0  0
  -30.6380  -12.8415   20.7706 C   0  0  0  0  0  0  0  0  0  0  0  0
  -28.3594  -13.5514   20.1599 C   0  0  0  0  0  0  0  0  0  0  0  0
  -24.1551  -32.2011   23.5138 C   0  0  1  0  0  0  0  0  0  0  0  0
  -22.9115  -29.5508   21.0926 C   0  0  1  0  0  0  0  0  0  0  0  0
  -28.1448  -12.2831   19.3179 C   0  0  2  0  0  0  0  0  0  0  0  0
  -18.8370  -23.0999   19.7558 C   0  0  0  0  0  0  0  0  0  0  0  0
  -21.2595  -26.9711   24.5533 C   0  0  0  0  0  0  0  0  0  0  0  0
  -20.1923  -24.8106   23.8738 C   0  0  0  0  0  0  0  0  0  0  0  0
  -19.0042  -26.9670   23.4724 C   0  0  0  0  0  0  0  0  0  0  0  0
  -21.1091  -24.9027   17.2934 C   0  0  0  0  0  0  0  0  0  0  0  0
  -28.0339  -24.7966   20.3321 C   0  0  0  0  0  0  0  0  0  1  0  0
  -21.0112  -26.3748   22.0535 C   0  0  1  0  0  0  0  0  0  0  0  0
  -19.6416  -24.2707   19.2133 C   0  0  2  0  0  0  0  0  0  0  0  0
  -20.3917  -26.2889   23.4769 C   0  0  0  0  0  0  0  0  0  0  0  0
  -25.8782  -12.1604   20.2815 N   0  0  0  0  0  0  0  0  0  0  0  0
  -26.6802  -11.8954   19.2362 N   0  0  0  0  0  0  0  0  0  0  0  0
  -22.5816  -28.1432   21.3250 N   0  0  0  0  0  0  0  0  0  0  0  0
  -29.7905  -13.8907   20.1999 N   0  0  0  0  0  0  0  0  0  0  0  0
  -26.7025  -10.9503   17.0643 N   0  0  0  0  0  0  0  0  0  0  0  0
  -22.4013  -10.4834   18.3598 N   0  0  0  0  0  0  0  0  0  0  0  0
  -29.4768  -16.0043   19.2016 N   0  0  0  0  0  0  0  0  0  0  0  0
  -23.6813  -31.4610   22.3640 N   0  0  0  0  0  0  0  0  0  0  0  0
  -20.1978  -25.7607   21.0097 N   0  0  0  0  0  0  0  0  0  0  0  0
  -20.3020  -23.8412   17.9483 N   0  3  0  0  0  0  0  0  0  0  0  0
  -23.8889  -10.0791   16.6621 O   0  0  0  0  0  0  0  0  0  0  0  0
  -30.1203  -24.4846   19.1732 O   0  0  0  0  0  0  0  0  0  0  0  0
  -23.4865  -29.3726   23.3757 O   0  0  0  0  0  0  0  0  0  0  0  0
  -20.2998  -28.5763   21.5302 O   0  0  0  0  0  0  0  0  0  0  0  0
  -21.8028  -24.2483   20.2931 O   0  0  0  0  0  0  0  0  0  0  0  0
  -31.5922  -15.2919   19.8335 O   0  0  0  0  0  0  0  0  0  0  0  0
  -20.2353  -12.0986   23.2317 O   0  0  0  0  0  0  0  0  0  0  0  0
  -28.3283  -26.1888   20.2252 O   0  0  0  0  0  0  0  0  0  1  0  0
  -19.4052  -16.8911   25.8292 F   0  0  0  0  0  0  0  0  0  0  0  0
  -31.8080  -20.0178   20.4115 F   0  0  0  0  0  0  0  0  0  0  0  0
  -27.7063  -20.3023   18.0222 F   0  0  0  0  0  0  0  0  0  0  0  0
  -17.9159  -13.5477   22.8276 F   0  0  0  0  0  0  0  0  0  0  0  0
  1  2  1  0  0  0  0
  1  5  2  0  0  0  0
  2  6  2  0  0  0  0
  3  8  2  0  0  0  0
  3 17  1  0  0  0  0
  4  9  1  0  0  0  0
  4 17  2  0  0  0  0
  5 20  1  0  0  0  0
  6 22  1  0  0  0  0
  7 10  2  0  0  0  0
  7 21  1  0  0  0  0
  8 25  1  0  0  0  0
  9 25  2  0  0  0  0
 10 26  1  0  0  0  0
 11 12  2  0  0  0  0
 11 27  1  0  0  0  0
 12 28  1  0  0  0  0
 13 23  1  0  0  0  0
 13 26  2  0  0  0  0
 14 24  1  0  0  0  0
 14 29  2  0  0  0  0
 15 24  2  0  0  0  0
 15 30  1  0  0  0  0
 16 28  2  0  0  0  0
 16 31  1  0  0  0  0
 17 32  1  0  0  0  0
 18 29  1  0  0  0  0
 18 30  2  0  0  0  0
 18 34  1  0  0  0  0
 19 32  1  0  0  0  0
 19 33  2  0  0  0  0
 19 36  1  0  0  0  0
 20 22  2  0  0  0  0
 20 42  1  0  0  0  0
 21 23  2  0  0  0  0
 21 43  1  0  0  0  0
 22 51  1  0  0  0  0
 23 44  1  0  0  0  0
 24 69  1  0  0  0  0
 25 79  1  0  0  0  0
 26 80  1  0  0  0  0
 27 31  2  0  0  0  0
 27 79  1  0  0  0  0
 28 81  1  0  0  0  0
 29 82  1  0  0  0  0
 30 83  1  0  0  0  0
 31 84  1  0  0  0  0
 32 63  2  0  0  0  0
 33 64  1  0  0  0  0
 33 67  1  0  0  0  0
 34 35  2  0  0  0  0
 35 37  1  0  0  0  0
 36 68  1  0  0  0  0
 36 73  2  0  0  0  0
 37 59  1  0  0  0  0
 37 74  2  0  0  0  0
 38 52  1  0  0  0  0
 38 70  1  0  0  0  0
 38 75  2  0  0  0  0
 39 60  1  0  0  0  0
 39 65  1  0  0  0  0
 39 76  2  0  0  0  0
 40 61  1  0  0  0  0
 40 71  1  0  0  0  0
 40 77  2  0  0  0  0
 41 66  1  0  0  0  0
 41 69  1  0  0  0  0
 41 78  2  0  0  0  0
 42 45  1  0  0  0  0
 43 52  1  0  0  0  0
 44 65  1  0  0  0  0
 45 47  1  0  0  0  0
 46 48  1  0  0  0  0
 46 49  1  0  0  0  0
 47 51  1  0  0  0  0
 48 53  1  0  0  0  0
 49 66  1  0  0  0  0
 50 53  1  0  0  0  0
 50 66  1  0  0  0  0
 51 70  1  0  0  0  0
 52 65  1  0  0  0  0
 53 64  1  0  0  0  0
 54 61  1  0  0  0  0
 55 62  1  0  0  0  0
 56 62  1  0  0  0  0
 57 62  1  0  0  0  0
 58 72  1  0  0  0  0
 59 80  1  0  0  0  0
 60 62  1  0  0  0  0
 60 71  1  0  0  0  0
 61 72  1  0  0  0  0
 63 64  1  0  0  0  0
M  CHG  1  72   1
M  ISO  4  41 100  59 101  69 100  80 101
M  END
> <Batch ID>
0123

> <Smiles>
CNC(C)C(=O)NC(C(=O)N1Cc2cc([101O:1][101CH2:1]C(=O)C=Cc3c(F)cc([100NH:0][100C:0](=O)N4CCCC(n5nc(-c6ccc(Oc7ccc(F)cc7F)cc6)c(C(N)=O)c5N)C4)cc3F)ccc2CC1C(=O)NC1CCCc2ccccc21)C(C)(C)C

> <Shape>
0.285

> <Color>
0.095

> <Negative vol penalty>
0.000

$$$$

  -OEChem-04052302033D

 84 93  0     1  0  0  0  0  0999 V2000
  -24.0734  -25.8728    9.7672 C   0  0  0  0  0  0  0  0  0  0  0  0
  -24.2637  -24.8651   10.7073 C   0  0  0  0  0  0  0  0  0  0  0  0
  -23.1587   -9.7433   19.9291 C   0  0  0  0  0  0  0  0  0  0  0  0
  -23.8523   -9.8337   22.2416 C   0  0  0  0  0  0  0  0  0  0  0  0
  -24.5166  -27.1673   10.0351 C   0  0  0  0  0  0  0  0  0  0  0  0
  -24.8984  -25.1512   11.9155 C   0  0  0  0  0  0  0  0  0  0  0  0
  -31.0947  -19.2230   20.5809 C   0  0  0  0  0  0  0  0  0  0  0  0
  -24.8860  -23.2366   18.8185 C   0  0  0  0  0  0  0  0  0  0  0  0
  -30.9676  -17.8346   20.6005 C   0  0  0  0  0  0  0  0  0  0  0  0
  -22.4433   -8.5745   20.1894 C   0  0  0  0  0  0  0  0  0  0  0  0
  -23.1369   -8.6649   22.5019 C   0  0  0  0  0  0  0  0  0  0  0  0
  -25.7585  -22.8148   19.8208 C   0  0  0  0  0  0  0  0  0  0  0  0
  -19.9186   -7.7832   23.0361 C   0  0  0  0  0  0  0  0  0  0  0  0
  -19.1301   -7.7503   24.1862 C   0  0  0  0  0  0  0  0  0  0  0  0
  -29.2852  -18.0188   22.3186 C   0  0  0  0  0  0  0  0  0  0  0  0
  -26.4114  -25.1047   20.2077 C   0  0  0  0  0  0  0  0  0  0  0  0
  -20.4082   -5.8723   25.0088 C   0  0  0  0  0  0  0  0  0  0  0  0
  -23.8633  -10.3729   20.9552 C   0  0  0  0  0  0  0  0  0  0  0  0
  -24.1316  -12.9034   20.7767 C   0  0  0  0  0  0  0  0  0  0  0  0
  -25.1484  -27.4715   11.2512 C   0  0  0  0  0  0  0  0  0  0  0  0
  -30.3229  -20.0251   21.4360 C   0  0  0  0  0  0  0  0  0  0  0  0
  -24.7775  -24.5969   18.4953 C   0  0  0  0  0  0  0  0  0  0  0  0
  -25.3516  -26.4507   12.1994 C   0  0  0  0  0  0  0  0  0  0  0  0
  -29.3959  -19.4181   22.3014 C   0  0  0  0  0  0  0  0  0  0  0  0
  -25.5349  -25.5414   19.2027 C   0  0  0  0  0  0  0  0  0  0  0  0
  -30.0645  -17.2325   21.4708 C   0  0  0  0  0  0  0  0  0  0  0  0
  -22.4324   -8.0353   21.4758 C   0  0  0  0  0  0  0  0  0  0  0  0
  -26.5235  -23.7486   20.5136 C   0  0  0  0  0  0  0  0  0  0  0  0
  -20.9518   -6.8605   22.8722 C   0  0  0  0  0  0  0  0  0  0  0  0
  -19.3749   -6.7949   25.1726 C   0  0  0  0  0  0  0  0  0  0  0  0
  -21.1966   -5.9051   23.8586 C   0  0  0  0  0  0  0  0  0  0  0  0
  -24.6029  -11.5800   20.6869 C   0  0  0  0  0  0  0  0  0  0  0  0
  -25.2104  -13.6768   20.4237 C   0  0  0  0  0  0  0  0  0  0  0  0
  -22.8346  -13.3903   21.1462 C   0  0  0  0  0  0  0  0  0  0  0  0
  -25.3321  -26.3352   15.8925 C   0  0  0  0  0  0  0  0  0  0  0  0
  -24.0357  -28.7127   17.6783 C   0  0  0  0  0  0  0  0  0  0  0  0
  -23.3280  -29.9508   20.7788 C   0  0  0  0  0  0  0  0  0  0  0  0
  -30.6352  -14.8960   20.7215 C   0  0  0  0  0  0  0  0  0  0  0  0
  -25.6526  -28.8750   11.4762 C   0  0  0  0  0  0  0  0  0  0  0  0
  -30.4675  -21.5227   21.3559 C   0  0  0  0  0  0  0  0  0  0  0  0
  -23.8120  -25.0383   17.4298 C   0  0  0  0  0  0  0  0  0  0  0  0
  -28.5574  -20.2271   23.2627 C   0  0  0  0  0  0  0  0  0  0  0  0
  -25.4403  -27.0153   18.9078 C   0  0  0  0  0  0  0  0  0  0  0  0
  -25.9807  -29.1777   12.9360 C   0  0  0  0  0  0  0  0  0  0  0  0
  -29.8513  -22.2582   22.5459 C   0  0  0  0  0  0  0  0  0  0  0  0
  -29.6625  -12.3877   18.3893 C   0  0  0  0  0  0  0  0  0  0  0  0
  -26.7993  -28.0439   13.5453 C   0  0  0  0  0  0  0  0  0  0  0  0
  -28.2207  -12.0628   18.7865 C   0  0  0  0  0  0  0  0  0  0  0  0
  -30.5356  -12.6761   19.6092 C   0  0  0  0  0  0  0  0  0  0  0  0
  -28.5689  -13.3768   20.9171 C   0  0  0  0  0  0  0  0  0  0  0  0
  -26.0136  -26.7271   13.5319 C   0  0  1  0  0  0  0  0  0  0  0  0
  -24.1617  -26.3979   16.8326 C   0  0  1  0  0  0  0  0  0  0  0  0
  -27.6358  -13.1427   19.7178 C   0  0  2  0  0  0  0  0  0  0  0  0
  -28.4505  -21.7301   22.9155 C   0  0  2  0  0  0  0  0  0  0  0  0
  -26.5953  -22.0031   24.5684 C   0  0  0  0  0  0  0  0  0  0  0  0
  -22.2966  -31.9336   21.9198 C   0  0  0  0  0  0  0  0  0  0  0  0
  -26.5391  -30.3532   17.0852 C   0  0  0  0  0  0  0  0  0  0  0  0
  -25.9030  -31.8756   18.9682 C   0  0  0  0  0  0  0  0  0  0  0  0
  -24.3993  -31.6443   16.9913 C   0  0  0  0  0  0  0  0  0  0  0  0
  -21.2411  -28.2805   22.0492 C   0  0  0  0  0  0  0  0  0  0  0  0
  -27.9362  -22.4956   24.1492 C   0  0  0  0  0  0  0  0  0  0  0  0
  -27.4476  -21.9504   21.7660 C   0  0  0  0  0  0  0  0  0  1  0  0
  -24.5750  -29.7396   18.6446 C   0  0  1  0  0  0  0  0  0  0  0  0
  -22.0561  -30.5394   21.3622 C   0  0  2  0  0  0  0  0  0  0  0  0
  -25.3576  -30.8753   17.9268 C   0  0  0  0  0  0  0  0  0  0  0  0
  -25.8815  -11.5126   20.3066 N   0  0  0  0  0  0  0  0  0  0  0  0
  -26.2228  -12.8035   20.1541 N   0  0  0  0  0  0  0  0  0  0  0  0
  -24.4866  -27.3966   17.8530 N   0  0  0  0  0  0  0  0  0  0  0  0
  -29.9208  -13.7116   20.4426 N   0  0  0  0  0  0  0  0  0  0  0  0
  -25.3824  -15.0118   20.3207 N   0  0  0  0  0  0  0  0  0  0  0  0
  -21.8415  -12.4592   21.4797 N   0  0  0  0  0  0  0  0  0  0  0  0
  -29.9370  -15.8215   21.4964 N   0  0  0  0  0  0  0  0  0  0  0  0
  -25.0340  -26.7122   14.5970 N   0  0  0  0  0  0  0  0  0  0  0  0
  -23.4341  -30.2024   19.4272 N   0  0  0  0  0  0  0  0  0  0  0  0
  -21.5426  -29.6752   22.4624 N   0  3  0  0  0  0  0  0  0  0  0  0
  -22.5596  -14.6140   21.1637 O   0  0  0  0  0  0  0  0  0  0  0  0
  -26.4252  -25.9730   16.3118 O   0  0  0  0  0  0  0  0  0  0  0  0
  -23.2382  -29.0640   16.8053 O   0  0  0  0  0  0  0  0  0  0  0  0
  -24.1474  -29.3332   21.4552 O   0  0  0  0  0  0  0  0  0  0  0  0
  -31.7715  -15.0874   20.2810 O   0  0  0  0  0  0  0  0  0  0  0  0
  -21.7342   -6.8950   21.7302 O   0  0  0  0  0  0  0  0  0  0  0  0
  -27.3855  -23.3351   21.5023 O   0  0  0  0  0  0  0  0  0  1  0  0
  -18.6186   -6.7645   26.2777 F   0  0  0  0  0  0  0  0  0  0  0  0
  -22.1886   -5.0169   23.7073 F   0  0  0  0  0  0  0  0  0  0  0  0
  1  2  1  0  0  0  0
  1  5  2  0  0  0  0
  2  6  2  0  0  0  0
  3 10  2  0  0  0  0
  3 18  1  0  0  0  0
  4 11  1  0  0  0  0
  4 18  2  0  0  0  0
  5 20  1  0  0  0  0
  6 23  1  0  0  0  0
  7  9  2  0  0  0  0
  7 21  1  0  0  0  0
  8 12  2  0  0  0  0
  8 22  1  0  0  0  0
  9 26  1  0  0  0  0
 10 27  1  0  0  0  0
 11 27  2  0  0  0  0
 12 28  1  0  0  0  0
 13 14  2  0  0  0  0
 13 29  1  0  0  0  0
 14 30  1  0  0  0  0
 15 24  1  0  0  0  0
 15 26  2  0  0  0  0
 16 25  1  0  0  0  0
 16 28  2  0  0  0  0
 17 30  2  0  0  0  0
 17 31  1  0  0  0  0
 18 32  1  0  0  0  0
 19 32  1  0  0  0  0
 19 33  2  0  0  0  0
 19 34  1  0  0  0  0
 20 23  2  0  0  0  0
 20 39  1  0  0  0  0
 21 24  2  0  0  0  0
 21 40  1  0  0  0  0
 22 25  2  0  0  0  0
 22 41  1  0  0  0  0
 23 51  1  0  0  0  0
 24 42  1  0  0  0  0
 25 43  1  0  0  0  0
 26 72  1  0  0  0  0
 27 81  1  0  0  0  0
 28 82  1  0  0  0  0
 29 31  2  0  0  0  0
 29 81  1  0  0  0  0
 30 83  1  0  0  0  0
 31 84  1  0  0  0  0
 32 66  2  0  0  0  0
 33 67  1  0  0  0  0
 33 70  1  0  0  0  0
 34 71  1  0  0  0  0
 34 76  2  0  0  0  0
 35 52  1  0  0  0  0
 35 73  1  0  0  0  0
 35 77  2  0  0  0  0
 36 63  1  0  0  0  0
 36 68  1  0  0  0  0
 36 78  2  0  0  0  0
 37 64  1  0  0  0  0
 37 74  1  0  0  0  0
 37 79  2  0  0  0  0
 38 69  1  0  0  0  0
 38 72  1  0  0  0  0
 38 80  2  0  0  0  0
 39 44  1  0  0  0  0
 40 45  1  0  0  0  0
 41 52  1  0  0  0  0
 42 54  1  0  0  0  0
 43 68  1  0  0  0  0
 44 47  1  0  0  0  0
 45 54  1  0  0  0  0
 46 48  1  0  0  0  0
 46 49  1  0  0  0  0
 47 51  1  0  0  0  0
 48 53  1  0  0  0  0
 49 69  1  0  0  0  0
 50 53  1  0  0  0  0
 50 69  1  0  0  0  0
 51 73  1  0  0  0  0
 52 68  1  0  0  0  0
 53 67  1  0  0  0  0
 54 61  1  0  0  0  0
 54 62  1  0  0  0  0
 55 61  1  0  0  0  0
 56 64  1  0  0  0  0
 57 65  1  0  0  0  0
 58 65  1  0  0  0  0
 59 65  1  0  0  0  0
 60 75  1  0  0  0  0
 62 82  1  0  0  0  0
 63 65  1  0  0  0  0
 63 74  1  0  0  0  0
 64 75  1  0  0  0  0
 66 67  1  0  0  0  0
M  CHG  1  75   1
M  ISO  4  38 100  62 101  72 100  82 101
M  END
> <Batch ID>
0123

> <Smiles>
CCC1([101CH2:1][101O:1]c2ccc3c(c2)CN(C(=O)C(NC(=O)C(C)NC)C(C)(C)C)C(C(=O)NC2CCCc4ccccc42)C3)CCc2ccc([100NH:0][100C:0](=O)N3CCCC(n4nc(-c5ccc(Oc6ccc(F)cc6F)cc5)c(C(N)=O)c4N)C3)cc2C1

> <Shape>
0.252

> <Color>
0.211

> <Negative vol penalty>
0.000

$$$$

  -OEChem-04052302033D

 85 93  0     1  0  0  0  0  0999 V2000
  -28.2542  -11.3214   19.0804 C   0  0  0  0  0  0  0  0  0  0  0  0
  -28.3627  -12.6977   18.9084 C   0  0  0  0  0  0  0  0  0  0  0  0
  -20.5535  -27.9407   23.3493 C   0  0  0  0  0  0  0  0  0  0  0  0
  -20.2644  -26.4774   21.4487 C   0  0  0  0  0  0  0  0  0  0  0  0
  -27.1225  -10.7835   19.6917 C   0  0  0  0  0  0  0  0  0  0  0  0
  -27.3389  -13.5368   19.3468 C   0  0  0  0  0  0  0  0  0  0  0  0
  -29.0806  -17.5996   21.8175 C   0  0  0  0  0  0  0  0  0  0  0  0
  -19.1698  -27.9994   23.5146 C   0  0  0  0  0  0  0  0  0  0  0  0
  -18.8806  -26.5361   21.6140 C   0  0  0  0  0  0  0  0  0  0  0  0
  -29.5947  -18.6415   21.0469 C   0  0  0  0  0  0  0  0  0  0  0  0
  -16.5513  -25.1294   23.6180 C   0  0  0  0  0  0  0  0  0  0  0  0
  -15.8392  -23.9327   23.5376 C   0  0  0  0  0  0  0  0  0  0  0  0
  -27.5167  -19.8415   21.2937 C   0  0  0  0  0  0  0  0  0  0  0  0
  -32.6654  -26.6104   20.6726 C   0  0  0  0  0  0  0  0  0  0  0  0
  -31.6015  -27.2582   18.6024 C   0  0  0  0  0  0  0  0  0  0  0  0
  -14.5738  -24.8108   21.6762 C   0  0  0  0  0  0  0  0  0  0  0  0
  -21.1008  -27.1797   22.3163 C   0  0  0  0  0  0  0  0  0  0  0  0
  -23.4173  -26.1919   22.7233 C   0  0  0  0  0  0  0  0  0  0  0  0
  -26.0887  -11.6171   20.1465 C   0  0  0  0  0  0  0  0  0  0  0  0
  -27.7746  -17.6661   22.3238 C   0  0  0  0  0  0  0  0  0  0  0  0
  -26.1916  -13.0094   19.9636 C   0  0  0  0  0  0  0  0  0  0  0  0
  -26.9892  -18.8003   22.0727 C   0  0  0  0  0  0  0  0  0  0  0  0
  -31.6467  -25.6869   20.9071 C   0  0  0  0  0  0  0  0  0  0  0  0
  -30.5828  -26.3346   18.8369 C   0  0  0  0  0  0  0  0  0  0  0  0
  -30.6054  -25.5490   19.9893 C   0  0  0  0  0  0  0  0  0  0  0  0
  -18.3333  -27.2971   22.6470 C   0  0  0  0  0  0  0  0  0  0  0  0
  -28.8117  -19.7614   20.7824 C   0  0  0  0  0  0  0  0  0  0  0  0
  -16.2746  -26.1668   22.7276 C   0  0  0  0  0  0  0  0  0  0  0  0
  -14.8505  -23.7734   22.5667 C   0  0  0  0  0  0  0  0  0  0  0  0
  -32.6428  -27.3961   19.5202 C   0  0  0  0  0  0  0  0  0  0  0  0
  -15.2859  -26.0075   21.7567 C   0  0  0  0  0  0  0  0  0  0  0  0
  -22.5301  -27.1191   22.1446 C   0  0  0  0  0  0  0  0  0  0  0  0
  -24.6538  -26.5591   22.2514 C   0  0  0  0  0  0  0  0  0  0  0  0
  -32.7065  -25.6930   24.2944 C   0  0  0  0  0  0  0  0  0  0  0  0
  -31.7051  -25.6864   23.4073 C   0  0  0  0  0  0  0  0  0  0  0  0
  -23.1478  -25.0965   23.6083 C   0  0  0  0  0  0  0  0  0  0  0  0
  -25.1300  -15.9447   21.9409 C   0  0  0  0  0  0  0  0  0  0  0  0
  -23.9888  -17.8975   24.2661 C   0  0  0  0  0  0  0  0  0  0  0  0
  -24.1911  -20.8903   25.8937 C   0  0  0  0  0  0  0  0  0  0  0  0
  -27.9867  -28.1747   18.0768 C   0  0  0  0  0  0  0  0  0  0  0  0
  -24.8633  -10.9860   20.7588 C   0  0  0  0  0  0  0  0  0  0  0  0
  -27.2442  -16.5457   23.1758 C   0  0  0  0  0  0  0  0  0  0  0  0
  -25.5881  -18.9295   22.6100 C   0  0  0  0  0  0  0  0  0  0  0  0
  -23.9923  -11.9722   21.5327 C   0  0  0  0  0  0  0  0  0  0  0  0
  -26.1271  -30.7047   19.7555 C   0  0  0  0  0  0  0  0  0  0  0  0
  -23.7806  -13.2472   20.7225 C   0  0  0  0  0  0  0  0  0  0  0  0
  -25.0953  -29.9213   20.5690 C   0  0  0  0  0  0  0  0  0  0  0  0
  -26.3978  -30.0469   18.4042 C   0  0  0  0  0  0  0  0  0  0  0  0
  -25.7461  -27.8401   19.2869 C   0  0  0  0  0  0  0  0  0  0  0  0
  -25.1133  -13.9542   20.4481 C   0  0  1  0  0  0  0  0  0  0  0  0
  -25.7200  -16.4912   23.2101 C   0  0  1  0  0  0  0  0  0  0  0  0
  -25.4814  -28.4342   20.6810 C   0  0  2  0  0  0  0  0  0  0  0  0
  -23.1000  -22.2145   27.7249 C   0  0  0  0  0  0  0  0  0  0  0  0
  -21.6541  -18.5376   22.4089 C   0  0  0  0  0  0  0  0  0  0  0  0
  -21.1413  -20.5193   23.8505 C   0  0  0  0  0  0  0  0  0  0  0  0
  -21.0220  -18.2187   24.8074 C   0  0  0  0  0  0  0  0  0  0  0  0
  -26.6900  -20.9790   27.4769 C   0  0  0  0  0  0  0  0  0  0  0  0
  -31.6952  -24.8588   22.1492 C   0  0  0  0  0  0  0  0  0  0  0  0
  -29.5051  -24.5498   20.2432 C   0  0  0  0  0  0  0  0  0  0  0  0
  -29.4788  -26.2060   17.8389 C   0  0  0  0  0  0  0  0  0  0  0  0
  -29.9126  -23.1011   19.9659 C   0  0  0  0  0  0  0  0  0  0  0  0
  -28.8227  -22.0915   20.3067 C   0  0  0  0  0  0  0  0  0  1  0  0
  -23.2806  -19.2305   24.2905 C   0  0  1  0  0  0  0  0  0  0  0  0
  -24.2075  -21.2337   27.3723 C   0  0  2  0  0  0  0  0  0  0  0  0
  -21.8002  -19.1235   23.8274 C   0  0  0  0  0  0  0  0  0  0  0  0
  -23.1504  -28.0086   21.3647 N   0  0  0  0  0  0  0  0  0  0  0  0
  -24.4405  -27.6420   21.4502 N   0  0  0  0  0  0  0  0  0  0  0  0
  -25.1123  -17.8048   23.4324 N   0  0  0  0  0  0  0  0  0  0  0  0
  -26.7603  -28.6385   18.5807 N   0  0  0  0  0  0  0  0  0  0  0  0
  -25.8919  -26.0581   22.4478 N   0  0  0  0  0  0  0  0  0  0  0  0
  -21.8212  -24.8596   23.9935 N   0  0  0  0  0  0  0  0  0  0  0  0
  -25.5579  -14.6693   21.6252 N   0  0  0  0  0  0  0  0  0  0  0  0
  -23.4477  -19.7569   25.6408 N   0  0  0  0  0  0  0  0  0  0  0  0
  -28.2551  -26.8286   18.2925 N   0  0  0  0  0  0  0  0  0  0  0  0
  -25.5138  -21.8451   27.7476 N   0  3  0  0  0  0  0  0  0  0  0  0
  -24.0584  -24.3599   24.0576 O   0  0  0  0  0  0  0  0  0  0  0  0
  -24.3436  -16.6289   21.2965 O   0  0  0  0  0  0  0  0  0  0  0  0
  -23.5653  -16.9747   24.9666 O   0  0  0  0  0  0  0  0  0  0  0  0
  -24.7760  -21.5626   25.0472 O   0  0  0  0  0  0  0  0  0  0  0  0
  -28.7857  -28.9074   17.4837 O   0  0  0  0  0  0  0  0  0  0  0  0
  -16.9830  -27.3540   22.8082 O   0  0  0  0  0  0  0  0  0  0  0  0
  -29.3109  -20.7795   20.0299 O   0  0  0  0  0  0  0  0  0  1  0  0
  -14.1678  -22.6236   22.4886 F   0  0  0  0  0  0  0  0  0  0  0  0
  -33.6210  -28.2831   19.2953 F   0  0  0  0  0  0  0  0  0  0  0  0
  -15.0164  -27.0001   20.8977 F   0  0  0  0  0  0  0  0  0  0  0  0
  1  2  1  0  0  0  0
  1  5  2  0  0  0  0
  2  6  2  0  0  0  0
  3  8  2  0  0  0  0
  3 17  1  0  0  0  0
  4  9  1  0  0  0  0
  4 17  2  0  0  0  0
  5 19  1  0  0  0  0
  6 21  1  0  0  0  0
  7 10  2  0  0  0  0
  7 20  1  0  0  0  0
  8 26  1  0  0  0  0
  9 26  2  0  0  0  0
 10 27  1  0  0  0  0
 11 12  2  0  0  0  0
 11 28  1  0  0  0  0
 12 29  1  0  0  0  0
 13 22  1  0  0  0  0
 13 27  2  0  0  0  0
 14 23  1  0  0  0  0
 14 30  2  0  0  0  0
 15 24  2  0  0  0  0
 15 30  1  0  0  0  0
 16 29  2  0  0  0  0
 16 31  1  0  0  0  0
 17 32  1  0  0  0  0
 18 32  1  0  0  0  0
 18 33  2  0  0  0  0
 18 36  1  0  0  0  0
 19 21  2  0  0  0  0
 19 41  1  0  0  0  0
 20 22  2  0  0  0  0
 20 42  1  0  0  0  0
 21 50  1  0  0  0  0
 22 43  1  0  0  0  0
 23 25  2  0  0  0  0
 23 58  1  0  0  0  0
 24 25  1  0  0  0  0
 24 60  1  0  0  0  0
 25 59  1  0  0  0  0
 26 81  1  0  0  0  0
 27 82  1  0  0  0  0
 28 31  2  0  0  0  0
 28 81  1  0  0  0  0
 29 83  1  0  0  0  0
 30 84  1  0  0  0  0
 31 85  1  0  0  0  0
 32 66  2  0  0  0  0
 33 67  1  0  0  0  0
 33 70  1  0  0  0  0
 34 35  2  0  0  0  0
 35 58  1  0  0  0  0
 36 71  1  0  0  0  0
 36 76  2  0  0  0  0
 37 51  1  0  0  0  0
 37 72  1  0  0  0  0
 37 77  2  0  0  0  0
 38 63  1  0  0  0  0
 38 68  1  0  0  0  0
 38 78  2  0  0  0  0
 39 64  1  0  0  0  0
 39 73  1  0  0  0  0
 39 79  2  0  0  0  0
 40 69  1  0  0  0  0
 40 74  1  0  0  0  0
 40 80  2  0  0  0  0
 41 44  1  0  0  0  0
 42 51  1  0  0  0  0
 43 68  1  0  0  0  0
 44 46  1  0  0  0  0
 45 47  1  0  0  0  0
 45 48  1  0  0  0  0
 46 50  1  0  0  0  0
 47 52  1  0  0  0  0
 48 69  1  0  0  0  0
 49 52  1  0  0  0  0
 49 69  1  0  0  0  0
 50 72  1  0  0  0  0
 51 68  1  0  0  0  0
 52 67  1  0  0  0  0
 53 64  1  0  0  0  0
 54 65  1  0  0  0  0
 55 65  1  0  0  0  0
 56 65  1  0  0  0  0
 57 75  1  0  0  0  0
 59 61  1  0  0  0  0
 60 74  1  0  0  0  0
 61 62  1  0  0  0  0
 62 82  1  0  0  0  0
 63 65  1  0  0  0  0
 63 73  1  0  0  0  0
 64 75  1  0  0  0  0
 66 67  1  0  0  0  0
M  CHG  1  75   1
M  ISO  4  40 100  62 101  74 100  82 101
M  END
> <Batch ID>
0123

> <Smiles>
C=CCc1cc(F)cc(C[100NH:0][100C:0](=O)N2CCCC(n3nc(-c4ccc(Oc5ccc(F)cc5F)cc4)c(C(N)=O)c3N)C2)c1CC[101CH2:1][101O:1]c1ccc2c(c1)CN(C(=O)C(NC(=O)C(C)NC)C(C)(C)C)C(C(=O)NC1CCCc3ccccc31)C2

> <Shape>
0.208

> <Color>
0.058

> <Negative vol penalty>
0.000

$$$$

  -OEChem-04052302033D

 85 93  0     1  0  0  0  0  0999 V2000
  -29.5328  -32.9384   25.6888 C   0  0  0  0  0  0  0  0  0  0  0  0
  -29.2376  -31.6338   25.3062 C   0  0  0  0  0  0  0  0  0  0  0  0
  -23.3665   -9.7082   21.1380 C   0  0  0  0  0  0  0  0  0  0  0  0
  -24.0270  -10.5615   23.2996 C   0  0  0  0  0  0  0  0  0  0  0  0
  -28.5124  -33.8839   25.7827 C   0  0  0  0  0  0  0  0  0  0  0  0
  -27.9217  -31.2736   25.0184 C   0  0  0  0  0  0  0  0  0  0  0  0
  -27.5470  -28.4886   20.8055 C   0  0  0  0  0  0  0  0  0  0  0  0
  -22.7140   -8.6426   21.7579 C   0  0  0  0  0  0  0  0  0  0  0  0
  -23.3744   -9.4960   23.9196 C   0  0  0  0  0  0  0  0  0  0  0  0
  -27.8875  -27.1400   20.9014 C   0  0  0  0  0  0  0  0  0  0  0  0
  -19.7867   -8.1089   23.3638 C   0  0  0  0  0  0  0  0  0  0  0  0
  -18.5098   -7.7783   22.9100 C   0  0  0  0  0  0  0  0  0  0  0  0
  -31.2675  -19.9056   22.3327 C   0  0  0  0  0  0  0  0  0  0  0  0
  -25.5489  -26.5661   21.0459 C   0  0  0  0  0  0  0  0  0  0  0  0
  -31.6352  -17.7190   21.3731 C   0  0  0  0  0  0  0  0  0  0  0  0
  -19.2878   -5.5647   22.3338 C   0  0  0  0  0  0  0  0  0  0  0  0
  -24.0231  -10.6676   21.9088 C   0  0  0  0  0  0  0  0  0  0  0  0
  -29.8903  -19.7365   22.1902 C   0  0  0  0  0  0  0  0  0  0  0  0
  -29.3855  -18.5587   21.6393 C   0  0  0  0  0  0  0  0  0  0  0  0
  -24.1529  -13.0239   20.9399 C   0  0  0  0  0  0  0  0  0  0  0  0
  -27.1846  -33.5375   25.4864 C   0  0  0  0  0  0  0  0  0  0  0  0
  -26.2031  -28.8876   20.8402 C   0  0  0  0  0  0  0  0  0  0  0  0
  -26.8823  -32.2150   25.1096 C   0  0  0  0  0  0  0  0  0  0  0  0
  -25.1939  -27.9201   20.9477 C   0  0  0  0  0  0  0  0  0  0  0  0
  -32.1400  -18.8969   21.9241 C   0  0  0  0  0  0  0  0  0  0  0  0
  -30.2580  -17.5499   21.2307 C   0  0  0  0  0  0  0  0  0  0  0  0
  -22.7179   -8.5365   23.1488 C   0  0  0  0  0  0  0  0  0  0  0  0
  -26.8885  -26.1788   21.0245 C   0  0  0  0  0  0  0  0  0  0  0  0
  -20.8141   -7.1675   23.3025 C   0  0  0  0  0  0  0  0  0  0  0  0
  -18.2603   -6.5062   22.3951 C   0  0  0  0  0  0  0  0  0  0  0  0
  -20.5647   -5.8954   22.7875 C   0  0  0  0  0  0  0  0  0  0  0  0
  -24.6978  -11.7682   21.2689 C   0  0  0  0  0  0  0  0  0  0  0  0
  -25.1913  -13.7060   20.3543 C   0  0  0  0  0  0  0  0  0  0  0  0
  -27.2745  -18.7154   20.4006 C   0  0  0  0  0  0  0  0  0  0  0  0
  -27.9419  -18.3831   21.4923 C   0  0  0  0  0  0  0  0  0  0  0  0
  -29.1656  -22.1652   21.9871 C   0  0  0  0  0  0  0  0  0  0  0  0
  -28.3768  -23.1886   22.3435 C   0  0  0  0  0  0  0  0  0  0  0  0
  -29.0023  -20.8368   22.6374 C   0  0  0  0  0  0  0  0  0  0  0  0
  -22.8268  -13.5286   21.1454 C   0  0  0  0  0  0  0  0  0  0  0  0
  -24.4511  -30.7020   22.7745 C   0  0  0  0  0  0  0  0  0  0  0  0
  -22.1684  -30.2206   20.5206 C   0  0  0  0  0  0  0  0  0  0  0  0
  -20.9613  -28.2767   17.9887 C   0  0  0  0  0  0  0  0  0  0  0  0
  -30.5364  -15.2601   20.2180 C   0  0  0  0  0  0  0  0  0  0  0  0
  -26.1087  -34.5820   25.6478 C   0  0  0  0  0  0  0  0  0  0  0  0
  -25.8512  -30.3441   20.7087 C   0  0  0  0  0  0  0  0  0  0  0  0
  -23.7353  -28.2947   20.9693 C   0  0  0  0  0  0  0  0  0  0  0  0
  -24.7949  -34.2140   24.9631 C   0  0  0  0  0  0  0  0  0  0  0  0
  -29.7314  -12.0942   18.8016 C   0  0  0  0  0  0  0  0  0  0  0  0
  -24.4116  -32.7726   25.2832 C   0  0  0  0  0  0  0  0  0  0  0  0
  -28.3053  -11.8304   19.2902 C   0  0  0  0  0  0  0  0  0  0  0  0
  -30.5729  -12.8009   19.8628 C   0  0  0  0  0  0  0  0  0  0  0  0
  -28.5553  -13.7661   20.8956 C   0  0  0  0  0  0  0  0  0  0  0  0
  -25.4707  -31.7921   24.7652 C   0  0  1  0  0  0  0  0  0  0  0  0
  -24.4737  -30.6791   21.2723 C   0  0  1  0  0  0  0  0  0  0  0  0
  -27.6506  -13.1140   19.8373 C   0  0  2  0  0  0  0  0  0  0  0  0
  -33.6126  -19.0776   22.0757 C   0  0  0  0  0  0  0  0  0  0  0  0
  -19.0570  -28.1197   16.3620 C   0  0  0  0  0  0  0  0  0  0  0  0
  -20.3376  -29.2519   22.7611 C   0  0  0  0  0  0  0  0  0  0  0  0
  -18.8531  -28.2413   21.0166 C   0  0  0  0  0  0  0  0  0  0  0  0
  -19.2239  -30.7078   21.0598 C   0  0  0  0  0  0  0  0  0  0  0  0
  -22.7818  -28.4545   15.6621 C   0  0  0  0  0  0  0  0  0  0  0  0
  -28.4697  -24.5476   21.7282 C   0  0  0  0  0  0  0  0  0  1  0  0
  -21.0922  -29.1868   20.2928 C   0  0  1  0  0  0  0  0  0  0  0  0
  -20.4714  -28.6273   16.5953 C   0  0  2  0  0  0  0  0  0  0  0  0
  -19.9042  -29.3397   21.2841 C   0  0  0  0  0  0  0  0  0  0  0  0
  -25.9825  -11.6565   20.9210 N   0  0  0  0  0  0  0  0  0  0  0  0
  -26.2536  -12.8507   20.3673 N   0  0  0  0  0  0  0  0  0  0  0  0
  -23.4422  -29.7321   20.8442 N   0  0  0  0  0  0  0  0  0  0  0  0
  -29.8920  -14.0100   20.3312 N   0  0  0  0  0  0  0  0  0  0  0  0
  -25.2902  -14.9480   19.8346 N   0  0  0  0  0  0  0  0  0  0  0  0
  -21.8829  -12.6957   21.7617 N   0  0  0  0  0  0  0  0  0  0  0  0
  -29.7789  -16.3418   20.6661 N   0  0  0  0  0  0  0  0  0  0  0  0
  -25.3319  -31.6062   23.3367 N   0  0  0  0  0  0  0  0  0  0  0  0
  -20.7151  -29.2930   18.8875 N   0  0  0  0  0  0  0  0  0  0  0  0
  -21.3633  -28.0235   15.5654 N   0  3  0  0  0  0  0  0  0  0  0  0
  -28.1549  -20.6234   23.4973 O   0  0  0  0  0  0  0  0  0  0  0  0
  -22.4842  -14.6780   20.7781 O   0  0  0  0  0  0  0  0  0  0  0  0
  -23.6897  -29.9557   23.3788 O   0  0  0  0  0  0  0  0  0  0  0  0
  -21.8909  -31.4173   20.4084 O   0  0  0  0  0  0  0  0  0  0  0  0
  -21.5044  -27.2066   18.2541 O   0  0  0  0  0  0  0  0  0  0  0  0
  -31.6654  -15.3666   19.7324 O   0  0  0  0  0  0  0  0  0  0  0  0
  -22.0811   -7.4970   23.7541 O   0  0  0  0  0  0  0  0  0  0  0  0
  -27.2182  -24.8618   21.1189 O   0  0  0  0  0  0  0  0  0  1  0  0
  -17.0337   -6.1883   21.9608 F   0  0  0  0  0  0  0  0  0  0  0  0
  -21.5474   -4.9864   22.7272 F   0  0  0  0  0  0  0  0  0  0  0  0
  1  2  1  0  0  0  0
  1  5  2  0  0  0  0
  2  6  2  0  0  0  0
  3  8  2  0  0  0  0
  3 17  1  0  0  0  0
  4  9  1  0  0  0  0
  4 17  2  0  0  0  0
  5 21  1  0  0  0  0
  6 23  1  0  0  0  0
  7 10  2  0  0  0  0
  7 22  1  0  0  0  0
  8 27  1  0  0  0  0
  9 27  2  0  0  0  0
 10 28  1  0  0  0  0
 11 12  2  0  0  0  0
 11 29  1  0  0  0  0
 12 30  1  0  0  0  0
 13 18  1  0  0  0  0
 13 25  2  0  0  0  0
 14 24  1  0  0  0  0
 14 28  2  0  0  0  0
 15 25  1  0  0  0  0
 15 26  2  0  0  0  0
 16 30  2  0  0  0  0
 16 31  1  0  0  0  0
 17 32  1  0  0  0  0
 18 19  2  0  0  0  0
 18 38  1  0  0  0  0
 19 26  1  0  0  0  0
 19 35  1  0  0  0  0
 20 32  1  0  0  0  0
 20 33  2  0  0  0  0
 20 39  1  0  0  0  0
 21 23  2  0  0  0  0
 21 44  1  0  0  0  0
 22 24  2  0  0  0  0
 22 45  1  0  0  0  0
 23 53  1  0  0  0  0
 24 46  1  0  0  0  0
 25 56  1  0  0  0  0
 26 72  1  0  0  0  0
 27 82  1  0  0  0  0
 28 83  1  0  0  0  0
 29 31  2  0  0  0  0
 29 82  1  0  0  0  0
 30 84  1  0  0  0  0
 31 85  1  0  0  0  0
 32 66  2  0  0  0  0
 33 67  1  0  0  0  0
 33 70  1  0  0  0  0
 34 35  2  0  0  0  0
 36 37  2  0  0  0  0
 36 38  1  0  0  0  0
 37 62  1  0  0  0  0
 38 76  2  0  0  0  0
 39 71  1  0  0  0  0
 39 77  2  0  0  0  0
 40 54  1  0  0  0  0
 40 73  1  0  0  0  0
 40 78  2  0  0  0  0
 41 63  1  0  0  0  0
 41 68  1  0  0  0  0
 41 79  2  0  0  0  0
 42 64  1  0  0  0  0
 42 74  1  0  0  0  0
 42 80  2  0  0  0  0
 43 69  1  0  0  0  0
 43 72  1  0  0  0  0
 43 81  2  0  0  0  0
 44 47  1  0  0  0  0
 45 54  1  0  0  0  0
 46 68  1  0  0  0  0
 47 49  1  0  0  0  0
 48 50  1  0  0  0  0
 48 51  1  0  0  0  0
 49 53  1  0  0  0  0
 50 55  1  0  0  0  0
 51 69  1  0  0  0  0
 52 55  1  0  0  0  0
 52 69  1  0  0  0  0
 53 73  1  0  0  0  0
 54 68  1  0  0  0  0
 55 67  1  0  0  0  0
 57 64  1  0  0  0  0
 58 65  1  0  0  0  0
 59 65  1  0  0  0  0
 60 65  1  0  0  0  0
 61 75  1  0  0  0  0
 62 83  1  0  0  0  0
 63 65  1  0  0  0  0
 63 74  1  0  0  0  0
 64 75  1  0  0  0  0
 66 67  1  0  0  0  0
M  CHG  1  75   1
M  ISO  4  43 100  62 101  72 100  83 101
M  END
> <Batch ID>
0123

> <Smiles>
C=Cc1c([100NH:0][100C:0](=O)N2CCCC(n3nc(-c4ccc(Oc5ccc(F)cc5F)cc4)c(C(N)=O)c3N)C2)cc(C)cc1C(=O)C=C[101CH2:1][101O:1]c1ccc2c(c1)CN(C(=O)C(NC(=O)C(C)NC)C(C)(C)C)C(C(=O)NC1CCCc3ccccc31)C2

> <Shape>
0.325

> <Color>
0.161

> <Negative vol penalty>
0.000

$$$$

  -OEChem-04052302033D

 83 91  0     1  0  0  0  0  0999 V2000
  -16.9475  -30.9539   23.1368 C   0  0  0  0  0  0  0  0  0  0  0  0
  -18.0122  -31.0953   22.2525 C   0  0  0  0  0  0  0  0  0  0  0  0
  -24.2920   -9.5089   22.1239 C   0  0  0  0  0  0  0  0  0  0  0  0
  -23.9679   -9.1515   19.7565 C   0  0  0  0  0  0  0  0  0  0  0  0
  -29.1860  -21.1695   21.3170 C   0  0  0  0  0  0  0  0  0  0  0  0
  -17.0985  -30.1860   24.2907 C   0  0  0  0  0  0  0  0  0  0  0  0
  -19.2289  -30.4697   22.5222 C   0  0  0  0  0  0  0  0  0  0  0  0
  -24.7843  -27.3988   19.2021 C   0  0  0  0  0  0  0  0  0  0  0  0
  -29.3961  -22.5340   21.1181 C   0  0  0  0  0  0  0  0  0  0  0  0
  -23.2306   -8.6470   22.3994 C   0  0  0  0  0  0  0  0  0  0  0  0
  -22.9065   -8.2894   20.0320 C   0  0  0  0  0  0  0  0  0  0  0  0
  -26.1764  -27.4572   19.1535 C   0  0  0  0  0  0  0  0  0  0  0  0
  -22.6982   -5.3100   22.5189 C   0  0  0  0  0  0  0  0  0  0  0  0
  -22.8771   -4.3630   23.5272 C   0  0  0  0  0  0  0  0  0  0  0  0
  -26.2970  -26.0906   21.1377 C   0  0  0  0  0  0  0  0  0  0  0  0
  -31.3547  -22.0392   19.7929 C   0  0  0  0  0  0  0  0  0  0  0  0
  -21.0178   -5.3090   24.7459 C   0  0  0  0  0  0  0  0  0  0  0  0
  -24.6607   -9.7612   20.8024 C   0  0  0  0  0  0  0  0  0  0  0  0
  -30.0603  -20.2398   20.7540 C   0  0  0  0  0  0  0  0  0  0  0  0
  -27.1160  -10.3115   20.3823 C   0  0  0  0  0  0  0  0  0  0  0  0
  -18.3146  -29.5428   24.5699 C   0  0  0  0  0  0  0  0  0  0  0  0
  -24.1368  -26.6937   20.2268 C   0  0  0  0  0  0  0  0  0  0  0  0
  -19.3967  -29.6936   23.6817 C   0  0  0  0  0  0  0  0  0  0  0  0
  -24.8966  -26.0226   21.1955 C   0  0  0  0  0  0  0  0  0  0  0  0
  -31.1447  -20.6746   19.9919 C   0  0  0  0  0  0  0  0  0  0  0  0
  -30.4804  -22.9688   20.3560 C   0  0  0  0  0  0  0  0  0  0  0  0
  -22.5378   -8.0372   21.3535 C   0  0  0  0  0  0  0  0  0  0  0  0
  -26.9330  -26.8055   20.1230 C   0  0  0  0  0  0  0  0  0  0  0  0
  -21.6791   -6.2567   22.6242 C   0  0  0  0  0  0  0  0  0  0  0  0
  -22.0370   -4.3624   24.6406 C   0  0  0  0  0  0  0  0  0  0  0  0
  -20.8389   -6.2561   23.7376 C   0  0  0  0  0  0  0  0  0  0  0  0
  -25.7567  -10.6520   20.5172 C   0  0  0  0  0  0  0  0  0  0  0  0
  -27.7438  -11.5036   20.1155 C   0  0  0  0  0  0  0  0  0  0  0  0
  -29.8138  -18.8217   20.9801 C   0  0  0  0  0  0  0  0  0  0  0  0
  -28.6003  -18.2570   21.1462 C   0  0  0  0  0  0  0  0  0  0  0  0
  -30.1184  -24.8565   19.1189 C   0  0  0  0  0  0  0  0  0  0  0  0
  -27.7540   -9.0319   20.4886 C   0  0  0  0  0  0  0  0  0  0  0  0
  -28.5137  -16.7980   21.3571 C   0  0  0  0  0  0  0  0  0  0  0  0
  -22.1327  -27.4743   22.5673 C   0  0  0  0  0  0  0  0  0  0  0  0
  -22.0364  -24.2648   23.0280 C   0  0  0  0  0  0  0  0  0  0  0  0
  -23.5640  -21.2365   22.6500 C   0  0  0  0  0  0  0  0  0  0  0  0
  -18.4450  -28.7620   25.8536 C   0  0  0  0  0  0  0  0  0  0  0  0
  -22.6348  -26.6179   20.2498 C   0  0  0  0  0  0  0  0  0  0  0  0
  -24.2502  -25.2352   22.3049 C   0  0  0  0  0  0  0  0  0  0  0  0
  -19.6501  -27.8253   25.8771 C   0  0  0  0  0  0  0  0  0  0  0  0
  -25.8707  -16.0346   18.9356 C   0  0  0  0  0  0  0  0  0  0  0  0
  -20.8976  -28.5478   25.3787 C   0  0  0  0  0  0  0  0  0  0  0  0
  -25.6890  -14.5361   19.1619 C   0  0  0  0  0  0  0  0  0  0  0  0
  -26.2246  -16.7692   20.2278 C   0  0  0  0  0  0  0  0  0  0  0  0
  -27.2310  -14.7035   21.1555 C   0  0  0  0  0  0  0  0  0  0  0  0
  -20.7244  -29.0102   23.9269 C   0  0  1  0  0  0  0  0  0  0  0  0
  -22.0737  -26.2996   21.6323 C   0  0  1  0  0  0  0  0  0  0  0  0
  -26.9206  -13.9377   19.8599 C   0  0  1  0  0  0  0  0  0  0  0  0
  -32.1011  -19.7065   19.3730 C   0  0  0  0  0  0  0  0  0  0  0  0
  -23.2585  -18.7987   23.1608 C   0  0  0  0  0  0  0  0  0  0  0  0
  -22.7612  -24.7878   25.9454 C   0  0  0  0  0  0  0  0  0  0  0  0
  -23.3659  -22.3675   26.1564 C   0  0  0  0  0  0  0  0  0  0  0  0
  -21.0235  -23.0223   25.6025 C   0  0  0  0  0  0  0  0  0  0  0  0
  -23.6071  -20.5109   19.7811 C   0  0  0  0  0  0  0  0  0  0  0  0
  -30.2617  -26.3229   18.8105 C   0  0  0  0  0  0  0  0  0  0  0  0
  -28.8948  -26.9861   18.7909 C   0  0  0  0  0  0  0  0  0  1  0  0
  -22.8291  -23.2787   23.8515 C   0  0  1  0  0  0  0  0  0  0  0  0
  -23.0466  -19.9043   22.1383 C   0  0  2  0  0  0  0  0  0  0  0  0
  -22.5074  -23.3804   25.3693 C   0  0  0  0  0  0  0  0  0  0  0  0
  -25.5333  -11.9582   20.3500 N   0  0  0  0  0  0  0  0  0  0  0  0
  -30.6929  -24.3434   20.1574 N   0  0  0  0  0  0  0  0  0  0  0  0
  -26.7607  -12.4489   20.1074 N   0  0  0  0  0  0  0  0  0  0  0  0
  -27.3689  -16.1429   20.9069 N   0  0  0  0  0  0  0  0  0  0  0  0
  -22.7786  -25.1962   22.2880 N   0  0  0  0  0  0  0  0  0  0  0  0
  -29.0353  -11.8249   19.8894 N   0  0  0  0  0  0  0  0  0  0  0  0
  -26.9606   -7.9107   20.7673 N   0  0  0  0  0  0  0  0  0  0  0  0
  -20.8968  -27.8972   23.0181 N   0  0  0  0  0  0  0  0  0  0  0  0
  -22.5723  -21.9643   23.2731 N   0  0  0  0  0  0  0  0  0  0  0  0
  -23.7509  -19.5232   20.8814 N   0  3  0  0  0  0  0  0  0  0  0  0
  -28.9934   -8.8896   20.3571 O   0  0  0  0  0  0  0  0  0  0  0  0
  -29.4597  -16.2483   21.9242 O   0  0  0  0  0  0  0  0  0  0  0  0
  -23.2192  -27.9601   22.8593 O   0  0  0  0  0  0  0  0  0  0  0  0
  -20.8043  -24.2062   23.0352 O   0  0  0  0  0  0  0  0  0  0  0  0
  -24.7319  -21.5942   22.5140 O   0  0  0  0  0  0  0  0  0  0  0  0
  -21.5022   -7.1958   21.6220 O   0  0  0  0  0  0  0  0  0  0  0  0
  -28.2919  -26.8615   20.0783 O   0  0  0  0  0  0  0  0  0  1  0  0
  -22.2080   -3.4519   25.6081 F   0  0  0  0  0  0  0  0  0  0  0  0
  -19.8574   -7.1623   23.8437 F   0  0  0  0  0  0  0  0  0  0  0  0
  1  2  1  0  0  0  0
  1  6  2  0  0  0  0
  2  7  2  0  0  0  0
  3 10  2  0  0  0  0
  3 18  1  0  0  0  0
  4 11  1  0  0  0  0
  4 18  2  0  0  0  0
  5  9  2  0  0  0  0
  5 19  1  0  0  0  0
  6 21  1  0  0  0  0
  7 23  1  0  0  0  0
  8 12  2  0  0  0  0
  8 22  1  0  0  0  0
  9 26  1  0  0  0  0
 10 27  1  0  0  0  0
 11 27  2  0  0  0  0
 12 28  1  0  0  0  0
 13 14  2  0  0  0  0
 13 29  1  0  0  0  0
 14 30  1  0  0  0  0
 15 24  1  0  0  0  0
 15 28  2  0  0  0  0
 16 25  1  0  0  0  0
 16 26  2  0  0  0  0
 17 30  2  0  0  0  0
 17 31  1  0  0  0  0
 18 32  1  0  0  0  0
 19 25  2  0  0  0  0
 19 34  1  0  0  0  0
 20 32  1  0  0  0  0
 20 33  2  0  0  0  0
 20 37  1  0  0  0  0
 21 23  2  0  0  0  0
 21 42  1  0  0  0  0
 22 24  2  0  0  0  0
 22 43  1  0  0  0  0
 23 51  1  0  0  0  0
 24 44  1  0  0  0  0
 25 54  1  0  0  0  0
 26 66  1  0  0  0  0
 27 80  1  0  0  0  0
 28 81  1  0  0  0  0
 29 31  2  0  0  0  0
 29 80  1  0  0  0  0
 30 82  1  0  0  0  0
 31 83  1  0  0  0  0
 32 65  2  0  0  0  0
 33 67  1  0  0  0  0
 33 70  1  0  0  0  0
 34 35  2  0  0  0  0
 35 38  1  0  0  0  0
 36 60  1  0  0  0  0
 36 66  2  0  0  0  0
 37 71  1  0  0  0  0
 37 75  2  0  0  0  0
 38 68  1  0  0  0  0
 38 76  2  0  0  0  0
 39 52  1  0  0  0  0
 39 72  1  0  0  0  0
 39 77  2  0  0  0  0
 40 62  1  0  0  0  0
 40 69  1  0  0  0  0
 40 78  2  0  0  0  0
 41 63  1  0  0  0  0
 41 73  1  0  0  0  0
 41 79  2  0  0  0  0
 42 45  1  0  0  0  0
 43 52  1  0  0  0  0
 44 69  1  0  0  0  0
 45 47  1  0  0  0  0
 46 48  1  0  0  0  0
 46 49  1  0  0  0  0
 47 51  1  0  0  0  0
 48 53  1  0  0  0  0
 49 68  1  0  0  0  0
 50 53  1  0  0  0  0
 50 68  1  0  0  0  0
 51 72  1  0  0  0  0
 52 69  1  0  0  0  0
 53 67  1  0  0  0  0
 55 63  1  0  0  0  0
 56 64  1  0  0  0  0
 57 64  1  0  0  0  0
 58 64  1  0  0  0  0
 59 74  1  0  0  0  0
 60 61  1  0  0  0  0
 61 81  1  0  0  0  0
 62 64  1  0  0  0  0
 62 73  1  0  0  0  0
 63 74  1  0  0  0  0
 65 67  1  0  0  0  0
M  CHG  1  74   1
M  ISO  4  35 100  38 100  61 101  81 101
M  END
> <Batch ID>
0123

> <Smiles>
CNC(C)C(=O)NC(C(=O)N1Cc2cc([101O:1][101CH2:1]C=CNc3ccc(C=[100CH:0][100C:0](=O)N4CCCC(n5nc(-c6ccc(Oc7ccc(F)cc7F)cc6)c(C(N)=O)c5N)C4)c(C)c3)ccc2CC1C(=O)NC1CCCc2ccccc21)C(C)(C)C

> <Shape>
0.252

> <Color>
0.112

> <Negative vol penalty>
0.000

$$$$

  -OEChem-04052302033D

 84 92  0     1  0  0  0  0  0999 V2000
  -27.0939  -27.8294   28.6890 C   0  0  0  0  0  0  0  0  0  0  0  0
  -27.6708  -27.7987   27.4234 C   0  0  0  0  0  0  0  0  0  0  0  0
  -26.3866  -12.5288   21.7119 C   0  0  0  0  0  0  0  0  0  0  0  0
  -25.9549  -13.6036   19.5917 C   0  0  0  0  0  0  0  0  0  0  0  0
  -25.7121  -27.7055   28.8271 C   0  0  0  0  0  0  0  0  0  0  0  0
  -26.8662  -27.6428   26.2952 C   0  0  0  0  0  0  0  0  0  0  0  0
  -27.7448  -30.1411   20.7732 C   0  0  0  0  0  0  0  0  0  0  0  0
  -25.1465  -11.8940   21.6426 C   0  0  0  0  0  0  0  0  0  0  0  0
  -24.7148  -12.9688   19.5223 C   0  0  0  0  0  0  0  0  0  0  0  0
  -28.3013  -29.6427   19.5960 C   0  0  0  0  0  0  0  0  0  0  0  0
  -23.7969   -9.2302   20.0565 C   0  0  0  0  0  0  0  0  0  0  0  0
  -23.7451   -7.8726   20.3722 C   0  0  0  0  0  0  0  0  0  0  0  0
  -26.0944  -29.0899   18.7939 C   0  0  0  0  0  0  0  0  0  0  0  0
  -29.0952  -22.7827   17.3811 C   0  0  0  0  0  0  0  0  0  0  0  0
  -22.1967   -8.3485   22.1647 C   0  0  0  0  0  0  0  0  0  0  0  0
  -26.7908  -13.3837   20.6864 C   0  0  0  0  0  0  0  0  0  0  0  0
  -29.3004  -13.5620   20.2649 C   0  0  0  0  0  0  0  0  0  0  0  0
  -24.8892  -27.5577   27.6994 C   0  0  0  0  0  0  0  0  0  0  0  0
  -26.3574  -30.1075   20.9745 C   0  0  0  0  0  0  0  0  0  0  0  0
  -25.4722  -27.5154   26.4185 C   0  0  0  0  0  0  0  0  0  0  0  0
  -25.5226  -29.5908   19.9734 C   0  0  0  0  0  0  0  0  0  0  0  0
  -28.8950  -21.4909   17.9479 C   0  0  0  0  0  0  0  0  0  0  0  0
  -24.3106  -12.1140   20.5478 C   0  0  0  0  0  0  0  0  0  0  0  0
  -27.4763  -29.1144   18.6074 C   0  0  0  0  0  0  0  0  0  0  0  0
  -23.0487  -10.1471   20.7949 C   0  0  0  0  0  0  0  0  0  0  0  0
  -22.9450   -7.4317   21.4263 C   0  0  0  0  0  0  0  0  0  0  0  0
  -22.2485   -9.7062   21.8490 C   0  0  0  0  0  0  0  0  0  0  0  0
  -28.0714  -14.0401   20.7577 C   0  0  0  0  0  0  0  0  0  0  0  0
  -29.6227  -23.6713   18.2919 C   0  0  0  0  0  0  0  0  0  0  0  0
  -30.2035  -14.5478   20.5798 C   0  0  0  0  0  0  0  0  0  0  0  0
  -29.2774  -21.4413   19.2705 C   0  0  0  0  0  0  0  0  0  0  0  0
  -29.7404  -25.6916   16.7533 C   0  0  0  0  0  0  0  0  0  0  0  0
  -29.5989  -12.3364   19.5834 C   0  0  0  0  0  0  0  0  0  0  0  0
  -29.9752  -25.1012   18.1014 C   0  0  0  0  0  0  0  0  0  0  0  0
  -29.4774  -26.9886   16.5083 C   0  0  0  0  0  0  0  0  0  0  0  0
  -24.4297  -28.7122   23.0818 C   0  0  0  0  0  0  0  0  0  0  0  0
  -22.1507  -30.4492   21.5614 C   0  0  0  0  0  0  0  0  0  0  0  0
  -21.1537  -32.0739   18.7307 C   0  0  0  0  0  0  0  0  0  0  0  0
  -29.6660  -20.4209   21.5407 C   0  0  0  0  0  0  0  0  0  0  0  0
  -23.4053  -27.3800   27.9019 C   0  0  0  0  0  0  0  0  0  0  0  0
  -25.7707  -30.6735   22.2386 C   0  0  0  0  0  0  0  0  0  0  0  0
  -24.0254  -29.5503   20.1321 C   0  0  0  0  0  0  0  0  0  0  0  0
  -22.5872  -27.5943   26.6310 C   0  0  0  0  0  0  0  0  0  0  0  0
  -31.0014  -18.0081   23.7929 C   0  0  0  0  0  0  0  0  0  0  0  0
  -23.2180  -26.8504   25.4582 C   0  0  0  0  0  0  0  0  0  0  0  0
  -30.5185  -16.6728   23.2219 C   0  0  0  0  0  0  0  0  0  0  0  0
  -29.9526  -19.1069   23.6303 C   0  0  0  0  0  0  0  0  0  0  0  0
  -28.9651  -17.9508   21.6919 C   0  0  0  0  0  0  0  0  0  0  0  0
  -24.6304  -27.3728   25.1690 C   0  0  1  0  0  0  0  0  0  0  0  0
  -24.3853  -30.1187   22.5549 C   0  0  1  0  0  0  0  0  0  0  0  0
  -30.0130  -16.8288   21.7742 C   0  0  2  0  0  0  0  0  0  0  0  0
  -29.2602  -27.4478   15.0878 C   0  0  0  0  0  0  0  0  0  0  0  0
  -29.4159  -19.3395   16.7703 C   0  0  0  0  0  0  0  0  0  0  0  0
  -19.2251  -33.3648   17.7759 C   0  0  0  0  0  0  0  0  0  0  0  0
  -20.6060  -27.8472   21.1700 C   0  0  0  0  0  0  0  0  0  0  0  0
  -19.2227  -29.0104   19.4375 C   0  0  0  0  0  0  0  0  0  0  0  0
  -19.1947  -29.8137   21.7990 C   0  0  0  0  0  0  0  0  0  0  0  0
  -22.8110  -34.4969   18.3550 C   0  0  0  0  0  0  0  0  0  0  0  0
  -28.3402  -20.3423   17.1918 C   0  0  0  0  0  0  0  0  0  0  0  0
  -29.3298  -28.0738   17.5408 C   0  0  0  0  0  0  0  0  0  1  0  0
  -21.2447  -30.2194   20.3760 C   0  0  1  0  0  0  0  0  0  0  0  0
  -20.5491  -33.4502   18.5191 C   0  0  2  0  0  0  0  0  0  0  0  0
  -20.0953  -29.2215   20.6931 C   0  0  0  0  0  0  0  0  0  0  0  0
  -28.1803  -15.2365   21.3415 N   0  0  0  0  0  0  0  0  0  0  0  0
  -29.4885  -15.5184   21.2176 N   0  0  0  0  0  0  0  0  0  0  0  0
  -23.5001  -30.1099   21.3885 N   0  0  0  0  0  0  0  0  0  0  0  0
  -29.5240  -19.1996   22.2330 N   0  0  0  0  0  0  0  0  0  0  0  0
  -31.5315  -14.6702   20.3707 N   0  0  0  0  0  0  0  0  0  0  0  0
  -28.5534  -11.4353   19.3403 N   0  0  0  0  0  0  0  0  0  0  0  0
  -29.2549  -20.3798   20.2088 N   0  0  0  0  0  0  0  0  0  0  0  0
  -24.5679  -28.6296   24.4542 N   0  0  0  0  0  0  0  0  0  0  0  0
  -20.7901  -31.5380   19.9480 N   0  0  0  0  0  0  0  0  0  0  0  0
  -21.4771  -34.3077   17.7290 N   0  3  0  0  0  0  0  0  0  0  0  0
  -30.7615  -12.0416   19.2158 O   0  0  0  0  0  0  0  0  0  0  0  0
  -30.4927  -25.7287   19.0174 O   0  0  0  0  0  0  0  0  0  0  0  0
  -24.3434  -27.7716   22.3011 O   0  0  0  0  0  0  0  0  0  0  0  0
  -21.6800  -30.9193   22.6002 O   0  0  0  0  0  0  0  0  0  0  0  0
  -21.8733  -31.5273   17.8976 O   0  0  0  0  0  0  0  0  0  0  0  0
  -30.1443  -21.4214   22.0812 O   0  0  0  0  0  0  0  0  0  0  0  0
  -23.1006  -11.4945   20.4797 O   0  0  0  0  0  0  0  0  0  0  0  0
  -28.0169  -28.6267   17.4577 O   0  0  0  0  0  0  0  0  0  1  0  0
  -22.8941   -6.1278   21.7284 F   0  0  0  0  0  0  0  0  0  0  0  0
  -21.5266  -10.5822   22.5613 F   0  0  0  0  0  0  0  0  0  0  0  0
  -29.8746  -22.9479   19.8235 S   0  0  0  0  0  0  0  0  0  0  0  0
  1  2  1  0  0  0  0
  1  5  2  0  0  0  0
  2  6  2  0  0  0  0
  3  8  2  0  0  0  0
  3 16  1  0  0  0  0
  4  9  1  0  0  0  0
  4 16  2  0  0  0  0
  5 18  1  0  0  0  0
  6 20  1  0  0  0  0
  7 10  2  0  0  0  0
  7 19  1  0  0  0  0
  8 23  1  0  0  0  0
  9 23  2  0  0  0  0
 10 24  1  0  0  0  0
 11 12  2  0  0  0  0
 11 25  1  0  0  0  0
 12 26  1  0  0  0  0
 13 21  1  0  0  0  0
 13 24  2  0  0  0  0
 14 22  1  0  0  0  0
 14 29  2  0  0  0  0
 15 26  2  0  0  0  0
 15 27  1  0  0  0  0
 16 28  1  0  0  0  0
 17 28  1  0  0  0  0
 17 30  2  0  0  0  0
 17 33  1  0  0  0  0
 18 20  2  0  0  0  0
 18 40  1  0  0  0  0
 19 21  2  0  0  0  0
 19 41  1  0  0  0  0
 20 49  1  0  0  0  0
 21 42  1  0  0  0  0
 22 31  2  0  0  0  0
 22 59  1  0  0  0  0
 23 80  1  0  0  0  0
 24 81  1  0  0  0  0
 25 27  2  0  0  0  0
 25 80  1  0  0  0  0
 26 82  1  0  0  0  0
 27 83  1  0  0  0  0
 28 64  2  0  0  0  0
 29 34  1  0  0  0  0
 29 84  1  0  0  0  0
 30 65  1  0  0  0  0
 30 68  1  0  0  0  0
 31 70  1  0  0  0  0
 31 84  1  0  0  0  0
 32 34  1  0  0  0  0
 32 35  2  0  0  0  0
 33 69  1  0  0  0  0
 33 74  2  0  0  0  0
 34 75  2  0  0  0  0
 35 52  1  0  0  0  0
 35 60  1  0  0  0  0
 36 50  1  0  0  0  0
 36 71  1  0  0  0  0
 36 76  2  0  0  0  0
 37 61  1  0  0  0  0
 37 66  1  0  0  0  0
 37 77  2  0  0  0  0
 38 62  1  0  0  0  0
 38 72  1  0  0  0  0
 38 78  2  0  0  0  0
 39 67  1  0  0  0  0
 39 70  1  0  0  0  0
 39 79  2  0  0  0  0
 40 43  1  0  0  0  0
 41 50  1  0  0  0  0
 42 66  1  0  0  0  0
 43 45  1  0  0  0  0
 44 46  1  0  0  0  0
 44 47  1  0  0  0  0
 45 49  1  0  0  0  0
 46 51  1  0  0  0  0
 47 67  1  0  0  0  0
 48 51  1  0  0  0  0
 48 67  1  0  0  0  0
 49 71  1  0  0  0  0
 50 66  1  0  0  0  0
 51 65  1  0  0  0  0
 53 59  1  0  0  0  0
 54 62  1  0  0  0  0
 55 63  1  0  0  0  0
 56 63  1  0  0  0  0
 57 63  1  0  0  0  0
 58 73  1  0  0  0  0
 60 81  1  0  0  0  0
 61 63  1  0  0  0  0
 61 72  1  0  0  0  0
 62 73  1  0  0  0  0
 64 65  1  0  0  0  0
M  CHG  1  73   1
M  ISO  4  39 100  60 101  70 100  81 101
M  END
> <Batch ID>
0123

> <Smiles>
CCc1cc(C(=O)C=C(C)[101CH2:1][101O:1]c2ccc3c(c2)CN(C(=O)C(NC(=O)C(C)NC)C(C)(C)C)C(C(=O)NC2CCCc4ccccc42)C3)sc1[100NH:0][100C:0](=O)N1CCCC(n2nc(-c3ccc(Oc4ccc(F)cc4F)cc3)c(C(N)=O)c2N)C1

> <Shape>
0.262

> <Color>
0.080

> <Negative vol penalty>
0.000

$$$$

  -OEChem-04052302033D

 85 93  0     1  0  0  0  0  0999 V2000
  -17.3378  -26.1496   23.3236 C   0  0  0  0  0  0  0  0  0  0  0  0
  -18.6228  -25.6172   23.2952 C   0  0  0  0  0  0  0  0  0  0  0  0
  -23.6332   -9.0890   19.9496 C   0  0  0  0  0  0  0  0  0  0  0  0
  -23.1983  -10.7870   21.6124 C   0  0  0  0  0  0  0  0  0  0  0  0
  -17.1033  -27.4287   22.8208 C   0  0  0  0  0  0  0  0  0  0  0  0
  -19.6738  -26.3632   22.7629 C   0  0  0  0  0  0  0  0  0  0  0  0
  -25.4988  -26.3870   24.6535 C   0  0  0  0  0  0  0  0  0  0  0  0
  -28.9208  -19.8152   19.4533 C   0  0  0  0  0  0  0  0  0  0  0  0
  -28.7584  -18.4390   19.2940 C   0  0  0  0  0  0  0  0  0  0  0  0
  -22.7549   -8.2244   20.6027 C   0  0  0  0  0  0  0  0  0  0  0  0
  -22.3200   -9.9223   22.2655 C   0  0  0  0  0  0  0  0  0  0  0  0
  -26.6387  -25.7331   24.1880 C   0  0  0  0  0  0  0  0  0  0  0  0
  -19.4113   -7.7780   20.8350 C   0  0  0  0  0  0  0  0  0  0  0  0
  -18.4990   -7.0689   20.0538 C   0  0  0  0  0  0  0  0  0  0  0  0
  -27.2349  -27.6924   22.9133 C   0  0  0  0  0  0  0  0  0  0  0  0
  -30.8650  -18.0607   20.4148 C   0  0  0  0  0  0  0  0  0  0  0  0
  -19.4365   -4.9883   20.8474 C   0  0  0  0  0  0  0  0  0  0  0  0
  -23.8550  -10.3703   20.4545 C   0  0  0  0  0  0  0  0  0  0  0  0
  -24.4504  -12.1827   18.7608 C   0  0  0  0  0  0  0  0  0  0  0  0
  -18.1537  -28.1946   22.2909 C   0  0  0  0  0  0  0  0  0  0  0  0
  -25.2122  -27.6969   24.2431 C   0  0  0  0  0  0  0  0  0  0  0  0
  -19.4528  -27.6532   22.2513 C   0  0  0  0  0  0  0  0  0  0  0  0
  -26.0920  -28.3617   23.3770 C   0  0  0  0  0  0  0  0  0  0  0  0
  -30.0554  -20.3141   20.0932 C   0  0  0  0  0  0  0  0  0  0  0  0
  -31.0274  -19.4369   20.5740 C   0  0  0  0  0  0  0  0  0  0  0  0
  -29.7305  -17.5617   19.7748 C   0  0  0  0  0  0  0  0  0  0  0  0
  -22.0983   -8.6410   21.7607 C   0  0  0  0  0  0  0  0  0  0  0  0
  -27.5055  -26.3847   23.3155 C   0  0  0  0  0  0  0  0  0  0  0  0
  -20.3363   -7.0923   21.6224 C   0  0  0  0  0  0  0  0  0  0  0  0
  -18.5115   -5.6741   20.0599 C   0  0  0  0  0  0  0  0  0  0  0  0
  -20.3489   -5.6975   21.6286 C   0  0  0  0  0  0  0  0  0  0  0  0
  -24.7626  -11.2637   19.7806 C   0  0  0  0  0  0  0  0  0  0  0  0
  -25.6486  -12.7838   18.4617 C   0  0  0  0  0  0  0  0  0  0  0  0
  -31.6496  -25.0625   21.1804 C   0  0  0  0  0  0  0  0  0  0  0  0
  -30.9033  -24.2346   21.9208 C   0  0  0  0  0  0  0  0  0  0  0  0
  -23.1900  -12.4676   18.1396 C   0  0  0  0  0  0  0  0  0  0  0  0
  -22.8407  -29.0764   22.6378 C   0  0  0  0  0  0  0  0  0  0  0  0
  -24.4197  -31.8012   23.4155 C   0  0  0  0  0  0  0  0  0  0  0  0
  -27.3604  -33.2973   24.2876 C   0  0  0  0  0  0  0  0  0  0  0  0
  -30.4341  -15.1567   20.0336 C   0  0  0  0  0  0  0  0  0  0  0  0
  -17.8428  -29.5537   21.7158 C   0  0  0  0  0  0  0  0  0  0  0  0
  -23.9925  -28.3980   24.7753 C   0  0  0  0  0  0  0  0  0  0  0  0
  -25.8402  -29.7753   22.9223 C   0  0  0  0  0  0  0  0  0  0  0  0
  -19.0789  -30.4258   21.5113 C   0  0  0  0  0  0  0  0  0  0  0  0
  -30.3672  -11.6010   19.8611 C   0  0  0  0  0  0  0  0  0  0  0  0
  -20.1893  -29.6277   20.8355 C   0  0  0  0  0  0  0  0  0  0  0  0
  -28.8774  -11.2719   19.7409 C   0  0  0  0  0  0  0  0  0  0  0  0
  -30.6118  -12.7942   20.7832 C   0  0  0  0  0  0  0  0  0  0  0  0
  -28.3547  -13.6727   20.3325 C   0  0  0  0  0  0  0  0  0  0  0  0
  -20.6234  -28.4413   21.7046 C   0  0  1  0  0  0  0  0  0  0  0  0
  -23.5293  -29.5485   23.8870 C   0  0  1  0  0  0  0  0  0  0  0  0
  -28.0536  -12.5184   19.3626 C   0  0  2  0  0  0  0  0  0  0  0  0
  -33.2763  -20.5069   20.2840 C   0  0  0  0  0  0  0  0  0  0  0  0
  -28.3462  -35.5427   24.8202 C   0  0  0  0  0  0  0  0  0  0  0  0
  -24.4021  -32.5100   20.4478 C   0  0  0  0  0  0  0  0  0  0  0  0
  -26.1759  -34.2138   20.9156 C   0  0  0  0  0  0  0  0  0  0  0  0
  -23.9308  -34.4285   21.9814 C   0  0  0  0  0  0  0  0  0  0  0  0
  -28.1233  -32.4442   27.0169 C   0  0  0  0  0  0  0  0  0  0  0  0
  -30.2091  -21.8059   20.2528 C   0  0  0  0  0  0  0  0  0  0  0  0
  -32.2492  -19.9482   21.2642 C   0  0  0  0  0  0  0  0  0  0  0  0
  -29.3247  -22.3459   21.3842 C   0  0  0  0  0  0  0  0  0  0  0  0
  -28.5483  -24.3291   22.7300 C   0  0  0  0  0  0  0  0  0  1  0  0
  -29.4737  -23.8657   21.5959 C   0  0  1  0  0  0  0  0  0  0  0  0
  -25.5125  -32.6232   22.7759 C   0  0  1  0  0  0  0  0  0  0  0  0
  -27.6993  -34.2883   25.3865 C   0  0  2  0  0  0  0  0  0  0  0  0
  -25.0093  -33.4166   21.5370 C   0  0  0  0  0  0  0  0  0  0  0  0
  -26.0577  -11.2763   20.1072 N   0  0  0  0  0  0  0  0  0  0  0  0
  -26.5698  -12.2104   19.2880 N   0  0  0  0  0  0  0  0  0  0  0  0
  -24.6311  -30.4160   23.4654 N   0  0  0  0  0  0  0  0  0  0  0  0
  -29.8015  -13.9389   20.3614 N   0  0  0  0  0  0  0  0  0  0  0  0
  -25.9936  -13.7415   17.5750 N   0  0  0  0  0  0  0  0  0  0  0  0
  -22.0591  -11.7585   18.5669 N   0  0  0  0  0  0  0  0  0  0  0  0
  -29.5649  -16.1636   19.6150 N   0  0  0  0  0  0  0  0  0  0  0  0
  -21.4791  -28.8903   22.7819 N   0  0  0  0  0  0  0  0  0  0  0  0
  -26.0679  -33.4586   23.8352 N   0  0  0  0  0  0  0  0  0  0  0  0
  -28.6410  -33.6747   26.3650 N   0  3  0  0  0  0  0  0  0  0  0  0
  -23.0732  -13.3139   17.2212 O   0  0  0  0  0  0  0  0  0  0  0  0
  -23.4961  -28.8958   21.6181 O   0  0  0  0  0  0  0  0  0  0  0  0
  -23.4187  -32.3679   23.8609 O   0  0  0  0  0  0  0  0  0  0  0  0
  -28.1632  -32.4658   23.8696 O   0  0  0  0  0  0  0  0  0  0  0  0
  -31.6595  -15.2878   20.0921 O   0  0  0  0  0  0  0  0  0  0  0  0
  -21.2410   -7.7977   22.3981 O   0  0  0  0  0  0  0  0  0  0  0  0
  -28.6185  -25.7485   22.8591 O   0  0  0  0  0  0  0  0  0  1  0  0
  -17.6343   -4.9933   19.3108 F   0  0  0  0  0  0  0  0  0  0  0  0
  -21.2343   -5.0332   22.3839 F   0  0  0  0  0  0  0  0  0  0  0  0
  1  2  1  0  0  0  0
  1  5  2  0  0  0  0
  2  6  2  0  0  0  0
  3 10  2  0  0  0  0
  3 18  1  0  0  0  0
  4 11  1  0  0  0  0
  4 18  2  0  0  0  0
  5 20  1  0  0  0  0
  6 22  1  0  0  0  0
  7 12  2  0  0  0  0
  7 21  1  0  0  0  0
  8  9  2  0  0  0  0
  8 24  1  0  0  0  0
  9 26  1  0  0  0  0
 10 27  1  0  0  0  0
 11 27  2  0  0  0  0
 12 28  1  0  0  0  0
 13 14  2  0  0  0  0
 13 29  1  0  0  0  0
 14 30  1  0  0  0  0
 15 23  1  0  0  0  0
 15 28  2  0  0  0  0
 16 25  1  0  0  0  0
 16 26  2  0  0  0  0
 17 30  2  0  0  0  0
 17 31  1  0  0  0  0
 18 32  1  0  0  0  0
 19 32  1  0  0  0  0
 19 33  2  0  0  0  0
 19 36  1  0  0  0  0
 20 22  2  0  0  0  0
 20 41  1  0  0  0  0
 21 23  2  0  0  0  0
 21 42  1  0  0  0  0
 22 50  1  0  0  0  0
 23 43  1  0  0  0  0
 24 25  2  0  0  0  0
 24 59  1  0  0  0  0
 25 60  1  0  0  0  0
 26 73  1  0  0  0  0
 27 82  1  0  0  0  0
 28 83  1  0  0  0  0
 29 31  2  0  0  0  0
 29 82  1  0  0  0  0
 30 84  1  0  0  0  0
 31 85  1  0  0  0  0
 32 67  2  0  0  0  0
 33 68  1  0  0  0  0
 33 71  1  0  0  0  0
 34 35  2  0  0  0  0
 35 63  1  0  0  0  0
 36 72  1  0  0  0  0
 36 77  2  0  0  0  0
 37 51  1  0  0  0  0
 37 74  1  0  0  0  0
 37 78  2  0  0  0  0
 38 64  1  0  0  0  0
 38 69  1  0  0  0  0
 38 79  2  0  0  0  0
 39 65  1  0  0  0  0
 39 75  1  0  0  0  0
 39 80  2  0  0  0  0
 40 70  1  0  0  0  0
 40 73  1  0  0  0  0
 40 81  2  0  0  0  0
 41 44  1  0  0  0  0
 42 51  1  0  0  0  0
 43 69  1  0  0  0  0
 44 46  1  0  0  0  0
 45 47  1  0  0  0  0
 45 48  1  0  0  0  0
 46 50  1  0  0  0  0
 47 52  1  0  0  0  0
 48 70  1  0  0  0  0
 49 52  1  0  0  0  0
 49 70  1  0  0  0  0
 50 74  1  0  0  0  0
 51 69  1  0  0  0  0
 52 68  1  0  0  0  0
 53 60  1  0  0  0  0
 54 65  1  0  0  0  0
 55 66  1  0  0  0  0
 56 66  1  0  0  0  0
 57 66  1  0  0  0  0
 58 76  1  0  0  0  0
 59 61  1  0  0  0  0
 61 63  1  0  0  0  0
 62 63  1  0  0  0  0
 62 83  1  0  0  0  0
 64 66  1  0  0  0  0
 64 75  1  0  0  0  0
 65 76  1  0  0  0  0
 67 68  1  0  0  0  0
M  CHG  1  76   1
M  ISO  4  40 100  62 101  73 100  83 101
M  END
> <Batch ID>
0123

> <Smiles>
C=CC(CCc1ccc([100NH:0][100C:0](=O)N2CCCC(n3nc(-c4ccc(Oc5ccc(F)cc5F)cc4)c(C(N)=O)c3N)C2)cc1CC)[101CH2:1][101O:1]c1ccc2c(c1)CN(C(=O)C(NC(=O)C(C)NC)C(C)(C)C)C(C(=O)NC1CCCc3ccccc31)C2

> <Shape>
0.274

> <Color>
0.111

> <Negative vol penalty>
0.000

$$$$

  -OEChem-04052302033D

 85 93  0     1  0  0  0  0  0999 V2000
  -27.7750  -34.3471   25.5878 C   0  0  0  0  0  0  0  0  0  0  0  0
  -27.9924  -33.0840   25.0468 C   0  0  0  0  0  0  0  0  0  0  0  0
  -24.1964   -9.7468   22.6442 C   0  0  0  0  0  0  0  0  0  0  0  0
  -23.4568  -12.0222   22.9801 C   0  0  0  0  0  0  0  0  0  0  0  0
  -26.4783  -34.7612   25.8896 C   0  0  0  0  0  0  0  0  0  0  0  0
  -26.9132  -32.2337   24.8083 C   0  0  0  0  0  0  0  0  0  0  0  0
  -27.1802  -29.9783   20.2821 C   0  0  0  0  0  0  0  0  0  0  0  0
  -23.5842   -9.3712   23.8399 C   0  0  0  0  0  0  0  0  0  0  0  0
  -22.8445  -11.6466   24.1758 C   0  0  0  0  0  0  0  0  0  0  0  0
  -28.0505  -28.8959   20.1605 C   0  0  0  0  0  0  0  0  0  0  0  0
  -20.4595   -8.6710   24.9257 C   0  0  0  0  0  0  0  0  0  0  0  0
  -19.7028   -7.4992   24.9264 C   0  0  0  0  0  0  0  0  0  0  0  0
  -26.1884  -27.3802   20.3937 C   0  0  0  0  0  0  0  0  0  0  0  0
  -28.1497  -19.8528   19.7645 C   0  0  0  0  0  0  0  0  0  0  0  0
  -30.4986  -19.6505   20.2925 C   0  0  0  0  0  0  0  0  0  0  0  0
  -21.1482   -6.5668   26.6230 C   0  0  0  0  0  0  0  0  0  0  0  0
  -24.1328  -11.0723   22.2144 C   0  0  0  0  0  0  0  0  0  0  0  0
  -24.1914  -11.4642   19.6943 C   0  0  0  0  0  0  0  0  0  0  0  0
  -25.3818  -33.9194   25.6457 C   0  0  0  0  0  0  0  0  0  0  0  0
  -25.8066  -29.7693   20.4717 C   0  0  0  0  0  0  0  0  0  0  0  0
  -25.6007  -32.6365   25.1084 C   0  0  0  0  0  0  0  0  0  0  0  0
  -25.3024  -28.4616   20.5149 C   0  0  0  0  0  0  0  0  0  0  0  0
  -28.0235  -18.4640   19.7939 C   0  0  0  0  0  0  0  0  0  0  0  0
  -29.3873  -20.4461   20.0137 C   0  0  0  0  0  0  0  0  0  0  0  0
  -29.1348  -17.6685   20.0727 C   0  0  0  0  0  0  0  0  0  0  0  0
  -22.9081  -10.3211   24.6057 C   0  0  0  0  0  0  0  0  0  0  0  0
  -27.5551  -27.5966   20.2191 C   0  0  0  0  0  0  0  0  0  0  0  0
  -21.5606   -8.7907   25.7736 C   0  0  0  0  0  0  0  0  0  0  0  0
  -20.0471   -6.4471   25.7750 C   0  0  0  0  0  0  0  0  0  0  0  0
  -30.3724  -18.2617   20.3220 C   0  0  0  0  0  0  0  0  0  0  0  0
  -21.9049   -7.7386   26.6223 C   0  0  0  0  0  0  0  0  0  0  0  0
  -24.7656  -11.4610   20.9796 C   0  0  0  0  0  0  0  0  0  0  0  0
  -25.1950  -11.9129   18.8710 C   0  0  0  0  0  0  0  0  0  0  0  0
  -22.8689  -11.0948   19.2816 C   0  0  0  0  0  0  0  0  0  0  0  0
  -23.7256  -30.4785   22.7674 C   0  0  0  0  0  0  0  0  0  0  0  0
  -28.8958  -24.1662   20.0470 C   0  0  0  0  0  0  0  0  0  0  0  0
  -21.5741  -29.3054   20.6420 C   0  0  0  0  0  0  0  0  0  0  0  0
  -20.9570  -27.2931   17.9557 C   0  0  0  0  0  0  0  0  0  0  0  0
  -30.0135  -15.3240   19.7936 C   0  0  0  0  0  0  0  0  0  0  0  0
  -24.0030  -34.3928   26.0322 C   0  0  0  0  0  0  0  0  0  0  0  0
  -24.8774  -30.9477   20.5744 C   0  0  0  0  0  0  0  0  0  0  0  0
  -23.8334  -28.1836   20.6966 C   0  0  0  0  0  0  0  0  0  0  0  0
  -22.8790  -33.5755   25.4007 C   0  0  0  0  0  0  0  0  0  0  0  0
  -29.9682  -12.0092   18.4948 C   0  0  0  0  0  0  0  0  0  0  0  0
  -23.1609  -32.0829   25.5404 C   0  0  0  0  0  0  0  0  0  0  0  0
  -28.5744  -11.4948   18.8623 C   0  0  0  0  0  0  0  0  0  0  0  0
  -30.5480  -12.9060   19.5872 C   0  0  0  0  0  0  0  0  0  0  0  0
  -28.2895  -13.5040   20.3687 C   0  0  0  0  0  0  0  0  0  0  0  0
  -24.4535  -31.6950   24.8122 C   0  0  1  0  0  0  0  0  0  0  0  0
  -23.5662  -30.6149   21.2796 C   0  0  1  0  0  0  0  0  0  0  0  0
  -27.6374  -12.6486   19.2702 C   0  0  2  0  0  0  0  0  0  0  0  0
  -26.5920  -17.2750   18.1136 C   0  0  0  0  0  0  0  0  0  0  0  0
  -19.0943  -26.5101   16.4676 C   0  0  0  0  0  0  0  0  0  0  0  0
  -20.5963  -27.4414   22.8509 C   0  0  0  0  0  0  0  0  0  0  0  0
  -19.4467  -26.0768   21.0946 C   0  0  0  0  0  0  0  0  0  0  0  0
  -18.7808  -28.4530   21.4599 C   0  0  0  0  0  0  0  0  0  0  0  0
  -22.2374  -28.4479   15.5503 C   0  0  0  0  0  0  0  0  0  0  0  0
  -26.6860  -17.8559   19.5209 C   0  0  0  0  0  0  0  0  0  0  0  0
  -28.4034  -22.7365   20.1208 C   0  0  0  0  0  0  0  0  0  0  0  0
  -27.8267  -25.2344   20.1706 C   0  0  0  0  0  0  0  0  0  1  0  0
  -20.9942  -27.9426   20.3496 C   0  0  1  0  0  0  0  0  0  0  0  0
  -20.1954  -27.5401   16.6659 C   0  0  2  0  0  0  0  0  0  0  0  0
  -19.9825  -27.4833   21.4373 C   0  0  0  0  0  0  0  0  0  0  0  0
  -26.0357  -11.8746   20.9780 N   0  0  0  0  0  0  0  0  0  0  0  0
  -26.2677  -12.1419   19.6815 N   0  0  0  0  0  0  0  0  0  0  0  0
  -22.9660  -29.3689   20.7985 N   0  0  0  0  0  0  0  0  0  0  0  0
  -29.6074  -13.9786   19.9186 N   0  0  0  0  0  0  0  0  0  0  0  0
  -25.2557  -12.1299   17.5399 N   0  0  0  0  0  0  0  0  0  0  0  0
  -21.9629  -10.6556   20.2566 N   0  0  0  0  0  0  0  0  0  0  0  0
  -29.0242  -16.2562   20.1051 N   0  0  0  0  0  0  0  0  0  0  0  0
  -29.5126  -21.8276   19.9843 N   0  0  0  0  0  0  0  0  0  0  0  0
  -24.2239  -31.6093   23.3859 N   0  0  0  0  0  0  0  0  0  0  0  0
  -20.4329  -28.0178   19.0051 N   0  0  0  0  0  0  0  0  0  0  0  0
  -21.1186  -27.4720   15.4980 N   0  3  0  0  0  0  0  0  0  0  0  0
  -22.5066  -11.1369   18.0814 O   0  0  0  0  0  0  0  0  0  0  0  0
  -23.4179  -29.4258   23.3141 O   0  0  0  0  0  0  0  0  0  0  0  0
  -30.0825  -24.4542   19.8966 O   0  0  0  0  0  0  0  0  0  0  0  0
  -20.8207  -30.2789   20.7214 O   0  0  0  0  0  0  0  0  0  0  0  0
  -21.9183  -26.5305   18.0260 O   0  0  0  0  0  0  0  0  0  0  0  0
  -31.1463  -15.6271   19.4103 O   0  0  0  0  0  0  0  0  0  0  0  0
  -22.3103   -9.9549   25.7723 O   0  0  0  0  0  0  0  0  0  0  0  0
  -28.4024  -26.5383   20.1013 O   0  0  0  0  0  0  0  0  0  1  0  0
  -19.3195   -5.3226   25.7767 F   0  0  0  0  0  0  0  0  0  0  0  0
  -31.4482  -17.5077   20.5901 F   0  0  0  0  0  0  0  0  0  0  0  0
  -22.9609   -7.8482   27.4400 F   0  0  0  0  0  0  0  0  0  0  0  0
  1  2  1  0  0  0  0
  1  5  2  0  0  0  0
  2  6  2  0  0  0  0
  3  8  2  0  0  0  0
  3 17  1  0  0  0  0
  4  9  1  0  0  0  0
  4 17  2  0  0  0  0
  5 19  1  0  0  0  0
  6 21  1  0  0  0  0
  7 10  2  0  0  0  0
  7 20  1  0  0  0  0
  8 26  1  0  0  0  0
  9 26  2  0  0  0  0
 10 27  1  0  0  0  0
 11 12  2  0  0  0  0
 11 28  1  0  0  0  0
 12 29  1  0  0  0  0
 13 22  1  0  0  0  0
 13 27  2  0  0  0  0
 14 23  1  0  0  0  0
 14 24  2  0  0  0  0
 15 24  1  0  0  0  0
 15 30  2  0  0  0  0
 16 29  2  0  0  0  0
 16 31  1  0  0  0  0
 17 32  1  0  0  0  0
 18 32  1  0  0  0  0
 18 33  2  0  0  0  0
 18 34  1  0  0  0  0
 19 21  2  0  0  0  0
 19 40  1  0  0  0  0
 20 22  2  0  0  0  0
 20 41  1  0  0  0  0
 21 49  1  0  0  0  0
 22 42  1  0  0  0  0
 23 25  2  0  0  0  0
 23 58  1  0  0  0  0
 24 71  1  0  0  0  0
 25 30  1  0  0  0  0
 25 70  1  0  0  0  0
 26 81  1  0  0  0  0
 27 82  1  0  0  0  0
 28 31  2  0  0  0  0
 28 81  1  0  0  0  0
 29 83  1  0  0  0  0
 30 84  1  0  0  0  0
 31 85  1  0  0  0  0
 32 64  2  0  0  0  0
 33 65  1  0  0  0  0
 33 68  1  0  0  0  0
 34 69  1  0  0  0  0
 34 75  2  0  0  0  0
 35 50  1  0  0  0  0
 35 72  1  0  0  0  0
 35 76  2  0  0  0  0
 36 59  1  0  0  0  0
 36 60  1  0  0  0  0
 36 77  2  0  0  0  0
 37 61  1  0  0  0  0
 37 66  1  0  0  0  0
 37 78  2  0  0  0  0
 38 62  1  0  0  0  0
 38 73  1  0  0  0  0
 38 79  2  0  0  0  0
 39 67  1  0  0  0  0
 39 70  1  0  0  0  0
 39 80  2  0  0  0  0
 40 43  1  0  0  0  0
 41 50  1  0  0  0  0
 42 66  1  0  0  0  0
 43 45  1  0  0  0  0
 44 46  1  0  0  0  0
 44 47  1  0  0  0  0
 45 49  1  0  0  0  0
 46 51  1  0  0  0  0
 47 67  1  0  0  0  0
 48 51  1  0  0  0  0
 48 67  1  0  0  0  0
 49 72  1  0  0  0  0
 50 66  1  0  0  0  0
 51 65  1  0  0  0  0
 52 58  1  0  0  0  0
 53 62  1  0  0  0  0
 54 63  1  0  0  0  0
 55 63  1  0  0  0  0
 56 63  1  0  0  0  0
 57 74  1  0  0  0  0
 59 71  1  0  0  0  0
 60 82  1  0  0  0  0
 61 63  1  0  0  0  0
 61 73  1  0  0  0  0
 62 74  1  0  0  0  0
 64 65  1  0  0  0  0
M  CHG  1  74   1
M  ISO  4  39 100  60 101  70 100  82 101
M  END
> <Batch ID>
0123

> <Smiles>
CCc1cc(NCC(=O)[101CH2:1][101O:1]c2ccc3c(c2)CN(C(=O)C(NC(=O)C(C)NC)C(C)(C)C)C(C(=O)NC2CCCc4ccccc42)C3)cc(F)c1[100NH:0][100C:0](=O)N1CCCC(n2nc(-c3ccc(Oc4ccc(F)cc4F)cc3)c(C(N)=O)c2N)C1

> <Shape>
0.318

> <Color>
0.103

> <Negative vol penalty>
0.000

$$$$

  -OEChem-04052302033D

 86 94  0     1  0  0  0  0  0999 V2000
  -27.0885  -32.4020   27.9085 C   0  0  0  0  0  0  0  0  0  0  0  0
  -27.0923  -31.5200   26.8326 C   0  0  0  0  0  0  0  0  0  0  0  0
  -22.7931  -11.0123   19.2472 C   0  0  0  0  0  0  0  0  0  0  0  0
  -23.2575   -9.7552   21.2574 C   0  0  0  0  0  0  0  0  0  0  0  0
  -28.0712  -18.3643   19.3105 C   0  0  0  0  0  0  0  0  0  0  0  0
  -25.8836  -32.7544   28.5152 C   0  0  0  0  0  0  0  0  0  0  0  0
  -25.8913  -30.9890   26.3635 C   0  0  0  0  0  0  0  0  0  0  0  0
  -25.5694  -31.0792   21.3105 C   0  0  0  0  0  0  0  0  0  0  0  0
  -27.3284  -19.5385   19.4331 C   0  0  0  0  0  0  0  0  0  0  0  0
  -21.7881  -10.1050   18.9119 C   0  0  0  0  0  0  0  0  0  0  0  0
  -22.2525   -8.8479   20.9222 C   0  0  0  0  0  0  0  0  0  0  0  0
  -26.2687  -30.0971   20.6103 C   0  0  0  0  0  0  0  0  0  0  0  0
  -21.8650   -6.2198   18.8308 C   0  0  0  0  0  0  0  0  0  0  0  0
  -22.1485   -4.8605   18.9634 C   0  0  0  0  0  0  0  0  0  0  0  0
  -24.2274  -28.8386   20.3486 C   0  0  0  0  0  0  0  0  0  0  0  0
  -29.3207  -20.8419   19.0218 C   0  0  0  0  0  0  0  0  0  0  0  0
  -20.3372   -4.6373   20.5467 C   0  0  0  0  0  0  0  0  0  0  0  0
  -23.5278  -10.8374   20.4199 C   0  0  0  0  0  0  0  0  0  0  0  0
  -29.4388  -18.4289   19.0436 C   0  0  0  0  0  0  0  0  0  0  0  0
  -24.4318  -12.9478   21.5319 C   0  0  0  0  0  0  0  0  0  0  0  0
  -24.6663  -32.2349   28.0471 C   0  0  0  0  0  0  0  0  0  0  0  0
  -24.1936  -30.9428   21.5448 C   0  0  0  0  0  0  0  0  0  0  0  0
  -24.6691  -31.3337   26.9654 C   0  0  0  0  0  0  0  0  0  0  0  0
  -23.5125  -29.8216   21.0498 C   0  0  0  0  0  0  0  0  0  0  0  0
  -30.0635  -19.6676   18.8992 C   0  0  0  0  0  0  0  0  0  0  0  0
  -27.9531  -20.7773   19.2887 C   0  0  0  0  0  0  0  0  0  0  0  0
  -21.5178   -9.0228   19.7494 C   0  0  0  0  0  0  0  0  0  0  0  0
  -25.5983  -28.9752   20.1317 C   0  0  0  0  0  0  0  0  0  0  0  0
  -20.8177   -6.7879   19.5561 C   0  0  0  0  0  0  0  0  0  0  0  0
  -21.3846   -4.0693   19.8214 C   0  0  0  0  0  0  0  0  0  0  0  0
  -20.0538   -5.9967   20.4140 C   0  0  0  0  0  0  0  0  0  0  0  0
  -24.5664  -11.7740   20.7665 C   0  0  0  0  0  0  0  0  0  0  0  0
  -25.6980  -13.4785   21.5723 C   0  0  0  0  0  0  0  0  0  0  0  0
  -30.1992  -17.1726   18.9199 C   0  0  0  0  0  0  0  0  0  0  0  0
  -23.2665  -13.5083   22.1511 C   0  0  0  0  0  0  0  0  0  0  0  0
  -22.3727  -30.7066   24.1395 C   0  0  0  0  0  0  0  0  0  0  0  0
  -19.9555  -30.8734   21.9827 C   0  0  0  0  0  0  0  0  0  0  0  0
  -27.6556  -23.2780   19.3001 C   0  0  0  0  0  0  0  0  0  0  0  0
  -18.9025  -30.4106   18.7696 C   0  0  0  0  0  0  0  0  0  0  0  0
  -30.4082  -14.8818   18.9269 C   0  0  0  0  0  0  0  0  0  0  0  0
  -23.3937  -32.6083   28.7653 C   0  0  0  0  0  0  0  0  0  0  0  0
  -23.4486  -32.0240   22.2787 C   0  0  0  0  0  0  0  0  0  0  0  0
  -22.0320  -29.6377   21.2571 C   0  0  0  0  0  0  0  0  0  0  0  0
  -22.1301  -32.2931   27.9691 C   0  0  0  0  0  0  0  0  0  0  0  0
  -30.1481  -11.5192   20.2038 C   0  0  0  0  0  0  0  0  0  0  0  0
  -22.2051  -30.8867   27.3832 C   0  0  0  0  0  0  0  0  0  0  0  0
  -28.6544  -11.3726   20.4933 C   0  0  0  0  0  0  0  0  0  0  0  0
  -30.3976  -12.3875   18.9744 C   0  0  0  0  0  0  0  0  0  0  0  0
  -28.2617  -13.5934   19.3386 C   0  0  0  0  0  0  0  0  0  0  0  0
  -23.3846  -30.7559   26.4120 C   0  0  1  0  0  0  0  0  0  0  0  0
  -22.1471  -31.5332   22.9052 C   0  0  1  0  0  0  0  0  0  0  0  0
  -27.9724  -12.7489   20.5913 C   0  0  1  0  0  0  0  0  0  0  0  0
  -32.3757  -19.5097   19.8561 C   0  0  0  0  0  0  0  0  0  0  0  0
  -16.8634  -30.5964   17.3188 C   0  0  0  0  0  0  0  0  0  0  0  0
  -18.8546  -28.3037   23.2052 C   0  0  0  0  0  0  0  0  0  0  0  0
  -17.4219  -28.0317   21.1701 C   0  0  0  0  0  0  0  0  0  0  0  0
  -17.1224  -30.0192   22.6476 C   0  0  0  0  0  0  0  0  0  0  0  0
  -20.1903  -32.4176   17.0167 C   0  0  0  0  0  0  0  0  0  0  0  0
  -31.5269  -19.7650   18.6145 C   0  0  0  0  0  0  0  0  0  0  0  0
  -26.5118  -24.2619   19.5041 C   0  0  0  0  0  0  0  0  0  0  0  0
  -26.9595  -25.7149   19.3901 C   0  0  0  0  0  0  0  0  0  0  0  0
  -25.7917  -26.6773   19.5502 C   0  0  0  0  0  0  0  0  0  1  0  0
  -19.1719  -29.8670   21.1751 C   0  0  1  0  0  0  0  0  0  0  0  0
  -18.1092  -31.3021   17.8313 C   0  0  2  0  0  0  0  0  0  0  0  0
  -18.1710  -29.0576   22.0471 C   0  0  0  0  0  0  0  0  0  0  0  0
  -25.8192  -11.5705   20.3505 N   0  0  0  0  0  0  0  0  0  0  0  0
  -29.6327  -16.0183   19.0548 N   0  0  0  0  0  0  0  0  0  0  0  0
  -26.4834  -12.6237   20.8562 N   0  0  0  0  0  0  0  0  0  0  0  0
  -21.3491  -30.7192   21.9861 N   0  0  0  0  0  0  0  0  0  0  0  0
  -29.7070  -13.6728   19.0893 N   0  0  0  0  0  0  0  0  0  0  0  0
  -26.2051  -14.5882   22.1500 N   0  0  0  0  0  0  0  0  0  0  0  0
  -22.0457  -12.8343   22.0108 N   0  0  0  0  0  0  0  0  0  0  0  0
  -27.1986  -21.9680   19.4132 N   0  0  0  0  0  0  0  0  0  0  0  0
  -23.0618  -31.3654   25.1397 N   0  0  0  0  0  0  0  0  0  0  0  0
  -18.5490  -30.6129   20.0870 N   0  0  0  0  0  0  0  0  0  0  0  0
  -18.9432  -31.6933   16.6599 N   0  3  0  0  0  0  0  0  0  0  0  0
  -23.3034  -14.5839   22.7956 O   0  0  0  0  0  0  0  0  0  0  0  0
  -21.9514  -29.5566   24.1818 O   0  0  0  0  0  0  0  0  0  0  0  0
  -19.3538  -31.7678   22.5824 O   0  0  0  0  0  0  0  0  0  0  0  0
  -28.8016  -23.6502   19.0709 O   0  0  0  0  0  0  0  0  0  0  0  0
  -19.7483  -29.6119   18.3733 O   0  0  0  0  0  0  0  0  0  0  0  0
  -31.6174  -14.8983   18.6846 O   0  0  0  0  0  0  0  0  0  0  0  0
  -20.5370   -8.1374   19.4227 O   0  0  0  0  0  0  0  0  0  0  0  0
  -26.2786  -28.0148   19.4486 O   0  0  0  0  0  0  0  0  0  1  0  0
  -21.6559   -2.7637   19.9475 F   0  0  0  0  0  0  0  0  0  0  0  0
  -19.0456   -6.5365   21.1125 F   0  0  0  0  0  0  0  0  0  0  0  0
  1  2  1  0  0  0  0
  1  6  2  0  0  0  0
  2  7  2  0  0  0  0
  3 10  2  0  0  0  0
  3 18  1  0  0  0  0
  4 11  1  0  0  0  0
  4 18  2  0  0  0  0
  5  9  2  0  0  0  0
  5 19  1  0  0  0  0
  6 21  1  0  0  0  0
  7 23  1  0  0  0  0
  8 12  2  0  0  0  0
  8 22  1  0  0  0  0
  9 26  1  0  0  0  0
 10 27  1  0  0  0  0
 11 27  2  0  0  0  0
 12 28  1  0  0  0  0
 13 14  2  0  0  0  0
 13 29  1  0  0  0  0
 14 30  1  0  0  0  0
 15 24  1  0  0  0  0
 15 28  2  0  0  0  0
 16 25  1  0  0  0  0
 16 26  2  0  0  0  0
 17 30  2  0  0  0  0
 17 31  1  0  0  0  0
 18 32  1  0  0  0  0
 19 25  2  0  0  0  0
 19 34  1  0  0  0  0
 20 32  1  0  0  0  0
 20 33  2  0  0  0  0
 20 35  1  0  0  0  0
 21 23  2  0  0  0  0
 21 41  1  0  0  0  0
 22 24  2  0  0  0  0
 22 42  1  0  0  0  0
 23 50  1  0  0  0  0
 24 43  1  0  0  0  0
 25 59  1  0  0  0  0
 26 73  1  0  0  0  0
 27 83  1  0  0  0  0
 28 84  1  0  0  0  0
 29 31  2  0  0  0  0
 29 83  1  0  0  0  0
 30 85  1  0  0  0  0
 31 86  1  0  0  0  0
 32 66  2  0  0  0  0
 33 68  1  0  0  0  0
 33 71  1  0  0  0  0
 34 67  2  0  0  0  0
 35 72  1  0  0  0  0
 35 77  2  0  0  0  0
 36 51  1  0  0  0  0
 36 74  1  0  0  0  0
 36 78  2  0  0  0  0
 37 63  1  0  0  0  0
 37 69  1  0  0  0  0
 37 79  2  0  0  0  0
 38 60  1  0  0  0  0
 38 73  1  0  0  0  0
 38 80  2  0  0  0  0
 39 64  1  0  0  0  0
 39 75  1  0  0  0  0
 39 81  2  0  0  0  0
 40 67  1  0  0  0  0
 40 70  1  0  0  0  0
 40 82  2  0  0  0  0
 41 44  1  0  0  0  0
 42 51  1  0  0  0  0
 43 69  1  0  0  0  0
 44 46  1  0  0  0  0
 45 47  1  0  0  0  0
 45 48  1  0  0  0  0
 46 50  1  0  0  0  0
 47 52  1  0  0  0  0
 48 70  1  0  0  0  0
 49 52  1  0  0  0  0
 49 70  1  0  0  0  0
 50 74  1  0  0  0  0
 51 69  1  0  0  0  0
 52 68  1  0  0  0  0
 53 59  1  0  0  0  0
 54 64  1  0  0  0  0
 55 65  1  0  0  0  0
 56 65  1  0  0  0  0
 57 65  1  0  0  0  0
 58 76  1  0  0  0  0
 60 61  1  0  0  0  0
 61 62  1  0  0  0  0
 62 84  1  0  0  0  0
 63 65  1  0  0  0  0
 63 75  1  0  0  0  0
 64 76  1  0  0  0  0
 66 68  1  0  0  0  0
M  CHG  1  76   1
M  ISO  4  40 100  62 101  67 100  84 101
M  END
> <Batch ID>
0123

> <Smiles>
CCc1cc(NC(=O)CC[101CH2:1][101O:1]c2ccc3c(c2)CN(C(=O)C(NC(=O)C(C)NC)C(C)(C)C)C(C(=O)NC2CCCc4ccccc42)C3)ccc1C=[100N:0][100C:0](=O)N1CCCC(n2nc(-c3ccc(Oc4ccc(F)cc4F)cc3)c(C(N)=O)c2N)C1

> <Shape>
0.279

> <Color>
0.106

> <Negative vol penalty>
0.000

$$$$

  -OEChem-04052302033D

 87 95  0     1  0  0  0  0  0999 V2000
  -36.2176  -20.9966   22.9997 C   0  0  0  0  0  0  0  0  0  0  0  0
  -35.0091  -21.4413   22.4732 C   0  0  0  0  0  0  0  0  0  0  0  0
  -23.1233   -9.9024   19.9183 C   0  0  0  0  0  0  0  0  0  0  0  0
  -23.8857   -9.8935   22.2109 C   0  0  0  0  0  0  0  0  0  0  0  0
  -36.2906  -20.5962   24.3332 C   0  0  0  0  0  0  0  0  0  0  0  0
  -33.8725  -21.4849   23.2798 C   0  0  0  0  0  0  0  0  0  0  0  0
  -31.2647  -25.7911   22.7310 C   0  0  0  0  0  0  0  0  0  0  0  0
  -30.4475  -19.0120   20.4403 C   0  0  0  0  0  0  0  0  0  0  0  0
  -29.7651  -20.1432   19.9928 C   0  0  0  0  0  0  0  0  0  0  0  0
  -22.4060   -8.7292   20.1523 C   0  0  0  0  0  0  0  0  0  0  0  0
  -23.1683   -8.7203   22.4449 C   0  0  0  0  0  0  0  0  0  0  0  0
  -30.4578  -25.9071   21.6000 C   0  0  0  0  0  0  0  0  0  0  0  0
  -19.9597   -7.8412   23.0388 C   0  0  0  0  0  0  0  0  0  0  0  0
  -19.2053   -7.7674   24.2096 C   0  0  0  0  0  0  0  0  0  0  0  0
  -28.0879  -19.8062   21.6988 C   0  0  0  0  0  0  0  0  0  0  0  0
  -28.5255  -25.3394   22.9279 C   0  0  0  0  0  0  0  0  0  0  0  0
  -20.4910   -5.8480   24.9169 C   0  0  0  0  0  0  0  0  0  0  0  0
  -23.8632  -10.4845   20.9476 C   0  0  0  0  0  0  0  0  0  0  0  0
  -28.7703  -18.6750   22.1463 C   0  0  0  0  0  0  0  0  0  0  0  0
  -24.1479  -13.0181   20.8637 C   0  0  0  0  0  0  0  0  0  0  0  0
  -35.1565  -20.6440   25.1591 C   0  0  0  0  0  0  0  0  0  0  0  0
  -30.7088  -25.4372   23.9688 C   0  0  0  0  0  0  0  0  0  0  0  0
  -33.9300  -21.0835   24.6253 C   0  0  0  0  0  0  0  0  0  0  0  0
  -29.3272  -25.2222   24.0736 C   0  0  0  0  0  0  0  0  0  0  0  0
  -29.9501  -18.2778   21.5170 C   0  0  0  0  0  0  0  0  0  0  0  0
  -28.5853  -20.5403   20.6220 C   0  0  0  0  0  0  0  0  0  0  0  0
  -22.4284   -8.1382   21.4155 C   0  0  0  0  0  0  0  0  0  0  0  0
  -29.0884  -25.6784   21.6977 C   0  0  0  0  0  0  0  0  0  0  0  0
  -20.9797   -6.9185   22.8069 C   0  0  0  0  0  0  0  0  0  0  0  0
  -19.4710   -6.7708   25.1487 C   0  0  0  0  0  0  0  0  0  0  0  0
  -21.2454   -5.9219   23.7460 C   0  0  0  0  0  0  0  0  0  0  0  0
  -24.6049  -11.6960   20.7064 C   0  0  0  0  0  0  0  0  0  0  0  0
  -25.2224  -13.7972   20.5103 C   0  0  0  0  0  0  0  0  0  0  0  0
  -28.2294  -17.9268   23.2731 C   0  0  0  0  0  0  0  0  0  0  0  0
  -22.8666  -13.4991   21.2912 C   0  0  0  0  0  0  0  0  0  0  0  0
  -31.0802  -23.0051   25.9814 C   0  0  0  0  0  0  0  0  0  0  0  0
  -29.1192  -24.7727   27.8661 C   0  0  0  0  0  0  0  0  0  0  0  0
  -28.2423  -22.5275   19.1134 C   0  0  0  0  0  0  0  0  0  0  0  0
  -26.7148  -27.1845   28.0889 C   0  0  0  0  0  0  0  0  0  0  0  0
  -30.6820  -14.9370   20.7083 C   0  0  0  0  0  0  0  0  0  0  0  0
  -35.2732  -20.1562   26.5815 C   0  0  0  0  0  0  0  0  0  0  0  0
  -31.5889  -25.3424   25.1848 C   0  0  0  0  0  0  0  0  0  0  0  0
  -28.6782  -24.8596   25.3835 C   0  0  0  0  0  0  0  0  0  0  0  0
  -34.1096  -20.5871   27.4706 C   0  0  0  0  0  0  0  0  0  0  0  0
  -29.5955  -12.5620   18.2885 C   0  0  0  0  0  0  0  0  0  0  0  0
  -32.7796  -20.3440   26.7643 C   0  0  0  0  0  0  0  0  0  0  0  0
  -28.1656  -12.2297   18.7184 C   0  0  0  0  0  0  0  0  0  0  0  0
  -30.5089  -12.7862   19.4916 C   0  0  0  0  0  0  0  0  0  0  0  0
  -28.5929  -13.4541   20.8903 C   0  0  0  0  0  0  0  0  0  0  0  0
  -32.6808  -21.1686   25.4752 C   0  0  1  0  0  0  0  0  0  0  0  0
  -30.9924  -24.4735   26.2878 C   0  0  1  0  0  0  0  0  0  0  0  0
  -27.6214  -13.2745   19.7111 C   0  0  2  0  0  0  0  0  0  0  0  0
  -28.0737  -18.6551   24.5753 C   0  0  0  0  0  0  0  0  0  0  0  0
  -25.2801  -28.3873   29.7599 C   0  0  0  0  0  0  0  0  0  0  0  0
  -27.3295  -22.3123   28.0970 C   0  0  0  0  0  0  0  0  0  0  0  0
  -25.5052  -23.8046   28.9415 C   0  0  0  0  0  0  0  0  0  0  0  0
  -27.6313  -23.5864   30.2277 C   0  0  0  0  0  0  0  0  0  0  0  0
  -27.8883  -29.8078   27.3818 C   0  0  0  0  0  0  0  0  0  0  0  0
  -30.7008  -17.0705   21.9761 C   0  0  0  0  0  0  0  0  0  0  0  0
  -27.2198  -23.6450   18.9600 C   0  0  0  0  0  0  0  0  0  0  0  0
  -27.8302  -24.9277   18.4059 C   0  0  0  0  0  0  0  0  0  0  0  0
  -28.8964  -25.4899   19.3348 C   0  0  0  0  0  0  0  0  0  1  0  0
  -27.6249  -24.8769   28.0536 C   0  0  1  0  0  0  0  0  0  0  0  0
  -26.5897  -28.4021   28.9868 C   0  0  2  0  0  0  0  0  0  0  0  0
  -27.0349  -23.6499   28.8047 C   0  0  0  0  0  0  0  0  0  0  0  0
  -25.8711  -11.6348   20.2856 N   0  0  0  0  0  0  0  0  0  0  0  0
  -26.2188  -12.9282   20.1754 N   0  0  0  0  0  0  0  0  0  0  0  0
  -29.5818  -24.7729   26.5426 N   0  0  0  0  0  0  0  0  0  0  0  0
  -29.9364  -13.7892   20.3928 N   0  0  0  0  0  0  0  0  0  0  0  0
  -25.4026  -15.1340   20.4563 N   0  0  0  0  0  0  0  0  0  0  0  0
  -21.8759  -12.5625   21.6162 N   0  0  0  0  0  0  0  0  0  0  0  0
  -27.8922  -21.6869   20.1663 N   0  0  0  0  0  0  0  0  0  0  0  0
  -32.3689  -22.5484   25.7805 N   0  0  0  0  0  0  0  0  0  0  0  0
  -27.3845  -26.1547   28.7153 N   0  0  0  0  0  0  0  0  0  0  0  0
  -30.0631  -15.8398   21.5642 N   0  0  0  0  0  0  0  0  0  0  0  0
  -26.6426  -29.6513   28.1759 N   0  3  0  0  0  0  0  0  0  0  0  0
  -27.8959  -16.7420   23.2366 O   0  0  0  0  0  0  0  0  0  0  0  0
  -22.6027  -14.7231   21.3665 O   0  0  0  0  0  0  0  0  0  0  0  0
  -30.0550  -22.3357   25.9325 O   0  0  0  0  0  0  0  0  0  0  0  0
  -29.8496  -24.7014   28.8576 O   0  0  0  0  0  0  0  0  0  0  0  0
  -29.2202  -22.4344   18.3791 O   0  0  0  0  0  0  0  0  0  0  0  0
  -26.2605  -27.1490   26.9475 O   0  0  0  0  0  0  0  0  0  0  0  0
  -31.8131  -15.1446   20.2563 O   0  0  0  0  0  0  0  0  0  0  0  0
  -21.7283   -6.9936   21.6443 O   0  0  0  0  0  0  0  0  0  0  0  0
  -28.2985  -25.7903   20.5952 O   0  0  0  0  0  0  0  0  0  1  0  0
  -18.7474   -6.7009   26.2738 F   0  0  0  0  0  0  0  0  0  0  0  0
  -22.2248   -5.0333   23.5293 F   0  0  0  0  0  0  0  0  0  0  0  0
  1  2  1  0  0  0  0
  1  5  2  0  0  0  0
  2  6  2  0  0  0  0
  3 10  2  0  0  0  0
  3 18  1  0  0  0  0
  4 11  1  0  0  0  0
  4 18  2  0  0  0  0
  5 21  1  0  0  0  0
  6 23  1  0  0  0  0
  7 12  2  0  0  0  0
  7 22  1  0  0  0  0
  8  9  2  0  0  0  0
  8 25  1  0  0  0  0
  9 26  1  0  0  0  0
 10 27  1  0  0  0  0
 11 27  2  0  0  0  0
 12 28  1  0  0  0  0
 13 14  2  0  0  0  0
 13 29  1  0  0  0  0
 14 30  1  0  0  0  0
 15 19  1  0  0  0  0
 15 26  2  0  0  0  0
 16 24  1  0  0  0  0
 16 28  2  0  0  0  0
 17 30  2  0  0  0  0
 17 31  1  0  0  0  0
 18 32  1  0  0  0  0
 19 25  2  0  0  0  0
 19 34  1  0  0  0  0
 20 32  1  0  0  0  0
 20 33  2  0  0  0  0
 20 35  1  0  0  0  0
 21 23  2  0  0  0  0
 21 41  1  0  0  0  0
 22 24  2  0  0  0  0
 22 42  1  0  0  0  0
 23 50  1  0  0  0  0
 24 43  1  0  0  0  0
 25 59  1  0  0  0  0
 26 72  1  0  0  0  0
 27 84  1  0  0  0  0
 28 85  1  0  0  0  0
 29 31  2  0  0  0  0
 29 84  1  0  0  0  0
 30 86  1  0  0  0  0
 31 87  1  0  0  0  0
 32 66  2  0  0  0  0
 33 67  1  0  0  0  0
 33 70  1  0  0  0  0
 34 53  1  0  0  0  0
 34 77  2  0  0  0  0
 35 71  1  0  0  0  0
 35 78  2  0  0  0  0
 36 51  1  0  0  0  0
 36 73  1  0  0  0  0
 36 79  2  0  0  0  0
 37 63  1  0  0  0  0
 37 68  1  0  0  0  0
 37 80  2  0  0  0  0
 38 60  1  0  0  0  0
 38 72  1  0  0  0  0
 38 81  2  0  0  0  0
 39 64  1  0  0  0  0
 39 74  1  0  0  0  0
 39 82  2  0  0  0  0
 40 69  1  0  0  0  0
 40 75  1  0  0  0  0
 40 83  2  0  0  0  0
 41 44  1  0  0  0  0
 42 51  1  0  0  0  0
 43 68  1  0  0  0  0
 44 46  1  0  0  0  0
 45 47  1  0  0  0  0
 45 48  1  0  0  0  0
 46 50  1  0  0  0  0
 47 52  1  0  0  0  0
 48 69  1  0  0  0  0
 49 52  1  0  0  0  0
 49 69  1  0  0  0  0
 50 73  1  0  0  0  0
 51 68  1  0  0  0  0
 52 67  1  0  0  0  0
 54 64  1  0  0  0  0
 55 65  1  0  0  0  0
 56 65  1  0  0  0  0
 57 65  1  0  0  0  0
 58 76  1  0  0  0  0
 59 75  1  0  0  0  0
 60 61  1  0  0  0  0
 61 62  1  0  0  0  0
 62 85  1  0  0  0  0
 63 65  1  0  0  0  0
 63 74  1  0  0  0  0
 64 76  1  0  0  0  0
 66 67  1  0  0  0  0
M  CHG  1  76   1
M  ISO  4  40 100  62 101  75 100  85 101
M  END
> <Batch ID>
0123

> <Smiles>
CNC(C)C(=O)NC(C(=O)N1Cc2cc([101O:1][101CH2:1]CCC(=O)Nc3ccc(C[100NH:0][100C:0](=O)N4CCCC(n5nc(-c6ccc(Oc7ccc(F)cc7F)cc6)c(C(N)=O)c5N)C4)c(C(C)=O)c3)ccc2CC1C(=O)NC1CCCc2ccccc21)C(C)(C)C

> <Shape>
0.225

> <Color>
0.206

> <Negative vol penalty>
0.000

$$$$

  -OEChem-04052302033D

 84 92  0     1  0  0  0  0  0999 V2000
  -20.6934  -27.7667   26.1078 C   0  0  0  0  0  0  0  0  0  0  0  0
  -20.7310  -26.3772   26.0487 C   0  0  0  0  0  0  0  0  0  0  0  0
  -29.3158  -23.6279   21.2485 C   0  0  0  0  0  0  0  0  0  0  0  0
  -27.2021  -23.4375   20.0940 C   0  0  0  0  0  0  0  0  0  0  0  0
  -20.3390  -28.5020   24.9774 C   0  0  0  0  0  0  0  0  0  0  0  0
  -20.4131  -25.7223   24.8594 C   0  0  0  0  0  0  0  0  0  0  0  0
  -22.8908  -20.5404   22.7345 C   0  0  0  0  0  0  0  0  0  0  0  0
  -29.3793  -24.9794   20.9095 C   0  0  0  0  0  0  0  0  0  0  0  0
  -27.2655  -24.7890   19.7550 C   0  0  0  0  0  0  0  0  0  0  0  0
  -22.4664  -19.2129   22.7735 C   0  0  0  0  0  0  0  0  0  0  0  0
  -26.6876  -27.7614   21.2555 C   0  0  0  0  0  0  0  0  0  0  0  0
  -25.5312  -28.5240   21.4194 C   0  0  0  0  0  0  0  0  0  0  0  0
  -24.7356  -13.9199   21.1826 C   0  0  0  0  0  0  0  0  0  0  0  0
  -24.2913  -11.5491   21.0456 C   0  0  0  0  0  0  0  0  0  0  0  0
  -21.5262  -19.4549   20.5652 C   0  0  0  0  0  0  0  0  0  0  0  0
  -26.1501  -12.5019   19.8315 C   0  0  0  0  0  0  0  0  0  0  0  0
  -25.5355  -29.0377   19.0586 C   0  0  0  0  0  0  0  0  0  0  0  0
  -28.2272  -22.8569   20.8407 C   0  0  0  0  0  0  0  0  0  0  0  0
  -23.9679  -12.8121   21.5416 C   0  0  0  0  0  0  0  0  0  0  0  0
  -27.5817  -20.8993   22.3436 C   0  0  0  0  0  0  0  0  0  0  0  0
  -20.0260  -27.8561   23.7710 C   0  0  0  0  0  0  0  0  0  0  0  0
  -22.6260  -21.3396   21.6131 C   0  0  0  0  0  0  0  0  0  0  0  0
  -20.0529  -26.4496   23.7122 C   0  0  0  0  0  0  0  0  0  0  0  0
  -21.9505  -20.7914   20.5134 C   0  0  0  0  0  0  0  0  0  0  0  0
  -25.8267  -13.7649   20.3275 C   0  0  0  0  0  0  0  0  0  0  0  0
  -28.3541  -25.5600   20.1628 C   0  0  0  0  0  0  0  0  0  0  0  0
  -21.7815  -18.6708   21.6900 C   0  0  0  0  0  0  0  0  0  0  0  0
  -27.2680  -27.6370   19.9932 C   0  0  0  0  0  0  0  0  0  0  0  0
  -24.9552  -29.1621   20.3209 C   0  0  0  0  0  0  0  0  0  0  0  0
  -25.3824  -11.3941   20.1905 C   0  0  0  0  0  0  0  0  0  0  0  0
  -26.6919  -28.2751   18.8948 C   0  0  0  0  0  0  0  0  0  0  0  0
  -28.1614  -21.4605   21.1900 C   0  0  0  0  0  0  0  0  0  0  0  0
  -27.7788  -19.5472   22.2038 C   0  0  0  0  0  0  0  0  0  0  0  0
  -22.8604  -12.2848   23.5996 C   0  0  0  0  0  0  0  0  0  0  0  0
  -21.6637  -13.8277   22.1556 C   0  0  0  0  0  0  0  0  0  0  0  0
  -21.4983  -14.5641   21.0450 C   0  0  0  0  0  0  0  0  0  0  0  0
  -22.8117  -12.9761   22.4465 C   0  0  0  0  0  0  0  0  0  0  0  0
  -26.9237  -21.5426   23.4431 C   0  0  0  0  0  0  0  0  0  0  0  0
  -20.9736  -24.0057   21.0983 C   0  0  0  0  0  0  0  0  0  0  0  0
  -22.2593  -23.7666   18.1298 C   0  0  0  0  0  0  0  0  0  0  0  0
  -23.6215  -21.7777   15.7141 C   0  0  0  0  0  0  0  0  0  0  0  0
  -27.7209  -14.9091   19.1237 C   0  0  0  0  0  0  0  0  0  0  0  0
  -19.6027  -28.6915   22.5888 C   0  0  0  0  0  0  0  0  0  0  0  0
  -23.1139  -22.7619   21.5756 C   0  0  0  0  0  0  0  0  0  0  0  0
  -21.6592  -21.6014   19.2774 C   0  0  0  0  0  0  0  0  0  0  0  0
  -19.6437  -27.9358   21.2631 C   0  0  0  0  0  0  0  0  0  0  0  0
  -30.6270  -16.9560   18.9182 C   0  0  0  0  0  0  0  0  0  0  0  0
  -18.9902  -26.5653   21.4094 C   0  0  0  0  0  0  0  0  0  0  0  0
  -30.1969  -18.2642   19.5858 C   0  0  0  0  0  0  0  0  0  0  0  0
  -29.4903  -16.3304   18.1117 C   0  0  0  0  0  0  0  0  0  0  0  0
  -27.8056  -17.4492   19.5186 C   0  0  0  0  0  0  0  0  0  0  0  0
  -19.7387  -25.7037   22.4335 C   0  0  1  0  0  0  0  0  0  0  0  0
  -22.3387  -23.6338   20.5926 C   0  0  1  0  0  0  0  0  0  0  0  0
  -28.8978  -18.0833   20.3953 C   0  0  2  0  0  0  0  0  0  0  0  0
  -24.5412  -21.8615   13.3808 C   0  0  0  0  0  0  0  0  0  0  0  0
  -19.4233  -23.9643   17.0217 C   0  0  0  0  0  0  0  0  0  0  0  0
  -20.2915  -23.1026   14.8372 C   0  0  0  0  0  0  0  0  0  0  0  0
  -21.1349  -25.2672   15.7461 C   0  0  0  0  0  0  0  0  0  0  0  0
  -26.2819  -20.8352   16.6045 C   0  0  0  0  0  0  0  0  0  0  0  0
  -20.2898  -15.4238   20.7917 C   0  0  0  0  0  0  0  0  0  0  0  0
  -20.6694  -16.8851   20.5807 C   0  0  0  0  0  0  0  0  0  1  0  0
  -21.8499  -23.1018   16.8378 C   0  0  1  0  0  0  0  0  0  0  0  0
  -24.8691  -21.9364   14.8639 C   0  0  2  0  0  0  0  0  0  0  0  0
  -20.6785  -23.8440   16.1346 C   0  0  0  0  0  0  0  0  0  0  0  0
  -28.6876  -20.5403   20.3774 N   0  0  0  0  0  0  0  0  0  0  0  0
  -28.4393  -19.3871   21.0213 N   0  0  0  0  0  0  0  0  0  0  0  0
  -22.1511  -22.9890   19.2914 N   0  0  0  0  0  0  0  0  0  0  0  0
  -28.2942  -16.1858   18.9443 N   0  0  0  0  0  0  0  0  0  0  0  0
  -27.4501  -18.4916   22.9784 N   0  0  0  0  0  0  0  0  0  0  0  0
  -26.8072  -22.9392   23.4275 N   0  0  0  0  0  0  0  0  0  0  0  0
  -26.6066  -14.8900   19.9618 N   0  0  0  0  0  0  0  0  0  0  0  0
  -20.9489  -25.1639   21.8516 N   0  0  0  0  0  0  0  0  0  0  0  0
  -23.0609  -22.9969   16.0310 N   0  0  0  0  0  0  0  0  0  0  0  0
  -25.8530  -20.8634   15.1825 N   0  3  0  0  0  0  0  0  0  0  0  0
  -26.4675  -20.8993   24.4186 O   0  0  0  0  0  0  0  0  0  0  0  0
  -20.0135  -23.2953   20.8240 O   0  0  0  0  0  0  0  0  0  0  0  0
  -22.6672  -24.9306   18.1082 O   0  0  0  0  0  0  0  0  0  0  0  0
  -23.1857  -20.6816   16.0593 O   0  0  0  0  0  0  0  0  0  0  0  0
  -28.2007  -13.9023   18.5961 O   0  0  0  0  0  0  0  0  0  0  0  0
  -28.4155  -26.8789   19.8320 O   0  0  0  0  0  0  0  0  0  0  0  0
  -21.3656  -17.3756   21.7257 O   0  0  0  0  0  0  0  0  0  1  0  0
  -23.8439  -29.8932   20.4782 F   0  0  0  0  0  0  0  0  0  0  0  0
  -25.6918  -10.1819   19.7118 F   0  0  0  0  0  0  0  0  0  0  0  0
  -27.2443  -28.1583   17.6794 F   0  0  0  0  0  0  0  0  0  0  0  0
  1  2  1  0  0  0  0
  1  5  2  0  0  0  0
  2  6  2  0  0  0  0
  3  8  2  0  0  0  0
  3 18  1  0  0  0  0
  4  9  1  0  0  0  0
  4 18  2  0  0  0  0
  5 21  1  0  0  0  0
  6 23  1  0  0  0  0
  7 10  2  0  0  0  0
  7 22  1  0  0  0  0
  8 26  1  0  0  0  0
  9 26  2  0  0  0  0
 10 27  1  0  0  0  0
 11 12  2  0  0  0  0
 11 28  1  0  0  0  0
 12 29  1  0  0  0  0
 13 19  2  0  0  0  0
 13 25  1  0  0  0  0
 14 19  1  0  0  0  0
 14 30  2  0  0  0  0
 15 24  1  0  0  0  0
 15 27  2  0  0  0  0
 16 25  2  0  0  0  0
 16 30  1  0  0  0  0
 17 29  2  0  0  0  0
 17 31  1  0  0  0  0
 18 32  1  0  0  0  0
 19 37  1  0  0  0  0
 20 32  1  0  0  0  0
 20 33  2  0  0  0  0
 20 38  1  0  0  0  0
 21 23  2  0  0  0  0
 21 43  1  0  0  0  0
 22 24  2  0  0  0  0
 22 44  1  0  0  0  0
 23 52  1  0  0  0  0
 24 45  1  0  0  0  0
 25 71  1  0  0  0  0
 26 80  1  0  0  0  0
 27 81  1  0  0  0  0
 28 31  2  0  0  0  0
 28 80  1  0  0  0  0
 29 82  1  0  0  0  0
 30 83  1  0  0  0  0
 31 84  1  0  0  0  0
 32 65  2  0  0  0  0
 33 66  1  0  0  0  0
 33 69  1  0  0  0  0
 34 37  2  0  0  0  0
 35 36  2  0  0  0  0
 35 37  1  0  0  0  0
 36 60  1  0  0  0  0
 38 70  1  0  0  0  0
 38 75  2  0  0  0  0
 39 53  1  0  0  0  0
 39 72  1  0  0  0  0
 39 76  2  0  0  0  0
 40 62  1  0  0  0  0
 40 67  1  0  0  0  0
 40 77  2  0  0  0  0
 41 63  1  0  0  0  0
 41 73  1  0  0  0  0
 41 78  2  0  0  0  0
 42 68  1  0  0  0  0
 42 71  1  0  0  0  0
 42 79  2  0  0  0  0
 43 46  1  0  0  0  0
 44 53  1  0  0  0  0
 45 67  1  0  0  0  0
 46 48  1  0  0  0  0
 47 49  1  0  0  0  0
 47 50  1  0  0  0  0
 48 52  1  0  0  0  0
 49 54  1  0  0  0  0
 50 68  1  0  0  0  0
 51 54  1  0  0  0  0
 51 68  1  0  0  0  0
 52 72  1  0  0  0  0
 53 67  1  0  0  0  0
 54 66  1  0  0  0  0
 55 63  1  0  0  0  0
 56 64  1  0  0  0  0
 57 64  1  0  0  0  0
 58 64  1  0  0  0  0
 59 74  1  0  0  0  0
 60 61  1  0  0  0  0
 61 81  1  0  0  0  0
 62 64  1  0  0  0  0
 62 73  1  0  0  0  0
 63 74  1  0  0  0  0
 65 66  1  0  0  0  0
M  CHG  1  74   1
M  ISO  4  42 100  61 101  71 100  81 101
M  END
> <Batch ID>
0123

> <Smiles>
C=C(C=CC[101CH2:1][101O:1]c1ccc2c(c1)CN(C(=O)C(NC(=O)C(C)NC)C(C)(C)C)C(C(=O)NC1CCCc3ccccc31)C2)c1cc(F)cc([100NH:0][100C:0](=O)N2CCCC(n3nc(-c4ccc(Oc5ccc(F)cc5F)cc4)c(C(N)=O)c3N)C2)c1

> <Shape>
0.190

> <Color>
0.086

> <Negative vol penalty>
0.000

$$$$

  -OEChem-04052302033D

 87 96  0     1  0  0  0  0  0999 V2000
  -29.3625  -35.7849   23.6606 C   0  0  0  0  0  0  0  0  0  0  0  0
  -29.3497  -34.4096   23.4516 C   0  0  0  0  0  0  0  0  0  0  0  0
  -24.3965   -8.6353   21.4038 C   0  0  0  0  0  0  0  0  0  0  0  0
  -24.3243  -10.2756   23.1761 C   0  0  0  0  0  0  0  0  0  0  0  0
  -29.2802  -20.2417   19.5253 C   0  0  0  0  0  0  0  0  0  0  0  0
  -28.1945  -36.4410   24.0472 C   0  0  0  0  0  0  0  0  0  0  0  0
  -28.1691  -33.6893   23.6302 C   0  0  0  0  0  0  0  0  0  0  0  0
  -27.3349  -30.3702   19.8975 C   0  0  0  0  0  0  0  0  0  0  0  0
  -29.3220  -18.8547   19.3839 C   0  0  0  0  0  0  0  0  0  0  0  0
  -24.0339   -7.6395   22.3106 C   0  0  0  0  0  0  0  0  0  0  0  0
  -23.9616   -9.2798   24.0830 C   0  0  0  0  0  0  0  0  0  0  0  0
  -28.0583  -29.1789   19.9313 C   0  0  0  0  0  0  0  0  0  0  0  0
  -21.2088   -6.5494   23.8152 C   0  0  0  0  0  0  0  0  0  0  0  0
  -20.2220   -5.6446   23.4240 C   0  0  0  0  0  0  0  0  0  0  0  0
  -26.8717  -20.1877   19.3424 C   0  0  0  0  0  0  0  0  0  0  0  0
  -26.1422  -28.0489   20.8645 C   0  0  0  0  0  0  0  0  0  0  0  0
  -21.7851   -3.8224   23.6954 C   0  0  0  0  0  0  0  0  0  0  0  0
  -24.5418   -9.9534   21.8365 C   0  0  0  0  0  0  0  0  0  0  0  0
  -28.0550  -20.9082   19.5046 C   0  0  0  0  0  0  0  0  0  0  0  0
  -24.0554  -11.7820   20.1256 C   0  0  0  0  0  0  0  0  0  0  0  0
  -26.9968  -35.7299   24.2212 C   0  0  0  0  0  0  0  0  0  0  0  0
  -26.0110  -30.4123   20.3579 C   0  0  0  0  0  0  0  0  0  0  0  0
  -26.9844  -34.3363   24.0207 C   0  0  0  0  0  0  0  0  0  0  0  0
  -25.4033  -29.2414   20.8331 C   0  0  0  0  0  0  0  0  0  0  0  0
  -26.9136  -18.8006   19.2009 C   0  0  0  0  0  0  0  0  0  0  0  0
  -28.1388  -18.1341   19.2217 C   0  0  0  0  0  0  0  0  0  0  0  0
  -23.8164   -7.9617   23.6502 C   0  0  0  0  0  0  0  0  0  0  0  0
  -27.4630  -28.0186   20.4176 C   0  0  0  0  0  0  0  0  0  0  0  0
  -22.4839   -6.0908   24.1464 C   0  0  0  0  0  0  0  0  0  0  0  0
  -20.5101   -4.2811   23.3642 C   0  0  0  0  0  0  0  0  0  0  0  0
  -22.7720   -4.7273   24.0866 C   0  0  0  0  0  0  0  0  0  0  0  0
  -24.9169  -10.9825   20.9004 C   0  0  0  0  0  0  0  0  0  0  0  0
  -24.8962  -12.5964   19.4072 C   0  0  0  0  0  0  0  0  0  0  0  0
  -28.0105  -22.3736   19.6559 C   0  0  0  0  0  0  0  0  0  0  0  0
  -22.6231  -11.7879   20.0611 C   0  0  0  0  0  0  0  0  0  0  0  0
  -24.4935  -31.9559   22.6856 C   0  0  0  0  0  0  0  0  0  0  0  0
  -21.8681  -30.6122   21.3351 C   0  0  0  0  0  0  0  0  0  0  0  0
  -20.5520  -28.1070   19.4276 C   0  0  0  0  0  0  0  0  0  0  0  0
  -29.3458  -15.9275   19.0792 C   0  0  0  0  0  0  0  0  0  0  0  0
  -25.7708  -36.4754   24.6857 C   0  0  0  0  0  0  0  0  0  0  0  0
  -25.2355  -31.6993   20.2899 C   0  0  0  0  0  0  0  0  0  0  0  0
  -23.9781  -29.2290   21.3201 C   0  0  0  0  0  0  0  0  0  0  0  0
  -24.4731  -35.6958   24.4897 C   0  0  0  0  0  0  0  0  0  0  0  0
  -29.9176  -12.4250   18.7924 C   0  0  0  0  0  0  0  0  0  0  0  0
  -28.4585  -23.8396   16.3753 C   0  0  0  0  0  0  0  0  0  0  0  0
  -24.6341  -34.2597   24.9780 C   0  0  0  0  0  0  0  0  0  0  0  0
  -28.5967  -11.8032   19.2515 C   0  0  0  0  0  0  0  0  0  0  0  0
  -27.7455  -24.9521   17.1369 C   0  0  0  0  0  0  0  0  0  0  0  0
  -28.1925  -22.5973   17.2160 C   0  0  0  0  0  0  0  0  0  0  0  0
  -30.2645  -13.6771   19.5958 C   0  0  0  0  0  0  0  0  0  0  0  0
  -27.8869  -14.0739   20.1043 C   0  0  0  0  0  0  0  0  0  0  0  0
  -25.7175  -33.5240   24.1802 C   0  0  1  0  0  0  0  0  0  0  0  0
  -24.0611  -31.7414   21.2627 C   0  0  1  0  0  0  0  0  0  0  0  0
  -27.4628  -12.8467   19.2809 C   0  0  2  0  0  0  0  0  0  0  0  0
  -27.9916  -24.6144   18.6104 C   0  0  2  0  0  0  0  0  0  0  0  0
  -25.6306  -18.0545   19.0280 C   0  0  0  0  0  0  0  0  0  0  0  0
  -18.3695  -27.2536   18.5298 C   0  0  0  0  0  0  0  0  0  0  0  0
  -21.1670  -29.5110   24.0930 C   0  0  0  0  0  0  0  0  0  0  0  0
  -19.5735  -27.9325   22.9808 C   0  0  0  0  0  0  0  0  0  0  0  0
  -19.2196  -30.3949   22.7966 C   0  0  0  0  0  0  0  0  0  0  0  0
  -21.4430  -28.4368   16.6247 C   0  0  0  0  0  0  0  0  0  0  0  0
  -29.2948  -25.1899   19.1445 C   0  0  0  0  0  0  0  0  0  0  0  0
  -29.1724  -26.6737   19.4559 C   0  0  0  0  0  0  0  0  0  1  0  0
  -21.1159  -29.3163   21.5190 C   0  0  1  0  0  0  0  0  0  0  0  0
  -19.5807  -28.1332   18.2612 C   0  0  2  0  0  0  0  0  0  0  0  0
  -20.2965  -29.2890   22.8401 C   0  0  0  0  0  0  0  0  0  0  0  0
  -26.2062  -11.2634   20.6935 N   0  0  0  0  0  0  0  0  0  0  0  0
  -26.1610  -12.2486   19.7805 N   0  0  0  0  0  0  0  0  0  0  0  0
  -28.0757  -23.1396   18.5807 N   0  0  0  0  0  0  0  0  0  0  0  0
  -23.2635  -30.5136   21.2393 N   0  0  0  0  0  0  0  0  0  0  0  0
  -29.1457  -14.6220   19.5755 N   0  0  0  0  0  0  0  0  0  0  0  0
  -24.6697  -13.5690   18.4988 N   0  0  0  0  0  0  0  0  0  0  0  0
  -21.9142  -10.8858   20.8661 N   0  0  0  0  0  0  0  0  0  0  0  0
  -28.2025  -16.7258   19.0789 N   0  0  0  0  0  0  0  0  0  0  0  0
  -25.2075  -33.1218   22.8870 N   0  0  0  0  0  0  0  0  0  0  0  0
  -20.3133  -29.1357   20.3142 N   0  0  0  0  0  0  0  0  0  0  0  0
  -27.9036  -22.9020   20.8715 N   0  3  0  0  0  0  0  0  0  0  0  0
  -20.2481  -27.6477   17.0203 N   0  3  0  0  0  0  0  0  0  0  0  0
  -21.9910  -12.5588   19.2996 O   0  0  0  0  0  0  0  0  0  0  0  0
  -24.1998  -31.1260   23.5380 O   0  0  0  0  0  0  0  0  0  0  0  0
  -21.2403  -31.6720   21.2713 O   0  0  0  0  0  0  0  0  0  0  0  0
  -21.4319  -27.2567   19.5427 O   0  0  0  0  0  0  0  0  0  0  0  0
  -30.4439  -16.3006   18.6584 O   0  0  0  0  0  0  0  0  0  0  0  0
  -23.4623   -6.9903   24.5354 O   0  0  0  0  0  0  0  0  0  0  0  0
  -28.1670  -26.8546   20.4523 O   0  0  0  0  0  0  0  0  0  1  0  0
  -19.5619   -3.4121   22.9900 F   0  0  0  0  0  0  0  0  0  0  0  0
  -23.9947   -4.2806   24.4048 F   0  0  0  0  0  0  0  0  0  0  0  0
  1  2  1  0  0  0  0
  1  6  2  0  0  0  0
  2  7  2  0  0  0  0
  3 10  2  0  0  0  0
  3 18  1  0  0  0  0
  4 11  1  0  0  0  0
  4 18  2  0  0  0  0
  5  9  2  0  0  0  0
  5 19  1  0  0  0  0
  6 21  1  0  0  0  0
  7 23  1  0  0  0  0
  8 12  2  0  0  0  0
  8 22  1  0  0  0  0
  9 26  1  0  0  0  0
 10 27  1  0  0  0  0
 11 27  2  0  0  0  0
 12 28  1  0  0  0  0
 13 14  2  0  0  0  0
 13 29  1  0  0  0  0
 14 30  1  0  0  0  0
 15 19  2  0  0  0  0
 15 25  1  0  0  0  0
 16 24  1  0  0  0  0
 16 28  2  0  0  0  0
 17 30  2  0  0  0  0
 17 31  1  0  0  0  0
 18 32  1  0  0  0  0
 19 34  1  0  0  0  0
 20 32  1  0  0  0  0
 20 33  2  0  0  0  0
 20 35  1  0  0  0  0
 21 23  2  0  0  0  0
 21 40  1  0  0  0  0
 22 24  2  0  0  0  0
 22 41  1  0  0  0  0
 23 52  1  0  0  0  0
 24 42  1  0  0  0  0
 25 26  2  0  0  0  0
 25 56  1  0  0  0  0
 26 74  1  0  0  0  0
 27 84  1  0  0  0  0
 28 85  1  0  0  0  0
 29 31  2  0  0  0  0
 29 84  1  0  0  0  0
 30 86  1  0  0  0  0
 31 87  1  0  0  0  0
 32 67  2  0  0  0  0
 33 68  1  0  0  0  0
 33 72  1  0  0  0  0
 34 69  1  0  0  0  0
 34 77  2  0  0  0  0
 35 73  1  0  0  0  0
 35 79  2  0  0  0  0
 36 53  1  0  0  0  0
 36 75  1  0  0  0  0
 36 80  2  0  0  0  0
 37 64  1  0  0  0  0
 37 70  1  0  0  0  0
 37 81  2  0  0  0  0
 38 65  1  0  0  0  0
 38 76  1  0  0  0  0
 38 82  2  0  0  0  0
 39 71  1  0  0  0  0
 39 74  1  0  0  0  0
 39 83  2  0  0  0  0
 40 43  1  0  0  0  0
 41 53  1  0  0  0  0
 42 70  1  0  0  0  0
 43 46  1  0  0  0  0
 44 47  1  0  0  0  0
 44 50  1  0  0  0  0
 45 48  1  0  0  0  0
 45 49  1  0  0  0  0
 46 52  1  0  0  0  0
 47 54  1  0  0  0  0
 48 55  1  0  0  0  0
 49 69  1  0  0  0  0
 50 71  1  0  0  0  0
 51 54  1  0  0  0  0
 51 71  1  0  0  0  0
 52 75  1  0  0  0  0
 53 70  1  0  0  0  0
 54 68  1  0  0  0  0
 55 62  1  0  0  0  0
 55 69  1  0  0  0  0
 57 65  1  0  0  0  0
 58 66  1  0  0  0  0
 59 66  1  0  0  0  0
 60 66  1  0  0  0  0
 61 78  1  0  0  0  0
 62 63  1  0  0  0  0
 63 85  1  0  0  0  0
 64 66  1  0  0  0  0
 64 76  1  0  0  0  0
 65 78  1  0  0  0  0
 67 68  1  0  0  0  0
M  CHG  2  77   1  78   1
M  ISO  4  39 100  63 101  74 100  85 101
M  END
> <Batch ID>
0123

> <Smiles>
CNC(C)C(=O)NC(C(=O)N1Cc2cc([101O:1][101CH2:1]CC3CCCN3C(=N)c3ccc([100NH:0][100C:0](=O)N4CCCC(n5nc(-c6ccc(Oc7ccc(F)cc7F)cc6)c(C(N)=O)c5N)C4)c(C)c3)ccc2CC1C(=O)NC1CCCc2ccccc21)C(C)(C)C

> <Shape>
0.344

> <Color>
0.099

> <Negative vol penalty>
0.000

$$$$

  -OEChem-04052302033D

 85 93  0     1  0  0  0  0  0999 V2000
  -28.3806  -36.3711   22.8297 C   0  0  0  0  0  0  0  0  0  0  0  0
  -28.6488  -35.0097   22.7291 C   0  0  0  0  0  0  0  0  0  0  0  0
  -24.0578   -9.7824   22.2554 C   0  0  0  0  0  0  0  0  0  0  0  0
  -24.6349  -11.4191   23.9362 C   0  0  0  0  0  0  0  0  0  0  0  0
  -30.6836  -20.1546   19.0071 C   0  0  0  0  0  0  0  0  0  0  0  0
  -27.1285  -36.8035   23.2645 C   0  0  0  0  0  0  0  0  0  0  0  0
  -27.6653  -34.0798   23.0645 C   0  0  0  0  0  0  0  0  0  0  0  0
  -27.3085  -30.3252   19.6850 C   0  0  0  0  0  0  0  0  0  0  0  0
  -30.4177  -18.7879   18.9242 C   0  0  0  0  0  0  0  0  0  0  0  0
  -23.6828   -8.8865   23.2565 C   0  0  0  0  0  0  0  0  0  0  0  0
  -24.2599  -10.5232   24.9374 C   0  0  0  0  0  0  0  0  0  0  0  0
  -28.2712  -29.3187   19.7475 C   0  0  0  0  0  0  0  0  0  0  0  0
  -21.0281   -8.3938   25.2918 C   0  0  0  0  0  0  0  0  0  0  0  0
  -19.8293   -7.7004   25.1255 C   0  0  0  0  0  0  0  0  0  0  0  0
  -28.3226  -20.5985   19.2638 C   0  0  0  0  0  0  0  0  0  0  0  0
  -26.7107  -27.9077   20.9278 C   0  0  0  0  0  0  0  0  0  0  0  0
  -21.0314   -5.6058   25.1933 C   0  0  0  0  0  0  0  0  0  0  0  0
  -24.5339  -11.0487   22.5952 C   0  0  0  0  0  0  0  0  0  0  0  0
  -29.6361  -21.0599   19.1769 C   0  0  0  0  0  0  0  0  0  0  0  0
  -28.0567  -19.2317   19.1808 C   0  0  0  0  0  0  0  0  0  0  0  0
  -24.1039  -12.9230   20.9190 C   0  0  0  0  0  0  0  0  0  0  0  0
  -26.1259  -35.8785   23.5961 C   0  0  0  0  0  0  0  0  0  0  0  0
  -26.0411  -30.1343   20.2540 C   0  0  0  0  0  0  0  0  0  0  0  0
  -26.3990  -34.5003   23.5054 C   0  0  0  0  0  0  0  0  0  0  0  0
  -25.7328  -28.9124   20.8690 C   0  0  0  0  0  0  0  0  0  0  0  0
  -29.1042  -18.3264   19.0110 C   0  0  0  0  0  0  0  0  0  0  0  0
  -23.7838   -9.2569   24.5975 C   0  0  0  0  0  0  0  0  0  0  0  0
  -27.9733  -28.1108   20.3715 C   0  0  0  0  0  0  0  0  0  0  0  0
  -22.2286   -7.6932   25.4088 C   0  0  0  0  0  0  0  0  0  0  0  0
  -19.8309   -6.3064   25.0762 C   0  0  0  0  0  0  0  0  0  0  0  0
  -22.2302   -6.2992   25.3596 C   0  0  0  0  0  0  0  0  0  0  0  0
  -24.9219  -11.9745   21.5615 C   0  0  0  0  0  0  0  0  0  0  0  0
  -24.9392  -13.5475   20.0252 C   0  0  0  0  0  0  0  0  0  0  0  0
  -25.9819  -18.6937   18.1304 C   0  0  0  0  0  0  0  0  0  0  0  0
  -29.9181  -22.5036   19.2657 C   0  0  0  0  0  0  0  0  0  0  0  0
  -29.0856  -23.4105   19.7958 C   0  0  0  0  0  0  0  0  0  0  0  0
  -26.6713  -18.7866   19.2746 C   0  0  0  0  0  0  0  0  0  0  0  0
  -22.7133  -13.2137   21.1127 C   0  0  0  0  0  0  0  0  0  0  0  0
  -29.4623  -24.8536   19.8289 C   0  0  0  0  0  0  0  0  0  0  0  0
  -24.3912  -31.5400   22.5789 C   0  0  0  0  0  0  0  0  0  0  0  0
  -22.0288  -29.5597   21.5689 C   0  0  0  0  0  0  0  0  0  0  0  0
  -21.1530  -26.6684   19.9815 C   0  0  0  0  0  0  0  0  0  0  0  0
  -29.8120  -15.9225   18.7534 C   0  0  0  0  0  0  0  0  0  0  0  0
  -24.8034  -36.3933   24.1065 C   0  0  0  0  0  0  0  0  0  0  0  0
  -25.0049  -31.2199   20.1547 C   0  0  0  0  0  0  0  0  0  0  0  0
  -24.3803  -28.6499   21.4774 C   0  0  0  0  0  0  0  0  0  0  0  0
  -23.6928  -35.3462   24.0845 C   0  0  0  0  0  0  0  0  0  0  0  0
  -29.6294  -12.3739   18.5264 C   0  0  0  0  0  0  0  0  0  0  0  0
  -24.1912  -34.0271   24.6662 C   0  0  0  0  0  0  0  0  0  0  0  0
  -28.3211  -12.0317   19.2429 C   0  0  0  0  0  0  0  0  0  0  0  0
  -30.3555  -13.5386   19.1972 C   0  0  0  0  0  0  0  0  0  0  0  0
  -28.2362  -14.4053   20.1064 C   0  0  0  0  0  0  0  0  0  0  0  0
  -25.3499  -33.4611   23.8364 C   0  0  1  0  0  0  0  0  0  0  0  0
  -23.9183  -31.1081   21.2197 C   0  0  1  0  0  0  0  0  0  0  0  0
  -27.4369  -13.2804   19.4286 C   0  0  2  0  0  0  0  0  0  0  0  0
  -26.0151  -18.4514   20.5831 C   0  0  0  0  0  0  0  0  0  0  0  0
  -19.1481  -25.3000   19.3451 C   0  0  0  0  0  0  0  0  0  0  0  0
  -21.7710  -28.6002   24.4539 C   0  0  0  0  0  0  0  0  0  0  0  0
  -20.4806  -26.6280   23.6092 C   0  0  0  0  0  0  0  0  0  0  0  0
  -19.5950  -28.9348   23.2673 C   0  0  0  0  0  0  0  0  0  0  0  0
  -21.7583  -26.9121   17.0948 C   0  0  0  0  0  0  0  0  0  0  0  0
  -28.4399  -25.7802   20.4524 C   0  0  0  0  0  0  0  0  0  1  0  0
  -21.5865  -28.1589   21.9167 C   0  0  1  0  0  0  0  0  0  0  0  0
  -20.1211  -26.3828   18.9054 C   0  0  2  0  0  0  0  0  0  0  0  0
  -20.8845  -28.0858   23.3021 C   0  0  0  0  0  0  0  0  0  0  0  0
  -26.1802  -11.9912   21.1139 N   0  0  0  0  0  0  0  0  0  0  0  0
  -26.1591  -12.9578   20.1805 N   0  0  0  0  0  0  0  0  0  0  0  0
  -23.4029  -29.7447   21.3603 N   0  0  0  0  0  0  0  0  0  0  0  0
  -29.4575  -14.6872   19.3358 N   0  0  0  0  0  0  0  0  0  0  0  0
  -24.7417  -14.5380   19.1295 N   0  0  0  0  0  0  0  0  0  0  0  0
  -22.0042  -12.4777   22.0718 N   0  0  0  0  0  0  0  0  0  0  0  0
  -28.8656  -16.9325   18.9226 N   0  0  0  0  0  0  0  0  0  0  0  0
  -24.8505  -32.8424   22.6271 N   0  0  0  0  0  0  0  0  0  0  0  0
  -20.7606  -27.7034   20.8036 N   0  0  0  0  0  0  0  0  0  0  0  0
  -20.7905  -25.9326   17.6523 N   0  3  0  0  0  0  0  0  0  0  0  0
  -22.1133  -14.0886   20.4433 O   0  0  0  0  0  0  0  0  0  0  0  0
  -30.5309  -25.2594   19.3800 O   0  0  0  0  0  0  0  0  0  0  0  0
  -24.3414  -30.7507   23.5149 O   0  0  0  0  0  0  0  0  0  0  0  0
  -21.1854  -30.4553   21.4785 O   0  0  0  0  0  0  0  0  0  0  0  0
  -22.2006  -26.0340   20.0849 O   0  0  0  0  0  0  0  0  0  0  0  0
  -30.8644  -16.0657   18.1257 O   0  0  0  0  0  0  0  0  0  0  0  0
  -23.4178   -8.3830   25.5747 O   0  0  0  0  0  0  0  0  0  0  0  0
  -28.9114  -27.1270   20.4345 O   0  0  0  0  0  0  0  0  0  1  0  0
  -18.6794   -5.6407   24.9181 F   0  0  0  0  0  0  0  0  0  0  0  0
  -23.3802   -5.6206   25.4726 F   0  0  0  0  0  0  0  0  0  0  0  0
  1  2  1  0  0  0  0
  1  6  2  0  0  0  0
  2  7  2  0  0  0  0
  3 10  2  0  0  0  0
  3 18  1  0  0  0  0
  4 11  1  0  0  0  0
  4 18  2  0  0  0  0
  5  9  2  0  0  0  0
  5 19  1  0  0  0  0
  6 22  1  0  0  0  0
  7 24  1  0  0  0  0
  8 12  2  0  0  0  0
  8 23  1  0  0  0  0
  9 26  1  0  0  0  0
 10 27  1  0  0  0  0
 11 27  2  0  0  0  0
 12 28  1  0  0  0  0
 13 14  2  0  0  0  0
 13 29  1  0  0  0  0
 14 30  1  0  0  0  0
 15 19  2  0  0  0  0
 15 20  1  0  0  0  0
 16 25  1  0  0  0  0
 16 28  2  0  0  0  0
 17 30  2  0  0  0  0
 17 31  1  0  0  0  0
 18 32  1  0  0  0  0
 19 35  1  0  0  0  0
 20 26  2  0  0  0  0
 20 37  1  0  0  0  0
 21 32  1  0  0  0  0
 21 33  2  0  0  0  0
 21 38  1  0  0  0  0
 22 24  2  0  0  0  0
 22 44  1  0  0  0  0
 23 25  2  0  0  0  0
 23 45  1  0  0  0  0
 24 53  1  0  0  0  0
 25 46  1  0  0  0  0
 26 72  1  0  0  0  0
 27 82  1  0  0  0  0
 28 83  1  0  0  0  0
 29 31  2  0  0  0  0
 29 82  1  0  0  0  0
 30 84  1  0  0  0  0
 31 85  1  0  0  0  0
 32 66  2  0  0  0  0
 33 67  1  0  0  0  0
 33 70  1  0  0  0  0
 34 37  2  0  0  0  0
 35 36  2  0  0  0  0
 36 39  1  0  0  0  0
 37 56  1  0  0  0  0
 38 71  1  0  0  0  0
 38 76  2  0  0  0  0
 39 62  1  0  0  0  0
 39 77  2  0  0  0  0
 40 54  1  0  0  0  0
 40 73  1  0  0  0  0
 40 78  2  0  0  0  0
 41 63  1  0  0  0  0
 41 68  1  0  0  0  0
 41 79  2  0  0  0  0
 42 64  1  0  0  0  0
 42 74  1  0  0  0  0
 42 80  2  0  0  0  0
 43 69  1  0  0  0  0
 43 72  1  0  0  0  0
 43 81  2  0  0  0  0
 44 47  1  0  0  0  0
 45 54  1  0  0  0  0
 46 68  1  0  0  0  0
 47 49  1  0  0  0  0
 48 50  1  0  0  0  0
 48 51  1  0  0  0  0
 49 53  1  0  0  0  0
 50 55  1  0  0  0  0
 51 69  1  0  0  0  0
 52 55  1  0  0  0  0
 52 69  1  0  0  0  0
 53 73  1  0  0  0  0
 54 68  1  0  0  0  0
 55 67  1  0  0  0  0
 57 64  1  0  0  0  0
 58 65  1  0  0  0  0
 59 65  1  0  0  0  0
 60 65  1  0  0  0  0
 61 75  1  0  0  0  0
 62 83  1  0  0  0  0
 63 65  1  0  0  0  0
 63 74  1  0  0  0  0
 64 75  1  0  0  0  0
 66 67  1  0  0  0  0
M  CHG  1  75   1
M  ISO  4  43 100  62 101  72 100  83 101
M  END
> <Batch ID>
0123

> <Smiles>
C=C(C)c1cc(C=CC(=O)[101CH2:1][101O:1]c2ccc3c(c2)CN(C(=O)C(NC(=O)C(C)NC)C(C)(C)C)C(C(=O)NC2CCCc4ccccc42)C3)ccc1[100NH:0][100C:0](=O)N1CCCC(n2nc(-c3ccc(Oc4ccc(F)cc4F)cc3)c(C(N)=O)c2N)C1

> <Shape>
0.348

> <Color>
0.140

> <Negative vol penalty>
0.000

$$$$

  -OEChem-04052302033D

 87 95  0     1  0  0  0  0  0999 V2000
  -28.2003  -29.8858    7.7822 C   0  0  0  0  0  0  0  0  0  0  0  0
  -27.4775  -30.1621    8.9383 C   0  0  0  0  0  0  0  0  0  0  0  0
  -23.1023   -9.7730   19.9625 C   0  0  0  0  0  0  0  0  0  0  0  0
  -23.8306   -9.8481   22.2649 C   0  0  0  0  0  0  0  0  0  0  0  0
  -28.4430  -28.5636    7.4125 C   0  0  0  0  0  0  0  0  0  0  0  0
  -26.9960  -29.1162    9.7248 C   0  0  0  0  0  0  0  0  0  0  0  0
  -28.9022  -28.4980   16.6441 C   0  0  0  0  0  0  0  0  0  0  0  0
  -22.3731   -8.6147   20.2309 C   0  0  0  0  0  0  0  0  0  0  0  0
  -23.1013   -8.6898   22.5333 C   0  0  0  0  0  0  0  0  0  0  0  0
  -29.0526  -28.4304   18.0293 C   0  0  0  0  0  0  0  0  0  0  0  0
  -19.8780   -7.8559   23.1124 C   0  0  0  0  0  0  0  0  0  0  0  0
  -19.1058   -7.8326   24.2738 C   0  0  0  0  0  0  0  0  0  0  0  0
  -27.7683  -26.3820   18.0795 C   0  0  0  0  0  0  0  0  0  0  0  0
  -29.5540  -19.3515   22.2286 C   0  0  0  0  0  0  0  0  0  0  0  0
  -31.0502  -17.7251   20.5261 C   0  0  0  0  0  0  0  0  0  0  0  0
  -20.3669   -5.9336   25.0742 C   0  0  0  0  0  0  0  0  0  0  0  0
  -23.8311  -10.3897   20.9795 C   0  0  0  0  0  0  0  0  0  0  0  0
  -24.1354  -12.9163   20.8018 C   0  0  0  0  0  0  0  0  0  0  0  0
  -27.9725  -27.5010    8.2000 C   0  0  0  0  0  0  0  0  0  0  0  0
  -28.1965  -27.4984   15.9686 C   0  0  0  0  0  0  0  0  0  0  0  0
  -27.2314  -27.7785    9.3646 C   0  0  0  0  0  0  0  0  0  0  0  0
  -27.6250  -26.4377   16.6905 C   0  0  0  0  0  0  0  0  0  0  0  0
  -29.3948  -17.9664   22.2693 C   0  0  0  0  0  0  0  0  0  0  0  0
  -30.4612  -19.9235   21.3367 C   0  0  0  0  0  0  0  0  0  0  0  0
  -30.1429  -17.1532   21.4181 C   0  0  0  0  0  0  0  0  0  0  0  0
  -22.3725   -8.0731   21.5163 C   0  0  0  0  0  0  0  0  0  0  0  0
  -28.4868  -27.3751   18.7452 C   0  0  0  0  0  0  0  0  0  0  0  0
  -20.8946   -6.9180   22.9319 C   0  0  0  0  0  0  0  0  0  0  0  0
  -19.3503   -6.8715   25.2547 C   0  0  0  0  0  0  0  0  0  0  0  0
  -31.2093  -19.1102   20.4855 C   0  0  0  0  0  0  0  0  0  0  0  0
  -21.1391   -5.9569   23.9128 C   0  0  0  0  0  0  0  0  0  0  0  0
  -24.5851  -11.5860   20.7027 C   0  0  0  0  0  0  0  0  0  0  0  0
  -25.2207  -13.6739   20.4347 C   0  0  0  0  0  0  0  0  0  0  0  0
  -22.8515  -13.4220   21.1910 C   0  0  0  0  0  0  0  0  0  0  0  0
  -26.9645  -26.1733   12.6820 C   0  0  0  0  0  0  0  0  0  0  0  0
  -30.3004  -23.6413   21.8296 C   0  0  0  0  0  0  0  0  0  0  0  0
  -27.9205  -23.7584   14.3144 C   0  0  0  0  0  0  0  0  0  0  0  0
  -29.4637  -21.4227   16.2639 C   0  0  0  0  0  0  0  0  0  0  0  0
  -30.6671  -14.8099   20.6562 C   0  0  0  0  0  0  0  0  0  0  0  0
  -28.2192  -26.0878    7.7346 C   0  0  0  0  0  0  0  0  0  0  0  0
  -27.9571  -27.5632   14.4846 C   0  0  0  0  0  0  0  0  0  0  0  0
  -26.8448  -25.4035   15.9260 C   0  0  0  0  0  0  0  0  0  0  0  0
  -27.9959  -25.0405    8.8226 C   0  0  0  0  0  0  0  0  0  0  0  0
  -29.6227  -12.3215   18.3335 C   0  0  0  0  0  0  0  0  0  0  0  0
  -26.6867  -25.3064    9.5589 C   0  0  0  0  0  0  0  0  0  0  0  0
  -28.1820  -12.0178   18.7510 C   0  0  0  0  0  0  0  0  0  0  0  0
  -30.5176  -12.5941   19.5412 C   0  0  0  0  0  0  0  0  0  0  0  0
  -28.5810  -13.3218   20.8788 C   0  0  0  0  0  0  0  0  0  0  0  0
  -26.7139  -26.6714   10.2571 C   0  0  1  0  0  0  0  0  0  0  0  0
  -27.9500  -26.1781   13.8134 C   0  0  1  0  0  0  0  0  0  0  0  0
  -27.6272  -13.1044   19.6928 C   0  0  2  0  0  0  0  0  0  0  0  0
  -27.1207  -16.9484   22.5492 C   0  0  0  0  0  0  0  0  0  0  0  0
  -30.0197  -18.9769   16.3402 C   0  0  0  0  0  0  0  0  0  0  0  0
  -25.0248  -23.1264   15.0351 C   0  0  0  0  0  0  0  0  0  0  0  0
  -25.8133  -20.9548   15.9998 C   0  0  0  0  0  0  0  0  0  0  0  0
  -26.1306  -21.4269   13.5710 C   0  0  0  0  0  0  0  0  0  0  0  0
  -32.3719  -21.9674   16.3327 C   0  0  0  0  0  0  0  0  0  0  0  0
  -28.4139  -17.3811   23.2327 C   0  0  0  0  0  0  0  0  0  0  0  0
  -29.6054  -24.7147   22.6552 C   0  0  0  0  0  0  0  0  0  0  0  0
  -29.8883  -22.2161   22.1374 C   0  0  0  0  0  0  0  0  0  0  0  0
  -29.5086  -26.0661   21.9542 C   0  0  0  0  0  0  0  0  0  0  0  0
  -28.6614  -26.0142   20.6882 C   0  0  0  0  0  0  0  0  0  1  0  0
  -27.5516  -22.6497   15.2674 C   0  0  1  0  0  0  0  0  0  0  0  0
  -30.4995  -20.3624   15.9366 C   0  0  2  0  0  0  0  0  0  0  0  0
  -26.1408  -22.0641   14.9777 C   0  0  0  0  0  0  0  0  0  0  0  0
  -25.8569  -11.5000   20.3038 N   0  0  0  0  0  0  0  0  0  0  0  0
  -26.2156  -12.7859   20.1489 N   0  0  0  0  0  0  0  0  0  0  0  0
  -27.5522  -25.0580   14.6830 N   0  0  0  0  0  0  0  0  0  0  0  0
  -29.9308  -13.6371   20.3854 N   0  0  0  0  0  0  0  0  0  0  0  0
  -25.4114  -15.0063   20.3317 N   0  0  0  0  0  0  0  0  0  0  0  0
  -21.8492  -12.5054   21.5371 N   0  0  0  0  0  0  0  0  0  0  0  0
  -29.9943  -15.7443   21.4429 N   0  0  0  0  0  0  0  0  0  0  0  0
  -30.6180  -21.3015   21.2970 N   0  0  0  0  0  0  0  0  0  0  0  0
  -27.4893  -26.5998   11.4769 N   0  0  0  0  0  0  0  0  0  0  0  0
  -28.6314  -21.6715   15.1931 N   0  0  0  0  0  0  0  0  0  0  0  0
  -31.7749  -20.6454   16.6536 N   0  3  0  0  0  0  0  0  0  0  0  0
  -22.5954  -14.6498   21.2148 O   0  0  0  0  0  0  0  0  0  0  0  0
  -25.8126  -25.8081   12.8856 O   0  0  0  0  0  0  0  0  0  0  0  0
  -31.1580  -23.9127   20.9902 O   0  0  0  0  0  0  0  0  0  0  0  0
  -28.5140  -23.4819   13.2682 O   0  0  0  0  0  0  0  0  0  0  0  0
  -29.3970  -21.9725   17.3611 O   0  0  0  0  0  0  0  0  0  0  0  0
  -31.7997  -14.9850   20.1996 O   0  0  0  0  0  0  0  0  0  0  0  0
  -21.6609   -6.9429   21.7787 O   0  0  0  0  0  0  0  0  0  0  0  0
  -28.6413  -27.3128   20.0969 O   0  0  0  0  0  0  0  0  0  1  0  0
  -18.6097   -6.8502   26.3706 F   0  0  0  0  0  0  0  0  0  0  0  0
  -32.0833  -19.6487   19.6232 F   0  0  0  0  0  0  0  0  0  0  0  0
  -22.1151   -5.0541   23.7455 F   0  0  0  0  0  0  0  0  0  0  0  0
  1  2  1  0  0  0  0
  1  5  2  0  0  0  0
  2  6  2  0  0  0  0
  3  8  2  0  0  0  0
  3 17  1  0  0  0  0
  4  9  1  0  0  0  0
  4 17  2  0  0  0  0
  5 19  1  0  0  0  0
  6 21  1  0  0  0  0
  7 10  2  0  0  0  0
  7 20  1  0  0  0  0
  8 26  1  0  0  0  0
  9 26  2  0  0  0  0
 10 27  1  0  0  0  0
 11 12  2  0  0  0  0
 11 28  1  0  0  0  0
 12 29  1  0  0  0  0
 13 22  1  0  0  0  0
 13 27  2  0  0  0  0
 14 23  1  0  0  0  0
 14 24  2  0  0  0  0
 15 25  1  0  0  0  0
 15 30  2  0  0  0  0
 16 29  2  0  0  0  0
 16 31  1  0  0  0  0
 17 32  1  0  0  0  0
 18 32  1  0  0  0  0
 18 33  2  0  0  0  0
 18 34  1  0  0  0  0
 19 21  2  0  0  0  0
 19 40  1  0  0  0  0
 20 22  2  0  0  0  0
 20 41  1  0  0  0  0
 21 49  1  0  0  0  0
 22 42  1  0  0  0  0
 23 25  2  0  0  0  0
 23 58  1  0  0  0  0
 24 30  1  0  0  0  0
 24 73  1  0  0  0  0
 25 72  1  0  0  0  0
 26 83  1  0  0  0  0
 27 84  1  0  0  0  0
 28 31  2  0  0  0  0
 28 83  1  0  0  0  0
 29 85  1  0  0  0  0
 30 86  1  0  0  0  0
 31 87  1  0  0  0  0
 32 66  2  0  0  0  0
 33 67  1  0  0  0  0
 33 70  1  0  0  0  0
 34 71  1  0  0  0  0
 34 77  2  0  0  0  0
 35 50  1  0  0  0  0
 35 74  1  0  0  0  0
 35 78  2  0  0  0  0
 36 59  1  0  0  0  0
 36 60  1  0  0  0  0
 36 79  2  0  0  0  0
 37 63  1  0  0  0  0
 37 68  1  0  0  0  0
 37 80  2  0  0  0  0
 38 64  1  0  0  0  0
 38 75  1  0  0  0  0
 38 81  2  0  0  0  0
 39 69  1  0  0  0  0
 39 72  1  0  0  0  0
 39 82  2  0  0  0  0
 40 43  1  0  0  0  0
 41 50  1  0  0  0  0
 42 68  1  0  0  0  0
 43 45  1  0  0  0  0
 44 46  1  0  0  0  0
 44 47  1  0  0  0  0
 45 49  1  0  0  0  0
 46 51  1  0  0  0  0
 47 69  1  0  0  0  0
 48 51  1  0  0  0  0
 48 69  1  0  0  0  0
 49 74  1  0  0  0  0
 50 68  1  0  0  0  0
 51 67  1  0  0  0  0
 52 58  1  0  0  0  0
 53 64  1  0  0  0  0
 54 65  1  0  0  0  0
 55 65  1  0  0  0  0
 56 65  1  0  0  0  0
 57 76  1  0  0  0  0
 59 61  1  0  0  0  0
 60 73  1  0  0  0  0
 61 62  1  0  0  0  0
 62 84  1  0  0  0  0
 63 65  1  0  0  0  0
 63 75  1  0  0  0  0
 64 76  1  0  0  0  0
 66 67  1  0  0  0  0
M  CHG  1  76   1
M  ISO  4  39 100  62 101  72 100  84 101
M  END
> <Batch ID>
0123

> <Smiles>
CCc1cc(NCC(=O)CC[101CH2:1][101O:1]c2ccc3c(c2)CN(C(=O)C(NC(=O)C(C)NC)C(C)(C)C)C(C(=O)NC2CCCc4ccccc42)C3)c(F)cc1[100NH:0][100C:0](=O)N1CCCC(n2nc(-c3ccc(Oc4ccc(F)cc4F)cc3)c(C(N)=O)c2N)C1

> <Shape>
0.211

> <Color>
0.204

> <Negative vol penalty>
0.000

$$$$

  -OEChem-04052302033D

 86 94  0     1  0  0  0  0  0999 V2000
  -25.7285  -30.7429   29.0626 C   0  0  0  0  0  0  0  0  0  0  0  0
  -26.0693  -29.7671   28.1314 C   0  0  0  0  0  0  0  0  0  0  0  0
  -22.6509  -11.4104   19.2417 C   0  0  0  0  0  0  0  0  0  0  0  0
  -23.2405   -9.9606   21.0822 C   0  0  0  0  0  0  0  0  0  0  0  0
  -24.5872  -31.5204   28.8698 C   0  0  0  0  0  0  0  0  0  0  0  0
  -25.2685  -29.5674   27.0075 C   0  0  0  0  0  0  0  0  0  0  0  0
  -27.1314  -27.9697   21.3966 C   0  0  0  0  0  0  0  0  0  0  0  0
  -21.6131  -10.5460   18.8932 C   0  0  0  0  0  0  0  0  0  0  0  0
  -22.2027   -9.0962   20.7337 C   0  0  0  0  0  0  0  0  0  0  0  0
  -27.1699  -26.7432   20.7348 C   0  0  0  0  0  0  0  0  0  0  0  0
  -18.8475   -8.9549   21.1123 C   0  0  0  0  0  0  0  0  0  0  0  0
  -18.0356   -8.4726   22.1388 C   0  0  0  0  0  0  0  0  0  0  0  0
  -30.6971  -20.3000   17.8715 C   0  0  0  0  0  0  0  0  0  0  0  0
  -25.0541  -27.2468   19.6912 C   0  0  0  0  0  0  0  0  0  0  0  0
  -31.4678  -18.0738   18.4070 C   0  0  0  0  0  0  0  0  0  0  0  0
  -18.6689   -6.2099   21.5763 C   0  0  0  0  0  0  0  0  0  0  0  0
  -23.4646  -11.1177   20.3362 C   0  0  0  0  0  0  0  0  0  0  0  0
  -29.4035  -19.9439   18.2525 C   0  0  0  0  0  0  0  0  0  0  0  0
  -24.4722  -13.1043   21.5794 C   0  0  0  0  0  0  0  0  0  0  0  0
  -23.7773  -31.3366   27.7380 C   0  0  0  0  0  0  0  0  0  0  0  0
  -26.0469  -28.8407   21.2188 C   0  0  0  0  0  0  0  0  0  0  0  0
  -24.1147  -30.3422   26.8001 C   0  0  0  0  0  0  0  0  0  0  0  0
  -25.0055  -28.4849   20.3499 C   0  0  0  0  0  0  0  0  0  0  0  0
  -29.1420  -18.6527   18.7109 C   0  0  0  0  0  0  0  0  0  0  0  0
  -30.1742  -17.7176   18.7881 C   0  0  0  0  0  0  0  0  0  0  0  0
  -21.3890   -9.3889   19.6392 C   0  0  0  0  0  0  0  0  0  0  0  0
  -26.1297  -26.3803   19.8842 C   0  0  0  0  0  0  0  0  0  0  0  0
  -19.5701   -8.0648   20.3177 C   0  0  0  0  0  0  0  0  0  0  0  0
  -17.9463   -7.1001   22.3708 C   0  0  0  0  0  0  0  0  0  0  0  0
  -31.7293  -19.3650   17.9486 C   0  0  0  0  0  0  0  0  0  0  0  0
  -19.4808   -6.6923   20.5498 C   0  0  0  0  0  0  0  0  0  0  0  0
  -24.5371  -12.0100   20.6963 C   0  0  0  0  0  0  0  0  0  0  0  0
  -25.7447  -13.6211   21.5800 C   0  0  0  0  0  0  0  0  0  0  0  0
  -28.3376  -20.9569   18.1567 C   0  0  0  0  0  0  0  0  0  0  0  0
  -28.3278  -22.1172   18.8274 C   0  0  0  0  0  0  0  0  0  0  0  0
  -23.3609  -13.6086   22.3321 C   0  0  0  0  0  0  0  0  0  0  0  0
  -27.1936  -23.0730   18.6674 C   0  0  0  0  0  0  0  0  0  0  0  0
  -23.8225  -30.0718   23.1266 C   0  0  0  0  0  0  0  0  0  0  0  0
  -23.0344  -31.7604   20.4714 C   0  0  0  0  0  0  0  0  0  0  0  0
  -23.0807  -31.9943   17.0670 C   0  0  0  0  0  0  0  0  0  0  0  0
  -30.1814  -15.2528   18.4417 C   0  0  0  0  0  0  0  0  0  0  0  0
  -22.5276  -32.1691   27.5968 C   0  0  0  0  0  0  0  0  0  0  0  0
  -26.0334  -30.1718   21.9192 C   0  0  0  0  0  0  0  0  0  0  0  0
  -23.8284  -29.3931   20.1091 C   0  0  0  0  0  0  0  0  0  0  0  0
  -21.9381  -32.1488   26.1889 C   0  0  0  0  0  0  0  0  0  0  0  0
  -30.0614  -11.7896   19.7075 C   0  0  0  0  0  0  0  0  0  0  0  0
  -21.8809  -30.7212   25.6546 C   0  0  0  0  0  0  0  0  0  0  0  0
  -28.5914  -11.6161   20.0857 C   0  0  0  0  0  0  0  0  0  0  0  0
  -30.2383  -12.7790   18.5595 C   0  0  0  0  0  0  0  0  0  0  0  0
  -28.1419  -13.9357   19.1897 C   0  0  0  0  0  0  0  0  0  0  0  0
  -23.2848  -30.1124   25.5557 C   0  0  1  0  0  0  0  0  0  0  0  0
  -24.6320  -30.7573   22.0624 C   0  0  1  0  0  0  0  0  0  0  0  0
  -27.9342  -12.9773   20.3722 C   0  0  1  0  0  0  0  0  0  0  0  0
  -27.3884  -18.8090   20.4960 C   0  0  0  0  0  0  0  0  0  0  0  0
  -22.3247  -33.4701   15.1834 C   0  0  0  0  0  0  0  0  0  0  0  0
  -20.1784  -30.7470   20.8270 C   0  0  0  0  0  0  0  0  0  0  0  0
  -19.7120  -31.4428   18.4676 C   0  0  0  0  0  0  0  0  0  0  0  0
  -20.3572  -33.1523   20.1658 C   0  0  0  0  0  0  0  0  0  0  0  0
  -29.6413  -16.1753   20.6838 C   0  0  0  0  0  0  0  0  0  0  0  0
  -25.8588  -32.4467   16.1525 C   0  0  0  0  0  0  0  0  0  0  0  0
  -27.7547  -18.2629   19.1214 C   0  0  0  0  0  0  0  0  0  0  0  0
  -27.2967  -24.3486   19.4767 C   0  0  0  0  0  0  0  0  0  1  0  0
  -22.1046  -31.5419   19.3024 C   0  0  1  0  0  0  0  0  0  0  0  0
  -23.4581  -33.1363   16.1409 C   0  0  2  0  0  0  0  0  0  0  0  0
  -20.6092  -31.7028   19.6965 C   0  0  0  0  0  0  0  0  0  0  0  0
  -25.7546  -11.8407   20.1736 N   0  0  0  0  0  0  0  0  0  0  0  0
  -26.4663  -12.8357   20.7299 N   0  0  0  0  0  0  0  0  0  0  0  0
  -23.8580  -30.6811   20.8217 N   0  0  0  0  0  0  0  0  0  0  0  0
  -29.5658  -14.0485   18.8380 N   0  0  0  0  0  0  0  0  0  0  0  0
  -26.3056  -14.6663   22.2245 N   0  0  0  0  0  0  0  0  0  0  0  0
  -22.1247  -12.9586   22.2152 N   0  0  0  0  0  0  0  0  0  0  0  0
  -23.9735  -30.6174   24.3872 N   0  0  0  0  0  0  0  0  0  0  0  0
  -22.5473  -32.4533   18.2528 N   0  0  0  0  0  0  0  0  0  0  0  0
  -29.9278  -16.3752   19.2595 N   0  0  0  0  0  0  0  0  0  0  0  0
  -24.6609  -32.7762   15.3380 N   0  3  0  0  0  0  0  0  0  0  0  0
  -23.4572  -14.6160   23.0734 O   0  0  0  0  0  0  0  0  0  0  0  0
  -26.2419  -22.8380   17.9278 O   0  0  0  0  0  0  0  0  0  0  0  0
  -23.1123  -29.1195   22.8261 O   0  0  0  0  0  0  0  0  0  0  0  0
  -23.0353  -32.8509   21.0479 O   0  0  0  0  0  0  0  0  0  0  0  0
  -23.2394  -30.8130   16.7670 O   0  0  0  0  0  0  0  0  0  0  0  0
  -30.9223  -15.3123   17.4532 O   0  0  0  0  0  0  0  0  0  0  0  0
  -20.3764   -8.5453   19.2995 O   0  0  0  0  0  0  0  0  0  0  0  0
  -26.1644  -25.1835   19.2375 O   0  0  0  0  0  0  0  0  0  1  0  0
  -17.1678   -6.6371   23.3576 F   0  0  0  0  0  0  0  0  0  0  0  0
  -32.9718  -19.7072   17.5834 F   0  0  0  0  0  0  0  0  0  0  0  0
  -20.1735   -5.8323   19.7906 F   0  0  0  0  0  0  0  0  0  0  0  0
  1  2  1  0  0  0  0
  1  5  2  0  0  0  0
  2  6  2  0  0  0  0
  3  8  2  0  0  0  0
  3 17  1  0  0  0  0
  4  9  1  0  0  0  0
  4 17  2  0  0  0  0
  5 20  1  0  0  0  0
  6 22  1  0  0  0  0
  7 10  2  0  0  0  0
  7 21  1  0  0  0  0
  8 26  1  0  0  0  0
  9 26  2  0  0  0  0
 10 27  1  0  0  0  0
 11 12  2  0  0  0  0
 11 28  1  0  0  0  0
 12 29  1  0  0  0  0
 13 18  2  0  0  0  0
 13 30  1  0  0  0  0
 14 23  1  0  0  0  0
 14 27  2  0  0  0  0
 15 25  1  0  0  0  0
 15 30  2  0  0  0  0
 16 29  2  0  0  0  0
 16 31  1  0  0  0  0
 17 32  1  0  0  0  0
 18 24  1  0  0  0  0
 18 34  1  0  0  0  0
 19 32  1  0  0  0  0
 19 33  2  0  0  0  0
 19 36  1  0  0  0  0
 20 22  2  0  0  0  0
 20 42  1  0  0  0  0
 21 23  2  0  0  0  0
 21 43  1  0  0  0  0
 22 51  1  0  0  0  0
 23 44  1  0  0  0  0
 24 25  2  0  0  0  0
 24 61  1  0  0  0  0
 25 74  1  0  0  0  0
 26 82  1  0  0  0  0
 27 83  1  0  0  0  0
 28 31  2  0  0  0  0
 28 82  1  0  0  0  0
 29 84  1  0  0  0  0
 30 85  1  0  0  0  0
 31 86  1  0  0  0  0
 32 66  2  0  0  0  0
 33 67  1  0  0  0  0
 33 70  1  0  0  0  0
 34 35  2  0  0  0  0
 35 37  1  0  0  0  0
 36 71  1  0  0  0  0
 36 76  2  0  0  0  0
 37 62  1  0  0  0  0
 37 77  2  0  0  0  0
 38 52  1  0  0  0  0
 38 72  1  0  0  0  0
 38 78  2  0  0  0  0
 39 63  1  0  0  0  0
 39 68  1  0  0  0  0
 39 79  2  0  0  0  0
 40 64  1  0  0  0  0
 40 73  1  0  0  0  0
 40 80  2  0  0  0  0
 41 69  1  0  0  0  0
 41 74  1  0  0  0  0
 41 81  2  0  0  0  0
 42 45  1  0  0  0  0
 43 52  1  0  0  0  0
 44 68  1  0  0  0  0
 45 47  1  0  0  0  0
 46 48  1  0  0  0  0
 46 49  1  0  0  0  0
 47 51  1  0  0  0  0
 48 53  1  0  0  0  0
 49 69  1  0  0  0  0
 50 53  1  0  0  0  0
 50 69  1  0  0  0  0
 51 72  1  0  0  0  0
 52 68  1  0  0  0  0
 53 67  1  0  0  0  0
 54 61  1  0  0  0  0
 55 64  1  0  0  0  0
 56 65  1  0  0  0  0
 57 65  1  0  0  0  0
 58 65  1  0  0  0  0
 59 74  1  0  0  0  0
 60 75  1  0  0  0  0
 62 83  1  0  0  0  0
 63 65  1  0  0  0  0
 63 73  1  0  0  0  0
 64 75  1  0  0  0  0
 66 67  1  0  0  0  0
M  CHG  1  75   1
M  ISO  4  41 100  62 101  74 100  83 101
M  END
> <Batch ID>
0123

> <Smiles>
CCc1c(C=CC(=O)[101CH2:1][101O:1]c2ccc3c(c2)CN(C(=O)C(NC(=O)C(C)NC)C(C)(C)C)C(C(=O)NC2CCCc4ccccc42)C3)cc(F)cc1[100N:0](C)[100C:0](=O)N1CCCC(n2nc(-c3ccc(Oc4ccc(F)cc4F)cc3)c(C(N)=O)c2N)C1

> <Shape>
0.225

> <Color>
0.116

> <Negative vol penalty>
0.000

$$$$

  -OEChem-04052302033D

 87 95  0     1  0  0  0  0  0999 V2000
  -29.6957  -36.7784   23.8681 C   0  0  0  0  0  0  0  0  0  0  0  0
  -29.6556  -35.7528   24.8072 C   0  0  0  0  0  0  0  0  0  0  0  0
  -24.4842   -9.1244   21.5499 C   0  0  0  0  0  0  0  0  0  0  0  0
  -24.1472  -10.7672   23.2891 C   0  0  0  0  0  0  0  0  0  0  0  0
  -28.5109  -37.2616   23.3143 C   0  0  0  0  0  0  0  0  0  0  0  0
  -28.4305  -35.2104   25.1938 C   0  0  0  0  0  0  0  0  0  0  0  0
  -27.0470  -28.1927   24.3394 C   0  0  0  0  0  0  0  0  0  0  0  0
  -24.0804   -8.1156   22.4244 C   0  0  0  0  0  0  0  0  0  0  0  0
  -23.7433   -9.7584   24.1637 C   0  0  0  0  0  0  0  0  0  0  0  0
  -26.7850  -26.8240   24.4030 C   0  0  0  0  0  0  0  0  0  0  0  0
  -21.1735   -6.8899   23.6412 C   0  0  0  0  0  0  0  0  0  0  0  0
  -20.2791   -5.9341   23.1596 C   0  0  0  0  0  0  0  0  0  0  0  0
  -30.1555  -21.6825   21.1695 C   0  0  0  0  0  0  0  0  0  0  0  0
  -27.7157  -20.3310   21.2310 C   0  0  0  0  0  0  0  0  0  0  0  0
  -24.5661  -27.2772   25.2509 C   0  0  0  0  0  0  0  0  0  0  0  0
  -21.8954   -4.1954   23.6083 C   0  0  0  0  0  0  0  0  0  0  0  0
  -24.5177  -10.4502   21.9822 C   0  0  0  0  0  0  0  0  0  0  0  0
  -29.2039  -22.0048   22.1370 C   0  0  0  0  0  0  0  0  0  0  0  0
  -28.6673  -20.0088   20.2634 C   0  0  0  0  0  0  0  0  0  0  0  0
  -24.1192  -12.2436   20.2123 C   0  0  0  0  0  0  0  0  0  0  0  0
  -27.2713  -36.7182   23.6871 C   0  0  0  0  0  0  0  0  0  0  0  0
  -26.0628  -29.1104   24.7172 C   0  0  0  0  0  0  0  0  0  0  0  0
  -27.2280  -35.6876   24.6454 C   0  0  0  0  0  0  0  0  0  0  0  0
  -24.8183  -28.6497   25.1775 C   0  0  0  0  0  0  0  0  0  0  0  0
  -29.8872  -20.6845   20.2326 C   0  0  0  0  0  0  0  0  0  0  0  0
  -23.7100   -8.4326   23.7313 C   0  0  0  0  0  0  0  0  0  0  0  0
  -25.5478  -26.3674   24.8579 C   0  0  0  0  0  0  0  0  0  0  0  0
  -22.4290   -6.4985   24.1063 C   0  0  0  0  0  0  0  0  0  0  0  0
  -27.9840  -21.3291   22.1678 C   0  0  0  0  0  0  0  0  0  0  0  0
  -20.6400   -4.5869   23.1432 C   0  0  0  0  0  0  0  0  0  0  0  0
  -22.7899   -5.1512   24.0899 C   0  0  0  0  0  0  0  0  0  0  0  0
  -24.9353  -11.4927   21.0794 C   0  0  0  0  0  0  0  0  0  0  0  0
  -24.9877  -13.0965   19.5761 C   0  0  0  0  0  0  0  0  0  0  0  0
  -29.7436  -24.3123   22.7691 C   0  0  0  0  0  0  0  0  0  0  0  0
  -29.5070  -23.0524   23.1030 C   0  0  0  0  0  0  0  0  0  0  0  0
  -28.3610  -18.9633   19.2963 C   0  0  0  0  0  0  0  0  0  0  0  0
  -22.7027  -12.1762   20.0008 C   0  0  0  0  0  0  0  0  0  0  0  0
  -25.0904  -32.7114   25.1209 C   0  0  0  0  0  0  0  0  0  0  0  0
  -29.2871  -16.6664   19.8225 C   0  0  0  0  0  0  0  0  0  0  0  0
  -22.6446  -31.2501   23.9839 C   0  0  0  0  0  0  0  0  0  0  0  0
  -20.3253  -29.3598   22.3454 C   0  0  0  0  0  0  0  0  0  0  0  0
  -26.0141  -37.3055   23.0962 C   0  0  0  0  0  0  0  0  0  0  0  0
  -26.3226  -30.5924   24.7232 C   0  0  0  0  0  0  0  0  0  0  0  0
  -23.8020  -29.6725   25.6063 C   0  0  0  0  0  0  0  0  0  0  0  0
  -24.7835  -36.4212   23.2811 C   0  0  0  0  0  0  0  0  0  0  0  0
  -30.0361  -13.1815   19.4554 C   0  0  0  0  0  0  0  0  0  0  0  0
  -24.7004  -35.9157   24.7179 C   0  0  0  0  0  0  0  0  0  0  0  0
  -28.7174  -12.4923   19.8033 C   0  0  0  0  0  0  0  0  0  0  0  0
  -30.2482  -14.4375   20.2947 C   0  0  0  0  0  0  0  0  0  0  0  0
  -27.8060  -14.7337   20.5589 C   0  0  0  0  0  0  0  0  0  0  0  0
  -25.9203  -35.0566   25.0719 C   0  0  1  0  0  0  0  0  0  0  0  0
  -25.0822  -31.4240   24.3502 C   0  0  1  0  0  0  0  0  0  0  0  0
  -27.5381  -13.4769   19.7119 C   0  0  2  0  0  0  0  0  0  0  0  0
  -30.9731  -21.3938   18.0869 C   0  0  0  0  0  0  0  0  0  0  0  0
  -18.0302  -29.4931   21.3393 C   0  0  0  0  0  0  0  0  0  0  0  0
  -21.4200  -31.1718   26.7764 C   0  0  0  0  0  0  0  0  0  0  0  0
  -19.2890  -30.3612   25.7419 C   0  0  0  0  0  0  0  0  0  0  0  0
  -20.1912  -32.6070   25.1378 C   0  0  0  0  0  0  0  0  0  0  0  0
  -21.3407  -28.6780   19.6503 C   0  0  0  0  0  0  0  0  0  0  0  0
  -30.9228  -20.3587   19.2064 C   0  0  0  0  0  0  0  0  0  0  0  0
  -28.0535  -17.5299   19.7423 C   0  0  0  0  0  0  0  0  0  0  0  0
  -25.1160  -22.9783   23.6563 C   0  0  0  0  0  0  0  0  0  0  0  0
  -25.9622  -24.2053   23.9572 C   0  0  0  0  0  0  0  0  0  1  0  0
  -25.7722  -22.0736   22.6252 C   0  0  0  0  0  0  0  0  0  0  0  0
  -21.3511  -30.5325   24.2759 C   0  0  1  0  0  0  0  0  0  0  0  0
  -19.5238  -29.6195   21.0826 C   0  0  2  0  0  0  0  0  0  0  0  0
  -20.5871  -31.1539   25.4790 C   0  0  0  0  0  0  0  0  0  0  0  0
  -26.2233  -11.8380   21.0035 N   0  0  0  0  0  0  0  0  0  0  0  0
  -28.3281  -19.2108   18.0076 N   0  0  0  0  0  0  0  0  0  0  0  0
  -26.2231  -12.8153   20.0810 N   0  0  0  0  0  0  0  0  0  0  0  0
  -23.7861  -30.7945   24.6546 N   0  0  0  0  0  0  0  0  0  0  0  0
  -29.0968  -15.3367   20.1990 N   0  0  0  0  0  0  0  0  0  0  0  0
  -24.8076  -14.0520   18.6397 N   0  0  0  0  0  0  0  0  0  0  0  0
  -21.9608  -11.2429   20.7375 N   0  0  0  0  0  0  0  0  0  0  0  0
  -25.7878  -33.7322   24.5036 N   0  0  0  0  0  0  0  0  0  0  0  0
  -20.5964  -30.5271   23.0273 N   0  0  0  0  0  0  0  0  0  0  0  0
  -19.9020  -28.6459   20.0196 N   0  3  0  0  0  0  0  0  0  0  0  0
  -22.1147  -12.9103   19.1708 O   0  0  0  0  0  0  0  0  0  0  0  0
  -24.5060  -32.7757   26.1961 O   0  0  0  0  0  0  0  0  0  0  0  0
  -30.3859  -17.1599   19.5553 O   0  0  0  0  0  0  0  0  0  0  0  0
  -22.6448  -32.1930   23.1875 O   0  0  0  0  0  0  0  0  0  0  0  0
  -20.6726  -28.2336   22.6940 O   0  0  0  0  0  0  0  0  0  0  0  0
  -23.3156   -7.4485   24.5849 O   0  0  0  0  0  0  0  0  0  0  0  0
  -25.2971  -25.0299   24.9132 O   0  0  0  0  0  0  0  0  0  1  0  0
  -27.0319  -21.6264   23.1079 O   0  0  0  0  0  0  0  0  0  0  0  0
  -19.7803   -3.6690   22.6821 F   0  0  0  0  0  0  0  0  0  0  0  0
  -23.9942   -4.7690   24.5365 F   0  0  0  0  0  0  0  0  0  0  0  0
  1  2  1  0  0  0  0
  1  5  2  0  0  0  0
  2  6  2  0  0  0  0
  3  8  2  0  0  0  0
  3 17  1  0  0  0  0
  4  9  1  0  0  0  0
  4 17  2  0  0  0  0
  5 21  1  0  0  0  0
  6 23  1  0  0  0  0
  7 10  2  0  0  0  0
  7 22  1  0  0  0  0
  8 26  1  0  0  0  0
  9 26  2  0  0  0  0
 10 27  1  0  0  0  0
 11 12  2  0  0  0  0
 11 28  1  0  0  0  0
 12 30  1  0  0  0  0
 13 18  1  0  0  0  0
 13 25  2  0  0  0  0
 14 19  2  0  0  0  0
 14 29  1  0  0  0  0
 15 24  1  0  0  0  0
 15 27  2  0  0  0  0
 16 30  2  0  0  0  0
 16 31  1  0  0  0  0
 17 32  1  0  0  0  0
 18 29  2  0  0  0  0
 18 35  1  0  0  0  0
 19 25  1  0  0  0  0
 19 36  1  0  0  0  0
 20 32  1  0  0  0  0
 20 33  2  0  0  0  0
 20 37  1  0  0  0  0
 21 23  2  0  0  0  0
 21 42  1  0  0  0  0
 22 24  2  0  0  0  0
 22 43  1  0  0  0  0
 23 51  1  0  0  0  0
 24 44  1  0  0  0  0
 25 60  1  0  0  0  0
 26 83  1  0  0  0  0
 27 84  1  0  0  0  0
 28 31  2  0  0  0  0
 28 83  1  0  0  0  0
 29 85  1  0  0  0  0
 30 86  1  0  0  0  0
 31 87  1  0  0  0  0
 32 68  2  0  0  0  0
 33 70  1  0  0  0  0
 33 73  1  0  0  0  0
 34 35  2  0  0  0  0
 36 61  1  0  0  0  0
 36 69  2  0  0  0  0
 37 74  1  0  0  0  0
 37 78  2  0  0  0  0
 38 52  1  0  0  0  0
 38 75  1  0  0  0  0
 38 79  2  0  0  0  0
 39 61  1  0  0  0  0
 39 72  1  0  0  0  0
 39 80  2  0  0  0  0
 40 65  1  0  0  0  0
 40 71  1  0  0  0  0
 40 81  2  0  0  0  0
 41 66  1  0  0  0  0
 41 76  1  0  0  0  0
 41 82  2  0  0  0  0
 42 45  1  0  0  0  0
 43 52  1  0  0  0  0
 44 71  1  0  0  0  0
 45 47  1  0  0  0  0
 46 48  1  0  0  0  0
 46 49  1  0  0  0  0
 47 51  1  0  0  0  0
 48 53  1  0  0  0  0
 49 72  1  0  0  0  0
 50 53  1  0  0  0  0
 50 72  1  0  0  0  0
 51 75  1  0  0  0  0
 52 71  1  0  0  0  0
 53 70  1  0  0  0  0
 54 60  1  0  0  0  0
 55 66  1  0  0  0  0
 56 67  1  0  0  0  0
 57 67  1  0  0  0  0
 58 67  1  0  0  0  0
 59 77  1  0  0  0  0
 62 63  1  0  0  0  0
 62 64  1  0  0  0  0
 63 84  1  0  0  0  0
 64 85  1  0  0  0  0
 65 67  1  0  0  0  0
 65 76  1  0  0  0  0
 66 77  1  0  0  0  0
 68 70  1  0  0  0  0
M  CHG  1  77   1
M  ISO  4  39 100  61 100  63 101  84 101
M  END
> <Batch ID>
0123

> <Smiles>
C=Cc1cc(CC)c(C(=N)[100CH2:0][100C:0](=O)N2CCCC(n3nc(-c4ccc(Oc5ccc(F)cc5F)cc4)c(C(N)=O)c3N)C2)cc1OCC[101CH2:1][101O:1]c1ccc2c(c1)CN(C(=O)C(NC(=O)C(C)NC)C(C)(C)C)C(C(=O)NC1CCCc3ccccc31)C2

> <Shape>
0.283

> <Color>
0.087

> <Negative vol penalty>
0.000

$$$$

  -OEChem-04052302033D

 83 91  0     1  0  0  0  0  0999 V2000
  -24.3264  -24.6155   32.5139 C   0  0  0  0  0  0  0  0  0  0  0  0
  -24.8818  -23.3475   32.6528 C   0  0  0  0  0  0  0  0  0  0  0  0
  -23.1891   -9.8194   19.9318 C   0  0  0  0  0  0  0  0  0  0  0  0
  -23.5687   -9.9996   22.3110 C   0  0  0  0  0  0  0  0  0  0  0  0
  -23.8287  -25.0256   31.2778 C   0  0  0  0  0  0  0  0  0  0  0  0
  -24.9388  -22.4886   31.5558 C   0  0  0  0  0  0  0  0  0  0  0  0
  -29.3433  -18.4278   30.2845 C   0  0  0  0  0  0  0  0  0  0  0  0
  -22.4229   -8.6728   20.1408 C   0  0  0  0  0  0  0  0  0  0  0  0
  -22.8024   -8.8530   22.5200 C   0  0  0  0  0  0  0  0  0  0  0  0
  -29.4399  -17.0526   30.4930 C   0  0  0  0  0  0  0  0  0  0  0  0
  -21.2455   -5.7691   23.6495 C   0  0  0  0  0  0  0  0  0  0  0  0
  -21.7423   -4.8092   24.5311 C   0  0  0  0  0  0  0  0  0  0  0  0
  -32.8080  -11.8341   26.3330 C   0  0  0  0  0  0  0  0  0  0  0  0
  -28.6815  -16.6634   28.2363 C   0  0  0  0  0  0  0  0  0  0  0  0
  -32.6575  -12.1072   23.9372 C   0  0  0  0  0  0  0  0  0  0  0  0
  -23.7002   -4.5452   23.1404 C   0  0  0  0  0  0  0  0  0  0  0  0
  -23.7621  -10.4828   21.0169 C   0  0  0  0  0  0  0  0  0  0  0  0
  -31.4656  -12.1918   26.4581 C   0  0  0  0  0  0  0  0  0  0  0  0
  -24.1007  -12.9995   20.7731 C   0  0  0  0  0  0  0  0  0  0  0  0
  -23.8884  -24.1749   30.1628 C   0  0  0  0  0  0  0  0  0  0  0  0
  -28.9039  -18.9317   29.0518 C   0  0  0  0  0  0  0  0  0  0  0  0
  -24.4402  -22.8873   30.3040 C   0  0  0  0  0  0  0  0  0  0  0  0
  -28.5826  -18.0453   28.0139 C   0  0  0  0  0  0  0  0  0  0  0  0
  -30.7192  -12.5071   25.3228 C   0  0  0  0  0  0  0  0  0  0  0  0
  -31.3151  -12.4649   24.0623 C   0  0  0  0  0  0  0  0  0  0  0  0
  -22.2295   -8.1896   21.4349 C   0  0  0  0  0  0  0  0  0  0  0  0
  -29.1062  -16.1701   29.4698 C   0  0  0  0  0  0  0  0  0  0  0  0
  -21.9760   -6.1171   22.5132 C   0  0  0  0  0  0  0  0  0  0  0  0
  -22.9696   -4.1973   24.2766 C   0  0  0  0  0  0  0  0  0  0  0  0
  -33.4040  -11.7918   25.0725 C   0  0  0  0  0  0  0  0  0  0  0  0
  -23.2033   -5.5051   22.2587 C   0  0  0  0  0  0  0  0  0  0  0  0
  -24.5541  -11.6671   20.8015 C   0  0  0  0  0  0  0  0  0  0  0  0
  -25.2318  -13.7421   20.5373 C   0  0  0  0  0  0  0  0  0  0  0  0
  -30.8699  -12.2270   27.8041 C   0  0  0  0  0  0  0  0  0  0  0  0
  -31.3012  -12.9900   28.8206 C   0  0  0  0  0  0  0  0  0  0  0  0
  -22.7756  -13.5194   20.9447 C   0  0  0  0  0  0  0  0  0  0  0  0
  -26.4346  -20.6924   28.1000 C   0  0  0  0  0  0  0  0  0  0  0  0
  -27.9809  -20.6190   25.2494 C   0  0  0  0  0  0  0  0  0  0  0  0
  -30.1966  -19.0321   23.1953 C   0  0  0  0  0  0  0  0  0  0  0  0
  -31.0368  -12.7813   21.5786 C   0  0  0  0  0  0  0  0  0  0  0  0
  -23.2946  -24.6449   28.8585 C   0  0  0  0  0  0  0  0  0  0  0  0
  -28.8308  -20.4182   28.8341 C   0  0  0  0  0  0  0  0  0  0  0  0
  -28.1251  -18.5358   26.6654 C   0  0  0  0  0  0  0  0  0  0  0  0
  -23.7329  -23.8141   27.6553 C   0  0  0  0  0  0  0  0  0  0  0  0
  -29.5227  -13.4632   18.4290 C   0  0  0  0  0  0  0  0  0  0  0  0
  -23.6240  -22.3248   27.9666 C   0  0  0  0  0  0  0  0  0  0  0  0
  -28.0347  -13.2071   18.6791 C   0  0  0  0  0  0  0  0  0  0  0  0
  -30.4042  -12.4781   19.1947 C   0  0  0  0  0  0  0  0  0  0  0  0
  -28.6452  -12.1365   20.8854 C   0  0  0  0  0  0  0  0  0  0  0  0
  -24.5424  -21.9360   29.1314 C   0  0  1  0  0  0  0  0  0  0  0  0
  -27.8801  -20.8110   27.7075 C   0  0  1  0  0  0  0  0  0  0  0  0
  -27.7191  -13.1451   20.1864 C   0  0  2  0  0  0  0  0  0  0  0  0
  -29.2769  -12.8928   25.4497 C   0  0  0  0  0  0  0  0  0  0  0  0
  -31.2272  -19.1894   20.9126 C   0  0  0  0  0  0  0  0  0  0  0  0
  -25.3869  -19.5961   24.0104 C   0  0  0  0  0  0  0  0  0  0  0  0
  -26.7070  -18.8831   22.0061 C   0  0  0  0  0  0  0  0  0  0  0  0
  -26.6013  -21.2949   22.6344 C   0  0  0  0  0  0  0  0  0  0  0  0
  -32.9243  -19.2795   24.3167 C   0  0  0  0  0  0  0  0  0  0  0  0
  -30.6697  -12.9855   30.1859 C   0  0  0  0  0  0  0  0  0  0  0  0
  -30.1924  -14.3754   30.5900 C   0  0  0  0  0  0  0  0  0  1  0  0
  -27.9662  -19.7044   24.0484 C   0  0  1  0  0  0  0  0  0  0  0  0
  -31.3679  -19.5535   22.3824 C   0  0  2  0  0  0  0  0  0  0  0  0
  -26.6721  -19.8601   23.2007 C   0  0  0  0  0  0  0  0  0  0  0  0
  -25.8706  -11.5659   20.5997 N   0  0  0  0  0  0  0  0  0  0  0  0
  -26.2541  -12.8443   20.4421 N   0  0  0  0  0  0  0  0  0  0  0  0
  -28.0638  -19.9979   26.5036 N   0  0  0  0  0  0  0  0  0  0  0  0
  -30.0512  -12.4765   20.6160 N   0  0  0  0  0  0  0  0  0  0  0  0
  -25.4417  -15.0690   20.4041 N   0  0  0  0  0  0  0  0  0  0  0  0
  -21.7290  -12.6172   21.1792 N   0  0  0  0  0  0  0  0  0  0  0  0
  -30.5767  -12.7809   22.8950 N   0  0  0  0  0  0  0  0  0  0  0  0
  -25.9139  -21.8329   28.6809 N   0  0  0  0  0  0  0  0  0  0  0  0
  -29.1975  -19.9750   23.3142 N   0  0  0  0  0  0  0  0  0  0  0  0
  -32.6463  -18.9788   22.8886 N   0  3  0  0  0  0  0  0  0  0  0  0
  -22.5244  -14.7465   20.8753 O   0  0  0  0  0  0  0  0  0  0  0  0
  -25.8355  -19.6442   27.8898 O   0  0  0  0  0  0  0  0  0  0  0  0
  -27.9281  -21.8398   25.0805 O   0  0  0  0  0  0  0  0  0  0  0  0
  -30.1690  -17.9003   23.6735 O   0  0  0  0  0  0  0  0  0  0  0  0
  -32.1967  -13.0513   21.2566 O   0  0  0  0  0  0  0  0  0  0  0  0
  -21.4817   -7.0708   21.6393 O   0  0  0  0  0  0  0  0  0  0  0  0
  -29.1989  -14.8274   29.6708 O   0  0  0  0  0  0  0  0  0  1  0  0
  -23.4473   -3.2766   25.1242 F   0  0  0  0  0  0  0  0  0  0  0  0
  -34.6929  -11.4476   24.9523 F   0  0  0  0  0  0  0  0  0  0  0  0
  -23.9102   -5.8362   21.1694 F   0  0  0  0  0  0  0  0  0  0  0  0
  1  2  1  0  0  0  0
  1  5  2  0  0  0  0
  2  6  2  0  0  0  0
  3  8  2  0  0  0  0
  3 17  1  0  0  0  0
  4  9  1  0  0  0  0
  4 17  2  0  0  0  0
  5 20  1  0  0  0  0
  6 22  1  0  0  0  0
  7 10  2  0  0  0  0
  7 21  1  0  0  0  0
  8 26  1  0  0  0  0
  9 26  2  0  0  0  0
 10 27  1  0  0  0  0
 11 12  2  0  0  0  0
 11 28  1  0  0  0  0
 12 29  1  0  0  0  0
 13 18  1  0  0  0  0
 13 30  2  0  0  0  0
 14 23  1  0  0  0  0
 14 27  2  0  0  0  0
 15 25  2  0  0  0  0
 15 30  1  0  0  0  0
 16 29  2  0  0  0  0
 16 31  1  0  0  0  0
 17 32  1  0  0  0  0
 18 24  2  0  0  0  0
 18 34  1  0  0  0  0
 19 32  1  0  0  0  0
 19 33  2  0  0  0  0
 19 36  1  0  0  0  0
 20 22  2  0  0  0  0
 20 41  1  0  0  0  0
 21 23  2  0  0  0  0
 21 42  1  0  0  0  0
 22 50  1  0  0  0  0
 23 43  1  0  0  0  0
 24 25  1  0  0  0  0
 24 53  1  0  0  0  0
 25 70  1  0  0  0  0
 26 79  1  0  0  0  0
 27 80  1  0  0  0  0
 28 31  2  0  0  0  0
 28 79  1  0  0  0  0
 29 81  1  0  0  0  0
 30 82  1  0  0  0  0
 31 83  1  0  0  0  0
 32 64  2  0  0  0  0
 33 65  1  0  0  0  0
 33 68  1  0  0  0  0
 34 35  2  0  0  0  0
 35 59  1  0  0  0  0
 36 69  1  0  0  0  0
 36 74  2  0  0  0  0
 37 51  1  0  0  0  0
 37 71  1  0  0  0  0
 37 75  2  0  0  0  0
 38 61  1  0  0  0  0
 38 66  1  0  0  0  0
 38 76  2  0  0  0  0
 39 62  1  0  0  0  0
 39 72  1  0  0  0  0
 39 77  2  0  0  0  0
 40 67  1  0  0  0  0
 40 70  1  0  0  0  0
 40 78  2  0  0  0  0
 41 44  1  0  0  0  0
 42 51  1  0  0  0  0
 43 66  1  0  0  0  0
 44 46  1  0  0  0  0
 45 47  1  0  0  0  0
 45 48  1  0  0  0  0
 46 50  1  0  0  0  0
 47 52  1  0  0  0  0
 48 67  1  0  0  0  0
 49 52  1  0  0  0  0
 49 67  1  0  0  0  0
 50 71  1  0  0  0  0
 51 66  1  0  0  0  0
 52 65  1  0  0  0  0
 54 62  1  0  0  0  0
 55 63  1  0  0  0  0
 56 63  1  0  0  0  0
 57 63  1  0  0  0  0
 58 73  1  0  0  0  0
 59 60  1  0  0  0  0
 60 80  1  0  0  0  0
 61 63  1  0  0  0  0
 61 72  1  0  0  0  0
 62 73  1  0  0  0  0
 64 65  1  0  0  0  0
M  CHG  1  73   1
M  ISO  4  40 100  60 101  70 100  80 101
M  END
> <Batch ID>
0123

> <Smiles>
CNC(C)C(=O)NC(C(=O)N1Cc2cc([101O:1][101CH2:1]CC=Cc3cc(F)cc([100NH:0][100C:0](=O)N4CCCC(n5nc(-c6ccc(Oc7ccc(F)cc7F)cc6)c(C(N)=O)c5N)C4)c3C)ccc2CC1C(=O)NC1CCCc2ccccc21)C(C)(C)C

> <Shape>
0.147

> <Color>
0.190

> <Negative vol penalty>
0.000

$$$$

  -OEChem-04052302033D

 85 93  0     1  0  0  0  0  0999 V2000
  -31.6151  -29.1523   25.3742 C   0  0  0  0  0  0  0  0  0  0  0  0
  -30.8611  -28.4551   24.4356 C   0  0  0  0  0  0  0  0  0  0  0  0
  -27.3089  -11.1987   20.9323 C   0  0  0  0  0  0  0  0  0  0  0  0
  -27.3790  -11.2110   18.5174 C   0  0  0  0  0  0  0  0  0  0  0  0
  -30.9770  -29.8806   26.3773 C   0  0  0  0  0  0  0  0  0  0  0  0
  -29.4685  -28.4850   24.5002 C   0  0  0  0  0  0  0  0  0  0  0  0
  -27.3286  -29.2172   19.9693 C   0  0  0  0  0  0  0  0  0  0  0  0
  -27.7359  -18.5642   13.0769 C   0  0  0  0  0  0  0  0  0  0  0  0
  -28.2119  -18.1231   14.3116 C   0  0  0  0  0  0  0  0  0  0  0  0
  -26.3605  -10.1765   20.8996 C   0  0  0  0  0  0  0  0  0  0  0  0
  -26.4306  -10.1887   18.4846 C   0  0  0  0  0  0  0  0  0  0  0  0
  -27.2581  -28.1189   19.1135 C   0  0  0  0  0  0  0  0  0  0  0  0
  -23.0380   -9.8783   20.3549 C   0  0  0  0  0  0  0  0  0  0  0  0
  -21.9319   -9.9943   21.1967 C   0  0  0  0  0  0  0  0  0  0  0  0
  -27.3861  -20.1416   15.3511 C   0  0  0  0  0  0  0  0  0  0  0  0
  -24.9515  -27.7883   19.7376 C   0  0  0  0  0  0  0  0  0  0  0  0
  -22.5456   -7.9280   22.2878 C   0  0  0  0  0  0  0  0  0  0  0  0
  -27.8181  -11.7160   19.7412 C   0  0  0  0  0  0  0  0  0  0  0  0
  -26.9101  -20.5827   14.1164 C   0  0  0  0  0  0  0  0  0  0  0  0
  -30.1977  -12.6326   19.8140 C   0  0  0  0  0  0  0  0  0  0  0  0
  -29.5758  -29.9274   26.4485 C   0  0  0  0  0  0  0  0  0  0  0  0
  -26.2124  -29.6034   20.7252 C   0  0  0  0  0  0  0  0  0  0  0  0
  -28.8111  -29.2136   25.5060 C   0  0  0  0  0  0  0  0  0  0  0  0
  -25.0097  -28.8935   20.6004 C   0  0  0  0  0  0  0  0  0  0  0  0
  -27.0850  -19.7940   12.9793 C   0  0  0  0  0  0  0  0  0  0  0  0
  -28.0370  -18.9118   15.4487 C   0  0  0  0  0  0  0  0  0  0  0  0
  -25.9214   -9.6714   19.6758 C   0  0  0  0  0  0  0  0  0  0  0  0
  -26.0703  -27.4025   18.9997 C   0  0  0  0  0  0  0  0  0  0  0  0
  -23.8979   -8.7870   20.4795 C   0  0  0  0  0  0  0  0  0  0  0  0
  -21.6857   -9.0192   22.1632 C   0  0  0  0  0  0  0  0  0  0  0  0
  -23.6517   -7.8119   21.4460 C   0  0  0  0  0  0  0  0  0  0  0  0
  -28.7974  -12.7725   19.7743 C   0  0  0  0  0  0  0  0  0  0  0  0
  -30.6710  -13.9218   19.8335 C   0  0  0  0  0  0  0  0  0  0  0  0
  -26.2282  -21.8855   14.0464 C   0  0  0  0  0  0  0  0  0  0  0  0
  -26.7836  -23.0672   14.3604 C   0  0  0  0  0  0  0  0  0  0  0  0
  -24.8536  -25.3752   16.2448 C   0  0  0  0  0  0  0  0  0  0  0  0
  -25.9958  -25.0599   15.6138 C   0  0  0  0  0  0  0  0  0  0  0  0
  -30.9988  -11.4437   19.8317 C   0  0  0  0  0  0  0  0  0  0  0  0
  -25.5749  -29.8263   23.8312 C   0  0  0  0  0  0  0  0  0  0  0  0
  -22.8065  -31.1433   22.7712 C   0  0  0  0  0  0  0  0  0  0  0  0
  -20.5294  -31.4628   20.2494 C   0  0  0  0  0  0  0  0  0  0  0  0
  -28.4292  -19.1228   17.9282 C   0  0  0  0  0  0  0  0  0  0  0  0
  -28.9314  -30.6897   27.5791 C   0  0  0  0  0  0  0  0  0  0  0  0
  -26.2970  -30.8067   21.6237 C   0  0  0  0  0  0  0  0  0  0  0  0
  -23.7769  -29.2796   21.3747 C   0  0  0  0  0  0  0  0  0  0  0  0
  -27.4488  -30.9755   27.3540 C   0  0  0  0  0  0  0  0  0  0  0  0
  -29.4594  -18.3350   21.2441 C   0  0  0  0  0  0  0  0  0  0  0  0
  -26.7306  -29.7198   26.8702 C   0  0  0  0  0  0  0  0  0  0  0  0
  -29.5399  -16.8068   21.2454 C   0  0  0  0  0  0  0  0  0  0  0  0
  -28.2957  -18.8410   20.3935 C   0  0  0  0  0  0  0  0  0  0  0  0
  -28.3408  -16.7959   19.0207 C   0  0  0  0  0  0  0  0  0  0  0  0
  -27.2982  -29.2419   25.5282 C   0  0  1  0  0  0  0  0  0  0  0  0
  -25.2498  -30.7988   22.7330 C   0  0  1  0  0  0  0  0  0  0  0  0
  -29.5368  -16.2411   19.8116 C   0  0  2  0  0  0  0  0  0  0  0  0
  -26.5882  -20.2351   11.6400 C   0  0  0  0  0  0  0  0  0  0  0  0
  -26.7262  -25.2945   13.2427 C   0  0  0  0  0  0  0  0  0  0  0  0
  -18.3510  -32.5768   19.6917 C   0  0  0  0  0  0  0  0  0  0  0  0
  -21.3241  -29.0926   24.4762 C   0  0  0  0  0  0  0  0  0  0  0  0
  -19.2500  -29.6123   23.1738 C   0  0  0  0  0  0  0  0  0  0  0  0
  -20.3485  -31.3947   24.5300 C   0  0  0  0  0  0  0  0  0  0  0  0
  -21.7438  -32.9808   18.0178 C   0  0  0  0  0  0  0  0  0  0  0  0
  -24.7291  -26.0458   17.5797 C   0  0  0  0  0  0  0  0  0  1  0  0
  -26.0455  -24.3819   14.2655 C   0  0  1  0  0  0  0  0  0  0  0  0
  -21.4459  -30.6108   22.3915 C   0  0  1  0  0  0  0  0  0  0  0  0
  -19.8670  -32.6849   19.6392 C   0  0  2  0  0  0  0  0  0  0  0  0
  -20.6158  -30.1689   23.6296 C   0  0  0  0  0  0  0  0  0  0  0  0
  -28.4067  -14.0497   19.7689 N   0  0  0  0  0  0  0  0  0  0  0  0
  -29.5685  -14.7242   19.8056 N   0  0  0  0  0  0  0  0  0  0  0  0
  -23.9116  -30.4596   22.2447 N   0  0  0  0  0  0  0  0  0  0  0  0
  -28.3606  -18.2669   19.0478 N   0  0  0  0  0  0  0  0  0  0  0  0
  -31.9186  -14.4360   19.8716 N   0  0  0  0  0  0  0  0  0  0  0  0
  -30.3510  -10.2011   19.8074 N   0  0  0  0  0  0  0  0  0  0  0  0
  -28.5201  -18.4632   16.7029 N   0  0  0  0  0  0  0  0  0  0  0  0
  -26.7909  -30.0575   24.4457 N   0  0  0  0  0  0  0  0  0  0  0  0
  -20.8115  -31.6488   21.5862 N   0  0  0  0  0  0  0  0  0  0  0  0
  -20.2781  -32.8401   18.2152 N   0  3  0  0  0  0  0  0  0  0  0  0
  -32.2515  -11.4821   19.8846 O   0  0  0  0  0  0  0  0  0  0  0  0
  -24.7808  -28.9332   24.1021 O   0  0  0  0  0  0  0  0  0  0  0  0
  -22.8858  -32.1338   23.5021 O   0  0  0  0  0  0  0  0  0  0  0  0
  -20.7690  -30.4438   19.6055 O   0  0  0  0  0  0  0  0  0  0  0  0
  -28.4363  -20.3505   18.0494 O   0  0  0  0  0  0  0  0  0  0  0  0
  -24.9961   -8.6737   19.6435 O   0  0  0  0  0  0  0  0  0  0  0  0
  -25.9989  -26.3296   18.1656 O   0  0  0  0  0  0  0  0  0  1  0  0
  -20.6243   -9.1315   22.9725 F   0  0  0  0  0  0  0  0  0  0  0  0
  -24.4749   -6.7619   21.5713 F   0  0  0  0  0  0  0  0  0  0  0  0
  1  2  1  0  0  0  0
  1  5  2  0  0  0  0
  2  6  2  0  0  0  0
  3 10  2  0  0  0  0
  3 18  1  0  0  0  0
  4 11  1  0  0  0  0
  4 18  2  0  0  0  0
  5 21  1  0  0  0  0
  6 23  1  0  0  0  0
  7 12  2  0  0  0  0
  7 22  1  0  0  0  0
  8  9  2  0  0  0  0
  8 25  1  0  0  0  0
  9 26  1  0  0  0  0
 10 27  1  0  0  0  0
 11 27  2  0  0  0  0
 12 28  1  0  0  0  0
 13 14  2  0  0  0  0
 13 29  1  0  0  0  0
 14 30  1  0  0  0  0
 15 19  1  0  0  0  0
 15 26  2  0  0  0  0
 16 24  1  0  0  0  0
 16 28  2  0  0  0  0
 17 30  2  0  0  0  0
 17 31  1  0  0  0  0
 18 32  1  0  0  0  0
 19 25  2  0  0  0  0
 19 34  1  0  0  0  0
 20 32  1  0  0  0  0
 20 33  2  0  0  0  0
 20 38  1  0  0  0  0
 21 23  2  0  0  0  0
 21 43  1  0  0  0  0
 22 24  2  0  0  0  0
 22 44  1  0  0  0  0
 23 52  1  0  0  0  0
 24 45  1  0  0  0  0
 25 55  1  0  0  0  0
 26 73  1  0  0  0  0
 27 82  1  0  0  0  0
 28 83  1  0  0  0  0
 29 31  2  0  0  0  0
 29 82  1  0  0  0  0
 30 84  1  0  0  0  0
 31 85  1  0  0  0  0
 32 67  2  0  0  0  0
 33 68  1  0  0  0  0
 33 71  1  0  0  0  0
 34 35  2  0  0  0  0
 35 63  1  0  0  0  0
 36 37  2  0  0  0  0
 36 62  1  0  0  0  0
 37 63  1  0  0  0  0
 38 72  1  0  0  0  0
 38 77  2  0  0  0  0
 39 53  1  0  0  0  0
 39 74  1  0  0  0  0
 39 78  2  0  0  0  0
 40 64  1  0  0  0  0
 40 69  1  0  0  0  0
 40 79  2  0  0  0  0
 41 65  1  0  0  0  0
 41 75  1  0  0  0  0
 41 80  2  0  0  0  0
 42 70  1  0  0  0  0
 42 73  1  0  0  0  0
 42 81  2  0  0  0  0
 43 46  1  0  0  0  0
 44 53  1  0  0  0  0
 45 69  1  0  0  0  0
 46 48  1  0  0  0  0
 47 49  1  0  0  0  0
 47 50  1  0  0  0  0
 48 52  1  0  0  0  0
 49 54  1  0  0  0  0
 50 70  1  0  0  0  0
 51 54  1  0  0  0  0
 51 70  1  0  0  0  0
 52 74  1  0  0  0  0
 53 69  1  0  0  0  0
 54 68  1  0  0  0  0
 56 63  1  0  0  0  0
 57 65  1  0  0  0  0
 58 66  1  0  0  0  0
 59 66  1  0  0  0  0
 60 66  1  0  0  0  0
 61 76  1  0  0  0  0
 62 83  1  0  0  0  0
 64 66  1  0  0  0  0
 64 75  1  0  0  0  0
 65 76  1  0  0  0  0
 67 68  1  0  0  0  0
M  CHG  1  76   1
M  ISO  4  42 100  62 101  73 100  83 101
M  END
> <Batch ID>
0123

> <Smiles>
CNC(C)C(=O)NC(C(=O)N1Cc2cc([101O:1][101CH2:1]C=CC(C)C=Cc3cc([100NH:0][100C:0](=O)N4CCCC(n5nc(-c6ccc(Oc7ccc(F)cc7F)cc6)c(C(N)=O)c5N)C4)ccc3C)ccc2CC1C(=O)NC1CCCc2ccccc21)C(C)(C)C

> <Shape>
0.231

> <Color>
0.084

> <Negative vol penalty>
0.000

$$$$

  -OEChem-04052302033D

 85 93  0     1  0  0  0  0  0999 V2000
  -23.4623   -7.4260   22.6635 C   0  0  0  0  0  0  0  0  0  0  0  0
  -24.1395   -8.2920   21.8109 C   0  0  0  0  0  0  0  0  0  0  0  0
  -24.8716  -31.5078   21.0024 C   0  0  0  0  0  0  0  0  0  0  0  0
  -24.9202  -30.2248   23.0490 C   0  0  0  0  0  0  0  0  0  0  0  0
  -27.8071  -19.1204   20.6848 C   0  0  0  0  0  0  0  0  0  0  0  0
  -22.1472   -7.7023   23.0351 C   0  0  0  0  0  0  0  0  0  0  0  0
  -23.5015   -9.4342   21.3285 C   0  0  0  0  0  0  0  0  0  0  0  0
  -26.4442  -13.5488   21.5634 C   0  0  0  0  0  0  0  0  0  0  0  0
  -27.1468  -20.2326   20.1626 C   0  0  0  0  0  0  0  0  0  0  0  0
  -24.2406  -32.5550   21.6737 C   0  0  0  0  0  0  0  0  0  0  0  0
  -24.2891  -31.2720   23.7204 C   0  0  0  0  0  0  0  0  0  0  0  0
  -27.4227  -13.6888   20.5802 C   0  0  0  0  0  0  0  0  0  0  0  0
  -22.9419  -35.7091   22.9307 C   0  0  0  0  0  0  0  0  0  0  0  0
  -23.4085  -37.0029   22.6986 C   0  0  0  0  0  0  0  0  0  0  0  0
  -25.9979  -15.2292   19.3902 C   0  0  0  0  0  0  0  0  0  0  0  0
  -28.9780  -21.6465   20.8588 C   0  0  0  0  0  0  0  0  0  0  0  0
  -25.5880  -36.3648   23.5231 C   0  0  0  0  0  0  0  0  0  0  0  0
  -25.2114  -30.3427   21.6900 C   0  0  0  0  0  0  0  0  0  0  0  0
  -29.0528  -19.2712   21.2941 C   0  0  0  0  0  0  0  0  0  0  0  0
  -27.2477  -29.0625   20.8402 C   0  0  0  0  0  0  0  0  0  0  0  0
  -21.4960   -8.8535   22.5646 C   0  0  0  0  0  0  0  0  0  0  0  0
  -25.2288  -14.2407   21.4617 C   0  0  0  0  0  0  0  0  0  0  0  0
  -22.1760   -9.7254   21.6930 C   0  0  0  0  0  0  0  0  0  0  0  0
  -25.0067  -15.0983   20.3747 C   0  0  0  0  0  0  0  0  0  0  0  0
  -29.6382  -20.5343   21.3811 C   0  0  0  0  0  0  0  0  0  0  0  0
  -27.7323  -21.4956   20.2496 C   0  0  0  0  0  0  0  0  0  0  0  0
  -23.9493  -32.4371   23.0328 C   0  0  0  0  0  0  0  0  0  0  0  0
  -27.1985  -14.5269   19.4919 C   0  0  0  0  0  0  0  0  0  0  0  0
  -23.7983  -34.7431   23.4591 C   0  0  0  0  0  0  0  0  0  0  0  0
  -24.7315  -37.3308   22.9948 C   0  0  0  0  0  0  0  0  0  0  0  0
  -25.1213  -35.0710   23.7553 C   0  0  0  0  0  0  0  0  0  0  0  0
  -25.8628  -29.2604   20.9969 C   0  0  0  0  0  0  0  0  0  0  0  0
  -27.3486  -27.9025   20.1117 C   0  0  0  0  0  0  0  0  0  0  0  0
  -30.0468  -16.9769   20.8752 C   0  0  0  0  0  0  0  0  0  0  0  0
  -30.3112  -17.2535   19.5912 C   0  0  0  0  0  0  0  0  0  0  0  0
  -29.7346  -18.0664   21.8436 C   0  0  0  0  0  0  0  0  0  0  0  0
  -28.3449  -29.8562   21.3112 C   0  0  0  0  0  0  0  0  0  0  0  0
  -22.1769  -13.3887   21.2100 C   0  0  0  0  0  0  0  0  0  0  0  0
  -21.6663  -16.5783   21.5060 C   0  0  0  0  0  0  0  0  0  0  0  0
  -22.8767  -19.7505   21.1608 C   0  0  0  0  0  0  0  0  0  0  0  0
  -25.8200  -22.6482   19.0829 C   0  0  0  0  0  0  0  0  0  0  0  0
  -20.0580   -9.0853   22.9561 C   0  0  0  0  0  0  0  0  0  0  0  0
  -24.1943  -14.0996   22.5444 C   0  0  0  0  0  0  0  0  0  0  0  0
  -23.7269  -15.8790   20.2292 C   0  0  0  0  0  0  0  0  0  0  0  0
  -19.5794  -10.5120   22.6999 C   0  0  0  0  0  0  0  0  0  0  0  0
  -23.8116  -25.2272   17.6715 C   0  0  0  0  0  0  0  0  0  0  0  0
  -19.9992  -10.9741   21.3081 C   0  0  0  0  0  0  0  0  0  0  0  0
  -24.2802  -26.4901   18.3979 C   0  0  0  0  0  0  0  0  0  0  0  0
  -23.8003  -24.0119   18.5969 C   0  0  0  0  0  0  0  0  0  0  0  0
  -25.5303  -25.0215   20.0311 C   0  0  0  0  0  0  0  0  0  0  0  0
  -21.5262  -10.9875   21.1685 C   0  0  1  0  0  0  0  0  0  0  0  0
  -22.7866  -14.4547   22.0757 C   0  0  1  0  0  0  0  0  0  0  0  0
  -25.6204  -26.2588   19.1230 C   0  0  2  0  0  0  0  0  0  0  0  0
  -30.9707  -20.7238   22.0296 C   0  0  0  0  0  0  0  0  0  0  0  0
  -22.2133  -22.1539   21.4456 C   0  0  0  0  0  0  0  0  0  0  0  0
  -20.0252  -16.4272   18.9381 C   0  0  0  0  0  0  0  0  0  0  0  0
  -20.1983  -18.9187   18.7633 C   0  0  0  0  0  0  0  0  0  0  0  0
  -19.0448  -17.8845   20.7185 C   0  0  0  0  0  0  0  0  0  0  0  0
  -24.9943  -20.2170   23.1749 C   0  0  0  0  0  0  0  0  0  0  0  0
  -30.6406  -16.2003   18.5721 C   0  0  0  0  0  0  0  0  0  0  0  0
  -29.6477  -16.1684   17.4093 C   0  0  0  0  0  0  0  0  0  0  0  0
  -28.2100  -15.9171   17.8487 C   0  0  0  0  0  0  0  0  0  1  0  0
  -21.5629  -17.7382   20.5452 C   0  0  1  0  0  0  0  0  0  0  0  0
  -22.8597  -20.9429   22.1001 C   0  0  2  0  0  0  0  0  0  0  0  0
  -20.2312  -17.7261   19.7427 C   0  0  0  0  0  0  0  0  0  0  0  0
  -25.1360  -28.3029   20.4145 N   0  0  0  0  0  0  0  0  0  0  0  0
  -30.0698  -18.0372   23.0941 N   0  0  0  0  0  0  0  0  0  0  0  0
  -26.0678  -27.4923   19.8847 N   0  0  0  0  0  0  0  0  0  0  0  0
  -22.7436  -15.7025   21.3106 N   0  0  0  0  0  0  0  0  0  0  0  0
  -25.1037  -23.8529   19.2455 N   0  0  0  0  0  0  0  0  0  0  0  0
  -28.4071  -27.2037   19.6493 N   0  0  0  0  0  0  0  0  0  0  0  0
  -28.0635  -31.0169   22.0447 N   0  0  0  0  0  0  0  0  0  0  0  0
  -27.0608  -22.6249   19.7188 N   0  0  0  0  0  0  0  0  0  0  0  0
  -22.0832  -12.1529   21.8211 N   0  0  0  0  0  0  0  0  0  0  0  0
  -21.7718  -18.9449   21.3381 N   0  0  0  0  0  0  0  0  0  0  0  0
  -24.2486  -21.3089   22.4977 N   0  3  0  0  0  0  0  0  0  0  0  0
  -29.5392  -29.5541   21.0743 O   0  0  0  0  0  0  0  0  0  0  0  0
  -21.8166  -13.6671   20.0722 O   0  0  0  0  0  0  0  0  0  0  0  0
  -20.8264  -16.4580   22.4014 O   0  0  0  0  0  0  0  0  0  0  0  0
  -23.7779  -19.5554   20.3482 O   0  0  0  0  0  0  0  0  0  0  0  0
  -25.3780  -21.7168   18.4053 O   0  0  0  0  0  0  0  0  0  0  0  0
  -23.3338  -33.4588   23.6883 O   0  0  0  0  0  0  0  0  0  0  0  0
  -28.1516  -14.6648   18.5304 O   0  0  0  0  0  0  0  0  0  1  0  0
  -25.1799  -38.5729   22.7703 F   0  0  0  0  0  0  0  0  0  0  0  0
  -25.9491  -34.1469   24.2620 F   0  0  0  0  0  0  0  0  0  0  0  0
  1  2  1  0  0  0  0
  1  6  2  0  0  0  0
  2  7  2  0  0  0  0
  3 10  2  0  0  0  0
  3 18  1  0  0  0  0
  4 11  1  0  0  0  0
  4 18  2  0  0  0  0
  5  9  2  0  0  0  0
  5 19  1  0  0  0  0
  6 21  1  0  0  0  0
  7 23  1  0  0  0  0
  8 12  2  0  0  0  0
  8 22  1  0  0  0  0
  9 26  1  0  0  0  0
 10 27  1  0  0  0  0
 11 27  2  0  0  0  0
 12 28  1  0  0  0  0
 13 14  2  0  0  0  0
 13 29  1  0  0  0  0
 14 30  1  0  0  0  0
 15 24  1  0  0  0  0
 15 28  2  0  0  0  0
 16 25  1  0  0  0  0
 16 26  2  0  0  0  0
 17 30  2  0  0  0  0
 17 31  1  0  0  0  0
 18 32  1  0  0  0  0
 19 25  2  0  0  0  0
 19 36  1  0  0  0  0
 20 32  1  0  0  0  0
 20 33  2  0  0  0  0
 20 37  1  0  0  0  0
 21 23  2  0  0  0  0
 21 42  1  0  0  0  0
 22 24  2  0  0  0  0
 22 43  1  0  0  0  0
 23 51  1  0  0  0  0
 24 44  1  0  0  0  0
 25 54  1  0  0  0  0
 26 73  1  0  0  0  0
 27 82  1  0  0  0  0
 28 83  1  0  0  0  0
 29 31  2  0  0  0  0
 29 82  1  0  0  0  0
 30 84  1  0  0  0  0
 31 85  1  0  0  0  0
 32 66  2  0  0  0  0
 33 68  1  0  0  0  0
 33 71  1  0  0  0  0
 34 35  2  0  0  0  0
 34 36  1  0  0  0  0
 35 60  1  0  0  0  0
 36 67  2  0  0  0  0
 37 72  1  0  0  0  0
 37 77  2  0  0  0  0
 38 52  1  0  0  0  0
 38 74  1  0  0  0  0
 38 78  2  0  0  0  0
 39 63  1  0  0  0  0
 39 69  1  0  0  0  0
 39 79  2  0  0  0  0
 40 64  1  0  0  0  0
 40 75  1  0  0  0  0
 40 80  2  0  0  0  0
 41 70  1  0  0  0  0
 41 73  1  0  0  0  0
 41 81  2  0  0  0  0
 42 45  1  0  0  0  0
 43 52  1  0  0  0  0
 44 69  1  0  0  0  0
 45 47  1  0  0  0  0
 46 48  1  0  0  0  0
 46 49  1  0  0  0  0
 47 51  1  0  0  0  0
 48 53  1  0  0  0  0
 49 70  1  0  0  0  0
 50 53  1  0  0  0  0
 50 70  1  0  0  0  0
 51 74  1  0  0  0  0
 52 69  1  0  0  0  0
 53 68  1  0  0  0  0
 55 64  1  0  0  0  0
 56 65  1  0  0  0  0
 57 65  1  0  0  0  0
 58 65  1  0  0  0  0
 59 76  1  0  0  0  0
 60 61  1  0  0  0  0
 61 62  1  0  0  0  0
 62 83  1  0  0  0  0
 63 65  1  0  0  0  0
 63 75  1  0  0  0  0
 64 76  1  0  0  0  0
 66 68  1  0  0  0  0
M  CHG  1  76   1
M  ISO  4  41 100  62 101  73 100  83 101
M  END
> <Batch ID>
0123

> <Smiles>
CNC(C)C(=O)NC(C(=O)N1Cc2cc([101O:1][101CH2:1]CCC=CC(=N)c3ccc([100NH:0][100C:0](=O)N4CCCC(n5nc(-c6ccc(Oc7ccc(F)cc7F)cc6)c(C(N)=O)c5N)C4)cc3C)ccc2CC1C(=O)NC1CCCc2ccccc21)C(C)(C)C

> <Shape>
0.257

> <Color>
0.053

> <Negative vol penalty>
0.000

$$$$

  -OEChem-04052302033D

 85 93  0     1  0  0  0  0  0999 V2000
  -36.1923  -19.0806   14.2866 C   0  0  0  0  0  0  0  0  0  0  0  0
  -23.0311  -20.2316   19.9166 C   0  0  0  0  0  0  0  0  0  0  0  0
  -24.1105  -20.3513   19.0471 C   0  0  0  0  0  0  0  0  0  0  0  0
  -23.2821   -9.7517   19.9699 C   0  0  0  0  0  0  0  0  0  0  0  0
  -23.7342   -9.9660   22.3335 C   0  0  0  0  0  0  0  0  0  0  0  0
  -33.7844  -15.9250   16.3518 C   0  0  0  0  0  0  0  0  0  0  0  0
  -35.0744  -16.2323   15.9197 C   0  0  0  0  0  0  0  0  0  0  0  0
  -23.2226  -20.3861   21.2889 C   0  0  0  0  0  0  0  0  0  0  0  0
  -25.3818  -20.6267   19.5494 C   0  0  0  0  0  0  0  0  0  0  0  0
  -30.7252  -18.5778   17.3685 C   0  0  0  0  0  0  0  0  0  0  0  0
  -22.5583   -8.5846   20.2141 C   0  0  0  0  0  0  0  0  0  0  0  0
  -23.0103   -8.7989   22.5778 C   0  0  0  0  0  0  0  0  0  0  0  0
  -31.6824  -19.1564   16.5361 C   0  0  0  0  0  0  0  0  0  0  0  0
  -20.9776   -6.0730   23.8644 C   0  0  0  0  0  0  0  0  0  0  0  0
  -20.0768   -6.0786   24.9293 C   0  0  0  0  0  0  0  0  0  0  0  0
  -33.0201  -15.9102   14.0600 C   0  0  0  0  0  0  0  0  0  0  0  0
  -32.9442  -19.8429   18.4740 C   0  0  0  0  0  0  0  0  0  0  0  0
  -18.8629   -7.8922   23.8928 C   0  0  0  0  0  0  0  0  0  0  0  0
  -23.8701  -10.4423   21.0296 C   0  0  0  0  0  0  0  0  0  0  0  0
  -32.7571  -15.7638   15.4220 C   0  0  0  0  0  0  0  0  0  0  0  0
  -35.3374  -16.3786   14.5577 C   0  0  0  0  0  0  0  0  0  0  0  0
  -24.1243  -12.9655   20.7531 C   0  0  0  0  0  0  0  0  0  0  0  0
  -24.4986  -20.6539   21.8092 C   0  0  0  0  0  0  0  0  0  0  0  0
  -30.8651  -18.6371   18.7626 C   0  0  0  0  0  0  0  0  0  0  0  0
  -25.5903  -20.7862   20.9299 C   0  0  0  0  0  0  0  0  0  0  0  0
  -31.9887  -19.2621   19.3219 C   0  0  0  0  0  0  0  0  0  0  0  0
  -34.3102  -16.2176   13.6278 C   0  0  0  0  0  0  0  0  0  0  0  0
  -22.4223   -8.1083   21.5180 C   0  0  0  0  0  0  0  0  0  0  0  0
  -32.7905  -19.7916   17.0888 C   0  0  0  0  0  0  0  0  0  0  0  0
  -20.8211   -6.9770   22.8137 C   0  0  0  0  0  0  0  0  0  0  0  0
  -19.0194   -6.9882   24.9435 C   0  0  0  0  0  0  0  0  0  0  0  0
  -19.7637   -7.8866   22.8279 C   0  0  0  0  0  0  0  0  0  0  0  0
  -24.6185  -11.6476   20.7778 C   0  0  0  0  0  0  0  0  0  0  0  0
  -25.2240  -13.7394   20.4734 C   0  0  0  0  0  0  0  0  0  0  0  0
  -37.0622  -18.1529   14.0166 C   0  0  0  0  0  0  0  0  0  0  0  0
  -35.3234  -20.0118   14.5563 C   0  0  0  0  0  0  0  0  0  0  0  0
  -31.4123  -15.4431   15.8739 C   0  0  0  0  0  0  0  0  0  0  0  0
  -31.0953  -14.9100   17.0730 C   0  0  0  0  0  0  0  0  0  0  0  0
  -36.7220  -16.7059   14.1250 C   0  0  0  0  0  0  0  0  0  0  0  0
  -22.7904  -13.4472   20.9641 C   0  0  0  0  0  0  0  0  0  0  0  0
  -29.6764  -14.6500   17.3893 C   0  0  0  0  0  0  0  0  0  0  0  0
  -29.1736  -19.9084   21.1346 C   0  0  0  0  0  0  0  0  0  0  0  0
  -31.3515  -18.3773   22.9879 C   0  0  0  0  0  0  0  0  0  0  0  0
  -34.4734  -17.0292   23.2764 C   0  0  0  0  0  0  0  0  0  0  0  0
  -24.6479  -20.8597   23.2958 C   0  0  0  0  0  0  0  0  0  0  0  0
  -29.8375  -17.9848   19.6462 C   0  0  0  0  0  0  0  0  0  0  0  0
  -32.1959  -19.3353   20.8120 C   0  0  0  0  0  0  0  0  0  0  0  0
  -26.0935  -20.7789   23.7797 C   0  0  0  0  0  0  0  0  0  0  0  0
  -30.1352  -12.5976   20.3908 C   0  0  0  0  0  0  0  0  0  0  0  0
  -27.0063  -21.5994   22.8739 C   0  0  0  0  0  0  0  0  0  0  0  0
  -28.6897  -12.2386   20.7248 C   0  0  0  0  0  0  0  0  0  0  0  0
  -30.3656  -12.6986   18.8837 C   0  0  0  0  0  0  0  0  0  0  0  0
  -27.9812  -13.2747   18.5328 C   0  0  0  0  0  0  0  0  0  0  0  0
  -26.9890  -21.0598   21.4386 C   0  0  1  0  0  0  0  0  0  0  0  0
  -29.8191  -18.5535   21.0617 C   0  0  1  0  0  0  0  0  0  0  0  0
  -27.7156  -13.2139   20.0451 C   0  0  1  0  0  0  0  0  0  0  0  0
  -34.5655  -16.3682   12.1633 C   0  0  0  0  0  0  0  0  0  0  0  0
  -36.3826  -15.7794   24.3206 C   0  0  0  0  0  0  0  0  0  0  0  0
  -31.8723  -21.0497   24.3654 C   0  0  0  0  0  0  0  0  0  0  0  0
  -33.9861  -20.0803   25.2930 C   0  0  0  0  0  0  0  0  0  0  0  0
  -31.7839  -19.0816   25.9060 C   0  0  0  0  0  0  0  0  0  0  0  0
  -33.5179  -14.4415   22.2041 C   0  0  0  0  0  0  0  0  0  0  0  0
  -33.9183  -19.7642   14.9952 C   0  0  0  0  0  0  0  0  0  1  0  0
  -32.6962  -18.7344   23.5738 C   0  0  1  0  0  0  0  0  0  0  0  0
  -34.9478  -15.6950   23.8236 C   0  0  2  0  0  0  0  0  0  0  0  0
  -32.5801  -19.7370   24.7565 C   0  0  0  0  0  0  0  0  0  0  0  0
  -25.9300  -11.5841   20.5332 N   0  0  0  0  0  0  0  0  0  0  0  0
  -37.5507  -15.7388   13.8917 N   0  0  0  0  0  0  0  0  0  0  0  0
  -26.2692  -12.8718   20.3521 N   0  0  0  0  0  0  0  0  0  0  0  0
  -29.3852  -13.5915   18.2480 N   0  0  0  0  0  0  0  0  0  0  0  0
  -31.1602  -18.6881   21.6342 N   0  0  0  0  0  0  0  0  0  0  0  0
  -25.3891  -15.0707   20.3219 N   0  0  0  0  0  0  0  0  0  0  0  0
  -21.7799  -12.5163   21.2410 N   0  0  0  0  0  0  0  0  0  0  0  0
  -27.8071  -19.8704   21.3359 N   0  0  0  0  0  0  0  0  0  0  0  0
  -33.3381  -17.4714   23.9220 N   0  0  0  0  0  0  0  0  0  0  0  0
  -34.8776  -14.6470   22.7663 N   0  3  0  0  0  0  0  0  0  0  0  0
  -22.5000  -14.6654   20.8925 O   0  0  0  0  0  0  0  0  0  0  0  0
  -28.8342  -15.3841   16.8693 O   0  0  0  0  0  0  0  0  0  0  0  0
  -29.8645  -20.9138   21.0183 O   0  0  0  0  0  0  0  0  0  0  0  0
  -30.5048  -17.8359   23.7031 O   0  0  0  0  0  0  0  0  0  0  0  0
  -35.0541  -17.6217   22.3697 O   0  0  0  0  0  0  0  0  0  0  0  0
  -21.7158   -6.9697   21.7568 O   0  0  0  0  0  0  0  0  0  0  0  0
  -33.7259  -20.3577   16.2786 O   0  0  0  0  0  0  0  0  0  1  0  0
  -18.1535   -6.9925   25.9655 F   0  0  0  0  0  0  0  0  0  0  0  0
  -19.6076   -8.7568   21.8208 F   0  0  0  0  0  0  0  0  0  0  0  0
  1 35  2  0  0  0  0
  1 36  2  0  0  0  0
  2  3  1  0  0  0  0
  2  8  2  0  0  0  0
  3  9  2  0  0  0  0
  4 11  2  0  0  0  0
  4 19  1  0  0  0  0
  5 12  1  0  0  0  0
  5 19  2  0  0  0  0
  6  7  2  0  0  0  0
  6 20  1  0  0  0  0
  7 21  1  0  0  0  0
  8 23  1  0  0  0  0
  9 25  1  0  0  0  0
 10 13  2  0  0  0  0
 10 24  1  0  0  0  0
 11 28  1  0  0  0  0
 12 28  2  0  0  0  0
 13 29  1  0  0  0  0
 14 15  2  0  0  0  0
 14 30  1  0  0  0  0
 15 31  1  0  0  0  0
 16 20  2  0  0  0  0
 16 27  1  0  0  0  0
 17 26  1  0  0  0  0
 17 29  2  0  0  0  0
 18 31  2  0  0  0  0
 18 32  1  0  0  0  0
 19 33  1  0  0  0  0
 20 37  1  0  0  0  0
 21 27  2  0  0  0  0
 21 39  1  0  0  0  0
 22 33  1  0  0  0  0
 22 34  2  0  0  0  0
 22 40  1  0  0  0  0
 23 25  2  0  0  0  0
 23 45  1  0  0  0  0
 24 26  2  0  0  0  0
 24 46  1  0  0  0  0
 25 54  1  0  0  0  0
 26 47  1  0  0  0  0
 27 57  1  0  0  0  0
 28 82  1  0  0  0  0
 29 83  1  0  0  0  0
 30 32  2  0  0  0  0
 30 82  1  0  0  0  0
 31 84  1  0  0  0  0
 32 85  1  0  0  0  0
 33 67  2  0  0  0  0
 34 69  1  0  0  0  0
 34 72  1  0  0  0  0
 35 39  1  0  0  0  0
 36 63  1  0  0  0  0
 37 38  2  0  0  0  0
 38 41  1  0  0  0  0
 39 68  2  0  0  0  0
 40 73  1  0  0  0  0
 40 77  2  0  0  0  0
 41 70  1  0  0  0  0
 41 78  2  0  0  0  0
 42 55  1  0  0  0  0
 42 74  1  0  0  0  0
 42 79  2  0  0  0  0
 43 64  1  0  0  0  0
 43 71  1  0  0  0  0
 43 80  2  0  0  0  0
 44 65  1  0  0  0  0
 44 75  1  0  0  0  0
 44 81  2  0  0  0  0
 45 48  1  0  0  0  0
 46 55  1  0  0  0  0
 47 71  1  0  0  0  0
 48 50  1  0  0  0  0
 49 51  1  0  0  0  0
 49 52  1  0  0  0  0
 50 54  1  0  0  0  0
 51 56  1  0  0  0  0
 52 70  1  0  0  0  0
 53 56  1  0  0  0  0
 53 70  1  0  0  0  0
 54 74  1  0  0  0  0
 55 71  1  0  0  0  0
 56 69  1  0  0  0  0
 58 65  1  0  0  0  0
 59 66  1  0  0  0  0
 60 66  1  0  0  0  0
 61 66  1  0  0  0  0
 62 76  1  0  0  0  0
 63 83  1  0  0  0  0
 64 66  1  0  0  0  0
 64 75  1  0  0  0  0
 65 76  1  0  0  0  0
 67 69  1  0  0  0  0
M  CHG  1  76   1
M  ISO  4  38 100  41 100  63 101  83 101
M  END
> <Batch ID>
0123

> <Smiles>
CNC(C)C(=O)NC(C(=O)N1Cc2cc([101O:1][101CH2:1]C=C=CC(=N)c3ccc(C=[100CH:0][100C:0](=O)N4CCCC(n5nc(-c6ccc(Oc7ccc(F)cc7F)cc6)c(C(N)=O)c5N)C4)cc3C)ccc2CC1C(=O)NC1CCCc2ccccc21)C(C)(C)C

> <Shape>
0.167

> <Color>
0.180

> <Negative vol penalty>
0.000

$$$$

  -OEChem-04052302033D

 87 96  0     1  0  0  0  0  0999 V2000
  -28.6668  -37.2506   22.5098 C   0  0  0  0  0  0  0  0  0  0  0  0
  -28.9975  -35.9347   22.2025 C   0  0  0  0  0  0  0  0  0  0  0  0
  -23.4920   -9.9795   22.0241 C   0  0  0  0  0  0  0  0  0  0  0  0
  -22.8873  -12.1632   21.1859 C   0  0  0  0  0  0  0  0  0  0  0  0
  -30.8028  -18.7705   20.0417 C   0  0  0  0  0  0  0  0  0  0  0  0
  -27.5053  -37.5262   23.2302 C   0  0  0  0  0  0  0  0  0  0  0  0
  -28.1674  -34.8935   22.6163 C   0  0  0  0  0  0  0  0  0  0  0  0
  -27.0397  -29.6719   19.6215 C   0  0  0  0  0  0  0  0  0  0  0  0
  -30.6968  -17.3810   19.9817 C   0  0  0  0  0  0  0  0  0  0  0  0
  -22.4364  -10.0364   22.9341 C   0  0  0  0  0  0  0  0  0  0  0  0
  -21.8316  -12.2201   22.0959 C   0  0  0  0  0  0  0  0  0  0  0  0
  -27.5625  -28.3857   19.7490 C   0  0  0  0  0  0  0  0  0  0  0  0
  -19.6809   -9.4514   25.2320 C   0  0  0  0  0  0  0  0  0  0  0  0
  -18.8824   -8.3162   25.3707 C   0  0  0  0  0  0  0  0  0  0  0  0
  -28.6465  -18.9812   18.9727 C   0  0  0  0  0  0  0  0  0  0  0  0
  -25.6968  -27.7728   21.1500 C   0  0  0  0  0  0  0  0  0  0  0  0
  -18.2862   -8.4499   23.0332 C   0  0  0  0  0  0  0  0  0  0  0  0
  -23.7175  -11.0429   21.1501 C   0  0  0  0  0  0  0  0  0  0  0  0
  -28.5405  -17.5917   18.9126 C   0  0  0  0  0  0  0  0  0  0  0  0
  -29.7776  -19.5706   19.5373 C   0  0  0  0  0  0  0  0  0  0  0  0
  -24.7744  -10.4727   18.8994 C   0  0  0  0  0  0  0  0  0  0  0  0
  -26.6556  -36.4886   23.6447 C   0  0  0  0  0  0  0  0  0  0  0  0
  -25.8452  -30.0219   20.2673 C   0  0  0  0  0  0  0  0  0  0  0  0
  -26.9942  -35.1554   23.3441 C   0  0  0  0  0  0  0  0  0  0  0  0
  -25.1596  -29.0633   21.0270 C   0  0  0  0  0  0  0  0  0  0  0  0
  -29.5657  -16.7916   19.4171 C   0  0  0  0  0  0  0  0  0  0  0  0
  -21.6062  -11.1567   22.9699 C   0  0  0  0  0  0  0  0  0  0  0  0
  -26.8926  -27.4368   20.5157 C   0  0  0  0  0  0  0  0  0  0  0  0
  -19.7821  -10.0859   23.9939 C   0  0  0  0  0  0  0  0  0  0  0  0
  -18.1851   -7.8154   24.2713 C   0  0  0  0  0  0  0  0  0  0  0  0
  -19.0847   -9.5852   22.8945 C   0  0  0  0  0  0  0  0  0  0  0  0
  -24.8081  -10.9850   20.2103 C   0  0  0  0  0  0  0  0  0  0  0  0
  -26.0532  -10.6474   18.4296 C   0  0  0  0  0  0  0  0  0  0  0  0
  -27.2744  -16.1967   17.2384 C   0  0  0  0  0  0  0  0  0  0  0  0
  -27.3312  -17.0053   18.3081 C   0  0  0  0  0  0  0  0  0  0  0  0
  -29.8898  -21.0382   19.6023 C   0  0  0  0  0  0  0  0  0  0  0  0
  -28.8590  -21.8938   19.5155 C   0  0  0  0  0  0  0  0  0  0  0  0
  -29.0265  -23.3297   19.5774 C   0  0  0  0  0  0  0  0  0  0  0  0
  -28.0032  -24.1925   19.4916 C   0  0  0  0  0  0  0  0  0  0  0  0
  -23.6847   -9.8911   18.1716 C   0  0  0  0  0  0  0  0  0  0  0  0
  -25.0378  -32.1371   22.4984 C   0  0  0  0  0  0  0  0  0  0  0  0
  -22.0332  -31.1165   21.8255 C   0  0  0  0  0  0  0  0  0  0  0  0
  -20.0167  -28.6463   20.6094 C   0  0  0  0  0  0  0  0  0  0  0  0
  -30.4323  -14.4630   19.8331 C   0  0  0  0  0  0  0  0  0  0  0  0
  -25.4355  -36.8321   24.4620 C   0  0  0  0  0  0  0  0  0  0  0  0
  -25.2805  -31.4057   20.0980 C   0  0  0  0  0  0  0  0  0  0  0  0
  -23.8631  -29.3827   21.7238 C   0  0  0  0  0  0  0  0  0  0  0  0
  -25.8739  -15.8211   16.8836 C   0  0  0  0  0  0  0  0  0  0  0  0
  -25.9485  -17.2971   18.8187 C   0  0  0  0  0  0  0  0  0  0  0  0
  -24.4155  -35.6990   24.5397 C   0  0  0  0  0  0  0  0  0  0  0  0
  -25.0908  -16.2422   18.1215 C   0  0  0  0  0  0  0  0  0  0  0  0
  -30.5925  -10.9075   19.9334 C   0  0  0  0  0  0  0  0  0  0  0  0
  -25.1086  -34.3775   24.8558 C   0  0  0  0  0  0  0  0  0  0  0  0
  -29.1245  -10.4771   19.8903 C   0  0  0  0  0  0  0  0  0  0  0  0
  -30.7860  -12.1819   20.7533 C   0  0  0  0  0  0  0  0  0  0  0  0
  -28.4640  -12.8792   20.3158 C   0  0  0  0  0  0  0  0  0  0  0  0
  -26.1064  -34.0005   23.7541 C   0  0  1  0  0  0  0  0  0  0  0  0
  -24.3247  -31.8023   21.2189 C   0  0  1  0  0  0  0  0  0  0  0  0
  -28.2101  -11.6362   19.4474 C   0  0  2  0  0  0  0  0  0  0  0  0
  -17.6011  -28.0869   20.2230 C   0  0  0  0  0  0  0  0  0  0  0  0
  -21.6846  -30.5724   24.8075 C   0  0  0  0  0  0  0  0  0  0  0  0
  -19.6885  -29.1689   24.2471 C   0  0  0  0  0  0  0  0  0  0  0  0
  -19.6951  -31.6017   23.6954 C   0  0  0  0  0  0  0  0  0  0  0  0
  -20.4212  -28.3990   17.6881 C   0  0  0  0  0  0  0  0  0  0  0  0
  -28.1669  -25.6769   19.5488 C   0  0  0  0  0  0  0  0  0  1  0  0
  -21.1346  -30.0208   22.3460 C   0  0  1  0  0  0  0  0  0  0  0  0
  -18.8649  -28.6814   19.6212 C   0  0  2  0  0  0  0  0  0  0  0  0
  -20.5761  -30.3352   23.7626 C   0  0  0  0  0  0  0  0  0  0  0  0
  -26.0129  -11.4501   20.5513 N   0  0  0  0  0  0  0  0  0  0  0  0
  -26.7481  -11.2307   19.4480 N   0  0  0  0  0  0  0  0  0  0  0  0
  -23.3548  -30.7512   21.5330 N   0  0  0  0  0  0  0  0  0  0  0  0
  -29.8905  -13.2371   20.2742 N   0  0  0  0  0  0  0  0  0  0  0  0
  -26.6397  -10.3575   17.2488 N   0  0  0  0  0  0  0  0  0  0  0  0
  -22.4383   -9.7879   18.8041 N   0  0  0  0  0  0  0  0  0  0  0  0
  -29.4871  -15.3776   19.3697 N   0  0  0  0  0  0  0  0  0  0  0  0
  -25.4106  -33.4634   22.6043 N   0  0  0  0  0  0  0  0  0  0  0  0
  -20.1072  -29.8184   21.3301 N   0  0  0  0  0  0  0  0  0  0  0  0
  -19.2105  -27.9078   18.3952 N   0  3  0  0  0  0  0  0  0  0  0  0
  -23.8166   -9.4602   17.0009 O   0  0  0  0  0  0  0  0  0  0  0  0
  -25.2339  -31.2574   23.3288 O   0  0  0  0  0  0  0  0  0  0  0  0
  -21.5772  -32.2530   21.6768 O   0  0  0  0  0  0  0  0  0  0  0  0
  -20.7594  -27.6748   20.7325 O   0  0  0  0  0  0  0  0  0  0  0  0
  -31.6476  -14.6749   19.8388 O   0  0  0  0  0  0  0  0  0  0  0  0
  -20.5758  -11.2124   23.8576 O   0  0  0  0  0  0  0  0  0  0  0  0
  -27.4010  -26.1809   20.6423 O   0  0  0  0  0  0  0  0  0  1  0  0
  -17.4195   -6.7244   24.4043 F   0  0  0  0  0  0  0  0  0  0  0  0
  -19.1789  -10.1898   21.7023 F   0  0  0  0  0  0  0  0  0  0  0  0
  1  2  1  0  0  0  0
  1  6  2  0  0  0  0
  2  7  2  0  0  0  0
  3 10  2  0  0  0  0
  3 18  1  0  0  0  0
  4 11  1  0  0  0  0
  4 18  2  0  0  0  0
  5  9  2  0  0  0  0
  5 20  1  0  0  0  0
  6 22  1  0  0  0  0
  7 24  1  0  0  0  0
  8 12  2  0  0  0  0
  8 23  1  0  0  0  0
  9 26  1  0  0  0  0
 10 27  1  0  0  0  0
 11 27  2  0  0  0  0
 12 28  1  0  0  0  0
 13 14  2  0  0  0  0
 13 29  1  0  0  0  0
 14 30  1  0  0  0  0
 15 19  1  0  0  0  0
 15 20  2  0  0  0  0
 16 25  1  0  0  0  0
 16 28  2  0  0  0  0
 17 30  2  0  0  0  0
 17 31  1  0  0  0  0
 18 32  1  0  0  0  0
 19 26  2  0  0  0  0
 19 35  1  0  0  0  0
 20 36  1  0  0  0  0
 21 32  1  0  0  0  0
 21 33  2  0  0  0  0
 21 40  1  0  0  0  0
 22 24  2  0  0  0  0
 22 45  1  0  0  0  0
 23 25  2  0  0  0  0
 23 46  1  0  0  0  0
 24 57  1  0  0  0  0
 25 47  1  0  0  0  0
 26 75  1  0  0  0  0
 27 84  1  0  0  0  0
 28 85  1  0  0  0  0
 29 31  2  0  0  0  0
 29 84  1  0  0  0  0
 30 86  1  0  0  0  0
 31 87  1  0  0  0  0
 32 69  2  0  0  0  0
 33 70  1  0  0  0  0
 33 73  1  0  0  0  0
 34 35  2  0  0  0  0
 34 48  1  0  0  0  0
 35 49  1  0  0  0  0
 36 37  2  0  0  0  0
 37 38  1  0  0  0  0
 38 39  2  0  0  0  0
 39 65  1  0  0  0  0
 40 74  1  0  0  0  0
 40 79  2  0  0  0  0
 41 58  1  0  0  0  0
 41 76  1  0  0  0  0
 41 80  2  0  0  0  0
 42 66  1  0  0  0  0
 42 71  1  0  0  0  0
 42 81  2  0  0  0  0
 43 67  1  0  0  0  0
 43 77  1  0  0  0  0
 43 82  2  0  0  0  0
 44 72  1  0  0  0  0
 44 75  1  0  0  0  0
 44 83  2  0  0  0  0
 45 50  1  0  0  0  0
 46 58  1  0  0  0  0
 47 71  1  0  0  0  0
 48 51  1  0  0  0  0
 49 51  1  0  0  0  0
 50 53  1  0  0  0  0
 52 54  1  0  0  0  0
 52 55  1  0  0  0  0
 53 57  1  0  0  0  0
 54 59  1  0  0  0  0
 55 72  1  0  0  0  0
 56 59  1  0  0  0  0
 56 72  1  0  0  0  0
 57 76  1  0  0  0  0
 58 71  1  0  0  0  0
 59 70  1  0  0  0  0
 60 67  1  0  0  0  0
 61 68  1  0  0  0  0
 62 68  1  0  0  0  0
 63 68  1  0  0  0  0
 64 78  1  0  0  0  0
 65 85  1  0  0  0  0
 66 68  1  0  0  0  0
 66 77  1  0  0  0  0
 67 78  1  0  0  0  0
 69 70  1  0  0  0  0
M  CHG  1  78   1
M  ISO  4  44 100  65 101  75 100  85 101
M  END
> <Batch ID>
0123

> <Smiles>
CNC(C)C(=O)NC(C(=O)N1Cc2cc([101O:1][101CH2:1]C=CC=Cc3ccc([100NH:0][100C:0](=O)N4CCCC(n5nc(-c6ccc(Oc7ccc(F)cc7F)cc6)c(C(N)=O)c5N)C4)c(C4=CCCC4)c3)ccc2CC1C(=O)NC1CCCc2ccccc21)C(C)(C)C

> <Shape>
0.282

> <Color>
0.080

> <Negative vol penalty>
0.000

$$$$

  -OEChem-04052302033D

 84 93  0     1  0  0  0  0  0999 V2000
  -25.4858   -6.9224   22.5992 C   0  0  0  0  0  0  0  0  0  0  0  0
  -26.3286   -7.5928   21.7185 C   0  0  0  0  0  0  0  0  0  0  0  0
  -23.5404  -30.6390   23.5318 C   0  0  0  0  0  0  0  0  0  0  0  0
  -22.1396  -31.3392   21.6921 C   0  0  0  0  0  0  0  0  0  0  0  0
  -24.1447   -7.2913   22.6959 C   0  0  0  0  0  0  0  0  0  0  0  0
  -25.8305   -8.6319   20.9332 C   0  0  0  0  0  0  0  0  0  0  0  0
  -28.6343  -15.2553   21.3336 C   0  0  0  0  0  0  0  0  0  0  0  0
  -29.5714  -23.8399   19.6832 C   0  0  0  0  0  0  0  0  0  0  0  0
  -29.8264  -23.6743   17.2864 C   0  0  0  0  0  0  0  0  0  0  0  0
  -28.7546  -24.9586   19.5190 C   0  0  0  0  0  0  0  0  0  0  0  0
  -29.0096  -24.7930   17.1222 C   0  0  0  0  0  0  0  0  0  0  0  0
  -22.4107  -30.4945   24.3370 C   0  0  0  0  0  0  0  0  0  0  0  0
  -21.0098  -31.1946   22.4973 C   0  0  0  0  0  0  0  0  0  0  0  0
  -29.2543  -16.4977   21.1989 C   0  0  0  0  0  0  0  0  0  0  0  0
  -19.0540  -28.6744   23.6126 C   0  0  0  0  0  0  0  0  0  0  0  0
  -17.9467  -28.0284   23.0631 C   0  0  0  0  0  0  0  0  0  0  0  0
  -27.5563  -17.1859   19.6205 C   0  0  0  0  0  0  0  0  0  0  0  0
  -16.6159  -30.0149   23.4090 C   0  0  0  0  0  0  0  0  0  0  0  0
  -23.4049  -31.0615   22.2093 C   0  0  0  0  0  0  0  0  0  0  0  0
  -25.6709  -32.0622   21.5999 C   0  0  0  0  0  0  0  0  0  0  0  0
  -23.6322   -8.3418   21.9184 C   0  0  0  0  0  0  0  0  0  0  0  0
  -27.4629  -14.9787   20.6232 C   0  0  0  0  0  0  0  0  0  0  0  0
  -24.4810   -9.0143   21.0186 C   0  0  0  0  0  0  0  0  0  0  0  0
  -26.9239  -15.9477   19.7610 C   0  0  0  0  0  0  0  0  0  0  0  0
  -30.1073  -23.1978   18.5669 C   0  0  0  0  0  0  0  0  0  0  0  0
  -28.4736  -25.4351   18.2385 C   0  0  0  0  0  0  0  0  0  0  0  0
  -21.1454  -30.7722   23.8198 C   0  0  0  0  0  0  0  0  0  0  0  0
  -28.7167  -17.4605   20.3443 C   0  0  0  0  0  0  0  0  0  0  0  0
  -18.9423  -29.9907   24.0605 C   0  0  0  0  0  0  0  0  0  0  0  0
  -16.7277  -28.6986   22.9612 C   0  0  0  0  0  0  0  0  0  0  0  0
  -17.7233  -30.6610   23.9587 C   0  0  0  0  0  0  0  0  0  0  0  0
  -24.5715  -31.2115   21.3772 C   0  0  0  0  0  0  0  0  0  0  0  0
  -26.5032  -31.8346   20.5313 C   0  0  0  0  0  0  0  0  0  0  0  0
  -31.3119  -19.8371   19.6133 C   0  0  0  0  0  0  0  0  0  0  0  0
  -30.6155  -18.7020   19.7731 C   0  0  0  0  0  0  0  0  0  1  0  0
  -25.9176  -32.9764   22.6765 C   0  0  0  0  0  0  0  0  0  0  0  0
  -24.7400  -12.5132   19.8596 C   0  0  0  0  0  0  0  0  0  0  0  0
  -23.4101  -15.2685   20.0836 C   0  0  0  0  0  0  0  0  0  0  0  0
  -22.2805  -18.4004   20.8268 C   0  0  0  0  0  0  0  0  0  0  0  0
  -27.2662  -27.1730   16.8717 C   0  0  0  0  0  0  0  0  0  0  0  0
  -22.1646   -8.6734   22.0231 C   0  0  0  0  0  0  0  0  0  0  0  0
  -26.7954  -13.6320   20.6905 C   0  0  0  0  0  0  0  0  0  0  0  0
  -25.6815  -15.5935   18.9902 C   0  0  0  0  0  0  0  0  0  0  0  0
  -32.7313  -19.8424   19.1190 C   0  0  0  0  0  0  0  0  0  0  0  0
  -30.7188  -21.1957   19.8903 C   0  0  0  0  0  0  0  0  0  0  0  0
  -21.8033  -10.0323   21.4289 C   0  0  0  0  0  0  0  0  0  0  0  0
  -32.8412  -20.7522   17.9005 C   0  0  0  0  0  0  0  0  0  0  0  0
  -26.4141  -30.5001   15.9329 C   0  0  0  0  0  0  0  0  0  0  0  0
  -22.4547  -10.2069   20.0607 C   0  0  0  0  0  0  0  0  0  0  0  0
  -25.9507  -31.1394   17.2439 C   0  0  0  0  0  0  0  0  0  0  0  0
  -32.2945  -22.1518   18.1866 C   0  0  0  0  0  0  0  0  0  0  0  0
  -25.9897  -29.0359   15.8348 C   0  0  0  0  0  0  0  0  0  0  0  0
  -25.9128  -28.8387   18.2892 C   0  0  0  0  0  0  0  0  0  0  0  0
  -23.9838  -10.1629   20.1680 C   0  0  1  0  0  0  0  0  0  0  0  0
  -25.2614  -13.7132   20.5941 C   0  0  1  0  0  0  0  0  0  0  0  0
  -26.3730  -30.2954   18.4625 C   0  0  2  0  0  0  0  0  0  0  0  0
  -20.1711  -19.7531   20.9614 C   0  0  0  0  0  0  0  0  0  0  0  0
  -23.3427  -15.4595   17.0401 C   0  0  0  0  0  0  0  0  0  0  0  0
  -21.9009  -17.4934   17.2705 C   0  0  0  0  0  0  0  0  0  0  0  0
  -21.0957  -15.2925   18.1253 C   0  0  0  0  0  0  0  0  0  0  0  0
  -22.6620  -18.9222   23.7149 C   0  0  0  0  0  0  0  0  0  0  0  0
  -22.9350  -16.5059   19.3649 C   0  0  1  0  0  0  0  0  0  0  0  0
  -21.1535  -18.8783   21.7246 C   0  0  2  0  0  0  0  0  0  0  0  0
  -22.3441  -16.1867   17.9626 C   0  0  0  0  0  0  0  0  0  0  0  0
  -24.6916  -30.4970   20.2551 N   0  0  0  0  0  0  0  0  0  0  0  0
  -25.8761  -30.8981   19.7632 N   0  0  0  0  0  0  0  0  0  0  0  0
  -30.9295  -22.0751   18.7317 N   0  0  2  0  0  0  0  0  0  0  0  0
  -24.7364  -14.8783   19.8619 N   0  0  0  0  0  0  0  0  0  0  0  0
  -26.4275  -28.2977   17.0215 N   0  0  0  0  0  0  0  0  0  0  0  0
  -27.7030  -32.3461   20.1832 N   0  0  0  0  0  0  0  0  0  0  0  0
  -24.9584  -33.0867   23.6924 N   0  0  0  0  0  0  0  0  0  0  0  0
  -27.6438  -26.5715   18.0718 N   0  0  0  0  0  0  0  0  0  0  0  0
  -24.4916  -11.4218   20.6699 N   0  0  0  0  0  0  0  0  0  0  0  0
  -22.0026  -17.1704   20.2691 N   0  0  0  0  0  0  0  0  0  0  0  0
  -21.6989  -19.6682   22.8646 N   0  3  0  0  0  0  0  0  0  0  0  0
  -26.9503  -33.6867   22.7274 O   0  0  0  0  0  0  0  0  0  0  0  0
  -24.5734  -12.5723   18.6470 O   0  0  0  0  0  0  0  0  0  0  0  0
  -22.6270  -14.6593   20.8177 O   0  0  0  0  0  0  0  0  0  0  0  0
  -23.3033  -19.0546   20.6361 O   0  0  0  0  0  0  0  0  0  0  0  0
  -27.6452  -26.7893   15.7622 O   0  0  0  0  0  0  0  0  0  0  0  0
  -20.0428  -30.6310   24.6052 O   0  0  0  0  0  0  0  0  0  0  0  0
  -29.3246  -18.6729   20.2209 O   0  0  0  0  0  0  0  0  0  1  0  0
  -15.6648  -28.0786   22.4320 F   0  0  0  0  0  0  0  0  0  0  0  0
  -17.6101  -31.9260   24.3861 F   0  0  0  0  0  0  0  0  0  0  0  0
  1  2  1  0  0  0  0
  1  5  2  0  0  0  0
  2  6  2  0  0  0  0
  3 12  2  0  0  0  0
  3 19  1  0  0  0  0
  4 13  1  0  0  0  0
  4 19  2  0  0  0  0
  5 21  1  0  0  0  0
  6 23  1  0  0  0  0
  7 14  2  0  0  0  0
  7 22  1  0  0  0  0
  8 10  2  0  0  0  0
  8 25  1  0  0  0  0
  9 11  1  0  0  0  0
  9 25  2  0  0  0  0
 10 26  1  0  0  0  0
 11 26  2  0  0  0  0
 12 27  1  0  0  0  0
 13 27  2  0  0  0  0
 14 28  1  0  0  0  0
 15 16  2  0  0  0  0
 15 29  1  0  0  0  0
 16 30  1  0  0  0  0
 17 24  1  0  0  0  0
 17 28  2  0  0  0  0
 18 30  2  0  0  0  0
 18 31  1  0  0  0  0
 19 32  1  0  0  0  0
 20 32  1  0  0  0  0
 20 33  2  0  0  0  0
 20 36  1  0  0  0  0
 21 23  2  0  0  0  0
 21 41  1  0  0  0  0
 22 24  2  0  0  0  0
 22 42  1  0  0  0  0
 23 54  1  0  0  0  0
 24 43  1  0  0  0  0
 25 67  1  0  0  0  0
 26 72  1  0  0  0  0
 27 81  1  0  0  0  0
 28 82  1  0  0  0  0
 29 31  2  0  0  0  0
 29 81  1  0  0  0  0
 30 83  1  0  0  0  0
 31 84  1  0  0  0  0
 32 65  2  0  0  0  0
 33 66  1  0  0  0  0
 33 70  1  0  0  0  0
 34 35  2  0  0  0  0
 34 44  1  0  0  0  0
 34 45  1  0  0  0  0
 35 82  1  0  0  0  0
 36 71  1  0  0  0  0
 36 76  2  0  0  0  0
 37 55  1  0  0  0  0
 37 73  1  0  0  0  0
 37 77  2  0  0  0  0
 38 62  1  0  0  0  0
 38 68  1  0  0  0  0
 38 78  2  0  0  0  0
 39 63  1  0  0  0  0
 39 74  1  0  0  0  0
 39 79  2  0  0  0  0
 40 69  1  0  0  0  0
 40 72  1  0  0  0  0
 40 80  2  0  0  0  0
 41 46  1  0  0  0  0
 42 55  1  0  0  0  0
 43 68  1  0  0  0  0
 44 47  1  0  0  0  0
 45 67  1  0  0  0  0
 46 49  1  0  0  0  0
 47 51  1  0  0  0  0
 48 50  1  0  0  0  0
 48 52  1  0  0  0  0
 49 54  1  0  0  0  0
 50 56  1  0  0  0  0
 51 67  1  0  0  0  0
 52 69  1  0  0  0  0
 53 56  1  0  0  0  0
 53 69  1  0  0  0  0
 54 73  1  0  0  0  0
 55 68  1  0  0  0  0
 56 66  1  0  0  0  0
 57 63  1  0  0  0  0
 58 64  1  0  0  0  0
 59 64  1  0  0  0  0
 60 64  1  0  0  0  0
 61 75  1  0  0  0  0
 62 64  1  0  0  0  0
 62 74  1  0  0  0  0
 63 75  1  0  0  0  0
 65 66  1  0  0  0  0
M  CHG  1  75   1
M  ISO  4  35 101  40 100  72 100  82 101
M  END
> <Batch ID>
0123

> <Smiles>
CNC(C)C(=O)NC(C(=O)N1Cc2cc([101O:1][101CH:1]=C3CCCN(c4ccc([100NH:0][100C:0](=O)N5CCCC(n6nc(-c7ccc(Oc8ccc(F)cc8F)cc7)c(C(N)=O)c6N)C5)cc4)C3)ccc2CC1C(=O)NC1CCCc2ccccc21)C(C)(C)C

> <Shape>
0.248

> <Color>
0.071

> <Negative vol penalty>
0.000

$$$$

  -OEChem-04052302033D

 83 91  0     1  0  0  0  0  0999 V2000
  -27.0444  -19.3994   24.9302 C   0  0  0  0  0  0  0  0  0  0  0  0
  -27.3658  -20.3459   23.9626 C   0  0  0  0  0  0  0  0  0  0  0  0
  -25.1892  -12.7244   21.8408 C   0  0  0  0  0  0  0  0  0  0  0  0
  -26.3020  -12.6939   19.6966 C   0  0  0  0  0  0  0  0  0  0  0  0
  -27.7810  -24.5826   17.5002 C   0  0  0  0  0  0  0  0  0  0  0  0
  -25.7169  -19.2246   25.3189 C   0  0  0  0  0  0  0  0  0  0  0  0
  -26.3597  -21.1175   23.3823 C   0  0  0  0  0  0  0  0  0  0  0  0
  -27.6118  -26.0132   23.0524 C   0  0  0  0  0  0  0  0  0  0  0  0
  -26.9645  -23.4794   17.7488 C   0  0  0  0  0  0  0  0  0  0  0  0
  -24.9537  -11.3535   21.7381 C   0  0  0  0  0  0  0  0  0  0  0  0
  -26.0665  -11.3229   19.5938 C   0  0  0  0  0  0  0  0  0  0  0  0
  -28.4775  -26.3811   22.0233 C   0  0  0  0  0  0  0  0  0  0  0  0
  -23.7432   -7.9271   21.8742 C   0  0  0  0  0  0  0  0  0  0  0  0
  -22.4714   -7.4595   22.2049 C   0  0  0  0  0  0  0  0  0  0  0  0
  -29.7350  -23.2433   17.9751 C   0  0  0  0  0  0  0  0  0  0  0  0
  -26.5968  -27.1558   20.7264 C   0  0  0  0  0  0  0  0  0  0  0  0
  -21.5122   -8.8417   20.4709 C   0  0  0  0  0  0  0  0  0  0  0  0
  -25.8633  -13.3947   20.8200 C   0  0  0  0  0  0  0  0  0  0  0  0
  -29.1663  -24.4645   17.6134 C   0  0  0  0  0  0  0  0  0  0  0  0
  -27.2277  -15.4408   21.4980 C   0  0  0  0  0  0  0  0  0  0  0  0
  -24.6951  -20.0011   24.7500 C   0  0  0  0  0  0  0  0  0  0  0  0
  -26.2288  -26.2042   22.9216 C   0  0  0  0  0  0  0  0  0  0  0  0
  -25.0171  -20.9520   23.7628 C   0  0  0  0  0  0  0  0  0  0  0  0
  -25.7160  -26.7919   21.7564 C   0  0  0  0  0  0  0  0  0  0  0  0
  -28.9184  -22.1401   18.2237 C   0  0  0  0  0  0  0  0  0  0  0  0
  -27.5331  -22.2581   18.1105 C   0  0  0  0  0  0  0  0  0  0  0  0
  -25.3923  -10.6527   20.6146 C   0  0  0  0  0  0  0  0  0  0  0  0
  -27.9698  -26.9498   20.8589 C   0  0  0  0  0  0  0  0  0  0  0  0
  -23.8995   -8.8521   20.8418 C   0  0  0  0  0  0  0  0  0  0  0  0
  -21.3559   -7.9167   21.5033 C   0  0  0  0  0  0  0  0  0  0  0  0
  -22.7840   -9.3093   20.1402 C   0  0  0  0  0  0  0  0  0  0  0  0
  -26.1065  -14.8110   20.9253 C   0  0  0  0  0  0  0  0  0  0  0  0
  -26.9803  -16.7837   21.3496 C   0  0  0  0  0  0  0  0  0  0  0  0
  -30.0244  -25.6248   17.3518 C   0  0  0  0  0  0  0  0  0  0  0  0
  -28.3890  -14.8636   22.1094 C   0  0  0  0  0  0  0  0  0  0  0  0
  -30.4234  -26.5370   18.2594 C   0  0  0  0  0  0  0  0  0  0  0  0
  -23.6936  -24.2872   22.8810 C   0  0  0  0  0  0  0  0  0  0  0  0
  -22.0614  -27.0903   22.8444 C   0  0  0  0  0  0  0  0  0  0  0  0
  -22.0426  -30.4224   22.1075 C   0  0  0  0  0  0  0  0  0  0  0  0
  -25.2943  -21.1164   18.2856 C   0  0  0  0  0  0  0  0  0  0  0  0
  -23.2691  -19.7433   25.1680 C   0  0  0  0  0  0  0  0  0  0  0  0
  -25.3109  -25.8266   24.0517 C   0  0  0  0  0  0  0  0  0  0  0  0
  -24.2410  -27.0368   21.5747 C   0  0  0  0  0  0  0  0  0  0  0  0
  -22.3075  -20.8619   24.7752 C   0  0  0  0  0  0  0  0  0  0  0  0
  -22.7743  -19.2222   19.9405 C   0  0  0  0  0  0  0  0  0  0  0  0
  -22.5375  -21.2793   23.3261 C   0  0  0  0  0  0  0  0  0  0  0  0
  -23.5088  -17.9575   20.3913 C   0  0  0  0  0  0  0  0  0  0  0  0
  -23.2672  -19.7094   18.5791 C   0  0  0  0  0  0  0  0  0  0  0  0
  -25.4546  -18.6304   18.9257 C   0  0  0  0  0  0  0  0  0  0  0  0
  -23.9567  -21.8254   23.1280 C   0  0  1  0  0  0  0  0  0  0  0  0
  -23.8721  -25.5940   23.6007 C   0  0  1  0  0  0  0  0  0  0  0  0
  -25.0378  -18.1386   20.3215 C   0  0  2  0  0  0  0  0  0  0  0  0
  -31.3199  -27.6735   17.8406 C   0  0  0  0  0  0  0  0  0  0  0  0
  -29.4352  -20.5643   20.1042 C   0  0  0  0  0  0  0  0  0  0  0  0
  -20.5528  -32.4413   22.1518 C   0  0  0  0  0  0  0  0  0  0  0  0
  -20.5976  -26.0614   20.3728 C   0  0  0  0  0  0  0  0  0  0  0  0
  -19.8576  -28.4097   19.9192 C   0  0  0  0  0  0  0  0  0  0  0  0
  -19.1484  -27.2639   22.0184 C   0  0  0  0  0  0  0  0  0  0  0  0
  -23.8389  -31.8506   23.9764 C   0  0  0  0  0  0  0  0  0  0  0  0
  -29.5544  -20.8440   18.6095 C   0  0  0  0  0  0  0  0  0  0  0  0
  -30.0129  -26.5511   19.7088 C   0  0  0  0  0  0  0  0  0  1  0  0
  -21.5493  -28.0152   21.7668 C   0  0  1  0  0  0  0  0  0  0  0  0
  -21.5910  -31.6291   22.9103 C   0  0  2  0  0  0  0  0  0  0  0  0
  -20.3159  -27.4313   21.0216 C   0  0  0  0  0  0  0  0  0  0  0  0
  -25.2131  -15.6821   20.4487 N   0  0  0  0  0  0  0  0  0  0  0  0
  -25.7728  -16.8731   20.7217 N   0  0  0  0  0  0  0  0  0  0  0  0
  -23.3836  -26.6448   22.7055 N   0  0  0  0  0  0  0  0  0  0  0  0
  -24.7237  -19.8622   18.5891 N   0  0  0  0  0  0  0  0  0  0  0  0
  -27.6799  -17.8849   21.6962 N   0  0  0  0  0  0  0  0  0  0  0  0
  -28.4831  -13.4670   22.1790 N   0  0  0  0  0  0  0  0  0  0  0  0
  -26.6865  -21.1494   18.3587 N   0  0  0  0  0  0  0  0  0  0  0  0
  -24.0511  -23.1805   23.6272 N   0  0  0  0  0  0  0  0  0  0  0  0
  -21.3036  -29.2994   22.4139 N   0  0  0  0  0  0  0  0  0  0  0  0
  -22.7513  -32.5141   23.2123 N   0  3  0  0  0  0  0  0  0  0  0  0
  -29.3081  -15.5658   22.5949 O   0  0  0  0  0  0  0  0  0  0  0  0
  -23.2619  -24.2832   21.7341 O   0  0  0  0  0  0  0  0  0  0  0  0
  -21.3182  -26.7804   23.7788 O   0  0  0  0  0  0  0  0  0  0  0  0
  -22.9569  -30.4721   21.2876 O   0  0  0  0  0  0  0  0  0  0  0  0
  -24.5978  -22.0966   18.0096 O   0  0  0  0  0  0  0  0  0  0  0  0
  -25.1629   -9.3149   20.5142 O   0  0  0  0  0  0  0  0  0  0  0  0
  -28.8125  -27.3092   19.8526 O   0  0  0  0  0  0  0  0  0  1  0  0
  -20.1348   -7.4664   21.8199 F   0  0  0  0  0  0  0  0  0  0  0  0
  -22.9281  -10.1971   19.1467 F   0  0  0  0  0  0  0  0  0  0  0  0
  1  2  1  0  0  0  0
  1  6  2  0  0  0  0
  2  7  2  0  0  0  0
  3 10  2  0  0  0  0
  3 18  1  0  0  0  0
  4 11  1  0  0  0  0
  4 18  2  0  0  0  0
  5  9  2  0  0  0  0
  5 19  1  0  0  0  0
  6 21  1  0  0  0  0
  7 23  1  0  0  0  0
  8 12  2  0  0  0  0
  8 22  1  0  0  0  0
  9 26  1  0  0  0  0
 10 27  1  0  0  0  0
 11 27  2  0  0  0  0
 12 28  1  0  0  0  0
 13 14  2  0  0  0  0
 13 29  1  0  0  0  0
 14 30  1  0  0  0  0
 15 19  2  0  0  0  0
 15 25  1  0  0  0  0
 16 24  1  0  0  0  0
 16 28  2  0  0  0  0
 17 30  2  0  0  0  0
 17 31  1  0  0  0  0
 18 32  1  0  0  0  0
 19 34  1  0  0  0  0
 20 32  1  0  0  0  0
 20 33  2  0  0  0  0
 20 35  1  0  0  0  0
 21 23  2  0  0  0  0
 21 41  1  0  0  0  0
 22 24  2  0  0  0  0
 22 42  1  0  0  0  0
 23 50  1  0  0  0  0
 24 43  1  0  0  0  0
 25 26  2  0  0  0  0
 25 60  1  0  0  0  0
 26 71  1  0  0  0  0
 27 80  1  0  0  0  0
 28 81  1  0  0  0  0
 29 31  2  0  0  0  0
 29 80  1  0  0  0  0
 30 82  1  0  0  0  0
 31 83  1  0  0  0  0
 32 65  2  0  0  0  0
 33 66  1  0  0  0  0
 33 69  1  0  0  0  0
 34 36  2  0  0  0  0
 35 70  1  0  0  0  0
 35 75  2  0  0  0  0
 36 53  1  0  0  0  0
 36 61  1  0  0  0  0
 37 51  1  0  0  0  0
 37 72  1  0  0  0  0
 37 76  2  0  0  0  0
 38 62  1  0  0  0  0
 38 67  1  0  0  0  0
 38 77  2  0  0  0  0
 39 63  1  0  0  0  0
 39 73  1  0  0  0  0
 39 78  2  0  0  0  0
 40 68  1  0  0  0  0
 40 71  1  0  0  0  0
 40 79  2  0  0  0  0
 41 44  1  0  0  0  0
 42 51  1  0  0  0  0
 43 67  1  0  0  0  0
 44 46  1  0  0  0  0
 45 47  1  0  0  0  0
 45 48  1  0  0  0  0
 46 50  1  0  0  0  0
 47 52  1  0  0  0  0
 48 68  1  0  0  0  0
 49 52  1  0  0  0  0
 49 68  1  0  0  0  0
 50 72  1  0  0  0  0
 51 67  1  0  0  0  0
 52 66  1  0  0  0  0
 54 60  1  0  0  0  0
 55 63  1  0  0  0  0
 56 64  1  0  0  0  0
 57 64  1  0  0  0  0
 58 64  1  0  0  0  0
 59 74  1  0  0  0  0
 61 81  1  0  0  0  0
 62 64  1  0  0  0  0
 62 73  1  0  0  0  0
 63 74  1  0  0  0  0
 65 66  1  0  0  0  0
M  CHG  1  74   1
M  ISO  4  40 100  61 101  71 100  81 101
M  END
> <Batch ID>
0123

> <Smiles>
CCc1cc(C=C(C)[101CH2:1][101O:1]c2ccc3c(c2)CN(C(=O)C(NC(=O)C(C)NC)C(C)(C)C)C(C(=O)NC2CCCc4ccccc42)C3)ccc1[100NH:0][100C:0](=O)N1CCCC(n2nc(-c3ccc(Oc4ccc(F)cc4F)cc3)c(C(N)=O)c2N)C1

> <Shape>
0.210

> <Color>
0.062

> <Negative vol penalty>
0.000

$$$$

  -OEChem-04052302033D

 83 91  0     1  0  0  0  0  0999 V2000
  -21.4064  -27.9476   16.8738 C   0  0  0  0  0  0  0  0  0  0  0  0
  -22.5081  -27.5185   17.6070 C   0  0  0  0  0  0  0  0  0  0  0  0
  -23.0388   -9.9143   20.0407 C   0  0  0  0  0  0  0  0  0  0  0  0
  -23.7761  -10.0181   22.3391 C   0  0  0  0  0  0  0  0  0  0  0  0
  -20.4844  -28.8207   17.4496 C   0  0  0  0  0  0  0  0  0  0  0  0
  -22.6889  -27.9632   18.9162 C   0  0  0  0  0  0  0  0  0  0  0  0
  -23.9923  -24.2256   22.0748 C   0  0  0  0  0  0  0  0  0  0  0  0
  -22.2688   -8.7900   20.3385 C   0  0  0  0  0  0  0  0  0  0  0  0
  -23.0060   -8.8939   22.6370 C   0  0  0  0  0  0  0  0  0  0  0  0
  -25.3195  -23.7995   22.0438 C   0  0  0  0  0  0  0  0  0  0  0  0
  -19.7562   -8.1920   23.2426 C   0  0  0  0  0  0  0  0  0  0  0  0
  -18.9871   -8.2248   24.4058 C   0  0  0  0  0  0  0  0  0  0  0  0
  -25.7834  -25.1216   24.0075 C   0  0  0  0  0  0  0  0  0  0  0  0
  -32.1378  -16.5924   22.4154 C   0  0  0  0  0  0  0  0  0  0  0  0
  -31.9462  -18.4257   23.9771 C   0  0  0  0  0  0  0  0  0  0  0  0
  -29.9657  -17.5120   22.9379 C   0  0  0  0  0  0  0  0  0  0  0  0
  -20.1807   -6.3010   25.2492 C   0  0  0  0  0  0  0  0  0  0  0  0
  -23.7925  -10.5283   21.0410 C   0  0  0  0  0  0  0  0  0  0  0  0
  -24.1879  -13.0371   20.8018 C   0  0  0  0  0  0  0  0  0  0  0  0
  -20.6489  -29.2686   18.7698 C   0  0  0  0  0  0  0  0  0  0  0  0
  -23.5527  -25.1129   23.0676 C   0  0  0  0  0  0  0  0  0  0  0  0
  -21.7690  -28.8441   19.5098 C   0  0  0  0  0  0  0  0  0  0  0  0
  -24.4496  -25.5554   24.0504 C   0  0  0  0  0  0  0  0  0  0  0  0
  -32.7341  -17.5081   23.2823 C   0  0  0  0  0  0  0  0  0  0  0  0
  -30.7536  -16.5944   22.2431 C   0  0  0  0  0  0  0  0  0  0  0  0
  -22.2523   -8.2798   21.6366 C   0  0  0  0  0  0  0  0  0  0  0  0
  -26.2160  -24.2498   23.0085 C   0  0  0  0  0  0  0  0  0  0  0  0
  -20.7375   -7.2137   23.0827 C   0  0  0  0  0  0  0  0  0  0  0  0
  -30.5619  -18.4277   23.8050 C   0  0  0  0  0  0  0  0  0  0  0  0
  -19.1994   -7.2793   25.4091 C   0  0  0  0  0  0  0  0  0  0  0  0
  -20.9498   -6.2682   24.0860 C   0  0  0  0  0  0  0  0  0  0  0  0
  -24.5887  -11.6893   20.7339 C   0  0  0  0  0  0  0  0  0  0  0  0
  -25.2989  -13.7456   20.4143 C   0  0  0  0  0  0  0  0  0  0  0  0
  -29.2603  -22.7086   24.1254 C   0  0  0  0  0  0  0  0  0  0  0  0
  -29.3123  -21.6144   24.8988 C   0  0  0  0  0  0  0  0  0  0  0  0
  -22.9243  -13.5984   21.1813 C   0  0  0  0  0  0  0  0  0  0  0  0
  -22.3429  -28.0523   23.0730 C   0  0  0  0  0  0  0  0  0  0  0  0
  -21.9720  -27.4740   26.2432 C   0  0  0  0  0  0  0  0  0  0  0  0
  -22.9588  -25.7284   29.0047 C   0  0  0  0  0  0  0  0  0  0  0  0
  -30.7836  -14.6876   20.5971 C   0  0  0  0  0  0  0  0  0  0  0  0
  -19.6511  -30.2492   19.3333 C   0  0  0  0  0  0  0  0  0  0  0  0
  -22.1115  -25.5421   23.1029 C   0  0  0  0  0  0  0  0  0  0  0  0
  -24.0228  -26.4926   25.1494 C   0  0  0  0  0  0  0  0  0  0  0  0
  -19.7154  -30.3782   20.8530 C   0  0  0  0  0  0  0  0  0  0  0  0
  -29.6427  -12.1838   18.3373 C   0  0  0  0  0  0  0  0  0  0  0  0
  -21.1618  -30.5220   21.3158 C   0  0  0  0  0  0  0  0  0  0  0  0
  -28.1931  -11.9428   18.7650 C   0  0  0  0  0  0  0  0  0  0  0  0
  -30.5505  -12.4526   19.5362 C   0  0  0  0  0  0  0  0  0  0  0  0
  -28.6455  -13.2823   20.8598 C   0  0  0  0  0  0  0  0  0  0  0  0
  -21.9865  -29.2847   20.9411 C   0  0  1  0  0  0  0  0  0  0  0  0
  -21.8961  -26.8508   23.8567 C   0  0  1  0  0  0  0  0  0  0  0  0
  -27.6809  -13.0713   19.6814 C   0  0  2  0  0  0  0  0  0  0  0  0
  -34.2140  -17.5063   23.4664 C   0  0  0  0  0  0  0  0  0  0  0  0
  -22.4967  -25.5014   31.4608 C   0  0  0  0  0  0  0  0  0  0  0  0
  -23.4931  -30.0668   26.7666 C   0  0  0  0  0  0  0  0  0  0  0  0
  -23.8261  -29.3125   29.1306 C   0  0  0  0  0  0  0  0  0  0  0  0
  -21.5206  -29.6952   28.2584 C   0  0  0  0  0  0  0  0  0  0  0  0
  -22.1603  -22.8939   28.7105 C   0  0  0  0  0  0  0  0  0  0  0  0
  -28.1935  -23.7489   24.2309 C   0  0  0  0  0  0  0  0  0  1  0  0
  -30.3855  -20.5798   24.8015 C   0  0  0  0  0  0  0  0  0  0  0  0
  -22.8233  -27.6756   27.4735 C   0  0  1  0  0  0  0  0  0  0  0  0
  -22.1642  -24.9910   30.0673 C   0  0  2  0  0  0  0  0  0  0  0  0
  -22.9246  -29.1714   27.8856 C   0  0  0  0  0  0  0  0  0  0  0  0
  -25.8553  -11.5475   20.3345 N   0  0  0  0  0  0  0  0  0  0  0  0
  -26.2600  -12.8154   20.1479 N   0  0  0  0  0  0  0  0  0  0  0  0
  -22.6049  -26.8886   25.1375 N   0  0  0  0  0  0  0  0  0  0  0  0
  -30.0044  -13.5362   20.3562 N   0  0  0  0  0  0  0  0  0  0  0  0
  -25.5376  -15.0674   20.2788 N   0  0  0  0  0  0  0  0  0  0  0  0
  -21.8905  -12.7275   21.5515 N   0  0  0  0  0  0  0  0  0  0  0  0
  -30.1476  -15.6645   21.3624 N   0  0  0  0  0  0  0  0  0  0  0  0
  -21.7086  -28.1966   21.8539 N   0  0  0  0  0  0  0  0  0  0  0  0
  -22.2629  -26.8085   28.5042 N   0  0  0  0  0  0  0  0  0  0  0  0
  -22.4626  -23.5317   30.0177 N   0  3  0  0  0  0  0  0  0  0  0  0
  -22.7131  -14.8349   21.1760 O   0  0  0  0  0  0  0  0  0  0  0  0
  -23.1988  -28.7945   23.5404 O   0  0  0  0  0  0  0  0  0  0  0  0
  -20.7872  -27.8166   26.2649 O   0  0  0  0  0  0  0  0  0  0  0  0
  -24.0858  -25.3833   28.6563 O   0  0  0  0  0  0  0  0  0  0  0  0
  -31.9205  -14.8103   20.1341 O   0  0  0  0  0  0  0  0  0  0  0  0
  -21.5008   -7.1830   21.9276 O   0  0  0  0  0  0  0  0  0  0  0  0
  -27.5120  -23.8360   22.9802 O   0  0  0  0  0  0  0  0  0  1  0  0
  -29.7877  -19.3298   24.4875 O   0  0  0  0  0  0  0  0  0  0  0  0
  -18.4618   -7.3118   26.5267 F   0  0  0  0  0  0  0  0  0  0  0  0
  -21.8919   -5.3267   23.9385 F   0  0  0  0  0  0  0  0  0  0  0  0
  1  2  1  0  0  0  0
  1  5  2  0  0  0  0
  2  6  2  0  0  0  0
  3  8  2  0  0  0  0
  3 18  1  0  0  0  0
  4  9  1  0  0  0  0
  4 18  2  0  0  0  0
  5 20  1  0  0  0  0
  6 22  1  0  0  0  0
  7 10  2  0  0  0  0
  7 21  1  0  0  0  0
  8 26  1  0  0  0  0
  9 26  2  0  0  0  0
 10 27  1  0  0  0  0
 11 12  2  0  0  0  0
 11 28  1  0  0  0  0
 12 30  1  0  0  0  0
 13 23  1  0  0  0  0
 13 27  2  0  0  0  0
 14 24  1  0  0  0  0
 14 25  2  0  0  0  0
 15 24  2  0  0  0  0
 15 29  1  0  0  0  0
 16 25  1  0  0  0  0
 16 29  2  0  0  0  0
 17 30  2  0  0  0  0
 17 31  1  0  0  0  0
 18 32  1  0  0  0  0
 19 32  1  0  0  0  0
 19 33  2  0  0  0  0
 19 36  1  0  0  0  0
 20 22  2  0  0  0  0
 20 41  1  0  0  0  0
 21 23  2  0  0  0  0
 21 42  1  0  0  0  0
 22 50  1  0  0  0  0
 23 43  1  0  0  0  0
 24 53  1  0  0  0  0
 25 70  1  0  0  0  0
 26 79  1  0  0  0  0
 27 80  1  0  0  0  0
 28 31  2  0  0  0  0
 28 79  1  0  0  0  0
 29 81  1  0  0  0  0
 30 82  1  0  0  0  0
 31 83  1  0  0  0  0
 32 64  2  0  0  0  0
 33 65  1  0  0  0  0
 33 68  1  0  0  0  0
 34 35  2  0  0  0  0
 34 59  1  0  0  0  0
 35 60  1  0  0  0  0
 36 69  1  0  0  0  0
 36 74  2  0  0  0  0
 37 51  1  0  0  0  0
 37 71  1  0  0  0  0
 37 75  2  0  0  0  0
 38 61  1  0  0  0  0
 38 66  1  0  0  0  0
 38 76  2  0  0  0  0
 39 62  1  0  0  0  0
 39 72  1  0  0  0  0
 39 77  2  0  0  0  0
 40 67  1  0  0  0  0
 40 70  1  0  0  0  0
 40 78  2  0  0  0  0
 41 44  1  0  0  0  0
 42 51  1  0  0  0  0
 43 66  1  0  0  0  0
 44 46  1  0  0  0  0
 45 47  1  0  0  0  0
 45 48  1  0  0  0  0
 46 50  1  0  0  0  0
 47 52  1  0  0  0  0
 48 67  1  0  0  0  0
 49 52  1  0  0  0  0
 49 67  1  0  0  0  0
 50 71  1  0  0  0  0
 51 66  1  0  0  0  0
 52 65  1  0  0  0  0
 54 62  1  0  0  0  0
 55 63  1  0  0  0  0
 56 63  1  0  0  0  0
 57 63  1  0  0  0  0
 58 73  1  0  0  0  0
 59 80  1  0  0  0  0
 60 81  1  0  0  0  0
 61 63  1  0  0  0  0
 61 72  1  0  0  0  0
 62 73  1  0  0  0  0
 64 65  1  0  0  0  0
M  CHG  1  73   1
M  ISO  4  40 100  59 101  70 100  80 101
M  END
> <Batch ID>
0123

> <Smiles>
CNC(C)C(=O)NC(C(=O)N1Cc2cc([101O:1][101CH2:1]C=CCOc3cc(C)cc([100NH:0][100C:0](=O)N4CCCC(n5nc(-c6ccc(Oc7ccc(F)cc7F)cc6)c(C(N)=O)c5N)C4)c3)ccc2CC1C(=O)NC1CCCc2ccccc21)C(C)(C)C

> <Shape>
0.204

> <Color>
0.219

> <Negative vol penalty>
0.000

$$$$

  -OEChem-04052302033D

 84 92  0     1  0  0  0  0  0999 V2000
  -17.2588  -25.6635   22.2735 C   0  0  0  0  0  0  0  0  0  0  0  0
  -18.4300  -25.6863   21.5231 C   0  0  0  0  0  0  0  0  0  0  0  0
  -23.6740  -10.3077   22.1862 C   0  0  0  0  0  0  0  0  0  0  0  0
  -24.5069   -8.7346   20.5525 C   0  0  0  0  0  0  0  0  0  0  0  0
  -16.7997  -26.8307   22.8825 C   0  0  0  0  0  0  0  0  0  0  0  0
  -19.1423  -26.8766   21.3804 C   0  0  0  0  0  0  0  0  0  0  0  0
  -24.1277  -26.2444   22.0055 C   0  0  0  0  0  0  0  0  0  0  0  0
  -32.3787  -20.5367   16.8841 C   0  0  0  0  0  0  0  0  0  0  0  0
  -22.5095   -9.5517   22.3205 C   0  0  0  0  0  0  0  0  0  0  0  0
  -23.3424   -7.9786   20.6868 C   0  0  0  0  0  0  0  0  0  0  0  0
  -24.8392  -25.6991   20.9377 C   0  0  0  0  0  0  0  0  0  0  0  0
  -31.6808  -21.7443   16.9033 C   0  0  0  0  0  0  0  0  0  0  0  0
  -21.5467   -6.7186   23.8951 C   0  0  0  0  0  0  0  0  0  0  0  0
  -21.0804   -6.4700   25.1859 C   0  0  0  0  0  0  0  0  0  0  0  0
  -30.0494  -20.7776   18.4004 C   0  0  0  0  0  0  0  0  0  0  0  0
  -25.5728  -27.9086   20.3060 C   0  0  0  0  0  0  0  0  0  0  0  0
  -19.0079   -7.5918   24.6534 C   0  0  0  0  0  0  0  0  0  0  0  0
  -24.6727   -9.8992   21.3021 C   0  0  0  0  0  0  0  0  0  0  0  0
  -30.7473  -19.5700   18.3811 C   0  0  0  0  0  0  0  0  0  0  0  0
  -27.0671  -10.5448   21.8999 C   0  0  0  0  0  0  0  0  0  0  0  0
  -17.5117  -28.0337   22.7552 C   0  0  0  0  0  0  0  0  0  0  0  0
  -24.1245  -27.6294   22.2254 C   0  0  0  0  0  0  0  0  0  0  0  0
  -18.6915  -28.0612   21.9871 C   0  0  0  0  0  0  0  0  0  0  0  0
  -24.8626  -28.4688   21.3787 C   0  0  0  0  0  0  0  0  0  0  0  0
  -31.9119  -19.4495   17.6229 C   0  0  0  0  0  0  0  0  0  0  0  0
  -22.3437   -8.3871   21.5708 C   0  0  0  0  0  0  0  0  0  0  0  0
  -30.5161  -21.8647   17.6614 C   0  0  0  0  0  0  0  0  0  0  0  0
  -25.5596  -26.5314   20.0861 C   0  0  0  0  0  0  0  0  0  0  0  0
  -20.7436   -7.4038   22.9833 C   0  0  0  0  0  0  0  0  0  0  0  0
  -19.8111   -6.9066   25.5651 C   0  0  0  0  0  0  0  0  0  0  0  0
  -19.4742   -7.8404   23.3624 C   0  0  0  0  0  0  0  0  0  0  0  0
  -25.8755  -10.6800   21.1626 C   0  0  0  0  0  0  0  0  0  0  0  0
  -27.8979  -11.5126   21.3903 C   0  0  0  0  0  0  0  0  0  0  0  0
  -30.2347  -18.4531   19.1638 C   0  0  0  0  0  0  0  0  0  0  0  0
  -29.0326  -17.8662   18.9923 C   0  0  0  0  0  0  0  0  0  0  0  0
  -27.3938   -9.6265   22.9514 C   0  0  0  0  0  0  0  0  0  0  0  0
  -28.6598  -16.7329   19.8627 C   0  0  0  0  0  0  0  0  0  0  0  0
  -21.8905  -29.8903   22.2587 C   0  0  0  0  0  0  0  0  0  0  0  0
  -28.0235  -24.4846   18.3871 C   0  0  0  0  0  0  0  0  0  0  0  0
  -24.3461  -31.7560   23.2643 C   0  0  0  0  0  0  0  0  0  0  0  0
  -27.7142  -32.2913   23.3923 C   0  0  0  0  0  0  0  0  0  0  0  0
  -16.9509  -29.2802   23.3926 C   0  0  0  0  0  0  0  0  0  0  0  0
  -23.3737  -28.1994   23.3975 C   0  0  0  0  0  0  0  0  0  0  0  0
  -24.9081  -29.9602   21.5837 C   0  0  0  0  0  0  0  0  0  0  0  0
  -17.9641  -30.4167   23.5029 C   0  0  0  0  0  0  0  0  0  0  0  0
  -27.4674  -14.4134   17.2878 C   0  0  0  0  0  0  0  0  0  0  0  0
  -18.7149  -30.5921   22.1867 C   0  0  0  0  0  0  0  0  0  0  0  0
  -26.9999  -13.2394   18.1439 C   0  0  0  0  0  0  0  0  0  0  0  0
  -27.2372  -15.7548   17.9823 C   0  0  0  0  0  0  0  0  0  0  0  0
  -27.3738  -14.6580   20.2001 C   0  0  0  0  0  0  0  0  0  0  0  0
  -19.5052  -29.3274   21.8296 C   0  0  1  0  0  0  0  0  0  0  0  0
  -23.0227  -29.6736   23.2225 C   0  0  1  0  0  0  0  0  0  0  0  0
  -27.6390  -13.2957   19.5405 C   0  0  1  0  0  0  0  0  0  0  0  0
  -32.6853  -18.1709   17.5787 C   0  0  0  0  0  0  0  0  0  0  0  0
  -29.4186  -33.9208   24.2508 C   0  0  0  0  0  0  0  0  0  0  0  0
  -23.6595  -33.6693   20.9888 C   0  0  0  0  0  0  0  0  0  0  0  0
  -25.9058  -34.7312   21.2970 C   0  0  0  0  0  0  0  0  0  0  0  0
  -24.2379  -34.7849   23.1511 C   0  0  0  0  0  0  0  0  0  0  0  0
  -28.9674  -30.2455   25.1252 C   0  0  0  0  0  0  0  0  0  0  0  0
  -28.6569  -23.1106   18.4657 C   0  0  0  0  0  0  0  0  0  0  0  0
  -26.7643  -24.6791   19.2066 C   0  0  0  0  0  0  0  0  0  1  0  0
  -25.3904  -32.6074   22.5833 C   0  0  1  0  0  0  0  0  0  0  0  0
  -28.6337  -32.6519   24.5451 C   0  0  2  0  0  0  0  0  0  0  0  0
  -24.7962  -33.9203   21.9998 C   0  0  0  0  0  0  0  0  0  0  0  0
  -25.9395  -11.6568   20.2538 N   0  0  0  0  0  0  0  0  0  0  0  0
  -27.1812  -12.1443   20.4169 N   0  0  0  0  0  0  0  0  0  0  0  0
  -27.8066  -15.7636   19.3382 N   0  0  0  0  0  0  0  0  0  0  0  0
  -24.1526  -30.4702   22.7398 N   0  0  0  0  0  0  0  0  0  0  0  0
  -29.1642  -11.8765   21.6845 N   0  0  0  0  0  0  0  0  0  0  0  0
  -26.4240   -8.6976   23.3525 N   0  0  0  0  0  0  0  0  0  0  0  0
  -20.7184  -29.2509   22.6149 N   0  0  0  0  0  0  0  0  0  0  0  0
  -26.4504  -32.8153   23.5639 N   0  0  0  0  0  0  0  0  0  0  0  0
  -29.6025  -31.5484   24.7996 N   0  3  0  0  0  0  0  0  0  0  0  0
  -28.5069   -9.6404   23.5297 O   0  0  0  0  0  0  0  0  0  0  0  0
  -29.1235  -16.7162   21.0044 O   0  0  0  0  0  0  0  0  0  0  0  0
  -22.0668  -30.5871   21.2663 O   0  0  0  0  0  0  0  0  0  0  0  0
  -28.5017  -25.3859   17.7000 O   0  0  0  0  0  0  0  0  0  0  0  0
  -23.7299  -32.2124   24.2306 O   0  0  0  0  0  0  0  0  0  0  0  0
  -28.0814  -31.6157   22.4335 O   0  0  0  0  0  0  0  0  0  0  0  0
  -21.2076   -7.6490   21.7018 O   0  0  0  0  0  0  0  0  0  0  0  0
  -29.8277  -23.0546   17.6784 O   0  0  0  0  0  0  0  0  0  0  0  0
  -26.2544  -26.0018   19.0427 O   0  0  0  0  0  0  0  0  0  1  0  0
  -19.3628   -6.6665   26.8043 F   0  0  0  0  0  0  0  0  0  0  0  0
  -18.6977   -8.4981   22.4905 F   0  0  0  0  0  0  0  0  0  0  0  0
  1  2  1  0  0  0  0
  1  5  2  0  0  0  0
  2  6  2  0  0  0  0
  3  9  2  0  0  0  0
  3 18  1  0  0  0  0
  4 10  1  0  0  0  0
  4 18  2  0  0  0  0
  5 21  1  0  0  0  0
  6 23  1  0  0  0  0
  7 11  2  0  0  0  0
  7 22  1  0  0  0  0
  8 12  2  0  0  0  0
  8 25  1  0  0  0  0
  9 26  1  0  0  0  0
 10 26  2  0  0  0  0
 11 28  1  0  0  0  0
 12 27  1  0  0  0  0
 13 14  2  0  0  0  0
 13 29  1  0  0  0  0
 14 30  1  0  0  0  0
 15 19  1  0  0  0  0
 15 27  2  0  0  0  0
 16 24  1  0  0  0  0
 16 28  2  0  0  0  0
 17 30  2  0  0  0  0
 17 31  1  0  0  0  0
 18 32  1  0  0  0  0
 19 25  2  0  0  0  0
 19 34  1  0  0  0  0
 20 32  1  0  0  0  0
 20 33  2  0  0  0  0
 20 36  1  0  0  0  0
 21 23  2  0  0  0  0
 21 42  1  0  0  0  0
 22 24  2  0  0  0  0
 22 43  1  0  0  0  0
 23 51  1  0  0  0  0
 24 44  1  0  0  0  0
 25 54  1  0  0  0  0
 26 80  1  0  0  0  0
 27 81  1  0  0  0  0
 28 82  1  0  0  0  0
 29 31  2  0  0  0  0
 29 80  1  0  0  0  0
 30 83  1  0  0  0  0
 31 84  1  0  0  0  0
 32 65  2  0  0  0  0
 33 66  1  0  0  0  0
 33 69  1  0  0  0  0
 34 35  2  0  0  0  0
 35 37  1  0  0  0  0
 36 70  1  0  0  0  0
 36 74  2  0  0  0  0
 37 67  1  0  0  0  0
 37 75  2  0  0  0  0
 38 52  1  0  0  0  0
 38 71  1  0  0  0  0
 38 76  2  0  0  0  0
 39 60  1  0  0  0  0
 39 61  1  0  0  0  0
 39 77  2  0  0  0  0
 40 62  1  0  0  0  0
 40 68  1  0  0  0  0
 40 78  2  0  0  0  0
 41 63  1  0  0  0  0
 41 72  1  0  0  0  0
 41 79  2  0  0  0  0
 42 45  1  0  0  0  0
 43 52  1  0  0  0  0
 44 68  1  0  0  0  0
 45 47  1  0  0  0  0
 46 48  1  0  0  0  0
 46 49  1  0  0  0  0
 47 51  1  0  0  0  0
 48 53  1  0  0  0  0
 49 67  1  0  0  0  0
 50 53  1  0  0  0  0
 50 67  1  0  0  0  0
 51 71  1  0  0  0  0
 52 68  1  0  0  0  0
 53 66  1  0  0  0  0
 55 63  1  0  0  0  0
 56 64  1  0  0  0  0
 57 64  1  0  0  0  0
 58 64  1  0  0  0  0
 59 73  1  0  0  0  0
 60 81  1  0  0  0  0
 61 82  1  0  0  0  0
 62 64  1  0  0  0  0
 62 72  1  0  0  0  0
 63 73  1  0  0  0  0
 65 66  1  0  0  0  0
M  CHG  1  73   1
M  ISO  4  35 100  37 100  61 101  82 101
M  END
> <Batch ID>
0123

> <Smiles>
CNC(C)C(=O)NC(C(=O)N1Cc2cc([101O:1][101CH2:1]C(=O)COc3ccc(C)c(C=[100CH:0][100C:0](=O)N4CCCC(n5nc(-c6ccc(Oc7ccc(F)cc7F)cc6)c(C(N)=O)c5N)C4)c3)ccc2CC1C(=O)NC1CCCc2ccccc21)C(C)(C)C

> <Shape>
0.287

> <Color>
0.086

> <Negative vol penalty>
0.000

$$$$

  -OEChem-04052302033D

 87 95  0     1  0  0  0  0  0999 V2000
  -23.8561  -18.5755   25.3274 C   0  0  0  0  0  0  0  0  0  0  0  0
  -24.7915  -19.5992   25.2149 C   0  0  0  0  0  0  0  0  0  0  0  0
  -26.5141  -12.6591   21.7300 C   0  0  0  0  0  0  0  0  0  0  0  0
  -25.8277  -13.9441   19.8026 C   0  0  0  0  0  0  0  0  0  0  0  0
  -22.9721  -18.3224   24.2793 C   0  0  0  0  0  0  0  0  0  0  0  0
  -24.8441  -20.3696   24.0538 C   0  0  0  0  0  0  0  0  0  0  0  0
  -26.2076  -26.3262   23.6467 C   0  0  0  0  0  0  0  0  0  0  0  0
  -25.2806  -12.0079   21.7352 C   0  0  0  0  0  0  0  0  0  0  0  0
  -24.5942  -13.2929   19.8078 C   0  0  0  0  0  0  0  0  0  0  0  0
  -27.3846  -26.9989   23.3214 C   0  0  0  0  0  0  0  0  0  0  0  0
  -23.7810   -9.4993   20.0350 C   0  0  0  0  0  0  0  0  0  0  0  0
  -23.7794   -8.1149   20.2054 C   0  0  0  0  0  0  0  0  0  0  0  0
  -27.8814  -23.1419   18.2611 C   0  0  0  0  0  0  0  0  0  0  0  0
  -26.6307  -27.2017   21.0389 C   0  0  0  0  0  0  0  0  0  0  0  0
  -29.9887  -22.8354   20.0633 C   0  0  0  0  0  0  0  0  0  0  0  0
  -22.4462   -8.3624   22.2050 C   0  0  0  0  0  0  0  0  0  0  0  0
  -26.7877  -13.6272   20.7637 C   0  0  0  0  0  0  0  0  0  0  0  0
  -28.8556  -24.1342   18.3703 C   0  0  0  0  0  0  0  0  0  0  0  0
  -29.2291  -13.9052   20.0784 C   0  0  0  0  0  0  0  0  0  0  0  0
  -23.0075  -19.0963   23.1087 C   0  0  0  0  0  0  0  0  0  0  0  0
  -25.2364  -26.0762   22.6665 C   0  0  0  0  0  0  0  0  0  0  0  0
  -23.9606  -20.1257   22.9886 C   0  0  0  0  0  0  0  0  0  0  0  0
  -25.4410  -26.5279   21.3549 C   0  0  0  0  0  0  0  0  0  0  0  0
  -27.9608  -21.9964   19.0530 C   0  0  0  0  0  0  0  0  0  0  0  0
  -29.0144  -21.8431   19.9541 C   0  0  0  0  0  0  0  0  0  0  0  0
  -24.3206  -12.3248   20.7741 C   0  0  0  0  0  0  0  0  0  0  0  0
  -27.5976  -27.4342   22.0167 C   0  0  0  0  0  0  0  0  0  0  0  0
  -23.1152  -10.3153   20.9497 C   0  0  0  0  0  0  0  0  0  0  0  0
  -29.9092  -23.9809   19.2713 C   0  0  0  0  0  0  0  0  0  0  0  0
  -23.1121   -7.5464   21.2903 C   0  0  0  0  0  0  0  0  0  0  0  0
  -22.4478   -9.7468   22.0346 C   0  0  0  0  0  0  0  0  0  0  0  0
  -28.0615  -14.3006   20.7582 C   0  0  0  0  0  0  0  0  0  0  0  0
  -30.1532  -14.8715   20.3926 C   0  0  0  0  0  0  0  0  0  0  0  0
  -27.5972  -25.8440   17.1421 C   0  0  0  0  0  0  0  0  0  0  0  0
  -28.7501  -25.3222   17.5341 C   0  0  0  0  0  0  0  0  0  0  0  0
  -30.7243  -27.9777   20.3922 C   0  0  0  0  0  0  0  0  0  0  0  0
  -29.4579  -12.7662   19.2381 C   0  0  0  0  0  0  0  0  0  0  0  0
  -31.5690  -26.9367   20.5322 C   0  0  0  0  0  0  0  0  0  0  0  0
  -23.9524  -23.4602   21.3969 C   0  0  0  0  0  0  0  0  0  0  0  0
  -22.0244  -25.6015   19.9069 C   0  0  0  0  0  0  0  0  0  0  0  0
  -21.5625  -28.7886   18.7774 C   0  0  0  0  0  0  0  0  0  0  0  0
  -29.6749  -20.5952   22.0404 C   0  0  0  0  0  0  0  0  0  0  0  0
  -22.0630  -18.7545   21.9836 C   0  0  0  0  0  0  0  0  0  0  0  0
  -23.9603  -25.3727   23.0395 C   0  0  0  0  0  0  0  0  0  0  0  0
  -24.4207  -26.3024   20.2703 C   0  0  0  0  0  0  0  0  0  0  0  0
  -21.9360  -19.8595   20.9381 C   0  0  0  0  0  0  0  0  0  0  0  0
  -31.2870  -17.9862   23.8491 C   0  0  0  0  0  0  0  0  0  0  0  0
  -23.3134  -20.3858   20.5475 C   0  0  0  0  0  0  0  0  0  0  0  0
  -30.7537  -16.7091   23.1959 C   0  0  0  0  0  0  0  0  0  0  0  0
  -30.2159  -19.0726   23.9283 C   0  0  0  0  0  0  0  0  0  0  0  0
  -29.0202  -18.1082   22.0022 C   0  0  0  0  0  0  0  0  0  0  0  0
  -24.0324  -20.9993   21.7550 C   0  0  1  0  0  0  0  0  0  0  0  0
  -23.2677  -24.7195   21.8475 C   0  0  1  0  0  0  0  0  0  0  0  0
  -30.0814  -17.0073   21.8414 C   0  0  2  0  0  0  0  0  0  0  0  0
  -26.9038  -20.9490   18.9144 C   0  0  0  0  0  0  0  0  0  0  0  0
  -33.6144  -27.2748   21.9601 C   0  0  0  0  0  0  0  0  0  0  0  0
  -19.9016  -30.2280   17.5663 C   0  0  0  0  0  0  0  0  0  0  0  0
  -22.8105  -24.2850   17.2690 C   0  0  0  0  0  0  0  0  0  0  0  0
  -21.9171  -26.2980   16.0783 C   0  0  0  0  0  0  0  0  0  0  0  0
  -20.3899  -24.8853   17.4547 C   0  0  0  0  0  0  0  0  0  0  0  0
  -21.2888  -30.6181   21.0876 C   0  0  0  0  0  0  0  0  0  0  0  0
  -29.2291  -27.9403   20.3620 C   0  0  0  0  0  0  0  0  0  1  0  0
  -33.0760  -27.0644   20.5522 C   0  0  0  0  0  0  0  0  0  0  0  0
  -31.0224  -25.5380   20.6828 C   0  0  0  0  0  0  0  0  0  0  0  0
  -22.0815  -26.3686   18.6080 C   0  0  1  0  0  0  0  0  0  0  0  0
  -20.3963  -29.7496   18.9224 C   0  0  2  0  0  0  0  0  0  0  0  0
  -21.8200  -25.4619   17.3723 C   0  0  0  0  0  0  0  0  0  0  0  0
  -28.2262  -15.4300   21.4519 N   0  0  0  0  0  0  0  0  0  0  0  0
  -29.5082  -15.7525   21.2098 N   0  0  0  0  0  0  0  0  0  0  0  0
  -23.1919  -25.6044   20.6832 N   0  0  0  0  0  0  0  0  0  0  0  0
  -29.6264  -19.3043   22.6078 N   0  0  0  0  0  0  0  0  0  0  0  0
  -31.4466  -15.0451   20.0467 N   0  0  0  0  0  0  0  0  0  0  0  0
  -28.3999  -11.8732   19.0204 N   0  0  0  0  0  0  0  0  0  0  0  0
  -29.1117  -20.6874   20.7681 N   0  0  0  0  0  0  0  0  0  0  0  0
  -23.5096  -22.3189   22.0377 N   0  0  0  0  0  0  0  0  0  0  0  0
  -21.1417  -27.4759   18.7462 N   0  0  0  0  0  0  0  0  0  0  0  0
  -20.8026  -30.9403   19.7213 N   0  3  0  0  0  0  0  0  0  0  0  0
  -30.5725  -12.5381   18.7095 O   0  0  0  0  0  0  0  0  0  0  0  0
  -24.8174  -23.5195   20.5309 O   0  0  0  0  0  0  0  0  0  0  0  0
  -20.9800  -25.0271   20.2246 O   0  0  0  0  0  0  0  0  0  0  0  0
  -22.7296  -29.1650   18.6959 O   0  0  0  0  0  0  0  0  0  0  0  0
  -30.2033  -21.5428   22.6278 O   0  0  0  0  0  0  0  0  0  0  0  0
  -23.1169  -11.6895   20.7787 O   0  0  0  0  0  0  0  0  0  0  0  0
  -28.7458  -28.0905   21.6963 O   0  0  0  0  0  0  0  0  0  1  0  0
  -30.8778  -24.9419   19.4004 O   0  0  0  0  0  0  0  0  0  0  0  0
  -23.1094   -6.2169   21.4529 F   0  0  0  0  0  0  0  0  0  0  0  0
  -21.8054  -10.5255   22.9160 F   0  0  0  0  0  0  0  0  0  0  0  0
  1  2  1  0  0  0  0
  1  5  2  0  0  0  0
  2  6  2  0  0  0  0
  3  8  2  0  0  0  0
  3 17  1  0  0  0  0
  4  9  1  0  0  0  0
  4 17  2  0  0  0  0
  5 20  1  0  0  0  0
  6 22  1  0  0  0  0
  7 10  2  0  0  0  0
  7 21  1  0  0  0  0
  8 26  1  0  0  0  0
  9 26  2  0  0  0  0
 10 27  1  0  0  0  0
 11 12  2  0  0  0  0
 11 28  1  0  0  0  0
 12 30  1  0  0  0  0
 13 18  1  0  0  0  0
 13 24  2  0  0  0  0
 14 23  1  0  0  0  0
 14 27  2  0  0  0  0
 15 25  2  0  0  0  0
 15 29  1  0  0  0  0
 16 30  2  0  0  0  0
 16 31  1  0  0  0  0
 17 32  1  0  0  0  0
 18 29  2  0  0  0  0
 18 35  1  0  0  0  0
 19 32  1  0  0  0  0
 19 33  2  0  0  0  0
 19 37  1  0  0  0  0
 20 22  2  0  0  0  0
 20 43  1  0  0  0  0
 21 23  2  0  0  0  0
 21 44  1  0  0  0  0
 22 52  1  0  0  0  0
 23 45  1  0  0  0  0
 24 25  1  0  0  0  0
 24 55  1  0  0  0  0
 25 74  1  0  0  0  0
 26 83  1  0  0  0  0
 27 84  1  0  0  0  0
 28 31  2  0  0  0  0
 28 83  1  0  0  0  0
 29 85  1  0  0  0  0
 30 86  1  0  0  0  0
 31 87  1  0  0  0  0
 32 68  2  0  0  0  0
 33 69  1  0  0  0  0
 33 72  1  0  0  0  0
 34 35  2  0  0  0  0
 36 38  2  0  0  0  0
 36 62  1  0  0  0  0
 37 73  1  0  0  0  0
 37 78  2  0  0  0  0
 38 63  1  0  0  0  0
 38 64  1  0  0  0  0
 39 53  1  0  0  0  0
 39 75  1  0  0  0  0
 39 79  2  0  0  0  0
 40 65  1  0  0  0  0
 40 70  1  0  0  0  0
 40 80  2  0  0  0  0
 41 66  1  0  0  0  0
 41 76  1  0  0  0  0
 41 81  2  0  0  0  0
 42 71  1  0  0  0  0
 42 74  1  0  0  0  0
 42 82  2  0  0  0  0
 43 46  1  0  0  0  0
 44 53  1  0  0  0  0
 45 70  1  0  0  0  0
 46 48  1  0  0  0  0
 47 49  1  0  0  0  0
 47 50  1  0  0  0  0
 48 52  1  0  0  0  0
 49 54  1  0  0  0  0
 50 71  1  0  0  0  0
 51 54  1  0  0  0  0
 51 71  1  0  0  0  0
 52 75  1  0  0  0  0
 53 70  1  0  0  0  0
 54 69  1  0  0  0  0
 56 63  1  0  0  0  0
 57 66  1  0  0  0  0
 58 67  1  0  0  0  0
 59 67  1  0  0  0  0
 60 67  1  0  0  0  0
 61 77  1  0  0  0  0
 62 84  1  0  0  0  0
 64 85  1  0  0  0  0
 65 67  1  0  0  0  0
 65 76  1  0  0  0  0
 66 77  1  0  0  0  0
 68 69  1  0  0  0  0
M  CHG  1  77   1
M  ISO  4  42 100  62 101  74 100  84 101
M  END
> <Batch ID>
0123

> <Smiles>
C=Cc1cc(C)c([100NH:0][100C:0](=O)N2CCCC(n3nc(-c4ccc(Oc5ccc(F)cc5F)cc4)c(C(N)=O)c3N)C2)cc1OCC(=C[101CH2:1][101O:1]c1ccc2c(c1)CN(C(=O)C(NC(=O)C(C)NC)C(C)(C)C)C(C(=O)NC1CCCc3ccccc31)C2)CC

> <Shape>
0.215

> <Color>
0.063

> <Negative vol penalty>
0.000

$$$$

  -OEChem-04052302033D

 85 93  0     1  0  0  0  0  0999 V2000
  -27.1328  -36.2249   24.5678 C   0  0  0  0  0  0  0  0  0  0  0  0
  -27.4315  -34.8666   24.5320 C   0  0  0  0  0  0  0  0  0  0  0  0
  -24.1621   -9.5841   22.1678 C   0  0  0  0  0  0  0  0  0  0  0  0
  -24.5555   -8.6608   19.9701 C   0  0  0  0  0  0  0  0  0  0  0  0
  -25.8079  -36.6488   24.4732 C   0  0  0  0  0  0  0  0  0  0  0  0
  -26.4053  -33.9314   24.4026 C   0  0  0  0  0  0  0  0  0  0  0  0
  -27.4868  -30.3154   21.0262 C   0  0  0  0  0  0  0  0  0  0  0  0
  -23.0591   -8.7447   22.3231 C   0  0  0  0  0  0  0  0  0  0  0  0
  -23.4524   -7.8213   20.1254 C   0  0  0  0  0  0  0  0  0  0  0  0
  -28.3506  -29.3003   21.4351 C   0  0  0  0  0  0  0  0  0  0  0  0
  -22.4850   -5.5020   23.0901 C   0  0  0  0  0  0  0  0  0  0  0  0
  -22.3466   -4.8315   24.3054 C   0  0  0  0  0  0  0  0  0  0  0  0
  -27.9074  -21.4400   20.8103 C   0  0  0  0  0  0  0  0  0  0  0  0
  -26.5028  -21.0757   18.8787 C   0  0  0  0  0  0  0  0  0  0  0  0
  -27.5510  -23.2252   19.2219 C   0  0  0  0  0  0  0  0  0  0  0  0
  -26.4586  -27.8552   21.8241 C   0  0  0  0  0  0  0  0  0  0  0  0
  -20.2172   -5.9160   24.6612 C   0  0  0  0  0  0  0  0  0  0  0  0
  -24.9103   -9.5422   20.9913 C   0  0  0  0  0  0  0  0  0  0  0  0
  -27.0897  -20.6021   20.0521 C   0  0  0  0  0  0  0  0  0  0  0  0
  -28.1380  -22.7516   20.3952 C   0  0  0  0  0  0  0  0  0  0  0  0
  -27.3841  -10.1347   21.1842 C   0  0  0  0  0  0  0  0  0  0  0  0
  -24.7658  -35.7187   24.3329 C   0  0  0  0  0  0  0  0  0  0  0  0
  -26.0994  -30.1113   21.0237 C   0  0  0  0  0  0  0  0  0  0  0  0
  -25.0652  -34.3432   24.3074 C   0  0  0  0  0  0  0  0  0  0  0  0
  -25.5795  -28.8684   21.4124 C   0  0  0  0  0  0  0  0  0  0  0  0
  -22.7042   -7.8632   21.3019 C   0  0  0  0  0  0  0  0  0  0  0  0
  -27.8364  -28.0709   21.8368 C   0  0  0  0  0  0  0  0  0  0  0  0
  -21.4895   -6.3795   22.6604 C   0  0  0  0  0  0  0  0  0  0  0  0
  -26.7334  -22.3873   18.4636 C   0  0  0  0  0  0  0  0  0  0  0  0
  -21.2127   -5.0385   25.0909 C   0  0  0  0  0  0  0  0  0  0  0  0
  -20.3556   -6.5865   23.4459 C   0  0  0  0  0  0  0  0  0  0  0  0
  -26.0496  -10.4095   20.8301 C   0  0  0  0  0  0  0  0  0  0  0  0
  -28.0737  -11.2686   20.8303 C   0  0  0  0  0  0  0  0  0  0  0  0
  -26.8489  -19.2345   20.4850 C   0  0  0  0  0  0  0  0  0  0  0  0
  -29.0008  -23.6362   21.1958 C   0  0  0  0  0  0  0  0  0  0  0  0
  -26.4181  -18.2275   19.6957 C   0  0  0  0  0  0  0  0  0  0  0  0
  -29.6008  -24.7479   20.7424 C   0  0  0  0  0  0  0  0  0  0  0  0
  -27.9498   -8.9595   21.7796 C   0  0  0  0  0  0  0  0  0  0  0  0
  -26.2301  -16.8860   20.2838 C   0  0  0  0  0  0  0  0  0  0  0  0
  -23.6344  -31.4363   22.5310 C   0  0  0  0  0  0  0  0  0  0  0  0
  -21.9044  -29.5142   20.5726 C   0  0  0  0  0  0  0  0  0  0  0  0
  -21.7759  -26.6940   18.6552 C   0  0  0  0  0  0  0  0  0  0  0  0
  -23.3452  -36.2225   24.2819 C   0  0  0  0  0  0  0  0  0  0  0  0
  -25.1825  -31.2074   20.5544 C   0  0  0  0  0  0  0  0  0  0  0  0
  -24.0990  -28.5919   21.4085 C   0  0  0  0  0  0  0  0  0  0  0  0
  -22.3491  -35.1851   23.7702 C   0  0  0  0  0  0  0  0  0  0  0  0
  -27.9861  -14.9076   17.7472 C   0  0  0  0  0  0  0  0  0  0  0  0
  -22.5808  -33.8406   24.4523 C   0  0  0  0  0  0  0  0  0  0  0  0
  -27.7619  -13.4919   18.2720 C   0  0  0  0  0  0  0  0  0  0  0  0
  -26.7940  -15.8192   18.0343 C   0  0  0  0  0  0  0  0  0  0  0  0
  -26.1799  -14.4388   19.9984 C   0  0  0  0  0  0  0  0  0  0  0  0
  -23.9819  -33.2994   24.1431 C   0  0  1  0  0  0  0  0  0  0  0  0
  -23.7583  -31.0615   21.0812 C   0  0  1  0  0  0  0  0  0  0  0  0
  -27.3863  -13.5168   19.7620 C   0  0  1  0  0  0  0  0  0  0  0  0
  -25.9868  -22.5977   14.9442 C   0  0  0  0  0  0  0  0  0  0  0  0
  -20.2150  -25.3662   17.2068 C   0  0  0  0  0  0  0  0  0  0  0  0
  -20.5065  -28.4438   23.0646 C   0  0  0  0  0  0  0  0  0  0  0  0
  -19.6889  -26.5156   21.6927 C   0  0  0  0  0  0  0  0  0  0  0  0
  -18.9967  -28.8405   21.1107 C   0  0  0  0  0  0  0  0  0  0  0  0
  -23.4987  -27.0468   16.2749 C   0  0  0  0  0  0  0  0  0  0  0  0
  -30.4860  -25.6174   21.5928 C   0  0  0  0  0  0  0  0  0  0  0  0
  -25.9147  -21.8985   16.2849 C   0  0  0  0  0  0  0  0  0  0  0  0
  -29.9777  -27.0532   21.6498 C   0  0  0  0  0  0  0  0  0  1  0  0
  -21.3722  -28.1040   20.6560 C   0  0  1  0  0  0  0  0  0  0  0  0
  -21.2725  -26.4585   17.2425 C   0  0  2  0  0  0  0  0  0  0  0  0
  -20.1689  -27.9815   21.6331 C   0  0  0  0  0  0  0  0  0  0  0  0
  -25.8981  -11.6229   20.2927 N   0  0  0  0  0  0  0  0  0  0  0  0
  -27.1464  -12.1206   20.3065 N   0  0  0  0  0  0  0  0  0  0  0  0
  -26.4171  -15.7810   19.4553 N   0  0  0  0  0  0  0  0  0  0  0  0
  -23.2431  -29.6974   20.9473 N   0  0  0  0  0  0  0  0  0  0  0  0
  -29.3767  -11.6100   20.9193 N   0  0  0  0  0  0  0  0  0  0  0  0
  -27.0992   -7.8866   22.0790 N   0  0  0  0  0  0  0  0  0  0  0  0
  -24.0224  -32.7324   22.8122 N   0  0  0  0  0  0  0  0  0  0  0  0
  -21.0737  -27.6987   19.2867 N   0  0  0  0  0  0  0  0  0  0  0  0
  -22.3972  -26.0531   16.3528 N   0  3  0  0  0  0  0  0  0  0  0  0
  -29.1706   -8.8701   22.0536 O   0  0  0  0  0  0  0  0  0  0  0  0
  -25.9138  -16.8259   21.4733 O   0  0  0  0  0  0  0  0  0  0  0  0
  -23.2164  -30.6111   23.3348 O   0  0  0  0  0  0  0  0  0  0  0  0
  -21.1619  -30.4187   20.1824 O   0  0  0  0  0  0  0  0  0  0  0  0
  -22.6971  -26.0485   19.1504 O   0  0  0  0  0  0  0  0  0  0  0  0
  -21.6280   -7.0438   21.4532 O   0  0  0  0  0  0  0  0  0  0  0  0
  -28.6774  -27.0787   22.2370 O   0  0  0  0  0  0  0  0  0  1  0  0
  -26.1603  -22.8502   17.3192 O   0  0  0  0  0  0  0  0  0  0  0  0
  -21.0792   -4.3935   26.2572 F   0  0  0  0  0  0  0  0  0  0  0  0
  -19.3953   -7.4274   23.0377 F   0  0  0  0  0  0  0  0  0  0  0  0
  1  2  1  0  0  0  0
  1  5  2  0  0  0  0
  2  6  2  0  0  0  0
  3  8  2  0  0  0  0
  3 18  1  0  0  0  0
  4  9  1  0  0  0  0
  4 18  2  0  0  0  0
  5 22  1  0  0  0  0
  6 24  1  0  0  0  0
  7 10  2  0  0  0  0
  7 23  1  0  0  0  0
  8 26  1  0  0  0  0
  9 26  2  0  0  0  0
 10 27  1  0  0  0  0
 11 12  2  0  0  0  0
 11 28  1  0  0  0  0
 12 30  1  0  0  0  0
 13 19  2  0  0  0  0
 13 20  1  0  0  0  0
 14 19  1  0  0  0  0
 14 29  2  0  0  0  0
 15 20  2  0  0  0  0
 15 29  1  0  0  0  0
 16 25  1  0  0  0  0
 16 27  2  0  0  0  0
 17 30  2  0  0  0  0
 17 31  1  0  0  0  0
 18 32  1  0  0  0  0
 19 34  1  0  0  0  0
 20 35  1  0  0  0  0
 21 32  1  0  0  0  0
 21 33  2  0  0  0  0
 21 38  1  0  0  0  0
 22 24  2  0  0  0  0
 22 43  1  0  0  0  0
 23 25  2  0  0  0  0
 23 44  1  0  0  0  0
 24 52  1  0  0  0  0
 25 45  1  0  0  0  0
 26 81  1  0  0  0  0
 27 82  1  0  0  0  0
 28 31  2  0  0  0  0
 28 81  1  0  0  0  0
 29 83  1  0  0  0  0
 30 84  1  0  0  0  0
 31 85  1  0  0  0  0
 32 67  2  0  0  0  0
 33 68  1  0  0  0  0
 33 71  1  0  0  0  0
 34 36  2  0  0  0  0
 35 37  2  0  0  0  0
 36 39  1  0  0  0  0
 37 61  1  0  0  0  0
 38 72  1  0  0  0  0
 38 76  2  0  0  0  0
 39 69  1  0  0  0  0
 39 77  2  0  0  0  0
 40 53  1  0  0  0  0
 40 73  1  0  0  0  0
 40 78  2  0  0  0  0
 41 64  1  0  0  0  0
 41 70  1  0  0  0  0
 41 79  2  0  0  0  0
 42 65  1  0  0  0  0
 42 74  1  0  0  0  0
 42 80  2  0  0  0  0
 43 46  1  0  0  0  0
 44 53  1  0  0  0  0
 45 70  1  0  0  0  0
 46 48  1  0  0  0  0
 47 49  1  0  0  0  0
 47 50  1  0  0  0  0
 48 52  1  0  0  0  0
 49 54  1  0  0  0  0
 50 69  1  0  0  0  0
 51 54  1  0  0  0  0
 51 69  1  0  0  0  0
 52 73  1  0  0  0  0
 53 70  1  0  0  0  0
 54 68  1  0  0  0  0
 55 62  1  0  0  0  0
 56 65  1  0  0  0  0
 57 66  1  0  0  0  0
 58 66  1  0  0  0  0
 59 66  1  0  0  0  0
 60 75  1  0  0  0  0
 61 63  1  0  0  0  0
 62 83  1  0  0  0  0
 63 82  1  0  0  0  0
 64 66  1  0  0  0  0
 64 74  1  0  0  0  0
 65 75  1  0  0  0  0
 67 68  1  0  0  0  0
M  CHG  1  75   1
M  ISO  4  36 100  39 100  63 101  82 101
M  END
> <Batch ID>
0123

> <Smiles>
CCOc1cc(C=CC[101CH2:1][101O:1]c2ccc3c(c2)CN(C(=O)C(NC(=O)C(C)NC)C(C)(C)C)C(C(=O)NC2CCCc4ccccc42)C3)cc(C=[100CH:0][100C:0](=O)N2CCCC(n3nc(-c4ccc(Oc5ccc(F)cc5F)cc4)c(C(N)=O)c3N)C2)c1

> <Shape>
0.289

> <Color>
0.085

> <Negative vol penalty>
0.000

$$$$

  -OEChem-04052302033D

 84 92  0     1  0  0  0  0  0999 V2000
  -25.1844  -33.2842   28.5233 C   0  0  0  0  0  0  0  0  0  0  0  0
  -25.9179  -32.3801   27.7617 C   0  0  0  0  0  0  0  0  0  0  0  0
  -25.5913   -7.6722   21.7825 C   0  0  0  0  0  0  0  0  0  0  0  0
  -24.8388   -7.6609   19.4867 C   0  0  0  0  0  0  0  0  0  0  0  0
  -23.8094  -33.4055   28.3263 C   0  0  0  0  0  0  0  0  0  0  0  0
  -25.2767  -31.5959   26.8035 C   0  0  0  0  0  0  0  0  0  0  0  0
  -27.5506  -29.7720   21.4175 C   0  0  0  0  0  0  0  0  0  0  0  0
  -24.7659   -6.5822   22.0585 C   0  0  0  0  0  0  0  0  0  0  0  0
  -24.0134   -6.5708   19.7627 C   0  0  0  0  0  0  0  0  0  0  0  0
  -28.1371  -28.5770   21.0033 C   0  0  0  0  0  0  0  0  0  0  0  0
  -21.4868   -6.0322   22.6661 C   0  0  0  0  0  0  0  0  0  0  0  0
  -20.7255   -6.0760   23.8340 C   0  0  0  0  0  0  0  0  0  0  0  0
  -29.3892  -21.4884   22.8453 C   0  0  0  0  0  0  0  0  0  0  0  0
  -28.7436  -21.5174   20.5174 C   0  0  0  0  0  0  0  0  0  0  0  0
  -26.0068  -27.8343   20.1494 C   0  0  0  0  0  0  0  0  0  0  0  0
  -21.8229   -4.0739   24.6243 C   0  0  0  0  0  0  0  0  0  0  0  0
  -25.6277   -8.2117   20.4966 C   0  0  0  0  0  0  0  0  0  0  0  0
  -29.0479  -22.2000   21.6952 C   0  0  0  0  0  0  0  0  0  0  0  0
  -29.1219  -19.4117   21.6399 C   0  0  0  0  0  0  0  0  0  0  0  0
  -27.8169   -9.3028   19.7727 C   0  0  0  0  0  0  0  0  0  0  0  0
  -23.1526  -32.6294   27.3584 C   0  0  0  0  0  0  0  0  0  0  0  0
  -26.1831  -30.0030   21.2102 C   0  0  0  0  0  0  0  0  0  0  0  0
  -23.8915  -31.7060   26.5942 C   0  0  0  0  0  0  0  0  0  0  0  0
  -25.4058  -29.0342   20.5596 C   0  0  0  0  0  0  0  0  0  0  0  0
  -29.4262  -20.0943   22.8177 C   0  0  0  0  0  0  0  0  0  0  0  0
  -28.7806  -20.1233   20.4897 C   0  0  0  0  0  0  0  0  0  0  0  0
  -23.9770   -6.0315   21.0486 C   0  0  0  0  0  0  0  0  0  0  0  0
  -27.3646  -27.6067   20.3717 C   0  0  0  0  0  0  0  0  0  0  0  0
  -22.4161   -5.0092   22.4772 C   0  0  0  0  0  0  0  0  0  0  0  0
  -20.8936   -5.0968   24.8132 C   0  0  0  0  0  0  0  0  0  0  0  0
  -22.5842   -4.0301   23.4563 C   0  0  0  0  0  0  0  0  0  0  0  0
  -26.4796   -9.3380   20.2111 C   0  0  0  0  0  0  0  0  0  0  0  0
  -28.1725  -10.6237   19.6487 C   0  0  0  0  0  0  0  0  0  0  0  0
  -29.0091  -23.6717   21.7234 C   0  0  0  0  0  0  0  0  0  0  0  0
  -29.1621  -17.9527   21.6115 C   0  0  0  0  0  0  0  0  0  0  0  0
  -28.1188  -17.1407   21.8695 C   0  0  0  0  0  0  0  0  0  0  0  0
  -29.0744  -24.4686   20.6454 C   0  0  0  0  0  0  0  0  0  0  0  0
  -28.6622   -8.1769   19.5017 C   0  0  0  0  0  0  0  0  0  0  0  0
  -28.3165  -15.6794   21.7900 C   0  0  0  0  0  0  0  0  0  0  0  0
  -23.6814  -30.5102   23.1044 C   0  0  0  0  0  0  0  0  0  0  0  0
  -22.1484  -31.0206   20.2917 C   0  0  0  0  0  0  0  0  0  0  0  0
  -22.0112  -30.4732   16.9259 C   0  0  0  0  0  0  0  0  0  0  0  0
  -21.6572  -32.7616   27.2143 C   0  0  0  0  0  0  0  0  0  0  0  0
  -25.5711  -31.3084   21.6390 C   0  0  0  0  0  0  0  0  0  0  0  0
  -23.9377  -29.2419   20.2951 C   0  0  0  0  0  0  0  0  0  0  0  0
  -21.1147  -32.1628   25.9192 C   0  0  0  0  0  0  0  0  0  0  0  0
  -25.3830  -14.8231   19.7669 C   0  0  0  0  0  0  0  0  0  0  0  0
  -21.7118  -30.7797   25.6794 C   0  0  0  0  0  0  0  0  0  0  0  0
  -25.4987  -13.3022   19.7108 C   0  0  0  0  0  0  0  0  0  0  0  0
  -25.8768  -15.3854   21.0990 C   0  0  0  0  0  0  0  0  0  0  0  0
  -27.3775  -13.4357   21.3938 C   0  0  0  0  0  0  0  0  0  0  0  0
  -23.2359  -30.8556   25.5279 C   0  0  1  0  0  0  0  0  0  0  0  0
  -24.0610  -31.2237   21.8377 C   0  0  1  0  0  0  0  0  0  0  0  0
  -26.9300  -12.8526   20.0443 C   0  0  1  0  0  0  0  0  0  0  0  0
  -29.7967  -19.3679   24.0711 C   0  0  0  0  0  0  0  0  0  0  0  0
  -26.9474  -19.3992   18.9400 C   0  0  0  0  0  0  0  0  0  0  0  0
  -20.6208  -30.9883   14.9014 C   0  0  0  0  0  0  0  0  0  0  0  0
  -20.0906  -28.9509   21.1814 C   0  0  0  0  0  0  0  0  0  0  0  0
  -19.3071  -28.8117   18.8076 C   0  0  0  0  0  0  0  0  0  0  0  0
  -19.1253  -30.9643   20.0549 C   0  0  0  0  0  0  0  0  0  0  0  0
  -24.2473  -31.8959   15.6088 C   0  0  0  0  0  0  0  0  0  0  0  0
  -28.4483  -19.4282   19.2078 C   0  0  0  0  0  0  0  0  0  0  0  0
  -29.0450  -25.9613   20.7252 C   0  0  0  0  0  0  0  0  0  1  0  0
  -21.4005  -30.1524   19.3088 C   0  0  1  0  0  0  0  0  0  0  0  0
  -21.7998  -31.4209   15.7590 C   0  0  2  0  0  0  0  0  0  0  0  0
  -20.0081  -29.7148   19.8448 C   0  0  0  0  0  0  0  0  0  0  0  0
  -26.0171  -10.5826   20.3560 N   0  0  0  0  0  0  0  0  0  0  0  0
  -27.0696  -11.3418   20.0068 N   0  0  0  0  0  0  0  0  0  0  0  0
  -27.2245  -14.8946   21.4240 N   0  0  0  0  0  0  0  0  0  0  0  0
  -23.3842  -30.5319   20.7388 N   0  0  0  0  0  0  0  0  0  0  0  0
  -29.3179  -11.2293   19.2696 N   0  0  0  0  0  0  0  0  0  0  0  0
  -28.1379   -6.8894   19.6807 N   0  0  0  0  0  0  0  0  0  0  0  0
  -23.5895  -31.3353   24.2090 N   0  0  0  0  0  0  0  0  0  0  0  0
  -21.3508  -30.9016   18.0579 N   0  0  0  0  0  0  0  0  0  0  0  0
  -23.0161  -31.4631   14.8990 N   0  3  0  0  0  0  0  0  0  0  0  0
  -29.8524   -8.3086   19.1281 O   0  0  0  0  0  0  0  0  0  0  0  0
  -29.4370  -15.2418   22.0576 O   0  0  0  0  0  0  0  0  0  0  0  0
  -23.4850  -29.3008   23.0810 O   0  0  0  0  0  0  0  0  0  0  0  0
  -21.6577  -32.0961   20.6440 O   0  0  0  0  0  0  0  0  0  0  0  0
  -22.6911  -29.4529   16.8406 O   0  0  0  0  0  0  0  0  0  0  0  0
  -23.1717   -4.9676   21.3174 O   0  0  0  0  0  0  0  0  0  0  0  0
  -27.9345  -26.4391   19.9670 O   0  0  0  0  0  0  0  0  0  1  0  0
  -20.1636   -5.1399   25.9354 F   0  0  0  0  0  0  0  0  0  0  0  0
  -23.4762   -3.0456   23.2810 F   0  0  0  0  0  0  0  0  0  0  0  0
  1  2  1  0  0  0  0
  1  5  2  0  0  0  0
  2  6  2  0  0  0  0
  3  8  2  0  0  0  0
  3 17  1  0  0  0  0
  4  9  1  0  0  0  0
  4 17  2  0  0  0  0
  5 21  1  0  0  0  0
  6 23  1  0  0  0  0
  7 10  2  0  0  0  0
  7 22  1  0  0  0  0
  8 27  1  0  0  0  0
  9 27  2  0  0  0  0
 10 28  1  0  0  0  0
 11 12  2  0  0  0  0
 11 29  1  0  0  0  0
 12 30  1  0  0  0  0
 13 18  1  0  0  0  0
 13 25  2  0  0  0  0
 14 18  2  0  0  0  0
 14 26  1  0  0  0  0
 15 24  1  0  0  0  0
 15 28  2  0  0  0  0
 16 30  2  0  0  0  0
 16 31  1  0  0  0  0
 17 32  1  0  0  0  0
 18 34  1  0  0  0  0
 19 25  1  0  0  0  0
 19 26  2  0  0  0  0
 19 35  1  0  0  0  0
 20 32  1  0  0  0  0
 20 33  2  0  0  0  0
 20 38  1  0  0  0  0
 21 23  2  0  0  0  0
 21 43  1  0  0  0  0
 22 24  2  0  0  0  0
 22 44  1  0  0  0  0
 23 52  1  0  0  0  0
 24 45  1  0  0  0  0
 25 55  1  0  0  0  0
 26 62  1  0  0  0  0
 27 81  1  0  0  0  0
 28 82  1  0  0  0  0
 29 31  2  0  0  0  0
 29 81  1  0  0  0  0
 30 83  1  0  0  0  0
 31 84  1  0  0  0  0
 32 67  2  0  0  0  0
 33 68  1  0  0  0  0
 33 71  1  0  0  0  0
 34 37  2  0  0  0  0
 35 36  2  0  0  0  0
 36 39  1  0  0  0  0
 37 63  1  0  0  0  0
 38 72  1  0  0  0  0
 38 76  2  0  0  0  0
 39 69  1  0  0  0  0
 39 77  2  0  0  0  0
 40 53  1  0  0  0  0
 40 73  1  0  0  0  0
 40 78  2  0  0  0  0
 41 64  1  0  0  0  0
 41 70  1  0  0  0  0
 41 79  2  0  0  0  0
 42 65  1  0  0  0  0
 42 74  1  0  0  0  0
 42 80  2  0  0  0  0
 43 46  1  0  0  0  0
 44 53  1  0  0  0  0
 45 70  1  0  0  0  0
 46 48  1  0  0  0  0
 47 49  1  0  0  0  0
 47 50  1  0  0  0  0
 48 52  1  0  0  0  0
 49 54  1  0  0  0  0
 50 69  1  0  0  0  0
 51 54  1  0  0  0  0
 51 69  1  0  0  0  0
 52 73  1  0  0  0  0
 53 70  1  0  0  0  0
 54 68  1  0  0  0  0
 56 62  1  0  0  0  0
 57 65  1  0  0  0  0
 58 66  1  0  0  0  0
 59 66  1  0  0  0  0
 60 66  1  0  0  0  0
 61 75  1  0  0  0  0
 63 82  1  0  0  0  0
 64 66  1  0  0  0  0
 64 74  1  0  0  0  0
 65 75  1  0  0  0  0
 67 68  1  0  0  0  0
M  CHG  1  75   1
M  ISO  4  36 100  39 100  63 101  82 101
M  END
> <Batch ID>
0123

> <Smiles>
CCc1cc(C=C[101CH2:1][101O:1]c2ccc3c(c2)CN(C(=O)C(NC(=O)C(C)NC)C(C)(C)C)C(C(=O)NC2CCCc4ccccc42)C3)cc(C)c1C=[100CH:0][100C:0](=O)N1CCCC(n2nc(-c3ccc(Oc4ccc(F)cc4F)cc3)c(C(N)=O)c2N)C1

> <Shape>
0.245

> <Color>
0.081

> <Negative vol penalty>
0.000

$$$$

  -OEChem-04052302033D

 84 93  0     1  0  0  0  0  0999 V2000
  -30.3145  -36.4552   22.0700 C   0  0  0  0  0  0  0  0  0  0  0  0
  -30.3367  -35.2089   21.4523 C   0  0  0  0  0  0  0  0  0  0  0  0
  -24.6776   -8.4885   20.4748 C   0  0  0  0  0  0  0  0  0  0  0  0
  -22.9570  -10.1841   20.5106 C   0  0  0  0  0  0  0  0  0  0  0  0
  -29.5781  -36.6393   23.2395 C   0  0  0  0  0  0  0  0  0  0  0  0
  -29.6232  -34.1456   22.0044 C   0  0  0  0  0  0  0  0  0  0  0  0
  -26.7846  -29.6467   18.9699 C   0  0  0  0  0  0  0  0  0  0  0  0
  -26.8072  -19.6471   16.6327 C   0  0  0  0  0  0  0  0  0  0  0  0
  -27.1544  -20.8013   17.3347 C   0  0  0  0  0  0  0  0  0  0  0  0
  -23.7797   -7.5659   21.0115 C   0  0  0  0  0  0  0  0  0  0  0  0
  -22.0590   -9.2615   21.0473 C   0  0  0  0  0  0  0  0  0  0  0  0
  -27.1583  -28.3380   18.6675 C   0  0  0  0  0  0  0  0  0  0  0  0
  -21.2295   -5.6397   19.9074 C   0  0  0  0  0  0  0  0  0  0  0  0
  -21.1882   -4.3677   19.3366 C   0  0  0  0  0  0  0  0  0  0  0  0
  -25.9472  -27.5521   20.6001 C   0  0  0  0  0  0  0  0  0  0  0  0
  -27.9916  -19.4450   19.1504 C   0  0  0  0  0  0  0  0  0  0  0  0
  -21.7959   -3.3939   21.4625 C   0  0  0  0  0  0  0  0  0  0  0  0
  -24.2663   -9.7977   20.2243 C   0  0  0  0  0  0  0  0  0  0  0  0
  -25.4271  -11.0173   18.3079 C   0  0  0  0  0  0  0  0  0  0  0  0
  -28.8474  -35.5803   23.8009 C   0  0  0  0  0  0  0  0  0  0  0  0
  -25.9971  -29.9195   20.0977 C   0  0  0  0  0  0  0  0  0  0  0  0
  -28.8774  -34.3153   23.1832 C   0  0  0  0  0  0  0  0  0  0  0  0
  -25.5628  -28.8648   20.9132 C   0  0  0  0  0  0  0  0  0  0  0  0
  -27.0522  -18.3919   17.1895 C   0  0  0  0  0  0  0  0  0  0  0  0
  -27.7466  -20.7003   18.5936 C   0  0  0  0  0  0  0  0  0  0  0  0
  -27.6444  -18.2908   18.4484 C   0  0  0  0  0  0  0  0  0  0  0  0
  -22.4704   -7.9524   21.2977 C   0  0  0  0  0  0  0  0  0  0  0  0
  -26.7420  -27.2908   19.4843 C   0  0  0  0  0  0  0  0  0  0  0  0
  -21.5540   -5.7889   21.2558 C   0  0  0  0  0  0  0  0  0  0  0  0
  -21.4714   -3.2448   20.1141 C   0  0  0  0  0  0  0  0  0  0  0  0
  -21.8372   -4.6660   22.0334 C   0  0  0  0  0  0  0  0  0  0  0  0
  -25.1936  -10.7513   19.6704 C   0  0  0  0  0  0  0  0  0  0  0  0
  -26.3905  -11.9962   18.3093 C   0  0  0  0  0  0  0  0  0  0  0  0
  -28.2478  -24.0639   19.9376 C   0  0  0  0  0  0  0  0  0  0  0  0
  -27.8364  -25.3234   20.1187 C   0  0  0  0  0  0  0  0  0  1  0  0
  -24.8266  -10.4319   17.1449 C   0  0  0  0  0  0  0  0  0  0  0  0
  -26.4031  -31.6035   22.7629 C   0  0  0  0  0  0  0  0  0  0  0  0
  -23.2813  -30.8642   23.2425 C   0  0  0  0  0  0  0  0  0  0  0  0
  -20.6698  -28.7632   22.6002 C   0  0  0  0  0  0  0  0  0  0  0  0
  -28.4829  -16.7683   20.2719 C   0  0  0  0  0  0  0  0  0  0  0  0
  -28.1044  -35.8151   25.0921 C   0  0  0  0  0  0  0  0  0  0  0  0
  -25.5803  -31.3338   20.3951 C   0  0  0  0  0  0  0  0  0  0  0  0
  -24.6994  -29.1024   22.1242 C   0  0  0  0  0  0  0  0  0  0  0  0
  -29.0567  -23.2738   20.9170 C   0  0  0  0  0  0  0  0  0  0  0  0
  -27.8681  -23.1937   18.7774 C   0  0  0  0  0  0  0  0  0  0  0  0
  -27.0733  -34.7343   25.4068 C   0  0  0  0  0  0  0  0  0  0  0  0
  -29.2509  -13.7971   22.0771 C   0  0  0  0  0  0  0  0  0  0  0  0
  -27.6729  -33.3474   25.1977 C   0  0  0  0  0  0  0  0  0  0  0  0
  -28.2830  -12.7617   21.4998 C   0  0  0  0  0  0  0  0  0  0  0  0
  -28.5990  -21.8412   20.6580 C   0  0  0  0  0  0  0  0  0  0  0  0
  -28.6086  -15.1794   22.1783 C   0  0  0  0  0  0  0  0  0  0  0  0
  -27.0389  -14.6415   20.3574 C   0  0  0  0  0  0  0  0  0  0  0  0
  -28.0964  -33.1439   23.7380 C   0  0  1  0  0  0  0  0  0  0  0  0
  -25.2049  -31.5510   21.8578 C   0  0  1  0  0  0  0  0  0  0  0  0
  -27.6618  -13.2478   20.1757 C   0  0  2  0  0  0  0  0  0  0  0  0
  -26.6697  -17.1727   16.4148 C   0  0  0  0  0  0  0  0  0  0  0  0
  -18.2526  -28.3952   23.1652 C   0  0  0  0  0  0  0  0  0  0  0  0
  -24.0884  -29.7768   25.9768 C   0  0  0  0  0  0  0  0  0  0  0  0
  -21.8833  -28.5958   26.0806 C   0  0  0  0  0  0  0  0  0  0  0  0
  -21.9579  -31.0864   25.9624 C   0  0  0  0  0  0  0  0  0  0  0  0
  -19.8439  -29.0604   19.7738 C   0  0  0  0  0  0  0  0  0  0  0  0
  -22.5416  -29.7301   23.9101 C   0  0  1  0  0  0  0  0  0  0  0  0
  -19.2326  -29.0372   22.1955 C   0  0  2  0  0  0  0  0  0  0  0  0
  -22.6357  -29.7927   25.4608 C   0  0  0  0  0  0  0  0  0  0  0  0
  -25.9481  -11.5006   20.4787 N   0  0  0  0  0  0  0  0  0  0  0  0
  -26.6651  -12.2470   19.6215 N   0  0  0  0  0  0  0  0  0  0  0  0
  -28.0902  -21.8434   19.2884 N   0  0  3  0  0  0  0  0  0  0  0  0
  -24.3234  -30.5032   22.3767 N   0  0  0  0  0  0  0  0  0  0  0  0
  -28.0454  -15.5756   20.8858 N   0  0  0  0  0  0  0  0  0  0  0  0
  -27.0212  -12.6581   17.3161 N   0  0  0  0  0  0  0  0  0  0  0  0
  -23.8533   -9.4394   17.3233 N   0  0  0  0  0  0  0  0  0  0  0  0
  -27.9012  -17.0249   19.0307 N   0  0  0  0  0  0  0  0  0  0  0  0
  -26.9417  -32.8675   22.9106 N   0  0  0  0  0  0  0  0  0  0  0  0
  -21.1784  -29.7709   23.3921 N   0  0  0  0  0  0  0  0  0  0  0  0
  -18.9664  -28.4973   20.8322 N   0  3  0  0  0  0  0  0  0  0  0  0
  -25.1557  -10.7671   15.9818 O   0  0  0  0  0  0  0  0  0  0  0  0
  -26.8081  -30.5738   23.2895 O   0  0  0  0  0  0  0  0  0  0  0  0
  -22.9422  -32.0272   23.4750 O   0  0  0  0  0  0  0  0  0  0  0  0
  -21.2790  -27.7541   22.2521 O   0  0  0  0  0  0  0  0  0  0  0  0
  -29.3325  -17.4937   20.7952 O   0  0  0  0  0  0  0  0  0  0  0  0
  -21.5938   -7.0523   21.8213 O   0  0  0  0  0  0  0  0  0  0  0  0
  -27.1059  -26.0125   19.1917 O   0  0  0  0  0  0  0  0  0  1  0  0
  -21.4303   -2.0232   19.5662 F   0  0  0  0  0  0  0  0  0  0  0  0
  -22.1485   -4.8029   23.3296 F   0  0  0  0  0  0  0  0  0  0  0  0
  1  2  1  0  0  0  0
  1  5  2  0  0  0  0
  2  6  2  0  0  0  0
  3 10  2  0  0  0  0
  3 18  1  0  0  0  0
  4 11  1  0  0  0  0
  4 18  2  0  0  0  0
  5 20  1  0  0  0  0
  6 22  1  0  0  0  0
  7 12  2  0  0  0  0
  7 21  1  0  0  0  0
  8  9  2  0  0  0  0
  8 24  1  0  0  0  0
  9 25  1  0  0  0  0
 10 27  1  0  0  0  0
 11 27  2  0  0  0  0
 12 28  1  0  0  0  0
 13 14  2  0  0  0  0
 13 29  1  0  0  0  0
 14 30  1  0  0  0  0
 15 23  1  0  0  0  0
 15 28  2  0  0  0  0
 16 25  2  0  0  0  0
 16 26  1  0  0  0  0
 17 30  2  0  0  0  0
 17 31  1  0  0  0  0
 18 32  1  0  0  0  0
 19 32  1  0  0  0  0
 19 33  2  0  0  0  0
 19 36  1  0  0  0  0
 20 22  2  0  0  0  0
 20 41  1  0  0  0  0
 21 23  2  0  0  0  0
 21 42  1  0  0  0  0
 22 53  1  0  0  0  0
 23 43  1  0  0  0  0
 24 26  2  0  0  0  0
 24 56  1  0  0  0  0
 25 67  1  0  0  0  0
 26 72  1  0  0  0  0
 27 81  1  0  0  0  0
 28 82  1  0  0  0  0
 29 31  2  0  0  0  0
 29 81  1  0  0  0  0
 30 83  1  0  0  0  0
 31 84  1  0  0  0  0
 32 65  2  0  0  0  0
 33 66  1  0  0  0  0
 33 70  1  0  0  0  0
 34 35  2  0  0  0  0
 34 44  1  0  0  0  0
 34 45  1  0  0  0  0
 35 82  1  0  0  0  0
 36 71  1  0  0  0  0
 36 76  2  0  0  0  0
 37 54  1  0  0  0  0
 37 73  1  0  0  0  0
 37 77  2  0  0  0  0
 38 62  1  0  0  0  0
 38 68  1  0  0  0  0
 38 78  2  0  0  0  0
 39 63  1  0  0  0  0
 39 74  1  0  0  0  0
 39 79  2  0  0  0  0
 40 69  1  0  0  0  0
 40 72  1  0  0  0  0
 40 80  2  0  0  0  0
 41 46  1  0  0  0  0
 42 54  1  0  0  0  0
 43 68  1  0  0  0  0
 44 50  1  0  0  0  0
 45 67  1  0  0  0  0
 46 48  1  0  0  0  0
 47 49  1  0  0  0  0
 47 51  1  0  0  0  0
 48 53  1  0  0  0  0
 49 55  1  0  0  0  0
 50 67  1  0  0  0  0
 51 69  1  0  0  0  0
 52 55  1  0  0  0  0
 52 69  1  0  0  0  0
 53 73  1  0  0  0  0
 54 68  1  0  0  0  0
 55 66  1  0  0  0  0
 57 63  1  0  0  0  0
 58 64  1  0  0  0  0
 59 64  1  0  0  0  0
 60 64  1  0  0  0  0
 61 75  1  0  0  0  0
 62 64  1  0  0  0  0
 62 74  1  0  0  0  0
 63 75  1  0  0  0  0
 65 66  1  0  0  0  0
M  CHG  1  75   1
M  ISO  4  35 101  40 100  72 100  82 101
M  END
> <Batch ID>
0123

> <Smiles>
CNC(C)C(=O)NC(C(=O)N1Cc2cc([101O:1][101CH:1]=C3CCN(c4ccc(C)c([100NH:0][100C:0](=O)N5CCCC(n6nc(-c7ccc(Oc8ccc(F)cc8F)cc7)c(C(N)=O)c6N)C5)c4)C3)ccc2CC1C(=O)NC1CCCc2ccccc21)C(C)(C)C

> <Shape>
0.281

> <Color>
0.102

> <Negative vol penalty>
0.000

$$$$

  -OEChem-04052302033D

 86 94  0     1  0  0  0  0  0999 V2000
  -19.9203   -8.1076   19.7336 C   0  0  0  0  0  0  0  0  0  0  0  0
  -19.5156   -9.3941   20.0750 C   0  0  0  0  0  0  0  0  0  0  0  0
  -28.4588  -25.0897   23.4288 C   0  0  0  0  0  0  0  0  0  0  0  0
  -30.0133  -26.2208   21.9655 C   0  0  0  0  0  0  0  0  0  0  0  0
  -21.2263   -7.6962   19.9961 C   0  0  0  0  0  0  0  0  0  0  0  0
  -20.4165  -10.2697   20.6801 C   0  0  0  0  0  0  0  0  0  0  0  0
  -20.7309  -16.3378   19.9155 C   0  0  0  0  0  0  0  0  0  0  0  0
  -29.1246  -23.8846   23.2047 C   0  0  0  0  0  0  0  0  0  0  0  0
  -30.6791  -25.0157   21.7414 C   0  0  0  0  0  0  0  0  0  0  0  0
  -20.2489  -17.4048   20.6725 C   0  0  0  0  0  0  0  0  0  0  0  0
  -32.5710  -22.1715   20.4999 C   0  0  0  0  0  0  0  0  0  0  0  0
  -32.9215  -21.8590   19.1865 C   0  0  0  0  0  0  0  0  0  0  0  0
  -18.1068  -26.6748   22.7799 C   0  0  0  0  0  0  0  0  0  0  0  0
  -22.4014  -17.6108   21.7418 C   0  0  0  0  0  0  0  0  0  0  0  0
  -19.4137  -28.6799   23.1091 C   0  0  0  0  0  0  0  0  0  0  0  0
  -30.5920  -21.9256   18.5491 C   0  0  0  0  0  0  0  0  0  0  0  0
  -28.9031  -26.2577   22.8092 C   0  0  0  0  0  0  0  0  0  0  0  0
  -19.1688  -26.0967   22.0845 C   0  0  0  0  0  0  0  0  0  0  0  0
  -28.4810  -28.4459   24.0507 C   0  0  0  0  0  0  0  0  0  0  0  0
  -22.1465   -8.5704   20.5959 C   0  0  0  0  0  0  0  0  0  0  0  0
  -22.0508  -15.8916   20.0741 C   0  0  0  0  0  0  0  0  0  0  0  0
  -21.7357   -9.8691   20.9521 C   0  0  0  0  0  0  0  0  0  0  0  0
  -22.8985  -16.5396   20.9838 C   0  0  0  0  0  0  0  0  0  0  0  0
  -20.3533  -26.8102   21.9014 C   0  0  0  0  0  0  0  0  0  0  0  0
  -20.4758  -28.1018   22.4137 C   0  0  0  0  0  0  0  0  0  0  0  0
  -30.2347  -23.8477   22.3610 C   0  0  0  0  0  0  0  0  0  0  0  0
  -21.0833  -18.0396   21.5878 C   0  0  0  0  0  0  0  0  0  0  0  0
  -31.2310  -22.3610   20.8380 C   0  0  0  0  0  0  0  0  0  0  0  0
  -31.9320  -21.7360   18.2111 C   0  0  0  0  0  0  0  0  0  0  0  0
  -18.2292  -27.9664   23.2921 C   0  0  0  0  0  0  0  0  0  0  0  0
  -30.2415  -22.2381   19.8626 C   0  0  0  0  0  0  0  0  0  0  0  0
  -28.2155  -27.5027   23.0399 C   0  0  0  0  0  0  0  0  0  0  0  0
  -27.5595  -29.4426   23.8409 C   0  0  0  0  0  0  0  0  0  0  0  0
  -19.0039  -24.7321   21.5567 C   0  0  0  0  0  0  0  0  0  0  0  0
  -18.7732  -23.6377   22.2988 C   0  0  0  0  0  0  0  0  0  0  0  0
  -29.4720  -28.4232   25.0866 C   0  0  0  0  0  0  0  0  0  0  0  0
  -23.4016  -13.1670   20.9992 C   0  0  0  0  0  0  0  0  0  0  0  0
  -19.6693  -21.3116   22.2659 C   0  0  0  0  0  0  0  0  0  0  0  0
  -26.1374  -14.6863   20.1451 C   0  0  0  0  0  0  0  0  0  0  0  0
  -27.7722  -17.6368   19.6268 C   0  0  0  0  0  0  0  0  0  0  0  0
  -22.1799  -29.1735   20.9500 C   0  0  0  0  0  0  0  0  0  0  0  0
  -23.5339   -8.0649   20.9031 C   0  0  0  0  0  0  0  0  0  0  0  0
  -22.5635  -14.7565   19.2308 C   0  0  0  0  0  0  0  0  0  0  0  0
  -24.3297  -16.1120   21.1771 C   0  0  0  0  0  0  0  0  0  0  0  0
  -24.5343   -9.1775   21.2058 C   0  0  0  0  0  0  0  0  0  0  0  0
  -24.9809  -31.5079   20.3886 C   0  0  0  0  0  0  0  0  0  0  0  0
  -23.9342  -10.1839   22.1824 C   0  0  0  0  0  0  0  0  0  0  0  0
  -26.1606  -30.7868   21.0386 C   0  0  0  0  0  0  0  0  0  0  0  0
  -23.9418  -30.5268   19.8540 C   0  0  0  0  0  0  0  0  0  0  0  0
  -24.6311  -28.8351   21.5252 C   0  0  0  0  0  0  0  0  0  0  0  0
  -22.6910  -10.8561   21.5873 C   0  0  1  0  0  0  0  0  0  0  0  0
  -23.7710  -14.0544   19.8443 C   0  0  1  0  0  0  0  0  0  0  0  0
  -25.6749  -29.7974   22.1120 C   0  0  1  0  0  0  0  0  0  0  0  0
  -21.4980  -26.1958   21.1550 C   0  0  0  0  0  0  0  0  0  0  0  0
  -30.0117  -18.5590   18.9701 C   0  0  0  0  0  0  0  0  0  0  0  0
  -27.2155  -14.0421   22.9259 C   0  0  0  0  0  0  0  0  0  0  0  0
  -29.0004  -15.7581   22.5553 C   0  0  0  0  0  0  0  0  0  0  0  0
  -28.8707  -13.7558   21.0732 C   0  0  0  0  0  0  0  0  0  0  0  0
  -22.2874  -29.5107   23.4085 C   0  0  0  0  0  0  0  0  0  0  0  0
  -26.6504  -18.9731   17.2363 C   0  0  0  0  0  0  0  0  0  0  0  0
  -18.6186  -22.2661   21.7163 C   0  0  0  0  0  0  0  0  0  0  0  0
  -19.5978  -19.8906   21.7403 C   0  0  0  0  0  0  0  0  0  1  0  0
  -27.1309  -15.5768   20.8514 C   0  0  1  0  0  0  0  0  0  0  0  0
  -28.6413  -18.1188   18.4793 C   0  0  2  0  0  0  0  0  0  0  0  0
  -28.0269  -14.7902   21.8494 C   0  0  0  0  0  0  0  0  0  0  0  0
  -27.2044  -27.8675   22.2470 N   0  0  0  0  0  0  0  0  0  0  0  0
  -26.8265  -29.0509   22.7595 N   0  0  0  0  0  0  0  0  0  0  0  0
  -24.7824  -14.9933   20.3338 N   0  0  0  0  0  0  0  0  0  0  0  0
  -23.5309  -29.5691   20.8814 N   0  0  0  0  0  0  0  0  0  0  0  0
  -27.3129  -30.6071   24.4778 N   0  0  0  0  0  0  0  0  0  0  0  0
  -30.3383  -27.3238   25.1584 N   0  0  0  0  0  0  0  0  0  0  0  0
  -23.0748  -11.8750   20.6339 N   0  0  0  0  0  0  0  0  0  0  0  0
  -27.8712  -16.2730   19.8047 N   0  0  0  0  0  0  0  0  0  0  0  0
  -21.6920  -28.8597   22.2370 N   0  0  0  0  0  0  0  0  0  0  0  0
  -27.9963  -19.2718   17.7898 N   0  3  0  0  0  0  0  0  0  0  0  0
  -29.5751  -29.3425   25.9338 O   0  0  0  0  0  0  0  0  0  0  0  0
  -23.4136  -13.6204   22.1376 O   0  0  0  0  0  0  0  0  0  0  0  0
  -20.5333  -21.6588   23.0702 O   0  0  0  0  0  0  0  0  0  0  0  0
  -26.5485  -13.7570   19.4458 O   0  0  0  0  0  0  0  0  0  0  0  0
  -27.0780  -18.3948   20.3006 O   0  0  0  0  0  0  0  0  0  0  0  0
  -21.4601  -29.1332   19.9450 O   0  0  0  0  0  0  0  0  0  0  0  0
  -30.8848  -22.6720   22.1422 O   0  0  0  0  0  0  0  0  0  0  0  0
  -20.6151  -19.0809   22.3284 O   0  0  0  0  0  0  0  0  0  1  0  0
  -32.2688  -21.4375   16.9495 F   0  0  0  0  0  0  0  0  0  0  0  0
  -17.2096  -28.5213   23.9606 F   0  0  0  0  0  0  0  0  0  0  0  0
  -28.9526  -22.4201   20.1811 F   0  0  0  0  0  0  0  0  0  0  0  0
  1  2  1  0  0  0  0
  1  5  2  0  0  0  0
  2  6  2  0  0  0  0
  3  8  2  0  0  0  0
  3 17  1  0  0  0  0
  4  9  1  0  0  0  0
  4 17  2  0  0  0  0
  5 20  1  0  0  0  0
  6 22  1  0  0  0  0
  7 10  2  0  0  0  0
  7 21  1  0  0  0  0
  8 26  1  0  0  0  0
  9 26  2  0  0  0  0
 10 27  1  0  0  0  0
 11 12  2  0  0  0  0
 11 28  1  0  0  0  0
 12 29  1  0  0  0  0
 13 18  1  0  0  0  0
 13 30  2  0  0  0  0
 14 23  1  0  0  0  0
 14 27  2  0  0  0  0
 15 25  2  0  0  0  0
 15 30  1  0  0  0  0
 16 29  2  0  0  0  0
 16 31  1  0  0  0  0
 17 32  1  0  0  0  0
 18 24  2  0  0  0  0
 18 34  1  0  0  0  0
 19 32  1  0  0  0  0
 19 33  2  0  0  0  0
 19 36  1  0  0  0  0
 20 22  2  0  0  0  0
 20 42  1  0  0  0  0
 21 23  2  0  0  0  0
 21 43  1  0  0  0  0
 22 51  1  0  0  0  0
 23 44  1  0  0  0  0
 24 25  1  0  0  0  0
 24 54  1  0  0  0  0
 25 74  1  0  0  0  0
 26 82  1  0  0  0  0
 27 83  1  0  0  0  0
 28 31  2  0  0  0  0
 28 82  1  0  0  0  0
 29 84  1  0  0  0  0
 30 85  1  0  0  0  0
 31 86  1  0  0  0  0
 32 66  2  0  0  0  0
 33 67  1  0  0  0  0
 33 70  1  0  0  0  0
 34 35  2  0  0  0  0
 35 61  1  0  0  0  0
 36 71  1  0  0  0  0
 36 76  2  0  0  0  0
 37 52  1  0  0  0  0
 37 72  1  0  0  0  0
 37 77  2  0  0  0  0
 38 61  1  0  0  0  0
 38 62  1  0  0  0  0
 38 78  2  0  0  0  0
 39 63  1  0  0  0  0
 39 68  1  0  0  0  0
 39 79  2  0  0  0  0
 40 64  1  0  0  0  0
 40 73  1  0  0  0  0
 40 80  2  0  0  0  0
 41 69  1  0  0  0  0
 41 74  1  0  0  0  0
 41 81  2  0  0  0  0
 42 45  1  0  0  0  0
 43 52  1  0  0  0  0
 44 68  1  0  0  0  0
 45 47  1  0  0  0  0
 46 48  1  0  0  0  0
 46 49  1  0  0  0  0
 47 51  1  0  0  0  0
 48 53  1  0  0  0  0
 49 69  1  0  0  0  0
 50 53  1  0  0  0  0
 50 69  1  0  0  0  0
 51 72  1  0  0  0  0
 52 68  1  0  0  0  0
 53 67  1  0  0  0  0
 55 64  1  0  0  0  0
 56 65  1  0  0  0  0
 57 65  1  0  0  0  0
 58 65  1  0  0  0  0
 59 74  1  0  0  0  0
 60 75  1  0  0  0  0
 62 83  1  0  0  0  0
 63 65  1  0  0  0  0
 63 73  1  0  0  0  0
 64 75  1  0  0  0  0
 66 67  1  0  0  0  0
M  CHG  1  75   1
M  ISO  4  41 100  62 101  74 100  83 101
M  END
> <Batch ID>
0123

> <Smiles>
CNC(C)C(=O)NC(C(=O)N1Cc2cc([101O:1][101CH2:1]C(=O)CC=Cc3cc(F)cc([100N:0](C)[100C:0](=O)N4CCCC(n5nc(-c6ccc(Oc7ccc(F)cc7F)cc6)c(C(N)=O)c5N)C4)c3C)ccc2CC1C(=O)NC1CCCc2ccccc21)C(C)(C)C

> <Shape>
0.256

> <Color>
0.057

> <Negative vol penalty>
0.000

$$$$

  -OEChem-04052302033D

 86 94  0     1  0  0  0  0  0999 V2000
  -23.3229   -6.5952   23.7004 C   0  0  0  0  0  0  0  0  0  0  0  0
  -24.6146   -7.1118   23.7116 C   0  0  0  0  0  0  0  0  0  0  0  0
  -25.1917  -33.3665   23.9538 C   0  0  0  0  0  0  0  0  0  0  0  0
  -24.3825  -34.0952   21.7972 C   0  0  0  0  0  0  0  0  0  0  0  0
  -22.3603   -7.1465   22.8558 C   0  0  0  0  0  0  0  0  0  0  0  0
  -24.9447   -8.1792   22.8773 C   0  0  0  0  0  0  0  0  0  0  0  0
  -29.1441  -13.9774   22.6263 C   0  0  0  0  0  0  0  0  0  0  0  0
  -25.5965  -34.6697   24.2423 C   0  0  0  0  0  0  0  0  0  0  0  0
  -24.7873  -35.3985   22.0857 C   0  0  0  0  0  0  0  0  0  0  0  0
  -30.0960  -14.5832   21.8074 C   0  0  0  0  0  0  0  0  0  0  0  0
  -28.1789  -36.7059   23.4611 C   0  0  0  0  0  0  0  0  0  0  0  0
  -29.4429  -36.8814   24.0241 C   0  0  0  0  0  0  0  0  0  0  0  0
  -28.3301  -15.5065   20.4479 C   0  0  0  0  0  0  0  0  0  0  0  0
  -29.1738  -20.5927   20.3750 C   0  0  0  0  0  0  0  0  0  0  0  0
  -31.1801  -21.8599   19.9212 C   0  0  0  0  0  0  0  0  0  0  0  0
  -28.4361  -37.9117   25.9636 C   0  0  0  0  0  0  0  0  0  0  0  0
  -24.5847  -33.0792   22.7312 C   0  0  0  0  0  0  0  0  0  0  0  0
  -29.2695  -22.9424   20.9286 C   0  0  0  0  0  0  0  0  0  0  0  0
  -22.9143  -31.1513   22.7056 C   0  0  0  0  0  0  0  0  0  0  0  0
  -22.6761   -8.2275   22.0178 C   0  0  0  0  0  0  0  0  0  0  0  0
  -27.7759  -14.1229   22.3554 C   0  0  0  0  0  0  0  0  0  0  0  0
  -23.9857   -8.7446   22.0198 C   0  0  0  0  0  0  0  0  0  0  0  0
  -27.3627  -14.9037   21.2664 C   0  0  0  0  0  0  0  0  0  0  0  0
  -28.5688  -21.7367   20.8953 C   0  0  0  0  0  0  0  0  0  0  0  0
  -30.4795  -20.6542   19.8880 C   0  0  0  0  0  0  0  0  0  0  0  0
  -25.3943  -35.6857   23.3083 C   0  0  0  0  0  0  0  0  0  0  0  0
  -29.6891  -15.3455   20.7163 C   0  0  0  0  0  0  0  0  0  0  0  0
  -27.0434  -37.1333   24.1494 C   0  0  0  0  0  0  0  0  0  0  0  0
  -29.5715  -37.4843   25.2753 C   0  0  0  0  0  0  0  0  0  0  0  0
  -30.5752  -23.0040   20.4415 C   0  0  0  0  0  0  0  0  0  0  0  0
  -27.1720  -37.7362   25.4006 C   0  0  0  0  0  0  0  0  0  0  0  0
  -24.1668  -31.7330   22.4324 C   0  0  0  0  0  0  0  0  0  0  0  0
  -23.0212  -29.8670   22.2306 C   0  0  0  0  0  0  0  0  0  0  0  0
  -28.6588  -24.1517   21.4657 C   0  0  0  0  0  0  0  0  0  0  0  0
  -28.4414  -25.2891   20.7749 C   0  0  0  0  0  0  0  0  0  0  0  0
  -31.7399  -18.7754   20.2134 C   0  0  0  0  0  0  0  0  0  0  0  0
  -21.7575  -31.7210   23.3326 C   0  0  0  0  0  0  0  0  0  0  0  0
  -27.8008  -26.4298   21.4600 C   0  0  0  0  0  0  0  0  0  0  0  0
  -25.4103  -12.1306   21.6217 C   0  0  0  0  0  0  0  0  0  0  0  0
  -23.5933  -14.8026   21.9065 C   0  0  0  0  0  0  0  0  0  0  0  0
  -23.4180  -18.2098   21.8202 C   0  0  0  0  0  0  0  0  0  0  0  0
  -21.6146   -8.7593   21.0877 C   0  0  0  0  0  0  0  0  0  0  0  0
  -26.7610  -13.4850   23.2640 C   0  0  0  0  0  0  0  0  0  0  0  0
  -25.9056  -15.1075   20.9444 C   0  0  0  0  0  0  0  0  0  0  0  0
  -21.9455  -10.1319   20.5073 C   0  0  0  0  0  0  0  0  0  0  0  0
  -25.2772  -27.2586   18.9349 C   0  0  0  0  0  0  0  0  0  0  0  0
  -23.3848  -10.1656   20.0035 C   0  0  0  0  0  0  0  0  0  0  0  0
  -24.6241  -28.4863   19.5643 C   0  0  0  0  0  0  0  0  0  0  0  0
  -26.7705  -27.1812   19.2486 C   0  0  0  0  0  0  0  0  0  0  0  0
  -26.4237  -28.4697   21.3367 C   0  0  0  0  0  0  0  0  0  0  0  0
  -24.3757   -9.9180   21.1474 C   0  0  1  0  0  0  0  0  0  0  0  0
  -25.4065  -13.2764   22.5937 C   0  0  1  0  0  0  0  0  0  0  0  0
  -24.9116  -28.5424   21.0730 C   0  0  1  0  0  0  0  0  0  0  0  0
  -33.9270  -17.6558   20.0384 C   0  0  0  0  0  0  0  0  0  0  0  0
  -21.7898  -20.1050   22.0533 C   0  0  0  0  0  0  0  0  0  0  0  0
  -22.5108  -14.2127   19.1154 C   0  0  0  0  0  0  0  0  0  0  0  0
  -21.6598  -16.5655   19.0240 C   0  0  0  0  0  0  0  0  0  0  0  0
  -20.7933  -14.9940   20.7568 C   0  0  0  0  0  0  0  0  0  0  0  0
  -24.8717  -19.3259   24.1440 C   0  0  0  0  0  0  0  0  0  0  0  0
  -27.1684  -21.6332   21.4083 C   0  0  0  0  0  0  0  0  0  0  0  0
  -31.8504  -16.3187   20.5215 C   0  0  0  0  0  0  0  0  0  1  0  0
  -32.4351  -17.5091   19.7658 C   0  0  1  0  0  0  0  0  0  0  0  0
  -23.1457  -15.8963   20.9670 C   0  0  1  0  0  0  0  0  0  0  0  0
  -22.7877  -19.2104   22.7720 C   0  0  2  0  0  0  0  0  0  0  0  0
  -22.0550  -15.4119   19.9705 C   0  0  0  0  0  0  0  0  0  0  0  0
  -25.0077  -30.8876   21.8307 N   0  0  0  0  0  0  0  0  0  0  0  0
  -31.0889  -19.5019   19.3642 N   0  0  0  0  0  0  0  0  0  0  0  0
  -24.2823  -29.7616   21.7219 N   0  0  0  0  0  0  0  0  0  0  0  0
  -27.0238  -27.2959   20.6927 N   0  0  0  0  0  0  0  0  0  0  0  0
  -24.9516  -14.4583   21.8587 N   0  0  0  0  0  0  0  0  0  0  0  0
  -22.1587  -28.8289   22.2027 N   0  0  0  0  0  0  0  0  0  0  0  0
  -21.8182  -33.0540   23.7611 N   0  0  0  0  0  0  0  0  0  0  0  0
  -24.5331  -11.1137   21.9473 N   0  0  0  0  0  0  0  0  0  0  0  0
  -22.7321  -17.0137   21.8089 N   0  0  0  0  0  0  0  0  0  0  0  0
  -26.1402  -21.9046   20.3681 N   0  3  0  0  0  0  0  0  0  0  0  0
  -23.8364  -20.0737   23.3851 N   0  3  0  0  0  0  0  0  0  0  0  0
  -20.7071  -31.0622   23.5225 O   0  0  0  0  0  0  0  0  0  0  0  0
  -27.9971  -26.5490   22.6707 O   0  0  0  0  0  0  0  0  0  0  0  0
  -26.1529  -12.1671   20.6476 O   0  0  0  0  0  0  0  0  0  0  0  0
  -22.7696  -14.2782   22.6602 O   0  0  0  0  0  0  0  0  0  0  0  0
  -24.4166  -18.4651   21.1508 O   0  0  0  0  0  0  0  0  0  0  0  0
  -25.7890  -36.9576   23.5895 O   0  0  0  0  0  0  0  0  0  0  0  0
  -30.6162  -15.9374   19.9150 O   0  0  0  0  0  0  0  0  0  1  0  0
  -30.7854  -37.6514   25.8164 F   0  0  0  0  0  0  0  0  0  0  0  0
  -31.2629  -24.1552   20.4650 F   0  0  0  0  0  0  0  0  0  0  0  0
  -26.0847  -38.1478   26.0671 F   0  0  0  0  0  0  0  0  0  0  0  0
  1  2  1  0  0  0  0
  1  5  2  0  0  0  0
  2  6  2  0  0  0  0
  3  8  2  0  0  0  0
  3 17  1  0  0  0  0
  4  9  1  0  0  0  0
  4 17  2  0  0  0  0
  5 20  1  0  0  0  0
  6 22  1  0  0  0  0
  7 10  2  0  0  0  0
  7 21  1  0  0  0  0
  8 26  1  0  0  0  0
  9 26  2  0  0  0  0
 10 27  1  0  0  0  0
 11 12  2  0  0  0  0
 11 28  1  0  0  0  0
 12 29  1  0  0  0  0
 13 23  1  0  0  0  0
 13 27  2  0  0  0  0
 14 24  1  0  0  0  0
 14 25  2  0  0  0  0
 15 25  1  0  0  0  0
 15 30  2  0  0  0  0
 16 29  2  0  0  0  0
 16 31  1  0  0  0  0
 17 32  1  0  0  0  0
 18 24  2  0  0  0  0
 18 30  1  0  0  0  0
 18 34  1  0  0  0  0
 19 32  1  0  0  0  0
 19 33  2  0  0  0  0
 19 37  1  0  0  0  0
 20 22  2  0  0  0  0
 20 42  1  0  0  0  0
 21 23  2  0  0  0  0
 21 43  1  0  0  0  0
 22 51  1  0  0  0  0
 23 44  1  0  0  0  0
 24 60  1  0  0  0  0
 25 67  1  0  0  0  0
 26 82  1  0  0  0  0
 27 83  1  0  0  0  0
 28 31  2  0  0  0  0
 28 82  1  0  0  0  0
 29 84  1  0  0  0  0
 30 85  1  0  0  0  0
 31 86  1  0  0  0  0
 32 66  2  0  0  0  0
 33 68  1  0  0  0  0
 33 71  1  0  0  0  0
 34 35  2  0  0  0  0
 35 38  1  0  0  0  0
 36 62  1  0  0  0  0
 36 67  2  0  0  0  0
 37 72  1  0  0  0  0
 37 77  2  0  0  0  0
 38 69  1  0  0  0  0
 38 78  2  0  0  0  0
 39 52  1  0  0  0  0
 39 73  1  0  0  0  0
 39 79  2  0  0  0  0
 40 63  1  0  0  0  0
 40 70  1  0  0  0  0
 40 80  2  0  0  0  0
 41 64  1  0  0  0  0
 41 74  1  0  0  0  0
 41 81  2  0  0  0  0
 42 45  1  0  0  0  0
 43 52  1  0  0  0  0
 44 70  1  0  0  0  0
 45 47  1  0  0  0  0
 46 48  1  0  0  0  0
 46 49  1  0  0  0  0
 47 51  1  0  0  0  0
 48 53  1  0  0  0  0
 49 69  1  0  0  0  0
 50 53  1  0  0  0  0
 50 69  1  0  0  0  0
 51 73  1  0  0  0  0
 52 70  1  0  0  0  0
 53 68  1  0  0  0  0
 54 62  1  0  0  0  0
 55 64  1  0  0  0  0
 56 65  1  0  0  0  0
 57 65  1  0  0  0  0
 58 65  1  0  0  0  0
 59 76  1  0  0  0  0
 60 75  1  0  0  0  0
 61 62  1  0  0  0  0
 61 83  1  0  0  0  0
 63 65  1  0  0  0  0
 63 74  1  0  0  0  0
 64 76  1  0  0  0  0
 66 68  1  0  0  0  0
M  CHG  2  75   1  76   1
M  ISO  4  35 100  38 100  61 101  83 101
M  END
> <Batch ID>
0123

> <Smiles>
CNC(C)C(=O)NC(C(=O)N1Cc2cc([101O:1][101CH2:1]C(C)=CNc3cc(F)c(C=[100CH:0][100C:0](=O)N4CCCC(n5nc(-c6ccc(Oc7ccc(F)cc7F)cc6)c(C(N)=O)c5N)C4)c(CN)c3)ccc2CC1C(=O)NC1CCCc2ccccc21)C(C)(C)C

> <Shape>
0.281

> <Color>
0.061

> <Negative vol penalty>
0.000

$$$$

  -OEChem-04052302033D

 83 92  0     1  0  0  0  0  0999 V2000
  -27.1797  -37.4064   24.4356 C   0  0  0  0  0  0  0  0  0  0  0  0
  -27.7528  -36.6271   23.4358 C   0  0  0  0  0  0  0  0  0  0  0  0
  -23.3332  -12.2925   23.5177 C   0  0  0  0  0  0  0  0  0  0  0  0
  -22.8031  -14.4898   22.6646 C   0  0  0  0  0  0  0  0  0  0  0  0
  -26.4605  -36.7999   25.4645 C   0  0  0  0  0  0  0  0  0  0  0  0
  -27.6080  -35.2405   23.4651 C   0  0  0  0  0  0  0  0  0  0  0  0
  -26.9959  -29.5978   19.0945 C   0  0  0  0  0  0  0  0  0  0  0  0
  -28.6775  -20.5878   19.1847 C   0  0  0  0  0  0  0  0  0  0  0  0
  -30.9591  -20.2619   19.9095 C   0  0  0  0  0  0  0  0  0  0  0  0
  -28.4667  -19.2097   19.2284 C   0  0  0  0  0  0  0  0  0  0  0  0
  -30.7483  -18.8838   19.9532 C   0  0  0  0  0  0  0  0  0  0  0  0
  -22.4485  -12.4905   24.5777 C   0  0  0  0  0  0  0  0  0  0  0  0
  -21.9183  -14.6878   23.7246 C   0  0  0  0  0  0  0  0  0  0  0  0
  -27.5678  -28.3475   18.8633 C   0  0  0  0  0  0  0  0  0  0  0  0
  -18.7753  -13.7599   24.5500 C   0  0  0  0  0  0  0  0  0  0  0  0
  -17.5252  -14.3042   24.2556 C   0  0  0  0  0  0  0  0  0  0  0  0
  -26.2367  -27.4157   20.6464 C   0  0  0  0  0  0  0  0  0  0  0  0
  -17.9971  -16.1746   25.7103 C   0  0  0  0  0  0  0  0  0  0  0  0
  -23.5106  -13.2921   22.5611 C   0  0  0  0  0  0  0  0  0  0  0  0
  -24.1328  -12.5295   20.2077 C   0  0  0  0  0  0  0  0  0  0  0  0
  -26.2986  -35.4059   25.5012 C   0  0  0  0  0  0  0  0  0  0  0  0
  -26.0466  -29.7691   20.1123 C   0  0  0  0  0  0  0  0  0  0  0  0
  -26.8871  -34.6146   24.4962 C   0  0  0  0  0  0  0  0  0  0  0  0
  -25.6525  -28.6687   20.8868 C   0  0  0  0  0  0  0  0  0  0  0  0
  -29.9237  -21.1140   19.5252 C   0  0  0  0  0  0  0  0  0  0  0  0
  -29.5021  -18.3577   19.6127 C   0  0  0  0  0  0  0  0  0  0  0  0
  -21.7410  -13.6882   24.6811 C   0  0  0  0  0  0  0  0  0  0  0  0
  -27.1903  -27.2568   19.6412 C   0  0  0  0  0  0  0  0  0  0  0  0
  -19.6363  -14.4229   25.4245 C   0  0  0  0  0  0  0  0  0  0  0  0
  -17.1362  -15.5116   24.8357 C   0  0  0  0  0  0  0  0  0  0  0  0
  -19.2472  -15.6303   26.0046 C   0  0  0  0  0  0  0  0  0  0  0  0
  -24.4248  -13.0884   21.4663 C   0  0  0  0  0  0  0  0  0  0  0  0
  -25.3292  -12.5574   19.5336 C   0  0  0  0  0  0  0  0  0  0  0  0
  -29.7556  -24.7627   19.3515 C   0  0  0  0  0  0  0  0  0  0  0  0
  -29.1025  -25.9132   19.5467 C   0  0  0  0  0  0  0  0  0  1  0  0
  -22.8910  -12.0299   19.6938 C   0  0  0  0  0  0  0  0  0  0  0  0
  -25.9016  -31.4959   22.7770 C   0  0  0  0  0  0  0  0  0  0  0  0
  -22.8642  -30.3623   22.8833 C   0  0  0  0  0  0  0  0  0  0  0  0
  -20.6413  -27.9419   21.9629 C   0  0  0  0  0  0  0  0  0  0  0  0
  -30.2080  -15.9733   20.0165 C   0  0  0  0  0  0  0  0  0  0  0  0
  -25.5526  -34.7920   26.6593 C   0  0  0  0  0  0  0  0  0  0  0  0
  -25.4194  -31.1186   20.3314 C   0  0  0  0  0  0  0  0  0  0  0  0
  -24.6226  -28.7955   21.9785 C   0  0  0  0  0  0  0  0  0  0  0  0
  -31.2348  -24.5804   19.4804 C   0  0  0  0  0  0  0  0  0  0  0  0
  -29.1045  -23.4384   19.0874 C   0  0  0  0  0  0  0  0  0  0  0  0
  -25.1283  -33.3464   26.4129 C   0  0  0  0  0  0  0  0  0  0  0  0
  -30.0565  -12.4265   20.2883 C   0  0  0  0  0  0  0  0  0  0  0  0
  -26.2871  -32.5414   25.8332 C   0  0  0  0  0  0  0  0  0  0  0  0
  -28.5677  -12.1424   20.5006 C   0  0  0  0  0  0  0  0  0  0  0  0
  -31.3598  -23.1289   19.9346 C   0  0  0  0  0  0  0  0  0  0  0  0
  -30.4959  -13.7075   20.9952 C   0  0  0  0  0  0  0  0  0  0  0  0
  -28.2073  -14.6133   20.8901 C   0  0  0  0  0  0  0  0  0  0  0  0
  -26.7310  -33.1095   24.4798 C   0  0  1  0  0  0  0  0  0  0  0  0
  -24.8413  -31.2883   21.7329 C   0  0  1  0  0  0  0  0  0  0  0  0
  -27.7037  -13.3676   20.1430 C   0  0  2  0  0  0  0  0  0  0  0  0
  -18.2394  -27.2673   22.2337 C   0  0  0  0  0  0  0  0  0  0  0  0
  -23.4584  -29.3925   25.7146 C   0  0  0  0  0  0  0  0  0  0  0  0
  -21.4258  -27.9380   25.5682 C   0  0  0  0  0  0  0  0  0  0  0  0
  -21.1968  -30.4173   25.4161 C   0  0  0  0  0  0  0  0  0  0  0  0
  -20.1407  -28.1257   19.0518 C   0  0  0  0  0  0  0  0  0  0  0  0
  -22.1980  -29.1437   23.4751 C   0  0  1  0  0  0  0  0  0  0  0  0
  -19.2422  -28.0282   21.3803 C   0  0  2  0  0  0  0  0  0  0  0  0
  -22.0906  -29.2206   25.0243 C   0  0  0  0  0  0  0  0  0  0  0  0
  -25.7063  -13.4451   21.5872 N   0  0  0  0  0  0  0  0  0  0  0  0
  -26.2301  -13.1095   20.3960 N   0  0  0  0  0  0  0  0  0  0  0  0
  -30.1331  -22.4784   19.4802 N   0  0  3  0  0  0  0  0  0  0  0  0
  -24.0429  -30.1368   22.1583 N   0  0  0  0  0  0  0  0  0  0  0  0
  -29.6350  -14.8261   20.6048 N   0  0  0  0  0  0  0  0  0  0  0  0
  -25.6879  -12.1632   18.2933 N   0  0  0  0  0  0  0  0  0  0  0  0
  -21.7592  -12.0764   20.5191 N   0  0  0  0  0  0  0  0  0  0  0  0
  -29.2880  -16.9577   19.6571 N   0  0  0  0  0  0  0  0  0  0  0  0
  -25.8121  -32.7068   23.4368 N   0  0  0  0  0  0  0  0  0  0  0  0
  -20.9154  -29.0081   22.7932 N   0  0  0  0  0  0  0  0  0  0  0  0
  -19.2178  -27.4563   20.0043 N   0  3  0  0  0  0  0  0  0  0  0  0
  -22.7918  -11.5411   18.5428 O   0  0  0  0  0  0  0  0  0  0  0  0
  -26.7382  -30.6217   22.9708 O   0  0  0  0  0  0  0  0  0  0  0  0
  -22.3537  -31.4725   23.0519 O   0  0  0  0  0  0  0  0  0  0  0  0
  -21.4124  -27.0190   21.7099 O   0  0  0  0  0  0  0  0  0  0  0  0
  -31.4225  -16.0637   19.8192 O   0  0  0  0  0  0  0  0  0  0  0  0
  -20.8774  -13.8816   25.7152 O   0  0  0  0  0  0  0  0  0  0  0  0
  -27.7474  -26.0355   19.4181 O   0  0  0  0  0  0  0  0  0  1  0  0
  -15.9363  -16.0349   24.5518 F   0  0  0  0  0  0  0  0  0  0  0  0
  -20.0705  -16.2724   26.8447 F   0  0  0  0  0  0  0  0  0  0  0  0
  1  2  1  0  0  0  0
  1  5  2  0  0  0  0
  2  6  2  0  0  0  0
  3 12  2  0  0  0  0
  3 19  1  0  0  0  0
  4 13  1  0  0  0  0
  4 19  2  0  0  0  0
  5 21  1  0  0  0  0
  6 23  1  0  0  0  0
  7 14  2  0  0  0  0
  7 22  1  0  0  0  0
  8 10  2  0  0  0  0
  8 25  1  0  0  0  0
  9 11  1  0  0  0  0
  9 25  2  0  0  0  0
 10 26  1  0  0  0  0
 11 26  2  0  0  0  0
 12 27  1  0  0  0  0
 13 27  2  0  0  0  0
 14 28  1  0  0  0  0
 15 16  2  0  0  0  0
 15 29  1  0  0  0  0
 16 30  1  0  0  0  0
 17 24  1  0  0  0  0
 17 28  2  0  0  0  0
 18 30  2  0  0  0  0
 18 31  1  0  0  0  0
 19 32  1  0  0  0  0
 20 32  1  0  0  0  0
 20 33  2  0  0  0  0
 20 36  1  0  0  0  0
 21 23  2  0  0  0  0
 21 41  1  0  0  0  0
 22 24  2  0  0  0  0
 22 42  1  0  0  0  0
 23 53  1  0  0  0  0
 24 43  1  0  0  0  0
 25 66  1  0  0  0  0
 26 71  1  0  0  0  0
 27 80  1  0  0  0  0
 28 81  1  0  0  0  0
 29 31  2  0  0  0  0
 29 80  1  0  0  0  0
 30 82  1  0  0  0  0
 31 83  1  0  0  0  0
 32 64  2  0  0  0  0
 33 65  1  0  0  0  0
 33 69  1  0  0  0  0
 34 35  2  0  0  0  0
 34 44  1  0  0  0  0
 34 45  1  0  0  0  0
 35 81  1  0  0  0  0
 36 70  1  0  0  0  0
 36 75  2  0  0  0  0
 37 54  1  0  0  0  0
 37 72  1  0  0  0  0
 37 76  2  0  0  0  0
 38 61  1  0  0  0  0
 38 67  1  0  0  0  0
 38 77  2  0  0  0  0
 39 62  1  0  0  0  0
 39 73  1  0  0  0  0
 39 78  2  0  0  0  0
 40 68  1  0  0  0  0
 40 71  1  0  0  0  0
 40 79  2  0  0  0  0
 41 46  1  0  0  0  0
 42 54  1  0  0  0  0
 43 67  1  0  0  0  0
 44 50  1  0  0  0  0
 45 66  1  0  0  0  0
 46 48  1  0  0  0  0
 47 49  1  0  0  0  0
 47 51  1  0  0  0  0
 48 53  1  0  0  0  0
 49 55  1  0  0  0  0
 50 66  1  0  0  0  0
 51 68  1  0  0  0  0
 52 55  1  0  0  0  0
 52 68  1  0  0  0  0
 53 72  1  0  0  0  0
 54 67  1  0  0  0  0
 55 65  1  0  0  0  0
 56 62  1  0  0  0  0
 57 63  1  0  0  0  0
 58 63  1  0  0  0  0
 59 63  1  0  0  0  0
 60 74  1  0  0  0  0
 61 63  1  0  0  0  0
 61 73  1  0  0  0  0
 62 74  1  0  0  0  0
 64 65  1  0  0  0  0
M  CHG  1  74   1
M  ISO  4  35 101  40 100  71 100  81 101
M  END
> <Batch ID>
0123

> <Smiles>
CNC(C)C(=O)NC(C(=O)N1Cc2cc([101O:1][101CH:1]=C3CCN(c4ccc([100NH:0][100C:0](=O)N5CCCC(n6nc(-c7ccc(Oc8ccc(F)cc8F)cc7)c(C(N)=O)c6N)C5)cc4)C3)ccc2CC1C(=O)NC1CCCc2ccccc21)C(C)(C)C

> <Shape>
0.320

> <Color>
0.076

> <Negative vol penalty>
0.000

$$$$

  -OEChem-04052302033D

 82 90  0     1  0  0  0  0  0999 V2000
  -28.3040  -35.5827   22.7670 C   0  0  0  0  0  0  0  0  0  0  0  0
  -28.9034  -34.3310   22.6696 C   0  0  0  0  0  0  0  0  0  0  0  0
  -23.6886   -9.7597   22.0279 C   0  0  0  0  0  0  0  0  0  0  0  0
  -23.0293  -12.0786   22.1877 C   0  0  0  0  0  0  0  0  0  0  0  0
  -30.7954  -18.9304   21.8100 C   0  0  0  0  0  0  0  0  0  0  0  0
  -26.9302  -35.6815   22.9832 C   0  0  0  0  0  0  0  0  0  0  0  0
  -28.1294  -33.1773   22.7893 C   0  0  0  0  0  0  0  0  0  0  0  0
  -28.9485  -27.8721   19.8414 C   0  0  0  0  0  0  0  0  0  0  0  0
  -30.6400  -17.6496   21.2799 C   0  0  0  0  0  0  0  0  0  0  0  0
  -22.8573   -9.4492   23.1041 C   0  0  0  0  0  0  0  0  0  0  0  0
  -22.1979  -11.7680   23.2639 C   0  0  0  0  0  0  0  0  0  0  0  0
  -29.5546  -26.6741   20.2172 C   0  0  0  0  0  0  0  0  0  0  0  0
  -19.5572   -8.9410   23.6368 C   0  0  0  0  0  0  0  0  0  0  0  0
  -18.7481   -7.8102   23.5258 C   0  0  0  0  0  0  0  0  0  0  0  0
  -27.3998  -25.7863   20.8400 C   0  0  0  0  0  0  0  0  0  0  0  0
  -28.3103  -18.1144   20.8398 C   0  0  0  0  0  0  0  0  0  0  0  0
  -19.8215   -6.8515   25.4663 C   0  0  0  0  0  0  0  0  0  0  0  0
  -23.7746  -11.0744   21.5697 C   0  0  0  0  0  0  0  0  0  0  0  0
  -29.7082  -19.8032   21.8550 C   0  0  0  0  0  0  0  0  0  0  0  0
  -24.2932  -11.3935   19.0925 C   0  0  0  0  0  0  0  0  0  0  0  0
  -26.1374  -34.5285   23.0960 C   0  0  0  0  0  0  0  0  0  0  0  0
  -27.5625  -28.0404   19.9726 C   0  0  0  0  0  0  0  0  0  0  0  0
  -26.7439  -33.2608   23.0085 C   0  0  0  0  0  0  0  0  0  0  0  0
  -26.7782  -26.9865   20.4628 C   0  0  0  0  0  0  0  0  0  0  0  0
  -28.4657  -19.3952   21.3699 C   0  0  0  0  0  0  0  0  0  0  0  0
  -29.3975  -17.2416   20.7948 C   0  0  0  0  0  0  0  0  0  0  0  0
  -22.1120  -10.4533   23.7220 C   0  0  0  0  0  0  0  0  0  0  0  0
  -28.7806  -25.6320   20.7193 C   0  0  0  0  0  0  0  0  0  0  0  0
  -20.4985   -9.0270   24.6626 C   0  0  0  0  0  0  0  0  0  0  0  0
  -18.8802   -6.7655   24.4405 C   0  0  0  0  0  0  0  0  0  0  0  0
  -20.6307   -7.9823   25.5774 C   0  0  0  0  0  0  0  0  0  0  0  0
  -24.6336  -11.3960   20.4585 C   0  0  0  0  0  0  0  0  0  0  0  0
  -25.4484  -11.7671   18.4502 C   0  0  0  0  0  0  0  0  0  0  0  0
  -29.9046  -21.1486   22.4200 C   0  0  0  0  0  0  0  0  0  0  0  0
  -30.7777  -22.0595   21.9622 C   0  0  0  0  0  0  0  0  0  0  0  0
  -23.0445  -11.0816   18.4607 C   0  0  0  0  0  0  0  0  0  0  0  0
  -25.6877  -29.9982   21.6326 C   0  0  0  0  0  0  0  0  0  0  0  0
  -23.3333  -28.5593   19.9272 C   0  0  0  0  0  0  0  0  0  0  0  0
  -22.2876  -25.8334   18.1600 C   0  0  0  0  0  0  0  0  0  0  0  0
  -30.2142  -14.9494   20.1428 C   0  0  0  0  0  0  0  0  0  0  0  0
  -24.6639  -34.6852   23.3765 C   0  0  0  0  0  0  0  0  0  0  0  0
  -26.9206  -29.3293   19.5377 C   0  0  0  0  0  0  0  0  0  0  0  0
  -25.2838  -27.1093   20.6043 C   0  0  0  0  0  0  0  0  0  0  0  0
  -23.8562  -33.4159   23.1181 C   0  0  0  0  0  0  0  0  0  0  0  0
  -30.2119  -11.6069   18.9162 C   0  0  0  0  0  0  0  0  0  0  0  0
  -24.5515  -32.2061   23.7342 C   0  0  0  0  0  0  0  0  0  0  0  0
  -28.7491  -11.1753   19.0425 C   0  0  0  0  0  0  0  0  0  0  0  0
  -30.6413  -12.5023   20.0770 C   0  0  0  0  0  0  0  0  0  0  0  0
  -28.3179  -13.2371   20.4390 C   0  0  0  0  0  0  0  0  0  0  0  0
  -25.9340  -31.9863   23.1083 C   0  0  1  0  0  0  0  0  0  0  0  0
  -25.5664  -29.5743   20.1962 C   0  0  1  0  0  0  0  0  0  0  0  0
  -27.8208  -12.3866   19.2586 C   0  0  2  0  0  0  0  0  0  0  0  0
  -27.2790  -20.3038   21.4017 C   0  0  0  0  0  0  0  0  0  0  0  0
  -20.3004  -24.9337   16.9196 C   0  0  0  0  0  0  0  0  0  0  0  0
  -21.9576  -27.9462   22.5808 C   0  0  0  0  0  0  0  0  0  0  0  0
  -20.5357  -26.2734   21.3773 C   0  0  0  0  0  0  0  0  0  0  0  0
  -20.4180  -28.6859   20.7540 C   0  0  0  0  0  0  0  0  0  0  0  0
  -23.7998  -25.6711   15.6212 C   0  0  0  0  0  0  0  0  0  0  0  0
  -30.9550  -23.4202   22.5784 C   0  0  0  0  0  0  0  0  0  0  0  0
  -30.7124  -24.5329   21.5655 C   0  0  0  0  0  0  0  0  0  1  0  0
  -22.4635  -27.3410   20.1224 C   0  0  1  0  0  0  0  0  0  0  0  0
  -21.6037  -25.7096   16.8104 C   0  0  2  0  0  0  0  0  0  0  0  0
  -21.3721  -27.5597   21.2079 C   0  0  0  0  0  0  0  0  0  0  0  0
  -25.9054  -11.7434   20.6724 N   0  0  0  0  0  0  0  0  0  0  0  0
  -26.3744  -11.9626   19.4322 N   0  0  0  0  0  0  0  0  0  0  0  0
  -24.7036  -28.3914   20.1715 N   0  0  0  0  0  0  0  0  0  0  0  0
  -29.7184  -13.6306   20.2188 N   0  0  0  0  0  0  0  0  0  0  0  0
  -25.7522  -11.9441   17.1468 N   0  0  0  0  0  0  0  0  0  0  0  0
  -21.9595  -10.7166   19.2692 N   0  0  0  0  0  0  0  0  0  0  0  0
  -29.2391  -15.9395   20.2589 N   0  0  0  0  0  0  0  0  0  0  0  0
  -25.8070  -31.3637   21.8081 N   0  0  0  0  0  0  0  0  0  0  0  0
  -21.9366  -27.0003   18.8053 N   0  0  0  0  0  0  0  0  0  0  0  0
  -22.4910  -25.0042   15.8429 N   0  3  0  0  0  0  0  0  0  0  0  0
  -22.8999  -11.1093   17.2150 O   0  0  0  0  0  0  0  0  0  0  0  0
  -25.6726  -29.1495   22.5164 O   0  0  0  0  0  0  0  0  0  0  0  0
  -22.8168  -29.6191   19.5641 O   0  0  0  0  0  0  0  0  0  0  0  0
  -23.0535  -24.9786   18.5996 O   0  0  0  0  0  0  0  0  0  0  0  0
  -31.4115  -15.1830   19.9590 O   0  0  0  0  0  0  0  0  0  0  0  0
  -21.3005  -10.1506   24.7720 O   0  0  0  0  0  0  0  0  0  0  0  0
  -29.3698  -24.4619   21.0874 O   0  0  0  0  0  0  0  0  0  1  0  0
  -18.1021   -5.6804   24.3346 F   0  0  0  0  0  0  0  0  0  0  0  0
  -21.5324   -8.0597   26.5657 F   0  0  0  0  0  0  0  0  0  0  0  0
  1  2  1  0  0  0  0
  1  6  2  0  0  0  0
  2  7  2  0  0  0  0
  3 10  2  0  0  0  0
  3 18  1  0  0  0  0
  4 11  1  0  0  0  0
  4 18  2  0  0  0  0
  5  9  2  0  0  0  0
  5 19  1  0  0  0  0
  6 21  1  0  0  0  0
  7 23  1  0  0  0  0
  8 12  2  0  0  0  0
  8 22  1  0  0  0  0
  9 26  1  0  0  0  0
 10 27  1  0  0  0  0
 11 27  2  0  0  0  0
 12 28  1  0  0  0  0
 13 14  2  0  0  0  0
 13 29  1  0  0  0  0
 14 30  1  0  0  0  0
 15 24  1  0  0  0  0
 15 28  2  0  0  0  0
 16 25  1  0  0  0  0
 16 26  2  0  0  0  0
 17 30  2  0  0  0  0
 17 31  1  0  0  0  0
 18 32  1  0  0  0  0
 19 25  2  0  0  0  0
 19 34  1  0  0  0  0
 20 32  1  0  0  0  0
 20 33  2  0  0  0  0
 20 36  1  0  0  0  0
 21 23  2  0  0  0  0
 21 41  1  0  0  0  0
 22 24  2  0  0  0  0
 22 42  1  0  0  0  0
 23 50  1  0  0  0  0
 24 43  1  0  0  0  0
 25 53  1  0  0  0  0
 26 70  1  0  0  0  0
 27 79  1  0  0  0  0
 28 80  1  0  0  0  0
 29 31  2  0  0  0  0
 29 79  1  0  0  0  0
 30 81  1  0  0  0  0
 31 82  1  0  0  0  0
 32 64  2  0  0  0  0
 33 65  1  0  0  0  0
 33 68  1  0  0  0  0
 34 35  2  0  0  0  0
 35 59  1  0  0  0  0
 36 69  1  0  0  0  0
 36 74  2  0  0  0  0
 37 51  1  0  0  0  0
 37 71  1  0  0  0  0
 37 75  2  0  0  0  0
 38 61  1  0  0  0  0
 38 66  1  0  0  0  0
 38 76  2  0  0  0  0
 39 62  1  0  0  0  0
 39 72  1  0  0  0  0
 39 77  2  0  0  0  0
 40 67  1  0  0  0  0
 40 70  1  0  0  0  0
 40 78  2  0  0  0  0
 41 44  1  0  0  0  0
 42 51  1  0  0  0  0
 43 66  1  0  0  0  0
 44 46  1  0  0  0  0
 45 47  1  0  0  0  0
 45 48  1  0  0  0  0
 46 50  1  0  0  0  0
 47 52  1  0  0  0  0
 48 67  1  0  0  0  0
 49 52  1  0  0  0  0
 49 67  1  0  0  0  0
 50 71  1  0  0  0  0
 51 66  1  0  0  0  0
 52 65  1  0  0  0  0
 54 62  1  0  0  0  0
 55 63  1  0  0  0  0
 56 63  1  0  0  0  0
 57 63  1  0  0  0  0
 58 73  1  0  0  0  0
 59 60  1  0  0  0  0
 60 80  1  0  0  0  0
 61 63  1  0  0  0  0
 61 72  1  0  0  0  0
 62 73  1  0  0  0  0
 64 65  1  0  0  0  0
M  CHG  1  73   1
M  ISO  4  40 100  60 101  70 100  80 101
M  END
> <Batch ID>
0123

> <Smiles>
CNC(C)C(=O)NC(C(=O)N1Cc2cc([101O:1][101CH2:1]CC=Cc3ccc([100NH:0][100C:0](=O)N4CCCC(n5nc(-c6ccc(Oc7ccc(F)cc7F)cc6)c(C(N)=O)c5N)C4)cc3C)ccc2CC1C(=O)NC1CCCc2ccccc21)C(C)(C)C

> <Shape>
0.270

> <Color>
0.072

> <Negative vol penalty>
0.000

$$$$

  -OEChem-04052302033D

 83 91  0     1  0  0  0  0  0999 V2000
  -25.1445  -25.7224   31.8356 C   0  0  0  0  0  0  0  0  0  0  0  0
  -25.8766  -24.6071   32.2298 C   0  0  0  0  0  0  0  0  0  0  0  0
  -23.1899   -9.8193   19.9320 C   0  0  0  0  0  0  0  0  0  0  0  0
  -23.5701   -9.9992   22.3111 C   0  0  0  0  0  0  0  0  0  0  0  0
  -24.4764  -25.7194   30.6119 C   0  0  0  0  0  0  0  0  0  0  0  0
  -25.9403  -23.4876   31.4008 C   0  0  0  0  0  0  0  0  0  0  0  0
  -30.7046  -19.7082   30.6776 C   0  0  0  0  0  0  0  0  0  0  0  0
  -22.4240   -8.6724   20.1410 C   0  0  0  0  0  0  0  0  0  0  0  0
  -22.8041   -8.8523   22.5202 C   0  0  0  0  0  0  0  0  0  0  0  0
  -31.0057  -18.4628   31.2271 C   0  0  0  0  0  0  0  0  0  0  0  0
  -23.2057   -5.5058   22.2550 C   0  0  0  0  0  0  0  0  0  0  0  0
  -23.7049   -4.5444   23.1336 C   0  0  0  0  0  0  0  0  0  0  0  0
  -32.7718  -11.8457   26.3584 C   0  0  0  0  0  0  0  0  0  0  0  0
  -30.7001  -12.5149   25.3111 C   0  0  0  0  0  0  0  0  0  0  0  0
  -30.0876  -17.3857   29.2736 C   0  0  0  0  0  0  0  0  0  0  0  0
  -32.6604  -12.1070   23.9592 C   0  0  0  0  0  0  0  0  0  0  0  0
  -21.7494   -4.8037   24.5285 C   0  0  0  0  0  0  0  0  0  0  0  0
  -23.7630  -10.4827   21.0170 C   0  0  0  0  0  0  0  0  0  0  0  0
  -31.4278  -12.2047   26.4599 C   0  0  0  0  0  0  0  0  0  0  0  0
  -24.1010  -12.9994   20.7735 C   0  0  0  0  0  0  0  0  0  0  0  0
  -24.5398  -24.6030   29.7632 C   0  0  0  0  0  0  0  0  0  0  0  0
  -30.0818  -19.8017   29.4247 C   0  0  0  0  0  0  0  0  0  0  0  0
  -25.2713  -23.4692   30.1652 C   0  0  0  0  0  0  0  0  0  0  0  0
  -29.7820  -18.6336   28.7093 C   0  0  0  0  0  0  0  0  0  0  0  0
  -33.3882  -11.7969   25.1080 C   0  0  0  0  0  0  0  0  0  0  0  0
  -31.3164  -12.4660   24.0607 C   0  0  0  0  0  0  0  0  0  0  0  0
  -22.2311   -8.1890   21.4351 C   0  0  0  0  0  0  0  0  0  0  0  0
  -30.6946  -17.3012   30.5263 C   0  0  0  0  0  0  0  0  0  0  0  0
  -21.9783   -6.1163   22.5132 C   0  0  0  0  0  0  0  0  0  0  0  0
  -22.9768   -4.1933   24.2704 C   0  0  0  0  0  0  0  0  0  0  0  0
  -21.2502   -5.7651   23.6499 C   0  0  0  0  0  0  0  0  0  0  0  0
  -24.5547  -11.6671   20.8016 C   0  0  0  0  0  0  0  0  0  0  0  0
  -25.2318  -13.7424   20.5375 C   0  0  0  0  0  0  0  0  0  0  0  0
  -30.7769  -12.2570   27.7797 C   0  0  0  0  0  0  0  0  0  0  0  0
  -31.4165  -12.3593   28.9553 C   0  0  0  0  0  0  0  0  0  0  0  0
  -22.7758  -13.5190   20.9455 C   0  0  0  0  0  0  0  0  0  0  0  0
  -27.3158  -20.9650   28.3759 C   0  0  0  0  0  0  0  0  0  0  0  0
  -28.5688  -20.2612   25.4678 C   0  0  0  0  0  0  0  0  0  0  0  0
  -30.7644  -18.4022   23.6320 C   0  0  0  0  0  0  0  0  0  0  0  0
  -31.0373  -12.7827   21.5771 C   0  0  0  0  0  0  0  0  0  0  0  0
  -23.7622  -24.6283   28.4711 C   0  0  0  0  0  0  0  0  0  0  0  0
  -29.7878  -21.1534   28.8340 C   0  0  0  0  0  0  0  0  0  0  0  0
  -29.1316  -18.6802   27.3516 C   0  0  0  0  0  0  0  0  0  0  0  0
  -24.1875  -23.5453   27.4829 C   0  0  0  0  0  0  0  0  0  0  0  0
  -29.5222  -13.4647   18.4280 C   0  0  0  0  0  0  0  0  0  0  0  0
  -24.3116  -22.1983   28.1879 C   0  0  0  0  0  0  0  0  0  0  0  0
  -28.0344  -13.2083   18.6784 C   0  0  0  0  0  0  0  0  0  0  0  0
  -30.4042  -12.4797   19.1933 C   0  0  0  0  0  0  0  0  0  0  0  0
  -28.6457  -12.1375   20.8845 C   0  0  0  0  0  0  0  0  0  0  0  0
  -25.3845  -22.2452   29.2825 C   0  0  1  0  0  0  0  0  0  0  0  0
  -28.6863  -21.1177   27.7791 C   0  0  1  0  0  0  0  0  0  0  0  0
  -27.7191  -13.1459   20.1858 C   0  0  2  0  0  0  0  0  0  0  0  0
  -34.8254  -11.4136   24.9989 C   0  0  0  0  0  0  0  0  0  0  0  0
  -31.5339  -18.0237   21.2736 C   0  0  0  0  0  0  0  0  0  0  0  0
  -26.0268  -18.6735   24.8958 C   0  0  0  0  0  0  0  0  0  0  0  0
  -27.2265  -17.5709   22.9949 C   0  0  0  0  0  0  0  0  0  0  0  0
  -26.8594  -20.0381   22.9725 C   0  0  0  0  0  0  0  0  0  0  0  0
  -33.5312  -19.2304   24.2787 C   0  0  0  0  0  0  0  0  0  0  0  0
  -30.7085  -12.4138   30.2794 C   0  0  0  0  0  0  0  0  0  0  0  0
  -31.0656  -13.6857   31.0463 C   0  0  0  0  0  0  0  0  0  0  0  0
  -30.6404  -14.9356   30.2881 C   0  0  0  0  0  0  0  0  0  1  0  0
  -28.5590  -19.0524   24.5636 C   0  0  1  0  0  0  0  0  0  0  0  0
  -31.7687  -18.7945   22.5633 C   0  0  2  0  0  0  0  0  0  0  0  0
  -27.1784  -18.8324   23.8831 C   0  0  0  0  0  0  0  0  0  0  0  0
  -25.8711  -11.5663   20.5994 N   0  0  0  0  0  0  0  0  0  0  0  0
  -26.2543  -12.8448   20.4419 N   0  0  0  0  0  0  0  0  0  0  0  0
  -28.8582  -20.0253   26.8192 N   0  0  0  0  0  0  0  0  0  0  0  0
  -30.0515  -12.4778   20.6148 N   0  0  0  0  0  0  0  0  0  0  0  0
  -25.4414  -15.0693   20.4044 N   0  0  0  0  0  0  0  0  0  0  0  0
  -21.7295  -12.6165   21.1802 N   0  0  0  0  0  0  0  0  0  0  0  0
  -30.5776  -12.7821   22.8936 N   0  0  0  0  0  0  0  0  0  0  0  0
  -26.7061  -22.1623   28.6985 N   0  0  0  0  0  0  0  0  0  0  0  0
  -29.6641  -19.2332   23.6284 N   0  0  0  0  0  0  0  0  0  0  0  0
  -33.1566  -18.5176   23.0303 N   0  3  0  0  0  0  0  0  0  0  0  0
  -22.5243  -14.7460   20.8763 O   0  0  0  0  0  0  0  0  0  0  0  0
  -26.8457  -19.8440   28.5307 O   0  0  0  0  0  0  0  0  0  0  0  0
  -28.3356  -21.3748   24.9911 O   0  0  0  0  0  0  0  0  0  0  0  0
  -30.9369  -17.4513   24.3913 O   0  0  0  0  0  0  0  0  0  0  0  0
  -32.1971  -13.0531   21.2549 O   0  0  0  0  0  0  0  0  0  0  0  0
  -21.4836   -7.0700   21.6395 O   0  0  0  0  0  0  0  0  0  0  0  0
  -30.9868  -16.0842   31.0606 O   0  0  0  0  0  0  0  0  0  1  0  0
  -23.4557   -3.2689   25.1132 F   0  0  0  0  0  0  0  0  0  0  0  0
  -20.0699   -6.3473   23.9027 F   0  0  0  0  0  0  0  0  0  0  0  0
  1  2  1  0  0  0  0
  1  5  2  0  0  0  0
  2  6  2  0  0  0  0
  3  8  2  0  0  0  0
  3 18  1  0  0  0  0
  4  9  1  0  0  0  0
  4 18  2  0  0  0  0
  5 21  1  0  0  0  0
  6 23  1  0  0  0  0
  7 10  2  0  0  0  0
  7 22  1  0  0  0  0
  8 27  1  0  0  0  0
  9 27  2  0  0  0  0
 10 28  1  0  0  0  0
 11 12  2  0  0  0  0
 11 29  1  0  0  0  0
 12 30  1  0  0  0  0
 13 19  1  0  0  0  0
 13 25  2  0  0  0  0
 14 19  2  0  0  0  0
 14 26  1  0  0  0  0
 15 24  1  0  0  0  0
 15 28  2  0  0  0  0
 16 25  1  0  0  0  0
 16 26  2  0  0  0  0
 17 30  2  0  0  0  0
 17 31  1  0  0  0  0
 18 32  1  0  0  0  0
 19 34  1  0  0  0  0
 20 32  1  0  0  0  0
 20 33  2  0  0  0  0
 20 36  1  0  0  0  0
 21 23  2  0  0  0  0
 21 41  1  0  0  0  0
 22 24  2  0  0  0  0
 22 42  1  0  0  0  0
 23 50  1  0  0  0  0
 24 43  1  0  0  0  0
 25 53  1  0  0  0  0
 26 71  1  0  0  0  0
 27 80  1  0  0  0  0
 28 81  1  0  0  0  0
 29 31  2  0  0  0  0
 29 80  1  0  0  0  0
 30 82  1  0  0  0  0
 31 83  1  0  0  0  0
 32 65  2  0  0  0  0
 33 66  1  0  0  0  0
 33 69  1  0  0  0  0
 34 35  2  0  0  0  0
 35 59  1  0  0  0  0
 36 70  1  0  0  0  0
 36 75  2  0  0  0  0
 37 51  1  0  0  0  0
 37 72  1  0  0  0  0
 37 76  2  0  0  0  0
 38 62  1  0  0  0  0
 38 67  1  0  0  0  0
 38 77  2  0  0  0  0
 39 63  1  0  0  0  0
 39 73  1  0  0  0  0
 39 78  2  0  0  0  0
 40 68  1  0  0  0  0
 40 71  1  0  0  0  0
 40 79  2  0  0  0  0
 41 44  1  0  0  0  0
 42 51  1  0  0  0  0
 43 67  1  0  0  0  0
 44 46  1  0  0  0  0
 45 47  1  0  0  0  0
 45 48  1  0  0  0  0
 46 50  1  0  0  0  0
 47 52  1  0  0  0  0
 48 68  1  0  0  0  0
 49 52  1  0  0  0  0
 49 68  1  0  0  0  0
 50 72  1  0  0  0  0
 51 67  1  0  0  0  0
 52 66  1  0  0  0  0
 54 63  1  0  0  0  0
 55 64  1  0  0  0  0
 56 64  1  0  0  0  0
 57 64  1  0  0  0  0
 58 74  1  0  0  0  0
 59 60  1  0  0  0  0
 60 61  1  0  0  0  0
 61 81  1  0  0  0  0
 62 64  1  0  0  0  0
 62 73  1  0  0  0  0
 63 74  1  0  0  0  0
 65 66  1  0  0  0  0
M  CHG  1  74   1
M  ISO  4  40 100  61 101  71 100  81 101
M  END
> <Batch ID>
0123

> <Smiles>
CNC(C)C(=O)NC(C(=O)N1Cc2cc([101O:1][101CH2:1]CCC=Cc3cc(C)cc([100NH:0][100C:0](=O)N4CCCC(n5nc(-c6ccc(Oc7ccc(F)cc7F)cc6)c(C(N)=O)c5N)C4)c3)ccc2CC1C(=O)NC1CCCc2ccccc21)C(C)(C)C

> <Shape>
0.149

> <Color>
0.190

> <Negative vol penalty>
0.000

$$$$

  -OEChem-04052302033D

 81 89  0     1  0  0  0  0  0999 V2000
  -16.7731  -28.7833   24.1481 C   0  0  0  0  0  0  0  0  0  0  0  0
  -17.1642  -28.2599   22.9199 C   0  0  0  0  0  0  0  0  0  0  0  0
  -27.9074  -17.1883   19.6864 C   0  0  0  0  0  0  0  0  0  0  0  0
  -28.2098  -17.8041   22.0030 C   0  0  0  0  0  0  0  0  0  0  0  0
  -17.5235  -29.7963   24.7436 C   0  0  0  0  0  0  0  0  0  0  0  0
  -18.3055  -28.7499   22.2860 C   0  0  0  0  0  0  0  0  0  0  0  0
  -22.2653  -25.5727   18.8609 C   0  0  0  0  0  0  0  0  0  0  0  0
  -27.6323  -15.8761   20.0711 C   0  0  0  0  0  0  0  0  0  0  0  0
  -27.9347  -16.4919   22.3877 C   0  0  0  0  0  0  0  0  0  0  0  0
  -22.4029  -25.4231   17.4817 C   0  0  0  0  0  0  0  0  0  0  0  0
  -26.4962  -12.4458   20.4677 C   0  0  0  0  0  0  0  0  0  0  0  0
  -25.4109  -11.8079   19.8671 C   0  0  0  0  0  0  0  0  0  0  0  0
  -28.5815  -24.9046   14.5027 C   0  0  0  0  0  0  0  0  0  0  0  0
  -24.0683  -27.1681   17.4645 C   0  0  0  0  0  0  0  0  0  0  0  0
  -23.9307  -13.5083   20.7359 C   0  0  0  0  0  0  0  0  0  0  0  0
  -28.6401  -26.5654   13.0145 C   0  0  0  0  0  0  0  0  0  0  0  0
  -28.1962  -18.1524   20.6524 C   0  0  0  0  0  0  0  0  0  0  0  0
  -27.7874  -25.6679   13.6139 C   0  0  0  0  0  0  0  0  0  0  0  0
  -27.5579  -20.5590   20.0969 C   0  0  0  0  0  0  0  0  0  0  0  0
  -18.6799  -30.2923   24.1213 C   0  0  0  0  0  0  0  0  0  0  0  0
  -23.0216  -26.5303   19.5519 C   0  0  0  0  0  0  0  0  0  0  0  0
  -19.0713  -29.7714   22.8732 C   0  0  0  0  0  0  0  0  0  0  0  0
  -23.9403  -27.3262   18.8529 C   0  0  0  0  0  0  0  0  0  0  0  0
  -27.6460  -15.5279   21.4217 C   0  0  0  0  0  0  0  0  0  0  0  0
  -23.3024  -26.2228   16.7828 C   0  0  0  0  0  0  0  0  0  0  0  0
  -26.2988  -13.6150   21.2025 C   0  0  0  0  0  0  0  0  0  0  0  0
  -24.1282  -12.3391   20.0012 C   0  0  0  0  0  0  0  0  0  0  0  0
  -25.0160  -14.1462   21.3365 C   0  0  0  0  0  0  0  0  0  0  0  0
  -28.4809  -19.5079   20.2556 C   0  0  0  0  0  0  0  0  0  0  0  0
  -29.8630  -25.3899   14.3828 C   0  0  0  0  0  0  0  0  0  0  0  0
  -28.3231  -21.6328   19.7124 C   0  0  0  0  0  0  0  0  0  0  0  0
  -26.3423  -25.5550   13.3554 C   0  0  0  0  0  0  0  0  0  0  0  0
  -31.1200  -25.0034   15.0480 C   0  0  0  0  0  0  0  0  0  0  0  0
  -25.5179  -24.6754   13.9455 C   0  0  0  0  0  0  0  0  0  0  0  0
  -26.1360  -20.5641   20.2807 C   0  0  0  0  0  0  0  0  0  0  0  0
  -22.3372  -29.1118   21.2757 C   0  0  0  0  0  0  0  0  0  0  0  0
  -25.5306  -29.1003   21.8449 C   0  0  0  0  0  0  0  0  0  0  0  0
  -28.6508  -28.1600   20.8314 C   0  0  0  0  0  0  0  0  0  0  0  0
  -32.3756  -23.7463   16.5089 C   0  0  0  0  0  0  0  0  0  0  0  0
  -19.4323  -31.4206   24.7812 C   0  0  0  0  0  0  0  0  0  0  0  0
  -22.8809  -26.6610   21.0437 C   0  0  0  0  0  0  0  0  0  0  0  0
  -24.7905  -28.3550   19.5509 C   0  0  0  0  0  0  0  0  0  0  0  0
  -20.8381  -31.6243   24.2222 C   0  0  0  0  0  0  0  0  0  0  0  0
  -33.3336  -22.2698   19.6565 C   0  0  0  0  0  0  0  0  0  0  0  0
  -20.8134  -31.6098   22.6970 C   0  0  0  0  0  0  0  0  0  0  0  0
  -32.0905  -21.4775   20.0608 C   0  0  0  0  0  0  0  0  0  0  0  0
  -33.5355  -22.2618   18.1443 C   0  0  0  0  0  0  0  0  0  0  0  0
  -31.1024  -21.9552   17.7771 C   0  0  0  0  0  0  0  0  0  0  0  0
  -20.3171  -30.2595   22.1662 C   0  0  1  0  0  0  0  0  0  0  0  0
  -23.3285  -28.0215   21.5692 C   0  0  1  0  0  0  0  0  0  0  0  0
  -30.8490  -21.9675   19.2943 C   0  0  1  0  0  0  0  0  0  0  0  0
  -31.1368  -27.8369   20.9440 C   0  0  0  0  0  0  0  0  0  0  0  0
  -25.5855  -31.9962   20.8852 C   0  0  0  0  0  0  0  0  0  0  0  0
  -28.0707  -31.7994   20.6541 C   0  0  0  0  0  0  0  0  0  0  0  0
  -27.0033  -31.5356   22.8932 C   0  0  0  0  0  0  0  0  0  0  0  0
  -28.3663  -25.5451   22.1879 C   0  0  0  0  0  0  0  0  0  0  0  0
  -24.0473  -24.5858   13.6419 C   0  0  0  0  0  0  0  0  0  0  0  0
  -23.2010  -24.7806   14.8945 C   0  0  0  0  0  0  0  0  0  1  0  0
  -26.7389  -29.7040   21.1706 C   0  0  1  0  0  0  0  0  0  0  0  0
  -29.7961  -27.5001   21.5779 C   0  0  2  0  0  0  0  0  0  0  0  0
  -26.8323  -31.2409   21.3870 C   0  0  0  0  0  0  0  0  0  0  0  0
  -29.7365  -19.8803   19.9932 N   0  0  0  0  0  0  0  0  0  0  0  0
  -31.1619  -24.0540   15.9245 N   0  0  0  0  0  0  0  0  0  0  0  0
  -29.6078  -21.1773   19.6657 N   0  0  0  0  0  0  0  0  0  0  0  0
  -24.6121  -28.4493   21.0093 N   0  0  0  0  0  0  0  0  0  0  0  0
  -32.3247  -22.7012   17.4496 N   0  0  0  0  0  0  0  0  0  0  0  0
  -28.0156  -22.9127   19.4131 N   0  0  0  0  0  0  0  0  0  0  0  0
  -25.5093  -19.3751   20.6778 N   0  0  0  0  0  0  0  0  0  0  0  0
  -21.3675  -29.2673   22.2478 N   0  0  0  0  0  0  0  0  0  0  0  0
  -27.8942  -28.9602   21.6611 N   0  0  0  0  0  0  0  0  0  0  0  0
  -29.6327  -26.0188   21.5725 N   0  3  0  0  0  0  0  0  0  0  0  0
  -25.4397  -21.5885   20.0823 O   0  0  0  0  0  0  0  0  0  0  0  0
  -22.4450  -29.7647   20.2442 O   0  0  0  0  0  0  0  0  0  0  0  0
  -25.4100  -29.1965   23.0687 O   0  0  0  0  0  0  0  0  0  0  0  0
  -28.4498  -27.9860   19.6314 O   0  0  0  0  0  0  0  0  0  0  0  0
  -33.4331  -24.3216   16.2411 O   0  0  0  0  0  0  0  0  0  0  0  0
  -29.9072  -26.4024   13.4775 O   0  0  0  0  0  0  0  0  0  0  0  0
  -27.3774  -14.2475   21.7975 O   0  0  0  0  0  0  0  0  0  0  0  0
  -23.4381  -26.0792   15.4364 O   0  0  0  0  0  0  0  0  0  1  0  0
  -23.0862  -11.7273   19.4231 F   0  0  0  0  0  0  0  0  0  0  0  0
  -24.8203  -15.2698   22.0402 F   0  0  0  0  0  0  0  0  0  0  0  0
  1  2  1  0  0  0  0
  1  5  2  0  0  0  0
  2  6  2  0  0  0  0
  3  8  2  0  0  0  0
  3 17  1  0  0  0  0
  4  9  1  0  0  0  0
  4 17  2  0  0  0  0
  5 20  1  0  0  0  0
  6 22  1  0  0  0  0
  7 10  2  0  0  0  0
  7 21  1  0  0  0  0
  8 24  1  0  0  0  0
  9 24  2  0  0  0  0
 10 25  1  0  0  0  0
 11 12  2  0  0  0  0
 11 26  1  0  0  0  0
 12 27  1  0  0  0  0
 13 18  1  0  0  0  0
 13 30  2  0  0  0  0
 14 23  1  0  0  0  0
 14 25  2  0  0  0  0
 15 27  2  0  0  0  0
 15 28  1  0  0  0  0
 16 18  2  0  0  0  0
 16 77  1  0  0  0  0
 17 29  1  0  0  0  0
 18 32  1  0  0  0  0
 19 29  1  0  0  0  0
 19 31  2  0  0  0  0
 19 35  1  0  0  0  0
 20 22  2  0  0  0  0
 20 40  1  0  0  0  0
 21 23  2  0  0  0  0
 21 41  1  0  0  0  0
 22 49  1  0  0  0  0
 23 42  1  0  0  0  0
 24 78  1  0  0  0  0
 25 79  1  0  0  0  0
 26 28  2  0  0  0  0
 26 78  1  0  0  0  0
 27 80  1  0  0  0  0
 28 81  1  0  0  0  0
 29 62  2  0  0  0  0
 30 33  1  0  0  0  0
 30 77  1  0  0  0  0
 31 64  1  0  0  0  0
 31 67  1  0  0  0  0
 32 34  2  0  0  0  0
 33 63  2  0  0  0  0
 34 57  1  0  0  0  0
 35 68  1  0  0  0  0
 35 72  2  0  0  0  0
 36 50  1  0  0  0  0
 36 69  1  0  0  0  0
 36 73  2  0  0  0  0
 37 59  1  0  0  0  0
 37 65  1  0  0  0  0
 37 74  2  0  0  0  0
 38 60  1  0  0  0  0
 38 70  1  0  0  0  0
 38 75  2  0  0  0  0
 39 63  1  0  0  0  0
 39 66  1  0  0  0  0
 39 76  2  0  0  0  0
 40 43  1  0  0  0  0
 41 50  1  0  0  0  0
 42 65  1  0  0  0  0
 43 45  1  0  0  0  0
 44 46  1  0  0  0  0
 44 47  1  0  0  0  0
 45 49  1  0  0  0  0
 46 51  1  0  0  0  0
 47 66  1  0  0  0  0
 48 51  1  0  0  0  0
 48 66  1  0  0  0  0
 49 69  1  0  0  0  0
 50 65  1  0  0  0  0
 51 64  1  0  0  0  0
 52 60  1  0  0  0  0
 53 61  1  0  0  0  0
 54 61  1  0  0  0  0
 55 61  1  0  0  0  0
 56 71  1  0  0  0  0
 57 58  1  0  0  0  0
 58 79  1  0  0  0  0
 59 61  1  0  0  0  0
 59 70  1  0  0  0  0
 60 71  1  0  0  0  0
 62 64  1  0  0  0  0
M  CHG  1  71   1
M  ISO  4  39 100  58 101  63 100  79 101
M  END
> <Batch ID>
0123

> <Smiles>
CNC(C)C(=O)NC(C(=O)N1Cc2cc([101O:1][101CH2:1]CC=Cc3coc(C=[100N:0][100C:0](=O)N4CCCC(n5nc(-c6ccc(Oc7ccc(F)cc7F)cc6)c(C(N)=O)c5N)C4)c3)ccc2CC1C(=O)NC1CCCc2ccccc21)C(C)(C)C

> <Shape>
0.225

> <Color>
0.076

> <Negative vol penalty>
0.000

$$$$

  -OEChem-04052302033D

 86 94  0     1  0  0  0  0  0999 V2000
  -26.8194  -29.4593   30.2568 C   0  0  0  0  0  0  0  0  0  0  0  0
  -27.3967  -28.1952   30.3211 C   0  0  0  0  0  0  0  0  0  0  0  0
  -22.9992   -9.8946   19.9811 C   0  0  0  0  0  0  0  0  0  0  0  0
  -23.7240   -9.9455   22.2853 C   0  0  0  0  0  0  0  0  0  0  0  0
  -32.6466  -17.4429   23.4595 C   0  0  0  0  0  0  0  0  0  0  0  0
  -25.4325  -29.5886   30.1945 C   0  0  0  0  0  0  0  0  0  0  0  0
  -26.5874  -27.0597   30.3242 C   0  0  0  0  0  0  0  0  0  0  0  0
  -28.2983  -23.4463   27.2159 C   0  0  0  0  0  0  0  0  0  0  0  0
  -32.0585  -16.5485   22.5654 C   0  0  0  0  0  0  0  0  0  0  0  0
  -22.2322   -8.7605   20.2474 C   0  0  0  0  0  0  0  0  0  0  0  0
  -22.9569   -8.8114   22.5516 C   0  0  0  0  0  0  0  0  0  0  0  0
  -29.3696  -22.6752   27.6646 C   0  0  0  0  0  0  0  0  0  0  0  0
  -21.4739   -5.7190   23.7549 C   0  0  0  0  0  0  0  0  0  0  0  0
  -22.0593   -4.7031   24.5103 C   0  0  0  0  0  0  0  0  0  0  0  0
  -27.8388  -20.9123   28.2712 C   0  0  0  0  0  0  0  0  0  0  0  0
  -29.8800  -17.4452   23.1012 C   0  0  0  0  0  0  0  0  0  0  0  0
  -23.7859   -4.4550   22.8386 C   0  0  0  0  0  0  0  0  0  0  0  0
  -23.7452  -10.4871   21.0000 C   0  0  0  0  0  0  0  0  0  0  0  0
  -31.8515  -18.3386   24.1746 C   0  0  0  0  0  0  0  0  0  0  0  0
  -24.1316  -13.0025   20.8239 C   0  0  0  0  0  0  0  0  0  0  0  0
  -24.6063  -28.4538   30.1871 C   0  0  0  0  0  0  0  0  0  0  0  0
  -26.9859  -22.9598   27.3016 C   0  0  0  0  0  0  0  0  0  0  0  0
  -25.1882  -27.1740   30.2631 C   0  0  0  0  0  0  0  0  0  0  0  0
  -26.7528  -21.6781   27.8204 C   0  0  0  0  0  0  0  0  0  0  0  0
  -30.4682  -18.3397   23.9954 C   0  0  0  0  0  0  0  0  0  0  0  0
  -30.6752  -16.5496   22.3862 C   0  0  0  0  0  0  0  0  0  0  0  0
  -22.2110   -8.2189   21.5326 C   0  0  0  0  0  0  0  0  0  0  0  0
  -29.1397  -21.4091   28.1950 C   0  0  0  0  0  0  0  0  0  0  0  0
  -22.0444   -6.1030   22.5413 C   0  0  0  0  0  0  0  0  0  0  0  0
  -23.2153   -4.0711   24.0522 C   0  0  0  0  0  0  0  0  0  0  0  0
  -23.2004   -5.4710   22.0832 C   0  0  0  0  0  0  0  0  0  0  0  0
  -24.5382  -11.6584   20.7254 C   0  0  0  0  0  0  0  0  0  0  0  0
  -25.2417  -13.7246   20.4596 C   0  0  0  0  0  0  0  0  0  0  0  0
  -32.5023  -19.2703   25.1103 C   0  0  0  0  0  0  0  0  0  0  0  0
  -33.2656  -18.9107   26.1544 C   0  0  0  0  0  0  0  0  0  0  0  0
  -32.4721  -20.2730   29.1290 C   0  0  0  0  0  0  0  0  0  0  0  0
  -22.8638  -13.5495   21.2101 C   0  0  0  0  0  0  0  0  0  0  0  0
  -33.5157  -19.6744   28.5221 C   0  0  0  0  0  0  0  0  0  0  0  0
  -24.3467  -23.8803   28.8152 C   0  0  0  0  0  0  0  0  0  0  0  0
  -22.9991  -21.4666   27.1180 C   0  0  0  0  0  0  0  0  0  0  0  0
  -23.4070  -18.5140   25.4558 C   0  0  0  0  0  0  0  0  0  0  0  0
  -30.7216  -14.6834   20.6946 C   0  0  0  0  0  0  0  0  0  0  0  0
  -23.1104  -28.6451   30.1662 C   0  0  0  0  0  0  0  0  0  0  0  0
  -25.8437  -23.7932   26.7885 C   0  0  0  0  0  0  0  0  0  0  0  0
  -25.3647  -21.1016   27.9157 C   0  0  0  0  0  0  0  0  0  0  0  0
  -22.3397  -27.3805   29.7959 C   0  0  0  0  0  0  0  0  0  0  0  0
  -29.6027  -12.2308   18.3687 C   0  0  0  0  0  0  0  0  0  0  0  0
  -22.8718  -26.1831   30.5769 C   0  0  0  0  0  0  0  0  0  0  0  0
  -28.1519  -11.9738   18.7826 C   0  0  0  0  0  0  0  0  0  0  0  0
  -30.5031  -12.4739   19.5786 C   0  0  0  0  0  0  0  0  0  0  0  0
  -28.5878  -13.2637   20.9117 C   0  0  0  0  0  0  0  0  0  0  0  0
  -24.3449  -25.9176   30.2436 C   0  0  1  0  0  0  0  0  0  0  0  0
  -24.5001  -23.4052   27.3980 C   0  0  1  0  0  0  0  0  0  0  0  0
  -27.6303  -13.0777   19.7233 C   0  0  2  0  0  0  0  0  0  0  0  0
  -34.3984  -18.7250   29.2914 C   0  0  0  0  0  0  0  0  0  0  0  0
  -29.1217  -20.4515   23.8771 C   0  0  0  0  0  0  0  0  0  0  0  0
  -22.1157  -16.7618   24.2070 C   0  0  0  0  0  0  0  0  0  0  0  0
  -21.9396  -20.3679   29.7600 C   0  0  0  0  0  0  0  0  0  0  0  0
  -21.5036  -18.1923   28.6002 C   0  0  0  0  0  0  0  0  0  0  0  0
  -20.3180  -20.2582   27.8593 C   0  0  0  0  0  0  0  0  0  0  0  0
  -24.9390  -18.9918   22.9691 C   0  0  0  0  0  0  0  0  0  0  0  0
  -29.5852  -19.2855   24.7442 C   0  0  0  0  0  0  0  0  0  0  0  0
  -33.9162  -19.8994   27.0816 C   0  0  0  0  0  0  0  0  0  0  0  0
  -31.4880  -21.2223   28.5220 C   0  0  0  0  0  0  0  0  0  1  0  0
  -22.7795  -19.9908   27.3478 C   0  0  1  0  0  0  0  0  0  0  0  0
  -22.9194  -18.0480   24.0958 C   0  0  2  0  0  0  0  0  0  0  0  0
  -21.6613  -19.7137   28.3920 C   0  0  0  0  0  0  0  0  0  0  0  0
  -25.8075  -11.5313   20.3295 N   0  0  0  0  0  0  0  0  0  0  0  0
  -26.2080  -12.8049   20.1759 N   0  0  0  0  0  0  0  0  0  0  0  0
  -24.2803  -21.9575   27.4068 N   0  0  0  0  0  0  0  0  0  0  0  0
  -29.9483  -13.5352   20.4217 N   0  0  0  0  0  0  0  0  0  0  0  0
  -25.4758  -15.0502   20.3575 N   0  0  0  0  0  0  0  0  0  0  0  0
  -21.8316  -12.6658   21.5535 N   0  0  0  0  0  0  0  0  0  0  0  0
  -30.0775  -15.6390   21.4799 N   0  0  0  0  0  0  0  0  0  0  0  0
  -24.4612  -25.2492   28.9652 N   0  0  0  0  0  0  0  0  0  0  0  0
  -22.5293  -19.4060   26.0349 N   0  0  0  0  0  0  0  0  0  0  0  0
  -24.0751  -17.8031   23.1873 N   0  3  0  0  0  0  0  0  0  0  0  0
  -22.6476  -14.7849   21.2337 O   0  0  0  0  0  0  0  0  0  0  0  0
  -24.1384  -23.0654   29.7064 O   0  0  0  0  0  0  0  0  0  0  0  0
  -22.0703  -22.1569   26.6909 O   0  0  0  0  0  0  0  0  0  0  0  0
  -24.4592  -18.1228   25.9561 O   0  0  0  0  0  0  0  0  0  0  0  0
  -31.8604  -14.8218   20.2408 O   0  0  0  0  0  0  0  0  0  0  0  0
  -21.4624   -7.1123   21.7929 O   0  0  0  0  0  0  0  0  0  0  0  0
  -30.1836  -20.6546   28.6344 O   0  0  0  0  0  0  0  0  0  1  0  0
  -23.7783   -3.0965   24.7785 F   0  0  0  0  0  0  0  0  0  0  0  0
  -23.7537   -5.8363   20.9186 F   0  0  0  0  0  0  0  0  0  0  0  0
  1  2  1  0  0  0  0
  1  6  2  0  0  0  0
  2  7  2  0  0  0  0
  3 10  2  0  0  0  0
  3 18  1  0  0  0  0
  4 11  1  0  0  0  0
  4 18  2  0  0  0  0
  5  9  2  0  0  0  0
  5 19  1  0  0  0  0
  6 21  1  0  0  0  0
  7 23  1  0  0  0  0
  8 12  2  0  0  0  0
  8 22  1  0  0  0  0
  9 26  1  0  0  0  0
 10 27  1  0  0  0  0
 11 27  2  0  0  0  0
 12 28  1  0  0  0  0
 13 14  2  0  0  0  0
 13 29  1  0  0  0  0
 14 30  1  0  0  0  0
 15 24  1  0  0  0  0
 15 28  2  0  0  0  0
 16 25  1  0  0  0  0
 16 26  2  0  0  0  0
 17 30  2  0  0  0  0
 17 31  1  0  0  0  0
 18 32  1  0  0  0  0
 19 25  2  0  0  0  0
 19 34  1  0  0  0  0
 20 32  1  0  0  0  0
 20 33  2  0  0  0  0
 20 37  1  0  0  0  0
 21 23  2  0  0  0  0
 21 43  1  0  0  0  0
 22 24  2  0  0  0  0
 22 44  1  0  0  0  0
 23 52  1  0  0  0  0
 24 45  1  0  0  0  0
 25 62  1  0  0  0  0
 26 74  1  0  0  0  0
 27 83  1  0  0  0  0
 28 84  1  0  0  0  0
 29 31  2  0  0  0  0
 29 83  1  0  0  0  0
 30 85  1  0  0  0  0
 31 86  1  0  0  0  0
 32 68  2  0  0  0  0
 33 69  1  0  0  0  0
 33 72  1  0  0  0  0
 34 35  2  0  0  0  0
 35 63  1  0  0  0  0
 36 38  2  0  0  0  0
 36 64  1  0  0  0  0
 37 73  1  0  0  0  0
 37 78  2  0  0  0  0
 38 55  1  0  0  0  0
 38 63  1  0  0  0  0
 39 53  1  0  0  0  0
 39 75  1  0  0  0  0
 39 79  2  0  0  0  0
 40 65  1  0  0  0  0
 40 70  1  0  0  0  0
 40 80  2  0  0  0  0
 41 66  1  0  0  0  0
 41 76  1  0  0  0  0
 41 81  2  0  0  0  0
 42 71  1  0  0  0  0
 42 74  1  0  0  0  0
 42 82  2  0  0  0  0
 43 46  1  0  0  0  0
 44 53  1  0  0  0  0
 45 70  1  0  0  0  0
 46 48  1  0  0  0  0
 47 49  1  0  0  0  0
 47 50  1  0  0  0  0
 48 52  1  0  0  0  0
 49 54  1  0  0  0  0
 50 71  1  0  0  0  0
 51 54  1  0  0  0  0
 51 71  1  0  0  0  0
 52 75  1  0  0  0  0
 53 70  1  0  0  0  0
 54 69  1  0  0  0  0
 56 62  1  0  0  0  0
 57 66  1  0  0  0  0
 58 67  1  0  0  0  0
 59 67  1  0  0  0  0
 60 67  1  0  0  0  0
 61 77  1  0  0  0  0
 64 84  1  0  0  0  0
 65 67  1  0  0  0  0
 65 76  1  0  0  0  0
 66 77  1  0  0  0  0
 68 69  1  0  0  0  0
M  CHG  1  77   1
M  ISO  4  42 100  64 101  74 100  84 101
M  END
> <Batch ID>
0123

> <Smiles>
CCc1cc([100NH:0][100C:0](=O)N2CCCC(n3nc(-c4ccc(Oc5ccc(F)cc5F)cc4)c(C(N)=O)c3N)C2)ccc1C=CCC(C)=C[101CH2:1][101O:1]c1ccc2c(c1)CN(C(=O)C(NC(=O)C(C)NC)C(C)(C)C)C(C(=O)NC1CCCc3ccccc31)C2

> <Shape>
0.168

> <Color>
0.198

> <Negative vol penalty>
0.000

$$$$

  -OEChem-04052302033D

 82 90  0     1  0  0  0  0  0999 V2000
  -28.4904  -25.8893   15.2612 C   0  0  0  0  0  0  0  0  0  0  0  0
  -27.3072  -25.8490   15.9919 C   0  0  0  0  0  0  0  0  0  0  0  0
  -22.9768  -11.0715   23.5023 C   0  0  0  0  0  0  0  0  0  0  0  0
  -21.2209  -11.7238   21.9764 C   0  0  0  0  0  0  0  0  0  0  0  0
  -29.6588  -26.3656   15.8544 C   0  0  0  0  0  0  0  0  0  0  0  0
  -27.2921  -26.2839   17.3167 C   0  0  0  0  0  0  0  0  0  0  0  0
  -23.3030  -29.2277   18.3495 C   0  0  0  0  0  0  0  0  0  0  0  0
  -22.2447   -9.9398   23.8610 C   0  0  0  0  0  0  0  0  0  0  0  0
  -20.4887  -10.5920   22.3351 C   0  0  0  0  0  0  0  0  0  0  0  0
  -22.0784  -28.5926   18.5515 C   0  0  0  0  0  0  0  0  0  0  0  0
  -20.9996   -6.6901   24.9120 C   0  0  0  0  0  0  0  0  0  0  0  0
  -21.6810   -5.4758   24.9931 C   0  0  0  0  0  0  0  0  0  0  0  0
  -22.3755  -28.7920   20.9372 C   0  0  0  0  0  0  0  0  0  0  0  0
  -20.2172  -21.5817   21.8060 C   0  0  0  0  0  0  0  0  0  0  0  0
  -22.2880   -5.6606   22.6619 C   0  0  0  0  0  0  0  0  0  0  0  0
  -19.4556  -19.8538   20.5796 C   0  0  0  0  0  0  0  0  0  0  0  0
  -22.4649  -11.9636   22.5600 C   0  0  0  0  0  0  0  0  0  0  0  0
  -24.1637  -13.2417   21.1500 C   0  0  0  0  0  0  0  0  0  0  0  0
  -29.6558  -26.8156   17.1841 C   0  0  0  0  0  0  0  0  0  0  0  0
  -24.0795  -29.6406   19.4418 C   0  0  0  0  0  0  0  0  0  0  0  0
  -28.4619  -26.7654   17.9286 C   0  0  0  0  0  0  0  0  0  0  0  0
  -23.6084  -29.4344   20.7463 C   0  0  0  0  0  0  0  0  0  0  0  0
  -20.3380  -20.1878   21.5831 C   0  0  0  0  0  0  0  0  0  0  0  0
  -21.0006   -9.7000   23.2775 C   0  0  0  0  0  0  0  0  0  0  0  0
  -21.6158  -28.3721   19.8456 C   0  0  0  0  0  0  0  0  0  0  0  0
  -20.9623   -7.3897   23.7058 C   0  0  0  0  0  0  0  0  0  0  0  0
  -22.3252   -4.9610   23.8681 C   0  0  0  0  0  0  0  0  0  0  0  0
  -21.6065   -6.8750   22.5808 C   0  0  0  0  0  0  0  0  0  0  0  0
  -23.2204  -13.1331   22.1894 C   0  0  0  0  0  0  0  0  0  0  0  0
  -19.2645  -22.0569   20.9320 C   0  0  0  0  0  0  0  0  0  0  0  0
  -24.5935  -14.5448   21.2112 C   0  0  0  0  0  0  0  0  0  0  0  0
  -19.7478  -24.5480   21.0939 C   0  0  0  0  0  0  0  0  0  0  0  0
  -19.3722  -25.8276   20.9613 C   0  0  0  0  0  0  0  0  0  0  0  0
  -24.6113  -12.2531   20.2130 C   0  0  0  0  0  0  0  0  0  0  0  0
  -18.7881  -23.4536   20.7851 C   0  0  0  0  0  0  0  0  0  0  0  0
  -26.9720  -28.9128   20.5405 C   0  0  0  0  0  0  0  0  0  0  0  0
  -26.3540  -31.3125   22.6338 C   0  0  0  0  0  0  0  0  0  0  0  0
  -24.0315  -33.2104   24.2620 C   0  0  0  0  0  0  0  0  0  0  0  0
  -22.1047  -19.5719   23.2701 C   0  0  0  0  0  0  0  0  0  0  0  0
  -30.9541  -27.2777   17.7970 C   0  0  0  0  0  0  0  0  0  0  0  0
  -25.3857  -30.3482   19.2066 C   0  0  0  0  0  0  0  0  0  0  0  0
  -24.3944  -29.8767   21.9524 C   0  0  0  0  0  0  0  0  0  0  0  0
  -30.7698  -28.0702   19.0886 C   0  0  0  0  0  0  0  0  0  0  0  0
  -25.1981  -18.1471   24.3083 C   0  0  0  0  0  0  0  0  0  0  0  0
  -29.7831  -27.3633   20.0125 C   0  0  0  0  0  0  0  0  0  0  0  0
  -25.1304  -16.7113   23.7829 C   0  0  0  0  0  0  0  0  0  0  0  0
  -23.8347  -18.6394   24.7907 C   0  0  0  0  0  0  0  0  0  0  0  0
  -22.6767  -17.0643   23.2916 C   0  0  0  0  0  0  0  0  0  0  0  0
  -28.3997  -27.2516   19.3604 C   0  0  1  0  0  0  0  0  0  0  0  0
  -26.3333  -30.2655   20.3993 C   0  0  1  0  0  0  0  0  0  0  0  0
  -24.0129  -16.5471   22.7343 C   0  0  2  0  0  0  0  0  0  0  0  0
  -23.8292  -35.0672   25.9380 C   0  0  0  0  0  0  0  0  0  0  0  0
  -27.0074  -29.3532   24.8797 C   0  0  0  0  0  0  0  0  0  0  0  0
  -25.8934  -30.9239   26.4798 C   0  0  0  0  0  0  0  0  0  0  0  0
  -27.9117  -31.6609   25.2126 C   0  0  0  0  0  0  0  0  0  0  0  0
  -17.7998  -21.0599   19.1566 C   0  0  0  0  0  0  0  0  0  0  0  0
  -22.6675  -34.9745   22.3161 C   0  0  0  0  0  0  0  0  0  0  0  0
  -20.2811  -26.9814   21.2385 C   0  0  0  0  0  0  0  0  0  1  0  0
  -25.7103  -31.4033   23.9963 C   0  0  1  0  0  0  0  0  0  0  0  0
  -23.9179  -34.7109   24.4622 C   0  0  2  0  0  0  0  0  0  0  0  0
  -26.6166  -30.8251   25.1196 C   0  0  0  0  0  0  0  0  0  0  0  0
  -23.0601  -14.2761   22.8617 N   0  0  0  0  0  0  0  0  0  0  0  0
  -18.8083  -20.9977   20.1916 N   0  0  0  0  0  0  0  0  0  0  0  0
  -23.9085  -15.1152   22.2434 N   0  0  0  0  0  0  0  0  0  0  0  0
  -25.6685  -30.5586   21.6707 N   0  0  0  0  0  0  0  0  0  0  0  0
  -22.8271  -18.4563   23.7438 N   0  0  0  0  0  0  0  0  0  0  0  0
  -25.4868  -15.2469   20.4821 N   0  0  0  0  0  0  0  0  0  0  0  0
  -24.0664  -10.9642   20.2903 N   0  0  0  0  0  0  0  0  0  0  0  0
  -21.1974  -19.2811   22.2518 N   0  0  0  0  0  0  0  0  0  0  0  0
  -27.7017  -28.5171   19.4358 N   0  0  0  0  0  0  0  0  0  0  0  0
  -25.3467  -32.8038   24.1834 N   0  0  0  0  0  0  0  0  0  0  0  0
  -22.7015  -35.2341   23.7784 N   0  3  0  0  0  0  0  0  0  0  0  0
  -25.4811  -12.5008   19.3438 O   0  0  0  0  0  0  0  0  0  0  0  0
  -17.6455  -23.6689   20.3964 O   0  0  0  0  0  0  0  0  0  0  0  0
  -26.8156  -28.2759   21.5757 O   0  0  0  0  0  0  0  0  0  0  0  0
  -27.4219  -31.8951   22.4294 O   0  0  0  0  0  0  0  0  0  0  0  0
  -23.0516  -32.4724   24.1868 O   0  0  0  0  0  0  0  0  0  0  0  0
  -22.2976  -20.7064   23.7146 O   0  0  0  0  0  0  0  0  0  0  0  0
  -20.2860   -8.5956   23.6271 O   0  0  0  0  0  0  0  0  0  0  0  0
  -20.4211  -27.7519   20.0456 O   0  0  0  0  0  0  0  0  0  1  0  0
  -22.9808   -3.7956   23.9466 F   0  0  0  0  0  0  0  0  0  0  0  0
  -21.5752   -7.5432   21.4196 F   0  0  0  0  0  0  0  0  0  0  0  0
  1  2  1  0  0  0  0
  1  5  2  0  0  0  0
  2  6  2  0  0  0  0
  3  8  2  0  0  0  0
  3 17  1  0  0  0  0
  4  9  1  0  0  0  0
  4 17  2  0  0  0  0
  5 19  1  0  0  0  0
  6 21  1  0  0  0  0
  7 10  2  0  0  0  0
  7 20  1  0  0  0  0
  8 24  1  0  0  0  0
  9 24  2  0  0  0  0
 10 25  1  0  0  0  0
 11 12  2  0  0  0  0
 11 26  1  0  0  0  0
 12 27  1  0  0  0  0
 13 22  1  0  0  0  0
 13 25  2  0  0  0  0
 14 23  1  0  0  0  0
 14 30  2  0  0  0  0
 15 27  2  0  0  0  0
 15 28  1  0  0  0  0
 16 23  2  0  0  0  0
 16 63  1  0  0  0  0
 17 29  1  0  0  0  0
 18 29  1  0  0  0  0
 18 31  2  0  0  0  0
 18 34  1  0  0  0  0
 19 21  2  0  0  0  0
 19 40  1  0  0  0  0
 20 22  2  0  0  0  0
 20 41  1  0  0  0  0
 21 49  1  0  0  0  0
 22 42  1  0  0  0  0
 23 69  1  0  0  0  0
 24 79  1  0  0  0  0
 25 80  1  0  0  0  0
 26 28  2  0  0  0  0
 26 79  1  0  0  0  0
 27 81  1  0  0  0  0
 28 82  1  0  0  0  0
 29 62  2  0  0  0  0
 30 35  1  0  0  0  0
 30 63  1  0  0  0  0
 31 64  1  0  0  0  0
 31 67  1  0  0  0  0
 32 33  2  0  0  0  0
 32 35  1  0  0  0  0
 33 58  1  0  0  0  0
 34 68  1  0  0  0  0
 34 73  2  0  0  0  0
 35 74  2  0  0  0  0
 36 50  1  0  0  0  0
 36 70  1  0  0  0  0
 36 75  2  0  0  0  0
 37 59  1  0  0  0  0
 37 65  1  0  0  0  0
 37 76  2  0  0  0  0
 38 60  1  0  0  0  0
 38 71  1  0  0  0  0
 38 77  2  0  0  0  0
 39 66  1  0  0  0  0
 39 69  1  0  0  0  0
 39 78  2  0  0  0  0
 40 43  1  0  0  0  0
 41 50  1  0  0  0  0
 42 65  1  0  0  0  0
 43 45  1  0  0  0  0
 44 46  1  0  0  0  0
 44 47  1  0  0  0  0
 45 49  1  0  0  0  0
 46 51  1  0  0  0  0
 47 66  1  0  0  0  0
 48 51  1  0  0  0  0
 48 66  1  0  0  0  0
 49 70  1  0  0  0  0
 50 65  1  0  0  0  0
 51 64  1  0  0  0  0
 52 60  1  0  0  0  0
 53 61  1  0  0  0  0
 54 61  1  0  0  0  0
 55 61  1  0  0  0  0
 56 63  1  0  0  0  0
 57 72  1  0  0  0  0
 58 80  1  0  0  0  0
 59 61  1  0  0  0  0
 59 71  1  0  0  0  0
 60 72  1  0  0  0  0
 62 64  1  0  0  0  0
M  CHG  1  72   1
M  ISO  4  39 100  58 101  69 100  80 101
M  END
> <Batch ID>
0123

> <Smiles>
CNC(C)C(=O)NC(C(=O)N1Cc2cc([101O:1][101CH2:1]C=CC(=O)c3cc([100NH:0][100C:0](=O)N4CCCC(n5nc(-c6ccc(Oc7ccc(F)cc7F)cc6)c(C(N)=O)c5N)C4)cn3C)ccc2CC1C(=O)NC1CCCc2ccccc21)C(C)(C)C

> <Shape>
0.241

> <Color>
0.093

> <Negative vol penalty>
0.000

$$$$

  -OEChem-04052302033D

 87 96  0     1  0  0  0  0  0999 V2000
  -23.7862   -7.8139   21.7480 C   0  0  0  0  0  0  0  0  0  0  0  0
  -24.4325   -8.8151   21.0301 C   0  0  0  0  0  0  0  0  0  0  0  0
  -22.6268  -28.1244   21.9719 C   0  0  0  0  0  0  0  0  0  0  0  0
  -22.4212  -28.7719   19.6534 C   0  0  0  0  0  0  0  0  0  0  0  0
  -22.4952   -8.0257   22.2299 C   0  0  0  0  0  0  0  0  0  0  0  0
  -23.7875  -10.0284   20.7928 C   0  0  0  0  0  0  0  0  0  0  0  0
  -26.7960  -14.0197   21.6075 C   0  0  0  0  0  0  0  0  0  0  0  0
  -21.2375  -28.1290   22.0964 C   0  0  0  0  0  0  0  0  0  0  0  0
  -21.0319  -28.7765   19.7778 C   0  0  0  0  0  0  0  0  0  0  0  0
  -27.7264  -14.3286   20.6162 C   0  0  0  0  0  0  0  0  0  0  0  0
  -18.7798  -30.4161   22.4876 C   0  0  0  0  0  0  0  0  0  0  0  0
  -18.2330  -31.0267   23.6162 C   0  0  0  0  0  0  0  0  0  0  0  0
  -28.4754  -19.2867   20.6351 C   0  0  0  0  0  0  0  0  0  0  0  0
  -28.0973  -21.6116   21.1721 C   0  0  0  0  0  0  0  0  0  0  0  0
  -28.8443  -20.9887   18.9605 C   0  0  0  0  0  0  0  0  0  0  0  0
  -26.2662  -16.0643   19.7951 C   0  0  0  0  0  0  0  0  0  0  0  0
  -17.2071  -28.9336   24.2515 C   0  0  0  0  0  0  0  0  0  0  0  0
  -23.2187  -28.4459   20.7504 C   0  0  0  0  0  0  0  0  0  0  0  0
  -28.1004  -20.2693   21.5512 C   0  0  0  0  0  0  0  0  0  0  0  0
  -28.8475  -19.6464   19.3397 C   0  0  0  0  0  0  0  0  0  0  0  0
  -25.5743  -29.2255   21.3426 C   0  0  0  0  0  0  0  0  0  0  0  0
  -21.8377   -9.2457   22.0066 C   0  0  0  0  0  0  0  0  0  0  0  0
  -25.5869  -14.7247   21.6934 C   0  0  0  0  0  0  0  0  0  0  0  0
  -22.4859  -10.2562   21.2710 C   0  0  0  0  0  0  0  0  0  0  0  0
  -25.3232  -15.7641   20.7900 C   0  0  0  0  0  0  0  0  0  0  0  0
  -28.4693  -21.9714   19.8767 C   0  0  0  0  0  0  0  0  0  0  0  0
  -20.4401  -28.4550   20.9993 C   0  0  0  0  0  0  0  0  0  0  0  0
  -27.4603  -15.3491   19.7080 C   0  0  0  0  0  0  0  0  0  0  0  0
  -18.5402  -29.0643   22.2409 C   0  0  0  0  0  0  0  0  0  0  0  0
  -17.4467  -30.2855   24.4982 C   0  0  0  0  0  0  0  0  0  0  0  0
  -17.7539  -28.3231   23.1229 C   0  0  0  0  0  0  0  0  0  0  0  0
  -24.6537  -28.4418   20.6213 C   0  0  0  0  0  0  0  0  0  0  0  0
  -26.8017  -28.8510   20.8530 C   0  0  0  0  0  0  0  0  0  0  0  0
  -28.3167  -20.3429   23.9932 C   0  0  0  0  0  0  0  0  0  0  0  0
  -27.7118  -19.8942   22.9020 C   0  0  0  0  0  0  0  0  0  0  0  0
  -29.2421  -18.6113   18.3741 C   0  0  0  0  0  0  0  0  0  0  0  0
  -25.3408  -30.2043   22.3639 C   0  0  0  0  0  0  0  0  0  0  0  0
  -22.5145  -13.9467   21.4506 C   0  0  0  0  0  0  0  0  0  0  0  0
  -22.0643  -17.0344   22.3372 C   0  0  0  0  0  0  0  0  0  0  0  0
  -23.3007  -20.2110   22.5025 C   0  0  0  0  0  0  0  0  0  0  0  0
  -28.8082  -23.8622   18.2470 C   0  0  0  0  0  0  0  0  0  0  0  0
  -20.4244   -9.4109   22.5065 C   0  0  0  0  0  0  0  0  0  0  0  0
  -24.6054  -14.3971   22.7851 C   0  0  0  0  0  0  0  0  0  0  0  0
  -24.0490  -16.5647   20.8521 C   0  0  0  0  0  0  0  0  0  0  0  0
  -19.9538  -10.8628   22.5341 C   0  0  0  0  0  0  0  0  0  0  0  0
  -28.8954  -27.1545   16.8941 C   0  0  0  0  0  0  0  0  0  0  0  0
  -32.3346  -17.1379   19.7567 C   0  0  0  0  0  0  0  0  0  0  0  0
  -20.3106  -11.5645   21.2275 C   0  0  0  0  0  0  0  0  0  0  0  0
  -27.9059  -27.9311   17.7659 C   0  0  0  0  0  0  0  0  0  0  0  0
  -32.0874  -16.2356   18.5530 C   0  0  0  0  0  0  0  0  0  0  0  0
  -31.4225  -18.3247   19.4977 C   0  0  0  0  0  0  0  0  0  0  0  0
  -28.4276  -25.7220   16.6435 C   0  0  0  0  0  0  0  0  0  0  0  0
  -27.1083  -25.7327   18.7240 C   0  0  0  0  0  0  0  0  0  0  0  0
  -21.8288  -11.5951   21.0143 C   0  0  1  0  0  0  0  0  0  0  0  0
  -23.1814  -14.8374   22.4603 C   0  0  1  0  0  0  0  0  0  0  0  0
  -27.5683  -27.1612   19.0578 C   0  0  2  0  0  0  0  0  0  0  0  0
  -30.5957  -16.4229   18.2595 C   0  0  1  0  0  0  0  0  0  0  0  0
  -23.3986  -22.6425   23.1150 C   0  0  0  0  0  0  0  0  0  0  0  0
  -20.2958  -17.3537   19.8714 C   0  0  0  0  0  0  0  0  0  0  0  0
  -20.4952  -19.8353   20.1356 C   0  0  0  0  0  0  0  0  0  0  0  0
  -19.4257  -18.4735   21.9313 C   0  0  0  0  0  0  0  0  0  0  0  0
  -24.6170  -19.6260   25.0878 C   0  0  0  0  0  0  0  0  0  0  0  0
  -29.7422  -15.4254   19.0424 C   0  0  0  0  0  0  0  0  0  1  0  0
  -21.9297  -18.3480   21.6057 C   0  0  1  0  0  0  0  0  0  0  0  0
  -23.3471  -21.2159   23.6393 C   0  0  2  0  0  0  0  0  0  0  0  0
  -20.5599  -18.4865   20.8833 C   0  0  0  0  0  0  0  0  0  0  0  0
  -25.2457  -27.6309   19.7404 N   0  0  0  0  0  0  0  0  0  0  0  0
  -26.5514  -27.9030   19.9049 N   0  0  0  0  0  0  0  0  0  0  0  0
  -30.3328  -17.8076   18.6803 N   0  0  0  0  0  0  0  0  0  0  0  0
  -23.1181  -16.2023   21.9336 N   0  0  0  0  0  0  0  0  0  0  0  0
  -28.1304  -25.0536   17.9122 N   0  0  0  0  0  0  0  0  0  0  0  0
  -28.0599  -29.2435   21.1452 N   0  0  0  0  0  0  0  0  0  0  0  0
  -24.0188  -30.4671   22.7478 N   0  0  0  0  0  0  0  0  0  0  0  0
  -28.4669  -23.3351   19.4921 N   0  0  0  0  0  0  0  0  0  0  0  0
  -22.4339  -12.6220   21.8352 N   0  0  0  0  0  0  0  0  0  0  0  0
  -22.1947  -19.3922   22.5895 N   0  0  0  0  0  0  0  0  0  0  0  0
  -24.5502  -20.9832   24.4875 N   0  3  0  0  0  0  0  0  0  0  0  0
  -28.5691  -18.5247   17.3479 O   0  0  0  0  0  0  0  0  0  0  0  0
  -26.2759  -30.8392   22.9081 O   0  0  0  0  0  0  0  0  0  0  0  0
  -22.1022  -14.4262   20.4009 O   0  0  0  0  0  0  0  0  0  0  0  0
  -21.2682  -16.7599   23.2387 O   0  0  0  0  0  0  0  0  0  0  0  0
  -24.1577  -20.1600   21.6230 O   0  0  0  0  0  0  0  0  0  0  0  0
  -29.6507  -23.3623   17.4972 O   0  0  0  0  0  0  0  0  0  0  0  0
  -19.0844  -28.4594   21.1204 O   0  0  0  0  0  0  0  0  0  0  0  0
  -28.3664  -15.6522   18.7390 O   0  0  0  0  0  0  0  0  0  1  0  0
  -16.9230  -30.8716   25.5828 F   0  0  0  0  0  0  0  0  0  0  0  0
  -17.5212  -27.0237   22.8918 F   0  0  0  0  0  0  0  0  0  0  0  0
  1  2  1  0  0  0  0
  1  5  2  0  0  0  0
  2  6  2  0  0  0  0
  3  8  2  0  0  0  0
  3 18  1  0  0  0  0
  4  9  1  0  0  0  0
  4 18  2  0  0  0  0
  5 22  1  0  0  0  0
  6 24  1  0  0  0  0
  7 10  2  0  0  0  0
  7 23  1  0  0  0  0
  8 27  1  0  0  0  0
  9 27  2  0  0  0  0
 10 28  1  0  0  0  0
 11 12  2  0  0  0  0
 11 29  1  0  0  0  0
 12 30  1  0  0  0  0
 13 19  2  0  0  0  0
 13 20  1  0  0  0  0
 14 19  1  0  0  0  0
 14 26  2  0  0  0  0
 15 20  2  0  0  0  0
 15 26  1  0  0  0  0
 16 25  1  0  0  0  0
 16 28  2  0  0  0  0
 17 30  2  0  0  0  0
 17 31  1  0  0  0  0
 18 32  1  0  0  0  0
 19 35  1  0  0  0  0
 20 36  1  0  0  0  0
 21 32  1  0  0  0  0
 21 33  2  0  0  0  0
 21 37  1  0  0  0  0
 22 24  2  0  0  0  0
 22 42  1  0  0  0  0
 23 25  2  0  0  0  0
 23 43  1  0  0  0  0
 24 54  1  0  0  0  0
 25 44  1  0  0  0  0
 26 74  1  0  0  0  0
 27 84  1  0  0  0  0
 28 85  1  0  0  0  0
 29 31  2  0  0  0  0
 29 84  1  0  0  0  0
 30 86  1  0  0  0  0
 31 87  1  0  0  0  0
 32 67  2  0  0  0  0
 33 68  1  0  0  0  0
 33 72  1  0  0  0  0
 34 35  2  0  0  0  0
 36 69  1  0  0  0  0
 36 78  2  0  0  0  0
 37 73  1  0  0  0  0
 37 79  2  0  0  0  0
 38 55  1  0  0  0  0
 38 75  1  0  0  0  0
 38 80  2  0  0  0  0
 39 64  1  0  0  0  0
 39 70  1  0  0  0  0
 39 81  2  0  0  0  0
 40 65  1  0  0  0  0
 40 76  1  0  0  0  0
 40 82  2  0  0  0  0
 41 71  1  0  0  0  0
 41 74  1  0  0  0  0
 41 83  2  0  0  0  0
 42 45  1  0  0  0  0
 43 55  1  0  0  0  0
 44 70  1  0  0  0  0
 45 48  1  0  0  0  0
 46 49  1  0  0  0  0
 46 52  1  0  0  0  0
 47 50  1  0  0  0  0
 47 51  1  0  0  0  0
 48 54  1  0  0  0  0
 49 56  1  0  0  0  0
 50 57  1  0  0  0  0
 51 69  1  0  0  0  0
 52 71  1  0  0  0  0
 53 56  1  0  0  0  0
 53 71  1  0  0  0  0
 54 75  1  0  0  0  0
 55 70  1  0  0  0  0
 56 68  1  0  0  0  0
 57 63  1  0  0  0  0
 57 69  1  0  0  0  0
 58 65  1  0  0  0  0
 59 66  1  0  0  0  0
 60 66  1  0  0  0  0
 61 66  1  0  0  0  0
 62 77  1  0  0  0  0
 63 85  1  0  0  0  0
 64 66  1  0  0  0  0
 64 76  1  0  0  0  0
 65 77  1  0  0  0  0
 67 68  1  0  0  0  0
M  CHG  1  77   1
M  ISO  4  41 100  63 101  74 100  85 101
M  END
> <Batch ID>
0123

> <Smiles>
C=Cc1cc([100NH:0][100C:0](=O)N2CCCC(n3nc(-c4ccc(Oc5ccc(F)cc5F)cc4)c(C(N)=O)c3N)C2)cc(C(=O)N2CCCC2[101CH2:1][101O:1]c2ccc3c(c2)CN(C(=O)C(NC(=O)C(C)NC)C(C)(C)C)C(C(=O)NC2CCCc4ccccc42)C3)c1

> <Shape>
0.263

> <Color>
0.082

> <Negative vol penalty>
0.000

$$$$

  -OEChem-04052302033D

 84 92  0     1  0  0  0  0  0999 V2000
  -31.0431  -19.3508   15.6334 C   0  0  0  0  0  0  0  0  0  0  0  0
  -30.5626  -19.5913   16.9167 C   0  0  0  0  0  0  0  0  0  0  0  0
  -23.0550   -9.9114   19.9530 C   0  0  0  0  0  0  0  0  0  0  0  0
  -23.8735   -9.8912   22.2261 C   0  0  0  0  0  0  0  0  0  0  0  0
  -31.7049  -20.3614   14.9373 C   0  0  0  0  0  0  0  0  0  0  0  0
  -30.7446  -20.8424   17.5050 C   0  0  0  0  0  0  0  0  0  0  0  0
  -26.5581  -22.5411   19.7925 C   0  0  0  0  0  0  0  0  0  0  0  0
  -22.3121   -8.7592   20.2102 C   0  0  0  0  0  0  0  0  0  0  0  0
  -23.1305   -8.7390   22.4833 C   0  0  0  0  0  0  0  0  0  0  0  0
  -26.2539  -22.0053   21.0431 C   0  0  0  0  0  0  0  0  0  0  0  0
  -21.1671   -5.9975   23.8425 C   0  0  0  0  0  0  0  0  0  0  0  0
  -20.4409   -5.9454   25.0323 C   0  0  0  0  0  0  0  0  0  0  0  0
  -27.1815  -23.9645   22.1015 C   0  0  0  0  0  0  0  0  0  0  0  0
  -30.9197  -16.8998   25.0889 C   0  0  0  0  0  0  0  0  0  0  0  0
  -19.1875   -7.8959   24.3527 C   0  0  0  0  0  0  0  0  0  0  0  0
  -23.8357  -10.4774   20.9609 C   0  0  0  0  0  0  0  0  0  0  0  0
  -24.1867  -13.0020   20.8579 C   0  0  0  0  0  0  0  0  0  0  0  0
  -31.8866  -21.6284   15.5136 C   0  0  0  0  0  0  0  0  0  0  0  0
  -27.1873  -23.7899   19.6871 C   0  0  0  0  0  0  0  0  0  0  0  0
  -31.4107  -21.8705   16.8164 C   0  0  0  0  0  0  0  0  0  0  0  0
  -27.4904  -24.5151   20.8483 C   0  0  0  0  0  0  0  0  0  0  0  0
  -30.1064  -17.8544   25.7450 C   0  0  0  0  0  0  0  0  0  0  0  0
  -22.3499   -8.1730   21.4754 C   0  0  0  0  0  0  0  0  0  0  0  0
  -26.5682  -22.7157   22.1980 C   0  0  0  0  0  0  0  0  0  0  0  0
  -20.9036   -6.9989   22.9079 C   0  0  0  0  0  0  0  0  0  0  0  0
  -19.4511   -6.8945   25.2874 C   0  0  0  0  0  0  0  0  0  0  0  0
  -19.9138   -7.9480   23.1630 C   0  0  0  0  0  0  0  0  0  0  0  0
  -24.6038  -11.6673   20.6957 C   0  0  0  0  0  0  0  0  0  0  0  0
  -30.3327  -16.6742   23.8655 C   0  0  0  0  0  0  0  0  0  0  0  0
  -29.0805  -18.1443   24.8757 C   0  0  0  0  0  0  0  0  0  0  0  0
  -25.2729  -13.7501   20.4743 C   0  0  0  0  0  0  0  0  0  0  0  0
  -30.7782  -15.7973   22.8497 C   0  0  0  0  0  0  0  0  0  0  0  0
  -30.1955  -15.5953   21.6219 C   0  0  0  0  0  0  0  0  0  0  0  0
  -28.2210  -20.3892   25.3017 C   0  0  0  0  0  0  0  0  0  0  0  0
  -22.9300  -13.5194   21.3145 C   0  0  0  0  0  0  0  0  0  0  0  0
  -27.9534  -19.0887   25.0823 C   0  0  0  0  0  0  0  0  0  0  0  0
  -27.1613  -21.4125   25.4887 C   0  0  0  0  0  0  0  0  0  0  0  0
  -30.7918  -14.6436   20.6565 C   0  0  0  0  0  0  0  0  0  0  0  0
  -29.9589  -24.8135   18.5146 C   0  0  0  0  0  0  0  0  0  0  0  0
  -28.7204  -27.7345   19.1897 C   0  0  0  0  0  0  0  0  0  0  0  0
  -26.5335  -29.5993   21.0301 C   0  0  0  0  0  0  0  0  0  0  0  0
  -32.6498  -22.6748   14.7408 C   0  0  0  0  0  0  0  0  0  0  0  0
  -27.4847  -24.3660   18.3299 C   0  0  0  0  0  0  0  0  0  0  0  0
  -28.1476  -25.8690   20.7888 C   0  0  0  0  0  0  0  0  0  0  0  0
  -32.4718  -24.0880   15.2896 C   0  0  0  0  0  0  0  0  0  0  0  0
  -29.5467  -12.4137   18.1398 C   0  0  0  0  0  0  0  0  0  0  0  0
  -32.6327  -24.0958   16.8065 C   0  0  0  0  0  0  0  0  0  0  0  0
  -28.1287  -12.1004   18.6160 C   0  0  0  0  0  0  0  0  0  0  0  0
  -30.5021  -12.5983   19.3144 C   0  0  0  0  0  0  0  0  0  0  0  0
  -28.6359  -13.3249   20.7767 C   0  0  0  0  0  0  0  0  0  0  0  0
  -31.5668  -23.2221   17.4788 C   0  0  1  0  0  0  0  0  0  0  0  0
  -28.5915  -25.4156   18.3557 C   0  0  1  0  0  0  0  0  0  0  0  0
  -27.6364  -13.1590   19.6187 C   0  0  2  0  0  0  0  0  0  0  0  0
  -30.3321  -18.4138   27.0922 C   0  0  0  0  0  0  0  0  0  0  0  0
  -26.5720  -18.4920   25.0265 C   0  0  0  0  0  0  0  0  0  0  0  0
  -25.7758  -31.9651   21.3855 C   0  0  0  0  0  0  0  0  0  0  0  0
  -31.2647  -28.3090   20.7728 C   0  0  0  0  0  0  0  0  0  0  0  0
  -30.0743  -30.2265   21.8565 C   0  0  0  0  0  0  0  0  0  0  0  0
  -30.4423  -30.2232   19.3892 C   0  0  0  0  0  0  0  0  0  0  0  0
  -23.7638  -28.9585   20.2072 C   0  0  0  0  0  0  0  0  0  0  0  0
  -27.1266  -22.5576   24.5043 C   0  0  0  0  0  0  0  0  0  1  0  0
  -28.7344  -28.6504   20.3898 C   0  0  1  0  0  0  0  0  0  0  0  0
  -25.5347  -30.6692   20.6271 C   0  0  2  0  0  0  0  0  0  0  0  0
  -30.1183  -29.3259   20.6036 C   0  0  0  0  0  0  0  0  0  0  0  0
  -25.8570  -11.5699   20.2441 N   0  0  0  0  0  0  0  0  0  0  0  0
  -26.2791  -21.3293   26.4324 N   0  0  0  0  0  0  0  0  0  0  0  0
  -26.2368  -12.8529   20.1192 N   0  0  0  0  0  0  0  0  0  0  0  0
  -29.9877  -13.5826   20.2644 N   0  0  0  0  0  0  0  0  0  0  0  0
  -28.4241  -26.3869   19.4387 N   0  0  0  0  0  0  0  0  0  0  0  0
  -25.4879  -15.0813   20.4095 N   0  0  0  0  0  0  0  0  0  0  0  0
  -21.9226  -12.6115   21.6684 N   0  0  0  0  0  0  0  0  0  0  0  0
  -30.2973  -23.9157   17.5202 N   0  0  0  0  0  0  0  0  0  0  0  0
  -27.6341  -29.5893   20.1995 N   0  0  0  0  0  0  0  0  0  0  0  0
  -24.1444  -30.2119   20.9080 N   0  3  0  0  0  0  0  0  0  0  0  0
  -22.7013  -14.7504   21.3905 O   0  0  0  0  0  0  0  0  0  0  0  0
  -31.9371  -14.8961   20.3060 O   0  0  0  0  0  0  0  0  0  0  0  0
  -30.6559  -25.1403   19.4680 O   0  0  0  0  0  0  0  0  0  0  0  0
  -28.9563  -28.1992   18.0716 O   0  0  0  0  0  0  0  0  0  0  0  0
  -26.3569  -28.8501   21.9882 O   0  0  0  0  0  0  0  0  0  0  0  0
  -29.2112  -17.4291   23.7277 O   0  0  0  0  0  0  0  0  0  0  0  0
  -21.6249   -7.0488   21.7268 O   0  0  0  0  0  0  0  0  0  0  0  0
  -26.2729  -22.1947   23.4199 O   0  0  0  0  0  0  0  0  0  1  0  0
  -18.7528   -6.8434   26.4292 F   0  0  0  0  0  0  0  0  0  0  0  0
  -19.6553   -8.9117   22.2683 F   0  0  0  0  0  0  0  0  0  0  0  0
  1  2  1  0  0  0  0
  1  5  2  0  0  0  0
  2  6  2  0  0  0  0
  3  8  2  0  0  0  0
  3 16  1  0  0  0  0
  4  9  1  0  0  0  0
  4 16  2  0  0  0  0
  5 18  1  0  0  0  0
  6 20  1  0  0  0  0
  7 10  2  0  0  0  0
  7 19  1  0  0  0  0
  8 23  1  0  0  0  0
  9 23  2  0  0  0  0
 10 24  1  0  0  0  0
 11 12  2  0  0  0  0
 11 25  1  0  0  0  0
 12 26  1  0  0  0  0
 13 21  1  0  0  0  0
 13 24  2  0  0  0  0
 14 22  1  0  0  0  0
 14 29  2  0  0  0  0
 15 26  2  0  0  0  0
 15 27  1  0  0  0  0
 16 28  1  0  0  0  0
 17 28  1  0  0  0  0
 17 31  2  0  0  0  0
 17 35  1  0  0  0  0
 18 20  2  0  0  0  0
 18 42  1  0  0  0  0
 19 21  2  0  0  0  0
 19 43  1  0  0  0  0
 20 51  1  0  0  0  0
 21 44  1  0  0  0  0
 22 30  2  0  0  0  0
 22 54  1  0  0  0  0
 23 81  1  0  0  0  0
 24 82  1  0  0  0  0
 25 27  2  0  0  0  0
 25 81  1  0  0  0  0
 26 83  1  0  0  0  0
 27 84  1  0  0  0  0
 28 65  2  0  0  0  0
 29 32  1  0  0  0  0
 29 80  1  0  0  0  0
 30 36  1  0  0  0  0
 30 80  1  0  0  0  0
 31 67  1  0  0  0  0
 31 70  1  0  0  0  0
 32 33  2  0  0  0  0
 33 38  1  0  0  0  0
 34 36  2  0  0  0  0
 34 37  1  0  0  0  0
 35 71  1  0  0  0  0
 35 75  2  0  0  0  0
 36 55  1  0  0  0  0
 37 61  1  0  0  0  0
 37 66  2  0  0  0  0
 38 68  1  0  0  0  0
 38 76  2  0  0  0  0
 39 52  1  0  0  0  0
 39 72  1  0  0  0  0
 39 77  2  0  0  0  0
 40 62  1  0  0  0  0
 40 69  1  0  0  0  0
 40 78  2  0  0  0  0
 41 63  1  0  0  0  0
 41 73  1  0  0  0  0
 41 79  2  0  0  0  0
 42 45  1  0  0  0  0
 43 52  1  0  0  0  0
 44 69  1  0  0  0  0
 45 47  1  0  0  0  0
 46 48  1  0  0  0  0
 46 49  1  0  0  0  0
 47 51  1  0  0  0  0
 48 53  1  0  0  0  0
 49 68  1  0  0  0  0
 50 53  1  0  0  0  0
 50 68  1  0  0  0  0
 51 72  1  0  0  0  0
 52 69  1  0  0  0  0
 53 67  1  0  0  0  0
 56 63  1  0  0  0  0
 57 64  1  0  0  0  0
 58 64  1  0  0  0  0
 59 64  1  0  0  0  0
 60 74  1  0  0  0  0
 61 82  1  0  0  0  0
 62 64  1  0  0  0  0
 62 73  1  0  0  0  0
 63 74  1  0  0  0  0
 65 67  1  0  0  0  0
M  CHG  1  74   1
M  ISO  4  33 100  38 100  61 101  82 101
M  END
> <Batch ID>
0123

> <Smiles>
CNC(C)C(=O)NC(C(=O)N1Cc2cc([101O:1][101CH2:1]C(=N)C=C(C)c3oc(C=[100CH:0][100C:0](=O)N4CCCC(n5nc(-c6ccc(Oc7ccc(F)cc7F)cc6)c(C(N)=O)c5N)C4)cc3C)ccc2CC1C(=O)NC1CCCc2ccccc21)C(C)(C)C

> <Shape>
0.265

> <Color>
0.209

> <Negative vol penalty>
0.000

$$$$

  -OEChem-04052302033D

 86 94  0     1  0  0  0  0  0999 V2000
  -27.8311  -36.1282   19.0393 C   0  0  0  0  0  0  0  0  0  0  0  0
  -28.4944  -34.9064   18.9879 C   0  0  0  0  0  0  0  0  0  0  0  0
  -22.8954  -10.0639   20.0076 C   0  0  0  0  0  0  0  0  0  0  0  0
  -23.7091   -9.9673   22.2804 C   0  0  0  0  0  0  0  0  0  0  0  0
  -26.7374  -36.2911   19.8886 C   0  0  0  0  0  0  0  0  0  0  0  0
  -28.0651  -33.8471   19.7866 C   0  0  0  0  0  0  0  0  0  0  0  0
  -28.1672  -27.8903   18.3681 C   0  0  0  0  0  0  0  0  0  0  0  0
  -22.0837   -8.9560   20.2511 C   0  0  0  0  0  0  0  0  0  0  0  0
  -22.8974   -8.8594   22.5239 C   0  0  0  0  0  0  0  0  0  0  0  0
  -29.0571  -26.8654   18.6865 C   0  0  0  0  0  0  0  0  0  0  0  0
  -22.9562   -5.5396   21.8865 C   0  0  0  0  0  0  0  0  0  0  0  0
  -23.5202   -4.4598   22.5657 C   0  0  0  0  0  0  0  0  0  0  0  0
  -30.1920  -18.9704   22.4593 C   0  0  0  0  0  0  0  0  0  0  0  0
  -27.6411  -26.2163   20.5285 C   0  0  0  0  0  0  0  0  0  0  0  0
  -31.4833  -17.3160   20.6214 C   0  0  0  0  0  0  0  0  0  0  0  0
  -21.8754   -4.7034   24.3186 C   0  0  0  0  0  0  0  0  0  0  0  0
  -23.7081  -10.5695   21.0222 C   0  0  0  0  0  0  0  0  0  0  0  0
  -31.1106  -19.5110   21.5596 C   0  0  0  0  0  0  0  0  0  0  0  0
  -24.2119  -13.0692   20.9490 C   0  0  0  0  0  0  0  0  0  0  0  0
  -26.2884  -35.2303   20.6909 C   0  0  0  0  0  0  0  0  0  0  0  0
  -27.0111  -28.0931   19.1354 C   0  0  0  0  0  0  0  0  0  0  0  0
  -26.9652  -33.9963   20.6483 C   0  0  0  0  0  0  0  0  0  0  0  0
  -26.7368  -27.2428   20.2161 C   0  0  0  0  0  0  0  0  0  0  0  0
  -29.9191  -17.6026   22.4402 C   0  0  0  0  0  0  0  0  0  0  0  0
  -31.7562  -18.6838   20.6406 C   0  0  0  0  0  0  0  0  0  0  0  0
  -30.5647  -16.7754   21.5212 C   0  0  0  0  0  0  0  0  0  0  0  0
  -22.0846   -8.3538   21.5093 C   0  0  0  0  0  0  0  0  0  0  0  0
  -28.7956  -26.0300   19.7686 C   0  0  0  0  0  0  0  0  0  0  0  0
  -21.8518   -6.2014   22.4233 C   0  0  0  0  0  0  0  0  0  0  0  0
  -22.9798   -4.0416   23.7818 C   0  0  0  0  0  0  0  0  0  0  0  0
  -21.3115   -5.7833   23.6394 C   0  0  0  0  0  0  0  0  0  0  0  0
  -24.5473  -11.7136   20.7711 C   0  0  0  0  0  0  0  0  0  0  0  0
  -25.3418  -13.7544   20.5745 C   0  0  0  0  0  0  0  0  0  0  0  0
  -32.3377  -21.2476   18.2120 C   0  0  0  0  0  0  0  0  0  0  0  0
  -30.2408  -21.8927   21.3691 C   0  0  0  0  0  0  0  0  0  0  0  0
  -32.0929  -19.9695   18.5221 C   0  0  0  0  0  0  0  0  0  0  0  0
  -30.4304  -23.2187   21.4141 C   0  0  0  0  0  0  0  0  0  0  0  0
  -31.3829  -20.9681   21.6032 C   0  0  0  0  0  0  0  0  0  0  0  0
  -22.9885  -13.6566   21.4115 C   0  0  0  0  0  0  0  0  0  0  0  0
  -25.8963  -30.4703   20.9270 C   0  0  0  0  0  0  0  0  0  0  0  0
  -23.2668  -28.5798   21.1104 C   0  0  0  0  0  0  0  0  0  0  0  0
  -21.9342  -25.4437   20.9205 C   0  0  0  0  0  0  0  0  0  0  0  0
  -30.8675  -14.4378   20.6322 C   0  0  0  0  0  0  0  0  0  0  0  0
  -25.1310  -35.4683   21.6282 C   0  0  0  0  0  0  0  0  0  0  0  0
  -26.0476  -29.1863   18.7626 C   0  0  0  0  0  0  0  0  0  0  0  0
  -25.4993  -27.4058   21.0591 C   0  0  0  0  0  0  0  0  0  0  0  0
  -24.5076  -34.1825   22.1650 C   0  0  0  0  0  0  0  0  0  0  0  0
  -29.5403  -12.1582   18.2407 C   0  0  0  0  0  0  0  0  0  0  0  0
  -25.5925  -33.2202   22.6381 C   0  0  0  0  0  0  0  0  0  0  0  0
  -28.0954  -11.9508   18.7005 C   0  0  0  0  0  0  0  0  0  0  0  0
  -30.4972  -12.2986   19.4233 C   0  0  0  0  0  0  0  0  0  0  0  0
  -28.6757  -13.1127   20.8685 C   0  0  0  0  0  0  0  0  0  0  0  0
  -26.5141  -32.8160   21.4811 C   0  0  1  0  0  0  0  0  0  0  0  0
  -25.1623  -29.6246   19.9252 C   0  0  1  0  0  0  0  0  0  0  0  0
  -27.6655  -13.0310   19.7124 C   0  0  2  0  0  0  0  0  0  0  0  0
  -28.9301  -17.0508   23.4150 C   0  0  0  0  0  0  0  0  0  0  0  0
  -19.7622  -24.2088   21.1546 C   0  0  0  0  0  0  0  0  0  0  0  0
  -23.4621  -28.8166   24.1462 C   0  0  0  0  0  0  0  0  0  0  0  0
  -21.9150  -26.8567   24.3288 C   0  0  0  0  0  0  0  0  0  0  0  0
  -21.1371  -28.9599   23.2361 C   0  0  0  0  0  0  0  0  0  0  0  0
  -22.0324  -24.5044   18.1157 C   0  0  0  0  0  0  0  0  0  0  0  0
  -32.7437  -19.2372   19.6656 C   0  0  0  0  0  0  0  0  0  0  0  0
  -29.3326  -24.2110   21.2035 C   0  0  0  0  0  0  0  0  0  1  0  0
  -22.8016  -27.4823   22.0368 C   0  0  1  0  0  0  0  0  0  0  0  0
  -20.7111  -24.9112   20.1959 C   0  0  2  0  0  0  0  0  0  0  0  0
  -22.3533  -28.0267   23.4225 C   0  0  0  0  0  0  0  0  0  0  0  0
  -25.7927  -11.5456   20.3186 N   0  0  0  0  0  0  0  0  0  0  0  0
  -26.2498  -12.8046   20.2089 N   0  0  0  0  0  0  0  0  0  0  0  0
  -24.5912  -28.4931   20.6585 N   0  0  0  0  0  0  0  0  0  0  0  0
  -30.0283  -13.3426   20.3372 N   0  0  0  0  0  0  0  0  0  0  0  0
  -25.6373  -15.0707   20.5254 N   0  0  0  0  0  0  0  0  0  0  0  0
  -21.9275  -12.8074   21.7545 N   0  0  0  0  0  0  0  0  0  0  0  0
  -30.3021  -15.3835   21.4870 N   0  0  0  0  0  0  0  0  0  0  0  0
  -25.8720  -31.8232   20.6465 N   0  0  0  0  0  0  0  0  0  0  0  0
  -21.7631  -26.7533   21.3168 N   0  0  0  0  0  0  0  0  0  0  0  0
  -21.1163  -23.9405   19.1402 N   0  3  0  0  0  0  0  0  0  0  0  0
  -32.5150  -21.3682   21.8510 O   0  0  0  0  0  0  0  0  0  0  0  0
  -22.8349  -14.8982   21.5019 O   0  0  0  0  0  0  0  0  0  0  0  0
  -26.4430  -29.9352   21.8843 O   0  0  0  0  0  0  0  0  0  0  0  0
  -22.4817  -29.4770   20.7936 O   0  0  0  0  0  0  0  0  0  0  0  0
  -22.9393  -24.7647   21.1186 O   0  0  0  0  0  0  0  0  0  0  0  0
  -31.9936  -14.5437   20.1397 O   0  0  0  0  0  0  0  0  0  0  0  0
  -21.2925   -7.2728   21.7473 O   0  0  0  0  0  0  0  0  0  0  0  0
  -29.6629  -25.0293   20.0820 O   0  0  0  0  0  0  0  0  0  1  0  0
  -23.5206   -3.0037   24.4332 F   0  0  0  0  0  0  0  0  0  0  0  0
  -20.2499   -6.4144   24.1595 F   0  0  0  0  0  0  0  0  0  0  0  0
  1  2  1  0  0  0  0
  1  5  2  0  0  0  0
  2  6  2  0  0  0  0
  3  8  2  0  0  0  0
  3 17  1  0  0  0  0
  4  9  1  0  0  0  0
  4 17  2  0  0  0  0
  5 20  1  0  0  0  0
  6 22  1  0  0  0  0
  7 10  2  0  0  0  0
  7 21  1  0  0  0  0
  8 27  1  0  0  0  0
  9 27  2  0  0  0  0
 10 28  1  0  0  0  0
 11 12  2  0  0  0  0
 11 29  1  0  0  0  0
 12 30  1  0  0  0  0
 13 18  1  0  0  0  0
 13 24  2  0  0  0  0
 14 23  1  0  0  0  0
 14 28  2  0  0  0  0
 15 25  1  0  0  0  0
 15 26  2  0  0  0  0
 16 30  2  0  0  0  0
 16 31  1  0  0  0  0
 17 32  1  0  0  0  0
 18 25  2  0  0  0  0
 18 38  1  0  0  0  0
 19 32  1  0  0  0  0
 19 33  2  0  0  0  0
 19 39  1  0  0  0  0
 20 22  2  0  0  0  0
 20 44  1  0  0  0  0
 21 23  2  0  0  0  0
 21 45  1  0  0  0  0
 22 53  1  0  0  0  0
 23 46  1  0  0  0  0
 24 26  1  0  0  0  0
 24 56  1  0  0  0  0
 25 62  1  0  0  0  0
 26 73  1  0  0  0  0
 27 83  1  0  0  0  0
 28 84  1  0  0  0  0
 29 31  2  0  0  0  0
 29 83  1  0  0  0  0
 30 85  1  0  0  0  0
 31 86  1  0  0  0  0
 32 67  2  0  0  0  0
 33 68  1  0  0  0  0
 33 71  1  0  0  0  0
 34 36  2  0  0  0  0
 35 37  2  0  0  0  0
 35 38  1  0  0  0  0
 36 62  1  0  0  0  0
 37 63  1  0  0  0  0
 38 77  2  0  0  0  0
 39 72  1  0  0  0  0
 39 78  2  0  0  0  0
 40 54  1  0  0  0  0
 40 74  1  0  0  0  0
 40 79  2  0  0  0  0
 41 64  1  0  0  0  0
 41 69  1  0  0  0  0
 41 80  2  0  0  0  0
 42 65  1  0  0  0  0
 42 75  1  0  0  0  0
 42 81  2  0  0  0  0
 43 70  1  0  0  0  0
 43 73  1  0  0  0  0
 43 82  2  0  0  0  0
 44 47  1  0  0  0  0
 45 54  1  0  0  0  0
 46 69  1  0  0  0  0
 47 49  1  0  0  0  0
 48 50  1  0  0  0  0
 48 51  1  0  0  0  0
 49 53  1  0  0  0  0
 50 55  1  0  0  0  0
 51 70  1  0  0  0  0
 52 55  1  0  0  0  0
 52 70  1  0  0  0  0
 53 74  1  0  0  0  0
 54 69  1  0  0  0  0
 55 68  1  0  0  0  0
 57 65  1  0  0  0  0
 58 66  1  0  0  0  0
 59 66  1  0  0  0  0
 60 66  1  0  0  0  0
 61 76  1  0  0  0  0
 63 84  1  0  0  0  0
 64 66  1  0  0  0  0
 64 75  1  0  0  0  0
 65 76  1  0  0  0  0
 67 68  1  0  0  0  0
M  CHG  1  76   1
M  ISO  4  43 100  63 101  73 100  84 101
M  END
> <Batch ID>
0123

> <Smiles>
C=CCc1cc([100NH:0][100C:0](=O)N2CCCC(n3nc(-c4ccc(Oc5ccc(F)cc5F)cc4)c(C(N)=O)c3N)C2)c(C)cc1C(=O)C=C[101CH2:1][101O:1]c1ccc2c(c1)CN(C(=O)C(NC(=O)C(C)NC)C(C)(C)C)C(C(=O)NC1CCCc3ccccc31)C2

> <Shape>
0.326

> <Color>
0.218

> <Negative vol penalty>
0.000

$$$$

  -OEChem-04052302033D

 84 92  0     1  0  0  0  0  0999 V2000
  -26.9483  -31.3264   28.6849 C   0  0  0  0  0  0  0  0  0  0  0  0
  -27.3742  -30.5643   27.6018 C   0  0  0  0  0  0  0  0  0  0  0  0
  -24.6718   -8.2503   20.7152 C   0  0  0  0  0  0  0  0  0  0  0  0
  -23.3815  -10.2879   20.8593 C   0  0  0  0  0  0  0  0  0  0  0  0
  -25.5870  -31.5520   28.8848 C   0  0  0  0  0  0  0  0  0  0  0  0
  -26.4389  -30.0264   26.7184 C   0  0  0  0  0  0  0  0  0  0  0  0
  -27.1025  -29.2443   20.6807 C   0  0  0  0  0  0  0  0  0  0  0  0
  -23.5444   -7.5111   21.0732 C   0  0  0  0  0  0  0  0  0  0  0  0
  -22.2541   -9.5486   21.2173 C   0  0  0  0  0  0  0  0  0  0  0  0
  -27.4444  -28.1334   19.9108 C   0  0  0  0  0  0  0  0  0  0  0  0
  -21.8492   -6.7671   23.9011 C   0  0  0  0  0  0  0  0  0  0  0  0
  -22.0091   -5.7656   24.8587 C   0  0  0  0  0  0  0  0  0  0  0  0
  -25.1049  -27.6866   19.5278 C   0  0  0  0  0  0  0  0  0  0  0  0
  -29.5989  -18.9500   18.4647 C   0  0  0  0  0  0  0  0  0  0  0  0
  -30.4755  -18.2006   21.0050 C   0  0  0  0  0  0  0  0  0  0  0  0
  -21.2564   -4.1174   23.2605 C   0  0  0  0  0  0  0  0  0  0  0  0
  -24.5903   -9.6387   20.6083 C   0  0  0  0  0  0  0  0  0  0  0  0
  -26.1637  -10.7542   18.9386 C   0  0  0  0  0  0  0  0  0  0  0  0
  -24.6351  -31.0247   27.9980 C   0  0  0  0  0  0  0  0  0  0  0  0
  -25.7568  -29.5789   20.8893 C   0  0  0  0  0  0  0  0  0  0  0  0
  -25.0635  -30.2441   26.9073 C   0  0  0  0  0  0  0  0  0  0  0  0
  -24.7487  -28.8037   20.2986 C   0  0  0  0  0  0  0  0  0  0  0  0
  -29.5033  -17.6191   18.8710 C   0  0  0  0  0  0  0  0  0  0  0  0
  -29.9416  -17.2444   20.1411 C   0  0  0  0  0  0  0  0  0  0  0  0
  -22.3356   -8.1602   21.3243 C   0  0  0  0  0  0  0  0  0  0  0  0
  -26.4455  -27.3527   19.3365 C   0  0  0  0  0  0  0  0  0  0  0  0
  -21.3928   -6.4438   22.6232 C   0  0  0  0  0  0  0  0  0  0  0  0
  -30.1328  -19.9063   19.3286 C   0  0  0  0  0  0  0  0  0  0  0  0
  -21.7127   -4.4407   24.5384 C   0  0  0  0  0  0  0  0  0  0  0  0
  -30.5711  -19.5316   20.5986 C   0  0  0  0  0  0  0  0  0  0  0  0
  -21.0965   -5.1190   22.3030 C   0  0  0  0  0  0  0  0  0  0  0  0
  -25.7547  -10.4030   20.2390 C   0  0  0  0  0  0  0  0  0  0  0  0
  -27.3189  -11.4735   19.1245 C   0  0  0  0  0  0  0  0  0  0  0  0
  -25.5539  -10.4568   17.6754 C   0  0  0  0  0  0  0  0  0  0  0  0
  -23.8707  -29.8049   23.4379 C   0  0  0  0  0  0  0  0  0  0  0  0
  -21.7436  -30.9577   21.2771 C   0  0  0  0  0  0  0  0  0  0  0  0
  -20.7169  -31.1232   18.0267 C   0  0  0  0  0  0  0  0  0  0  0  0
  -30.2478  -15.3775   21.8047 C   0  0  0  0  0  0  0  0  0  0  0  0
  -23.1720  -31.2559   28.2819 C   0  0  0  0  0  0  0  0  0  0  0  0
  -25.4053  -30.7959   21.7003 C   0  0  0  0  0  0  0  0  0  0  0  0
  -23.2895  -29.1322   20.4754 C   0  0  0  0  0  0  0  0  0  0  0  0
  -22.2664  -30.9638   27.0882 C   0  0  0  0  0  0  0  0  0  0  0  0
  -30.1608  -12.1299   23.2615 C   0  0  0  0  0  0  0  0  0  0  0  0
  -22.6431  -29.6327   26.4454 C   0  0  0  0  0  0  0  0  0  0  0  0
  -29.0404  -11.4200   22.4980 C   0  0  0  0  0  0  0  0  0  0  0  0
  -29.8401  -13.6047   23.4976 C   0  0  0  0  0  0  0  0  0  0  0  0
  -28.3599  -13.6526   21.5288 C   0  0  0  0  0  0  0  0  0  0  0  0
  -24.0808  -29.6644   25.9131 C   0  0  1  0  0  0  0  0  0  0  0  0
  -23.9918  -30.7451   22.2720 C   0  0  1  0  0  0  0  0  0  0  0  0
  -28.6664  -12.1801   21.2104 C   0  0  2  0  0  0  0  0  0  0  0  0
  -28.9272  -16.6161   17.9249 C   0  0  0  0  0  0  0  0  0  0  0  0
  -18.9242  -32.1112   16.5750 C   0  0  0  0  0  0  0  0  0  0  0  0
  -19.7760  -28.8509   22.2772 C   0  0  0  0  0  0  0  0  0  0  0  0
  -18.4152  -29.2421   20.2124 C   0  0  0  0  0  0  0  0  0  0  0  0
  -18.7671  -31.0976   21.8422 C   0  0  0  0  0  0  0  0  0  0  0  0
  -22.6847  -32.6771   16.4544 C   0  0  0  0  0  0  0  0  0  0  0  0
  -27.8739  -24.1169   18.5525 C   0  0  0  0  0  0  0  0  0  0  0  0
  -29.1409  -23.3487   18.9120 C   0  0  0  0  0  0  0  0  0  0  0  0
  -27.9872  -25.5905   18.9197 C   0  0  0  0  0  0  0  0  0  1  0  0
  -29.0123  -21.8677   18.5848 C   0  0  0  0  0  0  0  0  0  0  0  0
  -20.6909  -30.3480   20.3831 C   0  0  1  0  0  0  0  0  0  0  0  0
  -20.3171  -32.3002   17.1553 C   0  0  2  0  0  0  0  0  0  0  0  0
  -19.4397  -29.8771   21.1768 C   0  0  0  0  0  0  0  0  0  0  0  0
  -26.5828  -10.8613   21.1814 N   0  0  0  0  0  0  0  0  0  0  0  0
  -27.5238  -11.5078   20.4725 N   0  0  0  0  0  0  0  0  0  0  0  0
  -22.9964  -30.3283   21.2822 N   0  0  0  0  0  0  0  0  0  0  0  0
  -29.4993  -14.2609   22.2334 N   0  0  0  0  0  0  0  0  0  0  0  0
  -28.1693  -12.0737   18.2648 N   0  0  0  0  0  0  0  0  0  0  0  0
  -24.3700   -9.7069   17.6652 N   0  0  0  0  0  0  0  0  0  0  0  0
  -29.8530  -15.8976   20.5725 N   0  0  0  0  0  0  0  0  0  0  0  0
  -24.1404  -30.3881   24.6612 N   0  0  0  0  0  0  0  0  0  0  0  0
  -20.4061  -31.3404   19.3524 N   0  0  0  0  0  0  0  0  0  0  0  0
  -21.2783  -32.4600   16.0277 N   0  3  0  0  0  0  0  0  0  0  0  0
  -26.0533  -10.8307   16.5872 O   0  0  0  0  0  0  0  0  0  0  0  0
  -23.5544  -28.6373   23.2421 O   0  0  0  0  0  0  0  0  0  0  0  0
  -21.4666  -31.9599   21.9409 O   0  0  0  0  0  0  0  0  0  0  0  0
  -21.2481  -30.1108   17.5758 O   0  0  0  0  0  0  0  0  0  0  0  0
  -31.1885  -15.8217   22.4679 O   0  0  0  0  0  0  0  0  0  0  0  0
  -21.2353   -7.4392   21.6734 O   0  0  0  0  0  0  0  0  0  0  0  0
  -26.7763  -26.2674   18.5851 O   0  0  0  0  0  0  0  0  0  1  0  0
  -30.2263  -21.2139   18.9283 O   0  0  0  0  0  0  0  0  0  0  0  0
  -21.8678   -3.4788   25.4576 F   0  0  0  0  0  0  0  0  0  0  0  0
  -31.0850  -20.4458   21.4330 F   0  0  0  0  0  0  0  0  0  0  0  0
  -20.6588   -4.8021   21.0766 F   0  0  0  0  0  0  0  0  0  0  0  0
  1  2  1  0  0  0  0
  1  5  2  0  0  0  0
  2  6  2  0  0  0  0
  3  8  2  0  0  0  0
  3 17  1  0  0  0  0
  4  9  1  0  0  0  0
  4 17  2  0  0  0  0
  5 19  1  0  0  0  0
  6 21  1  0  0  0  0
  7 10  2  0  0  0  0
  7 20  1  0  0  0  0
  8 25  1  0  0  0  0
  9 25  2  0  0  0  0
 10 26  1  0  0  0  0
 11 12  2  0  0  0  0
 11 27  1  0  0  0  0
 12 29  1  0  0  0  0
 13 22  1  0  0  0  0
 13 26  2  0  0  0  0
 14 23  2  0  0  0  0
 14 28  1  0  0  0  0
 15 24  2  0  0  0  0
 15 30  1  0  0  0  0
 16 29  2  0  0  0  0
 16 31  1  0  0  0  0
 17 32  1  0  0  0  0
 18 32  1  0  0  0  0
 18 33  2  0  0  0  0
 18 34  1  0  0  0  0
 19 21  2  0  0  0  0
 19 39  1  0  0  0  0
 20 22  2  0  0  0  0
 20 40  1  0  0  0  0
 21 48  1  0  0  0  0
 22 41  1  0  0  0  0
 23 24  1  0  0  0  0
 23 51  1  0  0  0  0
 24 70  1  0  0  0  0
 25 79  1  0  0  0  0
 26 80  1  0  0  0  0
 27 31  2  0  0  0  0
 27 79  1  0  0  0  0
 28 30  2  0  0  0  0
 28 81  1  0  0  0  0
 29 82  1  0  0  0  0
 30 83  1  0  0  0  0
 31 84  1  0  0  0  0
 32 64  2  0  0  0  0
 33 65  1  0  0  0  0
 33 68  1  0  0  0  0
 34 69  1  0  0  0  0
 34 74  2  0  0  0  0
 35 49  1  0  0  0  0
 35 71  1  0  0  0  0
 35 75  2  0  0  0  0
 36 61  1  0  0  0  0
 36 66  1  0  0  0  0
 36 76  2  0  0  0  0
 37 62  1  0  0  0  0
 37 72  1  0  0  0  0
 37 77  2  0  0  0  0
 38 67  1  0  0  0  0
 38 70  1  0  0  0  0
 38 78  2  0  0  0  0
 39 42  1  0  0  0  0
 40 49  1  0  0  0  0
 41 66  1  0  0  0  0
 42 44  1  0  0  0  0
 43 45  1  0  0  0  0
 43 46  1  0  0  0  0
 44 48  1  0  0  0  0
 45 50  1  0  0  0  0
 46 67  1  0  0  0  0
 47 50  1  0  0  0  0
 47 67  1  0  0  0  0
 48 71  1  0  0  0  0
 49 66  1  0  0  0  0
 50 65  1  0  0  0  0
 52 62  1  0  0  0  0
 53 63  1  0  0  0  0
 54 63  1  0  0  0  0
 55 63  1  0  0  0  0
 56 73  1  0  0  0  0
 57 58  1  0  0  0  0
 57 59  1  0  0  0  0
 58 60  1  0  0  0  0
 59 80  1  0  0  0  0
 60 81  1  0  0  0  0
 61 63  1  0  0  0  0
 61 72  1  0  0  0  0
 62 73  1  0  0  0  0
 64 65  1  0  0  0  0
M  CHG  1  73   1
M  ISO  4  38 100  59 101  70 100  80 101
M  END
> <Batch ID>
0123

> <Smiles>
CNC(C)C(=O)NC(C(=O)N1Cc2cc([101O:1][101CH2:1]CCCOc3cc(C)c([100NH:0][100C:0](=O)N4CCCC(n5nc(-c6ccc(Oc7ccc(F)cc7F)cc6)c(C(N)=O)c5N)C4)cc3F)ccc2CC1C(=O)NC1CCCc2ccccc21)C(C)(C)C

> <Shape>
0.282

> <Color>
0.108

> <Negative vol penalty>
0.000

$$$$

  -OEChem-04052302033D

 87 95  0     1  0  0  0  0  0999 V2000
  -29.8587  -34.7912   27.8473 C   0  0  0  0  0  0  0  0  0  0  0  0
  -30.1372  -33.4670   28.1706 C   0  0  0  0  0  0  0  0  0  0  0  0
  -23.2717   -9.7963   20.1036 C   0  0  0  0  0  0  0  0  0  0  0  0
  -23.7668  -10.1006   22.4487 C   0  0  0  0  0  0  0  0  0  0  0  0
  -29.0342  -35.0839   26.7617 C   0  0  0  0  0  0  0  0  0  0  0  0
  -29.5905  -32.4348   27.4090 C   0  0  0  0  0  0  0  0  0  0  0  0
  -32.2035  -27.0576   26.0809 C   0  0  0  0  0  0  0  0  0  0  0  0
  -22.5350   -8.6516   20.4077 C   0  0  0  0  0  0  0  0  0  0  0  0
  -23.0300   -8.9559   22.7528 C   0  0  0  0  0  0  0  0  0  0  0  0
  -32.0716  -25.7872   26.6397 C   0  0  0  0  0  0  0  0  0  0  0  0
  -19.7766   -8.1065   23.0907 C   0  0  0  0  0  0  0  0  0  0  0  0
  -18.8933   -8.1734   24.1682 C   0  0  0  0  0  0  0  0  0  0  0  0
  -30.9283  -16.8081   24.7019 C   0  0  0  0  0  0  0  0  0  0  0  0
  -30.4558  -25.2149   24.9424 C   0  0  0  0  0  0  0  0  0  0  0  0
  -32.9357  -15.4690   23.3020 C   0  0  0  0  0  0  0  0  0  0  0  0
  -20.0941   -6.3857   25.2634 C   0  0  0  0  0  0  0  0  0  0  0  0
  -23.8876  -10.5208   21.1241 C   0  0  0  0  0  0  0  0  0  0  0  0
  -32.0244  -17.5151   24.2077 C   0  0  0  0  0  0  0  0  0  0  0  0
  -24.1742  -13.0263   20.7393 C   0  0  0  0  0  0  0  0  0  0  0  0
  -28.4849  -34.0549   25.9806 C   0  0  0  0  0  0  0  0  0  0  0  0
  -31.4532  -27.4205   24.9532 C   0  0  0  0  0  0  0  0  0  0  0  0
  -28.7568  -32.7140   26.3128 C   0  0  0  0  0  0  0  0  0  0  0  0
  -30.5820  -26.4897   24.3696 C   0  0  0  0  0  0  0  0  0  0  0  0
  -30.8358  -15.4316   24.4962 C   0  0  0  0  0  0  0  0  0  0  0  0
  -33.0281  -16.8455   23.5077 C   0  0  0  0  0  0  0  0  0  0  0  0
  -31.8395  -14.7620   23.7962 C   0  0  0  0  0  0  0  0  0  0  0  0
  -22.4141   -8.2314   21.7322 C   0  0  0  0  0  0  0  0  0  0  0  0
  -31.1955  -24.8666   26.0723 C   0  0  0  0  0  0  0  0  0  0  0  0
  -20.8185   -7.1792   23.0995 C   0  0  0  0  0  0  0  0  0  0  0  0
  -19.0521   -7.3130   25.2545 C   0  0  0  0  0  0  0  0  0  0  0  0
  -20.9773   -6.3188   24.1859 C   0  0  0  0  0  0  0  0  0  0  0  0
  -24.6493  -11.7030   20.8106 C   0  0  0  0  0  0  0  0  0  0  0  0
  -25.2803  -13.7710   20.4100 C   0  0  0  0  0  0  0  0  0  0  0  0
  -32.0934  -18.9684   24.4413 C   0  0  0  0  0  0  0  0  0  0  0  0
  -32.0949  -19.5457   25.6511 C   0  0  0  0  0  0  0  0  0  0  0  0
  -22.8513  -13.5367   20.9519 C   0  0  0  0  0  0  0  0  0  0  0  0
  -32.1579  -21.0322   25.7806 C   0  0  0  0  0  0  0  0  0  0  0  0
  -29.2510  -29.6291   24.3399 C   0  0  0  0  0  0  0  0  0  0  0  0
  -29.5570  -28.5321   21.3026 C   0  0  0  0  0  0  0  0  0  0  0  0
  -30.4384  -25.9757   19.2206 C   0  0  0  0  0  0  0  0  0  0  0  0
  -31.1544  -12.9102   21.1877 C   0  0  0  0  0  0  0  0  0  0  0  0
  -27.5612  -34.4194   24.8455 C   0  0  0  0  0  0  0  0  0  0  0  0
  -31.6269  -28.7858   24.3464 C   0  0  0  0  0  0  0  0  0  0  0  0
  -29.7688  -26.8230   23.1465 C   0  0  0  0  0  0  0  0  0  0  0  0
  -27.3243  -33.2762   23.8620 C   0  0  0  0  0  0  0  0  0  0  0  0
  -29.4596  -13.4495   18.1033 C   0  0  0  0  0  0  0  0  0  0  0  0
  -27.0212  -31.9821   24.6105 C   0  0  0  0  0  0  0  0  0  0  0  0
  -27.9917  -13.1824   18.4410 C   0  0  0  0  0  0  0  0  0  0  0  0
  -30.3935  -12.5110   18.8643 C   0  0  0  0  0  0  0  0  0  0  0  0
  -28.7335  -12.2308   20.6642 C   0  0  0  0  0  0  0  0  0  0  0  0
  -28.2026  -31.5671   25.4957 C   0  0  1  0  0  0  0  0  0  0  0  0
  -30.4317  -29.2220   23.5045 C   0  0  1  0  0  0  0  0  0  0  0  0
  -27.7562  -13.1899   19.9634 C   0  0  2  0  0  0  0  0  0  0  0  0
  -34.2169  -17.5709   22.9639 C   0  0  0  0  0  0  0  0  0  0  0  0
  -29.7533  -14.4607   26.5387 C   0  0  0  0  0  0  0  0  0  0  0  0
  -30.5430  -25.3619   16.7896 C   0  0  0  0  0  0  0  0  0  0  0  0
  -26.5327  -28.1281   21.2770 C   0  0  0  0  0  0  0  0  0  0  0  0
  -26.8147  -26.6692   19.2619 C   0  0  0  0  0  0  0  0  0  0  0  0
  -27.4771  -29.0722   19.1624 C   0  0  0  0  0  0  0  0  0  0  0  0
  -33.3713  -25.5931   19.3240 C   0  0  0  0  0  0  0  0  0  0  0  0
  -29.6531  -14.6954   25.0345 C   0  0  0  0  0  0  0  0  0  0  0  0
  -31.7622  -13.2887   23.5639 C   0  0  0  0  0  0  0  0  0  0  0  0
  -32.1530  -21.5618   27.2065 C   0  0  0  0  0  0  0  0  0  0  0  0
  -32.2074  -23.0812   27.2741 C   0  0  0  0  0  0  0  0  0  1  0  0
  -28.8946  -27.4495   20.4851 C   0  0  1  0  0  0  0  0  0  0  0  0
  -31.3010  -25.9455   17.9718 C   0  0  2  0  0  0  0  0  0  0  0  0
  -27.4435  -27.8238   20.0708 C   0  0  0  0  0  0  0  0  0  0  0  0
  -25.9554  -11.6093   20.5475 N   0  0  0  0  0  0  0  0  0  0  0  0
  -26.3105  -12.8830   20.3077 N   0  0  0  0  0  0  0  0  0  0  0  0
  -29.9689  -28.1729   22.5938 N   0  0  0  0  0  0  0  0  0  0  0  0
  -30.1195  -12.5667   20.3023 N   0  0  0  0  0  0  0  0  0  0  0  0
  -25.4624  -15.0921   20.2009 N   0  0  0  0  0  0  0  0  0  0  0  0
  -21.8320  -12.6336   21.2835 N   0  0  0  0  0  0  0  0  0  0  0  0
  -29.2468  -30.9645   24.6950 N   0  0  0  0  0  0  0  0  0  0  0  0
  -29.7867  -27.1826   19.3620 N   0  0  0  0  0  0  0  0  0  0  0  0
  -30.8081  -12.9459   22.5329 N   0  0  0  0  0  0  0  0  0  0  0  0
  -32.5190  -25.1186   18.2035 N   0  3  0  0  0  0  0  0  0  0  0  0
  -22.5777  -14.7552   20.8347 O   0  0  0  0  0  0  0  0  0  0  0  0
  -32.2111  -21.7647   24.7965 O   0  0  0  0  0  0  0  0  0  0  0  0
  -28.4056  -28.7939   24.6389 O   0  0  0  0  0  0  0  0  0  0  0  0
  -29.7099  -29.6530   20.8110 O   0  0  0  0  0  0  0  0  0  0  0  0
  -30.3485  -25.0226   19.9913 O   0  0  0  0  0  0  0  0  0  0  0  0
  -32.3007  -13.1713   20.8071 O   0  0  0  0  0  0  0  0  0  0  0  0
  -21.6951   -7.1146   22.0294 O   0  0  0  0  0  0  0  0  0  0  0  0
  -31.0644  -23.6261   26.6162 O   0  0  0  0  0  0  0  0  0  1  0  0
  -18.2047   -7.3784   26.2899 F   0  0  0  0  0  0  0  0  0  0  0  0
  -21.9771   -5.4266   24.2005 F   0  0  0  0  0  0  0  0  0  0  0  0
  1  2  1  0  0  0  0
  1  5  2  0  0  0  0
  2  6  2  0  0  0  0
  3  8  2  0  0  0  0
  3 17  1  0  0  0  0
  4  9  1  0  0  0  0
  4 17  2  0  0  0  0
  5 20  1  0  0  0  0
  6 22  1  0  0  0  0
  7 10  2  0  0  0  0
  7 21  1  0  0  0  0
  8 27  1  0  0  0  0
  9 27  2  0  0  0  0
 10 28  1  0  0  0  0
 11 12  2  0  0  0  0
 11 29  1  0  0  0  0
 12 30  1  0  0  0  0
 13 18  2  0  0  0  0
 13 24  1  0  0  0  0
 14 23  1  0  0  0  0
 14 28  2  0  0  0  0
 15 25  2  0  0  0  0
 15 26  1  0  0  0  0
 16 30  2  0  0  0  0
 16 31  1  0  0  0  0
 17 32  1  0  0  0  0
 18 25  1  0  0  0  0
 18 34  1  0  0  0  0
 19 32  1  0  0  0  0
 19 33  2  0  0  0  0
 19 36  1  0  0  0  0
 20 22  2  0  0  0  0
 20 42  1  0  0  0  0
 21 23  2  0  0  0  0
 21 43  1  0  0  0  0
 22 51  1  0  0  0  0
 23 44  1  0  0  0  0
 24 26  2  0  0  0  0
 24 61  1  0  0  0  0
 25 54  1  0  0  0  0
 26 62  1  0  0  0  0
 27 84  1  0  0  0  0
 28 85  1  0  0  0  0
 29 31  2  0  0  0  0
 29 84  1  0  0  0  0
 30 86  1  0  0  0  0
 31 87  1  0  0  0  0
 32 68  2  0  0  0  0
 33 69  1  0  0  0  0
 33 72  1  0  0  0  0
 34 35  2  0  0  0  0
 35 37  1  0  0  0  0
 36 73  1  0  0  0  0
 36 78  2  0  0  0  0
 37 63  1  0  0  0  0
 37 79  2  0  0  0  0
 38 52  1  0  0  0  0
 38 74  1  0  0  0  0
 38 80  2  0  0  0  0
 39 65  1  0  0  0  0
 39 70  1  0  0  0  0
 39 81  2  0  0  0  0
 40 66  1  0  0  0  0
 40 75  1  0  0  0  0
 40 82  2  0  0  0  0
 41 71  1  0  0  0  0
 41 76  1  0  0  0  0
 41 83  2  0  0  0  0
 42 45  1  0  0  0  0
 43 52  1  0  0  0  0
 44 70  1  0  0  0  0
 45 47  1  0  0  0  0
 46 48  1  0  0  0  0
 46 49  1  0  0  0  0
 47 51  1  0  0  0  0
 48 53  1  0  0  0  0
 49 71  1  0  0  0  0
 50 53  1  0  0  0  0
 50 71  1  0  0  0  0
 51 74  1  0  0  0  0
 52 70  1  0  0  0  0
 53 69  1  0  0  0  0
 55 61  1  0  0  0  0
 56 66  1  0  0  0  0
 57 67  1  0  0  0  0
 58 67  1  0  0  0  0
 59 67  1  0  0  0  0
 60 77  1  0  0  0  0
 62 76  1  0  0  0  0
 63 64  1  0  0  0  0
 64 85  1  0  0  0  0
 65 67  1  0  0  0  0
 65 75  1  0  0  0  0
 66 77  1  0  0  0  0
 68 69  1  0  0  0  0
M  CHG  1  77   1
M  ISO  4  41 100  64 101  76 100  85 101
M  END
> <Batch ID>
0123

> <Smiles>
CCc1cc(C=CC(=O)C[101CH2:1][101O:1]c2ccc3c(c2)CN(C(=O)C(NC(=O)C(C)NC)C(C)(C)C)C(C(=O)NC2CCCc4ccccc42)C3)c(C)cc1C[100NH:0][100C:0](=O)N1CCCC(n2nc(-c3ccc(Oc4ccc(F)cc4F)cc3)c(C(N)=O)c2N)C1

> <Shape>
0.237

> <Color>
0.179

> <Negative vol penalty>
0.000

$$$$

  -OEChem-04052302033D

 82 90  0     1  0  0  0  0  0999 V2000
  -18.0938  -29.5204   22.8876 C   0  0  0  0  0  0  0  0  0  0  0  0
  -19.4490  -29.6603   22.6060 C   0  0  0  0  0  0  0  0  0  0  0  0
  -26.0544  -12.8663   21.4593 C   0  0  0  0  0  0  0  0  0  0  0  0
  -25.9998  -13.2457   19.0739 C   0  0  0  0  0  0  0  0  0  0  0  0
  -17.5760  -28.2669   23.2108 C   0  0  0  0  0  0  0  0  0  0  0  0
  -20.2874  -28.5469   22.6486 C   0  0  0  0  0  0  0  0  0  0  0  0
  -25.1308  -27.4464   19.0659 C   0  0  0  0  0  0  0  0  0  0  0  0
  -24.9047  -12.0826   21.3609 C   0  0  0  0  0  0  0  0  0  0  0  0
  -24.8502  -12.4620   18.9755 C   0  0  0  0  0  0  0  0  0  0  0  0
  -26.5000  -27.6245   19.2588 C   0  0  0  0  0  0  0  0  0  0  0  0
  -22.1907   -9.6860   21.6861 C   0  0  0  0  0  0  0  0  0  0  0  0
  -22.1694   -8.4761   22.3797 C   0  0  0  0  0  0  0  0  0  0  0  0
  -30.4701  -23.7800   25.9615 C   0  0  0  0  0  0  0  0  0  0  0  0
  -30.5243  -25.1858   25.8066 C   0  0  0  0  0  0  0  0  0  0  0  0
  -26.6998  -25.3156   19.9285 C   0  0  0  0  0  0  0  0  0  0  0  0
  -24.0881   -7.7207   21.1207 C   0  0  0  0  0  0  0  0  0  0  0  0
  -26.6019  -13.4479   20.3158 C   0  0  0  0  0  0  0  0  0  0  0  0
  -29.1249  -13.8249   20.3172 C   0  0  0  0  0  0  0  0  0  0  0  0
  -18.4067  -27.1359   23.2480 C   0  0  0  0  0  0  0  0  0  0  0  0
  -24.5329  -26.2024   19.3136 C   0  0  0  0  0  0  0  0  0  0  0  0
  -19.7804  -27.2773   22.9740 C   0  0  0  0  0  0  0  0  0  0  0  0
  -25.3232  -25.1237   19.7354 C   0  0  0  0  0  0  0  0  0  0  0  0
  -24.3026  -11.8804   20.1190 C   0  0  0  0  0  0  0  0  0  0  0  0
  -27.2843  -26.5598   19.6930 C   0  0  0  0  0  0  0  0  0  0  0  0
  -23.1606   -9.9134   20.7098 C   0  0  0  0  0  0  0  0  0  0  0  0
  -23.1181   -7.4934   22.0970 C   0  0  0  0  0  0  0  0  0  0  0  0
  -24.1094   -8.9307   20.4271 C   0  0  0  0  0  0  0  0  0  0  0  0
  -27.7892  -14.2581   20.4168 C   0  0  0  0  0  0  0  0  0  0  0  0
  -29.7892  -23.3010   24.8666 C   0  0  0  0  0  0  0  0  0  0  0  0
  -29.8729  -25.4656   24.6279 C   0  0  0  0  0  0  0  0  0  0  0  0
  -29.8695  -14.9674   20.4810 C   0  0  0  0  0  0  0  0  0  0  0  0
  -29.4812  -21.9530   24.5710 C   0  0  0  0  0  0  0  0  0  0  0  0
  -28.8185  -21.4834   23.4628 C   0  0  0  0  0  0  0  0  0  0  0  0
  -30.5481  -26.9983   22.7693 C   0  0  0  0  0  0  0  0  0  0  0  0
  -29.6460  -12.5076   20.0962 C   0  0  0  0  0  0  0  0  0  0  0  0
  -30.4112  -26.6746   21.4687 C   0  0  0  0  0  0  0  0  0  0  0  0
  -28.5804  -20.0361   23.2916 C   0  0  0  0  0  0  0  0  0  0  0  0
  -22.3010  -25.1451   21.3148 C   0  0  0  0  0  0  0  0  0  0  0  0
  -22.6450  -22.3952   19.6288 C   0  0  0  0  0  0  0  0  0  0  0  0
  -24.6162  -20.4422   17.6422 C   0  0  0  0  0  0  0  0  0  0  0  0
  -17.8101  -25.8099   23.6488 C   0  0  0  0  0  0  0  0  0  0  0  0
  -23.0591  -26.0195   19.0750 C   0  0  0  0  0  0  0  0  0  0  0  0
  -24.7333  -23.7626   19.9960 C   0  0  0  0  0  0  0  0  0  0  0  0
  -18.6960  -24.6149   23.3058 C   0  0  0  0  0  0  0  0  0  0  0  0
  -29.6975  -19.6882   19.8184 C   0  0  0  0  0  0  0  0  0  0  0  0
  -20.1373  -24.8799   23.7293 C   0  0  0  0  0  0  0  0  0  0  0  0
  -29.4061  -18.2119   19.5627 C   0  0  0  0  0  0  0  0  0  0  0  0
  -28.6698  -20.3197   20.7563 C   0  0  0  0  0  0  0  0  0  0  0  0
  -28.2227  -18.1135   21.7921 C   0  0  0  0  0  0  0  0  0  0  0  0
  -20.7174  -26.0890   22.9856 C   0  0  1  0  0  0  0  0  0  0  0  0
  -22.4691  -24.8465   19.8518 C   0  0  1  0  0  0  0  0  0  0  0  0
  -29.2712  -17.4461   20.8884 C   0  0  1  0  0  0  0  0  0  0  0  0
  -31.4927  -27.0344   20.4824 C   0  0  0  0  0  0  0  0  0  0  0  0
  -24.6384  -18.2329   16.4522 C   0  0  0  0  0  0  0  0  0  0  0  0
  -23.1113  -20.9711   22.2867 C   0  0  0  0  0  0  0  0  0  0  0  0
  -24.0477  -19.0348   21.0052 C   0  0  0  0  0  0  0  0  0  0  0  0
  -21.6721  -19.7181   20.6702 C   0  0  0  0  0  0  0  0  0  0  0  0
  -24.9348  -21.7372   15.0001 C   0  0  0  0  0  0  0  0  0  0  0  0
  -29.5790  -26.7480   23.8905 C   0  0  0  0  0  0  0  0  0  0  0  0
  -29.2429  -25.9274   20.8846 C   0  0  0  0  0  0  0  0  0  1  0  0
  -23.5222  -21.1722   19.7457 C   0  0  1  0  0  0  0  0  0  0  0  0
  -24.3293  -19.7177   16.3394 C   0  0  2  0  0  0  0  0  0  0  0  0
  -23.0994  -20.2501   20.9240 C   0  0  0  0  0  0  0  0  0  0  0  0
  -27.6879  -15.5731   20.6278 N   0  0  0  0  0  0  0  0  0  0  0  0
  -28.9695  -15.9760   20.6622 N   0  0  0  0  0  0  0  0  0  0  0  0
  -28.5161  -19.5371   21.9918 N   0  0  0  0  0  0  0  0  0  0  0  0
  -23.2866  -23.6356   19.7543 N   0  0  0  0  0  0  0  0  0  0  0  0
  -31.1997  -15.1975   20.4865 N   0  0  0  0  0  0  0  0  0  0  0  0
  -28.7415  -11.4472   19.9489 N   0  0  0  0  0  0  0  0  0  0  0  0
  -21.0871  -25.7222   21.6354 N   0  0  0  0  0  0  0  0  0  0  0  0
  -23.4940  -20.5233   18.4393 N   0  0  0  0  0  0  0  0  0  0  0  0
  -25.1549  -20.2873   15.2372 N   0  3  0  0  0  0  0  0  0  0  0  0
  -30.8778  -12.2751   20.0475 O   0  0  0  0  0  0  0  0  0  0  0  0
  -28.4479  -19.3571   24.3114 O   0  0  0  0  0  0  0  0  0  0  0  0
  -23.2052  -24.8708   22.0952 O   0  0  0  0  0  0  0  0  0  0  0  0
  -21.4362  -22.2554   19.4263 O   0  0  0  0  0  0  0  0  0  0  0  0
  -25.7258  -20.8880   17.9260 O   0  0  0  0  0  0  0  0  0  0  0  0
  -29.4218  -24.3220   24.0487 O   0  0  0  0  0  0  0  0  0  0  0  0
  -23.1809  -11.1155   20.0226 O   0  0  0  0  0  0  0  0  0  0  0  0
  -28.6209  -26.7310   19.8828 O   0  0  0  0  0  0  0  0  0  1  0  0
  -23.0984   -6.3321   22.7642 F   0  0  0  0  0  0  0  0  0  0  0  0
  -25.0444   -9.1438   19.4911 F   0  0  0  0  0  0  0  0  0  0  0  0
  1  2  1  0  0  0  0
  1  5  2  0  0  0  0
  2  6  2  0  0  0  0
  3  8  2  0  0  0  0
  3 17  1  0  0  0  0
  4  9  1  0  0  0  0
  4 17  2  0  0  0  0
  5 19  1  0  0  0  0
  6 21  1  0  0  0  0
  7 10  2  0  0  0  0
  7 20  1  0  0  0  0
  8 23  1  0  0  0  0
  9 23  2  0  0  0  0
 10 24  1  0  0  0  0
 11 12  2  0  0  0  0
 11 25  1  0  0  0  0
 12 26  1  0  0  0  0
 13 14  1  0  0  0  0
 13 29  2  0  0  0  0
 14 30  2  0  0  0  0
 15 22  1  0  0  0  0
 15 24  2  0  0  0  0
 16 26  2  0  0  0  0
 16 27  1  0  0  0  0
 17 28  1  0  0  0  0
 18 28  1  0  0  0  0
 18 31  2  0  0  0  0
 18 35  1  0  0  0  0
 19 21  2  0  0  0  0
 19 41  1  0  0  0  0
 20 22  2  0  0  0  0
 20 42  1  0  0  0  0
 21 50  1  0  0  0  0
 22 43  1  0  0  0  0
 23 79  1  0  0  0  0
 24 80  1  0  0  0  0
 25 27  2  0  0  0  0
 25 79  1  0  0  0  0
 26 81  1  0  0  0  0
 27 82  1  0  0  0  0
 28 64  2  0  0  0  0
 29 32  1  0  0  0  0
 29 78  1  0  0  0  0
 30 59  1  0  0  0  0
 30 78  1  0  0  0  0
 31 65  1  0  0  0  0
 31 68  1  0  0  0  0
 32 33  2  0  0  0  0
 33 37  1  0  0  0  0
 34 36  2  0  0  0  0
 34 59  1  0  0  0  0
 35 69  1  0  0  0  0
 35 73  2  0  0  0  0
 36 53  1  0  0  0  0
 36 60  1  0  0  0  0
 37 66  1  0  0  0  0
 37 74  2  0  0  0  0
 38 51  1  0  0  0  0
 38 70  1  0  0  0  0
 38 75  2  0  0  0  0
 39 61  1  0  0  0  0
 39 67  1  0  0  0  0
 39 76  2  0  0  0  0
 40 62  1  0  0  0  0
 40 71  1  0  0  0  0
 40 77  2  0  0  0  0
 41 44  1  0  0  0  0
 42 51  1  0  0  0  0
 43 67  1  0  0  0  0
 44 46  1  0  0  0  0
 45 47  1  0  0  0  0
 45 48  1  0  0  0  0
 46 50  1  0  0  0  0
 47 52  1  0  0  0  0
 48 66  1  0  0  0  0
 49 52  1  0  0  0  0
 49 66  1  0  0  0  0
 50 70  1  0  0  0  0
 51 67  1  0  0  0  0
 52 65  1  0  0  0  0
 54 62  1  0  0  0  0
 55 63  1  0  0  0  0
 56 63  1  0  0  0  0
 57 63  1  0  0  0  0
 58 72  1  0  0  0  0
 60 80  1  0  0  0  0
 61 63  1  0  0  0  0
 61 71  1  0  0  0  0
 62 72  1  0  0  0  0
 64 65  1  0  0  0  0
M  CHG  1  72   1
M  ISO  4  33 100  37 100  60 101  80 101
M  END
> <Batch ID>
0123

> <Smiles>
CNC(C)C(=O)NC(C(=O)N1Cc2cc([101O:1][101CH2:1]C(C)=CCc3ccc(C=[100CH:0][100C:0](=O)N4CCCC(n5nc(-c6ccc(Oc7ccc(F)cc7F)cc6)c(C(N)=O)c5N)C4)o3)ccc2CC1C(=O)NC1CCCc2ccccc21)C(C)(C)C

> <Shape>
0.227

> <Color>
0.067

> <Negative vol penalty>
0.000

$$$$

  -OEChem-04052302033D

 84 92  0     1  0  0  0  0  0999 V2000
  -28.4220  -37.7607   24.4256 C   0  0  0  0  0  0  0  0  0  0  0  0
  -28.8694  -36.6377   23.7370 C   0  0  0  0  0  0  0  0  0  0  0  0
  -25.9581  -11.7592   21.3369 C   0  0  0  0  0  0  0  0  0  0  0  0
  -25.9892  -12.0809   18.9426 C   0  0  0  0  0  0  0  0  0  0  0  0
  -28.4220  -21.0144   14.5709 C   0  0  0  0  0  0  0  0  0  0  0  0
  -27.3874  -37.6423   25.3527 C   0  0  0  0  0  0  0  0  0  0  0  0
  -28.2831  -35.3953   23.9760 C   0  0  0  0  0  0  0  0  0  0  0  0
  -27.3555  -30.9177   19.9021 C   0  0  0  0  0  0  0  0  0  0  0  0
  -28.6335  -19.6405   14.4550 C   0  0  0  0  0  0  0  0  0  0  0  0
  -24.7277  -11.1103   21.2337 C   0  0  0  0  0  0  0  0  0  0  0  0
  -24.7588  -11.4320   18.8394 C   0  0  0  0  0  0  0  0  0  0  0  0
  -28.0662  -29.7547   19.6084 C   0  0  0  0  0  0  0  0  0  0  0  0
  -23.5920   -8.0490   20.3555 C   0  0  0  0  0  0  0  0  0  0  0  0
  -23.4209   -6.8657   21.0740 C   0  0  0  0  0  0  0  0  0  0  0  0
  -28.8620  -20.8820   16.9428 C   0  0  0  0  0  0  0  0  0  0  0  0
  -26.5960  -28.4991   21.0510 C   0  0  0  0  0  0  0  0  0  0  0  0
  -21.5796   -7.8635   22.2787 C   0  0  0  0  0  0  0  0  0  0  0  0
  -26.5889  -12.2446   20.1913 C   0  0  0  0  0  0  0  0  0  0  0  0
  -28.5363  -21.6351   15.8148 C   0  0  0  0  0  0  0  0  0  0  0  0
  -29.1381  -12.3295   20.2349 C   0  0  0  0  0  0  0  0  0  0  0  0
  -26.7816  -36.3995   25.5960 C   0  0  0  0  0  0  0  0  0  0  0  0
  -26.2645  -30.8819   20.7825 C   0  0  0  0  0  0  0  0  0  0  0  0
  -27.2403  -35.2599   24.9081 C   0  0  0  0  0  0  0  0  0  0  0  0
  -25.8715  -29.6625   21.3523 C   0  0  0  0  0  0  0  0  0  0  0  0
  -28.9592  -18.8874   15.5830 C   0  0  0  0  0  0  0  0  0  0  0  0
  -29.0734  -19.5081   16.8269 C   0  0  0  0  0  0  0  0  0  0  0  0
  -24.1281  -10.9467   19.9850 C   0  0  0  0  0  0  0  0  0  0  0  0
  -27.6883  -28.5457   20.1851 C   0  0  0  0  0  0  0  0  0  0  0  0
  -22.7570   -9.1395   20.5987 C   0  0  0  0  0  0  0  0  0  0  0  0
  -22.4147   -6.7730   22.0356 C   0  0  0  0  0  0  0  0  0  0  0  0
  -21.7508   -9.0468   21.5602 C   0  0  0  0  0  0  0  0  0  0  0  0
  -27.8596  -12.9155   20.2973 C   0  0  0  0  0  0  0  0  0  0  0  0
  -30.0064  -13.3828   20.3869 C   0  0  0  0  0  0  0  0  0  0  0  0
  -28.3131  -23.0870   15.9355 C   0  0  0  0  0  0  0  0  0  0  0  0
  -28.7554  -23.8425   16.9555 C   0  0  0  0  0  0  0  0  0  0  0  0
  -29.0680  -25.8851   18.2172 C   0  0  0  0  0  0  0  0  0  0  0  0
  -29.5078  -10.9558   20.0556 C   0  0  0  0  0  0  0  0  0  0  0  0
  -28.5501  -25.2850   17.1248 C   0  0  0  0  0  0  0  0  0  0  0  0
  -25.5992  -32.2250   23.5855 C   0  0  0  0  0  0  0  0  0  0  0  0
  -22.6931  -30.8658   23.1068 C   0  0  0  0  0  0  0  0  0  0  0  0
  -20.8488  -28.4310   21.5845 C   0  0  0  0  0  0  0  0  0  0  0  0
  -29.5532  -19.2382   19.2852 C   0  0  0  0  0  0  0  0  0  0  0  0
  -25.6985  -36.3123   26.6420 C   0  0  0  0  0  0  0  0  0  0  0  0
  -25.4918  -32.1404   21.0682 C   0  0  0  0  0  0  0  0  0  0  0  0
  -24.6951  -29.5670   22.2879 C   0  0  0  0  0  0  0  0  0  0  0  0
  -24.8779  -35.0275   26.5634 C   0  0  0  0  0  0  0  0  0  0  0  0
  -30.3237  -17.7125   22.4086 C   0  0  0  0  0  0  0  0  0  0  0  0
  -25.7942  -33.8170   26.4157 C   0  0  0  0  0  0  0  0  0  0  0  0
  -29.9013  -16.2545   22.2139 C   0  0  0  0  0  0  0  0  0  0  0  0
  -29.3751  -18.6774   21.6995 C   0  0  0  0  0  0  0  0  0  0  0  0
  -28.7283  -16.9358   20.0815 C   0  0  0  0  0  0  0  0  0  0  0  0
  -26.6129  -33.8994   25.1217 C   0  0  1  0  0  0  0  0  0  0  0  0
  -24.7147  -32.0797   22.3796 C   0  0  1  0  0  0  0  0  0  0  0  0
  -29.6905  -15.9231   20.7235 C   0  0  2  0  0  0  0  0  0  0  0  0
  -29.1789  -17.4173   15.4294 C   0  0  0  0  0  0  0  0  0  0  0  0
  -27.7715  -26.0077   16.0567 C   0  0  0  0  0  0  0  0  0  0  0  0
  -18.5049  -27.5506   21.4160 C   0  0  0  0  0  0  0  0  0  0  0  0
  -22.9824  -29.5760   25.8568 C   0  0  0  0  0  0  0  0  0  0  0  0
  -21.1314  -28.0074   25.2389 C   0  0  0  0  0  0  0  0  0  0  0  0
  -20.6979  -30.4613   25.3549 C   0  0  0  0  0  0  0  0  0  0  0  0
  -20.7350  -28.9612   18.6751 C   0  0  0  0  0  0  0  0  0  0  0  0
  -28.9929  -27.3265   18.6143 C   0  0  0  0  0  0  0  0  0  1  0  0
  -22.0675  -29.5336   23.4429 C   0  0  1  0  0  0  0  0  0  0  0  0
  -19.5402  -28.4899   20.8173 C   0  0  2  0  0  0  0  0  0  0  0  0
  -21.7432  -29.3964   24.9573 C   0  0  0  0  0  0  0  0  0  0  0  0
  -27.9069  -14.2384   20.4751 N   0  0  0  0  0  0  0  0  0  0  0  0
  -29.2256  -14.4924   20.5260 N   0  0  0  0  0  0  0  0  0  0  0  0
  -23.9753  -30.8261   22.5410 N   0  0  0  0  0  0  0  0  0  0  0  0
  -29.2273  -18.3040   20.2911 N   0  0  0  0  0  0  0  0  0  0  0  0
  -31.3539  -13.4588   20.4139 N   0  0  0  0  0  0  0  0  0  0  0  0
  -28.4898  -10.0028   19.9151 N   0  0  0  0  0  0  0  0  0  0  0  0
  -29.4041  -18.7599   17.9839 N   0  0  0  0  0  0  0  0  0  0  0  0
  -25.7974  -33.5334   23.9835 N   0  0  0  0  0  0  0  0  0  0  0  0
  -20.9078  -29.3950   22.5685 N   0  0  0  0  0  0  0  0  0  0  0  0
  -19.7565  -28.1051   19.3939 N   0  3  0  0  0  0  0  0  0  0  0  0
  -30.7051  -10.5823   20.0374 O   0  0  0  0  0  0  0  0  0  0  0  0
  -26.0660  -31.2241   24.1166 O   0  0  0  0  0  0  0  0  0  0  0  0
  -22.0642  -31.9030   23.3311 O   0  0  0  0  0  0  0  0  0  0  0  0
  -21.7289  -27.6092   21.3381 O   0  0  0  0  0  0  0  0  0  0  0  0
  -29.9623  -20.3696   19.5583 O   0  0  0  0  0  0  0  0  0  0  0  0
  -22.9276  -10.3133   19.8840 O   0  0  0  0  0  0  0  0  0  0  0  0
  -28.3806  -27.4093   19.9007 O   0  0  0  0  0  0  0  0  0  1  0  0
  -22.2496   -5.6361   22.7244 F   0  0  0  0  0  0  0  0  0  0  0  0
  -20.9447  -10.0907   21.7974 F   0  0  0  0  0  0  0  0  0  0  0  0
  1  2  1  0  0  0  0
  1  6  2  0  0  0  0
  2  7  2  0  0  0  0
  3 10  2  0  0  0  0
  3 18  1  0  0  0  0
  4 11  1  0  0  0  0
  4 18  2  0  0  0  0
  5  9  2  0  0  0  0
  5 19  1  0  0  0  0
  6 21  1  0  0  0  0
  7 23  1  0  0  0  0
  8 12  2  0  0  0  0
  8 22  1  0  0  0  0
  9 25  1  0  0  0  0
 10 27  1  0  0  0  0
 11 27  2  0  0  0  0
 12 28  1  0  0  0  0
 13 14  2  0  0  0  0
 13 29  1  0  0  0  0
 14 30  1  0  0  0  0
 15 19  2  0  0  0  0
 15 26  1  0  0  0  0
 16 24  1  0  0  0  0
 16 28  2  0  0  0  0
 17 30  2  0  0  0  0
 17 31  1  0  0  0  0
 18 32  1  0  0  0  0
 19 34  1  0  0  0  0
 20 32  1  0  0  0  0
 20 33  2  0  0  0  0
 20 37  1  0  0  0  0
 21 23  2  0  0  0  0
 21 43  1  0  0  0  0
 22 24  2  0  0  0  0
 22 44  1  0  0  0  0
 23 52  1  0  0  0  0
 24 45  1  0  0  0  0
 25 26  2  0  0  0  0
 25 55  1  0  0  0  0
 26 72  1  0  0  0  0
 27 81  1  0  0  0  0
 28 82  1  0  0  0  0
 29 31  2  0  0  0  0
 29 81  1  0  0  0  0
 30 83  1  0  0  0  0
 31 84  1  0  0  0  0
 32 66  2  0  0  0  0
 33 67  1  0  0  0  0
 33 70  1  0  0  0  0
 34 35  2  0  0  0  0
 35 38  1  0  0  0  0
 36 38  2  0  0  0  0
 36 62  1  0  0  0  0
 37 71  1  0  0  0  0
 37 76  2  0  0  0  0
 38 56  1  0  0  0  0
 39 53  1  0  0  0  0
 39 73  1  0  0  0  0
 39 77  2  0  0  0  0
 40 63  1  0  0  0  0
 40 68  1  0  0  0  0
 40 78  2  0  0  0  0
 41 64  1  0  0  0  0
 41 74  1  0  0  0  0
 41 79  2  0  0  0  0
 42 69  1  0  0  0  0
 42 72  1  0  0  0  0
 42 80  2  0  0  0  0
 43 46  1  0  0  0  0
 44 53  1  0  0  0  0
 45 68  1  0  0  0  0
 46 48  1  0  0  0  0
 47 49  1  0  0  0  0
 47 50  1  0  0  0  0
 48 52  1  0  0  0  0
 49 54  1  0  0  0  0
 50 69  1  0  0  0  0
 51 54  1  0  0  0  0
 51 69  1  0  0  0  0
 52 73  1  0  0  0  0
 53 68  1  0  0  0  0
 54 67  1  0  0  0  0
 57 64  1  0  0  0  0
 58 65  1  0  0  0  0
 59 65  1  0  0  0  0
 60 65  1  0  0  0  0
 61 75  1  0  0  0  0
 62 82  1  0  0  0  0
 63 65  1  0  0  0  0
 63 74  1  0  0  0  0
 64 75  1  0  0  0  0
 66 67  1  0  0  0  0
M  CHG  1  75   1
M  ISO  4  42 100  62 101  72 100  82 101
M  END
> <Batch ID>
0123

> <Smiles>
CNC(C)C(=O)NC(C(=O)N1Cc2cc([101O:1][101CH2:1]C=C(C)C=Cc3ccc(C)c([100NH:0][100C:0](=O)N4CCCC(n5nc(-c6ccc(Oc7ccc(F)cc7F)cc6)c(C(N)=O)c5N)C4)c3)ccc2CC1C(=O)NC1CCCc2ccccc21)C(C)(C)C

> <Shape>
0.326

> <Color>
0.079

> <Negative vol penalty>
0.000

$$$$

  -OEChem-04052302033D

 86 94  0     1  0  0  0  0  0999 V2000
  -28.8169  -37.5398   22.5150 C   0  0  0  0  0  0  0  0  0  0  0  0
  -28.9431  -36.5855   21.5107 C   0  0  0  0  0  0  0  0  0  0  0  0
  -24.6554   -8.9535   21.8427 C   0  0  0  0  0  0  0  0  0  0  0  0
  -23.4726   -9.6960   19.8712 C   0  0  0  0  0  0  0  0  0  0  0  0
  -28.4598  -37.1495   23.8050 C   0  0  0  0  0  0  0  0  0  0  0  0
  -28.7134  -35.2401   21.7960 C   0  0  0  0  0  0  0  0  0  0  0  0
  -26.1858  -29.2484   18.7915 C   0  0  0  0  0  0  0  0  0  0  0  0
  -23.6383   -8.0364   22.1075 C   0  0  0  0  0  0  0  0  0  0  0  0
  -22.4555   -8.7788   20.1360 C   0  0  0  0  0  0  0  0  0  0  0  0
  -26.5444  -27.9189   18.5731 C   0  0  0  0  0  0  0  0  0  0  0  0
  -22.6749   -4.9938   20.9906 C   0  0  0  0  0  0  0  0  0  0  0  0
  -23.0474   -3.6979   21.3474 C   0  0  0  0  0  0  0  0  0  0  0  0
  -28.0223  -18.8790   17.0538 C   0  0  0  0  0  0  0  0  0  0  0  0
  -25.8555  -27.3705   20.8190 C   0  0  0  0  0  0  0  0  0  0  0  0
  -29.0492  -17.6036   14.7952 C   0  0  0  0  0  0  0  0  0  0  0  0
  -21.9012   -3.9499   23.4592 C   0  0  0  0  0  0  0  0  0  0  0  0
  -24.5725   -9.7834   20.7246 C   0  0  0  0  0  0  0  0  0  0  0  0
  -28.2757  -19.6113   15.8941 C   0  0  0  0  0  0  0  0  0  0  0  0
  -26.7790  -10.5190   19.6768 C   0  0  0  0  0  0  0  0  0  0  0  0
  -28.2161  -35.7997   24.1041 C   0  0  0  0  0  0  0  0  0  0  0  0
  -25.6687  -29.6518   20.0310 C   0  0  0  0  0  0  0  0  0  0  0  0
  -28.3540  -34.8312   23.0915 C   0  0  0  0  0  0  0  0  0  0  0  0
  -25.4888  -28.7052   21.0497 C   0  0  0  0  0  0  0  0  0  0  0  0
  -28.7891  -18.9737   14.7648 C   0  0  0  0  0  0  0  0  0  0  0  0
  -28.7959  -16.8712   15.9550 C   0  0  0  0  0  0  0  0  0  0  0  0
  -28.2825  -17.5089   17.0843 C   0  0  0  0  0  0  0  0  0  0  0  0
  -22.5384   -7.9490   21.2541 C   0  0  0  0  0  0  0  0  0  0  0  0
  -26.3820  -26.9803   19.5879 C   0  0  0  0  0  0  0  0  0  0  0  0
  -21.9156   -5.7679   21.8681 C   0  0  0  0  0  0  0  0  0  0  0  0
  -22.6606   -3.1759   22.5817 C   0  0  0  0  0  0  0  0  0  0  0  0
  -21.5288   -5.2459   23.1024 C   0  0  0  0  0  0  0  0  0  0  0  0
  -25.6225  -10.7313   20.4509 C   0  0  0  0  0  0  0  0  0  0  0  0
  -27.4491  -11.7169   19.7249 C   0  0  0  0  0  0  0  0  0  0  0  0
  -27.9914  -21.0560   15.8933 C   0  0  0  0  0  0  0  0  0  0  0  0
  -28.5341  -21.9522   16.7325 C   0  0  0  0  0  0  0  0  0  0  0  0
  -27.2090   -9.3439   18.9768 C   0  0  0  0  0  0  0  0  0  0  0  0
  -26.5966  -31.6798   22.2959 C   0  0  0  0  0  0  0  0  0  0  0  0
  -27.6210  -23.8801   18.0224 C   0  0  0  0  0  0  0  0  0  0  0  0
  -23.7123  -30.9485   23.5875 C   0  0  0  0  0  0  0  0  0  0  0  0
  -21.1318  -28.7300   23.8451 C   0  0  0  0  0  0  0  0  0  0  0  0
  -27.5080  -17.2788   19.4705 C   0  0  0  0  0  0  0  0  0  0  0  0
  -27.8788  -35.4203   25.5242 C   0  0  0  0  0  0  0  0  0  0  0  0
  -25.2617  -31.0844   20.2417 C   0  0  0  0  0  0  0  0  0  0  0  0
  -24.9189  -29.0831   22.3917 C   0  0  0  0  0  0  0  0  0  0  0  0
  -27.2872  -34.0192   25.6562 C   0  0  0  0  0  0  0  0  0  0  0  0
  -26.6810  -15.8076   22.6055 C   0  0  0  0  0  0  0  0  0  0  0  0
  -28.1054  -33.0161   24.8493 C   0  0  0  0  0  0  0  0  0  0  0  0
  -26.4270  -14.3383   22.2608 C   0  0  0  0  0  0  0  0  0  0  0  0
  -26.1845  -16.7426   21.5041 C   0  0  0  0  0  0  0  0  0  0  0  0
  -26.4317  -14.9681   19.8132 C   0  0  0  0  0  0  0  0  0  0  0  0
  -28.0890  -33.3649   23.3561 C   0  0  1  0  0  0  0  0  0  0  0  0
  -25.2254  -31.4849   21.7133 C   0  0  1  0  0  0  0  0  0  0  0  0
  -26.9734  -13.9847   20.8636 C   0  0  2  0  0  0  0  0  0  0  0  0
  -29.0833  -15.4048   15.9591 C   0  0  0  0  0  0  0  0  0  0  0  0
  -30.5622  -20.0020   13.3207 C   0  0  0  0  0  0  0  0  0  0  0  0
  -18.9331  -28.3920   25.0065 C   0  0  0  0  0  0  0  0  0  0  0  0
  -25.1850  -30.2468   26.1660 C   0  0  0  0  0  0  0  0  0  0  0  0
  -23.1262  -29.0465   26.9331 C   0  0  0  0  0  0  0  0  0  0  0  0
  -23.0463  -31.5008   26.4943 C   0  0  0  0  0  0  0  0  0  0  0  0
  -19.6591  -28.6361   21.2797 C   0  0  0  0  0  0  0  0  0  0  0  0
  -29.0735  -19.7270   13.5051 C   0  0  0  0  0  0  0  0  0  0  0  0
  -28.2086  -23.4141   16.6978 C   0  0  0  0  0  0  0  0  0  0  0  0
  -27.2589  -25.3513   18.0934 C   0  0  0  0  0  0  0  0  0  1  0  0
  -23.2054  -29.8978   24.5457 C   0  0  1  0  0  0  0  0  0  0  0  0
  -19.6280  -28.9199   23.7610 C   0  0  2  0  0  0  0  0  0  0  0  0
  -23.6533  -30.1659   26.0102 C   0  0  0  0  0  0  0  0  0  0  0  0
  -25.5585  -11.9670   20.9540 N   0  0  0  0  0  0  0  0  0  0  0  0
  -26.6833  -12.5418   20.4951 N   0  0  0  0  0  0  0  0  0  0  0  0
  -24.5419  -30.4973   22.5511 N   0  0  0  0  0  0  0  0  0  0  0  0
  -26.7465  -16.3494   20.2101 N   0  0  0  0  0  0  0  0  0  0  0  0
  -28.6129  -12.1346   19.1831 N   0  0  0  0  0  0  0  0  0  0  0  0
  -26.4009   -8.2001   19.0318 N   0  0  0  0  0  0  0  0  0  0  0  0
  -28.0182  -16.7819   18.2715 N   0  0  0  0  0  0  0  0  0  0  0  0
  -26.8354  -32.9605   22.7564 N   0  0  0  0  0  0  0  0  0  0  0  0
  -21.7590  -29.8431   24.3637 N   0  0  0  0  0  0  0  0  0  0  0  0
  -19.0804  -28.2001   22.5766 N   0  3  0  0  0  0  0  0  0  0  0  0
  -28.2864   -9.3041   18.3355 O   0  0  0  0  0  0  0  0  0  0  0  0
  -27.3795  -30.7375   22.3267 O   0  0  0  0  0  0  0  0  0  0  0  0
  -27.4323  -23.1231   18.9739 O   0  0  0  0  0  0  0  0  0  0  0  0
  -23.3785  -32.1251   23.7482 O   0  0  0  0  0  0  0  0  0  0  0  0
  -21.6936  -27.6962   23.4899 O   0  0  0  0  0  0  0  0  0  0  0  0
  -27.7167  -18.4222   19.8841 O   0  0  0  0  0  0  0  0  0  0  0  0
  -21.5459   -7.0540   21.5121 O   0  0  0  0  0  0  0  0  0  0  0  0
  -26.7318  -25.6821   19.3776 O   0  0  0  0  0  0  0  0  0  1  0  0
  -23.0170   -1.9308   22.9235 F   0  0  0  0  0  0  0  0  0  0  0  0
  -20.7982   -5.9843   23.9491 F   0  0  0  0  0  0  0  0  0  0  0  0
  1  2  1  0  0  0  0
  1  5  2  0  0  0  0
  2  6  2  0  0  0  0
  3  8  2  0  0  0  0
  3 17  1  0  0  0  0
  4  9  1  0  0  0  0
  4 17  2  0  0  0  0
  5 20  1  0  0  0  0
  6 22  1  0  0  0  0
  7 10  2  0  0  0  0
  7 21  1  0  0  0  0
  8 27  1  0  0  0  0
  9 27  2  0  0  0  0
 10 28  1  0  0  0  0
 11 12  2  0  0  0  0
 11 29  1  0  0  0  0
 12 30  1  0  0  0  0
 13 18  1  0  0  0  0
 13 26  2  0  0  0  0
 14 23  1  0  0  0  0
 14 28  2  0  0  0  0
 15 24  1  0  0  0  0
 15 25  2  0  0  0  0
 16 30  2  0  0  0  0
 16 31  1  0  0  0  0
 17 32  1  0  0  0  0
 18 24  2  0  0  0  0
 18 34  1  0  0  0  0
 19 32  1  0  0  0  0
 19 33  2  0  0  0  0
 19 36  1  0  0  0  0
 20 22  2  0  0  0  0
 20 42  1  0  0  0  0
 21 23  2  0  0  0  0
 21 43  1  0  0  0  0
 22 51  1  0  0  0  0
 23 44  1  0  0  0  0
 24 61  1  0  0  0  0
 25 26  1  0  0  0  0
 25 54  1  0  0  0  0
 26 73  1  0  0  0  0
 27 83  1  0  0  0  0
 28 84  1  0  0  0  0
 29 31  2  0  0  0  0
 29 83  1  0  0  0  0
 30 85  1  0  0  0  0
 31 86  1  0  0  0  0
 32 67  2  0  0  0  0
 33 68  1  0  0  0  0
 33 71  1  0  0  0  0
 34 35  2  0  0  0  0
 35 62  1  0  0  0  0
 36 72  1  0  0  0  0
 36 77  2  0  0  0  0
 37 52  1  0  0  0  0
 37 74  1  0  0  0  0
 37 78  2  0  0  0  0
 38 62  1  0  0  0  0
 38 63  1  0  0  0  0
 38 79  2  0  0  0  0
 39 64  1  0  0  0  0
 39 69  1  0  0  0  0
 39 80  2  0  0  0  0
 40 65  1  0  0  0  0
 40 75  1  0  0  0  0
 40 81  2  0  0  0  0
 41 70  1  0  0  0  0
 41 73  1  0  0  0  0
 41 82  2  0  0  0  0
 42 45  1  0  0  0  0
 43 52  1  0  0  0  0
 44 69  1  0  0  0  0
 45 47  1  0  0  0  0
 46 48  1  0  0  0  0
 46 49  1  0  0  0  0
 47 51  1  0  0  0  0
 48 53  1  0  0  0  0
 49 70  1  0  0  0  0
 50 53  1  0  0  0  0
 50 70  1  0  0  0  0
 51 74  1  0  0  0  0
 52 69  1  0  0  0  0
 53 68  1  0  0  0  0
 55 61  1  0  0  0  0
 56 65  1  0  0  0  0
 57 66  1  0  0  0  0
 58 66  1  0  0  0  0
 59 66  1  0  0  0  0
 60 76  1  0  0  0  0
 63 84  1  0  0  0  0
 64 66  1  0  0  0  0
 64 75  1  0  0  0  0
 65 76  1  0  0  0  0
 67 68  1  0  0  0  0
M  CHG  1  76   1
M  ISO  4  41 100  63 101  73 100  84 101
M  END
> <Batch ID>
0123

> <Smiles>
CCc1cc(C)c([100NH:0][100C:0](=O)N2CCCC(n3nc(-c4ccc(Oc5ccc(F)cc5F)cc4)c(C(N)=O)c3N)C2)cc1C=CCC(=O)[101CH2:1][101O:1]c1ccc2c(c1)CN(C(=O)C(NC(=O)C(C)NC)C(C)(C)C)C(C(=O)NC1CCCc3ccccc31)C2

> <Shape>
0.265

> <Color>
0.104

> <Negative vol penalty>
0.000

$$$$

  -OEChem-04052302033D

 82 90  0     1  0  0  0  0  0999 V2000
  -25.8669  -35.3292   22.4508 C   0  0  0  0  0  0  0  0  0  0  0  0
  -26.4572  -34.0769   22.3143 C   0  0  0  0  0  0  0  0  0  0  0  0
  -23.6391  -10.9003   20.3943 C   0  0  0  0  0  0  0  0  0  0  0  0
  -23.7876  -11.8840   18.1927 C   0  0  0  0  0  0  0  0  0  0  0  0
  -24.5840  -35.4393   22.9855 C   0  0  0  0  0  0  0  0  0  0  0  0
  -25.7652  -32.9340   22.7135 C   0  0  0  0  0  0  0  0  0  0  0  0
  -26.0952  -29.1819   19.3286 C   0  0  0  0  0  0  0  0  0  0  0  0
  -22.7680   -9.9288   19.9016 C   0  0  0  0  0  0  0  0  0  0  0  0
  -22.9164  -10.9124   17.6999 C   0  0  0  0  0  0  0  0  0  0  0  0
  -27.2801  -28.4476   19.3054 C   0  0  0  0  0  0  0  0  0  0  0  0
  -22.9854   -7.0514   18.1391 C   0  0  0  0  0  0  0  0  0  0  0  0
  -23.2081   -5.7281   18.5195 C   0  0  0  0  0  0  0  0  0  0  0  0
  -26.2162  -26.7017   20.5857 C   0  0  0  0  0  0  0  0  0  0  0  0
  -28.0204  -21.4480   17.9432 C   0  0  0  0  0  0  0  0  0  0  0  0
  -21.0132   -5.6481   19.5261 C   0  0  0  0  0  0  0  0  0  0  0  0
  -24.1489  -11.8779   19.5399 C   0  0  0  0  0  0  0  0  0  0  0  0
  -26.4530  -12.8118   20.1115 C   0  0  0  0  0  0  0  0  0  0  0  0
  -23.8721  -34.2964   23.3824 C   0  0  0  0  0  0  0  0  0  0  0  0
  -24.9632  -28.6856   19.9909 C   0  0  0  0  0  0  0  0  0  0  0  0
  -24.4721  -33.0290   23.2552 C   0  0  0  0  0  0  0  0  0  0  0  0
  -25.0174  -27.4305   20.6137 C   0  0  0  0  0  0  0  0  0  0  0  0
  -26.8643  -20.6284   17.7954 C   0  0  0  0  0  0  0  0  0  0  0  0
  -22.4066   -9.9348   18.5544 C   0  0  0  0  0  0  0  0  0  0  0  0
  -27.3416  -27.2086   19.9365 C   0  0  0  0  0  0  0  0  0  0  0  0
  -21.7766   -7.6732   18.4522 C   0  0  0  0  0  0  0  0  0  0  0  0
  -22.2220   -5.0264   19.2130 C   0  0  0  0  0  0  0  0  0  0  0  0
  -20.7905   -6.9715   19.1457 C   0  0  0  0  0  0  0  0  0  0  0  0
  -25.0484  -12.8821   20.0484 C   0  0  0  0  0  0  0  0  0  0  0  0
  -25.8053  -21.0869   18.5476 C   0  0  0  0  0  0  0  0  0  0  0  0
  -27.8009  -22.5021   18.8027 C   0  0  0  0  0  0  0  0  0  0  0  0
  -26.8319  -14.0078   20.6705 C   0  0  0  0  0  0  0  0  0  0  0  0
  -29.1622  -24.2495   18.2386 C   0  0  0  0  0  0  0  0  0  0  0  0
  -27.3362  -11.7595   19.7014 C   0  0  0  0  0  0  0  0  0  0  0  0
  -23.1996  -29.6544   22.4517 C   0  0  0  0  0  0  0  0  0  0  0  0
  -21.3344  -27.1397   21.6034 C   0  0  0  0  0  0  0  0  0  0  0  0
  -21.0866  -24.1086   20.0548 C   0  0  0  0  0  0  0  0  0  0  0  0
  -24.2557  -19.4088   20.8795 C   0  0  0  0  0  0  0  0  0  0  0  0
  -22.5065  -34.4693   23.9988 C   0  0  0  0  0  0  0  0  0  0  0  0
  -23.6846  -29.4779   19.9839 C   0  0  0  0  0  0  0  0  0  0  0  0
  -23.8240  -26.8440   21.3211 C   0  0  0  0  0  0  0  0  0  0  0  0
  -21.6935  -33.1784   24.0501 C   0  0  0  0  0  0  0  0  0  0  0  0
  -25.2691  -17.4117   23.6474 C   0  0  0  0  0  0  0  0  0  0  0  0
  -22.5482  -32.0298   24.5765 C   0  0  0  0  0  0  0  0  0  0  0  0
  -25.4542  -16.0180   23.0446 C   0  0  0  0  0  0  0  0  0  0  0  0
  -24.0963  -18.1518   23.0082 C   0  0  0  0  0  0  0  0  0  0  0  0
  -24.3301  -16.8420   20.9337 C   0  0  0  0  0  0  0  0  0  0  0  0
  -23.7437  -31.7638   23.6538 C   0  0  1  0  0  0  0  0  0  0  0  0
  -22.7458  -29.1073   21.1279 C   0  0  1  0  0  0  0  0  0  0  0  0
  -25.5358  -16.0783   21.5074 C   0  0  2  0  0  0  0  0  0  0  0  0
  -26.8189  -19.4253   16.9303 C   0  0  0  0  0  0  0  0  0  0  0  0
  -19.4428  -22.2786   19.5585 C   0  0  0  0  0  0  0  0  0  0  0  0
  -21.5473  -26.1694   24.4884 C   0  0  0  0  0  0  0  0  0  0  0  0
  -20.7277  -23.9311   23.7227 C   0  0  0  0  0  0  0  0  0  0  0  0
  -19.2717  -25.9416   23.4764 C   0  0  0  0  0  0  0  0  0  0  0  0
  -21.3873  -24.4723   17.1331 C   0  0  0  0  0  0  0  0  0  0  0  0
  -24.4413  -20.5256   18.6711 C   0  0  0  0  0  0  0  0  0  0  0  0
  -30.1180  -25.3737   18.5361 C   0  0  0  0  0  0  0  0  0  0  0  0
  -29.3474  -26.6598   18.7825 C   0  0  0  0  0  0  0  0  0  1  0  0
  -21.2832  -25.6756   21.9680 C   0  0  1  0  0  0  0  0  0  0  0  0
  -20.0784  -23.5663   19.0578 C   0  0  2  0  0  0  0  0  0  0  0  0
  -20.7307  -25.4411   23.4023 C   0  0  0  0  0  0  0  0  0  0  0  0
  -24.5676  -14.0318   20.5291 N   0  0  0  0  0  0  0  0  0  0  0  0
  -28.6954  -23.5127   19.1931 N   0  0  0  0  0  0  0  0  0  0  0  0
  -25.6763  -14.6949   20.8996 N   0  0  0  0  0  0  0  0  0  0  0  0
  -22.5987  -27.6596   21.2920 N   0  0  0  0  0  0  0  0  0  0  0  0
  -24.2351  -18.1747   21.5501 N   0  0  0  0  0  0  0  0  0  0  0  0
  -28.0376  -14.5282   20.9835 N   0  0  0  0  0  0  0  0  0  0  0  0
  -26.7803  -10.5989   19.1462 N   0  0  0  0  0  0  0  0  0  0  0  0
  -23.3224  -31.0305   22.4794 N   0  0  0  0  0  0  0  0  0  0  0  0
  -20.5134  -25.0198   20.9164 N   0  0  0  0  0  0  0  0  0  0  0  0
  -24.3968  -19.3409   19.4989 N   0  0  0  0  0  0  0  0  0  0  0  0
  -20.7400  -23.2870   17.7520 N   0  3  0  0  0  0  0  0  0  0  0  0
  -28.5806  -11.8390   19.8388 O   0  0  0  0  0  0  0  0  0  0  0  0
  -23.4206  -28.8851   23.3796 O   0  0  0  0  0  0  0  0  0  0  0  0
  -20.2901  -27.7960   21.5883 O   0  0  0  0  0  0  0  0  0  0  0  0
  -22.2639  -23.7563   20.0702 O   0  0  0  0  0  0  0  0  0  0  0  0
  -24.1610  -20.4911   21.4682 O   0  0  0  0  0  0  0  0  0  0  0  0
  -21.5568   -8.9868   18.0731 O   0  0  0  0  0  0  0  0  0  0  0  0
  -28.4972  -26.4902   19.9159 O   0  0  0  0  0  0  0  0  0  1  0  0
  -22.4354   -3.7551   19.5770 F   0  0  0  0  0  0  0  0  0  0  0  0
  -19.6268   -7.5631   19.4483 F   0  0  0  0  0  0  0  0  0  0  0  0
  -26.2065  -22.5003   19.4273 S   0  0  0  0  0  0  0  0  0  0  0  0
  1  2  1  0  0  0  0
  1  5  2  0  0  0  0
  2  6  2  0  0  0  0
  3  8  2  0  0  0  0
  3 16  1  0  0  0  0
  4  9  1  0  0  0  0
  4 16  2  0  0  0  0
  5 18  1  0  0  0  0
  6 20  1  0  0  0  0
  7 10  2  0  0  0  0
  7 19  1  0  0  0  0
  8 23  1  0  0  0  0
  9 23  2  0  0  0  0
 10 24  1  0  0  0  0
 11 12  2  0  0  0  0
 11 25  1  0  0  0  0
 12 26  1  0  0  0  0
 13 21  1  0  0  0  0
 13 24  2  0  0  0  0
 14 22  1  0  0  0  0
 14 30  2  0  0  0  0
 15 26  2  0  0  0  0
 15 27  1  0  0  0  0
 16 28  1  0  0  0  0
 17 28  1  0  0  0  0
 17 31  2  0  0  0  0
 17 33  1  0  0  0  0
 18 20  2  0  0  0  0
 18 38  1  0  0  0  0
 19 21  2  0  0  0  0
 19 39  1  0  0  0  0
 20 47  1  0  0  0  0
 21 40  1  0  0  0  0
 22 29  2  0  0  0  0
 22 50  1  0  0  0  0
 23 78  1  0  0  0  0
 24 79  1  0  0  0  0
 25 27  2  0  0  0  0
 25 78  1  0  0  0  0
 26 80  1  0  0  0  0
 27 81  1  0  0  0  0
 28 62  2  0  0  0  0
 29 56  1  0  0  0  0
 29 82  1  0  0  0  0
 30 63  1  0  0  0  0
 30 82  1  0  0  0  0
 31 64  1  0  0  0  0
 31 67  1  0  0  0  0
 32 57  1  0  0  0  0
 32 63  2  0  0  0  0
 33 68  1  0  0  0  0
 33 73  2  0  0  0  0
 34 48  1  0  0  0  0
 34 69  1  0  0  0  0
 34 74  2  0  0  0  0
 35 59  1  0  0  0  0
 35 65  1  0  0  0  0
 35 75  2  0  0  0  0
 36 60  1  0  0  0  0
 36 70  1  0  0  0  0
 36 76  2  0  0  0  0
 37 66  1  0  0  0  0
 37 71  1  0  0  0  0
 37 77  2  0  0  0  0
 38 41  1  0  0  0  0
 39 48  1  0  0  0  0
 40 65  1  0  0  0  0
 41 43  1  0  0  0  0
 42 44  1  0  0  0  0
 42 45  1  0  0  0  0
 43 47  1  0  0  0  0
 44 49  1  0  0  0  0
 45 66  1  0  0  0  0
 46 49  1  0  0  0  0
 46 66  1  0  0  0  0
 47 69  1  0  0  0  0
 48 65  1  0  0  0  0
 49 64  1  0  0  0  0
 51 60  1  0  0  0  0
 52 61  1  0  0  0  0
 53 61  1  0  0  0  0
 54 61  1  0  0  0  0
 55 72  1  0  0  0  0
 56 71  1  0  0  0  0
 57 58  1  0  0  0  0
 58 79  1  0  0  0  0
 59 61  1  0  0  0  0
 59 70  1  0  0  0  0
 60 72  1  0  0  0  0
 62 64  1  0  0  0  0
M  CHG  1  72   1
M  ISO  4  37 100  58 101  71 100  79 101
M  END
> <Batch ID>
0123

> <Smiles>
CNC(C)C(=O)NC(C(=O)N1Cc2cc([101O:1][101CH2:1]C=CNc3cc(C)c(C[100NH:0][100C:0](=O)N4CCCC(n5nc(-c6ccc(Oc7ccc(F)cc7F)cc6)c(C(N)=O)c5N)C4)s3)ccc2CC1C(=O)NC1CCCc2ccccc21)C(C)(C)C

> <Shape>
0.214

> <Color>
0.075

> <Negative vol penalty>
0.000

$$$$

  -OEChem-04052302033D

 85 93  0     1  0  0  0  0  0999 V2000
  -32.0396  -34.2306   21.1108 C   0  0  0  0  0  0  0  0  0  0  0  0
  -31.5680  -32.9232   21.0498 C   0  0  0  0  0  0  0  0  0  0  0  0
  -23.3839   -9.6302   21.6864 C   0  0  0  0  0  0  0  0  0  0  0  0
  -24.0532  -10.7944   23.6948 C   0  0  0  0  0  0  0  0  0  0  0  0
  -31.4608  -35.1386   21.9965 C   0  0  0  0  0  0  0  0  0  0  0  0
  -30.5179  -32.5227   21.8753 C   0  0  0  0  0  0  0  0  0  0  0  0
  -27.0365  -29.7974   19.4060 C   0  0  0  0  0  0  0  0  0  0  0  0
  -22.7332   -8.6693   22.4602 C   0  0  0  0  0  0  0  0  0  0  0  0
  -23.4025   -9.8335   24.4686 C   0  0  0  0  0  0  0  0  0  0  0  0
  -27.3374  -28.4600   19.1521 C   0  0  0  0  0  0  0  0  0  0  0  0
  -19.8118   -8.3834   24.1385 C   0  0  0  0  0  0  0  0  0  0  0  0
  -18.5330   -7.9905   23.7438 C   0  0  0  0  0  0  0  0  0  0  0  0
  -29.3823  -18.4282   20.8387 C   0  0  0  0  0  0  0  0  0  0  0  0
  -31.2285  -19.9076   21.3281 C   0  0  0  0  0  0  0  0  0  0  0  0
  -25.9800  -27.8034   21.0350 C   0  0  0  0  0  0  0  0  0  0  0  0
  -31.6523  -17.6118   20.7062 C   0  0  0  0  0  0  0  0  0  0  0  0
  -19.3074   -5.7150   23.4998 C   0  0  0  0  0  0  0  0  0  0  0  0
  -24.0440  -10.6927   22.3037 C   0  0  0  0  0  0  0  0  0  0  0  0
  -29.8564  -19.6866   21.2091 C   0  0  0  0  0  0  0  0  0  0  0  0
  -24.1714  -12.8788   20.9951 C   0  0  0  0  0  0  0  0  0  0  0  0
  -30.3967  -34.7517   22.8263 C   0  0  0  0  0  0  0  0  0  0  0  0
  -26.2125  -30.1492   20.4847 C   0  0  0  0  0  0  0  0  0  0  0  0
  -29.9252  -33.4261   22.7738 C   0  0  0  0  0  0  0  0  0  0  0  0
  -25.6681  -29.1458   21.2990 C   0  0  0  0  0  0  0  0  0  0  0  0
  -30.2802  -17.3908   20.5873 C   0  0  0  0  0  0  0  0  0  0  0  0
  -22.7424   -8.7710   23.8513 C   0  0  0  0  0  0  0  0  0  0  0  0
  -26.8115  -27.4629   19.9684 C   0  0  0  0  0  0  0  0  0  0  0  0
  -20.8385   -7.4422   24.2139 C   0  0  0  0  0  0  0  0  0  0  0  0
  -32.1265  -18.8702   21.0766 C   0  0  0  0  0  0  0  0  0  0  0  0
  -18.2808   -6.6564   23.4244 C   0  0  0  0  0  0  0  0  0  0  0  0
  -20.5862   -6.1080   23.8946 C   0  0  0  0  0  0  0  0  0  0  0  0
  -24.7169  -11.6853   21.5048 C   0  0  0  0  0  0  0  0  0  0  0  0
  -25.2079  -13.4652   20.3107 C   0  0  0  0  0  0  0  0  0  0  0  0
  -28.9095  -20.7827   21.4740 C   0  0  0  0  0  0  0  0  0  0  0  0
  -29.2146  -22.0897   21.4613 C   0  0  0  0  0  0  0  0  0  0  0  0
  -22.8463  -13.4100   21.1283 C   0  0  0  0  0  0  0  0  0  0  0  0
  -26.5931  -31.8695   23.1304 C   0  0  0  0  0  0  0  0  0  0  0  0
  -23.4087  -31.3475   23.4614 C   0  0  0  0  0  0  0  0  0  0  0  0
  -20.6996  -29.4057   22.7287 C   0  0  0  0  0  0  0  0  0  0  0  0
  -30.5533  -14.9756   19.9249 C   0  0  0  0  0  0  0  0  0  0  0  0
  -29.8343  -35.7556   23.8013 C   0  0  0  0  0  0  0  0  0  0  0  0
  -25.8759  -31.5946   20.7291 C   0  0  0  0  0  0  0  0  0  0  0  0
  -24.7618  -29.4695   22.4575 C   0  0  0  0  0  0  0  0  0  0  0  0
  -28.4777  -35.3540   24.3745 C   0  0  0  0  0  0  0  0  0  0  0  0
  -29.7410  -11.6353   18.9975 C   0  0  0  0  0  0  0  0  0  0  0  0
  -28.4970  -33.8952   24.8197 C   0  0  0  0  0  0  0  0  0  0  0  0
  -28.3166  -11.4488   19.5252 C   0  0  0  0  0  0  0  0  0  0  0  0
  -30.5870  -12.4909   19.9388 C   0  0  0  0  0  0  0  0  0  0  0  0
  -28.5740  -13.6012   20.8244 C   0  0  0  0  0  0  0  0  0  0  0  0
  -28.7715  -32.9606   23.6354 C   0  0  1  0  0  0  0  0  0  0  0  0
  -25.4417  -31.8725   22.1650 C   0  0  1  0  0  0  0  0  0  0  0  0
  -27.6648  -12.8001   19.8781 C   0  0  2  0  0  0  0  0  0  0  0  0
  -35.4820  -18.4781   22.3317 C   0  0  0  0  0  0  0  0  0  0  0  0
  -18.2376  -29.2104   23.1739 C   0  0  0  0  0  0  0  0  0  0  0  0
  -24.0015  -30.2788   26.2572 C   0  0  0  0  0  0  0  0  0  0  0  0
  -21.7204  -29.2470   26.2708 C   0  0  0  0  0  0  0  0  0  0  0  0
  -21.9662  -31.7237   26.1026 C   0  0  0  0  0  0  0  0  0  0  0  0
  -20.0403  -29.6852   19.8571 C   0  0  0  0  0  0  0  0  0  0  0  0
  -28.2118  -23.1751   21.7337 C   0  0  0  0  0  0  0  0  0  0  0  0
  -28.1183  -24.1497   20.5611 C   0  0  0  0  0  0  0  0  0  0  0  0
  -34.2716  -17.9729   21.5757 C   0  0  0  0  0  0  0  0  0  0  0  0
  -27.1345  -25.2761   20.8457 C   0  0  0  0  0  0  0  0  0  1  0  0
  -22.5623  -30.2812   24.1137 C   0  0  1  0  0  0  0  0  0  0  0  0
  -19.3062  -29.7626   22.2433 C   0  0  2  0  0  0  0  0  0  0  0  0
  -22.5812  -30.3764   25.6655 C   0  0  0  0  0  0  0  0  0  0  0  0
  -26.0001  -11.5217   21.1726 N   0  0  0  0  0  0  0  0  0  0  0  0
  -26.2697  -12.6200   20.4466 N   0  0  0  0  0  0  0  0  0  0  0  0
  -24.4673  -30.8978   22.6595 N   0  0  0  0  0  0  0  0  0  0  0  0
  -29.9086  -13.7569   20.2250 N   0  0  0  0  0  0  0  0  0  0  0  0
  -25.3055  -14.6161   19.6119 N   0  0  0  0  0  0  0  0  0  0  0  0
  -21.9044  -12.6790   21.8650 N   0  0  0  0  0  0  0  0  0  0  0  0
  -29.7982  -16.1128   20.2102 N   0  0  0  0  0  0  0  0  0  0  0  0
  -27.5769  -32.7940   22.8356 N   0  0  0  0  0  0  0  0  0  0  0  0
  -21.2330  -30.3978   23.5241 N   0  0  0  0  0  0  0  0  0  0  0  0
  -19.0746  -29.2072   20.8798 N   0  3  0  0  0  0  0  0  0  0  0  0
  -22.5030  -14.4925   20.5956 O   0  0  0  0  0  0  0  0  0  0  0  0
  -26.5885  -31.0874   24.0738 O   0  0  0  0  0  0  0  0  0  0  0  0
  -23.1362  -32.5356   23.6505 O   0  0  0  0  0  0  0  0  0  0  0  0
  -21.2574  -28.3507   22.4349 O   0  0  0  0  0  0  0  0  0  0  0  0
  -31.6805  -15.0075   19.4246 O   0  0  0  0  0  0  0  0  0  0  0  0
  -22.1073   -7.8337   24.6068 O   0  0  0  0  0  0  0  0  0  0  0  0
  -27.1041  -26.1567   19.7232 O   0  0  0  0  0  0  0  0  0  1  0  0
  -33.4655  -19.0858   21.1920 O   0  0  0  0  0  0  0  0  0  0  0  0
  -17.0523   -6.2789   23.0468 F   0  0  0  0  0  0  0  0  0  0  0  0
  -21.5682   -5.1989   23.9662 F   0  0  0  0  0  0  0  0  0  0  0  0
  1  2  1  0  0  0  0
  1  5  2  0  0  0  0
  2  6  2  0  0  0  0
  3  8  2  0  0  0  0
  3 18  1  0  0  0  0
  4  9  1  0  0  0  0
  4 18  2  0  0  0  0
  5 21  1  0  0  0  0
  6 23  1  0  0  0  0
  7 10  2  0  0  0  0
  7 22  1  0  0  0  0
  8 26  1  0  0  0  0
  9 26  2  0  0  0  0
 10 27  1  0  0  0  0
 11 12  2  0  0  0  0
 11 28  1  0  0  0  0
 12 30  1  0  0  0  0
 13 19  1  0  0  0  0
 13 25  2  0  0  0  0
 14 19  2  0  0  0  0
 14 29  1  0  0  0  0
 15 24  1  0  0  0  0
 15 27  2  0  0  0  0
 16 25  1  0  0  0  0
 16 29  2  0  0  0  0
 17 30  2  0  0  0  0
 17 31  1  0  0  0  0
 18 32  1  0  0  0  0
 19 34  1  0  0  0  0
 20 32  1  0  0  0  0
 20 33  2  0  0  0  0
 20 36  1  0  0  0  0
 21 23  2  0  0  0  0
 21 41  1  0  0  0  0
 22 24  2  0  0  0  0
 22 42  1  0  0  0  0
 23 50  1  0  0  0  0
 24 43  1  0  0  0  0
 25 72  1  0  0  0  0
 26 81  1  0  0  0  0
 27 82  1  0  0  0  0
 28 31  2  0  0  0  0
 28 81  1  0  0  0  0
 29 83  1  0  0  0  0
 30 84  1  0  0  0  0
 31 85  1  0  0  0  0
 32 66  2  0  0  0  0
 33 67  1  0  0  0  0
 33 70  1  0  0  0  0
 34 35  2  0  0  0  0
 35 59  1  0  0  0  0
 36 71  1  0  0  0  0
 36 76  2  0  0  0  0
 37 51  1  0  0  0  0
 37 73  1  0  0  0  0
 37 77  2  0  0  0  0
 38 63  1  0  0  0  0
 38 68  1  0  0  0  0
 38 78  2  0  0  0  0
 39 64  1  0  0  0  0
 39 74  1  0  0  0  0
 39 79  2  0  0  0  0
 40 69  1  0  0  0  0
 40 72  1  0  0  0  0
 40 80  2  0  0  0  0
 41 44  1  0  0  0  0
 42 51  1  0  0  0  0
 43 68  1  0  0  0  0
 44 46  1  0  0  0  0
 45 47  1  0  0  0  0
 45 48  1  0  0  0  0
 46 50  1  0  0  0  0
 47 52  1  0  0  0  0
 48 69  1  0  0  0  0
 49 52  1  0  0  0  0
 49 69  1  0  0  0  0
 50 73  1  0  0  0  0
 51 68  1  0  0  0  0
 52 67  1  0  0  0  0
 53 61  1  0  0  0  0
 54 64  1  0  0  0  0
 55 65  1  0  0  0  0
 56 65  1  0  0  0  0
 57 65  1  0  0  0  0
 58 75  1  0  0  0  0
 59 60  1  0  0  0  0
 60 62  1  0  0  0  0
 61 83  1  0  0  0  0
 62 82  1  0  0  0  0
 63 65  1  0  0  0  0
 63 74  1  0  0  0  0
 64 75  1  0  0  0  0
 66 67  1  0  0  0  0
M  CHG  1  75   1
M  ISO  4  40 100  62 101  72 100  82 101
M  END
> <Batch ID>
0123

> <Smiles>
CCOc1cc(C=CCC[101CH2:1][101O:1]c2ccc3c(c2)CN(C(=O)C(NC(=O)C(C)NC)C(C)(C)C)C(C(=O)NC2CCCc4ccccc42)C3)cc([100NH:0][100C:0](=O)N2CCCC(n3nc(-c4ccc(Oc5ccc(F)cc5F)cc4)c(C(N)=O)c3N)C2)c1

> <Shape>
0.291

> <Color>
0.162

> <Negative vol penalty>
0.000

$$$$

  -OEChem-04052302033D

 85 93  0     1  0  0  0  0  0999 V2000
  -30.7301  -24.5348   17.4574 C   0  0  0  0  0  0  0  0  0  0  0  0
  -29.3942  -24.1571   17.3683 C   0  0  0  0  0  0  0  0  0  0  0  0
  -25.9182  -12.9113   22.0962 C   0  0  0  0  0  0  0  0  0  0  0  0
  -25.8740  -13.8327   19.8632 C   0  0  0  0  0  0  0  0  0  0  0  0
  -25.9423  -21.8035   20.6893 C   0  0  0  0  0  0  0  0  0  0  0  0
  -31.2090  -25.1288   18.6243 C   0  0  0  0  0  0  0  0  0  0  0  0
  -28.5365  -24.3723   18.4465 C   0  0  0  0  0  0  0  0  0  0  0  0
  -24.0764  -26.3044   17.0256 C   0  0  0  0  0  0  0  0  0  0  0  0
  -24.6617  -21.9220   20.1492 C   0  0  0  0  0  0  0  0  0  0  0  0
  -24.7662  -12.1766   21.8159 C   0  0  0  0  0  0  0  0  0  0  0  0
  -24.7219  -13.0979   19.5829 C   0  0  0  0  0  0  0  0  0  0  0  0
  -23.1481  -25.4236   16.4723 C   0  0  0  0  0  0  0  0  0  0  0  0
  -23.9642   -9.3320   20.1733 C   0  0  0  0  0  0  0  0  0  0  0  0
  -23.9377   -7.9935   20.5648 C   0  0  0  0  0  0  0  0  0  0  0  0
  -22.0038  -25.3071   18.5927 C   0  0  0  0  0  0  0  0  0  0  0  0
  -25.2957  -20.4677   18.3270 C   0  0  0  0  0  0  0  0  0  0  0  0
  -22.0168   -8.4397   21.9606 C   0  0  0  0  0  0  0  0  0  0  0  0
  -26.4721  -13.7395   21.1199 C   0  0  0  0  0  0  0  0  0  0  0  0
  -26.8996  -21.0171   20.0482 C   0  0  0  0  0  0  0  0  0  0  0  0
  -28.9964  -14.0951   21.2156 C   0  0  0  0  0  0  0  0  0  0  0  0
  -30.3546  -25.3602   19.7138 C   0  0  0  0  0  0  0  0  0  0  0  0
  -23.9815  -26.6854   18.3718 C   0  0  0  0  0  0  0  0  0  0  0  0
  -29.0047  -24.9688   19.6296 C   0  0  0  0  0  0  0  0  0  0  0  0
  -22.9306  -26.1949   19.1600 C   0  0  0  0  0  0  0  0  0  0  0  0
  -26.5763  -20.3492   18.8671 C   0  0  0  0  0  0  0  0  0  0  0  0
  -24.3384  -21.2541   18.9681 C   0  0  0  0  0  0  0  0  0  0  0  0
  -24.1681  -12.2698   20.5592 C   0  0  0  0  0  0  0  0  0  0  0  0
  -22.1133  -24.9225   17.2566 C   0  0  0  0  0  0  0  0  0  0  0  0
  -23.0170  -10.2244   20.6755 C   0  0  0  0  0  0  0  0  0  0  0  0
  -22.9641   -7.5473   21.4584 C   0  0  0  0  0  0  0  0  0  0  0  0
  -22.0433   -9.7782   21.5691 C   0  0  0  0  0  0  0  0  0  0  0  0
  -27.6618  -14.4992   21.4090 C   0  0  0  0  0  0  0  0  0  0  0  0
  -29.7443  -15.1654   21.6415 C   0  0  0  0  0  0  0  0  0  0  0  0
  -28.2293  -20.9115   20.6340 C   0  0  0  0  0  0  0  0  0  0  0  0
  -29.5137  -12.8625   20.6973 C   0  0  0  0  0  0  0  0  0  0  0  0
  -28.4359  -21.0150   22.0968 C   0  0  0  0  0  0  0  0  0  0  0  0
  -25.8403  -26.3642   20.9302 C   0  0  0  0  0  0  0  0  0  0  0  0
  -23.5947  -28.2507   22.3161 C   0  0  0  0  0  0  0  0  0  0  0  0
  -22.5485  -20.7832   17.2602 C   0  0  0  0  0  0  0  0  0  0  0  0
  -19.9963  -28.5124   22.2929 C   0  0  0  0  0  0  0  0  0  0  0  0
  -30.9289  -25.9622   20.9718 C   0  0  0  0  0  0  0  0  0  0  0  0
  -24.9753  -27.6573   18.9464 C   0  0  0  0  0  0  0  0  0  0  0  0
  -22.7726  -26.5888   20.6051 C   0  0  0  0  0  0  0  0  0  0  0  0
  -29.8681  -26.4968   21.9305 C   0  0  0  0  0  0  0  0  0  0  0  0
  -29.6422  -18.8453   24.6840 C   0  0  0  0  0  0  0  0  0  0  0  0
  -28.7433  -25.4809   22.1024 C   0  0  0  0  0  0  0  0  0  0  0  0
  -29.3564  -17.4480   24.1348 C   0  0  0  0  0  0  0  0  0  0  0  0
  -28.5691  -19.8424   24.2592 C   0  0  0  0  0  0  0  0  0  0  0  0
  -28.0759  -18.5139   22.2244 C   0  0  0  0  0  0  0  0  0  0  0  0
  -28.0376  -25.2082   20.7686 C   0  0  1  0  0  0  0  0  0  0  0  0
  -25.0814  -27.5751   20.4661 C   0  0  1  0  0  0  0  0  0  0  0  0
  -29.1532  -17.4851   22.6097 C   0  0  2  0  0  0  0  0  0  0  0  0
  -27.5830  -19.5018   18.1598 C   0  0  0  0  0  0  0  0  0  0  0  0
  -18.5015  -30.4878   22.6935 C   0  0  0  0  0  0  0  0  0  0  0  0
  -23.5298  -27.2506   25.1981 C   0  0  0  0  0  0  0  0  0  0  0  0
  -21.1114  -27.8915   25.2925 C   0  0  0  0  0  0  0  0  0  0  0  0
  -22.8489  -29.6394   24.9072 C   0  0  0  0  0  0  0  0  0  0  0  0
  -18.6244  -28.1477   19.6960 C   0  0  0  0  0  0  0  0  0  0  0  0
  -21.0951  -21.1760   17.0340 C   0  0  0  0  0  0  0  0  0  0  0  0
  -20.8832  -21.9079   15.7133 C   0  0  0  0  0  0  0  0  0  0  0  0
  -21.6602  -23.2154   15.6640 C   0  0  0  0  0  0  0  0  0  1  0  0
  -22.3018  -28.0063   23.0563 C   0  0  1  0  0  0  0  0  0  0  0  0
  -19.1690  -29.6091   21.6470 C   0  0  2  0  0  0  0  0  0  0  0  0
  -22.4574  -28.1789   24.5937 C   0  0  0  0  0  0  0  0  0  0  0  0
  -27.5643  -15.7301   21.9183 N   0  0  0  0  0  0  0  0  0  0  0  0
  -29.3083  -20.7204   19.9264 N   0  0  0  0  0  0  0  0  0  0  0  0
  -28.8472  -16.1087   22.0486 N   0  0  0  0  0  0  0  0  0  0  0  0
  -28.3763  -19.8262   22.8105 N   0  0  0  0  0  0  0  0  0  0  0  0
  -23.7731  -27.5367   21.1227 N   0  0  0  0  0  0  0  0  0  0  0  0
  -31.0753  -15.3824   21.7039 N   0  0  0  0  0  0  0  0  0  0  0  0
  -28.6060  -11.8688   20.3061 N   0  0  0  0  0  0  0  0  0  0  0  0
  -23.0389  -21.3749   18.4209 N   0  0  0  0  0  0  0  0  0  0  0  0
  -27.1321  -26.2899   20.4455 N   0  0  0  0  0  0  0  0  0  0  0  0
  -21.3122  -28.8921   22.4527 N   0  0  0  0  0  0  0  0  0  0  0  0
  -18.1079  -29.0174   20.7840 N   0  3  0  0  0  0  0  0  0  0  0  0
  -30.7448  -12.6422   20.5997 O   0  0  0  0  0  0  0  0  0  0  0  0
  -28.6379  -22.1448   22.5223 O   0  0  0  0  0  0  0  0  0  0  0  0
  -25.2946  -25.5578   21.6743 O   0  0  0  0  0  0  0  0  0  0  0  0
  -24.4128  -29.0511   22.7761 O   0  0  0  0  0  0  0  0  0  0  0  0
  -23.1506  -20.0434   16.4893 O   0  0  0  0  0  0  0  0  0  0  0  0
  -19.5218  -27.4287   22.6261 O   0  0  0  0  0  0  0  0  0  0  0  0
  -23.0441  -11.5528   20.2853 O   0  0  0  0  0  0  0  0  0  0  0  0
  -21.2063  -24.0620   16.7192 O   0  0  0  0  0  0  0  0  0  1  0  0
  -22.9379   -6.2616   21.8331 F   0  0  0  0  0  0  0  0  0  0  0  0
  -21.1300  -10.6306   22.0540 F   0  0  0  0  0  0  0  0  0  0  0  0
  1  2  1  0  0  0  0
  1  6  2  0  0  0  0
  2  7  2  0  0  0  0
  3 10  2  0  0  0  0
  3 18  1  0  0  0  0
  4 11  1  0  0  0  0
  4 18  2  0  0  0  0
  5  9  2  0  0  0  0
  5 19  1  0  0  0  0
  6 21  1  0  0  0  0
  7 23  1  0  0  0  0
  8 12  2  0  0  0  0
  8 22  1  0  0  0  0
  9 26  1  0  0  0  0
 10 27  1  0  0  0  0
 11 27  2  0  0  0  0
 12 28  1  0  0  0  0
 13 14  2  0  0  0  0
 13 29  1  0  0  0  0
 14 30  1  0  0  0  0
 15 24  1  0  0  0  0
 15 28  2  0  0  0  0
 16 25  1  0  0  0  0
 16 26  2  0  0  0  0
 17 30  2  0  0  0  0
 17 31  1  0  0  0  0
 18 32  1  0  0  0  0
 19 25  2  0  0  0  0
 19 34  1  0  0  0  0
 20 32  1  0  0  0  0
 20 33  2  0  0  0  0
 20 35  1  0  0  0  0
 21 23  2  0  0  0  0
 21 41  1  0  0  0  0
 22 24  2  0  0  0  0
 22 42  1  0  0  0  0
 23 50  1  0  0  0  0
 24 43  1  0  0  0  0
 25 53  1  0  0  0  0
 26 72  1  0  0  0  0
 27 82  1  0  0  0  0
 28 83  1  0  0  0  0
 29 31  2  0  0  0  0
 29 82  1  0  0  0  0
 30 84  1  0  0  0  0
 31 85  1  0  0  0  0
 32 65  2  0  0  0  0
 33 67  1  0  0  0  0
 33 70  1  0  0  0  0
 34 36  1  0  0  0  0
 34 66  2  0  0  0  0
 35 71  1  0  0  0  0
 35 76  2  0  0  0  0
 36 68  1  0  0  0  0
 36 77  2  0  0  0  0
 37 51  1  0  0  0  0
 37 73  1  0  0  0  0
 37 78  2  0  0  0  0
 38 62  1  0  0  0  0
 38 69  1  0  0  0  0
 38 79  2  0  0  0  0
 39 59  1  0  0  0  0
 39 72  1  0  0  0  0
 39 80  2  0  0  0  0
 40 63  1  0  0  0  0
 40 74  1  0  0  0  0
 40 81  2  0  0  0  0
 41 44  1  0  0  0  0
 42 51  1  0  0  0  0
 43 69  1  0  0  0  0
 44 46  1  0  0  0  0
 45 47  1  0  0  0  0
 45 48  1  0  0  0  0
 46 50  1  0  0  0  0
 47 52  1  0  0  0  0
 48 68  1  0  0  0  0
 49 52  1  0  0  0  0
 49 68  1  0  0  0  0
 50 73  1  0  0  0  0
 51 69  1  0  0  0  0
 52 67  1  0  0  0  0
 54 63  1  0  0  0  0
 55 64  1  0  0  0  0
 56 64  1  0  0  0  0
 57 64  1  0  0  0  0
 58 75  1  0  0  0  0
 59 60  1  0  0  0  0
 60 61  1  0  0  0  0
 61 83  1  0  0  0  0
 62 64  1  0  0  0  0
 62 74  1  0  0  0  0
 63 75  1  0  0  0  0
 65 67  1  0  0  0  0
M  CHG  1  75   1
M  ISO  4  34 100  36 100  61 101  83 101
M  END
> <Batch ID>
0123

> <Smiles>
CNC(C)C(=O)NC(C(=O)N1Cc2cc([101O:1][101CH2:1]CCC(=O)Nc3ccc([100C:0](=N)[100C:0](=O)N4CCCC(n5nc(-c6ccc(Oc7ccc(F)cc7F)cc6)c(C(N)=O)c5N)C4)c(C)c3)ccc2CC1C(=O)NC1CCCc2ccccc21)C(C)(C)C

> <Shape>
0.239

> <Color>
0.070

> <Negative vol penalty>
0.000

$$$$

  -OEChem-04052302033D

 83 91  0     1  0  0  0  0  0999 V2000
  -27.5475  -37.8840   19.7009 C   0  0  0  0  0  0  0  0  0  0  0  0
  -28.0482  -36.6004   19.5084 C   0  0  0  0  0  0  0  0  0  0  0  0
  -29.6614  -20.9289   17.6214 C   0  0  0  0  0  0  0  0  0  0  0  0
  -24.4700   -9.0326   21.9162 C   0  0  0  0  0  0  0  0  0  0  0  0
  -24.7280   -7.9653   19.7641 C   0  0  0  0  0  0  0  0  0  0  0  0
  -29.2956  -19.6839   18.1329 C   0  0  0  0  0  0  0  0  0  0  0  0
  -29.1015  -22.0920   18.1501 C   0  0  0  0  0  0  0  0  0  0  0  0
  -26.6403  -38.1300   20.7307 C   0  0  0  0  0  0  0  0  0  0  0  0
  -27.6429  -35.5622   20.3464 C   0  0  0  0  0  0  0  0  0  0  0  0
  -26.8199  -29.6931   18.8028 C   0  0  0  0  0  0  0  0  0  0  0  0
  -23.2968   -8.3102   22.1338 C   0  0  0  0  0  0  0  0  0  0  0  0
  -23.5547   -7.2429   19.9818 C   0  0  0  0  0  0  0  0  0  0  0  0
  -27.6279  -28.5652   18.9393 C   0  0  0  0  0  0  0  0  0  0  0  0
  -22.4384   -5.1798   23.0805 C   0  0  0  0  0  0  0  0  0  0  0  0
  -22.2640   -4.5884   24.3316 C   0  0  0  0  0  0  0  0  0  0  0  0
  -26.4813  -27.9989   20.9848 C   0  0  0  0  0  0  0  0  0  0  0  0
  -20.2535   -5.8861   24.6648 C   0  0  0  0  0  0  0  0  0  0  0  0
  -25.1856   -8.8602   20.7312 C   0  0  0  0  0  0  0  0  0  0  0  0
  -28.3698  -19.6019   19.1730 C   0  0  0  0  0  0  0  0  0  0  0  0
  -28.1758  -22.0100   19.1902 C   0  0  0  0  0  0  0  0  0  0  0  0
  -27.7075   -9.2251   20.8515 C   0  0  0  0  0  0  0  0  0  0  0  0
  -26.2162  -37.0923   21.5756 C   0  0  0  0  0  0  0  0  0  0  0  0
  -25.8422  -29.9889   19.7636 C   0  0  0  0  0  0  0  0  0  0  0  0
  -26.7302  -35.7948   21.3893 C   0  0  0  0  0  0  0  0  0  0  0  0
  -25.6605  -29.1299   20.8568 C   0  0  0  0  0  0  0  0  0  0  0  0
  -27.8099  -20.7649   19.7017 C   0  0  0  0  0  0  0  0  0  0  0  0
  -22.8392   -7.4154   21.1667 C   0  0  0  0  0  0  0  0  0  0  0  0
  -27.4606  -27.7194   20.0319 C   0  0  0  0  0  0  0  0  0  0  0  0
  -21.5204   -6.1245   22.6215 C   0  0  0  0  0  0  0  0  0  0  0  0
  -21.1715   -4.9415   25.1238 C   0  0  0  0  0  0  0  0  0  0  0  0
  -20.4280   -6.4776   23.4137 C   0  0  0  0  0  0  0  0  0  0  0  0
  -26.3973   -9.6065   20.5056 C   0  0  0  0  0  0  0  0  0  0  0  0
  -28.4924  -10.2691   20.4269 C   0  0  0  0  0  0  0  0  0  0  0  0
  -28.0106  -18.2844   19.6826 C   0  0  0  0  0  0  0  0  0  0  0  0
  -27.6054  -23.2586   19.7230 C   0  0  0  0  0  0  0  0  0  0  0  0
  -27.4714  -17.2864   18.9537 C   0  0  0  0  0  0  0  0  0  0  0  0
  -28.3079  -24.2471   20.2980 C   0  0  0  0  0  0  0  0  0  0  0  0
  -28.1734   -8.0336   21.4988 C   0  0  0  0  0  0  0  0  0  0  0  0
  -27.1713  -16.0005   19.6149 C   0  0  0  0  0  0  0  0  0  0  0  0
  -25.3282  -32.3977   21.7728 C   0  0  0  0  0  0  0  0  0  0  0  0
  -22.5695  -30.7989   22.3695 C   0  0  0  0  0  0  0  0  0  0  0  0
  -20.8742  -27.8371   22.3460 C   0  0  0  0  0  0  0  0  0  0  0  0
  -25.2703  -37.4162   22.7048 C   0  0  0  0  0  0  0  0  0  0  0  0
  -24.9608  -31.1950   19.5878 C   0  0  0  0  0  0  0  0  0  0  0  0
  -24.6116  -29.3918   21.9054 C   0  0  0  0  0  0  0  0  0  0  0  0
  -24.6044  -36.1850   23.3137 C   0  0  0  0  0  0  0  0  0  0  0  0
  -28.6796  -13.7379   17.1577 C   0  0  0  0  0  0  0  0  0  0  0  0
  -25.6367  -35.0916   23.5700 C   0  0  0  0  0  0  0  0  0  0  0  0
  -28.3353  -12.3784   17.7602 C   0  0  0  0  0  0  0  0  0  0  0  0
  -27.5845  -14.7717   17.4159 C   0  0  0  0  0  0  0  0  0  0  0  0
  -26.8862  -13.5576   19.4602 C   0  0  0  0  0  0  0  0  0  0  0  0
  -26.2955  -34.6373   22.2619 C   0  0  1  0  0  0  0  0  0  0  0  0
  -24.3424  -31.6788   20.8958 C   0  0  1  0  0  0  0  0  0  0  0  0
  -27.9957  -12.5148   19.2529 C   0  0  1  0  0  0  0  0  0  0  0  0
  -25.4370  -20.2501   20.3268 C   0  0  0  0  0  0  0  0  0  0  0  0
  -18.6470  -26.8375   22.9272 C   0  0  0  0  0  0  0  0  0  0  0  0
  -23.3048  -30.8879   25.3295 C   0  0  0  0  0  0  0  0  0  0  0  0
  -21.5974  -29.1023   25.7357 C   0  0  0  0  0  0  0  0  0  0  0  0
  -20.8906  -31.3209   24.8408 C   0  0  0  0  0  0  0  0  0  0  0  0
  -20.3853  -27.0089   19.5471 C   0  0  0  0  0  0  0  0  0  0  0  0
  -26.8145  -20.6763   20.8190 C   0  0  0  0  0  0  0  0  0  0  0  0
  -27.6814  -25.4928   20.8377 C   0  0  0  0  0  0  0  0  0  1  0  0
  -22.1465  -29.7214   23.3386 C   0  0  1  0  0  0  0  0  0  0  0  0
  -19.4929  -27.4712   21.8337 C   0  0  2  0  0  0  0  0  0  0  0  0
  -22.0060  -30.2540   24.7926 C   0  0  0  0  0  0  0  0  0  0  0  0
  -26.3485  -10.7997   19.9074 N   0  0  0  0  0  0  0  0  0  0  0  0
  -27.6379  -11.1772   19.8742 N   0  0  0  0  0  0  0  0  0  0  0  0
  -27.2362  -14.8418   18.8430 N   0  0  0  0  0  0  0  0  0  0  0  0
  -23.7789  -30.5871   21.6925 N   0  0  0  0  0  0  0  0  0  0  0  0
  -29.8233  -10.4899   20.4761 N   0  0  0  0  0  0  0  0  0  0  0  0
  -27.2327   -7.0626   21.8684 N   0  0  0  0  0  0  0  0  0  0  0  0
  -25.4113  -33.7555   21.5304 N   0  0  0  0  0  0  0  0  0  0  0  0
  -20.9240  -29.1401   22.7944 N   0  0  0  0  0  0  0  0  0  0  0  0
  -19.5986  -26.5064   20.7028 N   0  3  0  0  0  0  0  0  0  0  0  0
  -29.3861   -7.8432   21.7569 O   0  0  0  0  0  0  0  0  0  0  0  0
  -26.8764  -16.0313   20.8110 O   0  0  0  0  0  0  0  0  0  0  0  0
  -25.9651  -31.7673   22.6088 O   0  0  0  0  0  0  0  0  0  0  0  0
  -21.8498  -31.7885   22.2136 O   0  0  0  0  0  0  0  0  0  0  0  0
  -21.8140  -27.0451   22.3516 O   0  0  0  0  0  0  0  0  0  0  0  0
  -21.6945   -6.7102   21.3788 O   0  0  0  0  0  0  0  0  0  0  0  0
  -28.2484  -26.6181   20.1680 O   0  0  0  0  0  0  0  0  0  1  0  0
  -21.0033   -4.3723   26.3246 F   0  0  0  0  0  0  0  0  0  0  0  0
  -19.5421   -7.3836   22.9776 F   0  0  0  0  0  0  0  0  0  0  0  0
  1  2  1  0  0  0  0
  1  8  2  0  0  0  0
  2  9  2  0  0  0  0
  3  6  2  0  0  0  0
  3  7  1  0  0  0  0
  4 11  2  0  0  0  0
  4 18  1  0  0  0  0
  5 12  1  0  0  0  0
  5 18  2  0  0  0  0
  6 19  1  0  0  0  0
  7 20  2  0  0  0  0
  8 22  1  0  0  0  0
  9 24  1  0  0  0  0
 10 13  2  0  0  0  0
 10 23  1  0  0  0  0
 11 27  1  0  0  0  0
 12 27  2  0  0  0  0
 13 28  1  0  0  0  0
 14 15  2  0  0  0  0
 14 29  1  0  0  0  0
 15 30  1  0  0  0  0
 16 25  1  0  0  0  0
 16 28  2  0  0  0  0
 17 30  2  0  0  0  0
 17 31  1  0  0  0  0
 18 32  1  0  0  0  0
 19 26  2  0  0  0  0
 19 34  1  0  0  0  0
 20 26  1  0  0  0  0
 20 35  1  0  0  0  0
 21 32  1  0  0  0  0
 21 33  2  0  0  0  0
 21 38  1  0  0  0  0
 22 24  2  0  0  0  0
 22 43  1  0  0  0  0
 23 25  2  0  0  0  0
 23 44  1  0  0  0  0
 24 52  1  0  0  0  0
 25 45  1  0  0  0  0
 26 61  1  0  0  0  0
 27 80  1  0  0  0  0
 28 81  1  0  0  0  0
 29 31  2  0  0  0  0
 29 80  1  0  0  0  0
 30 82  1  0  0  0  0
 31 83  1  0  0  0  0
 32 66  2  0  0  0  0
 33 67  1  0  0  0  0
 33 70  1  0  0  0  0
 34 36  2  0  0  0  0
 35 37  2  0  0  0  0
 36 39  1  0  0  0  0
 37 62  1  0  0  0  0
 38 71  1  0  0  0  0
 38 75  2  0  0  0  0
 39 68  1  0  0  0  0
 39 76  2  0  0  0  0
 40 53  1  0  0  0  0
 40 72  1  0  0  0  0
 40 77  2  0  0  0  0
 41 63  1  0  0  0  0
 41 69  1  0  0  0  0
 41 78  2  0  0  0  0
 42 64  1  0  0  0  0
 42 73  1  0  0  0  0
 42 79  2  0  0  0  0
 43 46  1  0  0  0  0
 44 53  1  0  0  0  0
 45 69  1  0  0  0  0
 46 48  1  0  0  0  0
 47 49  1  0  0  0  0
 47 50  1  0  0  0  0
 48 52  1  0  0  0  0
 49 54  1  0  0  0  0
 50 68  1  0  0  0  0
 51 54  1  0  0  0  0
 51 68  1  0  0  0  0
 52 72  1  0  0  0  0
 53 69  1  0  0  0  0
 54 67  1  0  0  0  0
 55 61  1  0  0  0  0
 56 64  1  0  0  0  0
 57 65  1  0  0  0  0
 58 65  1  0  0  0  0
 59 65  1  0  0  0  0
 60 74  1  0  0  0  0
 62 81  1  0  0  0  0
 63 65  1  0  0  0  0
 63 73  1  0  0  0  0
 64 74  1  0  0  0  0
 66 67  1  0  0  0  0
M  CHG  1  74   1
M  ISO  4  36 100  39 100  62 101  81 101
M  END
> <Batch ID>
0123

> <Smiles>
CCc1c(C=C[101CH2:1][101O:1]c2ccc3c(c2)CN(C(=O)C(NC(=O)C(C)NC)C(C)(C)C)C(C(=O)NC2CCCc4ccccc42)C3)cccc1C=[100CH:0][100C:0](=O)N1CCCC(n2nc(-c3ccc(Oc4ccc(F)cc4F)cc3)c(C(N)=O)c2N)C1

> <Shape>
0.288

> <Color>
0.105

> <Negative vol penalty>
0.000

$$$$

  -OEChem-04052302033D

 85 93  0     1  0  0  0  0  0999 V2000
  -27.5566  -27.5659   17.0476 C   0  0  0  0  0  0  0  0  0  0  0  0
  -26.6920  -26.4948   17.2427 C   0  0  0  0  0  0  0  0  0  0  0  0
  -30.4501  -22.9053   19.3771 C   0  0  0  0  0  0  0  0  0  0  0  0
  -29.4320  -21.8514   17.4562 C   0  0  0  0  0  0  0  0  0  0  0  0
  -27.5384  -28.6416   17.9329 C   0  0  0  0  0  0  0  0  0  0  0  0
  -25.8007  -26.5044   18.3163 C   0  0  0  0  0  0  0  0  0  0  0  0
  -22.4898  -22.8705   18.5049 C   0  0  0  0  0  0  0  0  0  0  0  0
  -30.9423  -23.9218   18.5585 C   0  0  0  0  0  0  0  0  0  0  0  0
  -29.9241  -22.8679   16.6376 C   0  0  0  0  0  0  0  0  0  0  0  0
  -22.8298  -21.5569   18.8254 C   0  0  0  0  0  0  0  0  0  0  0  0
  -33.5050  -24.3590   16.3985 C   0  0  0  0  0  0  0  0  0  0  0  0
  -34.8318  -24.7500   16.5787 C   0  0  0  0  0  0  0  0  0  0  0  0
  -21.9220  -21.8682   21.0386 C   0  0  0  0  0  0  0  0  0  0  0  0
  -24.2076  -12.7112   20.4040 C   0  0  0  0  0  0  0  0  0  0  0  0
  -26.9029  -12.0087   20.5615 C   0  0  0  0  0  0  0  0  0  0  0  0
  -34.1000  -26.9932   17.0984 C   0  0  0  0  0  0  0  0  0  0  0  0
  -29.6950  -21.8700   18.8259 C   0  0  0  0  0  0  0  0  0  0  0  0
  -27.9496  -20.7915   20.3418 C   0  0  0  0  0  0  0  0  0  0  0  0
  -26.6549  -28.6579   19.0247 C   0  0  0  0  0  0  0  0  0  0  0  0
  -21.8721  -23.6976   19.4540 C   0  0  0  0  0  0  0  0  0  0  0  0
  -25.7506  -27.5919   19.2071 C   0  0  0  0  0  0  0  0  0  0  0  0
  -21.5728  -23.1911   20.7268 C   0  0  0  0  0  0  0  0  0  0  0  0
  -24.5954  -11.3857   20.2087 C   0  0  0  0  0  0  0  0  0  0  0  0
  -25.9430  -11.0344   20.2875 C   0  0  0  0  0  0  0  0  0  0  0  0
  -25.1675  -13.6856   20.6780 C   0  0  0  0  0  0  0  0  0  0  0  0
  -26.5151  -13.3342   20.7567 C   0  0  0  0  0  0  0  0  0  0  0  0
  -30.6792  -23.9032   17.1888 C   0  0  0  0  0  0  0  0  0  0  0  0
  -22.5486  -21.0565   20.0933 C   0  0  0  0  0  0  0  0  0  0  0  0
  -32.4758  -25.2851   16.5682 C   0  0  0  0  0  0  0  0  0  0  0  0
  -35.1293  -26.0671   16.9287 C   0  0  0  0  0  0  0  0  0  0  0  0
  -32.7733  -26.6021   16.9182 C   0  0  0  0  0  0  0  0  0  0  0  0
  -29.1869  -20.8194   19.6709 C   0  0  0  0  0  0  0  0  0  0  0  0
  -27.9448  -19.5880   21.0036 C   0  0  0  0  0  0  0  0  0  0  0  0
  -26.8984  -21.7664   20.3646 C   0  0  0  0  0  0  0  0  0  0  0  0
  -22.6435  -26.4244   20.8939 C   0  0  0  0  0  0  0  0  0  0  0  0
  -19.6332  -26.1966   22.0808 C   0  0  0  0  0  0  0  0  0  0  0  0
  -23.4511  -15.5226   20.8249 C   0  0  0  0  0  0  0  0  0  0  0  0
  -16.9792  -24.2080   22.8861 C   0  0  0  0  0  0  0  0  0  0  0  0
  -28.8836  -14.1014   21.1415 C   0  0  0  0  0  0  0  0  0  0  0  0
  -26.6720  -29.8510   19.9475 C   0  0  0  0  0  0  0  0  0  0  0  0
  -21.4875  -25.1038   19.0840 C   0  0  0  0  0  0  0  0  0  0  0  0
  -20.8925  -24.0319   21.7750 C   0  0  0  0  0  0  0  0  0  0  0  0
  -26.0132  -29.5705   21.2941 C   0  0  0  0  0  0  0  0  0  0  0  0
  -31.6605  -16.2381   21.7745 C   0  0  0  0  0  0  0  0  0  0  0  0
  -24.6517  -28.9254   21.0824 C   0  0  0  0  0  0  0  0  0  0  0  0
  -31.1627  -17.6182   21.3388 C   0  0  0  0  0  0  0  0  0  0  0  0
  -31.1286  -15.1307   20.8665 C   0  0  0  0  0  0  0  0  0  0  0  0
  -29.1729  -16.4986   20.2552 C   0  0  0  0  0  0  0  0  0  0  0  0
  -24.7938  -27.5664   20.3853 C   0  0  1  0  0  0  0  0  0  0  0  0
  -21.3268  -26.0176   20.2950 C   0  0  1  0  0  0  0  0  0  0  0  0
  -29.6299  -17.6397   21.1786 C   0  0  2  0  0  0  0  0  0  0  0  0
  -23.5500  -10.3598   19.9165 C   0  0  0  0  0  0  0  0  0  0  0  0
  -26.3816   -9.6216   20.0821 C   0  0  0  0  0  0  0  0  0  0  0  0
  -14.6743  -24.3035   23.8739 C   0  0  0  0  0  0  0  0  0  0  0  0
  -20.8419  -26.5054   24.8653 C   0  0  0  0  0  0  0  0  0  0  0  0
  -18.6886  -25.6551   25.8183 C   0  0  0  0  0  0  0  0  0  0  0  0
  -18.7178  -27.7748   24.5035 C   0  0  0  0  0  0  0  0  0  0  0  0
  -15.7471  -23.1644   20.4058 C   0  0  0  0  0  0  0  0  0  0  0  0
  -23.4451  -17.0215   21.0910 C   0  0  0  0  0  0  0  0  0  0  0  0
  -22.0432  -17.6198   21.0506 C   0  0  0  0  0  0  0  0  0  0  0  0
  -22.0578  -19.1084   21.3661 C   0  0  0  0  0  0  0  0  0  1  0  0
  -19.0111  -25.5684   23.3044 C   0  0  1  0  0  0  0  0  0  0  0  0
  -15.4954  -24.3414   22.5944 C   0  0  2  0  0  0  0  0  0  0  0  0
  -19.3294  -26.3604   24.6040 C   0  0  0  0  0  0  0  0  0  0  0  0
  -29.9154  -19.7209   19.8869 N   0  0  0  0  0  0  0  0  0  0  0  0
  -29.1334  -18.9915   20.7009 N   0  0  0  0  0  0  0  0  0  0  0  0
  -20.5419  -25.4024   21.3672 N   0  0  0  0  0  0  0  0  0  0  0  0
  -29.6697  -15.2111   20.7655 N   0  0  0  0  0  0  0  0  0  0  0  0
  -27.0400  -18.9924   21.8091 N   0  0  0  0  0  0  0  0  0  0  0  0
  -27.0663  -22.9473   19.6286 N   0  0  0  0  0  0  0  0  0  0  0  0
  -24.7498  -15.0236   20.8723 N   0  0  0  0  0  0  0  0  0  0  0  0
  -27.5084  -14.3060   21.0338 N   0  0  0  0  0  0  0  0  0  0  0  0
  -23.4806  -27.0858   20.0158 N   0  0  0  0  0  0  0  0  0  0  0  0
  -17.5866  -25.4389   23.0174 N   0  0  0  0  0  0  0  0  0  0  0  0
  -15.0395  -23.2317   21.7103 N   0  3  0  0  0  0  0  0  0  0  0  0
  -25.8487  -21.6025   21.0314 O   0  0  0  0  0  0  0  0  0  0  0  0
  -22.8816  -26.1591   22.0664 O   0  0  0  0  0  0  0  0  0  0  0  0
  -19.3188  -27.3470   21.7655 O   0  0  0  0  0  0  0  0  0  0  0  0
  -22.4197  -14.8962   20.6050 O   0  0  0  0  0  0  0  0  0  0  0  0
  -17.5423  -23.1206   22.9910 O   0  0  0  0  0  0  0  0  0  0  0  0
  -29.3920  -13.0567   21.5563 O   0  0  0  0  0  0  0  0  0  0  0  0
  -31.1591  -24.8951   16.3897 O   0  0  0  0  0  0  0  0  0  0  0  0
  -22.8800  -19.7749   20.4089 O   0  0  0  0  0  0  0  0  0  1  0  0
  -36.4033  -26.4421   17.1032 F   0  0  0  0  0  0  0  0  0  0  0  0
  -31.7887  -27.4960   17.0838 F   0  0  0  0  0  0  0  0  0  0  0  0
  1  2  1  0  0  0  0
  1  5  2  0  0  0  0
  2  6  2  0  0  0  0
  3  8  2  0  0  0  0
  3 17  1  0  0  0  0
  4  9  1  0  0  0  0
  4 17  2  0  0  0  0
  5 19  1  0  0  0  0
  6 21  1  0  0  0  0
  7 10  2  0  0  0  0
  7 20  1  0  0  0  0
  8 27  1  0  0  0  0
  9 27  2  0  0  0  0
 10 28  1  0  0  0  0
 11 12  2  0  0  0  0
 11 29  1  0  0  0  0
 12 30  1  0  0  0  0
 13 22  1  0  0  0  0
 13 28  2  0  0  0  0
 14 23  2  0  0  0  0
 14 25  1  0  0  0  0
 15 24  2  0  0  0  0
 15 26  1  0  0  0  0
 16 30  2  0  0  0  0
 16 31  1  0  0  0  0
 17 32  1  0  0  0  0
 18 32  1  0  0  0  0
 18 33  2  0  0  0  0
 18 34  1  0  0  0  0
 19 21  2  0  0  0  0
 19 40  1  0  0  0  0
 20 22  2  0  0  0  0
 20 41  1  0  0  0  0
 21 49  1  0  0  0  0
 22 42  1  0  0  0  0
 23 24  1  0  0  0  0
 23 52  1  0  0  0  0
 24 53  1  0  0  0  0
 25 26  2  0  0  0  0
 25 71  1  0  0  0  0
 26 72  1  0  0  0  0
 27 82  1  0  0  0  0
 28 83  1  0  0  0  0
 29 31  2  0  0  0  0
 29 82  1  0  0  0  0
 30 84  1  0  0  0  0
 31 85  1  0  0  0  0
 32 65  2  0  0  0  0
 33 66  1  0  0  0  0
 33 69  1  0  0  0  0
 34 70  1  0  0  0  0
 34 76  2  0  0  0  0
 35 50  1  0  0  0  0
 35 73  1  0  0  0  0
 35 77  2  0  0  0  0
 36 62  1  0  0  0  0
 36 67  1  0  0  0  0
 36 78  2  0  0  0  0
 37 59  1  0  0  0  0
 37 71  1  0  0  0  0
 37 79  2  0  0  0  0
 38 63  1  0  0  0  0
 38 74  1  0  0  0  0
 38 80  2  0  0  0  0
 39 68  1  0  0  0  0
 39 72  1  0  0  0  0
 39 81  2  0  0  0  0
 40 43  1  0  0  0  0
 41 50  1  0  0  0  0
 42 67  1  0  0  0  0
 43 45  1  0  0  0  0
 44 46  1  0  0  0  0
 44 47  1  0  0  0  0
 45 49  1  0  0  0  0
 46 51  1  0  0  0  0
 47 68  1  0  0  0  0
 48 51  1  0  0  0  0
 48 68  1  0  0  0  0
 49 73  1  0  0  0  0
 50 67  1  0  0  0  0
 51 66  1  0  0  0  0
 54 63  1  0  0  0  0
 55 64  1  0  0  0  0
 56 64  1  0  0  0  0
 57 64  1  0  0  0  0
 58 75  1  0  0  0  0
 59 60  1  0  0  0  0
 60 61  1  0  0  0  0
 61 83  1  0  0  0  0
 62 64  1  0  0  0  0
 62 74  1  0  0  0  0
 63 75  1  0  0  0  0
 65 66  1  0  0  0  0
M  CHG  1  75   1
M  ISO  4  39 100  61 101  72 100  83 101
M  END
> <Batch ID>
0123

> <Smiles>
CNC(C)C(=O)NC(C(=O)N1Cc2cc([101O:1][101CH2:1]CCC(=O)Nc3cc(C)c(C)cc3[100NH:0][100C:0](=O)N3CCCC(n4nc(-c5ccc(Oc6ccc(F)cc6F)cc5)c(C(N)=O)c4N)C3)ccc2CC1C(=O)NC1CCCc2ccccc21)C(C)(C)C

> <Shape>
0.218

> <Color>
0.066

> <Negative vol penalty>
0.000

$$$$

  -OEChem-04052302033D

 83 91  0     1  0  0  0  0  0999 V2000
  -19.0871  -25.1357   24.2842 C   0  0  0  0  0  0  0  0  0  0  0  0
  -20.0160  -25.0248   23.2545 C   0  0  0  0  0  0  0  0  0  0  0  0
  -23.1489  -10.3779   22.0432 C   0  0  0  0  0  0  0  0  0  0  0  0
  -24.0809   -9.5196   19.9861 C   0  0  0  0  0  0  0  0  0  0  0  0
  -18.4720  -26.3610   24.5376 C   0  0  0  0  0  0  0  0  0  0  0  0
  -20.3295  -26.1390   22.4768 C   0  0  0  0  0  0  0  0  0  0  0  0
  -25.3112  -26.6376   21.7161 C   0  0  0  0  0  0  0  0  0  0  0  0
  -22.3687   -9.2286   22.1693 C   0  0  0  0  0  0  0  0  0  0  0  0
  -23.3007   -8.3702   20.1121 C   0  0  0  0  0  0  0  0  0  0  0  0
  -25.8944  -25.8122   20.7557 C   0  0  0  0  0  0  0  0  0  0  0  0
  -22.7931   -6.0271   23.1711 C   0  0  0  0  0  0  0  0  0  0  0  0
  -22.7361   -5.4166   24.4239 C   0  0  0  0  0  0  0  0  0  0  0  0
  -23.4701  -22.0952   18.2819 C   0  0  0  0  0  0  0  0  0  0  0  0
  -25.8450  -27.6307   19.1715 C   0  0  0  0  0  0  0  0  0  0  0  0
  -20.3433   -5.7470   24.4759 C   0  0  0  0  0  0  0  0  0  0  0  0
  -22.2402  -24.1302   18.2280 C   0  0  0  0  0  0  0  0  0  0  0  0
  -24.0050  -10.5234   20.9516 C   0  0  0  0  0  0  0  0  0  0  0  0
  -22.5646  -21.6081   19.2179 C   0  0  0  0  0  0  0  0  0  0  0  0
  -26.1098  -11.9162   21.3230 C   0  0  0  0  0  0  0  0  0  0  0  0
  -18.7852  -27.4930   23.7689 C   0  0  0  0  0  0  0  0  0  0  0  0
  -24.9800  -27.9648   21.4075 C   0  0  0  0  0  0  0  0  0  0  0  0
  -19.7170  -27.3802   22.7193 C   0  0  0  0  0  0  0  0  0  0  0  0
  -25.2600  -28.4717   20.1305 C   0  0  0  0  0  0  0  0  0  0  0  0
  -22.4445   -8.2248   21.2038 C   0  0  0  0  0  0  0  0  0  0  0  0
  -26.1588  -26.3079   19.4823 C   0  0  0  0  0  0  0  0  0  0  0  0
  -21.6253   -6.4978   22.5707 C   0  0  0  0  0  0  0  0  0  0  0  0
  -23.3118  -23.3793   17.7725 C   0  0  0  0  0  0  0  0  0  0  0  0
  -21.5112   -5.2764   25.0763 C   0  0  0  0  0  0  0  0  0  0  0  0
  -20.4004   -6.3576   23.2231 C   0  0  0  0  0  0  0  0  0  0  0  0
  -24.8109  -11.7106   20.8205 C   0  0  0  0  0  0  0  0  0  0  0  0
  -21.5265  -22.4384   19.6089 C   0  0  0  0  0  0  0  0  0  0  0  0
  -26.4302  -13.1939   20.9340 C   0  0  0  0  0  0  0  0  0  0  0  0
  -22.7317  -20.2645   19.7490 C   0  0  0  0  0  0  0  0  0  0  0  0
  -22.7495  -19.1298   19.0176 C   0  0  0  0  0  0  0  0  0  0  0  0
  -26.9515  -11.0312   22.0740 C   0  0  0  0  0  0  0  0  0  0  0  0
  -22.9391  -17.8367   19.7052 C   0  0  0  0  0  0  0  0  0  0  0  0
  -22.2786  -29.6370   21.3059 C   0  0  0  0  0  0  0  0  0  0  0  0
  -24.2927  -32.1192   20.7539 C   0  0  0  0  0  0  0  0  0  0  0  0
  -27.3330  -33.1889   19.6318 C   0  0  0  0  0  0  0  0  0  0  0  0
  -18.0594  -28.7849   24.0498 C   0  0  0  0  0  0  0  0  0  0  0  0
  -24.3759  -28.8502   22.4628 C   0  0  0  0  0  0  0  0  0  0  0  0
  -24.9422  -29.8952   19.7551 C   0  0  0  0  0  0  0  0  0  0  0  0
  -18.7247  -30.0065   23.4212 C   0  0  0  0  0  0  0  0  0  0  0  0
  -25.5330  -16.4209   17.5375 C   0  0  0  0  0  0  0  0  0  0  0  0
  -19.0950  -29.7244   21.9686 C   0  0  0  0  0  0  0  0  0  0  0  0
  -25.7205  -15.0424   18.1656 C   0  0  0  0  0  0  0  0  0  0  0  0
  -24.0840  -16.8973   17.6260 C   0  0  0  0  0  0  0  0  0  0  0  0
  -23.7221  -15.5009   19.6408 C   0  0  0  0  0  0  0  0  0  0  0  0
  -20.1018  -28.5720   21.8698 C   0  0  1  0  0  0  0  0  0  0  0  0
  -23.6084  -30.0339   21.8820 C   0  0  1  0  0  0  0  0  0  0  0  0
  -25.1819  -15.0223   19.6049 C   0  0  1  0  0  0  0  0  0  0  0  0
  -20.5176  -21.9784   20.6114 C   0  0  0  0  0  0  0  0  0  0  0  0
  -28.6751  -35.2779   19.2684 C   0  0  0  0  0  0  0  0  0  0  0  0
  -22.6351  -32.7492   18.2709 C   0  0  0  0  0  0  0  0  0  0  0  0
  -24.5197  -34.1854   17.4625 C   0  0  0  0  0  0  0  0  0  0  0  0
  -23.3442  -34.7534   19.5881 C   0  0  0  0  0  0  0  0  0  0  0  0
  -29.4401  -32.3010   21.5109 C   0  0  0  0  0  0  0  0  0  0  0  0
  -26.4743  -24.4770   16.3743 C   0  0  0  0  0  0  0  0  0  0  0  0
  -26.3972  -25.7648   17.1792 C   0  0  0  0  0  0  0  0  0  1  0  0
  -25.5276  -23.4141   16.9094 C   0  0  0  0  0  0  0  0  0  0  0  0
  -24.8927  -32.7559   19.5236 C   0  0  1  0  0  0  0  0  0  0  0  0
  -28.3477  -34.1464   20.2302 C   0  0  2  0  0  0  0  0  0  0  0  0
  -23.8523  -33.5835   18.7174 C   0  0  0  0  0  0  0  0  0  0  0  0
  -21.3402  -23.6913   19.1363 N   0  0  0  0  0  0  0  0  0  0  0  0
  -24.3384  -12.7728   20.1627 N   0  0  0  0  0  0  0  0  0  0  0  0
  -25.3458  -13.6580   20.2492 N   0  0  0  0  0  0  0  0  0  0  0  0
  -23.5729  -16.8135   19.0024 N   0  0  0  0  0  0  0  0  0  0  0  0
  -24.3466  -30.7196   20.8195 N   0  0  0  0  0  0  0  0  0  0  0  0
  -27.5308  -13.9545   21.1145 N   0  0  0  0  0  0  0  0  0  0  0  0
  -26.4667   -9.7542   22.3881 N   0  0  0  0  0  0  0  0  0  0  0  0
  -21.4307  -29.0309   22.2131 N   0  0  0  0  0  0  0  0  0  0  0  0
  -26.0431  -33.5268   19.9827 N   0  0  0  0  0  0  0  0  0  0  0  0
  -29.6109  -33.4257   20.5554 N   0  3  0  0  0  0  0  0  0  0  0  0
  -28.0930  -11.3690   22.4694 O   0  0  0  0  0  0  0  0  0  0  0  0
  -22.5197  -17.7398   20.8599 O   0  0  0  0  0  0  0  0  0  0  0  0
  -22.0391  -29.8652   20.1259 O   0  0  0  0  0  0  0  0  0  0  0  0
  -23.8011  -32.8374   21.6280 O   0  0  0  0  0  0  0  0  0  0  0  0
  -27.6525  -32.2386   18.9209 O   0  0  0  0  0  0  0  0  0  0  0  0
  -21.6835   -7.1030   21.3266 O   0  0  0  0  0  0  0  0  0  0  0  0
  -26.7274  -25.5041   18.5428 O   0  0  0  0  0  0  0  0  0  1  0  0
  -24.1885  -23.8862   16.8489 O   0  0  0  0  0  0  0  0  0  0  0  0
  -21.4563   -4.6887   26.2787 F   0  0  0  0  0  0  0  0  0  0  0  0
  -19.2749   -6.8067   22.6509 F   0  0  0  0  0  0  0  0  0  0  0  0
  1  2  1  0  0  0  0
  1  5  2  0  0  0  0
  2  6  2  0  0  0  0
  3  8  2  0  0  0  0
  3 17  1  0  0  0  0
  4  9  1  0  0  0  0
  4 17  2  0  0  0  0
  5 20  1  0  0  0  0
  6 22  1  0  0  0  0
  7 10  2  0  0  0  0
  7 21  1  0  0  0  0
  8 24  1  0  0  0  0
  9 24  2  0  0  0  0
 10 25  1  0  0  0  0
 11 12  2  0  0  0  0
 11 26  1  0  0  0  0
 12 28  1  0  0  0  0
 13 18  1  0  0  0  0
 13 27  2  0  0  0  0
 14 23  1  0  0  0  0
 14 25  2  0  0  0  0
 15 28  2  0  0  0  0
 15 29  1  0  0  0  0
 16 27  1  0  0  0  0
 16 64  2  0  0  0  0
 17 30  1  0  0  0  0
 18 31  2  0  0  0  0
 18 33  1  0  0  0  0
 19 30  1  0  0  0  0
 19 32  2  0  0  0  0
 19 35  1  0  0  0  0
 20 22  2  0  0  0  0
 20 40  1  0  0  0  0
 21 23  2  0  0  0  0
 21 41  1  0  0  0  0
 22 49  1  0  0  0  0
 23 42  1  0  0  0  0
 24 79  1  0  0  0  0
 25 80  1  0  0  0  0
 26 29  2  0  0  0  0
 26 79  1  0  0  0  0
 27 81  1  0  0  0  0
 28 82  1  0  0  0  0
 29 83  1  0  0  0  0
 30 65  2  0  0  0  0
 31 52  1  0  0  0  0
 31 64  1  0  0  0  0
 32 66  1  0  0  0  0
 32 69  1  0  0  0  0
 33 34  2  0  0  0  0
 34 36  1  0  0  0  0
 35 70  1  0  0  0  0
 35 74  2  0  0  0  0
 36 67  1  0  0  0  0
 36 75  2  0  0  0  0
 37 50  1  0  0  0  0
 37 71  1  0  0  0  0
 37 76  2  0  0  0  0
 38 61  1  0  0  0  0
 38 68  1  0  0  0  0
 38 77  2  0  0  0  0
 39 62  1  0  0  0  0
 39 72  1  0  0  0  0
 39 78  2  0  0  0  0
 40 43  1  0  0  0  0
 41 50  1  0  0  0  0
 42 68  1  0  0  0  0
 43 45  1  0  0  0  0
 44 46  1  0  0  0  0
 44 47  1  0  0  0  0
 45 49  1  0  0  0  0
 46 51  1  0  0  0  0
 47 67  1  0  0  0  0
 48 51  1  0  0  0  0
 48 67  1  0  0  0  0
 49 71  1  0  0  0  0
 50 68  1  0  0  0  0
 51 66  1  0  0  0  0
 53 62  1  0  0  0  0
 54 63  1  0  0  0  0
 55 63  1  0  0  0  0
 56 63  1  0  0  0  0
 57 73  1  0  0  0  0
 58 59  1  0  0  0  0
 58 60  1  0  0  0  0
 59 80  1  0  0  0  0
 60 81  1  0  0  0  0
 61 63  1  0  0  0  0
 61 72  1  0  0  0  0
 62 73  1  0  0  0  0
 65 66  1  0  0  0  0
M  CHG  1  73   1
M  ISO  4  34 100  36 100  59 101  80 101
M  END
> <Batch ID>
0123

> <Smiles>
CNC(C)C(=O)NC(C(=O)N1Cc2cc([101O:1][101CH2:1]CCOc3cnc(C)c(C=[100CH:0][100C:0](=O)N4CCCC(n5nc(-c6ccc(Oc7ccc(F)cc7F)cc6)c(C(N)=O)c5N)C4)c3)ccc2CC1C(=O)NC1CCCc2ccccc21)C(C)(C)C

> <Shape>
0.206

> <Color>
0.113

> <Negative vol penalty>
0.000

$$$$

  -OEChem-04052302033D

 85 94  0     1  0  0  0  0  0999 V2000
  -29.4995  -35.8924   19.4529 C   0  0  0  0  0  0  0  0  0  0  0  0
  -29.8243  -34.5539   19.2566 C   0  0  0  0  0  0  0  0  0  0  0  0
  -23.0636   -9.8524   20.0129 C   0  0  0  0  0  0  0  0  0  0  0  0
  -23.7824   -9.9623   22.3168 C   0  0  0  0  0  0  0  0  0  0  0  0
  -28.6052  -36.2509   20.4607 C   0  0  0  0  0  0  0  0  0  0  0  0
  -29.2558  -33.5733   20.0687 C   0  0  0  0  0  0  0  0  0  0  0  0
  -27.6787  -27.8893   18.4223 C   0  0  0  0  0  0  0  0  0  0  0  0
  -22.3046   -8.7188   20.3037 C   0  0  0  0  0  0  0  0  0  0  0  0
  -23.0234   -8.8287   22.6077 C   0  0  0  0  0  0  0  0  0  0  0  0
  -28.3196  -26.6594   18.5654 C   0  0  0  0  0  0  0  0  0  0  0  0
  -19.3236   -8.0174   21.7370 C   0  0  0  0  0  0  0  0  0  0  0  0
  -18.0253   -7.9592   21.2307 C   0  0  0  0  0  0  0  0  0  0  0  0
  -27.0471  -26.2365   20.5707 C   0  0  0  0  0  0  0  0  0  0  0  0
  -31.1982  -17.6364   20.4442 C   0  0  0  0  0  0  0  0  0  0  0  0
  -29.5371  -17.9225   22.1752 C   0  0  0  0  0  0  0  0  0  0  0  0
  -18.5903   -5.9506   20.0128 C   0  0  0  0  0  0  0  0  0  0  0  0
  -23.8026  -10.4741   21.0194 C   0  0  0  0  0  0  0  0  0  0  0  0
  -24.1701  -12.9877   20.7858 C   0  0  0  0  0  0  0  0  0  0  0  0
  -28.0180  -35.2733   21.2793 C   0  0  0  0  0  0  0  0  0  0  0  0
  -26.7235  -28.3075   19.3599 C   0  0  0  0  0  0  0  0  0  0  0  0
  -28.3539  -33.9192   21.0892 C   0  0  0  0  0  0  0  0  0  0  0  0
  -26.3937  -27.4710   20.4358 C   0  0  0  0  0  0  0  0  0  0  0  0
  -31.3784  -19.0184   20.3887 C   0  0  0  0  0  0  0  0  0  0  0  0
  -29.7174  -19.3046   22.1196 C   0  0  0  0  0  0  0  0  0  0  0  0
  -30.6380  -19.8525   21.2264 C   0  0  0  0  0  0  0  0  0  0  0  0
  -30.2775  -17.0884   21.3375 C   0  0  0  0  0  0  0  0  0  0  0  0
  -22.2845   -8.2070   21.6011 C   0  0  0  0  0  0  0  0  0  0  0  0
  -28.0059  -25.8341   19.6413 C   0  0  0  0  0  0  0  0  0  0  0  0
  -20.2554   -7.0423   21.3812 C   0  0  0  0  0  0  0  0  0  0  0  0
  -17.6586   -6.9258   20.3686 C   0  0  0  0  0  0  0  0  0  0  0  0
  -19.8887   -6.0089   20.5191 C   0  0  0  0  0  0  0  0  0  0  0  0
  -24.5872  -11.6448   20.7195 C   0  0  0  0  0  0  0  0  0  0  0  0
  -25.2755  -13.7097   20.4073 C   0  0  0  0  0  0  0  0  0  0  0  0
  -30.4857  -23.4696   20.7112 C   0  0  0  0  0  0  0  0  0  0  0  0
  -29.7892  -24.5927   20.5070 C   0  0  0  0  0  0  0  0  0  1  0  0
  -22.8972  -13.5337   21.1564 C   0  0  0  0  0  0  0  0  0  0  0  0
  -26.4874  -30.7442   21.3873 C   0  0  0  0  0  0  0  0  0  0  0  0
  -23.5189  -29.5352   21.8860 C   0  0  0  0  0  0  0  0  0  0  0  0
  -21.4338  -26.8358   21.7751 C   0  0  0  0  0  0  0  0  0  0  0  0
  -30.7472  -14.7160   20.6321 C   0  0  0  0  0  0  0  0  0  0  0  0
  -27.0932  -35.7134   22.3864 C   0  0  0  0  0  0  0  0  0  0  0  0
  -26.0219  -29.6253   19.1766 C   0  0  0  0  0  0  0  0  0  0  0  0
  -25.3607  -27.8647   21.4587 C   0  0  0  0  0  0  0  0  0  0  0  0
  -31.7569  -23.3758   21.4944 C   0  0  0  0  0  0  0  0  0  0  0  0
  -30.0488  -22.0984   20.2912 C   0  0  0  0  0  0  0  0  0  0  0  0
  -26.2469  -34.5797   22.9598 C   0  0  0  0  0  0  0  0  0  0  0  0
  -29.6528  -12.2016   18.3612 C   0  0  0  0  0  0  0  0  0  0  0  0
  -27.1111  -33.3520   23.2292 C   0  0  0  0  0  0  0  0  0  0  0  0
  -28.2030  -11.9430   18.7778 C   0  0  0  0  0  0  0  0  0  0  0  0
  -31.6983  -21.9633   22.0691 C   0  0  0  0  0  0  0  0  0  0  0  0
  -30.5484  -12.4796   19.5672 C   0  0  0  0  0  0  0  0  0  0  0  0
  -28.6239  -13.2853   20.8773 C   0  0  0  0  0  0  0  0  0  0  0  0
  -27.7389  -32.8242   21.9336 C   0  0  1  0  0  0  0  0  0  0  0  0
  -25.4381  -30.1768   20.4737 C   0  0  1  0  0  0  0  0  0  0  0  0
  -27.6707  -13.0643   19.6915 C   0  0  2  0  0  0  0  0  0  0  0  0
  -32.3714  -19.5765   19.4214 C   0  0  0  0  0  0  0  0  0  0  0  0
  -28.9114  -20.1732   23.0304 C   0  0  0  0  0  0  0  0  0  0  0  0
  -19.0743  -26.1471   22.2812 C   0  0  0  0  0  0  0  0  0  0  0  0
  -24.1730  -29.4928   24.8660 C   0  0  0  0  0  0  0  0  0  0  0  0
  -22.2253  -27.9557   25.2005 C   0  0  0  0  0  0  0  0  0  0  0  0
  -21.8566  -30.2593   24.3172 C   0  0  0  0  0  0  0  0  0  0  0  0
  -20.9172  -26.1106   18.9527 C   0  0  0  0  0  0  0  0  0  0  0  0
  -22.9237  -28.5169   22.8281 C   0  0  1  0  0  0  0  0  0  0  0  0
  -20.0307  -26.6689   21.2201 C   0  0  2  0  0  0  0  0  0  0  0  0
  -22.8156  -29.0493   24.2849 C   0  0  0  0  0  0  0  0  0  0  0  0
  -25.8584  -11.5184   20.3294 N   0  0  0  0  0  0  0  0  0  0  0  0
  -26.2495  -12.7911   20.1471 N   0  0  0  0  0  0  0  0  0  0  0  0
  -30.8160  -21.2210   21.1718 N   0  0  3  0  0  0  0  0  0  0  0  0
  -24.7068  -29.1654   21.2395 N   0  0  0  0  0  0  0  0  0  0  0  0
  -29.9835  -13.5558   20.3842 N   0  0  0  0  0  0  0  0  0  0  0  0
  -25.4996  -15.0343   20.2750 N   0  0  0  0  0  0  0  0  0  0  0  0
  -21.8709  -12.6502   21.5179 N   0  0  0  0  0  0  0  0  0  0  0  0
  -30.0940  -15.6845   21.3936 N   0  0  0  0  0  0  0  0  0  0  0  0
  -26.7635  -32.0800   21.1660 N   0  0  0  0  0  0  0  0  0  0  0  0
  -21.6493  -28.1150   22.2426 N   0  0  0  0  0  0  0  0  0  0  0  0
  -20.0356  -25.7100   20.0794 N   0  3  0  0  0  0  0  0  0  0  0  0
  -22.6714  -14.7676   21.1508 O   0  0  0  0  0  0  0  0  0  0  0  0
  -27.0070  -30.0239   22.2316 O   0  0  0  0  0  0  0  0  0  0  0  0
  -22.9470  -30.6161   21.7240 O   0  0  0  0  0  0  0  0  0  0  0  0
  -22.2551  -25.9218   21.7956 O   0  0  0  0  0  0  0  0  0  0  0  0
  -31.8860  -14.8527   20.1777 O   0  0  0  0  0  0  0  0  0  0  0  0
  -21.5438   -7.1010   21.8853 O   0  0  0  0  0  0  0  0  0  0  0  0
  -28.6304  -24.6334   19.7837 O   0  0  0  0  0  0  0  0  0  1  0  0
  -16.4112   -6.8691   19.8837 F   0  0  0  0  0  0  0  0  0  0  0  0
  -20.7792   -5.0685   20.1746 F   0  0  0  0  0  0  0  0  0  0  0  0
  1  2  1  0  0  0  0
  1  5  2  0  0  0  0
  2  6  2  0  0  0  0
  3  8  2  0  0  0  0
  3 17  1  0  0  0  0
  4  9  1  0  0  0  0
  4 17  2  0  0  0  0
  5 19  1  0  0  0  0
  6 21  1  0  0  0  0
  7 10  2  0  0  0  0
  7 20  1  0  0  0  0
  8 27  1  0  0  0  0
  9 27  2  0  0  0  0
 10 28  1  0  0  0  0
 11 12  2  0  0  0  0
 11 29  1  0  0  0  0
 12 30  1  0  0  0  0
 13 22  1  0  0  0  0
 13 28  2  0  0  0  0
 14 23  2  0  0  0  0
 14 26  1  0  0  0  0
 15 24  1  0  0  0  0
 15 26  2  0  0  0  0
 16 30  2  0  0  0  0
 16 31  1  0  0  0  0
 17 32  1  0  0  0  0
 18 32  1  0  0  0  0
 18 33  2  0  0  0  0
 18 36  1  0  0  0  0
 19 21  2  0  0  0  0
 19 41  1  0  0  0  0
 20 22  2  0  0  0  0
 20 42  1  0  0  0  0
 21 53  1  0  0  0  0
 22 43  1  0  0  0  0
 23 25  1  0  0  0  0
 23 56  1  0  0  0  0
 24 25  2  0  0  0  0
 24 57  1  0  0  0  0
 25 68  1  0  0  0  0
 26 73  1  0  0  0  0
 27 82  1  0  0  0  0
 28 83  1  0  0  0  0
 29 31  2  0  0  0  0
 29 82  1  0  0  0  0
 30 84  1  0  0  0  0
 31 85  1  0  0  0  0
 32 66  2  0  0  0  0
 33 67  1  0  0  0  0
 33 71  1  0  0  0  0
 34 35  2  0  0  0  0
 34 44  1  0  0  0  0
 34 45  1  0  0  0  0
 35 83  1  0  0  0  0
 36 72  1  0  0  0  0
 36 77  2  0  0  0  0
 37 54  1  0  0  0  0
 37 74  1  0  0  0  0
 37 78  2  0  0  0  0
 38 63  1  0  0  0  0
 38 69  1  0  0  0  0
 38 79  2  0  0  0  0
 39 64  1  0  0  0  0
 39 75  1  0  0  0  0
 39 80  2  0  0  0  0
 40 70  1  0  0  0  0
 40 73  1  0  0  0  0
 40 81  2  0  0  0  0
 41 46  1  0  0  0  0
 42 54  1  0  0  0  0
 43 69  1  0  0  0  0
 44 50  1  0  0  0  0
 45 68  1  0  0  0  0
 46 48  1  0  0  0  0
 47 49  1  0  0  0  0
 47 51  1  0  0  0  0
 48 53  1  0  0  0  0
 49 55  1  0  0  0  0
 50 68  1  0  0  0  0
 51 70  1  0  0  0  0
 52 55  1  0  0  0  0
 52 70  1  0  0  0  0
 53 74  1  0  0  0  0
 54 69  1  0  0  0  0
 55 67  1  0  0  0  0
 58 64  1  0  0  0  0
 59 65  1  0  0  0  0
 60 65  1  0  0  0  0
 61 65  1  0  0  0  0
 62 76  1  0  0  0  0
 63 65  1  0  0  0  0
 63 75  1  0  0  0  0
 64 76  1  0  0  0  0
 66 67  1  0  0  0  0
M  CHG  1  76   1
M  ISO  4  35 101  40 100  73 100  83 101
M  END
> <Batch ID>
0123

> <Smiles>
CNC(C)C(=O)NC(C(=O)N1Cc2cc([101O:1][101CH:1]=C3CCN(c4c(C)cc([100NH:0][100C:0](=O)N5CCCC(n6nc(-c7ccc(Oc8ccc(F)cc8F)cc7)c(C(N)=O)c6N)C5)cc4C)C3)ccc2CC1C(=O)NC1CCCc2ccccc21)C(C)(C)C

> <Shape>
0.323

> <Color>
0.219

> <Negative vol penalty>
0.000

$$$$
