
  -OEChem-04052302063D

 84 92  0     1  0  0  0  0  0999 V2000
  -27.5914  -20.8645   28.4198 C   0  0  0  0  0  0  0  0  0  0  0  0
  -27.3142  -20.9005   27.0570 C   0  0  0  0  0  0  0  0  0  0  0  0
  -23.0453   -9.8774   20.5573 C   0  0  0  0  0  0  0  0  0  0  0  0
  -23.7718  -10.3520   22.8121 C   0  0  0  0  0  0  0  0  0  0  0  0
  -29.1253  -18.1730   18.5121 C   0  0  0  0  0  0  0  0  0  0  0  0
  -29.7998  -17.1812   19.2240 C   0  0  0  0  0  0  0  0  0  0  0  0
  -26.7064  -21.4476   29.3256 C   0  0  0  0  0  0  0  0  0  0  0  0
  -26.1512  -21.5188   26.5993 C   0  0  0  0  0  0  0  0  0  0  0  0
  -26.9807  -24.4847   22.5793 C   0  0  0  0  0  0  0  0  0  0  0  0
  -22.2894   -8.8033   21.0269 C   0  0  0  0  0  0  0  0  0  0  0  0
  -23.0158   -9.2779   23.2817 C   0  0  0  0  0  0  0  0  0  0  0  0
  -27.1244  -23.8562   21.3431 C   0  0  0  0  0  0  0  0  0  0  0  0
  -19.3145   -8.3344   22.5642 C   0  0  0  0  0  0  0  0  0  0  0  0
  -18.0145   -8.1951   22.0782 C   0  0  0  0  0  0  0  0  0  0  0  0
  -27.6667  -18.5384   20.4032 C   0  0  0  0  0  0  0  0  0  0  0  0
  -24.8359  -24.3995   20.8076 C   0  0  0  0  0  0  0  0  0  0  0  0
  -18.5790   -6.0195   21.1920 C   0  0  0  0  0  0  0  0  0  0  0  0
  -23.7866  -10.6517   21.4499 C   0  0  0  0  0  0  0  0  0  0  0  0
  -28.0587  -18.8517   19.1018 C   0  0  0  0  0  0  0  0  0  0  0  0
  -29.4078  -16.8678   20.5254 C   0  0  0  0  0  0  0  0  0  0  0  0
  -24.1489  -13.0969   20.8194 C   0  0  0  0  0  0  0  0  0  0  0  0
  -25.5367  -22.0818   28.8781 C   0  0  0  0  0  0  0  0  0  0  0  0
  -25.7582  -25.0668   22.9439 C   0  0  0  0  0  0  0  0  0  0  0  0
  -25.2490  -22.1098   27.5001 C   0  0  0  0  0  0  0  0  0  0  0  0
  -24.6800  -25.0370   22.0479 C   0  0  0  0  0  0  0  0  0  0  0  0
  -28.3412  -17.5464   21.1151 C   0  0  0  0  0  0  0  0  0  0  0  0
  -22.2746   -8.5036   22.3891 C   0  0  0  0  0  0  0  0  0  0  0  0
  -26.0511  -23.8110   20.4582 C   0  0  0  0  0  0  0  0  0  0  0  0
  -20.2468   -7.3163   22.3640 C   0  0  0  0  0  0  0  0  0  0  0  0
  -17.6467   -7.0376   21.3922 C   0  0  0  0  0  0  0  0  0  0  0  0
  -19.8790   -6.1588   21.6780 C   0  0  0  0  0  0  0  0  0  0  0  0
  -24.5682  -11.7609   20.9653 C   0  0  0  0  0  0  0  0  0  0  0  0
  -25.2517  -13.7511   20.3273 C   0  0  0  0  0  0  0  0  0  0  0  0
  -27.3476  -19.8987   18.3494 C   0  0  0  0  0  0  0  0  0  0  0  0
  -26.1135  -20.3473   18.6273 C   0  0  0  0  0  0  0  0  0  0  0  0
  -30.1300  -15.8280   21.2462 C   0  0  0  0  0  0  0  0  0  0  0  0
  -22.8763  -13.6931   21.1035 C   0  0  0  0  0  0  0  0  0  0  0  0
  -30.7616  -14.6944   20.5327 C   0  0  0  0  0  0  0  0  0  0  0  0
  -23.6405  -24.5709   25.2620 C   0  0  0  0  0  0  0  0  0  0  0  0
  -22.2494  -27.2285   24.0273 C   0  0  0  0  0  0  0  0  0  0  0  0
  -21.8052  -29.2833   21.3390 C   0  0  0  0  0  0  0  0  0  0  0  0
  -24.5867  -22.6568   29.8987 C   0  0  0  0  0  0  0  0  0  0  0  0
  -25.6274  -25.7644   24.2701 C   0  0  0  0  0  0  0  0  0  0  0  0
  -23.3526  -25.6647   22.3833 C   0  0  0  0  0  0  0  0  0  0  0  0
  -23.5632  -23.6202   29.3033 C   0  0  0  0  0  0  0  0  0  0  0  0
  -29.6118  -11.9682   18.5073 C   0  0  0  0  0  0  0  0  0  0  0  0
  -22.9448  -23.0288   28.0405 C   0  0  0  0  0  0  0  0  0  0  0  0
  -28.1748  -11.7565   18.9829 C   0  0  0  0  0  0  0  0  0  0  0  0
  -30.5198  -12.4066   19.6517 C   0  0  0  0  0  0  0  0  0  0  0  0
  -28.5987  -13.4200   20.8480 C   0  0  0  0  0  0  0  0  0  0  0  0
  -24.0101  -22.7929   26.9629 C   0  0  1  0  0  0  0  0  0  0  0  0
  -24.1826  -25.8744   24.7475 C   0  0  1  0  0  0  0  0  0  0  0  0
  -27.6459  -13.0033   19.7140 C   0  0  2  0  0  0  0  0  0  0  0  0
  -28.3769  -18.2737   23.5143 C   0  0  0  0  0  0  0  0  0  0  0  0
  -20.5816  -31.3540   20.6233 C   0  0  0  0  0  0  0  0  0  0  0  0
  -19.6626  -25.6241   23.8161 C   0  0  0  0  0  0  0  0  0  0  0  0
  -18.7826  -27.3796   22.2630 C   0  0  0  0  0  0  0  0  0  0  0  0
  -19.3692  -27.9764   24.6129 C   0  0  0  0  0  0  0  0  0  0  0  0
  -24.3302  -30.7203   20.7748 C   0  0  0  0  0  0  0  0  0  0  0  0
  -27.9019  -17.2304   22.5078 C   0  0  0  0  0  0  0  0  0  0  0  0
  -25.4182  -21.4117   17.8233 C   0  0  0  0  0  0  0  0  0  0  0  0
  -25.0202  -22.6013   18.6891 C   0  0  0  0  0  0  0  0  0  1  0  0
  -21.2188  -27.4968   22.9574 C   0  0  1  0  0  0  0  0  0  0  0  0
  -21.8707  -30.7939   21.2041 C   0  0  2  0  0  0  0  0  0  0  0  0
  -19.7826  -27.1056   23.4065 C   0  0  0  0  0  0  0  0  0  0  0  0
  -25.8382  -11.5758   20.5956 N   0  0  0  0  0  0  0  0  0  0  0  0
  -30.2698  -15.8236   22.5431 N   0  0  0  0  0  0  0  0  0  0  0  0
  -26.2265  -12.8041   20.2125 N   0  0  0  0  0  0  0  0  0  0  0  0
  -29.9707  -13.5693   20.3464 N   0  0  0  0  0  0  0  0  0  0  0  0
  -23.2725  -26.3294   23.6945 N   0  0  0  0  0  0  0  0  0  0  0  0
  -25.4730  -15.0383   19.9858 N   0  0  0  0  0  0  0  0  0  0  0  0
  -21.8528  -12.8770   21.6042 N   0  0  0  0  0  0  0  0  0  0  0  0
  -24.3591  -24.0395   26.3159 N   0  0  0  0  0  0  0  0  0  0  0  0
  -21.3683  -28.9007   22.5896 N   0  0  0  0  0  0  0  0  0  0  0  0
  -22.9977  -31.1858   20.3113 N   0  3  0  0  0  0  0  0  0  0  0  0
  -22.6484  -14.9103   20.9032 O   0  0  0  0  0  0  0  0  0  0  0  0
  -31.9208  -14.8721   20.1820 O   0  0  0  0  0  0  0  0  0  0  0  0
  -22.6433  -24.0840   24.7423 O   0  0  0  0  0  0  0  0  0  0  0  0
  -22.1544  -27.8011   25.1158 O   0  0  0  0  0  0  0  0  0  0  0  0
  -22.1075  -28.5191   20.4251 O   0  0  0  0  0  0  0  0  0  0  0  0
  -21.5368   -7.4558   22.8478 O   0  0  0  0  0  0  0  0  0  0  0  0
  -26.1884  -23.1975   19.2513 O   0  0  0  0  0  0  0  0  0  1  0  0
  -16.3978   -6.9033   20.9269 F   0  0  0  0  0  0  0  0  0  0  0  0
  -20.7699   -5.1768   21.4836 F   0  0  0  0  0  0  0  0  0  0  0  0
  1  2  1  0  0  0  0
  1  7  2  0  0  0  0
  2  8  2  0  0  0  0
  3 10  2  0  0  0  0
  3 18  1  0  0  0  0
  4 11  1  0  0  0  0
  4 18  2  0  0  0  0
  5  6  2  0  0  0  0
  5 19  1  0  0  0  0
  6 20  1  0  0  0  0
  7 22  1  0  0  0  0
  8 24  1  0  0  0  0
  9 12  2  0  0  0  0
  9 23  1  0  0  0  0
 10 27  1  0  0  0  0
 11 27  2  0  0  0  0
 12 28  1  0  0  0  0
 13 14  2  0  0  0  0
 13 29  1  0  0  0  0
 14 30  1  0  0  0  0
 15 19  2  0  0  0  0
 15 26  1  0  0  0  0
 16 25  1  0  0  0  0
 16 28  2  0  0  0  0
 17 30  2  0  0  0  0
 17 31  1  0  0  0  0
 18 32  1  0  0  0  0
 19 34  1  0  0  0  0
 20 26  2  0  0  0  0
 20 36  1  0  0  0  0
 21 32  1  0  0  0  0
 21 33  2  0  0  0  0
 21 37  1  0  0  0  0
 22 24  2  0  0  0  0
 22 42  1  0  0  0  0
 23 25  2  0  0  0  0
 23 43  1  0  0  0  0
 24 51  1  0  0  0  0
 25 44  1  0  0  0  0
 26 60  1  0  0  0  0
 27 81  1  0  0  0  0
 28 82  1  0  0  0  0
 29 31  2  0  0  0  0
 29 81  1  0  0  0  0
 30 83  1  0  0  0  0
 31 84  1  0  0  0  0
 32 66  2  0  0  0  0
 33 68  1  0  0  0  0
 33 71  1  0  0  0  0
 34 35  2  0  0  0  0
 35 61  1  0  0  0  0
 36 38  1  0  0  0  0
 36 67  2  0  0  0  0
 37 72  1  0  0  0  0
 37 76  2  0  0  0  0
 38 69  1  0  0  0  0
 38 77  2  0  0  0  0
 39 52  1  0  0  0  0
 39 73  1  0  0  0  0
 39 78  2  0  0  0  0
 40 63  1  0  0  0  0
 40 70  1  0  0  0  0
 40 79  2  0  0  0  0
 41 64  1  0  0  0  0
 41 74  1  0  0  0  0
 41 80  2  0  0  0  0
 42 45  1  0  0  0  0
 43 52  1  0  0  0  0
 44 70  1  0  0  0  0
 45 47  1  0  0  0  0
 46 48  1  0  0  0  0
 46 49  1  0  0  0  0
 47 51  1  0  0  0  0
 48 53  1  0  0  0  0
 49 69  1  0  0  0  0
 50 53  1  0  0  0  0
 50 69  1  0  0  0  0
 51 73  1  0  0  0  0
 52 70  1  0  0  0  0
 53 68  1  0  0  0  0
 54 60  1  0  0  0  0
 55 64  1  0  0  0  0
 56 65  1  0  0  0  0
 57 65  1  0  0  0  0
 58 65  1  0  0  0  0
 59 75  1  0  0  0  0
 61 62  1  0  0  0  0
 62 82  1  0  0  0  0
 63 65  1  0  0  0  0
 63 74  1  0  0  0  0
 64 75  1  0  0  0  0
 66 68  1  0  0  0  0
M  CHG  1  75   1
M  ISO  4  36 100  38 100  62 101  82 101
M  END
> <Batch ID>
0124

> <Smiles>
CCc1cc(C=CC[101CH2:1][101O:1]c2ccc3c(c2)CN(C(=O)C(NC(=O)C(C)NC)C(C)(C)C)C(C(=O)NC2CCCc4ccccc42)C3)ccc1[100C:0](=N)[100C:0](=O)N1CCCC(n2nc(-c3ccc(Oc4ccc(F)cc4F)cc3)c(C(N)=O)c2N)C1

> <Shape>
0.242

> <Color>
0.179

> <Negative vol penalty>
0.000

$$$$

  -OEChem-04052302063D

 84 92  0     1  0  0  0  0  0999 V2000
  -20.6799  -23.6207   23.3843 C   0  0  0  0  0  0  0  0  0  0  0  0
  -21.9011  -24.0165   22.8481 C   0  0  0  0  0  0  0  0  0  0  0  0
  -23.8386   -9.5083   20.3364 C   0  0  0  0  0  0  0  0  0  0  0  0
  -23.0584   -9.8768   22.5931 C   0  0  0  0  0  0  0  0  0  0  0  0
  -28.4802  -21.4099   18.3576 C   0  0  0  0  0  0  0  0  0  0  0  0
  -19.6458  -24.5462   23.5179 C   0  0  0  0  0  0  0  0  0  0  0  0
  -22.0884  -25.3379   22.4440 C   0  0  0  0  0  0  0  0  0  0  0  0
  -26.5329  -27.2249   23.9707 C   0  0  0  0  0  0  0  0  0  0  0  0
  -29.2659  -22.5569   18.4696 C   0  0  0  0  0  0  0  0  0  0  0  0
  -23.9393   -8.1413   20.5944 C   0  0  0  0  0  0  0  0  0  0  0  0
  -23.1590   -8.5097   22.8511 C   0  0  0  0  0  0  0  0  0  0  0  0
  -27.6652  -26.8511   23.2483 C   0  0  0  0  0  0  0  0  0  0  0  0
  -22.8667   -5.0704   23.9930 C   0  0  0  0  0  0  0  0  0  0  0  0
  -21.8084   -4.4564   24.6628 C   0  0  0  0  0  0  0  0  0  0  0  0
  -27.5982  -28.9533   22.0671 C   0  0  0  0  0  0  0  0  0  0  0  0
  -28.3717  -22.9537   20.6787 C   0  0  0  0  0  0  0  0  0  0  0  0
  -20.3078   -5.1005   22.8823 C   0  0  0  0  0  0  0  0  0  0  0  0
  -23.3982  -10.3761   21.3358 C   0  0  0  0  0  0  0  0  0  0  0  0
  -27.6402  -21.0347   19.4061 C   0  0  0  0  0  0  0  0  0  0  0  0
  -22.1745  -12.4795   20.5702 C   0  0  0  0  0  0  0  0  0  0  0  0
  -19.8236  -25.8819   23.1242 C   0  0  0  0  0  0  0  0  0  0  0  0
  -25.9173  -28.4633   23.7386 C   0  0  0  0  0  0  0  0  0  0  0  0
  -21.0551  -26.2819   22.5712 C   0  0  0  0  0  0  0  0  0  0  0  0
  -26.4597  -29.3416   22.7897 C   0  0  0  0  0  0  0  0  0  0  0  0
  -27.5860  -21.8066   20.5667 C   0  0  0  0  0  0  0  0  0  0  0  0
  -29.2116  -23.3288   19.6301 C   0  0  0  0  0  0  0  0  0  0  0  0
  -23.5995   -7.6419   21.8517 C   0  0  0  0  0  0  0  0  0  0  0  0
  -28.1964  -27.7141   22.2943 C   0  0  0  0  0  0  0  0  0  0  0  0
  -22.6455   -5.6995   22.7678 C   0  0  0  0  0  0  0  0  0  0  0  0
  -20.5290   -4.4715   24.1074 C   0  0  0  0  0  0  0  0  0  0  0  0
  -21.3661   -5.7146   22.2125 C   0  0  0  0  0  0  0  0  0  0  0  0
  -23.2945  -11.7885   21.0700 C   0  0  0  0  0  0  0  0  0  0  0  0
  -22.5828  -13.7889   20.4985 C   0  0  0  0  0  0  0  0  0  0  0  0
  -26.8322  -19.8313   19.2585 C   0  0  0  0  0  0  0  0  0  0  0  0
  -27.3139  -18.5848   19.0771 C   0  0  0  0  0  0  0  0  0  0  0  0
  -29.4561  -25.5810   19.3250 C   0  0  0  0  0  0  0  0  0  0  0  0
  -20.8806  -11.9822   20.2036 C   0  0  0  0  0  0  0  0  0  0  0  0
  -26.3629  -17.4618   18.9540 C   0  0  0  0  0  0  0  0  0  0  0  0
  -23.0506  -29.3880   22.7232 C   0  0  0  0  0  0  0  0  0  0  0  0
  -24.1801  -32.3429   23.4409 C   0  0  0  0  0  0  0  0  0  0  0  0
  -26.8792  -34.3820   23.8923 C   0  0  0  0  0  0  0  0  0  0  0  0
  -18.6610  -26.8351   23.2442 C   0  0  0  0  0  0  0  0  0  0  0  0
  -24.7122  -28.8628   24.5452 C   0  0  0  0  0  0  0  0  0  0  0  0
  -25.8483  -30.6908   22.5172 C   0  0  0  0  0  0  0  0  0  0  0  0
  -19.0640  -28.3037   23.1390 C   0  0  0  0  0  0  0  0  0  0  0  0
  -26.6852  -16.0776   22.3321 C   0  0  0  0  0  0  0  0  0  0  0  0
  -20.0110  -28.5144   21.9619 C   0  0  0  0  0  0  0  0  0  0  0  0
  -25.7680  -14.8611   22.2397 C   0  0  0  0  0  0  0  0  0  0  0  0
  -27.3978  -16.3581   21.0100 C   0  0  0  0  0  0  0  0  0  0  0  0
  -25.5524  -15.2778   19.7578 C   0  0  0  0  0  0  0  0  0  0  0  0
  -21.3050  -27.7121   22.1444 C   0  0  1  0  0  0  0  0  0  0  0  0
  -23.8644  -29.9322   23.8630 C   0  0  1  0  0  0  0  0  0  0  0  0
  -24.7894  -15.0053   21.0635 C   0  0  1  0  0  0  0  0  0  0  0  0
  -27.4727  -20.7954   22.8582 C   0  0  0  0  0  0  0  0  0  0  0  0
  -27.4858  -36.7558   24.4352 C   0  0  0  0  0  0  0  0  0  0  0  0
  -23.4379  -33.1792   20.6019 C   0  0  0  0  0  0  0  0  0  0  0  0
  -24.8957  -35.1943   20.8890 C   0  0  0  0  0  0  0  0  0  0  0  0
  -22.9075  -34.8754   22.3615 C   0  0  0  0  0  0  0  0  0  0  0  0
  -28.3186  -33.5746   26.3489 C   0  0  0  0  0  0  0  0  0  0  0  0
  -26.6979  -21.4341   21.7102 C   0  0  0  0  0  0  0  0  0  0  0  0
  -30.2004  -26.8868   19.4072 C   0  0  0  0  0  0  0  0  0  0  0  0
  -29.4263  -27.8734   20.2650 C   0  0  0  0  0  0  0  0  0  1  0  0
  -24.9405  -33.4085   22.6890 C   0  0  1  0  0  0  0  0  0  0  0  0
  -27.2248  -35.3662   24.9952 C   0  0  2  0  0  0  0  0  0  0  0  0
  -24.0560  -34.1382   21.6389 C   0  0  0  0  0  0  0  0  0  0  0  0
  -24.3362  -12.5924   21.2995 N   0  0  0  0  0  0  0  0  0  0  0  0
  -30.0017  -24.4853   19.7417 N   0  0  0  0  0  0  0  0  0  0  0  0
  -23.8724  -13.8021   20.9421 N   0  0  0  0  0  0  0  0  0  0  0  0
  -26.4463  -16.4336   19.8911 N   0  0  0  0  0  0  0  0  0  0  0  0
  -24.6674  -31.0331   23.3270 N   0  0  0  0  0  0  0  0  0  0  0  0
  -21.9609  -14.9188   20.0997 N   0  0  0  0  0  0  0  0  0  0  0  0
  -20.6290  -10.6101   20.3398 N   0  0  0  0  0  0  0  0  0  0  0  0
  -22.1826  -28.3754   23.0847 N   0  0  0  0  0  0  0  0  0  0  0  0
  -25.5170  -34.2885   23.6996 N   0  0  0  0  0  0  0  0  0  0  0  0
  -28.4434  -34.9177   25.7265 N   0  3  0  0  0  0  0  0  0  0  0  0
  -19.9799  -12.7297   19.7526 O   0  0  0  0  0  0  0  0  0  0  0  0
  -25.5547  -17.5004   18.0245 O   0  0  0  0  0  0  0  0  0  0  0  0
  -23.1982  -29.8533   21.5992 O   0  0  0  0  0  0  0  0  0  0  0  0
  -23.1945  -32.6619   24.1105 O   0  0  0  0  0  0  0  0  0  0  0  0
  -27.7324  -33.7613   23.2620 O   0  0  0  0  0  0  0  0  0  0  0  0
  -23.6974   -6.3080   22.1037 O   0  0  0  0  0  0  0  0  0  0  0  0
  -29.3011  -27.3515   21.5873 O   0  0  0  0  0  0  0  0  0  1  0  0
  -19.5131   -3.8805   24.7500 F   0  0  0  0  0  0  0  0  0  0  0  0
  -21.1477   -6.3163   21.0352 F   0  0  0  0  0  0  0  0  0  0  0  0
  1  2  1  0  0  0  0
  1  6  2  0  0  0  0
  2  7  2  0  0  0  0
  3 10  2  0  0  0  0
  3 18  1  0  0  0  0
  4 11  1  0  0  0  0
  4 18  2  0  0  0  0
  5  9  2  0  0  0  0
  5 19  1  0  0  0  0
  6 21  1  0  0  0  0
  7 23  1  0  0  0  0
  8 12  2  0  0  0  0
  8 22  1  0  0  0  0
  9 26  1  0  0  0  0
 10 27  1  0  0  0  0
 11 27  2  0  0  0  0
 12 28  1  0  0  0  0
 13 14  2  0  0  0  0
 13 29  1  0  0  0  0
 14 30  1  0  0  0  0
 15 24  1  0  0  0  0
 15 28  2  0  0  0  0
 16 25  1  0  0  0  0
 16 26  2  0  0  0  0
 17 30  2  0  0  0  0
 17 31  1  0  0  0  0
 18 32  1  0  0  0  0
 19 25  2  0  0  0  0
 19 34  1  0  0  0  0
 20 32  1  0  0  0  0
 20 33  2  0  0  0  0
 20 37  1  0  0  0  0
 21 23  2  0  0  0  0
 21 42  1  0  0  0  0
 22 24  2  0  0  0  0
 22 43  1  0  0  0  0
 23 51  1  0  0  0  0
 24 44  1  0  0  0  0
 25 60  1  0  0  0  0
 26 67  1  0  0  0  0
 27 81  1  0  0  0  0
 28 82  1  0  0  0  0
 29 31  2  0  0  0  0
 29 81  1  0  0  0  0
 30 83  1  0  0  0  0
 31 84  1  0  0  0  0
 32 66  2  0  0  0  0
 33 68  1  0  0  0  0
 33 71  1  0  0  0  0
 34 35  2  0  0  0  0
 35 38  1  0  0  0  0
 36 61  1  0  0  0  0
 36 67  2  0  0  0  0
 37 72  1  0  0  0  0
 37 76  2  0  0  0  0
 38 69  1  0  0  0  0
 38 77  2  0  0  0  0
 39 52  1  0  0  0  0
 39 73  1  0  0  0  0
 39 78  2  0  0  0  0
 40 63  1  0  0  0  0
 40 70  1  0  0  0  0
 40 79  2  0  0  0  0
 41 64  1  0  0  0  0
 41 74  1  0  0  0  0
 41 80  2  0  0  0  0
 42 45  1  0  0  0  0
 43 52  1  0  0  0  0
 44 70  1  0  0  0  0
 45 47  1  0  0  0  0
 46 48  1  0  0  0  0
 46 49  1  0  0  0  0
 47 51  1  0  0  0  0
 48 53  1  0  0  0  0
 49 69  1  0  0  0  0
 50 53  1  0  0  0  0
 50 69  1  0  0  0  0
 51 73  1  0  0  0  0
 52 70  1  0  0  0  0
 53 68  1  0  0  0  0
 54 60  1  0  0  0  0
 55 64  1  0  0  0  0
 56 65  1  0  0  0  0
 57 65  1  0  0  0  0
 58 65  1  0  0  0  0
 59 75  1  0  0  0  0
 61 62  1  0  0  0  0
 62 82  1  0  0  0  0
 63 65  1  0  0  0  0
 63 74  1  0  0  0  0
 64 75  1  0  0  0  0
 66 68  1  0  0  0  0
M  CHG  1  75   1
M  ISO  4  35 100  38 100  62 101  82 101
M  END
> <Batch ID>
0124

> <Smiles>
CCc1cc(NC=C[101CH2:1][101O:1]c2ccc3c(c2)CN(C(=O)C(NC(=O)C(C)NC)C(C)(C)C)C(C(=O)NC2CCCc4ccccc42)C3)ccc1C=[100CH:0][100C:0](=O)N1CCCC(n2nc(-c3ccc(Oc4ccc(F)cc4F)cc3)c(C(N)=O)c2N)C1

> <Shape>
0.303

> <Color>
0.091

> <Negative vol penalty>
0.000

$$$$

  -OEChem-04052302063D

 85 93  0     1  0  0  0  0  0999 V2000
  -17.7104  -24.8827   25.3966 C   0  0  0  0  0  0  0  0  0  0  0  0
  -18.4462  -24.0738   24.5365 C   0  0  0  0  0  0  0  0  0  0  0  0
  -26.3679  -13.1165   21.4916 C   0  0  0  0  0  0  0  0  0  0  0  0
  -25.1882  -14.4415   19.8516 C   0  0  0  0  0  0  0  0  0  0  0  0
  -17.6071  -26.2506   25.1475 C   0  0  0  0  0  0  0  0  0  0  0  0
  -19.0784  -24.6323   23.4262 C   0  0  0  0  0  0  0  0  0  0  0  0
  -24.9279  -23.8699   19.3619 C   0  0  0  0  0  0  0  0  0  0  0  0
  -29.6277  -25.2802   19.5934 C   0  0  0  0  0  0  0  0  0  0  0  0
  -29.3772  -24.2012   20.4411 C   0  0  0  0  0  0  0  0  0  0  0  0
  -25.3885  -12.1278   21.3974 C   0  0  0  0  0  0  0  0  0  0  0  0
  -24.2088  -13.4528   19.7573 C   0  0  0  0  0  0  0  0  0  0  0  0
  -25.3006  -23.7344   18.0253 C   0  0  0  0  0  0  0  0  0  0  0  0
  -24.5827   -9.6132   19.2855 C   0  0  0  0  0  0  0  0  0  0  0  0
  -25.0066   -8.2875   19.1938 C   0  0  0  0  0  0  0  0  0  0  0  0
  -25.1186  -26.1227   17.7388 C   0  0  0  0  0  0  0  0  0  0  0  0
  -30.2556  -22.6882   18.7748 C   0  0  0  0  0  0  0  0  0  0  0  0
  -23.8129   -7.7651   21.2284 C   0  0  0  0  0  0  0  0  0  0  0  0
  -26.2677  -14.2734   20.7188 C   0  0  0  0  0  0  0  0  0  0  0  0
  -28.4572  -15.4007   20.0532 C   0  0  0  0  0  0  0  0  0  0  0  0
  -18.2463  -26.8277   24.0389 C   0  0  0  0  0  0  0  0  0  0  0  0
  -24.6367  -25.1337   19.8951 C   0  0  0  0  0  0  0  0  0  0  0  0
  -18.9825  -26.0090   23.1612 C   0  0  0  0  0  0  0  0  0  0  0  0
  -24.7450  -26.2718   19.0831 C   0  0  0  0  0  0  0  0  0  0  0  0
  -30.1921  -25.0632   18.3364 C   0  0  0  0  0  0  0  0  0  0  0  0
  -30.5060  -23.7672   17.9271 C   0  0  0  0  0  0  0  0  0  0  0  0
  -29.6912  -22.9052   20.0318 C   0  0  0  0  0  0  0  0  0  0  0  0
  -24.3090  -12.2959   20.5302 C   0  0  0  0  0  0  0  0  0  0  0  0
  -25.3932  -24.8606   17.2128 C   0  0  0  0  0  0  0  0  0  0  0  0
  -23.7739  -10.0149   20.3486 C   0  0  0  0  0  0  0  0  0  0  0  0
  -24.6217   -7.3635   20.1652 C   0  0  0  0  0  0  0  0  0  0  0  0
  -23.3890   -9.0909   21.3200 C   0  0  0  0  0  0  0  0  0  0  0  0
  -27.2787  -15.2953   20.8161 C   0  0  0  0  0  0  0  0  0  0  0  0
  -29.0719  -16.5344   20.5258 C   0  0  0  0  0  0  0  0  0  0  0  0
  -28.9519  -14.5498   19.0107 C   0  0  0  0  0  0  0  0  0  0  0  0
  -22.0635  -26.4882   21.1786 C   0  0  0  0  0  0  0  0  0  0  0  0
  -24.1187  -28.9291   21.7617 C   0  0  0  0  0  0  0  0  0  0  0  0
  -29.3712  -22.5442   15.1059 C   0  0  0  0  0  0  0  0  0  0  0  0
  -27.0073  -30.5455   20.9311 C   0  0  0  0  0  0  0  0  0  0  0  0
  -28.8856  -21.8500   22.1728 C   0  0  0  0  0  0  0  0  0  0  0  0
  -18.0669  -28.3034   23.7844 C   0  0  0  0  0  0  0  0  0  0  0  0
  -24.2621  -25.2658   21.3458 C   0  0  0  0  0  0  0  0  0  0  0  0
  -24.4626  -27.6533   19.6124 C   0  0  0  0  0  0  0  0  0  0  0  0
  -19.0769  -28.8780   22.7944 C   0  0  0  0  0  0  0  0  0  0  0  0
  -28.0699  -19.3720   24.5959 C   0  0  0  0  0  0  0  0  0  0  0  0
  -19.1972  -27.9759   21.5703 C   0  0  0  0  0  0  0  0  0  0  0  0
  -27.8883  -18.0991   23.7658 C   0  0  0  0  0  0  0  0  0  0  0  0
  -27.5516  -20.6070   23.8612 C   0  0  0  0  0  0  0  0  0  0  0  0
  -27.9081  -19.5229   21.6778 C   0  0  0  0  0  0  0  0  0  0  0  0
  -19.7031  -26.5817   21.9600 C   0  0  1  0  0  0  0  0  0  0  0  0
  -23.4893  -26.5457   21.6492 C   0  0  1  0  0  0  0  0  0  0  0  0
  -28.4747  -18.2614   22.3497 C   0  0  2  0  0  0  0  0  0  0  0  0
  -30.4503  -26.2341   17.4460 C   0  0  0  0  0  0  0  0  0  0  0  0
  -28.4049  -32.5317   21.5628 C   0  0  0  0  0  0  0  0  0  0  0  0
  -22.1361  -30.7699   20.3507 C   0  0  0  0  0  0  0  0  0  0  0  0
  -23.9578  -32.4778   20.1692 C   0  0  0  0  0  0  0  0  0  0  0  0
  -23.1673  -31.7338   22.4152 C   0  0  0  0  0  0  0  0  0  0  0  0
  -29.3222  -28.8399   21.6319 C   0  0  0  0  0  0  0  0  0  0  0  0
  -31.1160  -23.5098   16.5796 C   0  0  0  0  0  0  0  0  0  0  0  0
  -28.4327  -22.9293   13.9762 C   0  0  0  0  0  0  0  0  0  0  0  0
  -27.4666  -24.0394   14.3737 C   0  0  0  0  0  0  0  0  0  0  0  0
  -26.6248  -23.6476   15.5794 C   0  0  0  0  0  0  0  0  0  1  0  0
  -24.5578  -30.1605   21.0068 C   0  0  1  0  0  0  0  0  0  0  0  0
  -28.1614  -31.0465   21.7806 C   0  0  2  0  0  0  0  0  0  0  0  0
  -23.4582  -31.2594   20.9747 C   0  0  0  0  0  0  0  0  0  0  0  0
  -27.1504  -16.2833   21.7058 N   0  0  0  0  0  0  0  0  0  0  0  0
  -28.2562  -17.0201   21.5050 N   0  0  0  0  0  0  0  0  0  0  0  0
  -24.0939  -27.7299   21.0357 N   0  0  0  0  0  0  0  0  0  0  0  0
  -28.1535  -20.6976   22.5291 N   0  0  0  0  0  0  0  0  0  0  0  0
  -30.2252  -17.1532   20.1950 N   0  0  0  0  0  0  0  0  0  0  0  0
  -28.1951  -13.4270   18.6490 N   0  0  0  0  0  0  0  0  0  0  0  0
  -29.4387  -21.8090   20.8934 N   0  0  0  0  0  0  0  0  0  0  0  0
  -21.1314  -26.6088   22.1916 N   0  0  0  0  0  0  0  0  0  0  0  0
  -30.1448  -23.6198   15.5170 N   0  0  0  0  0  0  0  0  0  0  0  0
  -25.8120  -30.5879   21.6172 N   0  0  0  0  0  0  0  0  0  0  0  0
  -29.4120  -30.3105   21.4413 N   0  3  0  0  0  0  0  0  0  0  0  0
  -30.0412  -14.7694   18.4286 O   0  0  0  0  0  0  0  0  0  0  0  0
  -21.8265  -26.3464   19.9847 O   0  0  0  0  0  0  0  0  0  0  0  0
  -23.8160  -29.0264   22.9536 O   0  0  0  0  0  0  0  0  0  0  0  0
  -29.4238  -21.4142   15.5839 O   0  0  0  0  0  0  0  0  0  0  0  0
  -27.1512  -30.1590   19.7733 O   0  0  0  0  0  0  0  0  0  0  0  0
  -29.0353  -22.7915   22.9558 O   0  0  0  0  0  0  0  0  0  0  0  0
  -23.3532  -11.3312   20.4378 O   0  0  0  0  0  0  0  0  0  0  0  0
  -25.7561  -24.7311   15.9076 O   0  0  0  0  0  0  0  0  0  1  0  0
  -25.0275   -6.0901   20.0763 F   0  0  0  0  0  0  0  0  0  0  0  0
  -22.6111   -9.4706   22.3431 F   0  0  0  0  0  0  0  0  0  0  0  0
  1  2  1  0  0  0  0
  1  5  2  0  0  0  0
  2  6  2  0  0  0  0
  3 10  2  0  0  0  0
  3 18  1  0  0  0  0
  4 11  1  0  0  0  0
  4 18  2  0  0  0  0
  5 20  1  0  0  0  0
  6 22  1  0  0  0  0
  7 12  2  0  0  0  0
  7 21  1  0  0  0  0
  8  9  2  0  0  0  0
  8 24  1  0  0  0  0
  9 26  1  0  0  0  0
 10 27  1  0  0  0  0
 11 27  2  0  0  0  0
 12 28  1  0  0  0  0
 13 14  2  0  0  0  0
 13 29  1  0  0  0  0
 14 30  1  0  0  0  0
 15 23  1  0  0  0  0
 15 28  2  0  0  0  0
 16 25  1  0  0  0  0
 16 26  2  0  0  0  0
 17 30  2  0  0  0  0
 17 31  1  0  0  0  0
 18 32  1  0  0  0  0
 19 32  1  0  0  0  0
 19 33  2  0  0  0  0
 19 34  1  0  0  0  0
 20 22  2  0  0  0  0
 20 40  1  0  0  0  0
 21 23  2  0  0  0  0
 21 41  1  0  0  0  0
 22 49  1  0  0  0  0
 23 42  1  0  0  0  0
 24 25  2  0  0  0  0
 24 52  1  0  0  0  0
 25 58  1  0  0  0  0
 26 71  1  0  0  0  0
 27 82  1  0  0  0  0
 28 83  1  0  0  0  0
 29 31  2  0  0  0  0
 29 82  1  0  0  0  0
 30 84  1  0  0  0  0
 31 85  1  0  0  0  0
 32 65  2  0  0  0  0
 33 66  1  0  0  0  0
 33 69  1  0  0  0  0
 34 70  1  0  0  0  0
 34 76  2  0  0  0  0
 35 50  1  0  0  0  0
 35 72  1  0  0  0  0
 35 77  2  0  0  0  0
 36 62  1  0  0  0  0
 36 67  1  0  0  0  0
 36 78  2  0  0  0  0
 37 59  1  0  0  0  0
 37 73  1  0  0  0  0
 37 79  2  0  0  0  0
 38 63  1  0  0  0  0
 38 74  1  0  0  0  0
 38 80  2  0  0  0  0
 39 68  1  0  0  0  0
 39 71  1  0  0  0  0
 39 81  2  0  0  0  0
 40 43  1  0  0  0  0
 41 50  1  0  0  0  0
 42 67  1  0  0  0  0
 43 45  1  0  0  0  0
 44 46  1  0  0  0  0
 44 47  1  0  0  0  0
 45 49  1  0  0  0  0
 46 51  1  0  0  0  0
 47 68  1  0  0  0  0
 48 51  1  0  0  0  0
 48 68  1  0  0  0  0
 49 72  1  0  0  0  0
 50 67  1  0  0  0  0
 51 66  1  0  0  0  0
 53 63  1  0  0  0  0
 54 64  1  0  0  0  0
 55 64  1  0  0  0  0
 56 64  1  0  0  0  0
 57 75  1  0  0  0  0
 58 73  1  0  0  0  0
 59 60  1  0  0  0  0
 60 61  1  0  0  0  0
 61 83  1  0  0  0  0
 62 64  1  0  0  0  0
 62 74  1  0  0  0  0
 63 75  1  0  0  0  0
 65 66  1  0  0  0  0
M  CHG  1  75   1
M  ISO  4  39 100  61 101  71 100  83 101
M  END
> <Batch ID>
0124

> <Smiles>
CNC(C)C(=O)NC(C(=O)N1Cc2cc([101O:1][101CH2:1]CCC(=O)NCc3cc([100NH:0][100C:0](=O)N4CCCC(n5nc(-c6ccc(Oc7ccc(F)cc7F)cc6)c(C(N)=O)c5N)C4)ccc3C)ccc2CC1C(=O)NC1CCCc2ccccc21)C(C)(C)C

> <Shape>
0.256

> <Color>
0.055

> <Negative vol penalty>
0.000

$$$$

  -OEChem-04052302063D

 87 95  0     1  0  0  0  0  0999 V2000
  -31.1161  -26.0381   17.4842 C   0  0  0  0  0  0  0  0  0  0  0  0
  -29.7485  -25.8298   17.6316 C   0  0  0  0  0  0  0  0  0  0  0  0
  -24.3154  -13.3354   21.7853 C   0  0  0  0  0  0  0  0  0  0  0  0
  -25.1002  -13.7866   19.5453 C   0  0  0  0  0  0  0  0  0  0  0  0
  -31.8353  -26.6780   18.4927 C   0  0  0  0  0  0  0  0  0  0  0  0
  -29.0995  -26.2605   18.7882 C   0  0  0  0  0  0  0  0  0  0  0  0
  -23.3899  -28.4343   19.2136 C   0  0  0  0  0  0  0  0  0  0  0  0
  -24.6873  -11.9983   21.6463 C   0  0  0  0  0  0  0  0  0  0  0  0
  -25.4721  -12.4494   19.4063 C   0  0  0  0  0  0  0  0  0  0  0  0
  -22.1854  -27.8400   19.5873 C   0  0  0  0  0  0  0  0  0  0  0  0
  -25.1013   -8.3870   21.7490 C   0  0  0  0  0  0  0  0  0  0  0  0
  -24.1997   -7.4134   22.1791 C   0  0  0  0  0  0  0  0  0  0  0  0
  -21.5007  -22.8579   20.3212 C   0  0  0  0  0  0  0  0  0  0  0  0
  -22.4763  -28.6754   21.8315 C   0  0  0  0  0  0  0  0  0  0  0  0
  -23.4405  -23.6802   21.5036 C   0  0  0  0  0  0  0  0  0  0  0  0
  -22.5608   -8.2360   20.6061 C   0  0  0  0  0  0  0  0  0  0  0  0
  -24.5218  -14.2296   20.7348 C   0  0  0  0  0  0  0  0  0  0  0  0
  -22.3317  -22.2576   19.3754 C   0  0  0  0  0  0  0  0  0  0  0  0
  -24.9284  -16.6673   21.3673 C   0  0  0  0  0  0  0  0  0  0  0  0
  -31.1931  -27.1253   19.6580 C   0  0  0  0  0  0  0  0  0  0  0  0
  -24.1534  -29.1456   20.1503 C   0  0  0  0  0  0  0  0  0  0  0  0
  -29.8111  -26.9058   19.8139 C   0  0  0  0  0  0  0  0  0  0  0  0
  -23.6889  -29.2800   21.4665 C   0  0  0  0  0  0  0  0  0  0  0  0
  -24.2715  -23.0798   20.5578 C   0  0  0  0  0  0  0  0  0  0  0  0
  -23.7171  -22.3685   19.4937 C   0  0  0  0  0  0  0  0  0  0  0  0
  -25.2657  -11.5553   20.4569 C   0  0  0  0  0  0  0  0  0  0  0  0
  -21.7298  -27.9580   20.8971 C   0  0  0  0  0  0  0  0  0  0  0  0
  -24.7326   -9.2852   20.7475 C   0  0  0  0  0  0  0  0  0  0  0  0
  -22.0551  -23.5693   21.3853 C   0  0  0  0  0  0  0  0  0  0  0  0
  -22.9296   -7.3379   21.6077 C   0  0  0  0  0  0  0  0  0  0  0  0
  -23.4624   -9.2097   20.1760 C   0  0  0  0  0  0  0  0  0  0  0  0
  -24.1372  -15.6109   20.8775 C   0  0  0  0  0  0  0  0  0  0  0  0
  -24.1100  -17.7683   21.3014 C   0  0  0  0  0  0  0  0  0  0  0  0
  -26.8754  -23.3939   22.9491 C   0  0  0  0  0  0  0  0  0  0  0  0
  -26.2625  -22.6616   22.0122 C   0  0  0  0  0  0  0  0  0  0  0  0
  -21.7231  -21.5226   18.2742 C   0  0  0  0  0  0  0  0  0  0  0  0
  -26.2821  -16.6545   21.8394 C   0  0  0  0  0  0  0  0  0  0  0  0
  -20.4184  -20.8402   18.4332 C   0  0  0  0  0  0  0  0  0  0  0  0
  -27.0669  -28.8222   21.3792 C   0  0  0  0  0  0  0  0  0  0  0  0
  -26.3757  -31.6729   22.7642 C   0  0  0  0  0  0  0  0  0  0  0  0
  -23.9962  -33.8660   23.8482 C   0  0  0  0  0  0  0  0  0  0  0  0
  -32.0211  -27.7699   20.7414 C   0  0  0  0  0  0  0  0  0  0  0  0
  -25.4373  -29.8035   19.7247 C   0  0  0  0  0  0  0  0  0  0  0  0
  -24.4611  -30.0503   22.5052 C   0  0  0  0  0  0  0  0  0  0  0  0
  -31.1903  -28.5301   21.7720 C   0  0  0  0  0  0  0  0  0  0  0  0
  -19.1495  -18.1506   20.4362 C   0  0  0  0  0  0  0  0  0  0  0  0
  -29.9984  -27.6908   22.2211 C   0  0  0  0  0  0  0  0  0  0  0  0
  -20.3943  -17.3162   20.7364 C   0  0  0  0  0  0  0  0  0  0  0  0
  -19.2193  -18.7779   19.0477 C   0  0  0  0  0  0  0  0  0  0  0  0
  -21.6980  -18.7678   19.1182 C   0  0  0  0  0  0  0  0  0  0  0  0
  -29.0669  -27.3807   21.0430 C   0  0  1  0  0  0  0  0  0  0  0  0
  -26.3870  -30.0691   20.8887 C   0  0  1  0  0  0  0  0  0  0  0  0
  -21.6762  -18.1406   20.5230 C   0  0  2  0  0  0  0  0  0  0  0  0
  -25.1835  -22.7371   17.4935 C   0  0  0  0  0  0  0  0  0  0  0  0
  -23.7371  -36.0948   24.9718 C   0  0  0  0  0  0  0  0  0  0  0  0
  -27.0891  -30.4018   25.4447 C   0  0  0  0  0  0  0  0  0  0  0  0
  -25.9276  -32.3078   26.5787 C   0  0  0  0  0  0  0  0  0  0  0  0
  -27.9222  -32.7406   25.1446 C   0  0  0  0  0  0  0  0  0  0  0  0
  -22.5786  -35.0078   21.5147 C   0  0  0  0  0  0  0  0  0  0  0  0
  -25.7519  -23.2134   20.7075 C   0  0  0  0  0  0  0  0  0  0  0  0
  -24.6120  -21.7259   18.4812 C   0  0  0  0  0  0  0  0  0  0  0  0
  -19.4880  -25.7654   22.7076 C   0  0  0  0  0  0  0  0  0  0  0  0
  -20.4385  -26.9491   22.6206 C   0  0  0  0  0  0  0  0  0  1  0  0
  -19.9622  -24.5919   21.8648 C   0  0  0  0  0  0  0  0  0  0  0  0
  -25.7297  -32.1038   24.0587 C   0  0  1  0  0  0  0  0  0  0  0  0
  -23.8366  -35.3616   23.6432 C   0  0  2  0  0  0  0  0  0  0  0  0
  -26.6533  -31.8723   25.2878 C   0  0  0  0  0  0  0  0  0  0  0  0
  -22.9103  -16.0053   20.5266 N   0  0  0  0  0  0  0  0  0  0  0  0
  -22.2722  -21.4181   17.0959 N   0  0  0  0  0  0  0  0  0  0  0  0
  -22.9244  -17.3218   20.7962 N   0  0  0  0  0  0  0  0  0  0  0  0
  -20.4638  -19.5224   18.8661 N   0  0  0  0  0  0  0  0  0  0  0  0
  -25.7136  -30.6700   22.0418 N   0  0  0  0  0  0  0  0  0  0  0  0
  -24.2959  -19.0652   21.6269 N   0  0  0  0  0  0  0  0  0  0  0  0
  -26.9784  -15.4381   21.8392 N   0  0  0  0  0  0  0  0  0  0  0  0
  -28.2505  -28.5332   20.7273 N   0  0  0  0  0  0  0  0  0  0  0  0
  -25.3233  -33.4922   23.8698 N   0  0  0  0  0  0  0  0  0  0  0  0
  -22.6047  -35.6479   22.8550 N   0  3  0  0  0  0  0  0  0  0  0  0
  -26.8519  -17.6879   22.2648 O   0  0  0  0  0  0  0  0  0  0  0  0
  -19.4337  -21.5156   18.1637 O   0  0  0  0  0  0  0  0  0  0  0  0
  -26.5563  -28.1713   22.2833 O   0  0  0  0  0  0  0  0  0  0  0  0
  -27.4252  -32.2114   22.4035 O   0  0  0  0  0  0  0  0  0  0  0  0
  -23.0395  -33.1059   23.9800 O   0  0  0  0  0  0  0  0  0  0  0  0
  -25.6290  -10.2506   20.3210 O   0  0  0  0  0  0  0  0  0  0  0  0
  -20.5548  -27.3783   21.2647 O   0  0  0  0  0  0  0  0  0  1  0  0
  -21.2389  -24.1594   22.3150 O   0  0  0  0  0  0  0  0  0  0  0  0
  -22.0645   -6.4019   22.0198 F   0  0  0  0  0  0  0  0  0  0  0  0
  -23.1029  -10.0690   19.2126 F   0  0  0  0  0  0  0  0  0  0  0  0
  1  2  1  0  0  0  0
  1  5  2  0  0  0  0
  2  6  2  0  0  0  0
  3  8  2  0  0  0  0
  3 17  1  0  0  0  0
  4  9  1  0  0  0  0
  4 17  2  0  0  0  0
  5 20  1  0  0  0  0
  6 22  1  0  0  0  0
  7 10  2  0  0  0  0
  7 21  1  0  0  0  0
  8 26  1  0  0  0  0
  9 26  2  0  0  0  0
 10 27  1  0  0  0  0
 11 12  2  0  0  0  0
 11 28  1  0  0  0  0
 12 30  1  0  0  0  0
 13 18  2  0  0  0  0
 13 29  1  0  0  0  0
 14 23  1  0  0  0  0
 14 27  2  0  0  0  0
 15 24  1  0  0  0  0
 15 29  2  0  0  0  0
 16 30  2  0  0  0  0
 16 31  1  0  0  0  0
 17 32  1  0  0  0  0
 18 25  1  0  0  0  0
 18 36  1  0  0  0  0
 19 32  1  0  0  0  0
 19 33  2  0  0  0  0
 19 37  1  0  0  0  0
 20 22  2  0  0  0  0
 20 42  1  0  0  0  0
 21 23  2  0  0  0  0
 21 43  1  0  0  0  0
 22 51  1  0  0  0  0
 23 44  1  0  0  0  0
 24 25  2  0  0  0  0
 24 60  1  0  0  0  0
 25 61  1  0  0  0  0
 26 83  1  0  0  0  0
 27 84  1  0  0  0  0
 28 31  2  0  0  0  0
 28 83  1  0  0  0  0
 29 85  1  0  0  0  0
 30 86  1  0  0  0  0
 31 87  1  0  0  0  0
 32 68  2  0  0  0  0
 33 70  1  0  0  0  0
 33 73  1  0  0  0  0
 34 35  2  0  0  0  0
 35 60  1  0  0  0  0
 36 38  1  0  0  0  0
 36 69  2  0  0  0  0
 37 74  1  0  0  0  0
 37 78  2  0  0  0  0
 38 71  1  0  0  0  0
 38 79  2  0  0  0  0
 39 52  1  0  0  0  0
 39 75  1  0  0  0  0
 39 80  2  0  0  0  0
 40 65  1  0  0  0  0
 40 72  1  0  0  0  0
 40 81  2  0  0  0  0
 41 66  1  0  0  0  0
 41 76  1  0  0  0  0
 41 82  2  0  0  0  0
 42 45  1  0  0  0  0
 43 52  1  0  0  0  0
 44 72  1  0  0  0  0
 45 47  1  0  0  0  0
 46 48  1  0  0  0  0
 46 49  1  0  0  0  0
 47 51  1  0  0  0  0
 48 53  1  0  0  0  0
 49 71  1  0  0  0  0
 50 53  1  0  0  0  0
 50 71  1  0  0  0  0
 51 75  1  0  0  0  0
 52 72  1  0  0  0  0
 53 70  1  0  0  0  0
 54 61  1  0  0  0  0
 55 66  1  0  0  0  0
 56 67  1  0  0  0  0
 57 67  1  0  0  0  0
 58 67  1  0  0  0  0
 59 77  1  0  0  0  0
 62 63  1  0  0  0  0
 62 64  1  0  0  0  0
 63 84  1  0  0  0  0
 64 85  1  0  0  0  0
 65 67  1  0  0  0  0
 65 76  1  0  0  0  0
 66 77  1  0  0  0  0
 68 70  1  0  0  0  0
M  CHG  1  77   1
M  ISO  4  36 100  38 100  63 101  84 101
M  END
> <Batch ID>
0124

> <Smiles>
C=CCc1cc(OCC[101CH2:1][101O:1]c2ccc3c(c2)CN(C(=O)C(NC(=O)C(C)NC)C(C)(C)C)C(C(=O)NC2CCCc4ccccc42)C3)cc([100C:0](=N)[100C:0](=O)N2CCCC(n3nc(-c4ccc(Oc5ccc(F)cc5F)cc4)c(C(N)=O)c3N)C2)c1CC

> <Shape>
0.260

> <Color>
0.073

> <Negative vol penalty>
0.000

$$$$

  -OEChem-04052302063D

 87 95  0     1  0  0  0  0  0999 V2000
  -31.0205  -33.2605   25.9913 C   0  0  0  0  0  0  0  0  0  0  0  0
  -30.9302  -32.2732   25.0153 C   0  0  0  0  0  0  0  0  0  0  0  0
  -27.4445  -11.1999   20.8943 C   0  0  0  0  0  0  0  0  0  0  0  0
  -27.2831  -11.6582   18.5277 C   0  0  0  0  0  0  0  0  0  0  0  0
  -27.8943  -19.8881   14.4769 C   0  0  0  0  0  0  0  0  0  0  0  0
  -29.9657  -33.4576   26.8815 C   0  0  0  0  0  0  0  0  0  0  0  0
  -29.7855  -31.4816   24.9298 C   0  0  0  0  0  0  0  0  0  0  0  0
  -27.2339  -29.2373   19.8348 C   0  0  0  0  0  0  0  0  0  0  0  0
  -26.3914  -10.2912   20.7902 C   0  0  0  0  0  0  0  0  0  0  0  0
  -26.2301  -10.7494   18.4235 C   0  0  0  0  0  0  0  0  0  0  0  0
  -27.3832  -21.1659   14.7041 C   0  0  0  0  0  0  0  0  0  0  0  0
  -27.3071  -27.9876   19.2212 C   0  0  0  0  0  0  0  0  0  0  0  0
  -23.5076   -8.1170   21.2142 C   0  0  0  0  0  0  0  0  0  0  0  0
  -22.5064   -8.1683   22.1840 C   0  0  0  0  0  0  0  0  0  0  0  0
  -25.2586  -27.3366   20.3161 C   0  0  0  0  0  0  0  0  0  0  0  0
  -27.9691  -20.9847   17.0410 C   0  0  0  0  0  0  0  0  0  0  0  0
  -22.0158  -10.4494   21.5569 C   0  0  0  0  0  0  0  0  0  0  0  0
  -27.8903  -11.8835   19.7630 C   0  0  0  0  0  0  0  0  0  0  0  0
  -28.4427  -19.1585   15.5317 C   0  0  0  0  0  0  0  0  0  0  0  0
  -30.3517  -12.5528   19.7239 C   0  0  0  0  0  0  0  0  0  0  0  0
  -28.8035  -32.6745   26.8007 C   0  0  0  0  0  0  0  0  0  0  0  0
  -26.1765  -29.5428   20.7037 C   0  0  0  0  0  0  0  0  0  0  0  0
  -28.7147  -31.6675   25.8206 C   0  0  0  0  0  0  0  0  0  0  0  0
  -25.1728  -28.5919   20.9375 C   0  0  0  0  0  0  0  0  0  0  0  0
  -28.4802  -19.7068   16.8138 C   0  0  0  0  0  0  0  0  0  0  0  0
  -25.7842  -10.0659   19.5548 C   0  0  0  0  0  0  0  0  0  0  0  0
  -26.3209  -27.0360   19.4640 C   0  0  0  0  0  0  0  0  0  0  0  0
  -27.4207  -21.7142   15.9861 C   0  0  0  0  0  0  0  0  0  0  0  0
  -23.7630   -9.2319   20.4158 C   0  0  0  0  0  0  0  0  0  0  0  0
  -21.7605   -9.3345   22.3554 C   0  0  0  0  0  0  0  0  0  0  0  0
  -23.0171  -10.3980   20.5871 C   0  0  0  0  0  0  0  0  0  0  0  0
  -28.9777  -12.8227   19.8701 C   0  0  0  0  0  0  0  0  0  0  0  0
  -30.9626  -13.7678   19.9167 C   0  0  0  0  0  0  0  0  0  0  0  0
  -28.9657  -17.8257   15.2559 C   0  0  0  0  0  0  0  0  0  0  0  0
  -25.3611  -25.4389   18.0502 C   0  0  0  0  0  0  0  0  0  1  0  0
  -31.0162  -11.3146   19.4394 C   0  0  0  0  0  0  0  0  0  0  0  0
  -28.2719  -16.6668   15.3089 C   0  0  0  0  0  0  0  0  0  0  0  0
  -25.2972  -24.2668   17.3983 C   0  0  0  0  0  0  0  0  0  0  0  0
  -25.9509  -30.3054   23.7813 C   0  0  0  0  0  0  0  0  0  0  0  0
  -22.8267  -30.7626   23.0380 C   0  0  0  0  0  0  0  0  0  0  0  0
  -20.2055  -30.0486   20.9724 C   0  0  0  0  0  0  0  0  0  0  0  0
  -29.1295  -19.4134   19.2301 C   0  0  0  0  0  0  0  0  0  0  0  0
  -27.7089  -32.8929   27.8151 C   0  0  0  0  0  0  0  0  0  0  0  0
  -26.0976  -30.9049   21.3369 C   0  0  0  0  0  0  0  0  0  0  0  0
  -24.0060  -28.8774   21.8461 C   0  0  0  0  0  0  0  0  0  0  0  0
  -26.3765  -32.2620   27.4188 C   0  0  0  0  0  0  0  0  0  0  0  0
  -30.3814  -17.9291   22.2145 C   0  0  0  0  0  0  0  0  0  0  0  0
  -26.5874  -30.8335   26.9274 C   0  0  0  0  0  0  0  0  0  0  0  0
  -30.2942  -16.4267   21.9363 C   0  0  0  0  0  0  0  0  0  0  0  0
  -29.2035  -18.6878   21.6056 C   0  0  0  0  0  0  0  0  0  0  0  0
  -28.8929  -16.9406   19.8969 C   0  0  0  0  0  0  0  0  0  0  0  0
  -27.4791  -30.8051   25.6801 C   0  0  1  0  0  0  0  0  0  0  0  0
  -25.2507  -30.9259   22.6056 C   0  0  1  0  0  0  0  0  0  0  0  0
  -30.0916  -16.1423   20.4351 C   0  0  2  0  0  0  0  0  0  0  0  0
  -28.9498  -15.3553   15.0151 C   0  0  0  0  0  0  0  0  0  0  0  0
  -26.8080  -16.5513   15.6350 C   0  0  0  0  0  0  0  0  0  0  0  0
  -22.9821  -23.2576   17.2639 C   0  0  0  0  0  0  0  0  0  0  0  0
  -17.7677  -30.5431   20.6403 C   0  0  0  0  0  0  0  0  0  0  0  0
  -22.1338  -28.8762   25.3340 C   0  0  0  0  0  0  0  0  0  0  0  0
  -19.8326  -28.6619   24.3712 C   0  0  0  0  0  0  0  0  0  0  0  0
  -20.6545  -30.8844   25.1510 C   0  0  0  0  0  0  0  0  0  0  0  0
  -20.6935  -31.2564   18.3150 C   0  0  0  0  0  0  0  0  0  0  0  0
  -24.1100  -23.9531   16.5141 C   0  0  0  0  0  0  0  0  0  0  0  0
  -26.3807  -23.2253   17.4996 C   0  0  0  0  0  0  0  0  0  0  0  0
  -21.5929  -29.8928   23.0231 C   0  0  1  0  0  0  0  0  0  0  0  0
  -19.1909  -30.9451   20.2858 C   0  0  2  0  0  0  0  0  0  0  0  0
  -21.0763  -29.5724   24.4542 C   0  0  0  0  0  0  0  0  0  0  0  0
  -28.7301  -14.1081   20.1353 N   0  0  0  0  0  0  0  0  0  0  0  0
  -29.9567  -14.6568   20.1575 N   0  0  0  0  0  0  0  0  0  0  0  0
  -23.9769  -30.2213   22.4466 N   0  0  0  0  0  0  0  0  0  0  0  0
  -29.0757  -18.3725   20.1811 N   0  0  0  0  0  0  0  0  0  0  0  0
  -32.2568  -14.1516   19.9020 N   0  0  0  0  0  0  0  0  0  0  0  0
  -30.2373  -10.1618   19.2701 N   0  0  0  0  0  0  0  0  0  0  0  0
  -29.0297  -18.9897   17.9053 N   0  0  0  0  0  0  0  0  0  0  0  0
  -26.7221  -31.1916   24.5088 N   0  0  0  0  0  0  0  0  0  0  0  0
  -20.6215  -30.5767   22.1763 N   0  0  0  0  0  0  0  0  0  0  0  0
  -19.3470  -30.8653   18.8059 N   0  3  0  0  0  0  0  0  0  0  0  0
  -32.2648  -11.2298   19.3545 O   0  0  0  0  0  0  0  0  0  0  0  0
  -25.8013  -29.1112   24.0122 O   0  0  0  0  0  0  0  0  0  0  0  0
  -22.7699  -31.8839   23.5490 O   0  0  0  0  0  0  0  0  0  0  0  0
  -20.5877  -28.9844   20.4909 O   0  0  0  0  0  0  0  0  0  0  0  0
  -29.2822  -20.5910   19.5647 O   0  0  0  0  0  0  0  0  0  0  0  0
  -24.7568   -9.1791   19.4528 O   0  0  0  0  0  0  0  0  0  0  0  0
  -26.3903  -25.8152   18.8669 O   0  0  0  0  0  0  0  0  0  1  0  0
  -26.9192  -22.9699   16.2089 O   0  0  0  0  0  0  0  0  0  0  0  0
  -20.7980   -9.3831   23.2857 F   0  0  0  0  0  0  0  0  0  0  0  0
  -23.2570  -11.4719   19.8222 F   0  0  0  0  0  0  0  0  0  0  0  0
  1  2  1  0  0  0  0
  1  6  2  0  0  0  0
  2  7  2  0  0  0  0
  3  9  2  0  0  0  0
  3 18  1  0  0  0  0
  4 10  1  0  0  0  0
  4 18  2  0  0  0  0
  5 11  2  0  0  0  0
  5 19  1  0  0  0  0
  6 21  1  0  0  0  0
  7 23  1  0  0  0  0
  8 12  2  0  0  0  0
  8 22  1  0  0  0  0
  9 26  1  0  0  0  0
 10 26  2  0  0  0  0
 11 28  1  0  0  0  0
 12 27  1  0  0  0  0
 13 14  2  0  0  0  0
 13 29  1  0  0  0  0
 14 30  1  0  0  0  0
 15 24  1  0  0  0  0
 15 27  2  0  0  0  0
 16 25  1  0  0  0  0
 16 28  2  0  0  0  0
 17 30  2  0  0  0  0
 17 31  1  0  0  0  0
 18 32  1  0  0  0  0
 19 25  2  0  0  0  0
 19 34  1  0  0  0  0
 20 32  1  0  0  0  0
 20 33  2  0  0  0  0
 20 36  1  0  0  0  0
 21 23  2  0  0  0  0
 21 43  1  0  0  0  0
 22 24  2  0  0  0  0
 22 44  1  0  0  0  0
 23 52  1  0  0  0  0
 24 45  1  0  0  0  0
 25 74  1  0  0  0  0
 26 83  1  0  0  0  0
 27 84  1  0  0  0  0
 28 85  1  0  0  0  0
 29 31  2  0  0  0  0
 29 83  1  0  0  0  0
 30 86  1  0  0  0  0
 31 87  1  0  0  0  0
 32 68  2  0  0  0  0
 33 69  1  0  0  0  0
 33 72  1  0  0  0  0
 34 37  2  0  0  0  0
 35 38  2  0  0  0  0
 35 84  1  0  0  0  0
 36 73  1  0  0  0  0
 36 78  2  0  0  0  0
 37 55  1  0  0  0  0
 37 56  1  0  0  0  0
 38 63  1  0  0  0  0
 38 64  1  0  0  0  0
 39 53  1  0  0  0  0
 39 75  1  0  0  0  0
 39 79  2  0  0  0  0
 40 65  1  0  0  0  0
 40 70  1  0  0  0  0
 40 80  2  0  0  0  0
 41 66  1  0  0  0  0
 41 76  1  0  0  0  0
 41 81  2  0  0  0  0
 42 71  1  0  0  0  0
 42 74  1  0  0  0  0
 42 82  2  0  0  0  0
 43 46  1  0  0  0  0
 44 53  1  0  0  0  0
 45 70  1  0  0  0  0
 46 48  1  0  0  0  0
 47 49  1  0  0  0  0
 47 50  1  0  0  0  0
 48 52  1  0  0  0  0
 49 54  1  0  0  0  0
 50 71  1  0  0  0  0
 51 54  1  0  0  0  0
 51 71  1  0  0  0  0
 52 75  1  0  0  0  0
 53 70  1  0  0  0  0
 54 69  1  0  0  0  0
 57 63  1  0  0  0  0
 58 66  1  0  0  0  0
 59 67  1  0  0  0  0
 60 67  1  0  0  0  0
 61 67  1  0  0  0  0
 62 77  1  0  0  0  0
 64 85  1  0  0  0  0
 65 67  1  0  0  0  0
 65 76  1  0  0  0  0
 66 77  1  0  0  0  0
 68 69  1  0  0  0  0
M  CHG  1  77   1
M  ISO  4  35 101  42 100  74 100  84 101
M  END
> <Batch ID>
0124

> <Smiles>
CCC(COc1ccc(C=C(C)C)c([100NH:0][100C:0](=O)N2CCCC(n3nc(-c4ccc(Oc5ccc(F)cc5F)cc4)c(C(N)=O)c3N)C2)c1)=[101CH:1][101O:1]c1ccc2c(c1)CN(C(=O)C(NC(=O)C(C)NC)C(C)(C)C)C(C(=O)NC1CCCc3ccccc31)C2

> <Shape>
0.267

> <Color>
0.088

> <Negative vol penalty>
0.000

$$$$

  -OEChem-04052302063D

 84 92  0     1  0  0  0  0  0999 V2000
  -24.2976  -21.3038   18.5379 C   0  0  0  0  0  0  0  0  0  0  0  0
  -25.4435  -21.3770   19.3234 C   0  0  0  0  0  0  0  0  0  0  0  0
  -23.1447   -9.7650   20.1209 C   0  0  0  0  0  0  0  0  0  0  0  0
  -23.8220  -10.0276   22.4251 C   0  0  0  0  0  0  0  0  0  0  0  0
  -23.8774  -22.4191   17.8144 C   0  0  0  0  0  0  0  0  0  0  0  0
  -26.1705  -22.5653   19.3850 C   0  0  0  0  0  0  0  0  0  0  0  0
  -27.5262  -23.7704   24.1130 C   0  0  0  0  0  0  0  0  0  0  0  0
  -22.4160   -8.6264   20.4648 C   0  0  0  0  0  0  0  0  0  0  0  0
  -23.0932   -8.8890   22.7690 C   0  0  0  0  0  0  0  0  0  0  0  0
  -28.6120  -23.0864   24.6580 C   0  0  0  0  0  0  0  0  0  0  0  0
  -19.8625   -8.0809   23.3434 C   0  0  0  0  0  0  0  0  0  0  0  0
  -19.0652   -8.1443   24.4862 C   0  0  0  0  0  0  0  0  0  0  0  0
  -30.0379  -24.9684   24.1641 C   0  0  0  0  0  0  0  0  0  0  0  0
  -30.2460  -18.7951   23.5652 C   0  0  0  0  0  0  0  0  0  0  0  0
  -31.8966  -16.9370   22.2979 C   0  0  0  0  0  0  0  0  0  0  0  0
  -20.3187   -6.3238   25.4617 C   0  0  0  0  0  0  0  0  0  0  0  0
  -23.8477  -10.4655   21.1010 C   0  0  0  0  0  0  0  0  0  0  0  0
  -24.1422  -12.9721   20.7297 C   0  0  0  0  0  0  0  0  0  0  0  0
  -24.5942  -23.6246   17.8748 C   0  0  0  0  0  0  0  0  0  0  0  0
  -27.6907  -25.0564   23.5787 C   0  0  0  0  0  0  0  0  0  0  0  0
  -25.7602  -23.6974   18.6606 C   0  0  0  0  0  0  0  0  0  0  0  0
  -28.9521  -25.6676   23.6152 C   0  0  0  0  0  0  0  0  0  0  0  0
  -29.6902  -17.8152   22.7427 C   0  0  0  0  0  0  0  0  0  0  0  0
  -31.6271  -18.8460   23.7539 C   0  0  0  0  0  0  0  0  0  0  0  0
  -30.5155  -16.8861   22.1091 C   0  0  0  0  0  0  0  0  0  0  0  0
  -22.3902   -8.1885   21.7888 C   0  0  0  0  0  0  0  0  0  0  0  0
  -29.8686  -23.6842   24.6810 C   0  0  0  0  0  0  0  0  0  0  0  0
  -20.8878   -7.1389   23.2597 C   0  0  0  0  0  0  0  0  0  0  0  0
  -19.2933   -7.2658   25.5454 C   0  0  0  0  0  0  0  0  0  0  0  0
  -32.4524  -17.9170   23.1203 C   0  0  0  0  0  0  0  0  0  0  0  0
  -21.1160   -6.2604   24.3189 C   0  0  0  0  0  0  0  0  0  0  0  0
  -24.6012  -11.6414   20.7462 C   0  0  0  0  0  0  0  0  0  0  0  0
  -25.2312  -13.7059   20.3269 C   0  0  0  0  0  0  0  0  0  0  0  0
  -32.5076  -20.9414   23.9976 C   0  0  0  0  0  0  0  0  0  0  0  0
  -22.8474  -13.4980   21.0499 C   0  0  0  0  0  0  0  0  0  0  0  0
  -27.3204  -26.3539   20.7007 C   0  0  0  0  0  0  0  0  0  0  0  0
  -27.9415  -29.1111   22.2925 C   0  0  0  0  0  0  0  0  0  0  0  0
  -29.3629  -30.6410   24.9918 C   0  0  0  0  0  0  0  0  0  0  0  0
  -30.6653  -14.8944   20.5738 C   0  0  0  0  0  0  0  0  0  0  0  0
  -24.1275  -24.7893   17.0379 C   0  0  0  0  0  0  0  0  0  0  0  0
  -26.5039  -25.7916   23.0187 C   0  0  0  0  0  0  0  0  0  0  0  0
  -29.1773  -27.0546   23.0729 C   0  0  0  0  0  0  0  0  0  0  0  0
  -24.7444  -26.1228   17.4522 C   0  0  0  0  0  0  0  0  0  0  0  0
  -29.6854  -12.2224   18.4344 C   0  0  0  0  0  0  0  0  0  0  0  0
  -26.2494  -25.9755   17.6524 C   0  0  0  0  0  0  0  0  0  0  0  0
  -28.2375  -11.9425   18.8438 C   0  0  0  0  0  0  0  0  0  0  0  0
  -30.5522  -12.5962   19.6355 C   0  0  0  0  0  0  0  0  0  0  0  0
  -28.5828  -13.4140   20.8693 C   0  0  0  0  0  0  0  0  0  0  0  0
  -26.5617  -24.9761   18.7727 C   0  0  1  0  0  0  0  0  0  0  0  0
  -26.8921  -26.8924   22.0364 C   0  0  1  0  0  0  0  0  0  0  0  0
  -27.6564  -13.0965   19.6841 C   0  0  2  0  0  0  0  0  0  0  0  0
  -27.7809  -18.3619   21.2123 C   0  0  0  0  0  0  0  0  0  0  0  0
  -29.7403  -32.9085   25.9985 C   0  0  0  0  0  0  0  0  0  0  0  0
  -30.1374  -29.6523   20.2444 C   0  0  0  0  0  0  0  0  0  0  0  0
  -31.0730  -31.3719   21.8051 C   0  0  0  0  0  0  0  0  0  0  0  0
  -28.7778  -31.6558   20.8701 C   0  0  0  0  0  0  0  0  0  0  0  0
  -27.8410  -29.9392   27.4311 C   0  0  0  0  0  0  0  0  0  0  0  0
  -28.2076  -17.7839   22.5579 C   0  0  0  0  0  0  0  0  0  0  0  0
  -33.1010  -22.0789   24.7848 C   0  0  0  0  0  0  0  0  0  0  0  0
  -32.2170  -23.3091   24.6677 C   0  0  0  0  0  0  0  0  0  1  0  0
  -29.1882  -29.8912   22.6335 C   0  0  1  0  0  0  0  0  0  0  0  0
  -28.8307  -31.6906   25.9507 C   0  0  2  0  0  0  0  0  0  0  0  0
  -29.7906  -30.6159   21.3968 C   0  0  0  0  0  0  0  0  0  0  0  0
  -25.8818  -11.5330   20.3827 N   0  0  0  0  0  0  0  0  0  0  0  0
  -32.1854  -19.8341   24.5823 N   0  0  0  0  0  0  0  0  0  0  0  0
  -26.2369  -12.8051   20.1338 N   0  0  0  0  0  0  0  0  0  0  0  0
  -27.9871  -27.7300   22.5300 N   0  0  0  0  0  0  0  0  0  0  0  0
  -29.9414  -13.6987   20.3814 N   0  0  0  0  0  0  0  0  0  0  0  0
  -25.4170  -15.0273   20.1224 N   0  0  0  0  0  0  0  0  0  0  0  0
  -21.8428  -12.6047   21.4462 N   0  0  0  0  0  0  0  0  0  0  0  0
  -29.9705  -15.8835   21.2692 N   0  0  0  0  0  0  0  0  0  0  0  0
  -26.3590  -25.5891   20.0679 N   0  0  0  0  0  0  0  0  0  0  0  0
  -28.8251  -30.7823   23.7300 N   0  0  0  0  0  0  0  0  0  0  0  0
  -28.7247  -31.1288   27.3269 N   0  3  0  0  0  0  0  0  0  0  0  0
  -22.5843  -14.7219   20.9706 O   0  0  0  0  0  0  0  0  0  0  0  0
  -28.4396  -26.6142   20.2749 O   0  0  0  0  0  0  0  0  0  0  0  0
  -26.9608  -29.7063   21.8391 O   0  0  0  0  0  0  0  0  0  0  0  0
  -30.1773  -29.7839   25.3275 O   0  0  0  0  0  0  0  0  0  0  0  0
  -31.8067  -15.0408   20.1291 O   0  0  0  0  0  0  0  0  0  0  0  0
  -21.6790   -7.0777   22.1249 O   0  0  0  0  0  0  0  0  0  0  0  0
  -30.9302  -23.0185   25.2118 O   0  0  0  0  0  0  0  0  0  1  0  0
  -18.5286   -7.3279   26.6433 F   0  0  0  0  0  0  0  0  0  0  0  0
  -33.7805  -17.9581   23.2969 F   0  0  0  0  0  0  0  0  0  0  0  0
  -22.1003   -5.3540   24.2448 F   0  0  0  0  0  0  0  0  0  0  0  0
  1  2  1  0  0  0  0
  1  5  2  0  0  0  0
  2  6  2  0  0  0  0
  3  8  2  0  0  0  0
  3 17  1  0  0  0  0
  4  9  1  0  0  0  0
  4 17  2  0  0  0  0
  5 19  1  0  0  0  0
  6 21  1  0  0  0  0
  7 10  2  0  0  0  0
  7 20  1  0  0  0  0
  8 26  1  0  0  0  0
  9 26  2  0  0  0  0
 10 27  1  0  0  0  0
 11 12  2  0  0  0  0
 11 28  1  0  0  0  0
 12 29  1  0  0  0  0
 13 22  1  0  0  0  0
 13 27  2  0  0  0  0
 14 23  1  0  0  0  0
 14 24  2  0  0  0  0
 15 25  1  0  0  0  0
 15 30  2  0  0  0  0
 16 29  2  0  0  0  0
 16 31  1  0  0  0  0
 17 32  1  0  0  0  0
 18 32  1  0  0  0  0
 18 33  2  0  0  0  0
 18 35  1  0  0  0  0
 19 21  2  0  0  0  0
 19 40  1  0  0  0  0
 20 22  2  0  0  0  0
 20 41  1  0  0  0  0
 21 49  1  0  0  0  0
 22 42  1  0  0  0  0
 23 25  2  0  0  0  0
 23 58  1  0  0  0  0
 24 30  1  0  0  0  0
 24 65  1  0  0  0  0
 25 71  1  0  0  0  0
 26 80  1  0  0  0  0
 27 81  1  0  0  0  0
 28 31  2  0  0  0  0
 28 80  1  0  0  0  0
 29 82  1  0  0  0  0
 30 83  1  0  0  0  0
 31 84  1  0  0  0  0
 32 64  2  0  0  0  0
 33 66  1  0  0  0  0
 33 69  1  0  0  0  0
 34 59  1  0  0  0  0
 34 65  2  0  0  0  0
 35 70  1  0  0  0  0
 35 75  2  0  0  0  0
 36 50  1  0  0  0  0
 36 72  1  0  0  0  0
 36 76  2  0  0  0  0
 37 61  1  0  0  0  0
 37 67  1  0  0  0  0
 37 77  2  0  0  0  0
 38 62  1  0  0  0  0
 38 73  1  0  0  0  0
 38 78  2  0  0  0  0
 39 68  1  0  0  0  0
 39 71  1  0  0  0  0
 39 79  2  0  0  0  0
 40 43  1  0  0  0  0
 41 50  1  0  0  0  0
 42 67  1  0  0  0  0
 43 45  1  0  0  0  0
 44 46  1  0  0  0  0
 44 47  1  0  0  0  0
 45 49  1  0  0  0  0
 46 51  1  0  0  0  0
 47 68  1  0  0  0  0
 48 51  1  0  0  0  0
 48 68  1  0  0  0  0
 49 72  1  0  0  0  0
 50 67  1  0  0  0  0
 51 66  1  0  0  0  0
 52 58  1  0  0  0  0
 53 62  1  0  0  0  0
 54 63  1  0  0  0  0
 55 63  1  0  0  0  0
 56 63  1  0  0  0  0
 57 74  1  0  0  0  0
 59 60  1  0  0  0  0
 60 81  1  0  0  0  0
 61 63  1  0  0  0  0
 61 73  1  0  0  0  0
 62 74  1  0  0  0  0
 64 66  1  0  0  0  0
M  CHG  1  74   1
M  ISO  4  39 100  60 101  71 100  81 101
M  END
> <Batch ID>
0124

> <Smiles>
CCc1cc(NC=C[101CH2:1][101O:1]c2ccc3c(c2)CN(C(=O)C(NC(=O)C(C)NC)C(C)(C)C)C(C(=O)NC2CCCc4ccccc42)C3)c(F)cc1[100NH:0][100C:0](=O)N1CCCC(n2nc(-c3ccc(Oc4ccc(F)cc4F)cc3)c(C(N)=O)c2N)C1

> <Shape>
0.220

> <Color>
0.205

> <Negative vol penalty>
0.000

$$$$

  -OEChem-04052302063D

 84 92  0     1  0  0  0  0  0999 V2000
  -25.4286  -32.4686   31.1642 C   0  0  0  0  0  0  0  0  0  0  0  0
  -26.2687  -31.5045   30.6165 C   0  0  0  0  0  0  0  0  0  0  0  0
  -22.9882   -9.9150   19.9948 C   0  0  0  0  0  0  0  0  0  0  0  0
  -23.7106   -9.9758   22.2995 C   0  0  0  0  0  0  0  0  0  0  0  0
  -30.3481  -18.9613   23.1006 C   0  0  0  0  0  0  0  0  0  0  0  0
  -24.3880  -32.9987   30.4026 C   0  0  0  0  0  0  0  0  0  0  0  0
  -26.0680  -31.0690   29.3071 C   0  0  0  0  0  0  0  0  0  0  0  0
  -30.3723  -29.4148   25.2769 C   0  0  0  0  0  0  0  0  0  0  0  0
  -29.8328  -17.7357   22.6791 C   0  0  0  0  0  0  0  0  0  0  0  0
  -22.2161   -8.7857   20.2665 C   0  0  0  0  0  0  0  0  0  0  0  0
  -22.9384   -8.8464   22.5712 C   0  0  0  0  0  0  0  0  0  0  0  0
  -30.8608  -28.1693   24.8845 C   0  0  0  0  0  0  0  0  0  0  0  0
  -23.1677   -5.5037   22.1187 C   0  0  0  0  0  0  0  0  0  0  0  0
  -23.7495   -4.4881   22.8773 C   0  0  0  0  0  0  0  0  0  0  0  0
  -29.3568  -28.1802   22.9985 C   0  0  0  0  0  0  0  0  0  0  0  0
  -31.9076  -17.2557   21.5381 C   0  0  0  0  0  0  0  0  0  0  0  0
  -22.0246   -4.7486   24.5488 C   0  0  0  0  0  0  0  0  0  0  0  0
  -23.7356  -10.5101   21.0112 C   0  0  0  0  0  0  0  0  0  0  0  0
  -31.6432  -19.3342   22.7408 C   0  0  0  0  0  0  0  0  0  0  0  0
  -24.1329  -13.0228   20.8214 C   0  0  0  0  0  0  0  0  0  0  0  0
  -24.1804  -32.5766   29.0800 C   0  0  0  0  0  0  0  0  0  0  0  0
  -29.3629  -30.0484   24.5379 C   0  0  0  0  0  0  0  0  0  0  0  0
  -25.0228  -31.5930   28.5275 C   0  0  0  0  0  0  0  0  0  0  0  0
  -28.8590  -29.4348   23.3822 C   0  0  0  0  0  0  0  0  0  0  0  0
  -30.6125  -16.8828   21.8978 C   0  0  0  0  0  0  0  0  0  0  0  0
  -22.1911   -8.2514   21.5547 C   0  0  0  0  0  0  0  0  0  0  0  0
  -30.3511  -27.5505   23.7469 C   0  0  0  0  0  0  0  0  0  0  0  0
  -22.0144   -6.1419   22.5751 C   0  0  0  0  0  0  0  0  0  0  0  0
  -23.1780   -4.1105   24.0924 C   0  0  0  0  0  0  0  0  0  0  0  0
  -32.4230  -18.4814   21.9596 C   0  0  0  0  0  0  0  0  0  0  0  0
  -21.4428   -5.7643   23.7901 C   0  0  0  0  0  0  0  0  0  0  0  0
  -24.5339  -11.6764   20.7310 C   0  0  0  0  0  0  0  0  0  0  0  0
  -25.2465  -13.7381   20.4544 C   0  0  0  0  0  0  0  0  0  0  0  0
  -32.1833  -20.6305   23.1882 C   0  0  0  0  0  0  0  0  0  0  0  0
  -31.4436  -21.7353   23.3866 C   0  0  0  0  0  0  0  0  0  0  0  0
  -31.0457  -24.0514   23.9689 C   0  0  0  0  0  0  0  0  0  0  0  0
  -22.8669  -13.5773   21.2031 C   0  0  0  0  0  0  0  0  0  0  0  0
  -31.9355  -23.0474   23.8200 C   0  0  0  0  0  0  0  0  0  0  0  0
  -26.3869  -30.9836   25.1481 C   0  0  0  0  0  0  0  0  0  0  0  0
  -26.6000  -32.2780   22.1814 C   0  0  0  0  0  0  0  0  0  0  0  0
  -28.0802  -32.2473   19.1065 C   0  0  0  0  0  0  0  0  0  0  0  0
  -30.7300  -14.6750   20.6904 C   0  0  0  0  0  0  0  0  0  0  0  0
  -23.0132  -33.1442   28.3116 C   0  0  0  0  0  0  0  0  0  0  0  0
  -28.8655  -31.4039   24.9593 C   0  0  0  0  0  0  0  0  0  0  0  0
  -27.7892  -30.0824   22.5427 C   0  0  0  0  0  0  0  0  0  0  0  0
  -23.0990  -32.9019   26.8069 C   0  0  0  0  0  0  0  0  0  0  0  0
  -29.6034  -12.2141   18.3769 C   0  0  0  0  0  0  0  0  0  0  0  0
  -23.4748  -31.4516   26.5202 C   0  0  0  0  0  0  0  0  0  0  0  0
  -28.1511  -11.9656   18.7906 C   0  0  0  0  0  0  0  0  0  0  0  0
  -30.5034  -12.4602   19.5865 C   0  0  0  0  0  0  0  0  0  0  0  0
  -28.5900  -13.2656   20.9129 C   0  0  0  0  0  0  0  0  0  0  0  0
  -24.8524  -31.1132   27.1024 C   0  0  1  0  0  0  0  0  0  0  0  0
  -27.4741  -31.7236   24.4215 C   0  0  1  0  0  0  0  0  0  0  0  0
  -27.6331  -13.0769   19.7245 C   0  0  2  0  0  0  0  0  0  0  0  0
  -33.4133  -23.1873   24.0765 C   0  0  0  0  0  0  0  0  0  0  0  0
  -28.0178  -33.4005   16.8786 C   0  0  0  0  0  0  0  0  0  0  0  0
  -24.0399  -30.7746   21.4777 C   0  0  0  0  0  0  0  0  0  0  0  0
  -24.5482  -31.1814   19.0602 C   0  0  0  0  0  0  0  0  0  0  0  0
  -24.1548  -33.1105   20.5920 C   0  0  0  0  0  0  0  0  0  0  0  0
  -30.8895  -33.1430   19.3611 C   0  0  0  0  0  0  0  0  0  0  0  0
  -31.2960  -25.4655   24.3915 C   0  0  0  0  0  0  0  0  0  1  0  0
  -26.3063  -31.7963   20.7811 C   0  0  1  0  0  0  0  0  0  0  0  0
  -28.6601  -33.3634   18.2565 C   0  0  2  0  0  0  0  0  0  0  0  0
  -24.7811  -31.7024   20.4944 C   0  0  0  0  0  0  0  0  0  0  0  0
  -25.8031  -11.5417   20.3373 N   0  0  0  0  0  0  0  0  0  0  0  0
  -26.2092  -12.8127   20.1770 N   0  0  0  0  0  0  0  0  0  0  0  0
  -27.3308  -31.4048   22.9995 N   0  0  0  0  0  0  0  0  0  0  0  0
  -29.9522  -13.5285   20.4230 N   0  0  0  0  0  0  0  0  0  0  0  0
  -25.4862  -15.0621   20.3452 N   0  0  0  0  0  0  0  0  0  0  0  0
  -21.8306  -12.6999   21.5503 N   0  0  0  0  0  0  0  0  0  0  0  0
  -30.0892  -15.6376   21.4696 N   0  0  0  0  0  0  0  0  0  0  0  0
  -25.9018  -31.6455   26.2599 N   0  0  0  0  0  0  0  0  0  0  0  0
  -27.0294  -32.6893   19.8822 N   0  0  0  0  0  0  0  0  0  0  0  0
  -30.1285  -33.1749   18.0856 N   0  3  0  0  0  0  0  0  0  0  0  0
  -22.6560  -14.8137   21.2196 O   0  0  0  0  0  0  0  0  0  0  0  0
  -26.0145  -29.8935   24.7300 O   0  0  0  0  0  0  0  0  0  0  0  0
  -26.2020  -33.3911   22.5339 O   0  0  0  0  0  0  0  0  0  0  0  0
  -28.5135  -31.0974   19.0818 O   0  0  0  0  0  0  0  0  0  0  0  0
  -31.8699  -14.8060   20.2371 O   0  0  0  0  0  0  0  0  0  0  0  0
  -21.4376   -7.1495   21.8203 O   0  0  0  0  0  0  0  0  0  0  0  0
  -30.8257  -26.3346   23.3620 O   0  0  0  0  0  0  0  0  0  1  0  0
  -23.7359   -3.1341   24.8201 F   0  0  0  0  0  0  0  0  0  0  0  0
  -33.6696  -18.8261   21.6052 F   0  0  0  0  0  0  0  0  0  0  0  0
  -20.3342   -6.3728   24.2332 F   0  0  0  0  0  0  0  0  0  0  0  0
  1  2  1  0  0  0  0
  1  6  2  0  0  0  0
  2  7  2  0  0  0  0
  3 10  2  0  0  0  0
  3 18  1  0  0  0  0
  4 11  1  0  0  0  0
  4 18  2  0  0  0  0
  5  9  2  0  0  0  0
  5 19  1  0  0  0  0
  6 21  1  0  0  0  0
  7 23  1  0  0  0  0
  8 12  2  0  0  0  0
  8 22  1  0  0  0  0
  9 25  1  0  0  0  0
 10 26  1  0  0  0  0
 11 26  2  0  0  0  0
 12 27  1  0  0  0  0
 13 14  2  0  0  0  0
 13 28  1  0  0  0  0
 14 29  1  0  0  0  0
 15 24  1  0  0  0  0
 15 27  2  0  0  0  0
 16 25  2  0  0  0  0
 16 30  1  0  0  0  0
 17 29  2  0  0  0  0
 17 31  1  0  0  0  0
 18 32  1  0  0  0  0
 19 30  2  0  0  0  0
 19 34  1  0  0  0  0
 20 32  1  0  0  0  0
 20 33  2  0  0  0  0
 20 37  1  0  0  0  0
 21 23  2  0  0  0  0
 21 43  1  0  0  0  0
 22 24  2  0  0  0  0
 22 44  1  0  0  0  0
 23 52  1  0  0  0  0
 24 45  1  0  0  0  0
 25 71  1  0  0  0  0
 26 80  1  0  0  0  0
 27 81  1  0  0  0  0
 28 31  2  0  0  0  0
 28 80  1  0  0  0  0
 29 82  1  0  0  0  0
 30 83  1  0  0  0  0
 31 84  1  0  0  0  0
 32 65  2  0  0  0  0
 33 66  1  0  0  0  0
 33 69  1  0  0  0  0
 34 35  2  0  0  0  0
 35 38  1  0  0  0  0
 36 38  2  0  0  0  0
 36 61  1  0  0  0  0
 37 70  1  0  0  0  0
 37 75  2  0  0  0  0
 38 55  1  0  0  0  0
 39 53  1  0  0  0  0
 39 72  1  0  0  0  0
 39 76  2  0  0  0  0
 40 62  1  0  0  0  0
 40 67  1  0  0  0  0
 40 77  2  0  0  0  0
 41 63  1  0  0  0  0
 41 73  1  0  0  0  0
 41 78  2  0  0  0  0
 42 68  1  0  0  0  0
 42 71  1  0  0  0  0
 42 79  2  0  0  0  0
 43 46  1  0  0  0  0
 44 53  1  0  0  0  0
 45 67  1  0  0  0  0
 46 48  1  0  0  0  0
 47 49  1  0  0  0  0
 47 50  1  0  0  0  0
 48 52  1  0  0  0  0
 49 54  1  0  0  0  0
 50 68  1  0  0  0  0
 51 54  1  0  0  0  0
 51 68  1  0  0  0  0
 52 72  1  0  0  0  0
 53 67  1  0  0  0  0
 54 66  1  0  0  0  0
 56 63  1  0  0  0  0
 57 64  1  0  0  0  0
 58 64  1  0  0  0  0
 59 64  1  0  0  0  0
 60 74  1  0  0  0  0
 61 81  1  0  0  0  0
 62 64  1  0  0  0  0
 62 73  1  0  0  0  0
 63 74  1  0  0  0  0
 65 66  1  0  0  0  0
M  CHG  1  74   1
M  ISO  4  42 100  61 101  71 100  81 101
M  END
> <Batch ID>
0124

> <Smiles>
CNC(C)C(=O)NC(C(=O)N1Cc2cc([101O:1][101CH2:1]C=C(C)C=Cc3ccc([100NH:0][100C:0](=O)N4CCCC(n5nc(-c6ccc(Oc7ccc(F)cc7F)cc6)c(C(N)=O)c5N)C4)cc3F)ccc2CC1C(=O)NC1CCCc2ccccc21)C(C)(C)C

> <Shape>
0.270

> <Color>
0.204

> <Negative vol penalty>
0.000

$$$$

  -OEChem-04052302063D

 84 92  0     1  0  0  0  0  0999 V2000
  -28.6144  -26.4934   13.6006 C   0  0  0  0  0  0  0  0  0  0  0  0
  -28.5150  -25.8734   14.8420 C   0  0  0  0  0  0  0  0  0  0  0  0
  -23.6297  -11.7225   19.1688 C   0  0  0  0  0  0  0  0  0  0  0  0
  -25.0350  -11.2339   21.0723 C   0  0  0  0  0  0  0  0  0  0  0  0
  -28.2720  -27.8381   13.4647 C   0  0  0  0  0  0  0  0  0  0  0  0
  -28.0741  -26.5982   15.9487 C   0  0  0  0  0  0  0  0  0  0  0  0
  -24.6872  -24.0475   18.7177 C   0  0  0  0  0  0  0  0  0  0  0  0
  -23.2552  -10.3806   19.1008 C   0  0  0  0  0  0  0  0  0  0  0  0
  -24.6605   -9.8919   21.0043 C   0  0  0  0  0  0  0  0  0  0  0  0
  -25.1766  -23.0584   19.5696 C   0  0  0  0  0  0  0  0  0  0  0  0
  -22.0115   -7.9981   21.9081 C   0  0  0  0  0  0  0  0  0  0  0  0
  -21.6744   -7.3596   23.1016 C   0  0  0  0  0  0  0  0  0  0  0  0
  -30.2910  -17.6118   21.5645 C   0  0  0  0  0  0  0  0  0  0  0  0
  -31.0833  -15.6407   22.7149 C   0  0  0  0  0  0  0  0  0  0  0  0
  -24.9998  -24.5825   21.4311 C   0  0  0  0  0  0  0  0  0  0  0  0
  -30.3512  -17.5648   23.9793 C   0  0  0  0  0  0  0  0  0  0  0  0
  -23.4564   -5.7660   22.7525 C   0  0  0  0  0  0  0  0  0  0  0  0
  -24.5196  -12.1492   20.1545 C   0  0  0  0  0  0  0  0  0  0  0  0
  -30.7992  -16.3134   21.5265 C   0  0  0  0  0  0  0  0  0  0  0  0
  -24.2745  -14.5588   20.9552 C   0  0  0  0  0  0  0  0  0  0  0  0
  -27.8175  -28.5772   14.5683 C   0  0  0  0  0  0  0  0  0  0  0  0
  -24.3601  -25.3172   19.2151 C   0  0  0  0  0  0  0  0  0  0  0  0
  -27.7266  -27.9544   15.8278 C   0  0  0  0  0  0  0  0  0  0  0  0
  -24.5040  -25.5852   20.5839 C   0  0  0  0  0  0  0  0  0  0  0  0
  -23.7705   -9.4653   20.0185 C   0  0  0  0  0  0  0  0  0  0  0  0
  -25.3357  -23.3266   20.9260 C   0  0  0  0  0  0  0  0  0  0  0  0
  -23.0711   -7.5205   21.1368 C   0  0  0  0  0  0  0  0  0  0  0  0
  -30.0670  -18.2376   22.7909 C   0  0  0  0  0  0  0  0  0  0  0  0
  -22.3968   -6.2437   23.5238 C   0  0  0  0  0  0  0  0  0  0  0  0
  -30.8593  -16.2664   23.9414 C   0  0  0  0  0  0  0  0  0  0  0  0
  -23.7936   -6.4045   21.5590 C   0  0  0  0  0  0  0  0  0  0  0  0
  -24.9073  -13.5351   20.2249 C   0  0  0  0  0  0  0  0  0  0  0  0
  -25.0221  -15.6806   20.6924 C   0  0  0  0  0  0  0  0  0  0  0  0
  -31.0329  -15.6608   20.2480 C   0  0  0  0  0  0  0  0  0  0  0  0
  -23.1146  -14.5008   21.7961 C   0  0  0  0  0  0  0  0  0  0  0  0
  -30.7421  -16.3464   18.9679 C   0  0  0  0  0  0  0  0  0  0  0  0
  -25.4087  -28.2712   18.6878 C   0  0  0  0  0  0  0  0  0  0  0  0
  -27.6943  -20.9176   22.2449 C   0  0  0  0  0  0  0  0  0  0  0  0
  -22.9428  -29.0764   20.6355 C   0  0  0  0  0  0  0  0  0  0  0  0
  -20.7825  -28.1486   23.1093 C   0  0  0  0  0  0  0  0  0  0  0  0
  -27.5039  -30.0406   14.3824 C   0  0  0  0  0  0  0  0  0  0  0  0
  -23.8081  -26.3649   18.2877 C   0  0  0  0  0  0  0  0  0  0  0  0
  -24.1482  -26.9257   21.1712 C   0  0  0  0  0  0  0  0  0  0  0  0
  -26.6886  -30.6389   15.5259 C   0  0  0  0  0  0  0  0  0  0  0  0
  -27.8146  -17.6337   17.3464 C   0  0  0  0  0  0  0  0  0  0  0  0
  -27.2728  -30.2235   16.8724 C   0  0  0  0  0  0  0  0  0  0  0  0
  -26.6841  -16.7939   17.9401 C   0  0  0  0  0  0  0  0  0  0  0  0
  -29.0958  -16.8196   17.1974 C   0  0  0  0  0  0  0  0  0  0  0  0
  -28.4246  -15.3363   19.0676 C   0  0  0  0  0  0  0  0  0  0  0  0
  -27.2288  -28.7006   17.0466 C   0  0  1  0  0  0  0  0  0  0  0  0
  -23.9925  -27.7851   18.8133 C   0  0  1  0  0  0  0  0  0  0  0  0
  -27.1218  -16.1322   19.2589 C   0  0  2  0  0  0  0  0  0  0  0  0
  -18.9059  -29.0344   24.5203 C   0  0  0  0  0  0  0  0  0  0  0  0
  -24.9520  -30.6239   22.3320 C   0  0  0  0  0  0  0  0  0  0  0  0
  -23.2554  -30.6720   24.1726 C   0  0  0  0  0  0  0  0  0  0  0  0
  -22.7613  -31.7819   21.9939 C   0  0  0  0  0  0  0  0  0  0  0  0
  -18.8843  -26.1395   22.0513 C   0  0  0  0  0  0  0  0  0  0  0  0
  -26.7135  -21.4075   21.1994 C   0  0  0  0  0  0  0  0  0  1  0  0
  -28.7185  -19.9083   21.7682 C   0  0  0  0  0  0  0  0  0  0  0  0
  -22.7715  -29.2571   22.1245 C   0  0  1  0  0  0  0  0  0  0  0  0
  -19.2778  -28.2999   23.2416 C   0  0  2  0  0  0  0  0  0  0  0  0
  -23.4437  -30.5590   22.6447 C   0  0  0  0  0  0  0  0  0  0  0  0
  -25.9747  -13.9682   19.5488 N   0  0  0  0  0  0  0  0  0  0  0  0
  -31.5078  -14.4496   20.1379 N   0  0  0  0  0  0  0  0  0  0  0  0
  -26.0182  -15.2765   19.8530 N   0  0  0  0  0  0  0  0  0  0  0  0
  -29.4628  -16.1763   18.4574 N   0  0  0  0  0  0  0  0  0  0  0  0
  -23.6183  -27.9192   20.2227 N   0  0  0  0  0  0  0  0  0  0  0  0
  -24.9179  -16.9635   21.0996 N   0  0  0  0  0  0  0  0  0  0  0  0
  -22.4669  -13.2684   21.9570 N   0  0  0  0  0  0  0  0  0  0  0  0
  -25.8913  -28.2700   17.3930 N   0  0  0  0  0  0  0  0  0  0  0  0
  -21.3376  -29.1807   22.3826 N   0  0  0  0  0  0  0  0  0  0  0  0
  -18.6224  -26.9616   23.2607 N   0  3  0  0  0  0  0  0  0  0  0  0
  -22.6563  -15.5153   22.3742 O   0  0  0  0  0  0  0  0  0  0  0  0
  -31.6671  -16.9932   18.4941 O   0  0  0  0  0  0  0  0  0  0  0  0
  -26.0179  -28.6229   19.6913 O   0  0  0  0  0  0  0  0  0  0  0  0
  -27.6607  -21.3145   23.4087 O   0  0  0  0  0  0  0  0  0  0  0  0
  -22.4875  -29.9269   19.8668 O   0  0  0  0  0  0  0  0  0  0  0  0
  -21.4038  -27.2108   23.6043 O   0  0  0  0  0  0  0  0  0  0  0  0
  -23.4051   -8.1559   19.9526 O   0  0  0  0  0  0  0  0  0  0  0  0
  -25.8139  -22.3631   21.7596 O   0  0  0  0  0  0  0  0  0  1  0  0
  -29.5656  -19.5171   22.8280 O   0  0  0  0  0  0  0  0  0  0  0  0
  -22.0739   -5.6316   24.6706 F   0  0  0  0  0  0  0  0  0  0  0  0
  -31.1325  -15.6207   25.0826 F   0  0  0  0  0  0  0  0  0  0  0  0
  -24.8133   -5.9418   20.8229 F   0  0  0  0  0  0  0  0  0  0  0  0
  1  2  1  0  0  0  0
  1  5  2  0  0  0  0
  2  6  2  0  0  0  0
  3  8  2  0  0  0  0
  3 18  1  0  0  0  0
  4  9  1  0  0  0  0
  4 18  2  0  0  0  0
  5 21  1  0  0  0  0
  6 23  1  0  0  0  0
  7 10  2  0  0  0  0
  7 22  1  0  0  0  0
  8 25  1  0  0  0  0
  9 25  2  0  0  0  0
 10 26  1  0  0  0  0
 11 12  2  0  0  0  0
 11 27  1  0  0  0  0
 12 29  1  0  0  0  0
 13 19  1  0  0  0  0
 13 28  2  0  0  0  0
 14 19  2  0  0  0  0
 14 30  1  0  0  0  0
 15 24  1  0  0  0  0
 15 26  2  0  0  0  0
 16 28  1  0  0  0  0
 16 30  2  0  0  0  0
 17 29  2  0  0  0  0
 17 31  1  0  0  0  0
 18 32  1  0  0  0  0
 19 34  1  0  0  0  0
 20 32  1  0  0  0  0
 20 33  2  0  0  0  0
 20 35  1  0  0  0  0
 21 23  2  0  0  0  0
 21 41  1  0  0  0  0
 22 24  2  0  0  0  0
 22 42  1  0  0  0  0
 23 50  1  0  0  0  0
 24 43  1  0  0  0  0
 25 79  1  0  0  0  0
 26 80  1  0  0  0  0
 27 31  2  0  0  0  0
 27 79  1  0  0  0  0
 28 81  1  0  0  0  0
 29 82  1  0  0  0  0
 30 83  1  0  0  0  0
 31 84  1  0  0  0  0
 32 63  2  0  0  0  0
 33 65  1  0  0  0  0
 33 68  1  0  0  0  0
 34 36  1  0  0  0  0
 34 64  2  0  0  0  0
 35 69  1  0  0  0  0
 35 73  2  0  0  0  0
 36 66  1  0  0  0  0
 36 74  2  0  0  0  0
 37 51  1  0  0  0  0
 37 70  1  0  0  0  0
 37 75  2  0  0  0  0
 38 58  1  0  0  0  0
 38 59  1  0  0  0  0
 38 76  2  0  0  0  0
 39 60  1  0  0  0  0
 39 67  1  0  0  0  0
 39 77  2  0  0  0  0
 40 61  1  0  0  0  0
 40 71  1  0  0  0  0
 40 78  2  0  0  0  0
 41 44  1  0  0  0  0
 42 51  1  0  0  0  0
 43 67  1  0  0  0  0
 44 46  1  0  0  0  0
 45 47  1  0  0  0  0
 45 48  1  0  0  0  0
 46 50  1  0  0  0  0
 47 52  1  0  0  0  0
 48 66  1  0  0  0  0
 49 52  1  0  0  0  0
 49 66  1  0  0  0  0
 50 70  1  0  0  0  0
 51 67  1  0  0  0  0
 52 65  1  0  0  0  0
 53 61  1  0  0  0  0
 54 62  1  0  0  0  0
 55 62  1  0  0  0  0
 56 62  1  0  0  0  0
 57 72  1  0  0  0  0
 58 80  1  0  0  0  0
 59 81  1  0  0  0  0
 60 62  1  0  0  0  0
 60 71  1  0  0  0  0
 61 72  1  0  0  0  0
 63 65  1  0  0  0  0
M  CHG  1  72   1
M  ISO  4  34 100  36 100  58 101  80 101
M  END
> <Batch ID>
0124

> <Smiles>
CNC(C)C(=O)NC(C(=O)N1Cc2cc([101O:1][101CH2:1]C(=O)COc3cc(F)cc([100C:0](=N)[100C:0](=O)N4CCCC(n5nc(-c6ccc(Oc7ccc(F)cc7F)cc6)c(C(N)=O)c5N)C4)c3)ccc2CC1C(=O)NC1CCCc2ccccc21)C(C)(C)C

> <Shape>
0.239

> <Color>
0.050

> <Negative vol penalty>
0.000

$$$$

  -OEChem-04052302063D

 85 93  0     1  0  0  0  0  0999 V2000
  -26.8590  -35.5967   22.1560 C   0  0  0  0  0  0  0  0  0  0  0  0
  -27.2807  -34.2715   22.1174 C   0  0  0  0  0  0  0  0  0  0  0  0
  -23.6247   -8.9725   20.2064 C   0  0  0  0  0  0  0  0  0  0  0  0
  -23.0747  -10.8366   21.6416 C   0  0  0  0  0  0  0  0  0  0  0  0
  -25.5836  -35.9078   22.6256 C   0  0  0  0  0  0  0  0  0  0  0  0
  -26.4276  -33.2567   22.5495 C   0  0  0  0  0  0  0  0  0  0  0  0
  -26.3758  -29.2904   19.4014 C   0  0  0  0  0  0  0  0  0  0  0  0
  -22.7453   -8.1611   20.9232 C   0  0  0  0  0  0  0  0  0  0  0  0
  -22.1952  -10.0252   22.3584 C   0  0  0  0  0  0  0  0  0  0  0  0
  -27.4516  -28.4065   19.4730 C   0  0  0  0  0  0  0  0  0  0  0  0
  -20.9136   -5.5055   22.6014 C   0  0  0  0  0  0  0  0  0  0  0  0
  -21.3496   -4.2290   22.9562 C   0  0  0  0  0  0  0  0  0  0  0  0
  -28.6505  -19.7511   18.6687 C   0  0  0  0  0  0  0  0  0  0  0  0
  -26.1170  -26.8990   20.8017 C   0  0  0  0  0  0  0  0  0  0  0  0
  -30.5833  -18.1517   19.8890 C   0  0  0  0  0  0  0  0  0  0  0  0
  -23.1717   -5.2000   24.2109 C   0  0  0  0  0  0  0  0  0  0  0  0
  -23.7894  -10.3102   20.5656 C   0  0  0  0  0  0  0  0  0  0  0  0
  -29.7514  -20.3397   19.2909 C   0  0  0  0  0  0  0  0  0  0  0  0
  -24.4019  -11.9326   18.6946 C   0  0  0  0  0  0  0  0  0  0  0  0
  -24.7109  -34.8954   23.0546 C   0  0  0  0  0  0  0  0  0  0  0  0
  -25.1639  -28.9897   20.0397 C   0  0  0  0  0  0  0  0  0  0  0  0
  -25.1398  -33.5546   23.0266 C   0  0  0  0  0  0  0  0  0  0  0  0
  -25.0264  -27.7795   20.7345 C   0  0  0  0  0  0  0  0  0  0  0  0
  -28.5160  -18.3627   18.6567 C   0  0  0  0  0  0  0  0  0  0  0  0
  -30.7178  -19.5401   19.9010 C   0  0  0  0  0  0  0  0  0  0  0  0
  -29.4824  -17.5631   19.2668 C   0  0  0  0  0  0  0  0  0  0  0  0
  -22.0305   -8.6874   21.9992 C   0  0  0  0  0  0  0  0  0  0  0  0
  -27.3233  -27.2120   20.1756 C   0  0  0  0  0  0  0  0  0  0  0  0
  -21.6067   -6.6293   23.0513 C   0  0  0  0  0  0  0  0  0  0  0  0
  -22.4786   -4.0762   23.7610 C   0  0  0  0  0  0  0  0  0  0  0  0
  -22.7357   -6.4766   23.8560 C   0  0  0  0  0  0  0  0  0  0  0  0
  -24.6982  -11.1488   19.8259 C   0  0  0  0  0  0  0  0  0  0  0  0
  -25.5939  -12.5338   18.3718 C   0  0  0  0  0  0  0  0  0  0  0  0
  -29.8655  -21.8089   19.2870 C   0  0  0  0  0  0  0  0  0  0  0  0
  -28.9548  -22.6444   19.8057 C   0  0  0  0  0  0  0  0  0  0  0  0
  -23.1603  -12.1020   17.9979 C   0  0  0  0  0  0  0  0  0  0  0  0
  -29.1606  -24.1206   19.7418 C   0  0  0  0  0  0  0  0  0  0  0  0
  -23.4569  -30.3334   22.3600 C   0  0  0  0  0  0  0  0  0  0  0  0
  -21.3038  -28.0382   21.5735 C   0  0  0  0  0  0  0  0  0  0  0  0
  -20.7091  -24.9756   20.1901 C   0  0  0  0  0  0  0  0  0  0  0  0
  -30.2425  -15.2287   19.8316 C   0  0  0  0  0  0  0  0  0  0  0  0
  -23.3591  -35.2846   23.5984 C   0  0  0  0  0  0  0  0  0  0  0  0
  -24.0042  -29.9413   19.9305 C   0  0  0  0  0  0  0  0  0  0  0  0
  -23.7400  -27.4004   21.4200 C   0  0  0  0  0  0  0  0  0  0  0  0
  -22.3790  -34.1176   23.6867 C   0  0  0  0  0  0  0  0  0  0  0  0
  -30.2830  -11.6767   20.0745 C   0  0  0  0  0  0  0  0  0  0  0  0
  -23.0521  -32.9016   24.3152 C   0  0  0  0  0  0  0  0  0  0  0  0
  -28.8093  -11.2872   19.9384 C   0  0  0  0  0  0  0  0  0  0  0  0
  -30.4561  -12.9761   20.8589 C   0  0  0  0  0  0  0  0  0  0  0  0
  -28.1954  -13.7219   20.2248 C   0  0  0  0  0  0  0  0  0  0  0  0
  -24.2342  -32.4236   23.4635 C   0  0  1  0  0  0  0  0  0  0  0  0
  -22.9827  -29.7695   21.0505 C   0  0  1  0  0  0  0  0  0  0  0  0
  -27.9667  -12.4538   19.3863 C   0  0  2  0  0  0  0  0  0  0  0  0
  -31.9103  -20.1368   20.5772 C   0  0  0  0  0  0  0  0  0  0  0  0
  -27.6685  -17.1783   16.6157 C   0  0  0  0  0  0  0  0  0  0  0  0
  -18.8541  -23.3506   19.7256 C   0  0  0  0  0  0  0  0  0  0  0  0
  -21.2785  -27.2299   24.5156 C   0  0  0  0  0  0  0  0  0  0  0  0
  -20.1950  -25.0756   23.8424 C   0  0  0  0  0  0  0  0  0  0  0  0
  -19.0317  -27.2410   23.4174 C   0  0  0  0  0  0  0  0  0  0  0  0
  -21.1630  -25.1139   17.2688 C   0  0  0  0  0  0  0  0  0  0  0  0
  -27.3258  -17.7596   17.9837 C   0  0  0  0  0  0  0  0  0  0  0  0
  -28.0629  -24.9594   20.3616 C   0  0  0  0  0  0  0  0  0  1  0  0
  -21.0434  -26.6192   22.0180 C   0  0  1  0  0  0  0  0  0  0  0  0
  -19.6746  -24.5096   19.1815 C   0  0  2  0  0  0  0  0  0  0  0  0
  -20.4121  -26.5491   23.4372 C   0  0  0  0  0  0  0  0  0  0  0  0
  -25.9780  -11.2415   20.1967 N   0  0  0  0  0  0  0  0  0  0  0  0
  -26.4965  -12.0907   19.2932 N   0  0  0  0  0  0  0  0  0  0  0  0
  -22.6370  -28.3668   21.2898 N   0  0  0  0  0  0  0  0  0  0  0  0
  -29.6317  -14.0370   20.2761 N   0  0  0  0  0  0  0  0  0  0  0  0
  -25.9475  -13.3931   17.3925 N   0  0  0  0  0  0  0  0  0  0  0  0
  -22.0335  -11.4105   18.4630 N   0  0  0  0  0  0  0  0  0  0  0  0
  -29.3630  -16.1512   19.2659 N   0  0  0  0  0  0  0  0  0  0  0  0
  -23.7619  -31.6804   22.3150 N   0  0  0  0  0  0  0  0  0  0  0  0
  -20.2319  -26.0062   20.9721 N   0  0  0  0  0  0  0  0  0  0  0  0
  -20.3404  -24.0650   17.9245 N   0  3  0  0  0  0  0  0  0  0  0  0
  -23.0571  -12.8319   16.9829 O   0  0  0  0  0  0  0  0  0  0  0  0
  -30.1549  -24.6187   19.2211 O   0  0  0  0  0  0  0  0  0  0  0  0
  -23.5384  -29.6011   23.3391 O   0  0  0  0  0  0  0  0  0  0  0  0
  -20.3582  -28.8240   21.4744 O   0  0  0  0  0  0  0  0  0  0  0  0
  -21.8272  -24.4730   20.2781 O   0  0  0  0  0  0  0  0  0  0  0  0
  -31.4603  -15.4057   19.9198 O   0  0  0  0  0  0  0  0  0  0  0  0
  -21.1721   -7.8961   22.6988 O   0  0  0  0  0  0  0  0  0  0  0  0
  -28.3720  -26.3478   20.2477 O   0  0  0  0  0  0  0  0  0  1  0  0
  -22.8962   -2.8503   24.1029 F   0  0  0  0  0  0  0  0  0  0  0  0
  -23.4050   -7.5525   24.2922 F   0  0  0  0  0  0  0  0  0  0  0  0
  1  2  1  0  0  0  0
  1  5  2  0  0  0  0
  2  6  2  0  0  0  0
  3  8  2  0  0  0  0
  3 17  1  0  0  0  0
  4  9  1  0  0  0  0
  4 17  2  0  0  0  0
  5 20  1  0  0  0  0
  6 22  1  0  0  0  0
  7 10  2  0  0  0  0
  7 21  1  0  0  0  0
  8 27  1  0  0  0  0
  9 27  2  0  0  0  0
 10 28  1  0  0  0  0
 11 12  2  0  0  0  0
 11 29  1  0  0  0  0
 12 30  1  0  0  0  0
 13 18  2  0  0  0  0
 13 24  1  0  0  0  0
 14 23  1  0  0  0  0
 14 28  2  0  0  0  0
 15 25  2  0  0  0  0
 15 26  1  0  0  0  0
 16 30  2  0  0  0  0
 16 31  1  0  0  0  0
 17 32  1  0  0  0  0
 18 25  1  0  0  0  0
 18 34  1  0  0  0  0
 19 32  1  0  0  0  0
 19 33  2  0  0  0  0
 19 36  1  0  0  0  0
 20 22  2  0  0  0  0
 20 42  1  0  0  0  0
 21 23  2  0  0  0  0
 21 43  1  0  0  0  0
 22 51  1  0  0  0  0
 23 44  1  0  0  0  0
 24 26  2  0  0  0  0
 24 61  1  0  0  0  0
 25 54  1  0  0  0  0
 26 72  1  0  0  0  0
 27 82  1  0  0  0  0
 28 83  1  0  0  0  0
 29 31  2  0  0  0  0
 29 82  1  0  0  0  0
 30 84  1  0  0  0  0
 31 85  1  0  0  0  0
 32 66  2  0  0  0  0
 33 67  1  0  0  0  0
 33 70  1  0  0  0  0
 34 35  2  0  0  0  0
 35 37  1  0  0  0  0
 36 71  1  0  0  0  0
 36 76  2  0  0  0  0
 37 62  1  0  0  0  0
 37 77  2  0  0  0  0
 38 52  1  0  0  0  0
 38 73  1  0  0  0  0
 38 78  2  0  0  0  0
 39 63  1  0  0  0  0
 39 68  1  0  0  0  0
 39 79  2  0  0  0  0
 40 64  1  0  0  0  0
 40 74  1  0  0  0  0
 40 80  2  0  0  0  0
 41 69  1  0  0  0  0
 41 72  1  0  0  0  0
 41 81  2  0  0  0  0
 42 45  1  0  0  0  0
 43 52  1  0  0  0  0
 44 68  1  0  0  0  0
 45 47  1  0  0  0  0
 46 48  1  0  0  0  0
 46 49  1  0  0  0  0
 47 51  1  0  0  0  0
 48 53  1  0  0  0  0
 49 69  1  0  0  0  0
 50 53  1  0  0  0  0
 50 69  1  0  0  0  0
 51 73  1  0  0  0  0
 52 68  1  0  0  0  0
 53 67  1  0  0  0  0
 55 61  1  0  0  0  0
 56 64  1  0  0  0  0
 57 65  1  0  0  0  0
 58 65  1  0  0  0  0
 59 65  1  0  0  0  0
 60 75  1  0  0  0  0
 62 83  1  0  0  0  0
 63 65  1  0  0  0  0
 63 74  1  0  0  0  0
 64 75  1  0  0  0  0
 66 67  1  0  0  0  0
M  CHG  1  75   1
M  ISO  4  41 100  62 101  72 100  83 101
M  END
> <Batch ID>
0124

> <Smiles>
CCc1cc(C=CC(=O)[101CH2:1][101O:1]c2ccc3c(c2)CN(C(=O)C(NC(=O)C(C)NC)C(C)(C)C)C(C(=O)NC2CCCc4ccccc42)C3)c(C)cc1[100NH:0][100C:0](=O)N1CCCC(n2nc(-c3ccc(Oc4ccc(F)cc4F)cc3)c(C(N)=O)c2N)C1

> <Shape>
0.329

> <Color>
0.131

> <Negative vol penalty>
0.000

$$$$

  -OEChem-04052302063D

 85 93  0     1  0  0  0  0  0999 V2000
  -24.9440  -35.6776   21.9429 C   0  0  0  0  0  0  0  0  0  0  0  0
  -25.6786  -34.4973   21.8899 C   0  0  0  0  0  0  0  0  0  0  0  0
  -25.5542  -11.9141   22.2043 C   0  0  0  0  0  0  0  0  0  0  0  0
  -26.4961  -11.5478   20.0098 C   0  0  0  0  0  0  0  0  0  0  0  0
  -23.6665  -35.6778   22.5014 C   0  0  0  0  0  0  0  0  0  0  0  0
  -25.1365  -33.3167   22.3965 C   0  0  0  0  0  0  0  0  0  0  0  0
  -25.8584  -29.3667   19.3109 C   0  0  0  0  0  0  0  0  0  0  0  0
  -25.4116  -10.5368   22.3729 C   0  0  0  0  0  0  0  0  0  0  0  0
  -26.3535  -10.1705   20.1785 C   0  0  0  0  0  0  0  0  0  0  0  0
  -27.1226  -28.7790   19.3140 C   0  0  0  0  0  0  0  0  0  0  0  0
  -23.2800   -8.1126   21.3710 C   0  0  0  0  0  0  0  0  0  0  0  0
  -22.0733   -7.6458   21.8920 C   0  0  0  0  0  0  0  0  0  0  0  0
  -26.2992  -27.0295   20.7563 C   0  0  0  0  0  0  0  0  0  0  0  0
  -29.0374  -21.9678   17.1713 C   0  0  0  0  0  0  0  0  0  0  0  0
  -26.2520  -22.0297   17.3143 C   0  0  0  0  0  0  0  0  0  0  0  0
  -23.2573   -6.6663   23.7564 C   0  0  0  0  0  0  0  0  0  0  0  0
  -26.0964  -12.4196   21.0226 C   0  0  0  0  0  0  0  0  0  0  0  0
  -27.3571  -14.6307   21.1937 C   0  0  0  0  0  0  0  0  0  0  0  0
  -23.1046  -34.4946   23.0063 C   0  0  0  0  0  0  0  0  0  0  0  0
  -24.8060  -28.7952   20.0405 C   0  0  0  0  0  0  0  0  0  0  0  0
  -23.8508  -33.3013   22.9635 C   0  0  0  0  0  0  0  0  0  0  0  0
  -25.0219  -27.6105   20.7587 C   0  0  0  0  0  0  0  0  0  0  0  0
  -28.3097  -20.7791   17.1168 C   0  0  0  0  0  0  0  0  0  0  0  0
  -26.9797  -23.2184   17.3689 C   0  0  0  0  0  0  0  0  0  0  0  0
  -28.3724  -23.1875   17.2975 C   0  0  0  0  0  0  0  0  0  0  0  0
  -26.9170  -20.8100   17.1883 C   0  0  0  0  0  0  0  0  0  0  0  0
  -25.8113   -9.6651   21.3601 C   0  0  0  0  0  0  0  0  0  0  0  0
  -27.3440  -27.6119   20.0391 C   0  0  0  0  0  0  0  0  0  0  0  0
  -24.4754   -7.8562   22.0426 C   0  0  0  0  0  0  0  0  0  0  0  0
  -22.0619   -6.9227   23.0848 C   0  0  0  0  0  0  0  0  0  0  0  0
  -24.4640   -7.1331   23.2353 C   0  0  0  0  0  0  0  0  0  0  0  0
  -26.2435  -13.8422   20.8476 C   0  0  0  0  0  0  0  0  0  0  0  0
  -27.0021  -15.9060   20.8275 C   0  0  0  0  0  0  0  0  0  0  0  0
  -29.4787  -24.7613   18.5320 C   0  0  0  0  0  0  0  0  0  0  0  0
  -28.6014  -14.2448   21.7926 C   0  0  0  0  0  0  0  0  0  0  0  0
  -22.9810  -29.7452   22.4634 C   0  0  0  0  0  0  0  0  0  0  0  0
  -21.4184  -26.9659   21.8667 C   0  0  0  0  0  0  0  0  0  0  0  0
  -21.5114  -23.8106   20.5695 C   0  0  0  0  0  0  0  0  0  0  0  0
  -24.7726  -19.4879   17.1941 C   0  0  0  0  0  0  0  0  0  0  0  0
  -21.7389  -34.5537   23.6434 C   0  0  0  0  0  0  0  0  0  0  0  0
  -23.4413  -29.4267   20.0052 C   0  0  0  0  0  0  0  0  0  0  0  0
  -23.9203  -26.9461   21.5420 C   0  0  0  0  0  0  0  0  0  0  0  0
  -21.0885  -33.1838   23.8184 C   0  0  0  0  0  0  0  0  0  0  0  0
  -22.5333  -17.7949   19.3841 C   0  0  0  0  0  0  0  0  0  0  0  0
  -22.0844  -32.1918   24.4108 C   0  0  0  0  0  0  0  0  0  0  0  0
  -23.3905  -16.6805   19.9885 C   0  0  0  0  0  0  0  0  0  0  0  0
  -22.8821  -18.0470   17.9183 C   0  0  0  0  0  0  0  0  0  0  0  0
  -25.1624  -17.1782   18.2566 C   0  0  0  0  0  0  0  0  0  0  0  0
  -23.2872  -31.9953   23.4802 C   0  0  1  0  0  0  0  0  0  0  0  0
  -22.5738  -29.0418   21.1996 C   0  0  1  0  0  0  0  0  0  0  0  0
  -24.8923  -16.9324   19.7500 C   0  0  2  0  0  0  0  0  0  0  0  0
  -26.2455  -24.5123   17.5041 C   0  0  0  0  0  0  0  0  0  0  0  0
  -29.8431  -17.3946   18.1650 C   0  0  0  0  0  0  0  0  0  0  0  0
  -20.0920  -21.7639   20.2636 C   0  0  0  0  0  0  0  0  0  0  0  0
  -21.7962  -26.2665   24.8126 C   0  0  0  0  0  0  0  0  0  0  0  0
  -21.2395  -23.8917   24.2483 C   0  0  0  0  0  0  0  0  0  0  0  0
  -19.5476  -25.6880   23.8831 C   0  0  0  0  0  0  0  0  0  0  0  0
  -21.7159  -23.9678   17.6213 C   0  0  0  0  0  0  0  0  0  0  0  0
  -29.0482  -19.4871   16.9816 C   0  0  0  0  0  0  0  0  0  0  0  0
  -30.2969  -26.0117   18.7140 C   0  0  0  0  0  0  0  0  0  0  0  0
  -29.1206  -18.7243   18.3119 C   0  0  0  0  0  0  0  0  0  0  0  0
  -29.3811  -27.2129   18.8786 C   0  0  0  0  0  0  0  0  0  1  0  0
  -21.5503  -25.5408   22.3470 C   0  0  1  0  0  0  0  0  0  0  0  0
  -20.5590  -23.0728   19.6459 C   0  0  2  0  0  0  0  0  0  0  0  0
  -21.0549  -25.3601   23.8097 C   0  0  0  0  0  0  0  0  0  0  0  0
  -25.2549  -14.5567   20.3034 N   0  0  0  0  0  0  0  0  0  0  0  0
  -29.1215  -24.3749   17.3509 N   0  0  0  0  0  0  0  0  0  0  0  0
  -25.7461  -15.8077   20.3050 N   0  0  0  0  0  0  0  0  0  0  0  0
  -22.6052  -27.6052   21.4814 N   0  0  0  0  0  0  0  0  0  0  0  0
  -24.3200  -18.2818   17.7696 N   0  0  0  0  0  0  0  0  0  0  0  0
  -27.6448  -17.0906   20.9049 N   0  0  0  0  0  0  0  0  0  0  0  0
  -28.8018  -12.8933   22.1051 N   0  0  0  0  0  0  0  0  0  0  0  0
  -26.1602  -19.6133   17.1346 N   0  0  0  0  0  0  0  0  0  0  0  0
  -22.9374  -31.1237   22.3791 N   0  0  0  0  0  0  0  0  0  0  0  0
  -20.8473  -24.7145   21.3716 N   0  0  0  0  0  0  0  0  0  0  0  0
  -21.2270  -22.7684   18.3490 N   0  3  0  0  0  0  0  0  0  0  0  0
  -29.5021  -15.0765   22.0584 O   0  0  0  0  0  0  0  0  0  0  0  0
  -23.3090  -29.0860   23.4430 O   0  0  0  0  0  0  0  0  0  0  0  0
  -20.3024  -27.4900   21.8279 O   0  0  0  0  0  0  0  0  0  0  0  0
  -22.7227  -23.6031   20.5811 O   0  0  0  0  0  0  0  0  0  0  0  0
  -23.9874  -20.3581   16.8090 O   0  0  0  0  0  0  0  0  0  0  0  0
  -25.6725   -8.3211   21.5244 O   0  0  0  0  0  0  0  0  0  0  0  0
  -28.5772  -27.0365   20.0444 O   0  0  0  0  0  0  0  0  0  1  0  0
  -20.9029   -6.4757   23.5858 F   0  0  0  0  0  0  0  0  0  0  0  0
  -25.6091   -6.8847   23.8857 F   0  0  0  0  0  0  0  0  0  0  0  0
  1  2  1  0  0  0  0
  1  5  2  0  0  0  0
  2  6  2  0  0  0  0
  3  8  2  0  0  0  0
  3 17  1  0  0  0  0
  4  9  1  0  0  0  0
  4 17  2  0  0  0  0
  5 19  1  0  0  0  0
  6 21  1  0  0  0  0
  7 10  2  0  0  0  0
  7 20  1  0  0  0  0
  8 27  1  0  0  0  0
  9 27  2  0  0  0  0
 10 28  1  0  0  0  0
 11 12  2  0  0  0  0
 11 29  1  0  0  0  0
 12 30  1  0  0  0  0
 13 22  1  0  0  0  0
 13 28  2  0  0  0  0
 14 23  1  0  0  0  0
 14 25  2  0  0  0  0
 15 24  2  0  0  0  0
 15 26  1  0  0  0  0
 16 30  2  0  0  0  0
 16 31  1  0  0  0  0
 17 32  1  0  0  0  0
 18 32  1  0  0  0  0
 18 33  2  0  0  0  0
 18 35  1  0  0  0  0
 19 21  2  0  0  0  0
 19 40  1  0  0  0  0
 20 22  2  0  0  0  0
 20 41  1  0  0  0  0
 21 49  1  0  0  0  0
 22 42  1  0  0  0  0
 23 26  2  0  0  0  0
 23 59  1  0  0  0  0
 24 25  1  0  0  0  0
 24 52  1  0  0  0  0
 25 67  1  0  0  0  0
 26 73  1  0  0  0  0
 27 82  1  0  0  0  0
 28 83  1  0  0  0  0
 29 31  2  0  0  0  0
 29 82  1  0  0  0  0
 30 84  1  0  0  0  0
 31 85  1  0  0  0  0
 32 66  2  0  0  0  0
 33 68  1  0  0  0  0
 33 71  1  0  0  0  0
 34 60  1  0  0  0  0
 34 67  2  0  0  0  0
 35 72  1  0  0  0  0
 35 77  2  0  0  0  0
 36 50  1  0  0  0  0
 36 74  1  0  0  0  0
 36 78  2  0  0  0  0
 37 63  1  0  0  0  0
 37 69  1  0  0  0  0
 37 79  2  0  0  0  0
 38 64  1  0  0  0  0
 38 75  1  0  0  0  0
 38 80  2  0  0  0  0
 39 70  1  0  0  0  0
 39 73  1  0  0  0  0
 39 81  2  0  0  0  0
 40 43  1  0  0  0  0
 41 50  1  0  0  0  0
 42 69  1  0  0  0  0
 43 45  1  0  0  0  0
 44 46  1  0  0  0  0
 44 47  1  0  0  0  0
 45 49  1  0  0  0  0
 46 51  1  0  0  0  0
 47 70  1  0  0  0  0
 48 51  1  0  0  0  0
 48 70  1  0  0  0  0
 49 74  1  0  0  0  0
 50 69  1  0  0  0  0
 51 68  1  0  0  0  0
 53 61  1  0  0  0  0
 54 64  1  0  0  0  0
 55 65  1  0  0  0  0
 56 65  1  0  0  0  0
 57 65  1  0  0  0  0
 58 76  1  0  0  0  0
 59 61  1  0  0  0  0
 60 62  1  0  0  0  0
 62 83  1  0  0  0  0
 63 65  1  0  0  0  0
 63 75  1  0  0  0  0
 64 76  1  0  0  0  0
 66 68  1  0  0  0  0
M  CHG  1  76   1
M  ISO  4  39 100  62 101  73 100  83 101
M  END
> <Batch ID>
0124

> <Smiles>
CCCc1cc(NC=C[101CH2:1][101O:1]c2ccc3c(c2)CN(C(=O)C(NC(=O)C(C)NC)C(C)(C)C)C(C(=O)NC2CCCc4ccccc42)C3)c(C)cc1[100NH:0][100C:0](=O)N1CCCC(n2nc(-c3ccc(Oc4ccc(F)cc4F)cc3)c(C(N)=O)c2N)C1

> <Shape>
0.232

> <Color>
0.067

> <Negative vol penalty>
0.000

$$$$

  -OEChem-04052302063D

 82 90  0     1  0  0  0  0  0999 V2000
  -30.3080  -35.9721   22.5721 C   0  0  0  0  0  0  0  0  0  0  0  0
  -30.2772  -34.8387   21.7659 C   0  0  0  0  0  0  0  0  0  0  0  0
  -24.6403   -8.8121   21.5230 C   0  0  0  0  0  0  0  0  0  0  0  0
  -23.1491  -10.4960   20.6410 C   0  0  0  0  0  0  0  0  0  0  0  0
  -29.6345  -35.9763   23.7928 C   0  0  0  0  0  0  0  0  0  0  0  0
  -29.5737  -33.7085   22.1805 C   0  0  0  0  0  0  0  0  0  0  0  0
  -26.5076  -29.7723   18.6292 C   0  0  0  0  0  0  0  0  0  0  0  0
  -23.6276   -8.3578   22.3678 C   0  0  0  0  0  0  0  0  0  0  0  0
  -22.1364  -10.0417   21.4857 C   0  0  0  0  0  0  0  0  0  0  0  0
  -26.8425  -28.5242   18.1058 C   0  0  0  0  0  0  0  0  0  0  0  0
  -21.3247   -6.5220   24.4988 C   0  0  0  0  0  0  0  0  0  0  0  0
  -21.1290   -5.1442   24.5941 C   0  0  0  0  0  0  0  0  0  0  0  0
  -25.7161  -27.4546   19.9515 C   0  0  0  0  0  0  0  0  0  0  0  0
  -20.6678   -5.0457   22.2246 C   0  0  0  0  0  0  0  0  0  0  0  0
  -27.9684  -18.8820   18.6023 C   0  0  0  0  0  0  0  0  0  0  0  0
  -24.4011   -9.8813   20.6596 C   0  0  0  0  0  0  0  0  0  0  0  0
  -25.7242   -9.9119   18.4787 C   0  0  0  0  0  0  0  0  0  0  0  0
  -28.9143  -34.8489   24.2182 C   0  0  0  0  0  0  0  0  0  0  0  0
  -25.7826  -29.8711   19.8255 C   0  0  0  0  0  0  0  0  0  0  0  0
  -28.8909  -33.6971   23.4087 C   0  0  0  0  0  0  0  0  0  0  0  0
  -25.3711  -28.7051   20.4866 C   0  0  0  0  0  0  0  0  0  0  0  0
  -22.3757   -8.9726   22.3491 C   0  0  0  0  0  0  0  0  0  0  0  0
  -26.4493  -27.3652   18.7685 C   0  0  0  0  0  0  0  0  0  0  0  0
  -21.1918   -7.1617   23.2663 C   0  0  0  0  0  0  0  0  0  0  0  0
  -20.8006   -4.4061   23.4570 C   0  0  0  0  0  0  0  0  0  0  0  0
  -20.8635   -6.4235   22.1292 C   0  0  0  0  0  0  0  0  0  0  0  0
  -25.4469  -10.3514   19.7871 C   0  0  0  0  0  0  0  0  0  0  0  0
  -27.1330  -19.8847   18.0321 C   0  0  0  0  0  0  0  0  0  0  0  0
  -26.8043  -10.6637   18.0856 C   0  0  0  0  0  0  0  0  0  0  0  0
  -27.2743  -17.6973   18.7183 C   0  0  0  0  0  0  0  0  0  0  0  0
  -27.6287  -21.2524   17.7971 C   0  0  0  0  0  0  0  0  0  0  0  0
  -26.9081  -22.2389   17.2455 C   0  0  0  0  0  0  0  0  0  0  0  0
  -25.0643   -8.9134   17.6893 C   0  0  0  0  0  0  0  0  0  0  0  0
  -27.5077  -23.5914   17.0408 C   0  0  0  0  0  0  0  0  0  0  0  0
  -26.3512  -31.1094   22.6973 C   0  0  0  0  0  0  0  0  0  0  0  0
  -23.2448  -30.3334   23.2172 C   0  0  0  0  0  0  0  0  0  0  0  0
  -20.5677  -28.3851   22.3900 C   0  0  0  0  0  0  0  0  0  0  0  0
  -28.8625  -16.0259   19.7334 C   0  0  0  0  0  0  0  0  0  0  0  0
  -28.2411  -34.8841   25.5673 C   0  0  0  0  0  0  0  0  0  0  0  0
  -25.4062  -31.2247   20.3628 C   0  0  0  0  0  0  0  0  0  0  0  0
  -24.5737  -28.7568   21.7633 C   0  0  0  0  0  0  0  0  0  0  0  0
  -27.2082  -33.7771   25.7617 C   0  0  0  0  0  0  0  0  0  0  0  0
  -30.6288  -12.9369   19.8577 C   0  0  0  0  0  0  0  0  0  0  0  0
  -27.7720  -32.4349   25.3062 C   0  0  0  0  0  0  0  0  0  0  0  0
  -29.5262  -11.8834   19.7285 C   0  0  0  0  0  0  0  0  0  0  0  0
  -30.1711  -14.1386   20.6824 C   0  0  0  0  0  0  0  0  0  0  0  0
  -27.8159  -13.7058   20.1037 C   0  0  0  0  0  0  0  0  0  0  0  0
  -28.1182  -32.4603   23.8125 C   0  0  1  0  0  0  0  0  0  0  0  0
  -25.1084  -31.2119   21.8590 C   0  0  1  0  0  0  0  0  0  0  0  0
  -28.2083  -12.5056   19.2268 C   0  0  2  0  0  0  0  0  0  0  0  0
  -18.1757  -27.9557   23.0157 C   0  0  0  0  0  0  0  0  0  0  0  0
  -24.1685  -28.8204   25.7006 C   0  0  0  0  0  0  0  0  0  0  0  0
  -21.9508  -27.6589   25.7327 C   0  0  0  0  0  0  0  0  0  0  0  0
  -22.0634  -30.1361   26.0035 C   0  0  0  0  0  0  0  0  0  0  0  0
  -19.6066  -29.1327   19.6925 C   0  0  0  0  0  0  0  0  0  0  0  0
  -26.5867  -24.6221   16.4061 C   0  0  0  0  0  0  0  0  0  0  0  0
  -26.9014  -26.0457   16.8422 C   0  0  0  0  0  0  0  0  0  1  0  0
  -22.5195  -29.1153   23.7360 C   0  0  1  0  0  0  0  0  0  0  0  0
  -19.1171  -28.7333   22.1091 C   0  0  2  0  0  0  0  0  0  0  0  0
  -22.6923  -28.9314   25.2702 C   0  0  0  0  0  0  0  0  0  0  0  0
  -26.2836  -11.3081   20.1978 N   0  0  0  0  0  0  0  0  0  0  0  0
  -25.8874  -19.5349   17.7203 N   0  0  0  0  0  0  0  0  0  0  0  0
  -27.0972  -11.4759   19.1414 N   0  0  0  0  0  0  0  0  0  0  0  0
  -24.2357  -30.1037   22.2522 N   0  0  0  0  0  0  0  0  0  0  0  0
  -28.9195  -14.6779   20.1462 N   0  0  0  0  0  0  0  0  0  0  0  0
  -27.5227  -10.7025   16.9433 N   0  0  0  0  0  0  0  0  0  0  0  0
  -23.9710   -8.2360   18.2464 N   0  0  0  0  0  0  0  0  0  0  0  0
  -27.6304  -16.4172   19.2104 N   0  0  0  0  0  0  0  0  0  0  0  0
  -26.9187  -32.3290   23.0134 N   0  0  0  0  0  0  0  0  0  0  0  0
  -21.1330  -29.2504   23.3027 N   0  0  0  0  0  0  0  0  0  0  0  0
  -18.7735  -28.4180   20.6936 N   0  3  0  0  0  0  0  0  0  0  0  0
  -25.4433   -8.6186   16.5305 O   0  0  0  0  0  0  0  0  0  0  0  0
  -28.6646  -23.8412   17.3680 O   0  0  0  0  0  0  0  0  0  0  0  0
  -26.7638  -30.0056   23.0336 O   0  0  0  0  0  0  0  0  0  0  0  0
  -22.9384  -31.4483   23.6469 O   0  0  0  0  0  0  0  0  0  0  0  0
  -21.1408  -27.4380   21.8563 O   0  0  0  0  0  0  0  0  0  0  0  0
  -29.8431  -16.7705   19.8110 O   0  0  0  0  0  0  0  0  0  0  0  0
  -21.3872   -8.5294   23.1732 O   0  0  0  0  0  0  0  0  0  0  0  0
  -26.7755  -26.1457   18.2601 O   0  0  0  0  0  0  0  0  0  1  0  0
  -20.6143   -3.0828   23.5485 F   0  0  0  0  0  0  0  0  0  0  0  0
  -20.7356   -7.0323   20.9423 F   0  0  0  0  0  0  0  0  0  0  0  0
  -25.6865  -17.9346   18.1214 S   0  0  0  0  0  0  0  0  0  0  0  0
  1  2  1  0  0  0  0
  1  5  2  0  0  0  0
  2  6  2  0  0  0  0
  3  8  2  0  0  0  0
  3 16  1  0  0  0  0
  4  9  1  0  0  0  0
  4 16  2  0  0  0  0
  5 18  1  0  0  0  0
  6 20  1  0  0  0  0
  7 10  2  0  0  0  0
  7 19  1  0  0  0  0
  8 22  1  0  0  0  0
  9 22  2  0  0  0  0
 10 23  1  0  0  0  0
 11 12  2  0  0  0  0
 11 24  1  0  0  0  0
 12 25  1  0  0  0  0
 13 21  1  0  0  0  0
 13 23  2  0  0  0  0
 14 25  2  0  0  0  0
 14 26  1  0  0  0  0
 15 28  1  0  0  0  0
 15 30  2  0  0  0  0
 16 27  1  0  0  0  0
 17 27  1  0  0  0  0
 17 29  2  0  0  0  0
 17 33  1  0  0  0  0
 18 20  2  0  0  0  0
 18 39  1  0  0  0  0
 19 21  2  0  0  0  0
 19 40  1  0  0  0  0
 20 48  1  0  0  0  0
 21 41  1  0  0  0  0
 22 78  1  0  0  0  0
 23 79  1  0  0  0  0
 24 26  2  0  0  0  0
 24 78  1  0  0  0  0
 25 80  1  0  0  0  0
 26 81  1  0  0  0  0
 27 61  2  0  0  0  0
 28 31  1  0  0  0  0
 28 62  2  0  0  0  0
 29 63  1  0  0  0  0
 29 66  1  0  0  0  0
 30 68  1  0  0  0  0
 30 82  1  0  0  0  0
 31 32  2  0  0  0  0
 32 34  1  0  0  0  0
 33 67  1  0  0  0  0
 33 72  2  0  0  0  0
 34 56  1  0  0  0  0
 34 73  2  0  0  0  0
 35 49  1  0  0  0  0
 35 69  1  0  0  0  0
 35 74  2  0  0  0  0
 36 58  1  0  0  0  0
 36 64  1  0  0  0  0
 36 75  2  0  0  0  0
 37 59  1  0  0  0  0
 37 70  1  0  0  0  0
 37 76  2  0  0  0  0
 38 65  1  0  0  0  0
 38 68  1  0  0  0  0
 38 77  2  0  0  0  0
 39 42  1  0  0  0  0
 40 49  1  0  0  0  0
 41 64  1  0  0  0  0
 42 44  1  0  0  0  0
 43 45  1  0  0  0  0
 43 46  1  0  0  0  0
 44 48  1  0  0  0  0
 45 50  1  0  0  0  0
 46 65  1  0  0  0  0
 47 50  1  0  0  0  0
 47 65  1  0  0  0  0
 48 69  1  0  0  0  0
 49 64  1  0  0  0  0
 50 63  1  0  0  0  0
 51 59  1  0  0  0  0
 52 60  1  0  0  0  0
 53 60  1  0  0  0  0
 54 60  1  0  0  0  0
 55 71  1  0  0  0  0
 56 57  1  0  0  0  0
 57 79  1  0  0  0  0
 58 60  1  0  0  0  0
 58 70  1  0  0  0  0
 59 71  1  0  0  0  0
 61 63  1  0  0  0  0
 62 82  1  0  0  0  0
M  CHG  1  71   1
M  ISO  4  38 100  57 101  68 100  79 101
M  END
> <Batch ID>
0124

> <Smiles>
CNC(C)C(=O)NC(C(=O)N1Cc2cc([101O:1][101CH2:1]CC(=O)C=Cc3cc([100NH:0][100C:0](=O)N4CCCC(n5nc(-c6ccc(Oc7ccc(F)cc7F)cc6)c(C(N)=O)c5N)C4)sn3)ccc2CC1C(=O)NC1CCCc2ccccc21)C(C)(C)C

> <Shape>
0.269

> <Color>
0.100

> <Negative vol penalty>
0.000

$$$$

  -OEChem-04052302063D

 85 93  0     1  0  0  0  0  0999 V2000
  -17.1262  -30.2167   18.0566 C   0  0  0  0  0  0  0  0  0  0  0  0
  -18.3358  -29.5777   17.8034 C   0  0  0  0  0  0  0  0  0  0  0  0
  -25.4986  -11.8138   21.1746 C   0  0  0  0  0  0  0  0  0  0  0  0
  -23.3596  -12.9209   21.3647 C   0  0  0  0  0  0  0  0  0  0  0  0
  -17.1180  -31.5062   18.5868 C   0  0  0  0  0  0  0  0  0  0  0  0
  -19.5379  -30.2282   18.0793 C   0  0  0  0  0  0  0  0  0  0  0  0
  -24.7362  -27.6713   20.0654 C   0  0  0  0  0  0  0  0  0  0  0  0
  -34.2054  -22.4352   20.2429 C   0  0  0  0  0  0  0  0  0  0  0  0
  -25.0990  -10.8780   22.1287 C   0  0  0  0  0  0  0  0  0  0  0  0
  -22.9600  -11.9851   22.3187 C   0  0  0  0  0  0  0  0  0  0  0  0
  -25.8988  -27.2755   19.4054 C   0  0  0  0  0  0  0  0  0  0  0  0
  -33.6200  -23.5583   19.6585 C   0  0  0  0  0  0  0  0  0  0  0  0
  -21.8205   -8.8039   22.3604 C   0  0  0  0  0  0  0  0  0  0  0  0
  -20.5418   -8.2604   22.2370 C   0  0  0  0  0  0  0  0  0  0  0  0
  -31.6524  -22.2589   19.1322 C   0  0  0  0  0  0  0  0  0  0  0  0
  -26.9307  -29.3807   19.9734 C   0  0  0  0  0  0  0  0  0  0  0  0
  -19.9617   -9.1311   24.4148 C   0  0  0  0  0  0  0  0  0  0  0  0
  -24.6289  -12.8353   20.7926 C   0  0  0  0  0  0  0  0  0  0  0  0
  -32.2378  -21.1357   19.7166 C   0  0  0  0  0  0  0  0  0  0  0  0
  -24.8739  -13.7192   18.4122 C   0  0  0  0  0  0  0  0  0  0  0  0
  -18.3206  -32.1691   18.8784 C   0  0  0  0  0  0  0  0  0  0  0  0
  -24.6582  -28.9312   20.6760 C   0  0  0  0  0  0  0  0  0  0  0  0
  -19.5458  -31.5283   18.6126 C   0  0  0  0  0  0  0  0  0  0  0  0
  -25.7669  -29.7890   20.6427 C   0  0  0  0  0  0  0  0  0  0  0  0
  -33.5144  -21.2239   20.2719 C   0  0  0  0  0  0  0  0  0  0  0  0
  -23.8297  -10.9637   22.7008 C   0  0  0  0  0  0  0  0  0  0  0  0
  -32.3435  -23.4702   19.1032 C   0  0  0  0  0  0  0  0  0  0  0  0
  -26.9952  -28.1314   19.3568 C   0  0  0  0  0  0  0  0  0  0  0  0
  -22.1698   -9.5109   23.5110 C   0  0  0  0  0  0  0  0  0  0  0  0
  -19.6124   -8.4240   23.2642 C   0  0  0  0  0  0  0  0  0  0  0  0
  -21.2404   -9.6745   24.5381 C   0  0  0  0  0  0  0  0  0  0  0  0
  -25.0413  -13.8026   19.8075 C   0  0  0  0  0  0  0  0  0  0  0  0
  -25.4303  -14.8786   17.9298 C   0  0  0  0  0  0  0  0  0  0  0  0
  -31.4905  -19.8851   19.7318 C   0  0  0  0  0  0  0  0  0  0  0  0
  -30.2815  -19.7049   20.3017 C   0  0  0  0  0  0  0  0  0  0  0  0
  -24.2696  -12.6861   17.6228 C   0  0  0  0  0  0  0  0  0  0  0  0
  -29.6457  -18.3744   20.2239 C   0  0  0  0  0  0  0  0  0  0  0  0
  -22.8481  -31.5124   20.2702 C   0  0  0  0  0  0  0  0  0  0  0  0
  -29.9187  -26.1180   18.6176 C   0  0  0  0  0  0  0  0  0  0  0  0
  -24.4081  -32.5450   22.9202 C   0  0  0  0  0  0  0  0  0  0  0  0
  -27.1684  -32.3502   24.9175 C   0  0  0  0  0  0  0  0  0  0  0  0
  -18.2618  -33.5806   19.4065 C   0  0  0  0  0  0  0  0  0  0  0  0
  -23.4064  -29.3325   21.4070 C   0  0  0  0  0  0  0  0  0  0  0  0
  -25.7412  -31.1440   21.2999 C   0  0  0  0  0  0  0  0  0  0  0  0
  -19.5758  -34.0564   20.0207 C   0  0  0  0  0  0  0  0  0  0  0  0
  -26.3023  -19.4103   19.1374 C   0  0  0  0  0  0  0  0  0  0  0  0
  -20.7481  -33.7086   19.1088 C   0  0  0  0  0  0  0  0  0  0  0  0
  -25.5746  -18.0689   19.1072 C   0  0  0  0  0  0  0  0  0  0  0  0
  -27.3413  -19.4721   20.2560 C   0  0  0  0  0  0  0  0  0  0  0  0
  -27.5952  -17.0080   20.1898 C   0  0  0  0  0  0  0  0  0  0  0  0
  -20.8704  -32.1916   18.9217 C   0  0  1  0  0  0  0  0  0  0  0  0
  -23.2575  -30.8438   21.5520 C   0  0  1  0  0  0  0  0  0  0  0  0
  -26.5781  -16.9067   19.0424 C   0  0  1  0  0  0  0  0  0  0  0  0
  -33.6201  -19.7504   22.2978 C   0  0  0  0  0  0  0  0  0  0  0  0
  -28.1741  -33.3446   26.9905 C   0  0  0  0  0  0  0  0  0  0  0  0
  -25.1465  -35.0573   21.3539 C   0  0  0  0  0  0  0  0  0  0  0  0
  -26.8882  -35.5410   23.0862 C   0  0  0  0  0  0  0  0  0  0  0  0
  -24.4790  -35.4671   23.7290 C   0  0  0  0  0  0  0  0  0  0  0  0
  -27.1969  -29.7331   26.2991 C   0  0  0  0  0  0  0  0  0  0  0  0
  -34.1727  -20.0410   20.9063 C   0  0  0  0  0  0  0  0  0  0  0  0
  -30.3597  -24.6694   18.5720 C   0  0  0  0  0  0  0  0  0  0  0  0
  -28.4236  -26.3514   18.6881 C   0  0  0  0  0  0  0  0  0  1  0  0
  -25.6820  -33.3123   23.1799 C   0  0  1  0  0  0  0  0  0  0  0  0
  -27.3154  -32.2249   26.4232 C   0  0  2  0  0  0  0  0  0  0  0  0
  -25.5490  -34.8197   22.8231 C   0  0  0  0  0  0  0  0  0  0  0  0
  -25.6559  -14.9261   20.1869 N   0  0  0  0  0  0  0  0  0  0  0  0
  -25.8798  -15.5593   19.0229 N   0  0  0  0  0  0  0  0  0  0  0  0
  -28.2531  -18.3193   20.2079 N   0  0  0  0  0  0  0  0  0  0  0  0
  -24.4923  -31.4933   21.9968 N   0  0  0  0  0  0  0  0  0  0  0  0
  -25.5739  -15.3721   16.6815 N   0  0  0  0  0  0  0  0  0  0  0  0
  -23.7474  -11.5631   18.2788 N   0  0  0  0  0  0  0  0  0  0  0  0
  -21.4806  -31.5863   20.0861 N   0  0  0  0  0  0  0  0  0  0  0  0
  -26.0358  -33.0567   24.5720 N   0  0  0  0  0  0  0  0  0  0  0  0
  -27.9487  -30.9226   26.7752 N   0  3  0  0  0  0  0  0  0  0  0  0
  -24.2095  -12.7493   16.3714 O   0  0  0  0  0  0  0  0  0  0  0  0
  -30.3875  -17.3912   20.1825 O   0  0  0  0  0  0  0  0  0  0  0  0
  -23.7091  -31.9315   19.5055 O   0  0  0  0  0  0  0  0  0  0  0  0
  -30.7248  -27.0470   18.5981 O   0  0  0  0  0  0  0  0  0  0  0  0
  -23.3780  -32.8624   23.5200 O   0  0  0  0  0  0  0  0  0  0  0  0
  -27.9793  -31.8726   24.1270 O   0  0  0  0  0  0  0  0  0  0  0  0
  -23.4394  -10.0506   23.6316 O   0  0  0  0  0  0  0  0  0  0  0  0
  -31.7679  -24.5771   18.5257 O   0  0  0  0  0  0  0  0  0  0  0  0
  -28.1309  -27.7478   18.7127 O   0  0  0  0  0  0  0  0  0  1  0  0
  -18.3840   -7.9033   23.1449 F   0  0  0  0  0  0  0  0  0  0  0  0
  -21.5697  -10.3538   25.6453 F   0  0  0  0  0  0  0  0  0  0  0  0
  1  2  1  0  0  0  0
  1  5  2  0  0  0  0
  2  6  2  0  0  0  0
  3  9  2  0  0  0  0
  3 18  1  0  0  0  0
  4 10  1  0  0  0  0
  4 18  2  0  0  0  0
  5 21  1  0  0  0  0
  6 23  1  0  0  0  0
  7 11  2  0  0  0  0
  7 22  1  0  0  0  0
  8 12  2  0  0  0  0
  8 25  1  0  0  0  0
  9 26  1  0  0  0  0
 10 26  2  0  0  0  0
 11 28  1  0  0  0  0
 12 27  1  0  0  0  0
 13 14  2  0  0  0  0
 13 29  1  0  0  0  0
 14 30  1  0  0  0  0
 15 19  1  0  0  0  0
 15 27  2  0  0  0  0
 16 24  1  0  0  0  0
 16 28  2  0  0  0  0
 17 30  2  0  0  0  0
 17 31  1  0  0  0  0
 18 32  1  0  0  0  0
 19 25  2  0  0  0  0
 19 34  1  0  0  0  0
 20 32  1  0  0  0  0
 20 33  2  0  0  0  0
 20 36  1  0  0  0  0
 21 23  2  0  0  0  0
 21 42  1  0  0  0  0
 22 24  2  0  0  0  0
 22 43  1  0  0  0  0
 23 51  1  0  0  0  0
 24 44  1  0  0  0  0
 25 60  1  0  0  0  0
 26 81  1  0  0  0  0
 27 82  1  0  0  0  0
 28 83  1  0  0  0  0
 29 31  2  0  0  0  0
 29 81  1  0  0  0  0
 30 84  1  0  0  0  0
 31 85  1  0  0  0  0
 32 66  2  0  0  0  0
 33 67  1  0  0  0  0
 33 70  1  0  0  0  0
 34 35  2  0  0  0  0
 35 37  1  0  0  0  0
 36 71  1  0  0  0  0
 36 75  2  0  0  0  0
 37 68  1  0  0  0  0
 37 76  2  0  0  0  0
 38 52  1  0  0  0  0
 38 72  1  0  0  0  0
 38 77  2  0  0  0  0
 39 61  1  0  0  0  0
 39 62  1  0  0  0  0
 39 78  2  0  0  0  0
 40 63  1  0  0  0  0
 40 69  1  0  0  0  0
 40 79  2  0  0  0  0
 41 64  1  0  0  0  0
 41 73  1  0  0  0  0
 41 80  2  0  0  0  0
 42 45  1  0  0  0  0
 43 52  1  0  0  0  0
 44 69  1  0  0  0  0
 45 47  1  0  0  0  0
 46 48  1  0  0  0  0
 46 49  1  0  0  0  0
 47 51  1  0  0  0  0
 48 53  1  0  0  0  0
 49 68  1  0  0  0  0
 50 53  1  0  0  0  0
 50 68  1  0  0  0  0
 51 72  1  0  0  0  0
 52 69  1  0  0  0  0
 53 67  1  0  0  0  0
 54 60  1  0  0  0  0
 55 64  1  0  0  0  0
 56 65  1  0  0  0  0
 57 65  1  0  0  0  0
 58 65  1  0  0  0  0
 59 74  1  0  0  0  0
 61 82  1  0  0  0  0
 62 83  1  0  0  0  0
 63 65  1  0  0  0  0
 63 73  1  0  0  0  0
 64 74  1  0  0  0  0
 66 67  1  0  0  0  0
M  CHG  1  74   1
M  ISO  4  35 100  37 100  62 101  83 101
M  END
> <Batch ID>
0124

> <Smiles>
CCc1ccc(OCC(=O)[101CH2:1][101O:1]c2ccc3c(c2)CN(C(=O)C(NC(=O)C(C)NC)C(C)(C)C)C(C(=O)NC2CCCc4ccccc42)C3)cc1C=[100CH:0][100C:0](=O)N1CCCC(n2nc(-c3ccc(Oc4ccc(F)cc4F)cc3)c(C(N)=O)c2N)C1

> <Shape>
0.237

> <Color>
0.090

> <Negative vol penalty>
0.000

$$$$

  -OEChem-04052302063D

 83 91  0     1  0  0  0  0  0999 V2000
  -24.4363  -35.5493   26.7729 C   0  0  0  0  0  0  0  0  0  0  0  0
  -23.9752  -35.0298   25.5675 C   0  0  0  0  0  0  0  0  0  0  0  0
  -26.6128  -12.7496   21.6086 C   0  0  0  0  0  0  0  0  0  0  0  0
  -26.2159  -13.7634   19.4519 C   0  0  0  0  0  0  0  0  0  0  0  0
  -25.7259  -35.2516   27.2110 C   0  0  0  0  0  0  0  0  0  0  0  0
  -24.8039  -34.2131   24.7990 C   0  0  0  0  0  0  0  0  0  0  0  0
  -24.5417  -28.6241   20.3257 C   0  0  0  0  0  0  0  0  0  0  0  0
  -25.3226  -12.2197   21.5971 C   0  0  0  0  0  0  0  0  0  0  0  0
  -24.9257  -13.2336   19.4403 C   0  0  0  0  0  0  0  0  0  0  0  0
  -24.9694  -28.2403   19.0554 C   0  0  0  0  0  0  0  0  0  0  0  0
  -22.2584  -10.2999   21.9712 C   0  0  0  0  0  0  0  0  0  0  0  0
  -22.1009   -8.9677   22.3533 C   0  0  0  0  0  0  0  0  0  0  0  0
  -27.1503  -27.7293   19.9507 C   0  0  0  0  0  0  0  0  0  0  0  0
  -29.2065  -21.0901   17.5698 C   0  0  0  0  0  0  0  0  0  0  0  0
  -29.5813  -22.6214   19.4006 C   0  0  0  0  0  0  0  0  0  0  0  0
  -23.5549   -8.2788   20.5509 C   0  0  0  0  0  0  0  0  0  0  0  0
  -27.0595  -13.5215   20.5361 C   0  0  0  0  0  0  0  0  0  0  0  0
  -29.5630  -13.4679   20.0492 C   0  0  0  0  0  0  0  0  0  0  0  0
  -26.5676  -34.4230   26.4523 C   0  0  0  0  0  0  0  0  0  0  0  0
  -25.4199  -28.5737   21.4178 C   0  0  0  0  0  0  0  0  0  0  0  0
  -26.1066  -33.9051   25.2268 C   0  0  0  0  0  0  0  0  0  0  0  0
  -26.7306  -28.1106   21.2342 C   0  0  0  0  0  0  0  0  0  0  0  0
  -28.7500  -22.1456   16.7804 C   0  0  0  0  0  0  0  0  0  0  0  0
  -28.7093  -23.4390   17.3010 C   0  0  0  0  0  0  0  0  0  0  0  0
  -29.6221  -21.3280   18.8799 C   0  0  0  0  0  0  0  0  0  0  0  0
  -24.4790  -12.4617   20.5129 C   0  0  0  0  0  0  0  0  0  0  0  0
  -26.2747  -27.7955   18.8672 C   0  0  0  0  0  0  0  0  0  0  0  0
  -23.0641  -10.6215   20.8788 C   0  0  0  0  0  0  0  0  0  0  0  0
  -22.7492   -7.9571   21.6432 C   0  0  0  0  0  0  0  0  0  0  0  0
  -29.1249  -23.6769   18.6112 C   0  0  0  0  0  0  0  0  0  0  0  0
  -23.7123   -9.6110   20.1687 C   0  0  0  0  0  0  0  0  0  0  0  0
  -28.3920  -14.0695   20.5477 C   0  0  0  0  0  0  0  0  0  0  0  0
  -30.5535  -14.3864   20.2977 C   0  0  0  0  0  0  0  0  0  0  0  0
  -26.9834  -24.7555   16.5847 C   0  0  0  0  0  0  0  0  0  0  0  0
  -29.7397  -12.1928   19.4178 C   0  0  0  0  0  0  0  0  0  0  0  0
  -26.6282  -30.7214   23.4255 C   0  0  0  0  0  0  0  0  0  0  0  0
  -27.8337  -28.0935   24.8964 C   0  0  0  0  0  0  0  0  0  0  0  0
  -29.3623  -24.8254   24.8967 C   0  0  0  0  0  0  0  0  0  0  0  0
  -30.5352  -20.3203   21.0006 C   0  0  0  0  0  0  0  0  0  0  0  0
  -27.9703  -34.1678   26.9439 C   0  0  0  0  0  0  0  0  0  0  0  0
  -24.9353  -28.9659   22.7866 C   0  0  0  0  0  0  0  0  0  0  0  0
  -27.7065  -28.0185   22.3777 C   0  0  0  0  0  0  0  0  0  0  0  0
  -28.6531  -32.9902   26.2529 C   0  0  0  0  0  0  0  0  0  0  0  0
  -31.7237  -17.9037   23.3297 C   0  0  0  0  0  0  0  0  0  0  0  0
  -28.4545  -33.0692   24.7426 C   0  0  0  0  0  0  0  0  0  0  0  0
  -31.1157  -16.5905   22.8317 C   0  0  0  0  0  0  0  0  0  0  0  0
  -30.7666  -19.0794   23.1411 C   0  0  0  0  0  0  0  0  0  0  0  0
  -29.6343  -17.9275   21.2809 C   0  0  0  0  0  0  0  0  0  0  0  0
  -26.9670  -32.9953   24.3772 C   0  0  1  0  0  0  0  0  0  0  0  0
  -26.0667  -29.3615   23.7304 C   0  0  1  0  0  0  0  0  0  0  0  0
  -30.5865  -16.7254   21.3904 C   0  0  2  0  0  0  0  0  0  0  0  0
  -28.3092  -21.8658   15.3808 C   0  0  0  0  0  0  0  0  0  0  0  0
  -29.9520  -23.3003   26.8003 C   0  0  0  0  0  0  0  0  0  0  0  0
  -30.5815  -29.4078   24.7175 C   0  0  0  0  0  0  0  0  0  0  0  0
  -31.6044  -27.1728   25.1940 C   0  0  0  0  0  0  0  0  0  0  0  0
  -30.1187  -28.2485   26.8846 C   0  0  0  0  0  0  0  0  0  0  0  0
  -27.7964  -22.5932   23.7459 C   0  0  0  0  0  0  0  0  0  0  0  0
  -26.3791  -25.8904   15.8020 C   0  0  0  0  0  0  0  0  0  0  0  0
  -25.7135  -26.8770   16.7465 C   0  0  0  0  0  0  0  0  0  1  0  0
  -29.1060  -27.2899   24.7757 C   0  0  1  0  0  0  0  0  0  0  0  0
  -28.9342  -23.6220   25.7171 C   0  0  2  0  0  0  0  0  0  0  0  0
  -30.3351  -28.0332   25.3708 C   0  0  0  0  0  0  0  0  0  0  0  0
  -28.6162  -15.2768   21.0734 N   0  0  0  0  0  0  0  0  0  0  0  0
  -28.2517  -24.5126   16.5189 N   0  0  0  0  0  0  0  0  0  0  0  0
  -29.9395  -15.4411   20.9066 N   0  0  0  0  0  0  0  0  0  0  0  0
  -27.1871  -28.4193   23.6957 N   0  0  0  0  0  0  0  0  0  0  0  0
  -30.3101  -19.1469   21.7511 N   0  0  0  0  0  0  0  0  0  0  0  0
  -31.8811  -14.3866   20.0527 N   0  0  0  0  0  0  0  0  0  0  0  0
  -28.6163  -11.3738   19.2403 N   0  0  0  0  0  0  0  0  0  0  0  0
  -30.0866  -20.2560   19.6818 N   0  0  0  0  0  0  0  0  0  0  0  0
  -26.4940  -31.6299   24.4580 N   0  0  0  0  0  0  0  0  0  0  0  0
  -28.8324  -25.9972   25.3941 N   0  0  0  0  0  0  0  0  0  0  0  0
  -28.7850  -22.4250   24.8420 N   0  3  0  0  0  0  0  0  0  0  0  0
  -30.8632  -11.7847   19.0374 O   0  0  0  0  0  0  0  0  0  0  0  0
  -27.1463  -30.9305   22.3349 O   0  0  0  0  0  0  0  0  0  0  0  0
  -27.4247  -28.4141   26.0151 O   0  0  0  0  0  0  0  0  0  0  0  0
  -30.0965  -24.7353   23.9152 O   0  0  0  0  0  0  0  0  0  0  0  0
  -31.1098  -21.2993   21.4835 O   0  0  0  0  0  0  0  0  0  0  0  0
  -23.2200  -11.9447   20.5011 O   0  0  0  0  0  0  0  0  0  0  0  0
  -26.6949  -27.4208   17.6283 O   0  0  0  0  0  0  0  0  0  1  0  0
  -22.5991   -6.6780   22.0113 F   0  0  0  0  0  0  0  0  0  0  0  0
  -29.0894  -24.9163   19.1206 F   0  0  0  0  0  0  0  0  0  0  0  0
  -24.4885   -9.9140   19.1192 F   0  0  0  0  0  0  0  0  0  0  0  0
  1  2  1  0  0  0  0
  1  5  2  0  0  0  0
  2  6  2  0  0  0  0
  3  8  2  0  0  0  0
  3 17  1  0  0  0  0
  4  9  1  0  0  0  0
  4 17  2  0  0  0  0
  5 19  1  0  0  0  0
  6 21  1  0  0  0  0
  7 10  2  0  0  0  0
  7 20  1  0  0  0  0
  8 26  1  0  0  0  0
  9 26  2  0  0  0  0
 10 27  1  0  0  0  0
 11 12  2  0  0  0  0
 11 28  1  0  0  0  0
 12 29  1  0  0  0  0
 13 22  1  0  0  0  0
 13 27  2  0  0  0  0
 14 23  2  0  0  0  0
 14 25  1  0  0  0  0
 15 25  2  0  0  0  0
 15 30  1  0  0  0  0
 16 29  2  0  0  0  0
 16 31  1  0  0  0  0
 17 32  1  0  0  0  0
 18 32  1  0  0  0  0
 18 33  2  0  0  0  0
 18 35  1  0  0  0  0
 19 21  2  0  0  0  0
 19 40  1  0  0  0  0
 20 22  2  0  0  0  0
 20 41  1  0  0  0  0
 21 49  1  0  0  0  0
 22 42  1  0  0  0  0
 23 24  1  0  0  0  0
 23 52  1  0  0  0  0
 24 30  2  0  0  0  0
 24 64  1  0  0  0  0
 25 70  1  0  0  0  0
 26 79  1  0  0  0  0
 27 80  1  0  0  0  0
 28 31  2  0  0  0  0
 28 79  1  0  0  0  0
 29 81  1  0  0  0  0
 30 82  1  0  0  0  0
 31 83  1  0  0  0  0
 32 63  2  0  0  0  0
 33 65  1  0  0  0  0
 33 68  1  0  0  0  0
 34 58  1  0  0  0  0
 34 64  2  0  0  0  0
 35 69  1  0  0  0  0
 35 74  2  0  0  0  0
 36 50  1  0  0  0  0
 36 71  1  0  0  0  0
 36 75  2  0  0  0  0
 37 60  1  0  0  0  0
 37 66  1  0  0  0  0
 37 76  2  0  0  0  0
 38 61  1  0  0  0  0
 38 72  1  0  0  0  0
 38 77  2  0  0  0  0
 39 67  1  0  0  0  0
 39 70  1  0  0  0  0
 39 78  2  0  0  0  0
 40 43  1  0  0  0  0
 41 50  1  0  0  0  0
 42 66  1  0  0  0  0
 43 45  1  0  0  0  0
 44 46  1  0  0  0  0
 44 47  1  0  0  0  0
 45 49  1  0  0  0  0
 46 51  1  0  0  0  0
 47 67  1  0  0  0  0
 48 51  1  0  0  0  0
 48 67  1  0  0  0  0
 49 71  1  0  0  0  0
 50 66  1  0  0  0  0
 51 65  1  0  0  0  0
 53 61  1  0  0  0  0
 54 62  1  0  0  0  0
 55 62  1  0  0  0  0
 56 62  1  0  0  0  0
 57 73  1  0  0  0  0
 58 59  1  0  0  0  0
 59 80  1  0  0  0  0
 60 62  1  0  0  0  0
 60 72  1  0  0  0  0
 61 73  1  0  0  0  0
 63 65  1  0  0  0  0
M  CHG  1  73   1
M  ISO  4  39 100  59 101  70 100  80 101
M  END
> <Batch ID>
0124

> <Smiles>
CNC(C)C(=O)NC(C(=O)N1Cc2cc([101O:1][101CH2:1]C=CNc3c(C)cc([100NH:0][100C:0](=O)N4CCCC(n5nc(-c6ccc(Oc7ccc(F)cc7F)cc6)c(C(N)=O)c5N)C4)cc3F)ccc2CC1C(=O)NC1CCCc2ccccc21)C(C)(C)C

> <Shape>
0.268

> <Color>
0.068

> <Negative vol penalty>
0.000

$$$$

  -OEChem-04052302063D

 87 95  0     1  0  0  0  0  0999 V2000
  -26.1835  -28.3192   18.7173 C   0  0  0  0  0  0  0  0  0  0  0  0
  -25.5254  -27.3312   19.4426 C   0  0  0  0  0  0  0  0  0  0  0  0
  -24.4561   -8.8819   21.1259 C   0  0  0  0  0  0  0  0  0  0  0  0
  -22.6339  -10.4649   21.0238 C   0  0  0  0  0  0  0  0  0  0  0  0
  -24.2609  -21.0752   21.4207 C   0  0  0  0  0  0  0  0  0  0  0  0
  -26.0805  -29.6539   19.1070 C   0  0  0  0  0  0  0  0  0  0  0  0
  -24.7646  -27.6772   20.5588 C   0  0  0  0  0  0  0  0  0  0  0  0
  -20.2849  -25.3180   20.6639 C   0  0  0  0  0  0  0  0  0  0  0  0
  -25.5424  -21.1721   20.8786 C   0  0  0  0  0  0  0  0  0  0  0  0
  -23.5432   -7.8423   21.3026 C   0  0  0  0  0  0  0  0  0  0  0  0
  -21.7208   -9.4252   21.2005 C   0  0  0  0  0  0  0  0  0  0  0  0
  -20.2758  -23.9871   21.0792 C   0  0  0  0  0  0  0  0  0  0  0  0
  -21.6917   -6.5548   23.8203 C   0  0  0  0  0  0  0  0  0  0  0  0
  -21.9714   -5.6081   24.8058 C   0  0  0  0  0  0  0  0  0  0  0  0
  -24.7518  -18.8351   22.1810 C   0  0  0  0  0  0  0  0  0  0  0  0
  -19.5445  -24.6823   23.2704 C   0  0  0  0  0  0  0  0  0  0  0  0
  -21.9906   -3.8686   23.1292 C   0  0  0  0  0  0  0  0  0  0  0  0
  -24.0015  -10.1932   20.9866 C   0  0  0  0  0  0  0  0  0  0  0  0
  -23.8656  -19.9067   22.0720 C   0  0  0  0  0  0  0  0  0  0  0  0
  -26.0334  -18.9320   21.6389 C   0  0  0  0  0  0  0  0  0  0  0  0
  -25.4430  -11.7635   19.5852 C   0  0  0  0  0  0  0  0  0  0  0  0
  -25.3102  -30.0175   20.2229 C   0  0  0  0  0  0  0  0  0  0  0  0
  -19.9338  -26.3436   21.5534 C   0  0  0  0  0  0  0  0  0  0  0  0
  -24.6522  -29.0179   20.9646 C   0  0  0  0  0  0  0  0  0  0  0  0
  -19.5475  -26.0251   22.8631 C   0  0  0  0  0  0  0  0  0  0  0  0
  -26.4287  -20.1005   20.9877 C   0  0  0  0  0  0  0  0  0  0  0  0
  -22.1755   -8.1139   21.3399 C   0  0  0  0  0  0  0  0  0  0  0  0
  -19.9083  -23.6693   22.3835 C   0  0  0  0  0  0  0  0  0  0  0  0
  -21.5613   -6.1585   22.4893 C   0  0  0  0  0  0  0  0  0  0  0  0
  -22.1209   -4.2650   24.4602 C   0  0  0  0  0  0  0  0  0  0  0  0
  -21.7108   -4.8154   22.1437 C   0  0  0  0  0  0  0  0  0  0  0  0
  -24.9442  -11.2677   20.8046 C   0  0  0  0  0  0  0  0  0  0  0  0
  -26.2990  -12.7738   19.9498 C   0  0  0  0  0  0  0  0  0  0  0  0
  -22.1452  -20.6905   23.5976 C   0  0  0  0  0  0  0  0  0  0  0  0
  -22.5049  -19.8054   22.6465 C   0  0  0  0  0  0  0  0  0  0  0  0
  -26.9392  -17.7982   21.7666 C   0  0  0  0  0  0  0  0  0  0  0  0
  -25.1579  -11.3481   18.2428 C   0  0  0  0  0  0  0  0  0  0  0  0
  -27.3417  -17.2809   23.0946 C   0  0  0  0  0  0  0  0  0  0  0  0
  -21.4364  -28.8629   22.7777 C   0  0  0  0  0  0  0  0  0  0  0  0
  -18.5070  -29.5243   24.0039 C   0  0  0  0  0  0  0  0  0  0  0  0
  -15.4466  -28.3710   24.9790 C   0  0  0  0  0  0  0  0  0  0  0  0
  -25.2670  -31.4681   20.6336 C   0  0  0  0  0  0  0  0  0  0  0  0
  -19.9230  -27.7719   21.0820 C   0  0  0  0  0  0  0  0  0  0  0  0
  -19.1424  -27.0874   23.8509 C   0  0  0  0  0  0  0  0  0  0  0  0
  -24.1366  -31.7921   21.6070 C   0  0  0  0  0  0  0  0  0  0  0  0
  -28.1484  -14.0681   24.4671 C   0  0  0  0  0  0  0  0  0  0  0  0
  -24.0814  -30.7559   22.7250 C   0  0  0  0  0  0  0  0  0  0  0  0
  -27.3951  -13.0969   23.5587 C   0  0  0  0  0  0  0  0  0  0  0  0
  -27.3784  -15.3718   24.6510 C   0  0  0  0  0  0  0  0  0  0  0  0
  -26.2705  -15.0807   22.4519 C   0  0  0  0  0  0  0  0  0  0  0  0
  -23.7973  -29.3563   22.1666 C   0  0  1  0  0  0  0  0  0  0  0  0
  -20.0428  -28.7783   22.2223 C   0  0  1  0  0  0  0  0  0  0  0  0
  -27.0303  -13.7629   22.2201 C   0  0  2  0  0  0  0  0  0  0  0  0
  -27.7870  -20.0677   18.8805 C   0  0  0  0  0  0  0  0  0  0  0  0
  -19.8237  -18.2043   20.3659 C   0  0  0  0  0  0  0  0  0  0  0  0
  -13.2770  -29.1425   25.9765 C   0  0  0  0  0  0  0  0  0  0  0  0
  -19.8321  -29.6966   26.7470 C   0  0  0  0  0  0  0  0  0  0  0  0
  -17.5585  -29.5159   27.7795 C   0  0  0  0  0  0  0  0  0  0  0  0
  -18.1081  -31.4545   26.3090 C   0  0  0  0  0  0  0  0  0  0  0  0
  -13.9140  -27.5194   22.5948 C   0  0  0  0  0  0  0  0  0  0  0  0
  -27.7950  -20.2302   20.3972 C   0  0  0  0  0  0  0  0  0  0  0  0
  -20.8288  -20.7569   24.3247 C   0  0  0  0  0  0  0  0  0  0  0  0
  -21.6028  -18.7364   22.0713 C   0  0  0  0  0  0  0  0  0  0  0  0
  -20.7465  -19.2772   20.9229 C   0  0  0  0  0  0  0  0  0  0  0  0
  -20.1693  -22.1220   24.1705 C   0  0  0  0  0  0  0  0  0  1  0  0
  -17.7761  -29.1707   25.2766 C   0  0  1  0  0  0  0  0  0  0  0  0
  -14.0428  -28.8717   24.6908 C   0  0  2  0  0  0  0  0  0  0  0  0
  -18.3282  -29.9394   26.5102 C   0  0  0  0  0  0  0  0  0  0  0  0
  -25.4420  -11.9099   21.8647 N   0  0  0  0  0  0  0  0  0  0  0  0
  -27.4472  -17.1710   20.7419 N   0  0  0  0  0  0  0  0  0  0  0  0
  -26.2627  -12.8196   21.3124 N   0  0  0  0  0  0  0  0  0  0  0  0
  -27.0167  -15.9584   23.3622 N   0  0  0  0  0  0  0  0  0  0  0  0
  -19.1540  -28.4697   23.3443 N   0  0  0  0  0  0  0  0  0  0  0  0
  -27.0719  -13.6185   19.2345 N   0  0  0  0  0  0  0  0  0  0  0  0
  -24.2546  -10.2945   18.0471 N   0  0  0  0  0  0  0  0  0  0  0  0
  -22.3932  -29.2157   21.8453 N   0  0  0  0  0  0  0  0  0  0  0  0
  -16.3603  -29.4032   25.0123 N   0  0  0  0  0  0  0  0  0  0  0  0
  -13.2860  -27.8631   23.8965 N   0  3  0  0  0  0  0  0  0  0  0  0
  -25.7010  -11.8841   17.2472 O   0  0  0  0  0  0  0  0  0  0  0  0
  -27.9210  -18.0801   23.8185 O   0  0  0  0  0  0  0  0  0  0  0  0
  -21.6290  -28.6271   23.9647 O   0  0  0  0  0  0  0  0  0  0  0  0
  -18.4980  -30.6918   23.6058 O   0  0  0  0  0  0  0  0  0  0  0  0
  -15.7061  -27.1834   25.1605 O   0  0  0  0  0  0  0  0  0  0  0  0
  -21.2843   -7.0997   21.5120 O   0  0  0  0  0  0  0  0  0  0  0  0
  -19.8992  -22.3712   22.7916 O   0  0  0  0  0  0  0  0  0  1  0  0
  -22.3911   -3.3563   25.4064 F   0  0  0  0  0  0  0  0  0  0  0  0
  -21.5879   -4.4287   20.8666 F   0  0  0  0  0  0  0  0  0  0  0  0
  1  2  1  0  0  0  0
  1  6  2  0  0  0  0
  2  7  2  0  0  0  0
  3 10  2  0  0  0  0
  3 18  1  0  0  0  0
  4 11  1  0  0  0  0
  4 18  2  0  0  0  0
  5  9  2  0  0  0  0
  5 19  1  0  0  0  0
  6 22  1  0  0  0  0
  7 24  1  0  0  0  0
  8 12  2  0  0  0  0
  8 23  1  0  0  0  0
  9 26  1  0  0  0  0
 10 27  1  0  0  0  0
 11 27  2  0  0  0  0
 12 28  1  0  0  0  0
 13 14  2  0  0  0  0
 13 29  1  0  0  0  0
 14 30  1  0  0  0  0
 15 19  2  0  0  0  0
 15 20  1  0  0  0  0
 16 25  1  0  0  0  0
 16 28  2  0  0  0  0
 17 30  2  0  0  0  0
 17 31  1  0  0  0  0
 18 32  1  0  0  0  0
 19 35  1  0  0  0  0
 20 26  2  0  0  0  0
 20 36  1  0  0  0  0
 21 32  1  0  0  0  0
 21 33  2  0  0  0  0
 21 37  1  0  0  0  0
 22 24  2  0  0  0  0
 22 42  1  0  0  0  0
 23 25  2  0  0  0  0
 23 43  1  0  0  0  0
 24 51  1  0  0  0  0
 25 44  1  0  0  0  0
 26 61  1  0  0  0  0
 27 84  1  0  0  0  0
 28 85  1  0  0  0  0
 29 31  2  0  0  0  0
 29 84  1  0  0  0  0
 30 86  1  0  0  0  0
 31 87  1  0  0  0  0
 32 69  2  0  0  0  0
 33 71  1  0  0  0  0
 33 74  1  0  0  0  0
 34 35  2  0  0  0  0
 34 62  1  0  0  0  0
 35 63  1  0  0  0  0
 36 38  1  0  0  0  0
 36 70  2  0  0  0  0
 37 75  1  0  0  0  0
 37 79  2  0  0  0  0
 38 72  1  0  0  0  0
 38 80  2  0  0  0  0
 39 52  1  0  0  0  0
 39 76  1  0  0  0  0
 39 81  2  0  0  0  0
 40 66  1  0  0  0  0
 40 73  1  0  0  0  0
 40 82  2  0  0  0  0
 41 67  1  0  0  0  0
 41 77  1  0  0  0  0
 41 83  2  0  0  0  0
 42 45  1  0  0  0  0
 43 52  1  0  0  0  0
 44 73  1  0  0  0  0
 45 47  1  0  0  0  0
 46 48  1  0  0  0  0
 46 49  1  0  0  0  0
 47 51  1  0  0  0  0
 48 53  1  0  0  0  0
 49 72  1  0  0  0  0
 50 53  1  0  0  0  0
 50 72  1  0  0  0  0
 51 76  1  0  0  0  0
 52 73  1  0  0  0  0
 53 71  1  0  0  0  0
 54 61  1  0  0  0  0
 55 64  1  0  0  0  0
 56 67  1  0  0  0  0
 57 68  1  0  0  0  0
 58 68  1  0  0  0  0
 59 68  1  0  0  0  0
 60 78  1  0  0  0  0
 62 65  1  0  0  0  0
 63 64  1  0  0  0  0
 65 85  1  0  0  0  0
 66 68  1  0  0  0  0
 66 77  1  0  0  0  0
 67 78  1  0  0  0  0
 69 71  1  0  0  0  0
M  CHG  1  78   1
M  ISO  4  36 100  38 100  65 101  85 101
M  END
> <Batch ID>
0124

> <Smiles>
CCCC(=CC[101CH2:1][101O:1]c1ccc2c(c1)CN(C(=O)C(NC(=O)C(C)NC)C(C)(C)C)C(C(=O)NC1CCCc3ccccc31)C2)c1ccc(CC)c([100C:0](=N)[100C:0](=O)N2CCCC(n3nc(-c4ccc(Oc5ccc(F)cc5F)cc4)c(C(N)=O)c3N)C2)c1

> <Shape>
0.238

> <Color>
0.118

> <Negative vol penalty>
0.000

$$$$

  -OEChem-04052302063D

 84 92  0     1  0  0  0  0  0999 V2000
  -24.3299  -21.2387   18.4991 C   0  0  0  0  0  0  0  0  0  0  0  0
  -25.4693  -21.3196   19.2931 C   0  0  0  0  0  0  0  0  0  0  0  0
  -23.1405   -9.7733   20.1135 C   0  0  0  0  0  0  0  0  0  0  0  0
  -23.8189  -10.0297   22.4181 C   0  0  0  0  0  0  0  0  0  0  0  0
  -23.9060  -22.3520   17.7746 C   0  0  0  0  0  0  0  0  0  0  0  0
  -26.1862  -22.5136   19.3624 C   0  0  0  0  0  0  0  0  0  0  0  0
  -27.4972  -23.7203   24.1026 C   0  0  0  0  0  0  0  0  0  0  0  0
  -22.4097   -8.6355   20.4553 C   0  0  0  0  0  0  0  0  0  0  0  0
  -23.0881   -8.8919   22.7598 C   0  0  0  0  0  0  0  0  0  0  0  0
  -28.5844  -23.0440   24.6543 C   0  0  0  0  0  0  0  0  0  0  0  0
  -19.8560   -8.0887   23.3335 C   0  0  0  0  0  0  0  0  0  0  0  0
  -19.0592   -8.1513   24.4766 C   0  0  0  0  0  0  0  0  0  0  0  0
  -29.9986  -24.9385   24.1745 C   0  0  0  0  0  0  0  0  0  0  0  0
  -30.2592  -18.7817   23.5756 C   0  0  0  0  0  0  0  0  0  0  0  0
  -31.9068  -16.9243   22.3035 C   0  0  0  0  0  0  0  0  0  0  0  0
  -20.3094   -6.3263   25.4479 C   0  0  0  0  0  0  0  0  0  0  0  0
  -23.8452  -10.4704   21.0949 C   0  0  0  0  0  0  0  0  0  0  0  0
  -24.1444  -12.9772   20.7288 C   0  0  0  0  0  0  0  0  0  0  0  0
  -24.6125  -23.5631   17.8426 C   0  0  0  0  0  0  0  0  0  0  0  0
  -27.6552  -25.0087   23.5720 C   0  0  0  0  0  0  0  0  0  0  0  0
  -25.7721  -23.6438   18.6371 C   0  0  0  0  0  0  0  0  0  0  0  0
  -28.9113  -25.6300   23.6190 C   0  0  0  0  0  0  0  0  0  0  0  0
  -29.7018  -17.8048   22.7507 C   0  0  0  0  0  0  0  0  0  0  0  0
  -32.4642  -17.9013   23.1284 C   0  0  0  0  0  0  0  0  0  0  0  0
  -31.6404  -18.8300   23.7644 C   0  0  0  0  0  0  0  0  0  0  0  0
  -30.5255  -16.8761   22.1146 C   0  0  0  0  0  0  0  0  0  0  0  0
  -22.3834   -8.1947   21.7784 C   0  0  0  0  0  0  0  0  0  0  0  0
  -29.8360  -23.6519   24.6877 C   0  0  0  0  0  0  0  0  0  0  0  0
  -20.8795   -7.1449   23.2475 C   0  0  0  0  0  0  0  0  0  0  0  0
  -19.2859   -7.2701   25.5339 C   0  0  0  0  0  0  0  0  0  0  0  0
  -21.1062   -6.2637   24.3048 C   0  0  0  0  0  0  0  0  0  0  0  0
  -24.6007  -11.6456   20.7425 C   0  0  0  0  0  0  0  0  0  0  0  0
  -25.2346  -13.7098   20.3273 C   0  0  0  0  0  0  0  0  0  0  0  0
  -32.5020  -20.9319   24.0185 C   0  0  0  0  0  0  0  0  0  0  0  0
  -22.8506  -13.5049   21.0505 C   0  0  0  0  0  0  0  0  0  0  0  0
  -27.2956  -26.3088   20.6937 C   0  0  0  0  0  0  0  0  0  0  0  0
  -27.8827  -29.0678   22.2954 C   0  0  0  0  0  0  0  0  0  0  0  0
  -29.2717  -30.6038   25.0080 C   0  0  0  0  0  0  0  0  0  0  0  0
  -30.6710  -14.8873   20.5751 C   0  0  0  0  0  0  0  0  0  0  0  0
  -24.1426  -24.7256   17.0046 C   0  0  0  0  0  0  0  0  0  0  0  0
  -26.4667  -25.7353   23.0046 C   0  0  0  0  0  0  0  0  0  0  0  0
  -29.1293  -27.0198   23.0809 C   0  0  0  0  0  0  0  0  0  0  0  0
  -24.7456  -26.0633   17.4259 C   0  0  0  0  0  0  0  0  0  0  0  0
  -29.6854  -12.2217   18.4304 C   0  0  0  0  0  0  0  0  0  0  0  0
  -26.2502  -25.9278   17.6369 C   0  0  0  0  0  0  0  0  0  0  0  0
  -28.2371  -11.9437   18.8396 C   0  0  0  0  0  0  0  0  0  0  0  0
  -30.5533  -12.5913   19.6320 C   0  0  0  0  0  0  0  0  0  0  0  0
  -28.5858  -13.4103   20.8680 C   0  0  0  0  0  0  0  0  0  0  0  0
  -26.5624  -24.9287   18.7576 C   0  0  1  0  0  0  0  0  0  0  0  0
  -26.8532  -26.8412   22.0273 C   0  0  1  0  0  0  0  0  0  0  0  0
  -27.6584  -13.0970   19.6825 C   0  0  2  0  0  0  0  0  0  0  0  0
  -33.9459  -17.9331   23.3153 C   0  0  0  0  0  0  0  0  0  0  0  0
  -27.7927  -18.3590   21.2227 C   0  0  0  0  0  0  0  0  0  0  0  0
  -29.6233  -32.8723   26.0218 C   0  0  0  0  0  0  0  0  0  0  0  0
  -30.0892  -29.6307   20.2645 C   0  0  0  0  0  0  0  0  0  0  0  0
  -30.9992  -31.3548   21.8354 C   0  0  0  0  0  0  0  0  0  0  0  0
  -28.7088  -31.6220   20.8840 C   0  0  0  0  0  0  0  0  0  0  0  0
  -27.7376  -29.8850   27.4347 C   0  0  0  0  0  0  0  0  0  0  0  0
  -28.2192  -17.7766   22.5665 C   0  0  0  0  0  0  0  0  0  0  0  0
  -33.0804  -22.0726   24.8123 C   0  0  0  0  0  0  0  0  0  0  0  0
  -32.1874  -23.2959   24.6911 C   0  0  0  0  0  0  0  0  0  1  0  0
  -29.1205  -29.8572   22.6470 C   0  0  1  0  0  0  0  0  0  0  0  0
  -28.7240  -31.6472   25.9649 C   0  0  2  0  0  0  0  0  0  0  0  0
  -29.7261  -30.5892   21.4162 C   0  0  0  0  0  0  0  0  0  0  0  0
  -25.8811  -11.5355   20.3783 N   0  0  0  0  0  0  0  0  0  0  0  0
  -32.1845  -19.8209   24.5988 N   0  0  0  0  0  0  0  0  0  0  0  0
  -26.2385  -12.8074   20.1320 N   0  0  0  0  0  0  0  0  0  0  0  0
  -27.9377  -27.6867   22.5306 N   0  0  0  0  0  0  0  0  0  0  0  0
  -29.9448  -13.6934   20.3804 N   0  0  0  0  0  0  0  0  0  0  0  0
  -25.4228  -15.0312   20.1255 N   0  0  0  0  0  0  0  0  0  0  0  0
  -21.8444  -12.6127   21.4453 N   0  0  0  0  0  0  0  0  0  0  0  0
  -29.9783  -15.8763   21.2728 N   0  0  0  0  0  0  0  0  0  0  0  0
  -26.3451  -25.5375   20.0524 N   0  0  0  0  0  0  0  0  0  0  0  0
  -28.7421  -30.7432   23.7426 N   0  0  0  0  0  0  0  0  0  0  0  0
  -28.6124  -31.0819   27.3393 N   0  3  0  0  0  0  0  0  0  0  0  0
  -22.5898  -14.7295   20.9739 O   0  0  0  0  0  0  0  0  0  0  0  0
  -28.4158  -26.5789   20.2767 O   0  0  0  0  0  0  0  0  0  0  0  0
  -26.9006  -29.6560   21.8359 O   0  0  0  0  0  0  0  0  0  0  0  0
  -30.0905  -29.7527   25.3481 O   0  0  0  0  0  0  0  0  0  0  0  0
  -31.8126  -15.0324   20.1304 O   0  0  0  0  0  0  0  0  0  0  0  0
  -21.6702   -7.0846   22.1123 O   0  0  0  0  0  0  0  0  0  0  0  0
  -30.8990  -22.9938   25.2250 O   0  0  0  0  0  0  0  0  0  1  0  0
  -18.5216   -7.3313   26.6322 F   0  0  0  0  0  0  0  0  0  0  0  0
  -22.0888   -5.3556   24.2285 F   0  0  0  0  0  0  0  0  0  0  0  0
  1  2  1  0  0  0  0
  1  5  2  0  0  0  0
  2  6  2  0  0  0  0
  3  8  2  0  0  0  0
  3 17  1  0  0  0  0
  4  9  1  0  0  0  0
  4 17  2  0  0  0  0
  5 19  1  0  0  0  0
  6 21  1  0  0  0  0
  7 10  2  0  0  0  0
  7 20  1  0  0  0  0
  8 27  1  0  0  0  0
  9 27  2  0  0  0  0
 10 28  1  0  0  0  0
 11 12  2  0  0  0  0
 11 29  1  0  0  0  0
 12 30  1  0  0  0  0
 13 22  1  0  0  0  0
 13 28  2  0  0  0  0
 14 23  1  0  0  0  0
 14 25  2  0  0  0  0
 15 24  2  0  0  0  0
 15 26  1  0  0  0  0
 16 30  2  0  0  0  0
 16 31  1  0  0  0  0
 17 32  1  0  0  0  0
 18 32  1  0  0  0  0
 18 33  2  0  0  0  0
 18 35  1  0  0  0  0
 19 21  2  0  0  0  0
 19 40  1  0  0  0  0
 20 22  2  0  0  0  0
 20 41  1  0  0  0  0
 21 49  1  0  0  0  0
 22 42  1  0  0  0  0
 23 26  2  0  0  0  0
 23 59  1  0  0  0  0
 24 25  1  0  0  0  0
 24 52  1  0  0  0  0
 25 66  1  0  0  0  0
 26 72  1  0  0  0  0
 27 81  1  0  0  0  0
 28 82  1  0  0  0  0
 29 31  2  0  0  0  0
 29 81  1  0  0  0  0
 30 83  1  0  0  0  0
 31 84  1  0  0  0  0
 32 65  2  0  0  0  0
 33 67  1  0  0  0  0
 33 70  1  0  0  0  0
 34 60  1  0  0  0  0
 34 66  2  0  0  0  0
 35 71  1  0  0  0  0
 35 76  2  0  0  0  0
 36 50  1  0  0  0  0
 36 73  1  0  0  0  0
 36 77  2  0  0  0  0
 37 62  1  0  0  0  0
 37 68  1  0  0  0  0
 37 78  2  0  0  0  0
 38 63  1  0  0  0  0
 38 74  1  0  0  0  0
 38 79  2  0  0  0  0
 39 69  1  0  0  0  0
 39 72  1  0  0  0  0
 39 80  2  0  0  0  0
 40 43  1  0  0  0  0
 41 50  1  0  0  0  0
 42 68  1  0  0  0  0
 43 45  1  0  0  0  0
 44 46  1  0  0  0  0
 44 47  1  0  0  0  0
 45 49  1  0  0  0  0
 46 51  1  0  0  0  0
 47 69  1  0  0  0  0
 48 51  1  0  0  0  0
 48 69  1  0  0  0  0
 49 73  1  0  0  0  0
 50 68  1  0  0  0  0
 51 67  1  0  0  0  0
 53 59  1  0  0  0  0
 54 63  1  0  0  0  0
 55 64  1  0  0  0  0
 56 64  1  0  0  0  0
 57 64  1  0  0  0  0
 58 75  1  0  0  0  0
 60 61  1  0  0  0  0
 61 82  1  0  0  0  0
 62 64  1  0  0  0  0
 62 74  1  0  0  0  0
 63 75  1  0  0  0  0
 65 67  1  0  0  0  0
M  CHG  1  75   1
M  ISO  4  39 100  61 101  72 100  82 101
M  END
> <Batch ID>
0124

> <Smiles>
CCc1cc(NC=C[101CH2:1][101O:1]c2ccc3c(c2)CN(C(=O)C(NC(=O)C(C)NC)C(C)(C)C)C(C(=O)NC2CCCc4ccccc42)C3)c(C)cc1[100NH:0][100C:0](=O)N1CCCC(n2nc(-c3ccc(Oc4ccc(F)cc4F)cc3)c(C(N)=O)c2N)C1

> <Shape>
0.221

> <Color>
0.205

> <Negative vol penalty>
0.000

$$$$

  -OEChem-04052302063D

 83 91  0     1  0  0  0  0  0999 V2000
  -28.3437  -36.3556   22.8230 C   0  0  0  0  0  0  0  0  0  0  0  0
  -28.6168  -34.9951   22.7228 C   0  0  0  0  0  0  0  0  0  0  0  0
  -24.0475   -9.7937   22.2604 C   0  0  0  0  0  0  0  0  0  0  0  0
  -24.6318  -11.4295   23.9396 C   0  0  0  0  0  0  0  0  0  0  0  0
  -30.7040  -20.1462   19.0050 C   0  0  0  0  0  0  0  0  0  0  0  0
  -27.0901  -36.7836   23.2580 C   0  0  0  0  0  0  0  0  0  0  0  0
  -27.6367  -34.0618   23.0587 C   0  0  0  0  0  0  0  0  0  0  0  0
  -27.2926  -30.3049   19.6805 C   0  0  0  0  0  0  0  0  0  0  0  0
  -30.4427  -18.7786   18.9215 C   0  0  0  0  0  0  0  0  0  0  0  0
  -23.6687   -8.9004   23.2624 C   0  0  0  0  0  0  0  0  0  0  0  0
  -24.2530  -10.5362   24.9416 C   0  0  0  0  0  0  0  0  0  0  0  0
  -28.2589  -29.3019   19.7431 C   0  0  0  0  0  0  0  0  0  0  0  0
  -21.0120   -8.4211   25.2983 C   0  0  0  0  0  0  0  0  0  0  0  0
  -19.8101   -7.7328   25.1327 C   0  0  0  0  0  0  0  0  0  0  0  0
  -28.3415  -20.5820   19.2610 C   0  0  0  0  0  0  0  0  0  0  0  0
  -26.7038  -27.8857   20.9242 C   0  0  0  0  0  0  0  0  0  0  0  0
  -21.0031   -5.6330   25.2024 C   0  0  0  0  0  0  0  0  0  0  0  0
  -24.5291  -11.0583   22.5990 C   0  0  0  0  0  0  0  0  0  0  0  0
  -29.6534  -21.0479   19.1748 C   0  0  0  0  0  0  0  0  0  0  0  0
  -24.1071  -12.9328   20.9210 C   0  0  0  0  0  0  0  0  0  0  0  0
  -26.0909  -35.8551   23.5901 C   0  0  0  0  0  0  0  0  0  0  0  0
  -26.0260  -30.1096   20.2499 C   0  0  0  0  0  0  0  0  0  0  0  0
  -26.3690  -34.4778   23.4998 C   0  0  0  0  0  0  0  0  0  0  0  0
  -25.7223  -28.8868   20.8653 C   0  0  0  0  0  0  0  0  0  0  0  0
  -28.0802  -19.2144   19.1774 C   0  0  0  0  0  0  0  0  0  0  0  0
  -29.1308  -18.3127   19.0076 C   0  0  0  0  0  0  0  0  0  0  0  0
  -23.7714   -9.2716   24.6030 C   0  0  0  0  0  0  0  0  0  0  0  0
  -27.9656  -28.0931   20.3676 C   0  0  0  0  0  0  0  0  0  0  0  0
  -22.2094   -7.7154   25.4159 C   0  0  0  0  0  0  0  0  0  0  0  0
  -19.8057   -6.3388   25.0848 C   0  0  0  0  0  0  0  0  0  0  0  0
  -22.2050   -6.3214   25.3680 C   0  0  0  0  0  0  0  0  0  0  0  0
  -24.9211  -11.9813   21.5644 C   0  0  0  0  0  0  0  0  0  0  0  0
  -24.9451  -13.5529   20.0266 C   0  0  0  0  0  0  0  0  0  0  0  0
  -29.9303  -22.4926   19.2631 C   0  0  0  0  0  0  0  0  0  0  0  0
  -29.0947  -23.3966   19.7931 C   0  0  0  0  0  0  0  0  0  0  0  0
  -22.7179  -13.2297   21.1146 C   0  0  0  0  0  0  0  0  0  0  0  0
  -29.4661  -24.8411   19.8256 C   0  0  0  0  0  0  0  0  0  0  0  0
  -24.3716  -31.5101   22.5747 C   0  0  0  0  0  0  0  0  0  0  0  0
  -22.0162  -29.5209   21.5660 C   0  0  0  0  0  0  0  0  0  0  0  0
  -21.1504  -26.6259   19.9797 C   0  0  0  0  0  0  0  0  0  0  0  0
  -29.8281  -15.9054   18.7523 C   0  0  0  0  0  0  0  0  0  0  0  0
  -24.7667  -36.3653   24.1007 C   0  0  0  0  0  0  0  0  0  0  0  0
  -24.9858  -31.1914   20.1504 C   0  0  0  0  0  0  0  0  0  0  0  0
  -24.3708  -28.6196   21.4741 C   0  0  0  0  0  0  0  0  0  0  0  0
  -23.6598  -35.3142   24.0793 C   0  0  0  0  0  0  0  0  0  0  0  0
  -29.6300  -12.3575   18.5286 C   0  0  0  0  0  0  0  0  0  0  0  0
  -24.1631  -33.9971   24.6612 C   0  0  0  0  0  0  0  0  0  0  0  0
  -28.3203  -12.0216   19.2456 C   0  0  0  0  0  0  0  0  0  0  0  0
  -30.3612  -13.5197   19.1983 C   0  0  0  0  0  0  0  0  0  0  0  0
  -28.2458  -14.3964   20.1068 C   0  0  0  0  0  0  0  0  0  0  0  0
  -25.3237  -33.4350   23.8314 C   0  0  1  0  0  0  0  0  0  0  0  0
  -23.8999  -31.0760   21.2157 C   0  0  1  0  0  0  0  0  0  0  0  0
  -27.4416  -13.2744   19.4301 C   0  0  2  0  0  0  0  0  0  0  0  0
  -26.6653  -18.7431   19.2729 C   0  0  0  0  0  0  0  0  0  0  0  0
  -19.1502  -25.2501   19.3441 C   0  0  0  0  0  0  0  0  0  0  0  0
  -21.7624  -28.5614   24.4512 C   0  0  0  0  0  0  0  0  0  0  0  0
  -20.4790  -26.5843   23.6075 C   0  0  0  0  0  0  0  0  0  0  0  0
  -19.5850  -28.8878   23.2651 C   0  0  0  0  0  0  0  0  0  0  0  0
  -21.7541  -26.8709   17.0927 C   0  0  0  0  0  0  0  0  0  0  0  0
  -28.4405  -25.7642   20.4491 C   0  0  0  0  0  0  0  0  0  1  0  0
  -21.5789  -28.1186   21.9143 C   0  0  1  0  0  0  0  0  0  0  0  0
  -20.1193  -26.3364   18.9038 C   0  0  2  0  0  0  0  0  0  0  0  0
  -20.8776  -28.0435   23.2999 C   0  0  0  0  0  0  0  0  0  0  0  0
  -26.1794  -11.9922   21.1167 N   0  0  0  0  0  0  0  0  0  0  0  0
  -26.1625  -12.9580   20.1823 N   0  0  0  0  0  0  0  0  0  0  0  0
  -23.3895  -29.7108   21.3569 N   0  0  0  0  0  0  0  0  0  0  0  0
  -29.4682  -14.6723   19.3358 N   0  0  0  0  0  0  0  0  0  0  0  0
  -24.7519  -14.5434   19.1300 N   0  0  0  0  0  0  0  0  0  0  0  0
  -22.0056  -12.4977   22.0744 N   0  0  0  0  0  0  0  0  0  0  0  0
  -28.8861  -16.9197   18.9206 N   0  0  0  0  0  0  0  0  0  0  0  0
  -24.8263  -32.8141   22.6224 N   0  0  0  0  0  0  0  0  0  0  0  0
  -20.7544  -27.6599   20.8015 N   0  0  0  0  0  0  0  0  0  0  0  0
  -20.7899  -25.8881   17.6508 N   0  3  0  0  0  0  0  0  0  0  0  0
  -22.1216  -14.1066   20.4444 O   0  0  0  0  0  0  0  0  0  0  0  0
  -30.5331  -25.2506   19.3764 O   0  0  0  0  0  0  0  0  0  0  0  0
  -24.3249  -30.7209   23.5110 O   0  0  0  0  0  0  0  0  0  0  0  0
  -21.1695  -30.4135   21.4755 O   0  0  0  0  0  0  0  0  0  0  0  0
  -22.2003  -25.9954   20.0830 O   0  0  0  0  0  0  0  0  0  0  0  0
  -30.8811  -16.0435   18.1244 O   0  0  0  0  0  0  0  0  0  0  0  0
  -23.4017   -8.4002   25.5810 O   0  0  0  0  0  0  0  0  0  0  0  0
  -28.9072  -27.1127   20.4306 O   0  0  0  0  0  0  0  0  0  1  0  0
  -18.6513   -5.6779   24.9273 F   0  0  0  0  0  0  0  0  0  0  0  0
  -23.3520   -5.6379   25.4816 F   0  0  0  0  0  0  0  0  0  0  0  0
  1  2  1  0  0  0  0
  1  6  2  0  0  0  0
  2  7  2  0  0  0  0
  3 10  2  0  0  0  0
  3 18  1  0  0  0  0
  4 11  1  0  0  0  0
  4 18  2  0  0  0  0
  5  9  2  0  0  0  0
  5 19  1  0  0  0  0
  6 21  1  0  0  0  0
  7 23  1  0  0  0  0
  8 12  2  0  0  0  0
  8 22  1  0  0  0  0
  9 26  1  0  0  0  0
 10 27  1  0  0  0  0
 11 27  2  0  0  0  0
 12 28  1  0  0  0  0
 13 14  2  0  0  0  0
 13 29  1  0  0  0  0
 14 30  1  0  0  0  0
 15 19  2  0  0  0  0
 15 25  1  0  0  0  0
 16 24  1  0  0  0  0
 16 28  2  0  0  0  0
 17 30  2  0  0  0  0
 17 31  1  0  0  0  0
 18 32  1  0  0  0  0
 19 34  1  0  0  0  0
 20 32  1  0  0  0  0
 20 33  2  0  0  0  0
 20 36  1  0  0  0  0
 21 23  2  0  0  0  0
 21 42  1  0  0  0  0
 22 24  2  0  0  0  0
 22 43  1  0  0  0  0
 23 51  1  0  0  0  0
 24 44  1  0  0  0  0
 25 26  2  0  0  0  0
 25 54  1  0  0  0  0
 26 70  1  0  0  0  0
 27 80  1  0  0  0  0
 28 81  1  0  0  0  0
 29 31  2  0  0  0  0
 29 80  1  0  0  0  0
 30 82  1  0  0  0  0
 31 83  1  0  0  0  0
 32 64  2  0  0  0  0
 33 65  1  0  0  0  0
 33 68  1  0  0  0  0
 34 35  2  0  0  0  0
 35 37  1  0  0  0  0
 36 69  1  0  0  0  0
 36 74  2  0  0  0  0
 37 60  1  0  0  0  0
 37 75  2  0  0  0  0
 38 52  1  0  0  0  0
 38 71  1  0  0  0  0
 38 76  2  0  0  0  0
 39 61  1  0  0  0  0
 39 66  1  0  0  0  0
 39 77  2  0  0  0  0
 40 62  1  0  0  0  0
 40 72  1  0  0  0  0
 40 78  2  0  0  0  0
 41 67  1  0  0  0  0
 41 70  1  0  0  0  0
 41 79  2  0  0  0  0
 42 45  1  0  0  0  0
 43 52  1  0  0  0  0
 44 66  1  0  0  0  0
 45 47  1  0  0  0  0
 46 48  1  0  0  0  0
 46 49  1  0  0  0  0
 47 51  1  0  0  0  0
 48 53  1  0  0  0  0
 49 67  1  0  0  0  0
 50 53  1  0  0  0  0
 50 67  1  0  0  0  0
 51 71  1  0  0  0  0
 52 66  1  0  0  0  0
 53 65  1  0  0  0  0
 55 62  1  0  0  0  0
 56 63  1  0  0  0  0
 57 63  1  0  0  0  0
 58 63  1  0  0  0  0
 59 73  1  0  0  0  0
 60 81  1  0  0  0  0
 61 63  1  0  0  0  0
 61 72  1  0  0  0  0
 62 73  1  0  0  0  0
 64 65  1  0  0  0  0
M  CHG  1  73   1
M  ISO  4  41 100  60 101  70 100  81 101
M  END
> <Batch ID>
0124

> <Smiles>
CNC(C)C(=O)NC(C(=O)N1Cc2cc([101O:1][101CH2:1]C(=O)C=Cc3ccc([100NH:0][100C:0](=O)N4CCCC(n5nc(-c6ccc(Oc7ccc(F)cc7F)cc6)c(C(N)=O)c5N)C4)c(C)c3)ccc2CC1C(=O)NC1CCCc2ccccc21)C(C)(C)C

> <Shape>
0.349

> <Color>
0.141

> <Negative vol penalty>
0.000

$$$$

  -OEChem-04052302063D

 82 90  0     1  0  0  0  0  0999 V2000
  -28.0521  -20.7009   27.1349 C   0  0  0  0  0  0  0  0  0  0  0  0
  -28.2272  -21.3463   25.9150 C   0  0  0  0  0  0  0  0  0  0  0  0
  -22.4969  -13.0535   20.3882 C   0  0  0  0  0  0  0  0  0  0  0  0
  -22.6505  -14.2231   22.4967 C   0  0  0  0  0  0  0  0  0  0  0  0
  -26.7720  -20.5559   27.6681 C   0  0  0  0  0  0  0  0  0  0  0  0
  -27.1221  -21.8461   25.2270 C   0  0  0  0  0  0  0  0  0  0  0  0
  -27.9072  -26.5101   23.4170 C   0  0  0  0  0  0  0  0  0  0  0  0
  -21.7415  -12.0523   20.9986 C   0  0  0  0  0  0  0  0  0  0  0  0
  -21.8951  -13.2219   23.1071 C   0  0  0  0  0  0  0  0  0  0  0  0
  -28.6715  -26.6223   22.2564 C   0  0  0  0  0  0  0  0  0  0  0  0
  -20.0765   -9.0063   22.0818 C   0  0  0  0  0  0  0  0  0  0  0  0
  -20.3998   -7.6806   21.7928 C   0  0  0  0  0  0  0  0  0  0  0  0
  -26.6527  -26.8579   20.9570 C   0  0  0  0  0  0  0  0  0  0  0  0
  -28.0780  -23.3605   19.3119 C   0  0  0  0  0  0  0  0  0  0  0  0
  -29.9608  -21.3459   18.8884 C   0  0  0  0  0  0  0  0  0  0  0  0
  -22.6220   -8.0303   22.6740 C   0  0  0  0  0  0  0  0  0  0  0  0
  -22.9515  -14.1389   21.1373 C   0  0  0  0  0  0  0  0  0  0  0  0
  -23.2526  -16.3451   19.8925 C   0  0  0  0  0  0  0  0  0  0  0  0
  -25.6516  -21.0628   26.9910 C   0  0  0  0  0  0  0  0  0  0  0  0
  -26.5071  -26.5600   23.3549 C   0  0  0  0  0  0  0  0  0  0  0  0
  -25.8257  -21.7066   25.7510 C   0  0  0  0  0  0  0  0  0  0  0  0
  -25.8730  -26.7486   22.1186 C   0  0  0  0  0  0  0  0  0  0  0  0
  -29.1641  -23.5875   18.4668 C   0  0  0  0  0  0  0  0  0  0  0  0
  -27.9332  -22.1262   19.9454 C   0  0  0  0  0  0  0  0  0  0  0  0
  -30.1055  -22.5803   18.2550 C   0  0  0  0  0  0  0  0  0  0  0  0
  -28.8746  -21.1189   19.7337 C   0  0  0  0  0  0  0  0  0  0  0  0
  -21.4406  -12.1365   22.3580 C   0  0  0  0  0  0  0  0  0  0  0  0
  -28.0442  -26.7934   21.0258 C   0  0  0  0  0  0  0  0  0  0  0  0
  -21.0260   -9.8441   22.6668 C   0  0  0  0  0  0  0  0  0  0  0  0
  -21.6725   -7.1926   22.0889 C   0  0  0  0  0  0  0  0  0  0  0  0
  -22.2987   -9.3561   22.9630 C   0  0  0  0  0  0  0  0  0  0  0  0
  -23.7323  -15.1731   20.5074 C   0  0  0  0  0  0  0  0  0  0  0  0
  -24.3831  -16.9899   19.4535 C   0  0  0  0  0  0  0  0  0  0  0  0
  -21.9056  -16.8095   19.7326 C   0  0  0  0  0  0  0  0  0  0  0  0
  -24.1565  -24.5450   24.0746 C   0  0  0  0  0  0  0  0  0  0  0  0
  -22.2803  -27.0990   23.3825 C   0  0  0  0  0  0  0  0  0  0  0  0
  -21.9172  -30.0655   21.7349 C   0  0  0  0  0  0  0  0  0  0  0  0
  -29.6003  -18.7631   20.2532 C   0  0  0  0  0  0  0  0  0  0  0  0
  -24.2829  -20.8403   27.5841 C   0  0  0  0  0  0  0  0  0  0  0  0
  -25.6980  -26.4642   24.6192 C   0  0  0  0  0  0  0  0  0  0  0  0
  -24.3737  -26.8291   22.0005 C   0  0  0  0  0  0  0  0  0  0  0  0
  -23.2025  -21.7288   26.9729 C   0  0  0  0  0  0  0  0  0  0  0  0
  -29.1798  -15.3995   19.1640 C   0  0  0  0  0  0  0  0  0  0  0  0
  -23.3047  -21.7233   25.4510 C   0  0  0  0  0  0  0  0  0  0  0  0
  -27.6856  -15.1372   19.3659 C   0  0  0  0  0  0  0  0  0  0  0  0
  -29.7549  -16.2830   20.2696 C   0  0  0  0  0  0  0  0  0  0  0  0
  -27.5436  -17.2827   20.6938 C   0  0  0  0  0  0  0  0  0  0  0  0
  -24.6542  -22.2842   24.9866 C   0  0  1  0  0  0  0  0  0  0  0  0
  -24.2610  -26.0132   24.3762 C   0  0  1  0  0  0  0  0  0  0  0  0
  -26.9053  -16.4506   19.5695 C   0  0  2  0  0  0  0  0  0  0  0  0
  -26.7599  -21.9108   20.8454 C   0  0  0  0  0  0  0  0  0  0  0  0
  -31.2766  -22.8005   17.3546 C   0  0  0  0  0  0  0  0  0  0  0  0
  -20.2578  -31.9041   21.3306 C   0  0  0  0  0  0  0  0  0  0  0  0
  -20.7656  -25.3010   21.4376 C   0  0  0  0  0  0  0  0  0  0  0  0
  -19.7913  -27.3610   20.4007 C   0  0  0  0  0  0  0  0  0  0  0  0
  -19.3181  -26.8266   22.7909 C   0  0  0  0  0  0  0  0  0  0  0  0
  -23.6895  -32.0929   22.9628 C   0  0  0  0  0  0  0  0  0  0  0  0
  -29.2997  -24.9298   17.7933 C   0  0  0  0  0  0  0  0  0  0  0  0
  -30.3595  -25.8330   18.4279 C   0  0  0  0  0  0  0  0  0  0  0  0
  -30.0403  -26.2192   19.8674 C   0  0  0  0  0  0  0  0  0  1  0  0
  -21.6219  -27.6349   22.1342 C   0  0  1  0  0  0  0  0  0  0  0  0
  -21.4093  -31.4192   22.1976 C   0  0  2  0  0  0  0  0  0  0  0  0
  -20.4024  -26.7775   21.6925 C   0  0  0  0  0  0  0  0  0  0  0  0
  -25.0638  -15.0763   20.4647 N   0  0  0  0  0  0  0  0  0  0  0  0
  -25.4304  -16.1957   19.8176 N   0  0  0  0  0  0  0  0  0  0  0  0
  -23.6260  -26.7238   23.2643 N   0  0  0  0  0  0  0  0  0  0  0  0
  -28.9676  -17.5108   20.4022 N   0  0  0  0  0  0  0  0  0  0  0  0
  -24.5735  -18.1530   18.7952 N   0  0  0  0  0  0  0  0  0  0  0  0
  -20.8631  -16.0242   20.2433 N   0  0  0  0  0  0  0  0  0  0  0  0
  -28.7449  -19.8585   20.3679 N   0  0  0  0  0  0  0  0  0  0  0  0
  -24.6571  -23.7289   25.0710 N   0  0  0  0  0  0  0  0  0  0  0  0
  -21.3022  -29.0316   22.4088 N   0  0  0  0  0  0  0  0  0  0  0  0
  -22.5018  -32.4309   22.1368 N   0  3  0  0  0  0  0  0  0  0  0  0
  -21.6334  -17.8808   19.1395 O   0  0  0  0  0  0  0  0  0  0  0  0
  -23.6573  -24.1795   23.0168 O   0  0  0  0  0  0  0  0  0  0  0  0
  -21.6266  -27.0230   24.4259 O   0  0  0  0  0  0  0  0  0  0  0  0
  -22.7712  -29.9380   20.8603 O   0  0  0  0  0  0  0  0  0  0  0  0
  -30.8067  -18.8562   20.0125 O   0  0  0  0  0  0  0  0  0  0  0  0
  -20.7033  -11.1598   22.9539 O   0  0  0  0  0  0  0  0  0  0  0  0
  -28.7878  -26.9026   19.8913 O   0  0  0  0  0  0  0  0  0  1  0  0
  -21.9823   -5.9190   21.8127 F   0  0  0  0  0  0  0  0  0  0  0  0
  -23.2147  -10.1559   23.5262 F   0  0  0  0  0  0  0  0  0  0  0  0
  1  2  1  0  0  0  0
  1  5  2  0  0  0  0
  2  6  2  0  0  0  0
  3  8  2  0  0  0  0
  3 17  1  0  0  0  0
  4  9  1  0  0  0  0
  4 17  2  0  0  0  0
  5 19  1  0  0  0  0
  6 21  1  0  0  0  0
  7 10  2  0  0  0  0
  7 20  1  0  0  0  0
  8 27  1  0  0  0  0
  9 27  2  0  0  0  0
 10 28  1  0  0  0  0
 11 12  2  0  0  0  0
 11 29  1  0  0  0  0
 12 30  1  0  0  0  0
 13 22  1  0  0  0  0
 13 28  2  0  0  0  0
 14 23  1  0  0  0  0
 14 24  2  0  0  0  0
 15 25  1  0  0  0  0
 15 26  2  0  0  0  0
 16 30  2  0  0  0  0
 16 31  1  0  0  0  0
 17 32  1  0  0  0  0
 18 32  1  0  0  0  0
 18 33  2  0  0  0  0
 18 34  1  0  0  0  0
 19 21  2  0  0  0  0
 19 39  1  0  0  0  0
 20 22  2  0  0  0  0
 20 40  1  0  0  0  0
 21 48  1  0  0  0  0
 22 41  1  0  0  0  0
 23 25  2  0  0  0  0
 23 58  1  0  0  0  0
 24 26  1  0  0  0  0
 24 51  1  0  0  0  0
 25 52  1  0  0  0  0
 26 70  1  0  0  0  0
 27 79  1  0  0  0  0
 28 80  1  0  0  0  0
 29 31  2  0  0  0  0
 29 79  1  0  0  0  0
 30 81  1  0  0  0  0
 31 82  1  0  0  0  0
 32 64  2  0  0  0  0
 33 65  1  0  0  0  0
 33 68  1  0  0  0  0
 34 69  1  0  0  0  0
 34 74  2  0  0  0  0
 35 49  1  0  0  0  0
 35 71  1  0  0  0  0
 35 75  2  0  0  0  0
 36 61  1  0  0  0  0
 36 66  1  0  0  0  0
 36 76  2  0  0  0  0
 37 62  1  0  0  0  0
 37 72  1  0  0  0  0
 37 77  2  0  0  0  0
 38 67  1  0  0  0  0
 38 70  1  0  0  0  0
 38 78  2  0  0  0  0
 39 42  1  0  0  0  0
 40 49  1  0  0  0  0
 41 66  1  0  0  0  0
 42 44  1  0  0  0  0
 43 45  1  0  0  0  0
 43 46  1  0  0  0  0
 44 48  1  0  0  0  0
 45 50  1  0  0  0  0
 46 67  1  0  0  0  0
 47 50  1  0  0  0  0
 47 67  1  0  0  0  0
 48 71  1  0  0  0  0
 49 66  1  0  0  0  0
 50 65  1  0  0  0  0
 53 62  1  0  0  0  0
 54 63  1  0  0  0  0
 55 63  1  0  0  0  0
 56 63  1  0  0  0  0
 57 73  1  0  0  0  0
 58 59  1  0  0  0  0
 59 60  1  0  0  0  0
 60 80  1  0  0  0  0
 61 63  1  0  0  0  0
 61 72  1  0  0  0  0
 62 73  1  0  0  0  0
 64 65  1  0  0  0  0
M  CHG  1  73   1
M  ISO  4  38 100  60 101  70 100  80 101
M  END
> <Batch ID>
0124

> <Smiles>
CNC(C)C(=O)NC(C(=O)N1Cc2cc([101O:1][101CH2:1]CCc3cc(C)c([100NH:0][100C:0](=O)N4CCCC(n5nc(-c6ccc(Oc7ccc(F)cc7F)cc6)c(C(N)=O)c5N)C4)cc3C)ccc2CC1C(=O)NC1CCCc2ccccc21)C(C)(C)C

> <Shape>
0.221

> <Color>
0.055

> <Negative vol penalty>
0.000

$$$$

  -OEChem-04052302063D

 84 92  0     1  0  0  0  0  0999 V2000
  -18.9983  -25.2439   19.5430 C   0  0  0  0  0  0  0  0  0  0  0  0
  -20.3307  -25.6117   19.3852 C   0  0  0  0  0  0  0  0  0  0  0  0
  -27.0433  -13.7073   22.0572 C   0  0  0  0  0  0  0  0  0  0  0  0
  -26.6324  -13.4663   19.6886 C   0  0  0  0  0  0  0  0  0  0  0  0
  -18.2443  -25.7884   20.5817 C   0  0  0  0  0  0  0  0  0  0  0  0
  -20.9096  -26.5251   20.2655 C   0  0  0  0  0  0  0  0  0  0  0  0
  -25.5106  -25.0829   21.8135 C   0  0  0  0  0  0  0  0  0  0  0  0
  -26.3205  -12.5396   22.3014 C   0  0  0  0  0  0  0  0  0  0  0  0
  -25.9097  -12.2986   19.9328 C   0  0  0  0  0  0  0  0  0  0  0  0
  -26.5699  -25.2760   20.9279 C   0  0  0  0  0  0  0  0  0  0  0  0
  -23.0756  -11.6155   22.5028 C   0  0  0  0  0  0  0  0  0  0  0  0
  -22.1557  -11.6309   23.5512 C   0  0  0  0  0  0  0  0  0  0  0  0
  -30.5466  -23.2651   17.2274 C   0  0  0  0  0  0  0  0  0  0  0  0
  -32.7108  -23.2933   16.1541 C   0  0  0  0  0  0  0  0  0  0  0  0
  -27.1987  -27.2736   22.1251 C   0  0  0  0  0  0  0  0  0  0  0  0
  -31.3586  -21.2921   16.0938 C   0  0  0  0  0  0  0  0  0  0  0  0
  -23.3562   -9.8336   24.6309 C   0  0  0  0  0  0  0  0  0  0  0  0
  -27.1992  -14.1707   20.7508 C   0  0  0  0  0  0  0  0  0  0  0  0
  -31.7187  -23.9415   16.8898 C   0  0  0  0  0  0  0  0  0  0  0  0
  -29.3262  -15.4859   20.2471 C   0  0  0  0  0  0  0  0  0  0  0  0
  -18.8170  -26.7016   21.4810 C   0  0  0  0  0  0  0  0  0  0  0  0
  -25.2804  -25.9912   22.8568 C   0  0  0  0  0  0  0  0  0  0  0  0
  -20.1622  -27.0834   21.3165 C   0  0  0  0  0  0  0  0  0  0  0  0
  -26.1374  -27.0884   23.0242 C   0  0  0  0  0  0  0  0  0  0  0  0
  -30.3665  -21.9403   16.8295 C   0  0  0  0  0  0  0  0  0  0  0  0
  -25.7537  -11.8352   21.2392 C   0  0  0  0  0  0  0  0  0  0  0  0
  -27.4124  -26.3731   21.0818 C   0  0  0  0  0  0  0  0  0  0  0  0
  -24.1357  -10.7091   22.5183 C   0  0  0  0  0  0  0  0  0  0  0  0
  -22.2960  -10.7400   24.6152 C   0  0  0  0  0  0  0  0  0  0  0  0
  -32.5308  -21.9686   15.7561 C   0  0  0  0  0  0  0  0  0  0  0  0
  -24.2760   -9.8182   23.5824 C   0  0  0  0  0  0  0  0  0  0  0  0
  -27.9453  -15.3772   20.4979 C   0  0  0  0  0  0  0  0  0  0  0  0
  -29.5386  -16.8316   20.0725 C   0  0  0  0  0  0  0  0  0  0  0  0
  -30.6820  -26.1844   17.4564 C   0  0  0  0  0  0  0  0  0  0  0  0
  -30.6174  -27.1686   18.3633 C   0  0  0  0  0  0  0  0  0  0  0  0
  -31.9127  -25.3553   17.3167 C   0  0  0  0  0  0  0  0  0  0  0  0
  -30.3275  -14.4621   20.1780 C   0  0  0  0  0  0  0  0  0  0  0  0
  -22.8945  -27.9344   23.6538 C   0  0  0  0  0  0  0  0  0  0  0  0
  -24.6972  -28.4251   26.3056 C   0  0  0  0  0  0  0  0  0  0  0  0
  -27.7830  -28.3691   27.7623 C   0  0  0  0  0  0  0  0  0  0  0  0
  -28.0927  -21.7490   17.8971 C   0  0  0  0  0  0  0  0  0  0  0  0
  -17.9490  -27.2995   22.5599 C   0  0  0  0  0  0  0  0  0  0  0  0
  -24.1495  -25.7541   23.8197 C   0  0  0  0  0  0  0  0  0  0  0  0
  -25.9455  -28.0815   24.1401 C   0  0  0  0  0  0  0  0  0  0  0  0
  -18.7425  -27.9755   23.6751 C   0  0  0  0  0  0  0  0  0  0  0  0
  -26.4959  -20.7850   20.9299 C   0  0  0  0  0  0  0  0  0  0  0  0
  -19.8305  -28.8700   23.0895 C   0  0  0  0  0  0  0  0  0  0  0  0
  -26.8442  -19.3011   21.0672 C   0  0  0  0  0  0  0  0  0  0  0  0
  -26.2581  -21.1792   19.4732 C   0  0  0  0  0  0  0  0  0  0  0  0
  -27.6879  -19.3343   18.6852 C   0  0  0  0  0  0  0  0  0  0  0  0
  -20.8328  -28.0524   22.2659 C   0  0  1  0  0  0  0  0  0  0  0  0
  -23.6994  -27.0232   24.5368 C   0  0  1  0  0  0  0  0  0  0  0  0
  -27.9999  -18.9042   20.1279 C   0  0  2  0  0  0  0  0  0  0  0  0
  -28.9469  -28.8599   29.9306 C   0  0  0  0  0  0  0  0  0  0  0  0
  -24.5139  -31.4148   25.7245 C   0  0  0  0  0  0  0  0  0  0  0  0
  -26.4227  -31.7683   27.3055 C   0  0  0  0  0  0  0  0  0  0  0  0
  -24.2778  -30.8049   28.1383 C   0  0  0  0  0  0  0  0  0  0  0  0
  -28.6819  -25.5639   28.0485 C   0  0  0  0  0  0  0  0  0  0  0  0
  -29.4023  -28.0323   18.5590 C   0  0  0  0  0  0  0  0  0  0  0  0
  -28.8477  -27.9117   19.9735 C   0  0  0  0  0  0  0  0  0  1  0  0
  -25.7924  -29.3903   26.6902 C   0  0  1  0  0  0  0  0  0  0  0  0
  -28.2625  -27.7977   29.0844 C   0  0  2  0  0  0  0  0  0  0  0  0
  -25.2544  -30.8271   26.9423 C   0  0  0  0  0  0  0  0  0  0  0  0
  -27.3241  -16.5596   20.4848 N   0  0  0  0  0  0  0  0  0  0  0  0
  -33.1120  -25.8112   17.4924 N   0  0  0  0  0  0  0  0  0  0  0  0
  -28.3194  -17.4241   20.2238 N   0  0  0  0  0  0  0  0  0  0  0  0
  -24.8219  -27.8098   25.0519 N   0  0  0  0  0  0  0  0  0  0  0  0
  -27.3956  -20.7757   18.6437 N   0  0  0  0  0  0  0  0  0  0  0  0
  -30.6473  -17.5541   19.8059 N   0  0  0  0  0  0  0  0  0  0  0  0
  -29.9376  -13.1314   20.3818 N   0  0  0  0  0  0  0  0  0  0  0  0
  -29.1758  -21.2529   17.1722 N   0  0  0  0  0  0  0  0  0  0  0  0
  -21.7520  -27.3530   23.1379 N   0  0  0  0  0  0  0  0  0  0  0  0
  -26.4746  -28.7981   27.8358 N   0  0  0  0  0  0  0  0  0  0  0  0
  -29.2300  -26.6889   28.8490 N   0  3  0  0  0  0  0  0  0  0  0  0
  -31.5351  -14.7212   19.9588 O   0  0  0  0  0  0  0  0  0  0  0  0
  -23.2806  -29.0805   23.4565 O   0  0  0  0  0  0  0  0  0  0  0  0
  -23.7692  -28.2190   27.0916 O   0  0  0  0  0  0  0  0  0  0  0  0
  -28.4987  -28.4322   26.7651 O   0  0  0  0  0  0  0  0  0  0  0  0
  -27.7706  -22.9396   17.9219 O   0  0  0  0  0  0  0  0  0  0  0  0
  -25.0486  -10.6956   21.4771 O   0  0  0  0  0  0  0  0  0  0  0  0
  -28.4467  -26.5643   20.2184 O   0  0  0  0  0  0  0  0  0  1  0  0
  -21.4134  -10.7559   25.6227 F   0  0  0  0  0  0  0  0  0  0  0  0
  -33.4847  -21.3451   15.0523 F   0  0  0  0  0  0  0  0  0  0  0  0
  -25.2931   -8.9459   23.6035 F   0  0  0  0  0  0  0  0  0  0  0  0
  1  2  1  0  0  0  0
  1  5  2  0  0  0  0
  2  6  2  0  0  0  0
  3  8  2  0  0  0  0
  3 18  1  0  0  0  0
  4  9  1  0  0  0  0
  4 18  2  0  0  0  0
  5 21  1  0  0  0  0
  6 23  1  0  0  0  0
  7 10  2  0  0  0  0
  7 22  1  0  0  0  0
  8 26  1  0  0  0  0
  9 26  2  0  0  0  0
 10 27  1  0  0  0  0
 11 12  2  0  0  0  0
 11 28  1  0  0  0  0
 12 29  1  0  0  0  0
 13 19  2  0  0  0  0
 13 25  1  0  0  0  0
 14 19  1  0  0  0  0
 14 30  2  0  0  0  0
 15 24  1  0  0  0  0
 15 27  2  0  0  0  0
 16 25  2  0  0  0  0
 16 30  1  0  0  0  0
 17 29  2  0  0  0  0
 17 31  1  0  0  0  0
 18 32  1  0  0  0  0
 19 36  1  0  0  0  0
 20 32  1  0  0  0  0
 20 33  2  0  0  0  0
 20 37  1  0  0  0  0
 21 23  2  0  0  0  0
 21 42  1  0  0  0  0
 22 24  2  0  0  0  0
 22 43  1  0  0  0  0
 23 51  1  0  0  0  0
 24 44  1  0  0  0  0
 25 71  1  0  0  0  0
 26 80  1  0  0  0  0
 27 81  1  0  0  0  0
 28 31  2  0  0  0  0
 28 80  1  0  0  0  0
 29 82  1  0  0  0  0
 30 83  1  0  0  0  0
 31 84  1  0  0  0  0
 32 64  2  0  0  0  0
 33 66  1  0  0  0  0
 33 69  1  0  0  0  0
 34 35  2  0  0  0  0
 34 36  1  0  0  0  0
 35 59  1  0  0  0  0
 36 65  2  0  0  0  0
 37 70  1  0  0  0  0
 37 75  2  0  0  0  0
 38 52  1  0  0  0  0
 38 72  1  0  0  0  0
 38 76  2  0  0  0  0
 39 61  1  0  0  0  0
 39 67  1  0  0  0  0
 39 77  2  0  0  0  0
 40 62  1  0  0  0  0
 40 73  1  0  0  0  0
 40 78  2  0  0  0  0
 41 68  1  0  0  0  0
 41 71  1  0  0  0  0
 41 79  2  0  0  0  0
 42 45  1  0  0  0  0
 43 52  1  0  0  0  0
 44 67  1  0  0  0  0
 45 47  1  0  0  0  0
 46 48  1  0  0  0  0
 46 49  1  0  0  0  0
 47 51  1  0  0  0  0
 48 53  1  0  0  0  0
 49 68  1  0  0  0  0
 50 53  1  0  0  0  0
 50 68  1  0  0  0  0
 51 72  1  0  0  0  0
 52 67  1  0  0  0  0
 53 66  1  0  0  0  0
 54 62  1  0  0  0  0
 55 63  1  0  0  0  0
 56 63  1  0  0  0  0
 57 63  1  0  0  0  0
 58 74  1  0  0  0  0
 59 60  1  0  0  0  0
 60 81  1  0  0  0  0
 61 63  1  0  0  0  0
 61 73  1  0  0  0  0
 62 74  1  0  0  0  0
 64 66  1  0  0  0  0
M  CHG  1  74   1
M  ISO  4  41 100  60 101  71 100  81 101
M  END
> <Batch ID>
0124

> <Smiles>
CNC(C)C(=O)NC(C(=O)N1Cc2cc([101O:1][101CH2:1]CC=CC(=N)c3cc(F)cc([100NH:0][100C:0](=O)N4CCCC(n5nc(-c6ccc(Oc7ccc(F)cc7F)cc6)c(C(N)=O)c5N)C4)c3)ccc2CC1C(=O)NC1CCCc2ccccc21)C(C)(C)C

> <Shape>
0.211

> <Color>
0.097

> <Negative vol penalty>
0.000

$$$$

  -OEChem-04052302063D

 85 93  0     1  0  0  0  0  0999 V2000
  -28.0639  -38.3191   24.5020 C   0  0  0  0  0  0  0  0  0  0  0  0
  -28.6847  -37.1286   24.1379 C   0  0  0  0  0  0  0  0  0  0  0  0
  -23.8697   -8.9786   20.0380 C   0  0  0  0  0  0  0  0  0  0  0  0
  -23.0940  -10.6344   21.6172 C   0  0  0  0  0  0  0  0  0  0  0  0
  -29.4260  -20.4243   20.4915 C   0  0  0  0  0  0  0  0  0  0  0  0
  -26.8411  -38.2901   25.1713 C   0  0  0  0  0  0  0  0  0  0  0  0
  -28.0836  -35.9081   24.4439 C   0  0  0  0  0  0  0  0  0  0  0  0
  -28.2417  -30.7841   21.0936 C   0  0  0  0  0  0  0  0  0  0  0  0
  -29.4839  -19.0356   20.3738 C   0  0  0  0  0  0  0  0  0  0  0  0
  -23.1246   -8.0009   20.6972 C   0  0  0  0  0  0  0  0  0  0  0  0
  -22.3488   -9.6567   22.2763 C   0  0  0  0  0  0  0  0  0  0  0  0
  -29.0251  -29.6337   21.1753 C   0  0  0  0  0  0  0  0  0  0  0  0
  -23.4037   -6.1189   23.4909 C   0  0  0  0  0  0  0  0  0  0  0  0
  -24.0220   -4.8943   23.7431 C   0  0  0  0  0  0  0  0  0  0  0  0
  -27.3268  -20.4381   19.2954 C   0  0  0  0  0  0  0  0  0  0  0  0
  -27.2797  -28.5416   22.4323 C   0  0  0  0  0  0  0  0  0  0  0  0
  -22.3312   -3.7708   22.4331 C   0  0  0  0  0  0  0  0  0  0  0  0
  -23.8544  -10.2954   20.4981 C   0  0  0  0  0  0  0  0  0  0  0  0
  -28.3474  -21.1255   19.9523 C   0  0  0  0  0  0  0  0  0  0  0  0
  -24.2013  -12.1235   18.7529 C   0  0  0  0  0  0  0  0  0  0  0  0
  -26.2200  -37.0688   25.4771 C   0  0  0  0  0  0  0  0  0  0  0  0
  -26.9737  -30.8255   21.6909 C   0  0  0  0  0  0  0  0  0  0  0  0
  -26.8520  -35.8627   25.1191 C   0  0  0  0  0  0  0  0  0  0  0  0
  -26.4811  -29.6928   22.3545 C   0  0  0  0  0  0  0  0  0  0  0  0
  -27.3848  -19.0494   19.1777 C   0  0  0  0  0  0  0  0  0  0  0  0
  -28.4633  -18.3482   19.7169 C   0  0  0  0  0  0  0  0  0  0  0  0
  -22.3642   -8.3399   21.8163 C   0  0  0  0  0  0  0  0  0  0  0  0
  -28.5454  -28.5132   21.8472 C   0  0  0  0  0  0  0  0  0  0  0  0
  -22.2491   -6.1695   22.7098 C   0  0  0  0  0  0  0  0  0  0  0  0
  -23.4858   -3.7203   23.2142 C   0  0  0  0  0  0  0  0  0  0  0  0
  -21.7129   -4.9955   22.1809 C   0  0  0  0  0  0  0  0  0  0  0  0
  -24.6243  -11.3057   19.8179 C   0  0  0  0  0  0  0  0  0  0  0  0
  -25.2923  -12.9077   18.4679 C   0  0  0  0  0  0  0  0  0  0  0  0
  -28.2868  -22.5926   20.0770 C   0  0  0  0  0  0  0  0  0  0  0  0
  -29.3424  -23.3795   20.3284 C   0  0  0  0  0  0  0  0  0  0  0  0
  -22.9353  -12.1701   18.0815 C   0  0  0  0  0  0  0  0  0  0  0  0
  -29.1733  -24.8587   20.4461 C   0  0  0  0  0  0  0  0  0  0  0  0
  -25.6340  -32.5612   23.9923 C   0  0  0  0  0  0  0  0  0  0  0  0
  -22.9531  -30.9707   23.0950 C   0  0  0  0  0  0  0  0  0  0  0  0
  -21.5731  -28.2159   21.6275 C   0  0  0  0  0  0  0  0  0  0  0  0
  -29.5497  -16.1067   20.0937 C   0  0  0  0  0  0  0  0  0  0  0  0
  -24.9213  -37.0868   26.2436 C   0  0  0  0  0  0  0  0  0  0  0  0
  -26.1299  -32.0649   21.5708 C   0  0  0  0  0  0  0  0  0  0  0  0
  -25.1181  -29.6792   22.9953 C   0  0  0  0  0  0  0  0  0  0  0  0
  -24.1690  -35.7593   26.1985 C   0  0  0  0  0  0  0  0  0  0  0  0
  -30.0860  -12.5870   20.0614 C   0  0  0  0  0  0  0  0  0  0  0  0
  -25.1183  -34.5980   26.4758 C   0  0  0  0  0  0  0  0  0  0  0  0
  -28.6781  -12.0072   19.9075 C   0  0  0  0  0  0  0  0  0  0  0  0
  -30.0922  -13.8350   20.9423 C   0  0  0  0  0  0  0  0  0  0  0  0
  -27.7386  -14.3040   20.3860 C   0  0  0  0  0  0  0  0  0  0  0  0
  -26.2194  -34.5194   25.4114 C   0  0  1  0  0  0  0  0  0  0  0  0
  -25.0647  -32.1703   22.6578 C   0  0  1  0  0  0  0  0  0  0  0  0
  -27.6720  -13.0831   19.4540 C   0  0  2  0  0  0  0  0  0  0  0  0
  -26.6732  -17.9149   17.0580 C   0  0  0  0  0  0  0  0  0  0  0  0
  -19.3547  -27.1809   21.0753 C   0  0  0  0  0  0  0  0  0  0  0  0
  -22.6061  -30.1615   26.0165 C   0  0  0  0  0  0  0  0  0  0  0  0
  -20.9872  -28.4056   25.2654 C   0  0  0  0  0  0  0  0  0  0  0  0
  -20.4891  -30.8155   24.8566 C   0  0  0  0  0  0  0  0  0  0  0  0
  -22.1437  -28.2616   18.7238 C   0  0  0  0  0  0  0  0  0  0  0  0
  -26.2777  -18.3386   18.4690 C   0  0  0  0  0  0  0  0  0  0  0  0
  -30.4474  -25.6384   20.7327 C   0  0  0  0  0  0  0  0  0  0  0  0
  -30.2104  -27.1369   20.8525 C   0  0  0  0  0  0  0  0  0  1  0  0
  -22.2925  -29.6751   23.5003 C   0  0  1  0  0  0  0  0  0  0  0  0
  -20.4836  -28.0716   20.5803 C   0  0  2  0  0  0  0  0  0  0  0  0
  -21.6202  -29.7650   24.8994 C   0  0  0  0  0  0  0  0  0  0  0  0
  -25.8857  -11.5479   20.1844 N   0  0  0  0  0  0  0  0  0  0  0  0
  -26.2647  -12.5266   19.3450 N   0  0  0  0  0  0  0  0  0  0  0  0
  -24.3336  -30.9172   22.8560 N   0  0  0  0  0  0  0  0  0  0  0  0
  -29.1181  -14.8115   20.4498 N   0  0  0  0  0  0  0  0  0  0  0  0
  -25.5051  -13.8791   17.5550 N   0  0  0  0  0  0  0  0  0  0  0  0
  -21.9239  -11.2952   18.5009 N   0  0  0  0  0  0  0  0  0  0  0  0
  -28.5406  -16.9375   19.6080 N   0  0  0  0  0  0  0  0  0  0  0  0
  -25.7054  -33.9262   24.1955 N   0  0  0  0  0  0  0  0  0  0  0  0
  -21.3770  -29.3279   22.4187 N   0  0  0  0  0  0  0  0  0  0  0  0
  -21.0398  -27.4757   19.3327 N   0  3  0  0  0  0  0  0  0  0  0  0
  -22.7131  -12.9528   17.1267 O   0  0  0  0  0  0  0  0  0  0  0  0
  -28.0766  -25.3958   20.3169 O   0  0  0  0  0  0  0  0  0  0  0  0
  -25.9812  -31.6890   24.7800 O   0  0  0  0  0  0  0  0  0  0  0  0
  -22.2681  -31.9909   22.9873 O   0  0  0  0  0  0  0  0  0  0  0  0
  -22.5030  -27.4194   21.7353 O   0  0  0  0  0  0  0  0  0  0  0  0
  -30.7327  -16.4447   20.1854 O   0  0  0  0  0  0  0  0  0  0  0  0
  -21.6368   -7.3861   22.4596 O   0  0  0  0  0  0  0  0  0  0  0  0
  -29.3083  -27.3893   21.9291 O   0  0  0  0  0  0  0  0  0  1  0  0
  -24.0805   -2.5445   23.4552 F   0  0  0  0  0  0  0  0  0  0  0  0
  -20.6045   -5.0379   21.4288 F   0  0  0  0  0  0  0  0  0  0  0  0
  1  2  1  0  0  0  0
  1  6  2  0  0  0  0
  2  7  2  0  0  0  0
  3 10  2  0  0  0  0
  3 18  1  0  0  0  0
  4 11  1  0  0  0  0
  4 18  2  0  0  0  0
  5  9  2  0  0  0  0
  5 19  1  0  0  0  0
  6 21  1  0  0  0  0
  7 23  1  0  0  0  0
  8 12  2  0  0  0  0
  8 22  1  0  0  0  0
  9 26  1  0  0  0  0
 10 27  1  0  0  0  0
 11 27  2  0  0  0  0
 12 28  1  0  0  0  0
 13 14  2  0  0  0  0
 13 29  1  0  0  0  0
 14 30  1  0  0  0  0
 15 19  2  0  0  0  0
 15 25  1  0  0  0  0
 16 24  1  0  0  0  0
 16 28  2  0  0  0  0
 17 30  2  0  0  0  0
 17 31  1  0  0  0  0
 18 32  1  0  0  0  0
 19 34  1  0  0  0  0
 20 32  1  0  0  0  0
 20 33  2  0  0  0  0
 20 36  1  0  0  0  0
 21 23  2  0  0  0  0
 21 42  1  0  0  0  0
 22 24  2  0  0  0  0
 22 43  1  0  0  0  0
 23 51  1  0  0  0  0
 24 44  1  0  0  0  0
 25 26  2  0  0  0  0
 25 60  1  0  0  0  0
 26 72  1  0  0  0  0
 27 82  1  0  0  0  0
 28 83  1  0  0  0  0
 29 31  2  0  0  0  0
 29 82  1  0  0  0  0
 30 84  1  0  0  0  0
 31 85  1  0  0  0  0
 32 66  2  0  0  0  0
 33 67  1  0  0  0  0
 33 70  1  0  0  0  0
 34 35  2  0  0  0  0
 35 37  1  0  0  0  0
 36 71  1  0  0  0  0
 36 76  2  0  0  0  0
 37 61  1  0  0  0  0
 37 77  2  0  0  0  0
 38 52  1  0  0  0  0
 38 73  1  0  0  0  0
 38 78  2  0  0  0  0
 39 63  1  0  0  0  0
 39 68  1  0  0  0  0
 39 79  2  0  0  0  0
 40 64  1  0  0  0  0
 40 74  1  0  0  0  0
 40 80  2  0  0  0  0
 41 69  1  0  0  0  0
 41 72  1  0  0  0  0
 41 81  2  0  0  0  0
 42 45  1  0  0  0  0
 43 52  1  0  0  0  0
 44 68  1  0  0  0  0
 45 47  1  0  0  0  0
 46 48  1  0  0  0  0
 46 49  1  0  0  0  0
 47 51  1  0  0  0  0
 48 53  1  0  0  0  0
 49 69  1  0  0  0  0
 50 53  1  0  0  0  0
 50 69  1  0  0  0  0
 51 73  1  0  0  0  0
 52 68  1  0  0  0  0
 53 67  1  0  0  0  0
 54 60  1  0  0  0  0
 55 64  1  0  0  0  0
 56 65  1  0  0  0  0
 57 65  1  0  0  0  0
 58 65  1  0  0  0  0
 59 75  1  0  0  0  0
 61 62  1  0  0  0  0
 62 83  1  0  0  0  0
 63 65  1  0  0  0  0
 63 74  1  0  0  0  0
 64 75  1  0  0  0  0
 66 67  1  0  0  0  0
M  CHG  1  75   1
M  ISO  4  41 100  62 101  72 100  83 101
M  END
> <Batch ID>
0124

> <Smiles>
CCc1cc(C=CC(=O)C[101CH2:1][101O:1]c2ccc3c(c2)CN(C(=O)C(NC(=O)C(C)NC)C(C)(C)C)C(C(=O)NC2CCCc4ccccc42)C3)ccc1[100NH:0][100C:0](=O)N1CCCC(n2nc(-c3ccc(Oc4ccc(F)cc4F)cc3)c(C(N)=O)c2N)C1

> <Shape>
0.341

> <Color>
0.103

> <Negative vol penalty>
0.000

$$$$

  -OEChem-04052302063D

 86 94  0     1  0  0  0  0  0999 V2000
  -28.0135  -32.9783   26.8873 C   0  0  0  0  0  0  0  0  0  0  0  0
  -28.1636  -31.8603   26.0731 C   0  0  0  0  0  0  0  0  0  0  0  0
  -24.4770  -10.2425   22.9263 C   0  0  0  0  0  0  0  0  0  0  0  0
  -23.1662  -12.2719   22.9468 C   0  0  0  0  0  0  0  0  0  0  0  0
  -26.7378  -33.4119   27.2459 C   0  0  0  0  0  0  0  0  0  0  0  0
  -27.0380  -31.1745   25.6179 C   0  0  0  0  0  0  0  0  0  0  0  0
  -27.3323  -30.0059   20.6993 C   0  0  0  0  0  0  0  0  0  0  0  0
  -23.8068   -9.7980   24.0659 C   0  0  0  0  0  0  0  0  0  0  0  0
  -22.4960  -11.8274   24.0865 C   0  0  0  0  0  0  0  0  0  0  0  0
  -28.1286  -28.9159   20.3504 C   0  0  0  0  0  0  0  0  0  0  0  0
  -20.8219   -8.3959   24.8125 C   0  0  0  0  0  0  0  0  0  0  0  0
  -20.3807   -7.0728   24.8304 C   0  0  0  0  0  0  0  0  0  0  0  0
  -27.2062  -21.7196   19.9445 C   0  0  0  0  0  0  0  0  0  0  0  0
  -26.3716  -19.4936   20.3746 C   0  0  0  0  0  0  0  0  0  0  0  0
  -28.7277  -19.8431   19.9700 C   0  0  0  0  0  0  0  0  0  0  0  0
  -26.1564  -27.5372   20.1806 C   0  0  0  0  0  0  0  0  0  0  0  0
  -21.7462   -6.6437   26.7768 C   0  0  0  0  0  0  0  0  0  0  0  0
  -24.1567  -11.4795   22.3667 C   0  0  0  0  0  0  0  0  0  0  0  0
  -26.1426  -20.8611   20.2227 C   0  0  0  0  0  0  0  0  0  0  0  0
  -28.4987  -21.2106   19.8181 C   0  0  0  0  0  0  0  0  0  0  0  0
  -24.4847  -11.7179   19.8481 C   0  0  0  0  0  0  0  0  0  0  0  0
  -25.5958  -32.7368   26.7870 C   0  0  0  0  0  0  0  0  0  0  0  0
  -25.9407  -29.8668   20.8023 C   0  0  0  0  0  0  0  0  0  0  0  0
  -25.7459  -31.5987   25.9718 C   0  0  0  0  0  0  0  0  0  0  0  0
  -25.3445  -28.6276   20.5285 C   0  0  0  0  0  0  0  0  0  0  0  0
  -27.6641  -18.9845   20.2483 C   0  0  0  0  0  0  0  0  0  0  0  0
  -22.8163  -10.5905   24.6461 C   0  0  0  0  0  0  0  0  0  0  0  0
  -27.5409  -27.6807   20.0938 C   0  0  0  0  0  0  0  0  0  0  0  0
  -21.7254   -8.8429   25.7767 C   0  0  0  0  0  0  0  0  0  0  0  0
  -20.8428   -6.1967   25.8126 C   0  0  0  0  0  0  0  0  0  0  0  0
  -22.1875   -7.9668   26.7588 C   0  0  0  0  0  0  0  0  0  0  0  0
  -24.8491  -11.9394   21.1898 C   0  0  0  0  0  0  0  0  0  0  0  0
  -25.4582  -12.3551   19.1182 C   0  0  0  0  0  0  0  0  0  0  0  0
  -24.7946  -21.3920   20.3551 C   0  0  0  0  0  0  0  0  0  0  0  0
  -29.3415  -23.3474   18.7281 C   0  0  0  0  0  0  0  0  0  0  0  0
  -24.4721  -22.6799   20.6115 C   0  0  0  0  0  0  0  0  0  0  0  0
  -30.0813  -24.4511   18.9043 C   0  0  0  0  0  0  0  0  0  0  0  0
  -29.6297  -22.1232   19.5229 C   0  0  0  0  0  0  0  0  0  0  0  0
  -23.3662  -11.0004   19.3098 C   0  0  0  0  0  0  0  0  0  0  0  0
  -23.8218  -30.1896   23.1495 C   0  0  0  0  0  0  0  0  0  0  0  0
  -21.6827  -29.7079   20.7590 C   0  0  0  0  0  0  0  0  0  0  0  0
  -21.0370  -28.4213   17.6647 C   0  0  0  0  0  0  0  0  0  0  0  0
  -29.1168  -16.9272   20.3078 C   0  0  0  0  0  0  0  0  0  0  0  0
  -24.2389  -33.2148   27.2399 C   0  0  0  0  0  0  0  0  0  0  0  0
  -25.0934  -31.0588   21.1537 C   0  0  0  0  0  0  0  0  0  0  0  0
  -23.8532  -28.4308   20.6055 C   0  0  0  0  0  0  0  0  0  0  0  0
  -23.0872  -32.6547   26.4092 C   0  0  0  0  0  0  0  0  0  0  0  0
  -30.0674  -13.6361   19.3374 C   0  0  0  0  0  0  0  0  0  0  0  0
  -23.2574  -31.1527   26.2050 C   0  0  0  0  0  0  0  0  0  0  0  0
  -28.8021  -12.8085   19.5745 C   0  0  0  0  0  0  0  0  0  0  0  0
  -30.2466  -14.7160   20.4029 C   0  0  0  0  0  0  0  0  0  0  0  0
  -27.8216  -14.7682   20.8335 C   0  0  0  0  0  0  0  0  0  0  0  0
  -24.5485  -30.8430   25.4377 C   0  0  1  0  0  0  0  0  0  0  0  0
  -23.7339  -30.6763   21.7307 C   0  0  1  0  0  0  0  0  0  0  0  0
  -27.5638  -13.7095   19.7488 C   0  0  2  0  0  0  0  0  0  0  0  0
  -23.0704  -23.1794   20.7486 C   0  0  0  0  0  0  0  0  0  0  0  0
  -19.1868  -28.1491   15.9914 C   0  0  0  0  0  0  0  0  0  0  0  0
  -20.4858  -27.4682   22.4505 C   0  0  0  0  0  0  0  0  0  0  0  0
  -19.3164  -26.6378   20.3983 C   0  0  0  0  0  0  0  0  0  0  0  0
  -18.8049  -28.9109   21.2895 C   0  0  0  0  0  0  0  0  0  0  0  0
  -22.4937  -29.9945   15.6247 C   0  0  0  0  0  0  0  0  0  0  0  0
  -29.8644  -25.7234   18.1324 C   0  0  0  0  0  0  0  0  0  0  0  0
  -29.5280  -26.8907   19.0529 C   0  0  0  0  0  0  0  0  0  1  0  0
  -21.0209  -28.4983   20.1443 C   0  0  1  0  0  0  0  0  0  0  0  0
  -20.3486  -29.0168   16.4499 C   0  0  2  0  0  0  0  0  0  0  0  0
  -19.9353  -27.8817   21.0710 C   0  0  0  0  0  0  0  0  0  0  0  0
  -25.9669  -12.6608   21.3081 N   0  0  0  0  0  0  0  0  0  0  0  0
  -26.3134  -12.8981   20.0315 N   0  0  0  0  0  0  0  0  0  0  0  0
  -23.0680  -29.6249   20.9591 N   0  0  0  0  0  0  0  0  0  0  0  0
  -29.0359  -15.5331   20.5092 N   0  0  0  0  0  0  0  0  0  0  0  0
  -25.6576  -12.4982   17.7908 N   0  0  0  0  0  0  0  0  0  0  0  0
  -22.4619  -10.4064   20.2008 N   0  0  0  0  0  0  0  0  0  0  0  0
  -27.8963  -17.5952   20.4017 N   0  0  0  0  0  0  0  0  0  0  0  0
  -24.3724  -31.1055   24.0255 N   0  0  0  0  0  0  0  0  0  0  0  0
  -20.5223  -28.9240   18.8410 N   0  0  0  0  0  0  0  0  0  0  0  0
  -21.3121  -29.1471   15.3205 N   0  3  0  0  0  0  0  0  0  0  0  0
  -30.7576  -21.8399   19.9114 O   0  0  0  0  0  0  0  0  0  0  0  0
  -23.1833  -10.8753   18.0751 O   0  0  0  0  0  0  0  0  0  0  0  0
  -23.4185  -29.0667   23.4292 O   0  0  0  0  0  0  0  0  0  0  0  0
  -20.9971  -30.6928   21.0443 O   0  0  0  0  0  0  0  0  0  0  0  0
  -21.9385  -27.5903   17.5789 O   0  0  0  0  0  0  0  0  0  0  0  0
  -30.1855  -17.4837   20.0427 O   0  0  0  0  0  0  0  0  0  0  0  0
  -22.1620  -10.1570   25.7580 O   0  0  0  0  0  0  0  0  0  0  0  0
  -28.3158  -26.6150   19.7536 O   0  0  0  0  0  0  0  0  0  1  0  0
  -20.4177   -4.9266   25.8306 F   0  0  0  0  0  0  0  0  0  0  0  0
  -23.0546   -8.3908   27.6885 F   0  0  0  0  0  0  0  0  0  0  0  0
  1  2  1  0  0  0  0
  1  5  2  0  0  0  0
  2  6  2  0  0  0  0
  3  8  2  0  0  0  0
  3 18  1  0  0  0  0
  4  9  1  0  0  0  0
  4 18  2  0  0  0  0
  5 22  1  0  0  0  0
  6 24  1  0  0  0  0
  7 10  2  0  0  0  0
  7 23  1  0  0  0  0
  8 27  1  0  0  0  0
  9 27  2  0  0  0  0
 10 28  1  0  0  0  0
 11 12  2  0  0  0  0
 11 29  1  0  0  0  0
 12 30  1  0  0  0  0
 13 19  2  0  0  0  0
 13 20  1  0  0  0  0
 14 19  1  0  0  0  0
 14 26  2  0  0  0  0
 15 20  2  0  0  0  0
 15 26  1  0  0  0  0
 16 25  1  0  0  0  0
 16 28  2  0  0  0  0
 17 30  2  0  0  0  0
 17 31  1  0  0  0  0
 18 32  1  0  0  0  0
 19 34  1  0  0  0  0
 20 38  1  0  0  0  0
 21 32  1  0  0  0  0
 21 33  2  0  0  0  0
 21 39  1  0  0  0  0
 22 24  2  0  0  0  0
 22 44  1  0  0  0  0
 23 25  2  0  0  0  0
 23 45  1  0  0  0  0
 24 53  1  0  0  0  0
 25 46  1  0  0  0  0
 26 73  1  0  0  0  0
 27 83  1  0  0  0  0
 28 84  1  0  0  0  0
 29 31  2  0  0  0  0
 29 83  1  0  0  0  0
 30 85  1  0  0  0  0
 31 86  1  0  0  0  0
 32 67  2  0  0  0  0
 33 68  1  0  0  0  0
 33 71  1  0  0  0  0
 34 36  2  0  0  0  0
 35 37  2  0  0  0  0
 35 38  1  0  0  0  0
 36 56  1  0  0  0  0
 37 62  1  0  0  0  0
 38 77  2  0  0  0  0
 39 72  1  0  0  0  0
 39 78  2  0  0  0  0
 40 54  1  0  0  0  0
 40 74  1  0  0  0  0
 40 79  2  0  0  0  0
 41 64  1  0  0  0  0
 41 69  1  0  0  0  0
 41 80  2  0  0  0  0
 42 65  1  0  0  0  0
 42 75  1  0  0  0  0
 42 81  2  0  0  0  0
 43 70  1  0  0  0  0
 43 73  1  0  0  0  0
 43 82  2  0  0  0  0
 44 47  1  0  0  0  0
 45 54  1  0  0  0  0
 46 69  1  0  0  0  0
 47 49  1  0  0  0  0
 48 50  1  0  0  0  0
 48 51  1  0  0  0  0
 49 53  1  0  0  0  0
 50 55  1  0  0  0  0
 51 70  1  0  0  0  0
 52 55  1  0  0  0  0
 52 70  1  0  0  0  0
 53 74  1  0  0  0  0
 54 69  1  0  0  0  0
 55 68  1  0  0  0  0
 57 65  1  0  0  0  0
 58 66  1  0  0  0  0
 59 66  1  0  0  0  0
 60 66  1  0  0  0  0
 61 76  1  0  0  0  0
 62 63  1  0  0  0  0
 63 84  1  0  0  0  0
 64 66  1  0  0  0  0
 64 75  1  0  0  0  0
 65 76  1  0  0  0  0
 67 68  1  0  0  0  0
M  CHG  1  76   1
M  ISO  4  43 100  63 101  73 100  84 101
M  END
> <Batch ID>
0124

> <Smiles>
CC=Cc1cc([100NH:0][100C:0](=O)N2CCCC(n3nc(-c4ccc(Oc5ccc(F)cc5F)cc4)c(C(N)=O)c3N)C2)cc(C(=O)C=CC[101CH2:1][101O:1]c2ccc3c(c2)CN(C(=O)C(NC(=O)C(C)NC)C(C)(C)C)C(C(=O)NC2CCCc4ccccc42)C3)c1

> <Shape>
0.316

> <Color>
0.101

> <Negative vol penalty>
0.000

$$$$

  -OEChem-04052302063D

 82 90  0     1  0  0  0  0  0999 V2000
  -30.1654  -30.0422   26.2074 C   0  0  0  0  0  0  0  0  0  0  0  0
  -29.5827  -29.0884   25.3790 C   0  0  0  0  0  0  0  0  0  0  0  0
  -31.0392  -19.1515   21.1055 C   0  0  0  0  0  0  0  0  0  0  0  0
  -23.2185  -10.5959   21.6833 C   0  0  0  0  0  0  0  0  0  0  0  0
  -22.7446  -12.9395   21.3373 C   0  0  0  0  0  0  0  0  0  0  0  0
  -30.0392  -20.0803   20.8174 C   0  0  0  0  0  0  0  0  0  0  0  0
  -29.3805  -31.0469   26.7715 C   0  0  0  0  0  0  0  0  0  0  0  0
  -28.2144  -29.1382   25.1152 C   0  0  0  0  0  0  0  0  0  0  0  0
  -27.1535  -28.4273   20.2148 C   0  0  0  0  0  0  0  0  0  0  0  0
  -30.8555  -17.8066   20.7840 C   0  0  0  0  0  0  0  0  0  0  0  0
  -22.2079  -10.5331   22.6426 C   0  0  0  0  0  0  0  0  0  0  0  0
  -21.7339  -12.8768   22.2966 C   0  0  0  0  0  0  0  0  0  0  0  0
  -27.1903  -27.1173   19.7389 C   0  0  0  0  0  0  0  0  0  0  0  0
  -18.5366  -11.7973   22.4767 C   0  0  0  0  0  0  0  0  0  0  0  0
  -17.3189  -12.4066   22.1739 C   0  0  0  0  0  0  0  0  0  0  0  0
  -28.6719  -18.3194   19.8864 C   0  0  0  0  0  0  0  0  0  0  0  0
  -24.7860  -26.9992   19.8957 C   0  0  0  0  0  0  0  0  0  0  0  0
  -17.5683  -13.8572   24.0898 C   0  0  0  0  0  0  0  0  0  0  0  0
  -23.4869  -11.7991   21.0307 C   0  0  0  0  0  0  0  0  0  0  0  0
  -28.8556  -19.6643   20.2079 C   0  0  0  0  0  0  0  0  0  0  0  0
  -24.4062  -11.6355   18.6567 C   0  0  0  0  0  0  0  0  0  0  0  0
  -28.0035  -31.1147   26.5068 C   0  0  0  0  0  0  0  0  0  0  0  0
  -25.9315  -29.0303   20.5456 C   0  0  0  0  0  0  0  0  0  0  0  0
  -27.4100  -30.1439   25.6774 C   0  0  0  0  0  0  0  0  0  0  0  0
  -24.7362  -28.3178   20.3732 C   0  0  0  0  0  0  0  0  0  0  0  0
  -29.6719  -17.3906   20.1745 C   0  0  0  0  0  0  0  0  0  0  0  0
  -21.4655  -11.6735   22.9492 C   0  0  0  0  0  0  0  0  0  0  0  0
  -26.0067  -26.4021   19.5820 C   0  0  0  0  0  0  0  0  0  0  0  0
  -19.2700  -12.2179   23.5862 C   0  0  0  0  0  0  0  0  0  0  0  0
  -16.8348  -13.4366   22.9804 C   0  0  0  0  0  0  0  0  0  0  0  0
  -18.7859  -13.2479   24.3927 C   0  0  0  0  0  0  0  0  0  0  0  0
  -24.5312  -11.8648   20.0401 C   0  0  0  0  0  0  0  0  0  0  0  0
  -25.6743  -11.8198   18.1623 C   0  0  0  0  0  0  0  0  0  0  0  0
  -27.8001  -20.6466   19.9036 C   0  0  0  0  0  0  0  0  0  0  0  0
  -27.9962  -21.9689   19.8066 C   0  0  0  0  0  0  0  0  0  0  0  0
  -23.2475  -11.2872   17.8875 C   0  0  0  0  0  0  0  0  0  0  0  0
  -26.8559  -22.8817   19.5032 C   0  0  0  0  0  0  0  0  0  0  0  0
  -24.6602  -30.2084   23.2101 C   0  0  0  0  0  0  0  0  0  0  0  0
  -22.2843  -31.1330   21.2046 C   0  0  0  0  0  0  0  0  0  0  0  0
  -20.6296  -30.6547   18.2584 C   0  0  0  0  0  0  0  0  0  0  0  0
  -30.3788  -14.9751   20.0640 C   0  0  0  0  0  0  0  0  0  0  0  0
  -27.1875  -32.1913   27.1773 C   0  0  0  0  0  0  0  0  0  0  0  0
  -25.9067  -30.4533   21.0324 C   0  0  0  0  0  0  0  0  0  0  0  0
  -23.3967  -28.9266   20.6948 C   0  0  0  0  0  0  0  0  0  0  0  0
  -25.8119  -32.3943   26.5474 C   0  0  0  0  0  0  0  0  0  0  0  0
  -30.2776  -11.4719   19.4361 C   0  0  0  0  0  0  0  0  0  0  0  0
  -25.1267  -31.0510   26.3173 C   0  0  0  0  0  0  0  0  0  0  0  0
  -28.7811  -11.1553   19.3878 C   0  0  0  0  0  0  0  0  0  0  0  0
  -30.5987  -12.5359   20.4843 C   0  0  0  0  0  0  0  0  0  0  0  0
  -28.3192  -13.4566   20.3246 C   0  0  0  0  0  0  0  0  0  0  0  0
  -25.9335  -30.1791   25.3476 C   0  0  1  0  0  0  0  0  0  0  0  0
  -24.6481  -30.7916   21.8254 C   0  0  1  0  0  0  0  0  0  0  0  0
  -27.9385  -12.4372   19.2386 C   0  0  2  0  0  0  0  0  0  0  0  0
  -18.7063  -31.5420   16.9127 C   0  0  0  0  0  0  0  0  0  0  0  0
  -20.3289  -29.7153   23.0691 C   0  0  0  0  0  0  0  0  0  0  0  0
  -18.6246  -29.8062   21.2373 C   0  0  0  0  0  0  0  0  0  0  0  0
  -19.5305  -31.9209   22.2017 C   0  0  0  0  0  0  0  0  0  0  0  0
  -22.3990  -31.4025   16.0069 C   0  0  0  0  0  0  0  0  0  0  0  0
  -27.2029  -24.3531   19.4191 C   0  0  0  0  0  0  0  0  0  1  0  0
  -21.0025  -30.5100   20.7067 C   0  0  1  0  0  0  0  0  0  0  0  0
  -20.2020  -31.6270   17.1738 C   0  0  2  0  0  0  0  0  0  0  0  0
  -19.8969  -30.4757   21.7994 C   0  0  0  0  0  0  0  0  0  0  0  0
  -25.7800  -12.1711   20.4013 N   0  0  0  0  0  0  0  0  0  0  0  0
  -26.4515  -12.1356   19.2376 N   0  0  0  0  0  0  0  0  0  0  0  0
  -23.4251  -30.3186   21.1736 N   0  0  0  0  0  0  0  0  0  0  0  0
  -29.7656  -13.7225   20.2778 N   0  0  0  0  0  0  0  0  0  0  0  0
  -26.1892  -11.7408   16.9169 N   0  0  0  0  0  0  0  0  0  0  0  0
  -22.0236  -11.1373   18.5537 N   0  0  0  0  0  0  0  0  0  0  0  0
  -29.4864  -16.0245   19.8472 N   0  0  0  0  0  0  0  0  0  0  0  0
  -25.7294  -30.6181   23.9838 N   0  0  0  0  0  0  0  0  0  0  0  0
  -20.6309  -31.2468   19.5036 N   0  0  0  0  0  0  0  0  0  0  0  0
  -20.9189  -31.3314   15.9012 N   0  3  0  0  0  0  0  0  0  0  0  0
  -23.2993  -11.0980   16.6485 O   0  0  0  0  0  0  0  0  0  0  0  0
  -25.7135  -22.4642   19.3333 O   0  0  0  0  0  0  0  0  0  0  0  0
  -23.7651  -29.4445   23.5519 O   0  0  0  0  0  0  0  0  0  0  0  0
  -22.2752  -32.3016   21.5994 O   0  0  0  0  0  0  0  0  0  0  0  0
  -20.9286  -29.4857   18.0248 O   0  0  0  0  0  0  0  0  0  0  0  0
  -31.6058  -15.1023   20.0456 O   0  0  0  0  0  0  0  0  0  0  0  0
  -20.4791  -11.6125   23.8851 O   0  0  0  0  0  0  0  0  0  0  0  0
  -26.0398  -25.1231   19.1183 O   0  0  0  0  0  0  0  0  0  1  0  0
  -15.6663  -14.0227   22.6885 F   0  0  0  0  0  0  0  0  0  0  0  0
  -19.4867  -13.6571   25.4591 F   0  0  0  0  0  0  0  0  0  0  0  0
  1  2  1  0  0  0  0
  1  7  2  0  0  0  0
  2  8  2  0  0  0  0
  3  6  2  0  0  0  0
  3 10  1  0  0  0  0
  4 11  2  0  0  0  0
  4 19  1  0  0  0  0
  5 12  1  0  0  0  0
  5 19  2  0  0  0  0
  6 20  1  0  0  0  0
  7 22  1  0  0  0  0
  8 24  1  0  0  0  0
  9 13  2  0  0  0  0
  9 23  1  0  0  0  0
 10 26  2  0  0  0  0
 11 27  1  0  0  0  0
 12 27  2  0  0  0  0
 13 28  1  0  0  0  0
 14 15  2  0  0  0  0
 14 29  1  0  0  0  0
 15 30  1  0  0  0  0
 16 20  2  0  0  0  0
 16 26  1  0  0  0  0
 17 25  1  0  0  0  0
 17 28  2  0  0  0  0
 18 30  2  0  0  0  0
 18 31  1  0  0  0  0
 19 32  1  0  0  0  0
 20 34  1  0  0  0  0
 21 32  1  0  0  0  0
 21 33  2  0  0  0  0
 21 36  1  0  0  0  0
 22 24  2  0  0  0  0
 22 42  1  0  0  0  0
 23 25  2  0  0  0  0
 23 43  1  0  0  0  0
 24 51  1  0  0  0  0
 25 44  1  0  0  0  0
 26 69  1  0  0  0  0
 27 79  1  0  0  0  0
 28 80  1  0  0  0  0
 29 31  2  0  0  0  0
 29 79  1  0  0  0  0
 30 81  1  0  0  0  0
 31 82  1  0  0  0  0
 32 63  2  0  0  0  0
 33 64  1  0  0  0  0
 33 67  1  0  0  0  0
 34 35  2  0  0  0  0
 35 37  1  0  0  0  0
 36 68  1  0  0  0  0
 36 73  2  0  0  0  0
 37 59  1  0  0  0  0
 37 74  2  0  0  0  0
 38 52  1  0  0  0  0
 38 70  1  0  0  0  0
 38 75  2  0  0  0  0
 39 60  1  0  0  0  0
 39 65  1  0  0  0  0
 39 76  2  0  0  0  0
 40 61  1  0  0  0  0
 40 71  1  0  0  0  0
 40 77  2  0  0  0  0
 41 66  1  0  0  0  0
 41 69  1  0  0  0  0
 41 78  2  0  0  0  0
 42 45  1  0  0  0  0
 43 52  1  0  0  0  0
 44 65  1  0  0  0  0
 45 47  1  0  0  0  0
 46 48  1  0  0  0  0
 46 49  1  0  0  0  0
 47 51  1  0  0  0  0
 48 53  1  0  0  0  0
 49 66  1  0  0  0  0
 50 53  1  0  0  0  0
 50 66  1  0  0  0  0
 51 70  1  0  0  0  0
 52 65  1  0  0  0  0
 53 64  1  0  0  0  0
 54 61  1  0  0  0  0
 55 62  1  0  0  0  0
 56 62  1  0  0  0  0
 57 62  1  0  0  0  0
 58 72  1  0  0  0  0
 59 80  1  0  0  0  0
 60 62  1  0  0  0  0
 60 71  1  0  0  0  0
 61 72  1  0  0  0  0
 63 64  1  0  0  0  0
M  CHG  1  72   1
M  ISO  4  41 100  59 101  69 100  80 101
M  END
> <Batch ID>
0124

> <Smiles>
CNC(C)C(=O)NC(C(=O)N1Cc2cc([101O:1][101CH2:1]C(=O)C=Cc3cccc([100NH:0][100C:0](=O)N4CCCC(n5nc(-c6ccc(Oc7ccc(F)cc7F)cc6)c(C(N)=O)c5N)C4)c3)ccc2CC1C(=O)NC1CCCc2ccccc21)C(C)(C)C

> <Shape>
0.271

> <Color>
0.090

> <Negative vol penalty>
0.000

$$$$

  -OEChem-04052302063D

 84 92  0     1  0  0  0  0  0999 V2000
  -29.1418  -23.9105   21.9310 C   0  0  0  0  0  0  0  0  0  0  0  0
  -28.0072  -23.2843   22.4369 C   0  0  0  0  0  0  0  0  0  0  0  0
  -24.9347  -31.0186   21.0946 C   0  0  0  0  0  0  0  0  0  0  0  0
  -24.6853  -29.5308   22.9818 C   0  0  0  0  0  0  0  0  0  0  0  0
  -29.8240  -23.3491   20.8524 C   0  0  0  0  0  0  0  0  0  0  0  0
  -27.5534  -22.0969   21.8637 C   0  0  0  0  0  0  0  0  0  0  0  0
  -24.8978  -17.3944   24.7515 C   0  0  0  0  0  0  0  0  0  0  0  0
  -22.0648  -20.9371   19.9707 C   0  0  0  0  0  0  0  0  0  0  0  0
  -21.3379  -19.9921   20.6948 C   0  0  0  0  0  0  0  0  0  0  0  0
  -24.2737  -32.0241   21.7999 C   0  0  0  0  0  0  0  0  0  0  0  0
  -24.0244  -30.5364   23.6872 C   0  0  0  0  0  0  0  0  0  0  0  0
  -23.5632  -17.0223   24.9075 C   0  0  0  0  0  0  0  0  0  0  0  0
  -22.9709  -35.0986   23.2371 C   0  0  0  0  0  0  0  0  0  0  0  0
  -23.5166  -36.3818   23.2014 C   0  0  0  0  0  0  0  0  0  0  0  0
  -23.7696  -15.5185   23.0326 C   0  0  0  0  0  0  0  0  0  0  0  0
  -23.2226  -21.5920   21.9875 C   0  0  0  0  0  0  0  0  0  0  0  0
  -25.5537  -35.5432   24.1935 C   0  0  0  0  0  0  0  0  0  0  0  0
  -25.1404  -29.7719   21.6855 C   0  0  0  0  0  0  0  0  0  0  0  0
  -27.2067  -28.4759   20.9379 C   0  0  0  0  0  0  0  0  0  0  0  0
  -29.3839  -22.1491   20.2718 C   0  0  0  0  0  0  0  0  0  0  0  0
  -25.6765  -16.8385   23.7263 C   0  0  0  0  0  0  0  0  0  0  0  0
  -28.2296  -21.5197   20.7754 C   0  0  0  0  0  0  0  0  0  0  0  0
  -25.1144  -15.8833   22.8673 C   0  0  0  0  0  0  0  0  0  0  0  0
  -23.0071  -21.7370   20.6170 C   0  0  0  0  0  0  0  0  0  0  0  0
  -21.5534  -19.8471   22.0652 C   0  0  0  0  0  0  0  0  0  0  0  0
  -23.8186  -31.7831   23.0962 C   0  0  0  0  0  0  0  0  0  0  0  0
  -22.9981  -16.0864   24.0463 C   0  0  0  0  0  0  0  0  0  0  0  0
  -23.7166  -34.0377   23.7510 C   0  0  0  0  0  0  0  0  0  0  0  0
  -24.8079  -36.6041   23.6796 C   0  0  0  0  0  0  0  0  0  0  0  0
  -22.4957  -20.6471   22.7116 C   0  0  0  0  0  0  0  0  0  0  0  0
  -25.0080  -34.2599   24.2291 C   0  0  0  0  0  0  0  0  0  0  0  0
  -25.8226  -28.7325   20.9571 C   0  0  0  0  0  0  0  0  0  0  0  0
  -27.3436  -27.3934   20.1037 C   0  0  0  0  0  0  0  0  0  0  0  0
  -28.2731  -29.1552   21.6138 C   0  0  0  0  0  0  0  0  0  0  0  0
  -27.1986  -17.9954   21.1869 C   0  0  0  0  0  0  0  0  0  0  0  0
  -28.2764  -14.9467   20.9300 C   0  0  0  0  0  0  0  0  0  0  0  0
  -19.8431  -18.0153   22.3139 C   0  0  0  0  0  0  0  0  0  0  0  0
  -26.9031  -11.6294   21.2859 C   0  0  0  0  0  0  0  0  0  0  0  0
  -23.6533  -22.9697   18.5171 C   0  0  0  0  0  0  0  0  0  0  0  0
  -30.1269  -21.6054   19.0772 C   0  0  0  0  0  0  0  0  0  0  0  0
  -27.1220  -17.2305   23.5880 C   0  0  0  0  0  0  0  0  0  0  0  0
  -25.9134  -15.2418   21.7634 C   0  0  0  0  0  0  0  0  0  0  0  0
  -29.7972  -20.1476   18.7668 C   0  0  0  0  0  0  0  0  0  0  0  0
  -25.2684  -25.2791   16.3411 C   0  0  0  0  0  0  0  0  0  0  0  0
  -28.2890  -19.9219   18.8033 C   0  0  0  0  0  0  0  0  0  0  0  0
  -25.7251  -26.4005   17.2770 C   0  0  0  0  0  0  0  0  0  0  0  0
  -23.9153  -24.7068   16.7597 C   0  0  0  0  0  0  0  0  0  0  0  0
  -24.2878  -25.3941   19.0959 C   0  0  0  0  0  0  0  0  0  0  0  0
  -27.7205  -20.2174   20.1965 C   0  0  1  0  0  0  0  0  0  0  0  0
  -27.6770  -16.9829   22.1887 C   0  0  1  0  0  0  0  0  0  0  0  0
  -25.6763  -25.9579   18.7526 C   0  0  2  0  0  0  0  0  0  0  0  0
  -28.0095   -9.4630   21.9026 C   0  0  0  0  0  0  0  0  0  0  0  0
  -28.5242  -14.5493   17.9150 C   0  0  0  0  0  0  0  0  0  0  0  0
  -28.0219  -12.1215   18.2639 C   0  0  0  0  0  0  0  0  0  0  0  0
  -30.0625  -13.1303   19.2841 C   0  0  0  0  0  0  0  0  0  0  0  0
  -25.0209  -11.1711   23.5234 C   0  0  0  0  0  0  0  0  0  0  0  0
  -19.2960  -17.1489   23.4399 C   0  0  0  0  0  0  0  0  0  0  0  0
  -19.5158  -15.6600   23.1952 C   0  0  0  0  0  0  0  0  0  0  0  0
  -20.9910  -15.3311   23.0182 C   0  0  0  0  0  0  0  0  0  1  0  0
  -27.7906  -13.6957   20.2386 C   0  0  1  0  0  0  0  0  0  0  0  0
  -27.1896  -10.6422   22.4029 C   0  0  2  0  0  0  0  0  0  0  0  0
  -28.5817  -13.3942   18.9345 C   0  0  0  0  0  0  0  0  0  0  0  0
  -25.1298  -27.8817   20.1955 N   0  0  0  0  0  0  0  0  0  0  0  0
  -26.0825  -27.0799   19.6898 N   0  0  0  0  0  0  0  0  0  0  0  0
  -27.3208  -15.6627   21.6648 N   0  0  0  0  0  0  0  0  0  0  0  0
  -23.9453  -24.3051   18.1677 N   0  0  0  0  0  0  0  0  0  0  0  0
  -28.4186  -26.6887   19.6912 N   0  0  0  0  0  0  0  0  0  0  0  0
  -27.9565  -30.2479   22.4325 N   0  0  0  0  0  0  0  0  0  0  0  0
  -20.8141  -18.8879   22.7973 N   0  0  0  0  0  0  0  0  0  0  0  0
  -23.7452  -22.6975   19.8817 N   0  0  0  0  0  0  0  0  0  0  0  0
  -27.9969  -19.1198   21.0984 N   0  0  0  0  0  0  0  0  0  0  0  0
  -27.8501  -12.6302   21.2334 N   0  0  0  0  0  0  0  0  0  0  0  0
  -25.9153  -10.1205   22.9727 N   0  3  0  0  0  0  0  0  0  0  0  0
  -29.4730  -28.8139   21.4824 O   0  0  0  0  0  0  0  0  0  0  0  0
  -26.1814  -17.7723   20.5410 O   0  0  0  0  0  0  0  0  0  0  0  0
  -29.4617  -15.2726   20.8280 O   0  0  0  0  0  0  0  0  0  0  0  0
  -19.4425  -17.9120   21.1593 O   0  0  0  0  0  0  0  0  0  0  0  0
  -25.9379  -11.5212   20.5327 O   0  0  0  0  0  0  0  0  0  0  0  0
  -23.3711  -22.1229   17.6655 O   0  0  0  0  0  0  0  0  0  0  0  0
  -23.1738  -32.7642   23.7849 O   0  0  0  0  0  0  0  0  0  0  0  0
  -21.6956  -15.7219   24.1960 O   0  0  0  0  0  0  0  0  0  1  0  0
  -25.3324  -37.8361   23.6439 F   0  0  0  0  0  0  0  0  0  0  0  0
  -22.7101  -20.5175   24.0288 F   0  0  0  0  0  0  0  0  0  0  0  0
  -25.7296  -33.2444   24.7229 F   0  0  0  0  0  0  0  0  0  0  0  0
  1  2  1  0  0  0  0
  1  5  2  0  0  0  0
  2  6  2  0  0  0  0
  3 10  2  0  0  0  0
  3 18  1  0  0  0  0
  4 11  1  0  0  0  0
  4 18  2  0  0  0  0
  5 20  1  0  0  0  0
  6 22  1  0  0  0  0
  7 12  2  0  0  0  0
  7 21  1  0  0  0  0
  8  9  2  0  0  0  0
  8 24  1  0  0  0  0
  9 25  1  0  0  0  0
 10 26  1  0  0  0  0
 11 26  2  0  0  0  0
 12 27  1  0  0  0  0
 13 14  2  0  0  0  0
 13 28  1  0  0  0  0
 14 29  1  0  0  0  0
 15 23  1  0  0  0  0
 15 27  2  0  0  0  0
 16 24  2  0  0  0  0
 16 30  1  0  0  0  0
 17 29  2  0  0  0  0
 17 31  1  0  0  0  0
 18 32  1  0  0  0  0
 19 32  1  0  0  0  0
 19 33  2  0  0  0  0
 19 34  1  0  0  0  0
 20 22  2  0  0  0  0
 20 40  1  0  0  0  0
 21 23  2  0  0  0  0
 21 41  1  0  0  0  0
 22 49  1  0  0  0  0
 23 42  1  0  0  0  0
 24 70  1  0  0  0  0
 25 30  2  0  0  0  0
 25 69  1  0  0  0  0
 26 80  1  0  0  0  0
 27 81  1  0  0  0  0
 28 31  2  0  0  0  0
 28 80  1  0  0  0  0
 29 82  1  0  0  0  0
 30 83  1  0  0  0  0
 31 84  1  0  0  0  0
 32 63  2  0  0  0  0
 33 64  1  0  0  0  0
 33 67  1  0  0  0  0
 34 68  1  0  0  0  0
 34 74  2  0  0  0  0
 35 50  1  0  0  0  0
 35 71  1  0  0  0  0
 35 75  2  0  0  0  0
 36 60  1  0  0  0  0
 36 65  1  0  0  0  0
 36 76  2  0  0  0  0
 37 57  1  0  0  0  0
 37 69  1  0  0  0  0
 37 77  2  0  0  0  0
 38 61  1  0  0  0  0
 38 72  1  0  0  0  0
 38 78  2  0  0  0  0
 39 66  1  0  0  0  0
 39 70  1  0  0  0  0
 39 79  2  0  0  0  0
 40 43  1  0  0  0  0
 41 50  1  0  0  0  0
 42 65  1  0  0  0  0
 43 45  1  0  0  0  0
 44 46  1  0  0  0  0
 44 47  1  0  0  0  0
 45 49  1  0  0  0  0
 46 51  1  0  0  0  0
 47 66  1  0  0  0  0
 48 51  1  0  0  0  0
 48 66  1  0  0  0  0
 49 71  1  0  0  0  0
 50 65  1  0  0  0  0
 51 64  1  0  0  0  0
 52 61  1  0  0  0  0
 53 62  1  0  0  0  0
 54 62  1  0  0  0  0
 55 62  1  0  0  0  0
 56 73  1  0  0  0  0
 57 58  1  0  0  0  0
 58 59  1  0  0  0  0
 59 81  1  0  0  0  0
 60 62  1  0  0  0  0
 60 72  1  0  0  0  0
 61 73  1  0  0  0  0
 63 64  1  0  0  0  0
M  CHG  1  73   1
M  ISO  4  39 100  59 101  70 100  81 101
M  END
> <Batch ID>
0124

> <Smiles>
CNC(C)C(=O)NC(C(=O)N1Cc2cc([101O:1][101CH2:1]CCC(=O)Nc3ccc([100NH:0][100C:0](=O)N4CCCC(n5nc(-c6ccc(Oc7ccc(F)cc7F)cc6)c(C(N)=O)c5N)C4)cc3F)ccc2CC1C(=O)NC1CCCc2ccccc21)C(C)(C)C

> <Shape>
0.226

> <Color>
0.063

> <Negative vol penalty>
0.000

$$$$

  -OEChem-04052302063D

 85 93  0     1  0  0  0  0  0999 V2000
  -26.2989  -34.1640   26.9942 C   0  0  0  0  0  0  0  0  0  0  0  0
  -26.6881  -32.8422   26.8028 C   0  0  0  0  0  0  0  0  0  0  0  0
  -23.0965   -9.7807   19.9460 C   0  0  0  0  0  0  0  0  0  0  0  0
  -23.7944   -9.8668   22.2574 C   0  0  0  0  0  0  0  0  0  0  0  0
  -25.0990  -34.6218   26.4514 C   0  0  0  0  0  0  0  0  0  0  0  0
  -25.8770  -31.9770   26.0693 C   0  0  0  0  0  0  0  0  0  0  0  0
  -28.5074  -29.1779   22.7691 C   0  0  0  0  0  0  0  0  0  0  0  0
  -22.3719   -8.6181   20.2080 C   0  0  0  0  0  0  0  0  0  0  0  0
  -23.0697   -8.7042   22.5195 C   0  0  0  0  0  0  0  0  0  0  0  0
  -29.2045  -28.0824   23.2769 C   0  0  0  0  0  0  0  0  0  0  0  0
  -23.4487   -5.3759   22.0617 C   0  0  0  0  0  0  0  0  0  0  0  0
  -24.0672   -4.3846   22.8234 C   0  0  0  0  0  0  0  0  0  0  0  0
  -29.4557  -19.4091   22.2734 C   0  0  0  0  0  0  0  0  0  0  0  0
  -27.4329  -26.6208   22.5392 C   0  0  0  0  0  0  0  0  0  0  0  0
  -30.9814  -17.7892   20.5908 C   0  0  0  0  0  0  0  0  0  0  0  0
  -22.3173   -4.5653   24.4794 C   0  0  0  0  0  0  0  0  0  0  0  0
  -23.8079  -10.4051   20.9706 C   0  0  0  0  0  0  0  0  0  0  0  0
  -30.3703  -19.9852   21.3919 C   0  0  0  0  0  0  0  0  0  0  0  0
  -24.0970  -12.9332   20.7900 C   0  0  0  0  0  0  0  0  0  0  0  0
  -24.2774  -33.7643   25.7028 C   0  0  0  0  0  0  0  0  0  0  0  0
  -27.2606  -29.0040   22.1513 C   0  0  0  0  0  0  0  0  0  0  0  0
  -24.6643  -32.4233   25.5171 C   0  0  0  0  0  0  0  0  0  0  0  0
  -26.7232  -27.7153   22.0221 C   0  0  0  0  0  0  0  0  0  0  0  0
  -29.3039  -18.0230   22.3137 C   0  0  0  0  0  0  0  0  0  0  0  0
  -31.1332  -19.1753   20.5506 C   0  0  0  0  0  0  0  0  0  0  0  0
  -30.0668  -17.2131   21.4724 C   0  0  0  0  0  0  0  0  0  0  0  0
  -22.3584   -8.0798   21.4948 C   0  0  0  0  0  0  0  0  0  0  0  0
  -28.6659  -26.8040   23.1645 C   0  0  0  0  0  0  0  0  0  0  0  0
  -22.2645   -5.9620   22.5088 C   0  0  0  0  0  0  0  0  0  0  0  0
  -23.5015   -3.9793   24.0323 C   0  0  0  0  0  0  0  0  0  0  0  0
  -21.6988   -5.5567   23.7176 C   0  0  0  0  0  0  0  0  0  0  0  0
  -24.5571  -11.6058   20.7004 C   0  0  0  0  0  0  0  0  0  0  0  0
  -25.1817  -13.6973   20.4350 C   0  0  0  0  0  0  0  0  0  0  0  0
  -30.5081  -21.4522   21.3727 C   0  0  0  0  0  0  0  0  0  0  0  0
  -30.8533  -22.1983   22.4315 C   0  0  0  0  0  0  0  0  0  0  0  0
  -22.8047  -13.4310   21.1612 C   0  0  0  0  0  0  0  0  0  0  0  0
  -30.9561  -23.6832   22.3102 C   0  0  0  0  0  0  0  0  0  0  0  0
  -24.3034  -30.0065   22.7455 C   0  0  0  0  0  0  0  0  0  0  0  0
  -23.6694  -28.5957   19.8942 C   0  0  0  0  0  0  0  0  0  0  0  0
  -24.5449  -26.2716   17.5535 C   0  0  0  0  0  0  0  0  0  0  0  0
  -30.6168  -14.8715   20.7237 C   0  0  0  0  0  0  0  0  0  0  0  0
  -22.9665  -34.2919   25.1757 C   0  0  0  0  0  0  0  0  0  0  0  0
  -26.5337  -30.1928   21.5850 C   0  0  0  0  0  0  0  0  0  0  0  0
  -25.3976  -27.4727   21.3495 C   0  0  0  0  0  0  0  0  0  0  0  0
  -22.3460  -33.4111   24.0944 C   0  0  0  0  0  0  0  0  0  0  0  0
  -29.6198  -12.3700   18.3945 C   0  0  0  0  0  0  0  0  0  0  0  0
  -22.3813  -31.9451   24.5146 C   0  0  0  0  0  0  0  0  0  0  0  0
  -28.1759  -12.0574   18.7941 C   0  0  0  0  0  0  0  0  0  0  0  0
  -30.4971  -12.6519   19.6129 C   0  0  0  0  0  0  0  0  0  0  0  0
  -28.5383  -13.3697   20.9233 C   0  0  0  0  0  0  0  0  0  0  0  0
  -23.8236  -31.4609   24.7065 C   0  0  1  0  0  0  0  0  0  0  0  0
  -25.0337  -29.9593   21.4333 C   0  0  1  0  0  0  0  0  0  0  0  0
  -27.6015  -13.1426   19.7257 C   0  0  2  0  0  0  0  0  0  0  0  0
  -28.3173  -17.4333   23.2687 C   0  0  0  0  0  0  0  0  0  0  0  0
  -32.1230  -19.7584   19.5937 C   0  0  0  0  0  0  0  0  0  0  0  0
  -23.8128  -25.3245   15.3480 C   0  0  0  0  0  0  0  0  0  0  0  0
  -21.4646  -27.0260   21.3029 C   0  0  0  0  0  0  0  0  0  0  0  0
  -21.4235  -25.4634   19.3472 C   0  0  0  0  0  0  0  0  0  0  0  0
  -20.8541  -27.8713   19.0298 C   0  0  0  0  0  0  0  0  0  0  0  0
  -27.0545  -27.1111   16.2284 C   0  0  0  0  0  0  0  0  0  0  0  0
  -31.3560  -24.4138   23.5830 C   0  0  0  0  0  0  0  0  0  0  0  0
  -30.7686  -25.8149   23.6711 C   0  0  0  0  0  0  0  0  0  1  0  0
  -23.2575  -27.2115   19.4544 C   0  0  1  0  0  0  0  0  0  0  0  0
  -24.6786  -26.3630   16.0441 C   0  0  2  0  0  0  0  0  0  0  0  0
  -21.7740  -26.8975   19.7980 C   0  0  0  0  0  0  0  0  0  0  0  0
  -25.8345  -11.5276   20.3181 N   0  0  0  0  0  0  0  0  0  0  0  0
  -26.1863  -12.8155   20.1644 N   0  0  0  0  0  0  0  0  0  0  0  0
  -24.7222  -28.6678   20.8174 N   0  0  0  0  0  0  0  0  0  0  0  0
  -29.8922  -13.6930   20.4466 N   0  0  0  0  0  0  0  0  0  0  0  0
  -25.3645  -15.0308   20.3308 N   0  0  0  0  0  0  0  0  0  0  0  0
  -21.8044  -12.5085   21.4968 N   0  0  0  0  0  0  0  0  0  0  0  0
  -29.9275  -15.8033   21.4991 N   0  0  0  0  0  0  0  0  0  0  0  0
  -24.4443  -31.2014   23.4252 N   0  0  0  0  0  0  0  0  0  0  0  0
  -23.5729  -27.1242   18.0327 N   0  0  0  0  0  0  0  0  0  0  0  0
  -26.0950  -26.1444   15.6354 N   0  3  0  0  0  0  0  0  0  0  0  0
  -22.5399  -14.6571   21.1784 O   0  0  0  0  0  0  0  0  0  0  0  0
  -30.7320  -24.2619   21.2506 O   0  0  0  0  0  0  0  0  0  0  0  0
  -23.6584  -29.0317   23.1135 O   0  0  0  0  0  0  0  0  0  0  0  0
  -23.0836  -29.5770   19.4301 O   0  0  0  0  0  0  0  0  0  0  0  0
  -25.2313  -25.5165   18.2385 O   0  0  0  0  0  0  0  0  0  0  0  0
  -31.7540  -15.0533   20.2813 O   0  0  0  0  0  0  0  0  0  0  0  0
  -21.6512   -6.9455   21.7510 O   0  0  0  0  0  0  0  0  0  0  0  0
  -29.3440  -25.7331   23.6598 O   0  0  0  0  0  0  0  0  0  1  0  0
  -24.0948   -3.0262   24.7630 F   0  0  0  0  0  0  0  0  0  0  0  0
  -20.5606   -6.1152   24.1518 F   0  0  0  0  0  0  0  0  0  0  0  0
  1  2  1  0  0  0  0
  1  5  2  0  0  0  0
  2  6  2  0  0  0  0
  3  8  2  0  0  0  0
  3 17  1  0  0  0  0
  4  9  1  0  0  0  0
  4 17  2  0  0  0  0
  5 20  1  0  0  0  0
  6 22  1  0  0  0  0
  7 10  2  0  0  0  0
  7 21  1  0  0  0  0
  8 27  1  0  0  0  0
  9 27  2  0  0  0  0
 10 28  1  0  0  0  0
 11 12  2  0  0  0  0
 11 29  1  0  0  0  0
 12 30  1  0  0  0  0
 13 18  1  0  0  0  0
 13 24  2  0  0  0  0
 14 23  1  0  0  0  0
 14 28  2  0  0  0  0
 15 25  1  0  0  0  0
 15 26  2  0  0  0  0
 16 30  2  0  0  0  0
 16 31  1  0  0  0  0
 17 32  1  0  0  0  0
 18 25  2  0  0  0  0
 18 34  1  0  0  0  0
 19 32  1  0  0  0  0
 19 33  2  0  0  0  0
 19 36  1  0  0  0  0
 20 22  2  0  0  0  0
 20 42  1  0  0  0  0
 21 23  2  0  0  0  0
 21 43  1  0  0  0  0
 22 51  1  0  0  0  0
 23 44  1  0  0  0  0
 24 26  1  0  0  0  0
 24 54  1  0  0  0  0
 25 55  1  0  0  0  0
 26 72  1  0  0  0  0
 27 82  1  0  0  0  0
 28 83  1  0  0  0  0
 29 31  2  0  0  0  0
 29 82  1  0  0  0  0
 30 84  1  0  0  0  0
 31 85  1  0  0  0  0
 32 66  2  0  0  0  0
 33 67  1  0  0  0  0
 33 70  1  0  0  0  0
 34 35  2  0  0  0  0
 35 37  1  0  0  0  0
 36 71  1  0  0  0  0
 36 76  2  0  0  0  0
 37 61  1  0  0  0  0
 37 77  2  0  0  0  0
 38 52  1  0  0  0  0
 38 73  1  0  0  0  0
 38 78  2  0  0  0  0
 39 63  1  0  0  0  0
 39 68  1  0  0  0  0
 39 79  2  0  0  0  0
 40 64  1  0  0  0  0
 40 74  1  0  0  0  0
 40 80  2  0  0  0  0
 41 69  1  0  0  0  0
 41 72  1  0  0  0  0
 41 81  2  0  0  0  0
 42 45  1  0  0  0  0
 43 52  1  0  0  0  0
 44 68  1  0  0  0  0
 45 47  1  0  0  0  0
 46 48  1  0  0  0  0
 46 49  1  0  0  0  0
 47 51  1  0  0  0  0
 48 53  1  0  0  0  0
 49 69  1  0  0  0  0
 50 53  1  0  0  0  0
 50 69  1  0  0  0  0
 51 73  1  0  0  0  0
 52 68  1  0  0  0  0
 53 67  1  0  0  0  0
 56 64  1  0  0  0  0
 57 65  1  0  0  0  0
 58 65  1  0  0  0  0
 59 65  1  0  0  0  0
 60 75  1  0  0  0  0
 61 62  1  0  0  0  0
 62 83  1  0  0  0  0
 63 65  1  0  0  0  0
 63 74  1  0  0  0  0
 64 75  1  0  0  0  0
 66 67  1  0  0  0  0
M  CHG  1  75   1
M  ISO  4  41 100  62 101  72 100  83 101
M  END
> <Batch ID>
0124

> <Smiles>
CNC(C)C(=O)NC(C(=O)N1Cc2cc([101O:1][101CH2:1]CC(=O)C=Cc3cc(C)c([100NH:0][100C:0](=O)N4CCCC(n5nc(-c6ccc(Oc7ccc(F)cc7F)cc6)c(C(N)=O)c5N)C4)cc3C)ccc2CC1C(=O)NC1CCCc2ccccc21)C(C)(C)C

> <Shape>
0.303

> <Color>
0.224

> <Negative vol penalty>
0.000

$$$$

  -OEChem-04052302063D

 86 94  0     1  0  0  0  0  0999 V2000
  -28.4880  -36.4279   21.5155 C   0  0  0  0  0  0  0  0  0  0  0  0
  -28.8089  -35.1695   21.0167 C   0  0  0  0  0  0  0  0  0  0  0  0
  -23.5068   -9.3756   20.3512 C   0  0  0  0  0  0  0  0  0  0  0  0
  -23.1015  -11.1955   21.8877 C   0  0  0  0  0  0  0  0  0  0  0  0
  -27.7196  -36.5424   22.6732 C   0  0  0  0  0  0  0  0  0  0  0  0
  -28.3625  -34.0248   21.6761 C   0  0  0  0  0  0  0  0  0  0  0  0
  -26.6914  -28.7178   19.1169 C   0  0  0  0  0  0  0  0  0  0  0  0
  -22.6125   -8.5758   21.0625 C   0  0  0  0  0  0  0  0  0  0  0  0
  -22.2071  -10.3957   22.5990 C   0  0  0  0  0  0  0  0  0  0  0  0
  -27.3661  -27.5117   18.9327 C   0  0  0  0  0  0  0  0  0  0  0  0
  -22.6190   -6.7621   23.9147 C   0  0  0  0  0  0  0  0  0  0  0  0
  -23.0051   -5.4517   24.1961 C   0  0  0  0  0  0  0  0  0  0  0  0
  -30.9013  -18.2241   20.1883 C   0  0  0  0  0  0  0  0  0  0  0  0
  -26.3596  -26.6479   20.9477 C   0  0  0  0  0  0  0  0  0  0  0  0
  -28.9923  -19.9428   19.1000 C   0  0  0  0  0  0  0  0  0  0  0  0
  -21.0958   -4.6253   22.9677 C   0  0  0  0  0  0  0  0  0  0  0  0
  -23.7514  -10.6855   20.7638 C   0  0  0  0  0  0  0  0  0  0  0  0
  -31.0912  -19.6046   20.2478 C   0  0  0  0  0  0  0  0  0  0  0  0
  -24.3809  -12.3613   18.9463 C   0  0  0  0  0  0  0  0  0  0  0  0
  -27.2554  -35.3986   23.3417 C   0  0  0  0  0  0  0  0  0  0  0  0
  -25.8528  -28.9022   20.2256 C   0  0  0  0  0  0  0  0  0  0  0  0
  -27.5883  -34.1241   22.8446 C   0  0  0  0  0  0  0  0  0  0  0  0
  -25.6734  -27.8564   21.1423 C   0  0  0  0  0  0  0  0  0  0  0  0
  -29.7569  -17.7028   19.5846 C   0  0  0  0  0  0  0  0  0  0  0  0
  -30.1367  -20.4640   19.7037 C   0  0  0  0  0  0  0  0  0  0  0  0
  -21.9626   -9.0859   22.1864 C   0  0  0  0  0  0  0  0  0  0  0  0
  -27.2025  -26.4776   19.8497 C   0  0  0  0  0  0  0  0  0  0  0  0
  -21.4712   -7.0042   23.1599 C   0  0  0  0  0  0  0  0  0  0  0  0
  -22.2436   -4.3833   23.7226 C   0  0  0  0  0  0  0  0  0  0  0  0
  -28.8024  -18.5622   19.0405 C   0  0  0  0  0  0  0  0  0  0  0  0
  -20.7097   -5.9358   22.6864 C   0  0  0  0  0  0  0  0  0  0  0  0
  -24.6756  -11.5120   20.0297 C   0  0  0  0  0  0  0  0  0  0  0  0
  -25.5901  -12.9177   18.6075 C   0  0  0  0  0  0  0  0  0  0  0  0
  -32.2985  -20.1170   20.8838 C   0  0  0  0  0  0  0  0  0  0  0  0
  -23.1264  -12.6238   18.3038 C   0  0  0  0  0  0  0  0  0  0  0  0
  -25.8281  -30.8779   22.7155 C   0  0  0  0  0  0  0  0  0  0  0  0
  -22.9657  -29.4714   23.3075 C   0  0  0  0  0  0  0  0  0  0  0  0
  -29.4485  -22.8458   19.2592 C   0  0  0  0  0  0  0  0  0  0  0  0
  -20.9296  -26.7627   22.9024 C   0  0  0  0  0  0  0  0  0  0  0  0
  -30.4167  -15.3101   20.0160 C   0  0  0  0  0  0  0  0  0  0  0  0
  -26.4676  -35.5722   24.6160 C   0  0  0  0  0  0  0  0  0  0  0  0
  -25.1113  -30.1997   20.3956 C   0  0  0  0  0  0  0  0  0  0  0  0
  -24.7687  -27.9966   22.3382 C   0  0  0  0  0  0  0  0  0  0  0  0
  -25.7186  -34.3132   25.0453 C   0  0  0  0  0  0  0  0  0  0  0  0
  -30.2853  -11.7530   20.0976 C   0  0  0  0  0  0  0  0  0  0  0  0
  -26.6306  -33.0936   24.9580 C   0  0  0  0  0  0  0  0  0  0  0  0
  -28.7899  -11.4430   19.9981 C   0  0  0  0  0  0  0  0  0  0  0  0
  -30.5508  -13.0043   20.9327 C   0  0  0  0  0  0  0  0  0  0  0  0
  -28.3104  -13.8890   20.4157 C   0  0  0  0  0  0  0  0  0  0  0  0
  -27.1018  -32.8591   23.5177 C   0  0  1  0  0  0  0  0  0  0  0  0
  -24.6835  -30.4591   21.8368 C   0  0  1  0  0  0  0  0  0  0  0  0
  -27.9892  -12.6740   19.5300 C   0  0  2  0  0  0  0  0  0  0  0  0
  -32.8966  -19.2989   21.9892 C   0  0  0  0  0  0  0  0  0  0  0  0
  -18.6634  -25.8897   23.5344 C   0  0  0  0  0  0  0  0  0  0  0  0
  -23.9850  -28.8678   26.1194 C   0  0  0  0  0  0  0  0  0  0  0  0
  -22.1205  -27.2151   26.3652 C   0  0  0  0  0  0  0  0  0  0  0  0
  -21.6056  -29.6305   26.0136 C   0  0  0  0  0  0  0  0  0  0  0  0
  -20.0795  -26.5890   20.0729 C   0  0  0  0  0  0  0  0  0  0  0  0
  -30.0145  -24.2364   19.5235 C   0  0  0  0  0  0  0  0  0  0  0  0
  -29.1210  -25.3535   19.0061 C   0  0  0  0  0  0  0  0  0  1  0  0
  -22.5095  -28.2629   24.0888 C   0  0  1  0  0  0  0  0  0  0  0  0
  -19.4716  -26.6504   22.4948 C   0  0  2  0  0  0  0  0  0  0  0  0
  -22.5738  -28.4918   25.6254 C   0  0  0  0  0  0  0  0  0  0  0  0
  -25.9704  -11.5244   20.3573 N   0  0  0  0  0  0  0  0  0  0  0  0
  -26.5001  -12.3883   19.4745 N   0  0  0  0  0  0  0  0  0  0  0  0
  -24.0704  -29.2866   22.4641 N   0  0  0  0  0  0  0  0  0  0  0  0
  -29.7617  -14.1304   20.4285 N   0  0  0  0  0  0  0  0  0  0  0  0
  -25.9530  -13.8033   17.6555 N   0  0  0  0  0  0  0  0  0  0  0  0
  -21.9825  -11.9675   18.7782 N   0  0  0  0  0  0  0  0  0  0  0  0
  -30.3075  -21.8680   19.7537 N   0  0  0  0  0  0  0  0  0  0  0  0
  -29.5662  -16.3000   19.5247 N   0  0  0  0  0  0  0  0  0  0  0  0
  -26.0517  -32.2413   22.7366 N   0  0  0  0  0  0  0  0  0  0  0  0
  -21.1794  -27.9320   23.5891 N   0  0  0  0  0  0  0  0  0  0  0  0
  -19.3515  -25.9371   21.1919 N   0  3  0  0  0  0  0  0  0  0  0  0
  -32.8581  -21.1715   20.5836 O   0  0  0  0  0  0  0  0  0  0  0  0
  -23.0256  -13.4043   17.3270 O   0  0  0  0  0  0  0  0  0  0  0  0
  -26.4607  -30.0271   23.3301 O   0  0  0  0  0  0  0  0  0  0  0  0
  -22.3596  -30.5382   23.4352 O   0  0  0  0  0  0  0  0  0  0  0  0
  -28.3785  -22.6749   18.6845 O   0  0  0  0  0  0  0  0  0  0  0  0
  -21.7628  -25.8977   22.6412 O   0  0  0  0  0  0  0  0  0  0  0  0
  -31.6441  -15.4229   20.0674 O   0  0  0  0  0  0  0  0  0  0  0  0
  -21.0896   -8.3058   22.8807 O   0  0  0  0  0  0  0  0  0  0  0  0
  -27.8604  -25.2996   19.6727 O   0  0  0  0  0  0  0  0  0  1  0  0
  -22.6154   -3.1249   23.9916 F   0  0  0  0  0  0  0  0  0  0  0  0
  -27.6989  -18.0725   18.4575 F   0  0  0  0  0  0  0  0  0  0  0  0
  -19.6067   -6.1621   21.9597 F   0  0  0  0  0  0  0  0  0  0  0  0
  1  2  1  0  0  0  0
  1  5  2  0  0  0  0
  2  6  2  0  0  0  0
  3  8  2  0  0  0  0
  3 17  1  0  0  0  0
  4  9  1  0  0  0  0
  4 17  2  0  0  0  0
  5 20  1  0  0  0  0
  6 22  1  0  0  0  0
  7 10  2  0  0  0  0
  7 21  1  0  0  0  0
  8 26  1  0  0  0  0
  9 26  2  0  0  0  0
 10 27  1  0  0  0  0
 11 12  2  0  0  0  0
 11 28  1  0  0  0  0
 12 29  1  0  0  0  0
 13 18  1  0  0  0  0
 13 24  2  0  0  0  0
 14 23  1  0  0  0  0
 14 27  2  0  0  0  0
 15 25  1  0  0  0  0
 15 30  2  0  0  0  0
 16 29  2  0  0  0  0
 16 31  1  0  0  0  0
 17 32  1  0  0  0  0
 18 25  2  0  0  0  0
 18 34  1  0  0  0  0
 19 32  1  0  0  0  0
 19 33  2  0  0  0  0
 19 35  1  0  0  0  0
 20 22  2  0  0  0  0
 20 41  1  0  0  0  0
 21 23  2  0  0  0  0
 21 42  1  0  0  0  0
 22 50  1  0  0  0  0
 23 43  1  0  0  0  0
 24 30  1  0  0  0  0
 24 71  1  0  0  0  0
 25 70  1  0  0  0  0
 26 82  1  0  0  0  0
 27 83  1  0  0  0  0
 28 31  2  0  0  0  0
 28 82  1  0  0  0  0
 29 84  1  0  0  0  0
 30 85  1  0  0  0  0
 31 86  1  0  0  0  0
 32 64  2  0  0  0  0
 33 65  1  0  0  0  0
 33 68  1  0  0  0  0
 34 53  1  0  0  0  0
 34 75  2  0  0  0  0
 35 69  1  0  0  0  0
 35 76  2  0  0  0  0
 36 51  1  0  0  0  0
 36 72  1  0  0  0  0
 36 77  2  0  0  0  0
 37 61  1  0  0  0  0
 37 66  1  0  0  0  0
 37 78  2  0  0  0  0
 38 59  1  0  0  0  0
 38 70  1  0  0  0  0
 38 79  2  0  0  0  0
 39 62  1  0  0  0  0
 39 73  1  0  0  0  0
 39 80  2  0  0  0  0
 40 67  1  0  0  0  0
 40 71  1  0  0  0  0
 40 81  2  0  0  0  0
 41 44  1  0  0  0  0
 42 51  1  0  0  0  0
 43 66  1  0  0  0  0
 44 46  1  0  0  0  0
 45 47  1  0  0  0  0
 45 48  1  0  0  0  0
 46 50  1  0  0  0  0
 47 52  1  0  0  0  0
 48 67  1  0  0  0  0
 49 52  1  0  0  0  0
 49 67  1  0  0  0  0
 50 72  1  0  0  0  0
 51 66  1  0  0  0  0
 52 65  1  0  0  0  0
 54 62  1  0  0  0  0
 55 63  1  0  0  0  0
 56 63  1  0  0  0  0
 57 63  1  0  0  0  0
 58 74  1  0  0  0  0
 59 60  1  0  0  0  0
 60 83  1  0  0  0  0
 61 63  1  0  0  0  0
 61 73  1  0  0  0  0
 62 74  1  0  0  0  0
 64 65  1  0  0  0  0
M  CHG  1  74   1
M  ISO  4  40 100  60 101  71 100  83 101
M  END
> <Batch ID>
0124

> <Smiles>
CNC(C)C(=O)NC(C(=O)N1Cc2cc([101O:1][101CH2:1]CC(=O)Nc3cc(F)c([100NH:0][100C:0](=O)N4CCCC(n5nc(-c6ccc(Oc7ccc(F)cc7F)cc6)c(C(N)=O)c5N)C4)cc3C(C)=O)ccc2CC1C(=O)NC1CCCc2ccccc21)C(C)(C)C

> <Shape>
0.340

> <Color>
0.101

> <Negative vol penalty>
0.000

$$$$

  -OEChem-04052302063D

 84 92  0     1  0  0  0  0  0999 V2000
  -26.6854  -33.9420   26.2396 C   0  0  0  0  0  0  0  0  0  0  0  0
  -27.1067  -32.7734   25.6132 C   0  0  0  0  0  0  0  0  0  0  0  0
  -25.3208  -14.8800   21.2354 C   0  0  0  0  0  0  0  0  0  0  0  0
  -27.3265  -14.4350   19.9641 C   0  0  0  0  0  0  0  0  0  0  0  0
  -25.3290  -34.1483   26.4878 C   0  0  0  0  0  0  0  0  0  0  0  0
  -26.1720  -31.8100   25.2357 C   0  0  0  0  0  0  0  0  0  0  0  0
  -26.9973  -30.0261   20.5686 C   0  0  0  0  0  0  0  0  0  0  0  0
  -25.0795  -13.5098   21.3344 C   0  0  0  0  0  0  0  0  0  0  0  0
  -27.0852  -13.0647   20.0632 C   0  0  0  0  0  0  0  0  0  0  0  0
  -28.0162  -29.0866   20.4170 C   0  0  0  0  0  0  0  0  0  0  0  0
  -23.7436  -10.1392   21.6137 C   0  0  0  0  0  0  0  0  0  0  0  0
  -22.4440   -9.6895   21.3807 C   0  0  0  0  0  0  0  0  0  0  0  0
  -29.0659  -21.5579   16.1189 C   0  0  0  0  0  0  0  0  0  0  0  0
  -31.4539  -21.2390   16.2991 C   0  0  0  0  0  0  0  0  0  0  0  0
  -30.1103  -19.6415   15.0826 C   0  0  0  0  0  0  0  0  0  0  0  0
  -26.3753  -27.3184   20.4029 C   0  0  0  0  0  0  0  0  0  0  0  0
  -22.5296  -10.6009   19.1448 C   0  0  0  0  0  0  0  0  0  0  0  0
  -26.4443  -15.3427   20.5502 C   0  0  0  0  0  0  0  0  0  0  0  0
  -30.3098  -21.9840   16.5845 C   0  0  0  0  0  0  0  0  0  0  0  0
  -28.9662  -20.3865   15.3680 C   0  0  0  0  0  0  0  0  0  0  0  0
  -27.4356  -17.5575   21.3371 C   0  0  0  0  0  0  0  0  0  0  0  0
  -24.3763  -33.1913   26.1045 C   0  0  0  0  0  0  0  0  0  0  0  0
  -25.6584  -29.6173   20.6496 C   0  0  0  0  0  0  0  0  0  0  0  0
  -24.8018  -32.0031   25.4803 C   0  0  0  0  0  0  0  0  0  0  0  0
  -25.3411  -28.2549   20.5530 C   0  0  0  0  0  0  0  0  0  0  0  0
  -25.9617  -12.6021   20.7484 C   0  0  0  0  0  0  0  0  0  0  0  0
  -27.7055  -27.7323   20.3371 C   0  0  0  0  0  0  0  0  0  0  0  0
  -24.4362  -10.8198   20.6123 C   0  0  0  0  0  0  0  0  0  0  0  0
  -21.8370   -9.9203   20.1462 C   0  0  0  0  0  0  0  0  0  0  0  0
  -31.3542  -20.0677   15.5482 C   0  0  0  0  0  0  0  0  0  0  0  0
  -23.8292  -11.0506   19.3779 C   0  0  0  0  0  0  0  0  0  0  0  0
  -26.6937  -16.7580   20.4470 C   0  0  0  0  0  0  0  0  0  0  0  0
  -27.3746  -18.8192   20.7977 C   0  0  0  0  0  0  0  0  0  0  0  0
  -30.4148  -23.2218   17.3772 C   0  0  0  0  0  0  0  0  0  0  0  0
  -29.3938  -23.7992   18.0257 C   0  0  0  0  0  0  0  0  0  0  0  0
  -27.6693  -19.9412   14.8831 C   0  0  0  0  0  0  0  0  0  0  0  0
  -28.1187  -17.1924   22.5436 C   0  0  0  0  0  0  0  0  0  0  0  0
  -29.6035  -25.0604   18.7945 C   0  0  0  0  0  0  0  0  0  0  0  0
  -26.4347  -20.7076   15.1686 C   0  0  0  0  0  0  0  0  0  0  0  0
  -23.3774  -29.8301   22.8531 C   0  0  0  0  0  0  0  0  0  0  0  0
  -21.5300  -28.5722   20.5021 C   0  0  0  0  0  0  0  0  0  0  0  0
  -21.3475  -26.7439   17.6262 C   0  0  0  0  0  0  0  0  0  0  0  0
  -22.9258  -33.4375   26.4365 C   0  0  0  0  0  0  0  0  0  0  0  0
  -24.5689  -30.6452   20.7863 C   0  0  0  0  0  0  0  0  0  0  0  0
  -23.9179  -27.7658   20.6142 C   0  0  0  0  0  0  0  0  0  0  0  0
  -21.9634  -32.5356   25.6679 C   0  0  0  0  0  0  0  0  0  0  0  0
  -24.5976  -21.6236   18.1084 C   0  0  0  0  0  0  0  0  0  0  0  0
  -22.4440  -31.0883   25.7040 C   0  0  0  0  0  0  0  0  0  0  0  0
  -24.9655  -20.5293   19.1099 C   0  0  0  0  0  0  0  0  0  0  0  0
  -24.5295  -21.0783   16.6856 C   0  0  0  0  0  0  0  0  0  0  0  0
  -26.1531  -19.2895   17.2449 C   0  0  0  0  0  0  0  0  0  0  0  0
  -23.8157  -30.9456   25.0336 C   0  0  1  0  0  0  0  0  0  0  0  0
  -23.2811  -30.0765   21.3740 C   0  0  1  0  0  0  0  0  0  0  0  0
  -26.2586  -19.8083   18.6896 C   0  0  2  0  0  0  0  0  0  0  0  0
  -19.6963  -25.8529   15.9598 C   0  0  0  0  0  0  0  0  0  0  0  0
  -20.7053  -26.4027   22.4829 C   0  0  0  0  0  0  0  0  0  0  0  0
  -19.8552  -25.0583   20.5495 C   0  0  0  0  0  0  0  0  0  0  0  0
  -18.8438  -27.2802   21.0620 C   0  0  0  0  0  0  0  0  0  0  0  0
  -22.5814  -28.2721   15.4124 C   0  0  0  0  0  0  0  0  0  0  0  0
  -28.3750  -25.6158   19.4837 C   0  0  0  0  0  0  0  0  0  1  0  0
  -21.1636  -27.1753   20.0623 C   0  0  1  0  0  0  0  0  0  0  0  0
  -20.6296  -27.0003   16.3135 C   0  0  2  0  0  0  0  0  0  0  0  0
  -20.1691  -26.4879   21.0399 C   0  0  0  0  0  0  0  0  0  0  0  0
  -26.1978  -17.4534   19.4202 N   0  0  0  0  0  0  0  0  0  0  0  0
  -27.5030  -18.8574   14.1742 N   0  0  0  0  0  0  0  0  0  0  0  0
  -26.6287  -18.7032   19.6617 N   0  0  0  0  0  0  0  0  0  0  0  0
  -25.7576  -20.3694   16.3319 N   0  0  0  0  0  0  0  0  0  0  0  0
  -22.8886  -28.8090   20.7547 N   0  0  0  0  0  0  0  0  0  0  0  0
  -27.8867  -20.0054   21.1890 N   0  0  0  0  0  0  0  0  0  0  0  0
  -28.0806  -15.8528   22.9538 N   0  0  0  0  0  0  0  0  0  0  0  0
  -23.6779  -30.9578   23.5930 N   0  0  0  0  0  0  0  0  0  0  0  0
  -20.6709  -27.2941   18.6943 N   0  0  0  0  0  0  0  0  0  0  0  0
  -21.6151  -27.1626   15.2073 N   0  3  0  0  0  0  0  0  0  0  0  0
  -28.7307  -18.0323   23.2461 O   0  0  0  0  0  0  0  0  0  0  0  0
  -30.7003  -25.6086   18.8620 O   0  0  0  0  0  0  0  0  0  0  0  0
  -26.1417  -21.5622   14.3426 O   0  0  0  0  0  0  0  0  0  0  0  0
  -23.1913  -28.7007   23.2909 O   0  0  0  0  0  0  0  0  0  0  0  0
  -20.6442  -29.4239   20.6105 O   0  0  0  0  0  0  0  0  0  0  0  0
  -22.4010  -26.1150   17.6976 O   0  0  0  0  0  0  0  0  0  0  0  0
  -25.7267  -11.2650   20.8450 O   0  0  0  0  0  0  0  0  0  0  0  0
  -28.6981  -26.8131   20.1897 O   0  0  0  0  0  0  0  0  0  1  0  0
  -20.5895   -9.4870   19.9220 F   0  0  0  0  0  0  0  0  0  0  0  0
  -32.4527  -19.3519   15.2730 F   0  0  0  0  0  0  0  0  0  0  0  0
  -24.4900  -11.7029   18.4116 F   0  0  0  0  0  0  0  0  0  0  0  0
  1  2  1  0  0  0  0
  1  5  2  0  0  0  0
  2  6  2  0  0  0  0
  3  8  2  0  0  0  0
  3 18  1  0  0  0  0
  4  9  1  0  0  0  0
  4 18  2  0  0  0  0
  5 22  1  0  0  0  0
  6 24  1  0  0  0  0
  7 10  2  0  0  0  0
  7 23  1  0  0  0  0
  8 26  1  0  0  0  0
  9 26  2  0  0  0  0
 10 27  1  0  0  0  0
 11 12  2  0  0  0  0
 11 28  1  0  0  0  0
 12 29  1  0  0  0  0
 13 19  2  0  0  0  0
 13 20  1  0  0  0  0
 14 19  1  0  0  0  0
 14 30  2  0  0  0  0
 15 20  2  0  0  0  0
 15 30  1  0  0  0  0
 16 25  1  0  0  0  0
 16 27  2  0  0  0  0
 17 29  2  0  0  0  0
 17 31  1  0  0  0  0
 18 32  1  0  0  0  0
 19 34  1  0  0  0  0
 20 36  1  0  0  0  0
 21 32  1  0  0  0  0
 21 33  2  0  0  0  0
 21 37  1  0  0  0  0
 22 24  2  0  0  0  0
 22 43  1  0  0  0  0
 23 25  2  0  0  0  0
 23 44  1  0  0  0  0
 24 52  1  0  0  0  0
 25 45  1  0  0  0  0
 26 80  1  0  0  0  0
 27 81  1  0  0  0  0
 28 31  2  0  0  0  0
 28 80  1  0  0  0  0
 29 82  1  0  0  0  0
 30 83  1  0  0  0  0
 31 84  1  0  0  0  0
 32 64  2  0  0  0  0
 33 66  1  0  0  0  0
 33 69  1  0  0  0  0
 34 35  2  0  0  0  0
 35 38  1  0  0  0  0
 36 39  1  0  0  0  0
 36 65  2  0  0  0  0
 37 70  1  0  0  0  0
 37 74  2  0  0  0  0
 38 60  1  0  0  0  0
 38 75  2  0  0  0  0
 39 67  1  0  0  0  0
 39 76  2  0  0  0  0
 40 53  1  0  0  0  0
 40 71  1  0  0  0  0
 40 77  2  0  0  0  0
 41 61  1  0  0  0  0
 41 68  1  0  0  0  0
 41 78  2  0  0  0  0
 42 62  1  0  0  0  0
 42 72  1  0  0  0  0
 42 79  2  0  0  0  0
 43 46  1  0  0  0  0
 44 53  1  0  0  0  0
 45 68  1  0  0  0  0
 46 48  1  0  0  0  0
 47 49  1  0  0  0  0
 47 50  1  0  0  0  0
 48 52  1  0  0  0  0
 49 54  1  0  0  0  0
 50 67  1  0  0  0  0
 51 54  1  0  0  0  0
 51 67  1  0  0  0  0
 52 71  1  0  0  0  0
 53 68  1  0  0  0  0
 54 66  1  0  0  0  0
 55 62  1  0  0  0  0
 56 63  1  0  0  0  0
 57 63  1  0  0  0  0
 58 63  1  0  0  0  0
 59 73  1  0  0  0  0
 60 81  1  0  0  0  0
 61 63  1  0  0  0  0
 61 72  1  0  0  0  0
 62 73  1  0  0  0  0
 64 66  1  0  0  0  0
M  CHG  1  73   1
M  ISO  4  36 100  39 100  60 101  81 101
M  END
> <Batch ID>
0124

> <Smiles>
CNC(C)C(=O)NC(C(=O)N1Cc2cc([101O:1][101CH2:1]C(=O)C=Cc3cc(F)cc([100C:0](=N)[100C:0](=O)N4CCCC(n5nc(-c6ccc(Oc7ccc(F)cc7F)cc6)c(C(N)=O)c5N)C4)c3)ccc2CC1C(=O)NC1CCCc2ccccc21)C(C)(C)C

> <Shape>
0.249

> <Color>
0.083

> <Negative vol penalty>
0.000

$$$$

  -OEChem-04052302063D

 81 89  0     1  0  0  0  0  0999 V2000
  -27.1364  -38.2048   21.0935 C   0  0  0  0  0  0  0  0  0  0  0  0
  -27.7282  -36.9947   20.7459 C   0  0  0  0  0  0  0  0  0  0  0  0
  -26.1050  -11.7504   20.0583 C   0  0  0  0  0  0  0  0  0  0  0  0
  -24.0591  -12.0220   21.3143 C   0  0  0  0  0  0  0  0  0  0  0  0
  -26.1727  -38.2443   22.1003 C   0  0  0  0  0  0  0  0  0  0  0  0
  -27.3575  -35.8235   21.4057 C   0  0  0  0  0  0  0  0  0  0  0  0
  -26.9885  -30.2029   19.0020 C   0  0  0  0  0  0  0  0  0  0  0  0
  -26.2884  -10.4911   20.6293 C   0  0  0  0  0  0  0  0  0  0  0  0
  -24.2425  -10.7626   21.8853 C   0  0  0  0  0  0  0  0  0  0  0  0
  -27.8627  -29.1169   19.0175 C   0  0  0  0  0  0  0  0  0  0  0  0
  -23.7918   -7.5348   20.9918 C   0  0  0  0  0  0  0  0  0  0  0  0
  -22.6865   -6.6862   21.0547 C   0  0  0  0  0  0  0  0  0  0  0  0
  -28.9976  -23.6818   20.6126 C   0  0  0  0  0  0  0  0  0  0  0  0
  -26.6714  -28.1925   20.9004 C   0  0  0  0  0  0  0  0  0  0  0  0
  -31.7051  -24.3035   20.8688 C   0  0  0  0  0  0  0  0  0  0  0  0
  -22.8756   -6.6185   23.4624 C   0  0  0  0  0  0  0  0  0  0  0  0
  -24.9904  -12.5159   20.4008 C   0  0  0  0  0  0  0  0  0  0  0  0
  -29.9582  -22.6778   20.4913 C   0  0  0  0  0  0  0  0  0  0  0  0
  -24.1105  -14.1194   18.6225 C   0  0  0  0  0  0  0  0  0  0  0  0
  -25.7829  -37.0715   22.7661 C   0  0  0  0  0  0  0  0  0  0  0  0
  -25.9542  -30.2974   19.9442 C   0  0  0  0  0  0  0  0  0  0  0  0
  -26.3886  -35.8476   22.4233 C   0  0  0  0  0  0  0  0  0  0  0  0
  -25.7839  -29.2794   20.8932 C   0  0  0  0  0  0  0  0  0  0  0  0
  -29.3907  -24.9967   20.8620 C   0  0  0  0  0  0  0  0  0  0  0  0
  -30.7445  -25.3075   20.9901 C   0  0  0  0  0  0  0  0  0  0  0  0
  -31.3119  -22.9886   20.6194 C   0  0  0  0  0  0  0  0  0  0  0  0
  -25.3572   -9.9972   21.5428 C   0  0  0  0  0  0  0  0  0  0  0  0
  -27.7060  -28.1129   19.9686 C   0  0  0  0  0  0  0  0  0  0  0  0
  -24.4390   -7.9252   22.1641 C   0  0  0  0  0  0  0  0  0  0  0  0
  -22.2284   -6.2281   22.2900 C   0  0  0  0  0  0  0  0  0  0  0  0
  -23.9809   -7.4671   23.3994 C   0  0  0  0  0  0  0  0  0  0  0  0
  -24.8007  -13.8170   19.8117 C   0  0  0  0  0  0  0  0  0  0  0  0
  -24.2163  -15.4834   18.5015 C   0  0  0  0  0  0  0  0  0  0  0  0
  -29.5104  -21.3148   20.2295 C   0  0  0  0  0  0  0  0  0  0  0  0
  -28.6798  -20.6026   21.0166 C   0  0  0  0  0  0  0  0  0  0  0  0
  -23.4342  -13.2454   17.7091 C   0  0  0  0  0  0  0  0  0  0  0  0
  -28.3100  -19.2323   20.6087 C   0  0  0  0  0  0  0  0  0  0  0  0
  -25.1988  -32.3539   22.2472 C   0  0  0  0  0  0  0  0  0  0  0  0
  -22.5290  -30.5248   22.4689 C   0  0  0  0  0  0  0  0  0  0  0  0
  -21.0352  -27.5028   21.9376 C   0  0  0  0  0  0  0  0  0  0  0  0
  -24.7713  -37.1713   23.8802 C   0  0  0  0  0  0  0  0  0  0  0  0
  -25.0033  -31.4619   19.8973 C   0  0  0  0  0  0  0  0  0  0  0  0
  -24.6771  -29.3235   21.9137 C   0  0  0  0  0  0  0  0  0  0  0  0
  -24.1631  -35.8274   24.2730 C   0  0  0  0  0  0  0  0  0  0  0  0
  -24.6848  -19.4580   21.0974 C   0  0  0  0  0  0  0  0  0  0  0  0
  -25.2536  -34.7714   24.4231 C   0  0  0  0  0  0  0  0  0  0  0  0
  -24.2531  -18.0347   20.7542 C   0  0  0  0  0  0  0  0  0  0  0  0
  -26.0541  -19.4925   21.7745 C   0  0  0  0  0  0  0  0  0  0  0  0
  -26.6896  -17.3762   20.6530 C   0  0  0  0  0  0  0  0  0  0  0  0
  -25.9951  -34.5519   23.0989 C   0  0  1  0  0  0  0  0  0  0  0  0
  -24.3002  -31.7131   21.2277 C   0  0  1  0  0  0  0  0  0  0  0  0
  -25.3356  -17.3218   19.9283 C   0  0  1  0  0  0  0  0  0  0  0  0
  -31.1892  -26.7081   21.2567 C   0  0  0  0  0  0  0  0  0  0  0  0
  -18.8564  -26.2992   22.2564 C   0  0  0  0  0  0  0  0  0  0  0  0
  -23.1324  -30.2260   25.4450 C   0  0  0  0  0  0  0  0  0  0  0  0
  -21.5310  -28.3024   25.5053 C   0  0  0  0  0  0  0  0  0  0  0  0
  -20.7175  -30.5818   24.9007 C   0  0  0  0  0  0  0  0  0  0  0  0
  -20.7194  -27.0627   19.0280 C   0  0  0  0  0  0  0  0  0  0  0  0
  -28.3395  -26.0599   20.9882 C   0  0  0  0  0  0  0  0  0  1  0  0
  -22.1378  -29.2948   23.2519 C   0  0  1  0  0  0  0  0  0  0  0  0
  -19.7036  -27.1341   21.3088 C   0  0  2  0  0  0  0  0  0  0  0  0
  -21.9018  -29.6011   24.7578 C   0  0  0  0  0  0  0  0  0  0  0  0
  -25.3075  -14.9017   20.4037 N   0  0  0  0  0  0  0  0  0  0  0  0
  -24.9356  -15.8990   19.5832 N   0  0  0  0  0  0  0  0  0  0  0  0
  -27.0590  -18.7544   20.9947 N   0  0  0  0  0  0  0  0  0  0  0  0
  -23.7770  -30.4857   21.8310 N   0  0  0  0  0  0  0  0  0  0  0  0
  -32.3064  -21.9908   20.5000 N   0  0  0  0  0  0  0  0  0  0  0  0
  -23.7633  -16.3560   17.5763 N   0  0  0  0  0  0  0  0  0  0  0  0
  -23.4217  -11.8712   17.9844 N   0  0  0  0  0  0  0  0  0  0  0  0
  -25.2023  -33.7351   22.2052 N   0  0  0  0  0  0  0  0  0  0  0  0
  -20.9802  -28.7274   22.5689 N   0  0  0  0  0  0  0  0  0  0  0  0
  -19.9199  -26.3519   20.0589 N   0  3  0  0  0  0  0  0  0  0  0  0
  -22.8721  -13.6686   16.6706 O   0  0  0  0  0  0  0  0  0  0  0  0
  -29.1347  -18.5918   19.9542 O   0  0  0  0  0  0  0  0  0  0  0  0
  -25.8404  -31.6475   23.0161 O   0  0  0  0  0  0  0  0  0  0  0  0
  -21.7528  -31.4823   22.4191 O   0  0  0  0  0  0  0  0  0  0  0  0
  -22.0240  -26.7754   21.8781 O   0  0  0  0  0  0  0  0  0  0  0  0
  -25.5357   -8.7683   22.1000 O   0  0  0  0  0  0  0  0  0  0  0  0
  -28.5582  -27.0521   19.9862 O   0  0  0  0  0  0  0  0  0  1  0  0
  -21.1661   -5.4145   22.3504 F   0  0  0  0  0  0  0  0  0  0  0  0
  -24.5979   -7.8396   24.5292 F   0  0  0  0  0  0  0  0  0  0  0  0
  1  2  1  0  0  0  0
  1  5  2  0  0  0  0
  2  6  2  0  0  0  0
  3  8  2  0  0  0  0
  3 17  1  0  0  0  0
  4  9  1  0  0  0  0
  4 17  2  0  0  0  0
  5 20  1  0  0  0  0
  6 22  1  0  0  0  0
  7 10  2  0  0  0  0
  7 21  1  0  0  0  0
  8 27  1  0  0  0  0
  9 27  2  0  0  0  0
 10 28  1  0  0  0  0
 11 12  2  0  0  0  0
 11 29  1  0  0  0  0
 12 30  1  0  0  0  0
 13 18  2  0  0  0  0
 13 24  1  0  0  0  0
 14 23  1  0  0  0  0
 14 28  2  0  0  0  0
 15 25  1  0  0  0  0
 15 26  2  0  0  0  0
 16 30  2  0  0  0  0
 16 31  1  0  0  0  0
 17 32  1  0  0  0  0
 18 26  1  0  0  0  0
 18 34  1  0  0  0  0
 19 32  1  0  0  0  0
 19 33  2  0  0  0  0
 19 36  1  0  0  0  0
 20 22  2  0  0  0  0
 20 41  1  0  0  0  0
 21 23  2  0  0  0  0
 21 42  1  0  0  0  0
 22 50  1  0  0  0  0
 23 43  1  0  0  0  0
 24 25  2  0  0  0  0
 24 59  1  0  0  0  0
 25 53  1  0  0  0  0
 26 67  1  0  0  0  0
 27 78  1  0  0  0  0
 28 79  1  0  0  0  0
 29 31  2  0  0  0  0
 29 78  1  0  0  0  0
 30 80  1  0  0  0  0
 31 81  1  0  0  0  0
 32 63  2  0  0  0  0
 33 64  1  0  0  0  0
 33 68  1  0  0  0  0
 34 35  2  0  0  0  0
 35 37  1  0  0  0  0
 36 69  1  0  0  0  0
 36 73  2  0  0  0  0
 37 65  1  0  0  0  0
 37 74  2  0  0  0  0
 38 51  1  0  0  0  0
 38 70  1  0  0  0  0
 38 75  2  0  0  0  0
 39 60  1  0  0  0  0
 39 66  1  0  0  0  0
 39 76  2  0  0  0  0
 40 61  1  0  0  0  0
 40 71  1  0  0  0  0
 40 77  2  0  0  0  0
 41 44  1  0  0  0  0
 42 51  1  0  0  0  0
 43 66  1  0  0  0  0
 44 46  1  0  0  0  0
 45 47  1  0  0  0  0
 45 48  1  0  0  0  0
 46 50  1  0  0  0  0
 47 52  1  0  0  0  0
 48 65  1  0  0  0  0
 49 52  1  0  0  0  0
 49 65  1  0  0  0  0
 50 70  1  0  0  0  0
 51 66  1  0  0  0  0
 52 64  1  0  0  0  0
 54 61  1  0  0  0  0
 55 62  1  0  0  0  0
 56 62  1  0  0  0  0
 57 62  1  0  0  0  0
 58 72  1  0  0  0  0
 59 79  1  0  0  0  0
 60 62  1  0  0  0  0
 60 71  1  0  0  0  0
 61 72  1  0  0  0  0
 63 64  1  0  0  0  0
M  CHG  1  72   1
M  ISO  4  35 100  37 100  59 101  79 101
M  END
> <Batch ID>
0124

> <Smiles>
CNC(C)C(=O)NC(C(=O)N1Cc2cc([101O:1][101CH2:1]c3cc(C=[100CH:0][100C:0](=O)N4CCCC(n5nc(-c6ccc(Oc7ccc(F)cc7F)cc6)c(C(N)=O)c5N)C4)c(N)cc3C)ccc2CC1C(=O)NC1CCCc2ccccc21)C(C)(C)C

> <Shape>
0.297

> <Color>
0.073

> <Negative vol penalty>
0.000

$$$$

  -OEChem-04052302063D

 83 91  0     1  0  0  0  0  0999 V2000
  -30.1653  -30.0428   26.2067 C   0  0  0  0  0  0  0  0  0  0  0  0
  -29.5830  -29.0890   25.3782 C   0  0  0  0  0  0  0  0  0  0  0  0
  -23.2153  -10.6047   21.6837 C   0  0  0  0  0  0  0  0  0  0  0  0
  -22.7436  -12.9484   21.3351 C   0  0  0  0  0  0  0  0  0  0  0  0
  -29.3799  -31.0469   26.7714 C   0  0  0  0  0  0  0  0  0  0  0  0
  -28.2146  -29.1381   25.1146 C   0  0  0  0  0  0  0  0  0  0  0  0
  -27.1532  -28.4282   20.2142 C   0  0  0  0  0  0  0  0  0  0  0  0
  -22.2042  -10.5438   22.6425 C   0  0  0  0  0  0  0  0  0  0  0  0
  -21.7324  -12.8875   22.2939 C   0  0  0  0  0  0  0  0  0  0  0  0
  -27.1906  -27.1184   19.7378 C   0  0  0  0  0  0  0  0  0  0  0  0
  -18.8298  -10.3342   22.6943 C   0  0  0  0  0  0  0  0  0  0  0  0
  -17.9522   -9.2513   22.6431 C   0  0  0  0  0  0  0  0  0  0  0  0
  -28.6760  -18.3215   19.8824 C   0  0  0  0  0  0  0  0  0  0  0  0
  -30.0436  -20.0816   20.8143 C   0  0  0  0  0  0  0  0  0  0  0  0
  -24.7864  -26.9990   19.8951 C   0  0  0  0  0  0  0  0  0  0  0  0
  -30.8590  -17.8076   20.7811 C   0  0  0  0  0  0  0  0  0  0  0  0
  -18.6259   -8.5999   24.8700 C   0  0  0  0  0  0  0  0  0  0  0  0
  -23.4851  -11.8071   21.0299 C   0  0  0  0  0  0  0  0  0  0  0  0
  -28.8600  -19.6661   20.2042 C   0  0  0  0  0  0  0  0  0  0  0  0
  -24.4054  -11.6402   18.6566 C   0  0  0  0  0  0  0  0  0  0  0  0
  -28.0029  -31.1141   26.5069 C   0  0  0  0  0  0  0  0  0  0  0  0
  -25.9310  -29.0305   20.5454 C   0  0  0  0  0  0  0  0  0  0  0  0
  -27.4098  -30.1433   25.6773 C   0  0  0  0  0  0  0  0  0  0  0  0
  -24.7360  -28.3174   20.3730 C   0  0  0  0  0  0  0  0  0  0  0  0
  -29.6754  -17.3921   20.1709 C   0  0  0  0  0  0  0  0  0  0  0  0
  -21.4627  -11.6852   22.9476 C   0  0  0  0  0  0  0  0  0  0  0  0
  -26.0074  -26.4026   19.5810 C   0  0  0  0  0  0  0  0  0  0  0  0
  -19.6055  -10.5500   23.8334 C   0  0  0  0  0  0  0  0  0  0  0  0
  -17.8502   -8.3841   23.7309 C   0  0  0  0  0  0  0  0  0  0  0  0
  -31.0430  -19.1523   21.1029 C   0  0  0  0  0  0  0  0  0  0  0  0
  -19.5035   -9.6829   24.9212 C   0  0  0  0  0  0  0  0  0  0  0  0
  -24.5299  -11.8707   20.0398 C   0  0  0  0  0  0  0  0  0  0  0  0
  -25.6739  -11.8228   18.1625 C   0  0  0  0  0  0  0  0  0  0  0  0
  -27.8040  -20.6480   19.9004 C   0  0  0  0  0  0  0  0  0  0  0  0
  -27.9994  -21.9705   19.8038 C   0  0  0  0  0  0  0  0  0  0  0  0
  -23.2468  -11.2921   17.8871 C   0  0  0  0  0  0  0  0  0  0  0  0
  -26.8585  -22.8827   19.5009 C   0  0  0  0  0  0  0  0  0  0  0  0
  -24.6595  -30.2070   23.2105 C   0  0  0  0  0  0  0  0  0  0  0  0
  -22.2827  -31.1310   21.2057 C   0  0  0  0  0  0  0  0  0  0  0  0
  -20.6278  -30.6527   18.2596 C   0  0  0  0  0  0  0  0  0  0  0  0
  -30.3803  -14.9760   20.0633 C   0  0  0  0  0  0  0  0  0  0  0  0
  -27.1864  -32.1901   27.1779 C   0  0  0  0  0  0  0  0  0  0  0  0
  -25.9054  -30.4533   21.0327 C   0  0  0  0  0  0  0  0  0  0  0  0
  -23.3962  -28.9254   20.6950 C   0  0  0  0  0  0  0  0  0  0  0  0
  -25.8106  -32.3925   26.5483 C   0  0  0  0  0  0  0  0  0  0  0  0
  -30.2763  -11.4722   19.4389 C   0  0  0  0  0  0  0  0  0  0  0  0
  -25.1261  -31.0489   26.3179 C   0  0  0  0  0  0  0  0  0  0  0  0
  -28.7795  -11.1569   19.3902 C   0  0  0  0  0  0  0  0  0  0  0  0
  -30.5978  -12.5369   20.4862 C   0  0  0  0  0  0  0  0  0  0  0  0
  -28.3192  -13.4595   20.3245 C   0  0  0  0  0  0  0  0  0  0  0  0
  -25.9332  -30.1777   25.3478 C   0  0  1  0  0  0  0  0  0  0  0  0
  -24.6468  -30.7907   21.8260 C   0  0  1  0  0  0  0  0  0  0  0  0
  -27.9381  -12.4393   19.2393 C   0  0  2  0  0  0  0  0  0  0  0  0
  -18.7037  -31.5394   16.9146 C   0  0  0  0  0  0  0  0  0  0  0  0
  -20.3284  -29.7117   23.0701 C   0  0  0  0  0  0  0  0  0  0  0  0
  -18.6238  -29.8022   21.2386 C   0  0  0  0  0  0  0  0  0  0  0  0
  -19.5287  -31.9171   22.2035 C   0  0  0  0  0  0  0  0  0  0  0  0
  -22.3963  -31.4022   16.0081 C   0  0  0  0  0  0  0  0  0  0  0  0
  -27.2047  -24.3543   19.4172 C   0  0  0  0  0  0  0  0  0  1  0  0
  -21.0012  -30.5075   20.7079 C   0  0  1  0  0  0  0  0  0  0  0  0
  -20.1995  -31.6252   17.1755 C   0  0  2  0  0  0  0  0  0  0  0  0
  -19.8958  -30.4722   21.8007 C   0  0  0  0  0  0  0  0  0  0  0  0
  -25.7789  -12.1764   20.4012 N   0  0  0  0  0  0  0  0  0  0  0  0
  -26.4508  -12.1391   19.2380 N   0  0  0  0  0  0  0  0  0  0  0  0
  -23.4240  -30.3172   21.1743 N   0  0  0  0  0  0  0  0  0  0  0  0
  -29.7658  -13.7241   20.2781 N   0  0  0  0  0  0  0  0  0  0  0  0
  -26.1893  -11.7421   16.9175 N   0  0  0  0  0  0  0  0  0  0  0  0
  -22.0224  -11.1439   18.5529 N   0  0  0  0  0  0  0  0  0  0  0  0
  -29.4889  -16.0259   19.8450 N   0  0  0  0  0  0  0  0  0  0  0  0
  -25.7286  -30.6171   23.9841 N   0  0  0  0  0  0  0  0  0  0  0  0
  -20.6290  -31.2445   19.5051 N   0  0  0  0  0  0  0  0  0  0  0  0
  -20.9162  -31.3303   15.9026 N   0  3  0  0  0  0  0  0  0  0  0  0
  -23.2990  -11.1015   16.6484 O   0  0  0  0  0  0  0  0  0  0  0  0
  -25.7163  -22.4647   19.3310 O   0  0  0  0  0  0  0  0  0  0  0  0
  -23.7648  -29.4425   23.5522 O   0  0  0  0  0  0  0  0  0  0  0  0
  -22.2731  -32.2995   21.6009 O   0  0  0  0  0  0  0  0  0  0  0  0
  -20.9274  -29.4840   18.0256 O   0  0  0  0  0  0  0  0  0  0  0  0
  -31.6074  -15.1020   20.0454 O   0  0  0  0  0  0  0  0  0  0  0  0
  -20.4758  -11.6260   23.8831 O   0  0  0  0  0  0  0  0  0  0  0  0
  -26.0411  -25.1238   19.1168 O   0  0  0  0  0  0  0  0  0  1  0  0
  -17.0063   -7.3451   23.6821 F   0  0  0  0  0  0  0  0  0  0  0  0
  -32.1786  -19.5504   21.6912 F   0  0  0  0  0  0  0  0  0  0  0  0
  -20.2453   -9.8857   26.0187 F   0  0  0  0  0  0  0  0  0  0  0  0
  1  2  1  0  0  0  0
  1  5  2  0  0  0  0
  2  6  2  0  0  0  0
  3  8  2  0  0  0  0
  3 18  1  0  0  0  0
  4  9  1  0  0  0  0
  4 18  2  0  0  0  0
  5 21  1  0  0  0  0
  6 23  1  0  0  0  0
  7 10  2  0  0  0  0
  7 22  1  0  0  0  0
  8 26  1  0  0  0  0
  9 26  2  0  0  0  0
 10 27  1  0  0  0  0
 11 12  2  0  0  0  0
 11 28  1  0  0  0  0
 12 29  1  0  0  0  0
 13 19  2  0  0  0  0
 13 25  1  0  0  0  0
 14 19  1  0  0  0  0
 14 30  2  0  0  0  0
 15 24  1  0  0  0  0
 15 27  2  0  0  0  0
 16 25  2  0  0  0  0
 16 30  1  0  0  0  0
 17 29  2  0  0  0  0
 17 31  1  0  0  0  0
 18 32  1  0  0  0  0
 19 34  1  0  0  0  0
 20 32  1  0  0  0  0
 20 33  2  0  0  0  0
 20 36  1  0  0  0  0
 21 23  2  0  0  0  0
 21 42  1  0  0  0  0
 22 24  2  0  0  0  0
 22 43  1  0  0  0  0
 23 51  1  0  0  0  0
 24 44  1  0  0  0  0
 25 69  1  0  0  0  0
 26 79  1  0  0  0  0
 27 80  1  0  0  0  0
 28 31  2  0  0  0  0
 28 79  1  0  0  0  0
 29 81  1  0  0  0  0
 30 82  1  0  0  0  0
 31 83  1  0  0  0  0
 32 63  2  0  0  0  0
 33 64  1  0  0  0  0
 33 67  1  0  0  0  0
 34 35  2  0  0  0  0
 35 37  1  0  0  0  0
 36 68  1  0  0  0  0
 36 73  2  0  0  0  0
 37 59  1  0  0  0  0
 37 74  2  0  0  0  0
 38 52  1  0  0  0  0
 38 70  1  0  0  0  0
 38 75  2  0  0  0  0
 39 60  1  0  0  0  0
 39 65  1  0  0  0  0
 39 76  2  0  0  0  0
 40 61  1  0  0  0  0
 40 71  1  0  0  0  0
 40 77  2  0  0  0  0
 41 66  1  0  0  0  0
 41 69  1  0  0  0  0
 41 78  2  0  0  0  0
 42 45  1  0  0  0  0
 43 52  1  0  0  0  0
 44 65  1  0  0  0  0
 45 47  1  0  0  0  0
 46 48  1  0  0  0  0
 46 49  1  0  0  0  0
 47 51  1  0  0  0  0
 48 53  1  0  0  0  0
 49 66  1  0  0  0  0
 50 53  1  0  0  0  0
 50 66  1  0  0  0  0
 51 70  1  0  0  0  0
 52 65  1  0  0  0  0
 53 64  1  0  0  0  0
 54 61  1  0  0  0  0
 55 62  1  0  0  0  0
 56 62  1  0  0  0  0
 57 62  1  0  0  0  0
 58 72  1  0  0  0  0
 59 80  1  0  0  0  0
 60 62  1  0  0  0  0
 60 71  1  0  0  0  0
 61 72  1  0  0  0  0
 63 64  1  0  0  0  0
M  CHG  1  72   1
M  ISO  4  41 100  59 101  69 100  80 101
M  END
> <Batch ID>
0124

> <Smiles>
CNC(C)C(=O)NC(C(=O)N1Cc2cc([101O:1][101CH2:1]C(=O)C=Cc3cc(F)cc([100NH:0][100C:0](=O)N4CCCC(n5nc(-c6ccc(Oc7ccc(F)cc7F)cc6)c(C(N)=O)c5N)C4)c3)ccc2CC1C(=O)NC1CCCc2ccccc21)C(C)(C)C

> <Shape>
0.270

> <Color>
0.090

> <Negative vol penalty>
0.000

$$$$

  -OEChem-04052302063D

 83 91  0     1  0  0  0  0  0999 V2000
  -26.6544  -31.4117   28.7139 C   0  0  0  0  0  0  0  0  0  0  0  0
  -27.1582  -30.6901   27.6365 C   0  0  0  0  0  0  0  0  0  0  0  0
  -29.3777  -17.9194   15.4254 C   0  0  0  0  0  0  0  0  0  0  0  0
  -24.0702   -9.6156   22.3900 C   0  0  0  0  0  0  0  0  0  0  0  0
  -22.9308  -10.1923   20.3392 C   0  0  0  0  0  0  0  0  0  0  0  0
  -29.6778  -19.2733   15.5750 C   0  0  0  0  0  0  0  0  0  0  0  0
  -25.2764  -31.5490   28.8762 C   0  0  0  0  0  0  0  0  0  0  0  0
  -26.2843  -30.1045   26.7212 C   0  0  0  0  0  0  0  0  0  0  0  0
  -27.1678  -29.4335   20.6983 C   0  0  0  0  0  0  0  0  0  0  0  0
  -28.5876  -17.2711   16.3747 C   0  0  0  0  0  0  0  0  0  0  0  0
  -23.0752   -8.6821   22.6803 C   0  0  0  0  0  0  0  0  0  0  0  0
  -21.9358   -9.2588   20.6294 C   0  0  0  0  0  0  0  0  0  0  0  0
  -27.6008  -28.3549   19.9282 C   0  0  0  0  0  0  0  0  0  0  0  0
  -22.2495   -5.5443   21.7288 C   0  0  0  0  0  0  0  0  0  0  0  0
  -22.6518   -4.2868   22.1787 C   0  0  0  0  0  0  0  0  0  0  0  0
  -28.3978  -19.3307   17.6233 C   0  0  0  0  0  0  0  0  0  0  0  0
  -25.3062  -27.7663   19.4731 C   0  0  0  0  0  0  0  0  0  0  0  0
  -21.4277   -4.6301   24.2331 C   0  0  0  0  0  0  0  0  0  0  0  0
  -23.9979  -10.3708   21.2195 C   0  0  0  0  0  0  0  0  0  0  0  0
  -29.1879  -19.9790   16.6739 C   0  0  0  0  0  0  0  0  0  0  0  0
  -26.2133  -11.1156   20.1971 C   0  0  0  0  0  0  0  0  0  0  0  0
  -24.3854  -30.9729   27.9570 C   0  0  0  0  0  0  0  0  0  0  0  0
  -25.7982  -29.6805   20.8708 C   0  0  0  0  0  0  0  0  0  0  0  0
  -24.8931  -30.2331   26.8720 C   0  0  0  0  0  0  0  0  0  0  0  0
  -24.8583  -28.8501   20.2437 C   0  0  0  0  0  0  0  0  0  0  0  0
  -28.0977  -17.9767   17.4737 C   0  0  0  0  0  0  0  0  0  0  0  0
  -22.0081   -8.5037   21.8000 C   0  0  0  0  0  0  0  0  0  0  0  0
  -26.6700  -27.5195   19.3178 C   0  0  0  0  0  0  0  0  0  0  0  0
  -21.4364   -6.3448   22.5312 C   0  0  0  0  0  0  0  0  0  0  0  0
  -22.2409   -3.8296   23.4308 C   0  0  0  0  0  0  0  0  0  0  0  0
  -21.0254   -5.8877   23.7833 C   0  0  0  0  0  0  0  0  0  0  0  0
  -25.0251  -11.3356   20.9193 C   0  0  0  0  0  0  0  0  0  0  0  0
  -26.8420  -12.3366   20.1902 C   0  0  0  0  0  0  0  0  0  0  0  0
  -29.5053  -21.4097   16.8305 C   0  0  0  0  0  0  0  0  0  0  0  0
  -28.8069  -22.2644   17.5976 C   0  0  0  0  0  0  0  0  0  0  0  0
  -28.2675  -24.4059   18.5901 C   0  0  0  0  0  0  0  0  0  0  0  0
  -26.7046   -9.9147   19.5870 C   0  0  0  0  0  0  0  0  0  0  0  0
  -29.0768  -23.6950   17.7768 C   0  0  0  0  0  0  0  0  0  0  0  0
  -23.8297  -29.7588   23.3653 C   0  0  0  0  0  0  0  0  0  0  0  0
  -21.6965  -30.7999   21.1545 C   0  0  0  0  0  0  0  0  0  0  0  0
  -20.7544  -30.9370   17.8772 C   0  0  0  0  0  0  0  0  0  0  0  0
  -26.7282  -17.8706   19.5855 C   0  0  0  0  0  0  0  0  0  0  0  0
  -22.9031  -31.1085   28.2003 C   0  0  0  0  0  0  0  0  0  0  0  0
  -25.3475  -30.8638   21.6826 C   0  0  0  0  0  0  0  0  0  0  0  0
  -23.3768  -29.0842   20.3810 C   0  0  0  0  0  0  0  0  0  0  0  0
  -22.0521  -30.7735   26.9781 C   0  0  0  0  0  0  0  0  0  0  0  0
  -25.8447  -16.5699   22.7799 C   0  0  0  0  0  0  0  0  0  0  0  0
  -22.5302  -29.4761   26.3341 C   0  0  0  0  0  0  0  0  0  0  0  0
  -25.6505  -15.0741   22.5213 C   0  0  0  0  0  0  0  0  0  0  0  0
  -25.3554  -17.4167   21.6064 C   0  0  0  0  0  0  0  0  0  0  0  0
  -25.7168  -15.5498   20.0401 C   0  0  0  0  0  0  0  0  0  0  0  0
  -23.9777  -29.6040   25.8442 C   0  0  1  0  0  0  0  0  0  0  0  0
  -23.9244  -30.7178   22.2124 C   0  0  1  0  0  0  0  0  0  0  0  0
  -26.2547  -14.6532   21.1672 C   0  0  2  0  0  0  0  0  0  0  0  0
  -30.2521  -24.2799   17.0379 C   0  0  0  0  0  0  0  0  0  0  0  0
  -18.9450  -31.8266   16.3832 C   0  0  0  0  0  0  0  0  0  0  0  0
  -19.8382  -28.5625   22.0770 C   0  0  0  0  0  0  0  0  0  0  0  0
  -18.5148  -28.8906   19.9771 C   0  0  0  0  0  0  0  0  0  0  0  0
  -18.7022  -30.7460   21.6339 C   0  0  0  0  0  0  0  0  0  0  0  0
  -22.6641  -32.6291   16.3776 C   0  0  0  0  0  0  0  0  0  0  0  0
  -28.3312  -25.8625   18.9295 C   0  0  0  0  0  0  0  0  0  1  0  0
  -20.7103  -30.1353   20.2245 C   0  0  1  0  0  0  0  0  0  0  0  0
  -20.3061  -32.0963   17.0057 C   0  0  2  0  0  0  0  0  0  0  0  0
  -19.4692  -29.5778   20.9769 C   0  0  0  0  0  0  0  0  0  0  0  0
  -24.9040  -12.5972   21.3408 N   0  0  0  0  0  0  0  0  0  0  0  0
  -26.0243  -13.1809   20.8821 N   0  0  0  0  0  0  0  0  0  0  0  0
  -22.9859  -30.2504   21.1902 N   0  0  0  0  0  0  0  0  0  0  0  0
  -25.9730  -16.9633   20.3582 N   0  0  0  0  0  0  0  0  0  0  0  0
  -28.0092  -12.7598   19.6599 N   0  0  0  0  0  0  0  0  0  0  0  0
  -25.9327   -8.7493   19.6889 N   0  0  0  0  0  0  0  0  0  0  0  0
  -27.2943  -17.3179   18.4371 N   0  0  0  0  0  0  0  0  0  0  0  0
  -24.0272  -30.3440   24.6015 N   0  0  0  0  0  0  0  0  0  0  0  0
  -20.3929  -31.1193   19.1953 N   0  0  0  0  0  0  0  0  0  0  0  0
  -21.2870  -32.3288   15.9081 N   0  3  0  0  0  0  0  0  0  0  0  0
  -27.8036   -9.8724   18.9837 O   0  0  0  0  0  0  0  0  0  0  0  0
  -23.5935  -28.5759   23.1495 O   0  0  0  0  0  0  0  0  0  0  0  0
  -21.3380  -31.7751   21.8193 O   0  0  0  0  0  0  0  0  0  0  0  0
  -21.3611  -29.9651   17.4325 O   0  0  0  0  0  0  0  0  0  0  0  0
  -26.8855  -19.0441   19.9321 O   0  0  0  0  0  0  0  0  0  0  0  0
  -21.0371   -7.5927   22.0828 O   0  0  0  0  0  0  0  0  0  0  0  0
  -27.0900  -26.4657   18.5662 O   0  0  0  0  0  0  0  0  0  1  0  0
  -22.6260   -2.6214   23.8620 F   0  0  0  0  0  0  0  0  0  0  0  0
  -20.2432   -6.6517   24.5580 F   0  0  0  0  0  0  0  0  0  0  0  0
  1  2  1  0  0  0  0
  1  7  2  0  0  0  0
  2  8  2  0  0  0  0
  3  6  2  0  0  0  0
  3 10  1  0  0  0  0
  4 11  2  0  0  0  0
  4 19  1  0  0  0  0
  5 12  1  0  0  0  0
  5 19  2  0  0  0  0
  6 20  1  0  0  0  0
  7 22  1  0  0  0  0
  8 24  1  0  0  0  0
  9 13  2  0  0  0  0
  9 23  1  0  0  0  0
 10 26  2  0  0  0  0
 11 27  1  0  0  0  0
 12 27  2  0  0  0  0
 13 28  1  0  0  0  0
 14 15  2  0  0  0  0
 14 29  1  0  0  0  0
 15 30  1  0  0  0  0
 16 20  2  0  0  0  0
 16 26  1  0  0  0  0
 17 25  1  0  0  0  0
 17 28  2  0  0  0  0
 18 30  2  0  0  0  0
 18 31  1  0  0  0  0
 19 32  1  0  0  0  0
 20 34  1  0  0  0  0
 21 32  1  0  0  0  0
 21 33  2  0  0  0  0
 21 37  1  0  0  0  0
 22 24  2  0  0  0  0
 22 43  1  0  0  0  0
 23 25  2  0  0  0  0
 23 44  1  0  0  0  0
 24 52  1  0  0  0  0
 25 45  1  0  0  0  0
 26 71  1  0  0  0  0
 27 80  1  0  0  0  0
 28 81  1  0  0  0  0
 29 31  2  0  0  0  0
 29 80  1  0  0  0  0
 30 82  1  0  0  0  0
 31 83  1  0  0  0  0
 32 65  2  0  0  0  0
 33 66  1  0  0  0  0
 33 69  1  0  0  0  0
 34 35  2  0  0  0  0
 35 38  1  0  0  0  0
 36 38  2  0  0  0  0
 36 61  1  0  0  0  0
 37 70  1  0  0  0  0
 37 75  2  0  0  0  0
 38 55  1  0  0  0  0
 39 53  1  0  0  0  0
 39 72  1  0  0  0  0
 39 76  2  0  0  0  0
 40 62  1  0  0  0  0
 40 67  1  0  0  0  0
 40 77  2  0  0  0  0
 41 63  1  0  0  0  0
 41 73  1  0  0  0  0
 41 78  2  0  0  0  0
 42 68  1  0  0  0  0
 42 71  1  0  0  0  0
 42 79  2  0  0  0  0
 43 46  1  0  0  0  0
 44 53  1  0  0  0  0
 45 67  1  0  0  0  0
 46 48  1  0  0  0  0
 47 49  1  0  0  0  0
 47 50  1  0  0  0  0
 48 52  1  0  0  0  0
 49 54  1  0  0  0  0
 50 68  1  0  0  0  0
 51 54  1  0  0  0  0
 51 68  1  0  0  0  0
 52 72  1  0  0  0  0
 53 67  1  0  0  0  0
 54 66  1  0  0  0  0
 56 63  1  0  0  0  0
 57 64  1  0  0  0  0
 58 64  1  0  0  0  0
 59 64  1  0  0  0  0
 60 74  1  0  0  0  0
 61 81  1  0  0  0  0
 62 64  1  0  0  0  0
 62 73  1  0  0  0  0
 63 74  1  0  0  0  0
 65 66  1  0  0  0  0
M  CHG  1  74   1
M  ISO  4  42 100  61 101  71 100  81 101
M  END
> <Batch ID>
0124

> <Smiles>
CNC(C)C(=O)NC(C(=O)N1Cc2cc([101O:1][101CH2:1]C=C(C)C=Cc3cccc([100NH:0][100C:0](=O)N4CCCC(n5nc(-c6ccc(Oc7ccc(F)cc7F)cc6)c(C(N)=O)c5N)C4)c3)ccc2CC1C(=O)NC1CCCc2ccccc21)C(C)(C)C

> <Shape>
0.258

> <Color>
0.100

> <Negative vol penalty>
0.000

$$$$

  -OEChem-04052302063D

 85 93  0     1  0  0  0  0  0999 V2000
  -17.9269  -24.9793   24.8210 C   0  0  0  0  0  0  0  0  0  0  0  0
  -19.2916  -24.7255   24.7276 C   0  0  0  0  0  0  0  0  0  0  0  0
  -23.1156   -9.8209   19.8741 C   0  0  0  0  0  0  0  0  0  0  0  0
  -23.8261   -9.8103   22.1832 C   0  0  0  0  0  0  0  0  0  0  0  0
  -17.3931  -26.1340   24.2503 C   0  0  0  0  0  0  0  0  0  0  0  0
  -20.1231  -25.6259   24.0626 C   0  0  0  0  0  0  0  0  0  0  0  0
  -24.3972  -26.5689   26.6098 C   0  0  0  0  0  0  0  0  0  0  0  0
  -22.3893   -8.6502   20.0922 C   0  0  0  0  0  0  0  0  0  0  0  0
  -23.0998   -8.6396   22.4013 C   0  0  0  0  0  0  0  0  0  0  0  0
  -25.4022  -25.6047   26.5461 C   0  0  0  0  0  0  0  0  0  0  0  0
  -23.4674   -5.3320   21.8052 C   0  0  0  0  0  0  0  0  0  0  0  0
  -24.0874   -4.3088   22.5222 C   0  0  0  0  0  0  0  0  0  0  0  0
  -29.6993  -17.4949   23.3211 C   0  0  0  0  0  0  0  0  0  0  0  0
  -26.5456  -26.9157   24.8748 C   0  0  0  0  0  0  0  0  0  0  0  0
  -31.9116  -16.6975   22.7671 C   0  0  0  0  0  0  0  0  0  0  0  0
  -22.3469   -4.4256   24.1938 C   0  0  0  0  0  0  0  0  0  0  0  0
  -23.8341  -10.4009   20.9196 C   0  0  0  0  0  0  0  0  0  0  0  0
  -30.2501  -18.3779   24.2498 C   0  0  0  0  0  0  0  0  0  0  0  0
  -24.1290  -12.9336   20.8414 C   0  0  0  0  0  0  0  0  0  0  0  0
  -18.2200  -27.0538   23.5863 C   0  0  0  0  0  0  0  0  0  0  0  0
  -24.4533  -27.7103   25.7971 C   0  0  0  0  0  0  0  0  0  0  0  0
  -19.5997  -26.7933   23.4813 C   0  0  0  0  0  0  0  0  0  0  0  0
  -25.5413  -27.8941   24.9319 C   0  0  0  0  0  0  0  0  0  0  0  0
  -32.4624  -17.5806   23.6957 C   0  0  0  0  0  0  0  0  0  0  0  0
  -31.6316  -18.4208   24.4371 C   0  0  0  0  0  0  0  0  0  0  0  0
  -30.5300  -16.6546   22.5798 C   0  0  0  0  0  0  0  0  0  0  0  0
  -22.3813   -8.0596   21.3558 C   0  0  0  0  0  0  0  0  0  0  0  0
  -26.4752  -25.7766   25.6765 C   0  0  0  0  0  0  0  0  0  0  0  0
  -22.2872   -5.9021   22.2825 C   0  0  0  0  0  0  0  0  0  0  0  0
  -23.5271   -3.8555   23.7165 C   0  0  0  0  0  0  0  0  0  0  0  0
  -21.7269   -5.4489   23.4768 C   0  0  0  0  0  0  0  0  0  0  0  0
  -24.5851  -11.6099   20.6948 C   0  0  0  0  0  0  0  0  0  0  0  0
  -25.2137  -13.7090   20.5121 C   0  0  0  0  0  0  0  0  0  0  0  0
  -29.3444  -19.2501   25.0159 C   0  0  0  0  0  0  0  0  0  0  0  0
  -28.5270  -20.1736   24.4860 C   0  0  0  0  0  0  0  0  0  0  0  0
  -22.8400  -13.4189   21.2398 C   0  0  0  0  0  0  0  0  0  0  0  0
  -22.6226  -28.9181   23.4964 C   0  0  0  0  0  0  0  0  0  0  0  0
  -27.9450  -22.5182   25.1016 C   0  0  0  0  0  0  0  0  0  0  0  0
  -24.6861  -31.4126   23.7004 C   0  0  0  0  0  0  0  0  0  0  0  0
  -27.7854  -32.5451   24.5713 C   0  0  0  0  0  0  0  0  0  0  0  0
  -30.6535  -14.8572   20.8190 C   0  0  0  0  0  0  0  0  0  0  0  0
  -17.5901  -28.2644   22.9443 C   0  0  0  0  0  0  0  0  0  0  0  0
  -23.3748  -28.7540   25.8971 C   0  0  0  0  0  0  0  0  0  0  0  0
  -25.6588  -29.1116   24.0532 C   0  0  0  0  0  0  0  0  0  0  0  0
  -18.5958  -29.3541   22.5816 C   0  0  0  0  0  0  0  0  0  0  0  0
  -29.6372  -12.4558   18.3945 C   0  0  0  0  0  0  0  0  0  0  0  0
  -19.8064  -28.7501   21.8769 C   0  0  0  0  0  0  0  0  0  0  0  0
  -28.1947  -12.1306   18.7889 C   0  0  0  0  0  0  0  0  0  0  0  0
  -30.5219  -12.6853   19.6187 C   0  0  0  0  0  0  0  0  0  0  0  0
  -28.5721  -13.3534   20.9682 C   0  0  0  0  0  0  0  0  0  0  0  0
  -20.5379  -27.7583   22.7895 C   0  0  1  0  0  0  0  0  0  0  0  0
  -23.2716  -29.6278   24.6508 C   0  0  1  0  0  0  0  0  0  0  0  0
  -27.6282  -13.1780   19.7674 C   0  0  2  0  0  0  0  0  0  0  0  0
  -33.9451  -17.6061   23.8762 C   0  0  0  0  0  0  0  0  0  0  0  0
  -32.2347  -19.3646   25.4310 C   0  0  0  0  0  0  0  0  0  0  0  0
  -29.1909  -34.6239   24.5856 C   0  0  0  0  0  0  0  0  0  0  0  0
  -25.1228  -31.1352   20.6934 C   0  0  0  0  0  0  0  0  0  0  0  0
  -27.1775  -32.5457   20.9321 C   0  0  0  0  0  0  0  0  0  0  0  0
  -24.9428  -33.4928   21.5083 C   0  0  0  0  0  0  0  0  0  0  0  0
  -28.0628  -32.4768   27.5170 C   0  0  0  0  0  0  0  0  0  0  0  0
  -27.6264  -21.0440   25.3079 C   0  0  0  0  0  0  0  0  0  0  0  0
  -27.0842  -23.4876   25.8890 C   0  0  0  0  0  0  0  0  0  1  0  0
  -25.9932  -31.7757   23.0382 C   0  0  1  0  0  0  0  0  0  0  0  0
  -28.2266  -33.7538   25.3767 C   0  0  2  0  0  0  0  0  0  0  0  0
  -25.8062  -32.2134   21.5580 C   0  0  0  0  0  0  0  0  0  0  0  0
  -25.8602  -11.5443   20.3026 N   0  0  0  0  0  0  0  0  0  0  0  0
  -26.2146  -12.8366   20.2000 N   0  0  0  0  0  0  0  0  0  0  0  0
  -24.5760  -30.1007   24.1825 N   0  0  0  0  0  0  0  0  0  0  0  0
  -29.9243  -13.6928   20.4977 N   0  0  0  0  0  0  0  0  0  0  0  0
  -25.3996  -15.0452   20.4618 N   0  0  0  0  0  0  0  0  0  0  0  0
  -21.8391  -12.4858   21.5427 N   0  0  0  0  0  0  0  0  0  0  0  0
  -29.9708  -15.7580   21.6358 N   0  0  0  0  0  0  0  0  0  0  0  0
  -21.3440  -28.4656   23.7612 N   0  0  0  0  0  0  0  0  0  0  0  0
  -26.6134  -32.7876   23.8866 N   0  0  0  0  0  0  0  0  0  0  0  0
  -28.9050  -33.3210   26.6310 N   0  3  0  0  0  0  0  0  0  0  0  0
  -22.5785  -14.6438   21.3088 O   0  0  0  0  0  0  0  0  0  0  0  0
  -23.2357  -28.7918   22.4430 O   0  0  0  0  0  0  0  0  0  0  0  0
  -28.8464  -22.9107   24.3619 O   0  0  0  0  0  0  0  0  0  0  0  0
  -23.7981  -32.2639   23.7931 O   0  0  0  0  0  0  0  0  0  0  0  0
  -28.4192  -31.4923   24.5486 O   0  0  0  0  0  0  0  0  0  0  0  0
  -31.7888  -15.0541   20.3782 O   0  0  0  0  0  0  0  0  0  0  0  0
  -21.6725   -6.9174   21.5690 O   0  0  0  0  0  0  0  0  0  0  0  0
  -27.4572  -24.8368   25.6119 O   0  0  0  0  0  0  0  0  0  1  0  0
  -24.1218   -2.8718   24.4042 F   0  0  0  0  0  0  0  0  0  0  0  0
  -20.5926   -5.9919   23.9397 F   0  0  0  0  0  0  0  0  0  0  0  0
  1  2  1  0  0  0  0
  1  5  2  0  0  0  0
  2  6  2  0  0  0  0
  3  8  2  0  0  0  0
  3 17  1  0  0  0  0
  4  9  1  0  0  0  0
  4 17  2  0  0  0  0
  5 20  1  0  0  0  0
  6 22  1  0  0  0  0
  7 10  2  0  0  0  0
  7 21  1  0  0  0  0
  8 27  1  0  0  0  0
  9 27  2  0  0  0  0
 10 28  1  0  0  0  0
 11 12  2  0  0  0  0
 11 29  1  0  0  0  0
 12 30  1  0  0  0  0
 13 18  1  0  0  0  0
 13 26  2  0  0  0  0
 14 23  1  0  0  0  0
 14 28  2  0  0  0  0
 15 24  2  0  0  0  0
 15 26  1  0  0  0  0
 16 30  2  0  0  0  0
 16 31  1  0  0  0  0
 17 32  1  0  0  0  0
 18 25  2  0  0  0  0
 18 34  1  0  0  0  0
 19 32  1  0  0  0  0
 19 33  2  0  0  0  0
 19 36  1  0  0  0  0
 20 22  2  0  0  0  0
 20 42  1  0  0  0  0
 21 23  2  0  0  0  0
 21 43  1  0  0  0  0
 22 51  1  0  0  0  0
 23 44  1  0  0  0  0
 24 25  1  0  0  0  0
 24 54  1  0  0  0  0
 25 55  1  0  0  0  0
 26 72  1  0  0  0  0
 27 82  1  0  0  0  0
 28 83  1  0  0  0  0
 29 31  2  0  0  0  0
 29 82  1  0  0  0  0
 30 84  1  0  0  0  0
 31 85  1  0  0  0  0
 32 66  2  0  0  0  0
 33 67  1  0  0  0  0
 33 70  1  0  0  0  0
 34 35  2  0  0  0  0
 35 61  1  0  0  0  0
 36 71  1  0  0  0  0
 36 76  2  0  0  0  0
 37 52  1  0  0  0  0
 37 73  1  0  0  0  0
 37 77  2  0  0  0  0
 38 61  1  0  0  0  0
 38 62  1  0  0  0  0
 38 78  2  0  0  0  0
 39 63  1  0  0  0  0
 39 68  1  0  0  0  0
 39 79  2  0  0  0  0
 40 64  1  0  0  0  0
 40 74  1  0  0  0  0
 40 80  2  0  0  0  0
 41 69  1  0  0  0  0
 41 72  1  0  0  0  0
 41 81  2  0  0  0  0
 42 45  1  0  0  0  0
 43 52  1  0  0  0  0
 44 68  1  0  0  0  0
 45 47  1  0  0  0  0
 46 48  1  0  0  0  0
 46 49  1  0  0  0  0
 47 51  1  0  0  0  0
 48 53  1  0  0  0  0
 49 69  1  0  0  0  0
 50 53  1  0  0  0  0
 50 69  1  0  0  0  0
 51 73  1  0  0  0  0
 52 68  1  0  0  0  0
 53 67  1  0  0  0  0
 56 64  1  0  0  0  0
 57 65  1  0  0  0  0
 58 65  1  0  0  0  0
 59 65  1  0  0  0  0
 60 75  1  0  0  0  0
 62 83  1  0  0  0  0
 63 65  1  0  0  0  0
 63 74  1  0  0  0  0
 64 75  1  0  0  0  0
 66 67  1  0  0  0  0
M  CHG  1  75   1
M  ISO  4  41 100  62 101  72 100  83 101
M  END
> <Batch ID>
0124

> <Smiles>
CNC(C)C(=O)NC(C(=O)N1Cc2cc([101O:1][101CH2:1]C(=O)CC=Cc3cc([100NH:0][100C:0](=O)N4CCCC(n5nc(-c6ccc(Oc7ccc(F)cc7F)cc6)c(C(N)=O)c5N)C4)cc(C)c3C)ccc2CC1C(=O)NC1CCCc2ccccc21)C(C)(C)C

> <Shape>
0.307

> <Color>
0.258

> <Negative vol penalty>
0.000

$$$$

  -OEChem-04052302063D

 81 89  0     1  0  0  0  0  0999 V2000
  -29.4390  -35.9313   22.9569 C   0  0  0  0  0  0  0  0  0  0  0  0
  -29.4474  -34.5486   22.8035 C   0  0  0  0  0  0  0  0  0  0  0  0
  -24.6227  -12.1693   21.6470 C   0  0  0  0  0  0  0  0  0  0  0  0
  -25.9425  -11.8788   19.6443 C   0  0  0  0  0  0  0  0  0  0  0  0
  -31.7935  -22.6058   18.3221 C   0  0  0  0  0  0  0  0  0  0  0  0
  -28.3055  -36.5689   23.4595 C   0  0  0  0  0  0  0  0  0  0  0  0
  -28.3225  -33.8026   23.1536 C   0  0  0  0  0  0  0  0  0  0  0  0
  -27.1516  -30.3075   19.6811 C   0  0  0  0  0  0  0  0  0  0  0  0
  -31.9678  -21.2439   18.0769 C   0  0  0  0  0  0  0  0  0  0  0  0
  -24.0771  -10.8976   21.4719 C   0  0  0  0  0  0  0  0  0  0  0  0
  -25.3970  -10.6070   19.4692 C   0  0  0  0  0  0  0  0  0  0  0  0
  -27.9137  -29.1401   19.6706 C   0  0  0  0  0  0  0  0  0  0  0  0
  -21.6870   -9.4536   19.5675 C   0  0  0  0  0  0  0  0  0  0  0  0
  -20.3094   -9.3118   19.7333 C   0  0  0  0  0  0  0  0  0  0  0  0
  -29.4517  -22.2242   18.7775 C   0  0  0  0  0  0  0  0  0  0  0  0
  -26.1653  -27.9951   20.8752 C   0  0  0  0  0  0  0  0  0  0  0  0
  -20.6871   -7.7286   21.5188 C   0  0  0  0  0  0  0  0  0  0  0  0
  -25.5554  -12.6599   20.7331 C   0  0  0  0  0  0  0  0  0  0  0  0
  -30.5354  -23.0960   18.6725 C   0  0  0  0  0  0  0  0  0  0  0  0
  -27.2825  -14.3086   21.6312 C   0  0  0  0  0  0  0  0  0  0  0  0
  -27.1627  -35.8313   23.8068 C   0  0  0  0  0  0  0  0  0  0  0  0
  -25.8932  -30.3305   20.2993 C   0  0  0  0  0  0  0  0  0  0  0  0
  -27.1731  -34.4308   23.6625 C   0  0  0  0  0  0  0  0  0  0  0  0
  -25.3881  -29.1634   20.8900 C   0  0  0  0  0  0  0  0  0  0  0  0
  -30.8841  -20.3720   18.1819 C   0  0  0  0  0  0  0  0  0  0  0  0
  -29.6260  -20.8621   18.5322 C   0  0  0  0  0  0  0  0  0  0  0  0
  -24.4643  -10.1164   20.3831 C   0  0  0  0  0  0  0  0  0  0  0  0
  -27.4218  -27.9844   20.2702 C   0  0  0  0  0  0  0  0  0  0  0  0
  -22.5648   -8.7329   20.3774 C   0  0  0  0  0  0  0  0  0  0  0  0
  -19.8094   -8.4494   20.7089 C   0  0  0  0  0  0  0  0  0  0  0  0
  -22.0648   -7.8704   21.3530 C   0  0  0  0  0  0  0  0  0  0  0  0
  -26.1189  -13.9738   20.9131 C   0  0  0  0  0  0  0  0  0  0  0  0
  -27.3861  -15.6720   21.5007 C   0  0  0  0  0  0  0  0  0  0  0  0
  -30.3532  -24.5340   18.9316 C   0  0  0  0  0  0  0  0  0  0  0  0
  -29.1792  -25.1837   18.8997 C   0  0  0  0  0  0  0  0  0  0  0  0
  -28.1888  -13.4629   22.3516 C   0  0  0  0  0  0  0  0  0  0  0  0
  -24.6199  -31.9256   22.7362 C   0  0  0  0  0  0  0  0  0  0  0  0
  -21.8963  -30.4510   21.7719 C   0  0  0  0  0  0  0  0  0  0  0  0
  -20.4427  -27.8312   20.1378 C   0  0  0  0  0  0  0  0  0  0  0  0
  -27.1734  -20.2996   18.4116 C   0  0  0  0  0  0  0  0  0  0  0  0
  -25.9781  -36.5599   24.3904 C   0  0  0  0  0  0  0  0  0  0  0  0
  -25.0720  -31.5905   20.2787 C   0  0  0  0  0  0  0  0  0  0  0  0
  -24.0343  -29.1301   21.5492 C   0  0  0  0  0  0  0  0  0  0  0  0
  -24.6933  -35.7355   24.3857 C   0  0  0  0  0  0  0  0  0  0  0  0
  -24.0920  -19.0687   19.7027 C   0  0  0  0  0  0  0  0  0  0  0  0
  -24.9613  -34.3263   24.9046 C   0  0  0  0  0  0  0  0  0  0  0  0
  -24.4404  -17.6610   20.1918 C   0  0  0  0  0  0  0  0  0  0  0  0
  -24.8465  -19.4276   18.4238 C   0  0  0  0  0  0  0  0  0  0  0  0
  -26.6514  -17.8465   18.9818 C   0  0  0  0  0  0  0  0  0  0  0  0
  -25.9635  -33.5895   24.0078 C   0  0  1  0  0  0  0  0  0  0  0  0
  -24.0245  -31.6393   21.3867 C   0  0  1  0  0  0  0  0  0  0  0  0
  -25.9650  -17.4644   20.3034 C   0  0  2  0  0  0  0  0  0  0  0  0
  -31.0998  -18.9180   17.9122 C   0  0  0  0  0  0  0  0  0  0  0  0
  -18.1970  -26.8782   19.5493 C   0  0  0  0  0  0  0  0  0  0  0  0
  -21.5750  -29.4464   24.6350 C   0  0  0  0  0  0  0  0  0  0  0  0
  -19.9119  -27.7772   23.7887 C   0  0  0  0  0  0  0  0  0  0  0  0
  -19.4549  -30.2185   23.5562 C   0  0  0  0  0  0  0  0  0  0  0  0
  -20.9731  -28.0690   17.2359 C   0  0  0  0  0  0  0  0  0  0  0  0
  -29.0456  -26.6505   19.1567 C   0  0  0  0  0  0  0  0  0  1  0  0
  -21.2165  -29.1427   22.0963 C   0  0  1  0  0  0  0  0  0  0  0  0
  -19.3359  -27.7804   19.1001 C   0  0  2  0  0  0  0  0  0  0  0  0
  -20.5659  -29.1470   23.5084 C   0  0  0  0  0  0  0  0  0  0  0  0
  -25.5256  -15.0386   20.3671 N   0  0  0  0  0  0  0  0  0  0  0  0
  -26.3196  -16.0559   20.7423 N   0  0  0  0  0  0  0  0  0  0  0  0
  -23.2720  -30.3890   21.5085 N   0  0  0  0  0  0  0  0  0  0  0  0
  -26.2849  -19.2208   18.6055 N   0  0  0  0  0  0  0  0  0  0  0  0
  -28.2846  -16.5678   21.9620 N   0  0  0  0  0  0  0  0  0  0  0  0
  -27.9340  -12.0851   22.3844 N   0  0  0  0  0  0  0  0  0  0  0  0
  -28.5134  -19.9919   18.6445 N   0  0  0  0  0  0  0  0  0  0  0  0
  -25.3133  -33.1190   22.8035 N   0  0  0  0  0  0  0  0  0  0  0  0
  -20.2793  -28.8887   21.0074 N   0  0  0  0  0  0  0  0  0  0  0  0
  -19.8628  -27.2629   17.8057 N   0  3  0  0  0  0  0  0  0  0  0  0
  -29.1857  -13.9175   22.9623 O   0  0  0  0  0  0  0  0  0  0  0  0
  -24.4608  -31.1238   23.6492 O   0  0  0  0  0  0  0  0  0  0  0  0
  -21.2298  -31.4887   21.7459 O   0  0  0  0  0  0  0  0  0  0  0  0
  -21.3583  -27.0122   20.1757 O   0  0  0  0  0  0  0  0  0  0  0  0
  -26.7721  -21.4212   18.0909 O   0  0  0  0  0  0  0  0  0  0  0  0
  -23.9323   -8.8753   20.2121 O   0  0  0  0  0  0  0  0  0  0  0  0
  -28.1639  -26.8438   20.2620 O   0  0  0  0  0  0  0  0  0  1  0  0
  -18.4864   -8.3145   20.8690 F   0  0  0  0  0  0  0  0  0  0  0  0
  -22.9032   -7.1763   22.1348 F   0  0  0  0  0  0  0  0  0  0  0  0
  1  2  1  0  0  0  0
  1  6  2  0  0  0  0
  2  7  2  0  0  0  0
  3 10  2  0  0  0  0
  3 18  1  0  0  0  0
  4 11  1  0  0  0  0
  4 18  2  0  0  0  0
  5  9  2  0  0  0  0
  5 19  1  0  0  0  0
  6 21  1  0  0  0  0
  7 23  1  0  0  0  0
  8 12  2  0  0  0  0
  8 22  1  0  0  0  0
  9 25  1  0  0  0  0
 10 27  1  0  0  0  0
 11 27  2  0  0  0  0
 12 28  1  0  0  0  0
 13 14  2  0  0  0  0
 13 29  1  0  0  0  0
 14 30  1  0  0  0  0
 15 19  2  0  0  0  0
 15 26  1  0  0  0  0
 16 24  1  0  0  0  0
 16 28  2  0  0  0  0
 17 30  2  0  0  0  0
 17 31  1  0  0  0  0
 18 32  1  0  0  0  0
 19 34  1  0  0  0  0
 20 32  1  0  0  0  0
 20 33  2  0  0  0  0
 20 36  1  0  0  0  0
 21 23  2  0  0  0  0
 21 41  1  0  0  0  0
 22 24  2  0  0  0  0
 22 42  1  0  0  0  0
 23 50  1  0  0  0  0
 24 43  1  0  0  0  0
 25 26  2  0  0  0  0
 25 53  1  0  0  0  0
 26 69  1  0  0  0  0
 27 78  1  0  0  0  0
 28 79  1  0  0  0  0
 29 31  2  0  0  0  0
 29 78  1  0  0  0  0
 30 80  1  0  0  0  0
 31 81  1  0  0  0  0
 32 63  2  0  0  0  0
 33 64  1  0  0  0  0
 33 67  1  0  0  0  0
 34 35  2  0  0  0  0
 35 59  1  0  0  0  0
 36 68  1  0  0  0  0
 36 73  2  0  0  0  0
 37 51  1  0  0  0  0
 37 70  1  0  0  0  0
 37 74  2  0  0  0  0
 38 60  1  0  0  0  0
 38 65  1  0  0  0  0
 38 75  2  0  0  0  0
 39 61  1  0  0  0  0
 39 71  1  0  0  0  0
 39 76  2  0  0  0  0
 40 66  1  0  0  0  0
 40 69  1  0  0  0  0
 40 77  2  0  0  0  0
 41 44  1  0  0  0  0
 42 51  1  0  0  0  0
 43 65  1  0  0  0  0
 44 46  1  0  0  0  0
 45 47  1  0  0  0  0
 45 48  1  0  0  0  0
 46 50  1  0  0  0  0
 47 52  1  0  0  0  0
 48 66  1  0  0  0  0
 49 52  1  0  0  0  0
 49 66  1  0  0  0  0
 50 70  1  0  0  0  0
 51 65  1  0  0  0  0
 52 64  1  0  0  0  0
 54 61  1  0  0  0  0
 55 62  1  0  0  0  0
 56 62  1  0  0  0  0
 57 62  1  0  0  0  0
 58 72  1  0  0  0  0
 59 79  1  0  0  0  0
 60 62  1  0  0  0  0
 60 71  1  0  0  0  0
 61 72  1  0  0  0  0
 63 64  1  0  0  0  0
M  CHG  1  72   1
M  ISO  4  40 100  59 101  69 100  79 101
M  END
> <Batch ID>
0124

> <Smiles>
CNC(C)C(=O)NC(C(=O)N1Cc2cc([101O:1][101CH2:1]C=Cc3ccc(C)c([100NH:0][100C:0](=O)N4CCCC(n5nc(-c6ccc(Oc7ccc(F)cc7F)cc6)c(C(N)=O)c5N)C4)c3)ccc2CC1C(=O)NC1CCCc2ccccc21)C(C)(C)C

> <Shape>
0.293

> <Color>
0.070

> <Negative vol penalty>
0.000

$$$$

  -OEChem-04052302063D

 85 93  0     1  0  0  0  0  0999 V2000
  -26.9165  -25.0245   16.3544 C   0  0  0  0  0  0  0  0  0  0  0  0
  -25.7825  -25.3385   17.0967 C   0  0  0  0  0  0  0  0  0  0  0  0
  -27.4665  -12.2792   20.5037 C   0  0  0  0  0  0  0  0  0  0  0  0
  -28.0098  -12.1919   18.1512 C   0  0  0  0  0  0  0  0  0  0  0  0
  -28.1813  -25.3402   16.8488 C   0  0  0  0  0  0  0  0  0  0  0  0
  -25.9129  -25.9675   18.3344 C   0  0  0  0  0  0  0  0  0  0  0  0
  -22.6360  -29.7823   18.9296 C   0  0  0  0  0  0  0  0  0  0  0  0
  -27.0860  -10.9379   20.4657 C   0  0  0  0  0  0  0  0  0  0  0  0
  -27.6293  -10.8505   18.1132 C   0  0  0  0  0  0  0  0  0  0  0  0
  -21.3201  -29.4478   19.2463 C   0  0  0  0  0  0  0  0  0  0  0  0
  -25.6318   -7.6339   20.9048 C   0  0  0  0  0  0  0  0  0  0  0  0
  -24.4425   -7.2773   21.5404 C   0  0  0  0  0  0  0  0  0  0  0  0
  -22.2514  -23.2711   19.9369 C   0  0  0  0  0  0  0  0  0  0  0  0
  -23.4404  -24.0393   21.8946 C   0  0  0  0  0  0  0  0  0  0  0  0
  -21.7568  -29.9502   21.5649 C   0  0  0  0  0  0  0  0  0  0  0  0
  -23.2196   -8.7766   20.0934 C   0  0  0  0  0  0  0  0  0  0  0  0
  -27.9283  -12.9063   19.3464 C   0  0  0  0  0  0  0  0  0  0  0  0
  -23.1604  -23.0349   20.9681 C   0  0  0  0  0  0  0  0  0  0  0  0
  -29.6024  -14.8053   19.6616 C   0  0  0  0  0  0  0  0  0  0  0  0
  -28.3268  -25.9820   18.0887 C   0  0  0  0  0  0  0  0  0  0  0  0
  -23.5267  -30.1935   19.9315 C   0  0  0  0  0  0  0  0  0  0  0  0
  -27.1809  -26.2909   18.8464 C   0  0  0  0  0  0  0  0  0  0  0  0
  -23.0828  -30.2919   21.2579 C   0  0  0  0  0  0  0  0  0  0  0  0
  -21.6224  -24.5118   19.8320 C   0  0  0  0  0  0  0  0  0  0  0  0
  -22.8114  -25.2799   21.7899 C   0  0  0  0  0  0  0  0  0  0  0  0
  -27.1675  -10.2234   19.2704 C   0  0  0  0  0  0  0  0  0  0  0  0
  -20.8811  -29.5290   20.5645 C   0  0  0  0  0  0  0  0  0  0  0  0
  -25.6150   -8.5620   19.8635 C   0  0  0  0  0  0  0  0  0  0  0  0
  -21.9024  -25.5161   20.7586 C   0  0  0  0  0  0  0  0  0  0  0  0
  -23.2364   -7.8486   21.1347 C   0  0  0  0  0  0  0  0  0  0  0  0
  -24.4090   -9.1333   19.4578 C   0  0  0  0  0  0  0  0  0  0  0  0
  -28.3210  -14.2921   19.3850 C   0  0  0  0  0  0  0  0  0  0  0  0
  -29.4525  -16.1678   19.5756 C   0  0  0  0  0  0  0  0  0  0  0  0
  -23.8171  -21.7417   21.0758 C   0  0  0  0  0  0  0  0  0  0  0  0
  -23.9425  -20.8413   20.0775 C   0  0  0  0  0  0  0  0  0  0  0  0
  -30.8193  -14.1122   19.9689 C   0  0  0  0  0  0  0  0  0  0  0  0
  -24.6483  -19.5714   20.3420 C   0  0  0  0  0  0  0  0  0  0  0  0
  -26.2638  -29.0740   21.0972 C   0  0  0  0  0  0  0  0  0  0  0  0
  -26.2273  -31.8440   22.7847 C   0  0  0  0  0  0  0  0  0  0  0  0
  -24.4017  -34.4022   24.1151 C   0  0  0  0  0  0  0  0  0  0  0  0
  -29.7169  -26.2607   18.6033 C   0  0  0  0  0  0  0  0  0  0  0  0
  -24.9355  -30.5765   19.5694 C   0  0  0  0  0  0  0  0  0  0  0  0
  -23.9938  -30.7473   22.3675 C   0  0  0  0  0  0  0  0  0  0  0  0
  -29.7510  -27.2645   19.7528 C   0  0  0  0  0  0  0  0  0  0  0  0
  -26.8498  -19.5296   17.4123 C   0  0  0  0  0  0  0  0  0  0  0  0
  -28.6860  -26.9243   20.7905 C   0  0  0  0  0  0  0  0  0  0  0  0
  -27.5606  -18.1917   17.5982 C   0  0  0  0  0  0  0  0  0  0  0  0
  -25.4044  -19.4825   17.9055 C   0  0  0  0  0  0  0  0  0  0  0  0
  -25.9820  -17.6772   19.5017 C   0  0  0  0  0  0  0  0  0  0  0  0
  -27.2802  -26.9955   20.1820 C   0  0  1  0  0  0  0  0  0  0  0  0
  -25.9001  -30.4895   20.7482 C   0  0  1  0  0  0  0  0  0  0  0  0
  -27.4519  -17.7154   19.0554 C   0  0  1  0  0  0  0  0  0  0  0  0
  -20.6510  -24.7456   18.7221 C   0  0  0  0  0  0  0  0  0  0  0  0
  -22.4241  -26.1060   24.1253 C   0  0  0  0  0  0  0  0  0  0  0  0
  -24.6460  -36.4983   25.4730 C   0  0  0  0  0  0  0  0  0  0  0  0
  -17.7136  -27.7462   20.9766 C   0  0  0  0  0  0  0  0  0  0  0  0
  -26.5791  -30.1653   25.3083 C   0  0  0  0  0  0  0  0  0  0  0  0
  -25.8707  -32.1578   26.6486 C   0  0  0  0  0  0  0  0  0  0  0  0
  -27.9365  -32.2650   25.2545 C   0  0  0  0  0  0  0  0  0  0  0  0
  -23.3288  -36.0826   21.9278 C   0  0  0  0  0  0  0  0  0  0  0  0
  -23.1248  -26.3430   22.7909 C   0  0  0  0  0  0  0  0  0  0  0  0
  -20.0496  -26.8863   21.3464 C   0  0  0  0  0  0  0  0  0  0  0  0
  -25.6757  -32.2735   24.1228 C   0  0  1  0  0  0  0  0  0  0  0  0
  -24.5966  -35.9071   24.0728 C   0  0  2  0  0  0  0  0  0  0  0  0
  -19.1755  -27.8717   20.5806 C   0  0  2  0  0  0  0  0  0  1  0  0
  -26.4986  -31.7049   25.3131 C   0  0  0  0  0  0  0  0  0  0  0  0
  -27.4232  -15.2506   19.1415 N   0  0  0  0  0  0  0  0  0  0  0  0
  -28.1415  -16.3798   19.2650 N   0  0  0  0  0  0  0  0  0  0  0  0
  -25.3215  -18.9686   19.2810 N   0  0  0  0  0  0  0  0  0  0  0  0
  -25.3638  -31.1047   21.9640 N   0  0  0  0  0  0  0  0  0  0  0  0
  -30.3156  -17.1934   19.7361 N   0  0  0  0  0  0  0  0  0  0  0  0
  -30.7968  -12.7116   20.0165 N   0  0  0  0  0  0  0  0  0  0  0  0
  -26.8507  -28.3722   20.0615 N   0  0  0  0  0  0  0  0  0  0  0  0
  -25.6054  -33.7303   24.0867 N   0  0  0  0  0  0  0  0  0  0  0  0
  -23.4787  -36.5535   23.3289 N   0  3  0  0  0  0  0  0  0  0  0  0
  -31.8910  -14.7176   20.2107 O   0  0  0  0  0  0  0  0  0  0  0  0
  -24.5944  -19.1187   21.4870 O   0  0  0  0  0  0  0  0  0  0  0  0
  -26.0307  -28.6503   22.2232 O   0  0  0  0  0  0  0  0  0  0  0  0
  -27.3793  -32.1592   22.4761 O   0  0  0  0  0  0  0  0  0  0  0  0
  -23.2927  -33.8755   24.1717 O   0  0  0  0  0  0  0  0  0  0  0  0
  -26.7965   -8.9144   19.2330 O   0  0  0  0  0  0  0  0  0  0  0  0
  -21.2850  -26.7343   20.6558 O   0  0  0  0  0  0  0  0  0  0  0  0
  -19.5974  -29.2024   20.8765 O   0  0  0  0  0  0  0  0  0  1  0  0
  -22.0942   -7.5049   21.7441 F   0  0  0  0  0  0  0  0  0  0  0  0
  -24.3864  -10.0245   18.4573 F   0  0  0  0  0  0  0  0  0  0  0  0
  1  2  1  0  0  0  0
  1  5  2  0  0  0  0
  2  6  2  0  0  0  0
  3  8  2  0  0  0  0
  3 17  1  0  0  0  0
  4  9  1  0  0  0  0
  4 17  2  0  0  0  0
  5 20  1  0  0  0  0
  6 22  1  0  0  0  0
  7 10  2  0  0  0  0
  7 21  1  0  0  0  0
  8 26  1  0  0  0  0
  9 26  2  0  0  0  0
 10 27  1  0  0  0  0
 11 12  2  0  0  0  0
 11 28  1  0  0  0  0
 12 30  1  0  0  0  0
 13 18  1  0  0  0  0
 13 24  2  0  0  0  0
 14 18  2  0  0  0  0
 14 25  1  0  0  0  0
 15 23  1  0  0  0  0
 15 27  2  0  0  0  0
 16 30  2  0  0  0  0
 16 31  1  0  0  0  0
 17 32  1  0  0  0  0
 18 34  1  0  0  0  0
 19 32  1  0  0  0  0
 19 33  2  0  0  0  0
 19 36  1  0  0  0  0
 20 22  2  0  0  0  0
 20 41  1  0  0  0  0
 21 23  2  0  0  0  0
 21 42  1  0  0  0  0
 22 50  1  0  0  0  0
 23 43  1  0  0  0  0
 24 29  1  0  0  0  0
 24 53  1  0  0  0  0
 25 29  2  0  0  0  0
 25 61  1  0  0  0  0
 26 81  1  0  0  0  0
 27 83  1  0  0  0  0
 28 31  2  0  0  0  0
 28 81  1  0  0  0  0
 29 82  1  0  0  0  0
 30 84  1  0  0  0  0
 31 85  1  0  0  0  0
 32 67  2  0  0  0  0
 33 68  1  0  0  0  0
 33 71  1  0  0  0  0
 34 35  2  0  0  0  0
 35 37  1  0  0  0  0
 36 72  1  0  0  0  0
 36 76  2  0  0  0  0
 37 69  1  0  0  0  0
 37 77  2  0  0  0  0
 38 51  1  0  0  0  0
 38 73  1  0  0  0  0
 38 78  2  0  0  0  0
 39 63  1  0  0  0  0
 39 70  1  0  0  0  0
 39 79  2  0  0  0  0
 40 64  1  0  0  0  0
 40 74  1  0  0  0  0
 40 80  2  0  0  0  0
 41 44  1  0  0  0  0
 42 51  1  0  0  0  0
 43 70  1  0  0  0  0
 44 46  1  0  0  0  0
 45 47  1  0  0  0  0
 45 48  1  0  0  0  0
 46 50  1  0  0  0  0
 47 52  1  0  0  0  0
 48 69  1  0  0  0  0
 49 52  1  0  0  0  0
 49 69  1  0  0  0  0
 50 73  1  0  0  0  0
 51 70  1  0  0  0  0
 52 68  1  0  0  0  0
 54 61  1  0  0  0  0
 55 64  1  0  0  0  0
 56 65  1  0  0  0  0
 57 66  1  0  0  0  0
 58 66  1  0  0  0  0
 59 66  1  0  0  0  0
 60 75  1  0  0  0  0
 62 65  1  0  0  0  0
 62 82  1  0  0  0  0
 63 66  1  0  0  0  0
 63 74  1  0  0  0  0
 64 75  1  0  0  0  0
 65 83  1  0  0  0  0
 67 68  1  0  0  0  0
M  CHG  1  75   1
M  ISO  4  35 100  37 100  65 101  83 101
M  END
> <Batch ID>
0124

> <Smiles>
CCc1cc(C=[100CH:0][100C:0](=O)N2CCCC(n3nc(-c4ccc(Oc5ccc(F)cc5F)cc4)c(C(N)=O)c3N)C2)cc(C)c1OC[101CH:1](C)[101O:1]c1ccc2c(c1)CN(C(=O)C(NC(=O)C(C)NC)C(C)(C)C)C(C(=O)NC1CCCc3ccccc31)C2

> <Shape>
0.288

> <Color>
0.088

> <Negative vol penalty>
0.000

$$$$

  -OEChem-04052302063D

 84 92  0     1  0  0  0  0  0999 V2000
  -29.3295  -29.7992   13.5745 C   0  0  0  0  0  0  0  0  0  0  0  0
  -29.2355  -28.6805   14.3962 C   0  0  0  0  0  0  0  0  0  0  0  0
  -23.0153   -9.9317   19.9860 C   0  0  0  0  0  0  0  0  0  0  0  0
  -23.7748   -9.9823   22.2789 C   0  0  0  0  0  0  0  0  0  0  0  0
  -29.2721  -17.0017   19.7790 C   0  0  0  0  0  0  0  0  0  0  0  0
  -29.3984  -31.0727   14.1379 C   0  0  0  0  0  0  0  0  0  0  0  0
  -29.2114  -28.8347   15.7819 C   0  0  0  0  0  0  0  0  0  0  0  0
  -25.6699  -25.9696   17.9940 C   0  0  0  0  0  0  0  0  0  0  0  0
  -22.2626   -8.7898   20.2604 C   0  0  0  0  0  0  0  0  0  0  0  0
  -23.0221   -8.8404   22.5534 C   0  0  0  0  0  0  0  0  0  0  0  0
  -28.5739  -18.1079   19.2950 C   0  0  0  0  0  0  0  0  0  0  0  0
  -25.9570  -24.6151   18.1569 C   0  0  0  0  0  0  0  0  0  0  0  0
  -23.2880   -5.5051   22.0678 C   0  0  0  0  0  0  0  0  0  0  0  0
  -23.8956   -4.4909   22.8079 C   0  0  0  0  0  0  0  0  0  0  0  0
  -28.8280  -17.7126   22.0449 C   0  0  0  0  0  0  0  0  0  0  0  0
  -26.5406  -25.0221   20.4619 C   0  0  0  0  0  0  0  0  0  0  0  0
  -22.1952   -4.7141   24.5097 C   0  0  0  0  0  0  0  0  0  0  0  0
  -23.7714  -10.5279   20.9952 C   0  0  0  0  0  0  0  0  0  0  0  0
  -29.3992  -16.8040   21.1540 C   0  0  0  0  0  0  0  0  0  0  0  0
  -28.1298  -18.8189   21.5610 C   0  0  0  0  0  0  0  0  0  0  0  0
  -24.1324  -13.0472   20.8209 C   0  0  0  0  0  0  0  0  0  0  0  0
  -29.3654  -31.2432   15.5310 C   0  0  0  0  0  0  0  0  0  0  0  0
  -25.8267  -26.8639   19.0627 C   0  0  0  0  0  0  0  0  0  0  0  0
  -29.2813  -30.1115   16.3645 C   0  0  0  0  0  0  0  0  0  0  0  0
  -26.2524  -26.3871   20.3107 C   0  0  0  0  0  0  0  0  0  0  0  0
  -22.2660   -8.2442   21.5442 C   0  0  0  0  0  0  0  0  0  0  0  0
  -26.3952  -24.1416   19.3901 C   0  0  0  0  0  0  0  0  0  0  0  0
  -28.0027  -19.0165   20.1860 C   0  0  0  0  0  0  0  0  0  0  0  0
  -22.1340   -6.1239   22.5487 C   0  0  0  0  0  0  0  0  0  0  0  0
  -23.3492   -4.0953   24.0288 C   0  0  0  0  0  0  0  0  0  0  0  0
  -21.5877   -5.7284   23.7696 C   0  0  0  0  0  0  0  0  0  0  0  0
  -24.5495  -11.7071   20.7121 C   0  0  0  0  0  0  0  0  0  0  0  0
  -25.2302  -13.7804   20.4420 C   0  0  0  0  0  0  0  0  0  0  0  0
  -27.5423  -19.7537   22.5114 C   0  0  0  0  0  0  0  0  0  0  0  0
  -27.8516  -21.0639   22.6251 C   0  0  0  0  0  0  0  0  0  0  0  0
  -30.1273  -15.6502   21.6576 C   0  0  0  0  0  0  0  0  0  0  0  0
  -22.8658  -13.5815   21.2282 C   0  0  0  0  0  0  0  0  0  0  0  0
  -30.7454  -14.6671   20.7385 C   0  0  0  0  0  0  0  0  0  0  0  0
  -27.6355  -29.4219   19.6000 C   0  0  0  0  0  0  0  0  0  0  0  0
  -25.8611  -29.6254   22.3078 C   0  0  0  0  0  0  0  0  0  0  0  0
  -23.9239  -28.0410   24.6281 C   0  0  0  0  0  0  0  0  0  0  0  0
  -29.4902  -32.6363   16.0950 C   0  0  0  0  0  0  0  0  0  0  0  0
  -25.4872  -28.3176   18.8781 C   0  0  0  0  0  0  0  0  0  0  0  0
  -26.4176  -27.3026   21.4952 C   0  0  0  0  0  0  0  0  0  0  0  0
  -29.0812  -32.7384   17.5622 C   0  0  0  0  0  0  0  0  0  0  0  0
  -29.5587  -12.3614   18.2621 C   0  0  0  0  0  0  0  0  0  0  0  0
  -29.7082  -31.6072   18.3710 C   0  0  0  0  0  0  0  0  0  0  0  0
  -28.1280  -12.0664   18.7112 C   0  0  0  0  0  0  0  0  0  0  0  0
  -30.4841  -12.5810   19.4546 C   0  0  0  0  0  0  0  0  0  0  0  0
  -28.5832  -13.3575   20.8446 C   0  0  0  0  0  0  0  0  0  0  0  0
  -29.2275  -30.2395   17.8714 C   0  0  1  0  0  0  0  0  0  0  0  0
  -26.1750  -29.2254   19.8931 C   0  0  1  0  0  0  0  0  0  0  0  0
  -27.6132  -13.1573   19.6670 C   0  0  2  0  0  0  0  0  0  0  0  0
  -27.2285  -21.9850   23.6232 C   0  0  0  0  0  0  0  0  0  0  0  0
  -22.6462  -28.4624   26.7464 C   0  0  0  0  0  0  0  0  0  0  0  0
  -28.4812  -29.7057   23.8694 C   0  0  0  0  0  0  0  0  0  0  0  0
  -27.1819  -29.1700   25.9414 C   0  0  0  0  0  0  0  0  0  0  0  0
  -26.7252  -31.2827   24.6963 C   0  0  0  0  0  0  0  0  0  0  0  0
  -21.3641  -27.2328   23.3818 C   0  0  0  0  0  0  0  0  0  0  0  0
  -27.1444  -22.1108   18.4051 C   0  0  0  0  0  0  0  0  0  1  0  0
  -28.0578  -20.9875   18.8563 C   0  0  0  0  0  0  0  0  0  0  0  0
  -25.9822  -29.0770   23.7091 C   0  0  1  0  0  0  0  0  0  0  0  0
  -22.5763  -28.3985   25.2286 C   0  0  2  0  0  0  0  0  0  0  0  0
  -27.0915  -29.7916   24.5314 C   0  0  0  0  0  0  0  0  0  0  0  0
  -25.8137  -11.5927   20.2964 N   0  0  0  0  0  0  0  0  0  0  0  0
  -30.2875  -15.4033   22.9297 N   0  0  0  0  0  0  0  0  0  0  0  0
  -26.2003  -12.8703   20.1406 N   0  0  0  0  0  0  0  0  0  0  0  0
  -29.9484  -13.5960   20.3595 N   0  0  0  0  0  0  0  0  0  0  0  0
  -26.0791  -28.7164   21.2628 N   0  0  0  0  0  0  0  0  0  0  0  0
  -25.4507  -15.1083   20.3404 N   0  0  0  0  0  0  0  0  0  0  0  0
  -21.8469  -12.6875   21.5847 N   0  0  0  0  0  0  0  0  0  0  0  0
  -27.8915  -29.9655   18.3556 N   0  0  0  0  0  0  0  0  0  0  0  0
  -24.6506  -29.1655   24.2986 N   0  0  0  0  0  0  0  0  0  0  0  0
  -21.5538  -27.3835   24.8476 N   0  3  0  0  0  0  0  0  0  0  0  0
  -22.6388  -14.8148   21.2590 O   0  0  0  0  0  0  0  0  0  0  0  0
  -31.9001  -14.9059   20.4099 O   0  0  0  0  0  0  0  0  0  0  0  0
  -28.4685  -29.1052   20.4412 O   0  0  0  0  0  0  0  0  0  0  0  0
  -25.5764  -30.8147   22.1464 O   0  0  0  0  0  0  0  0  0  0  0  0
  -24.2963  -26.8804   24.4709 O   0  0  0  0  0  0  0  0  0  0  0  0
  -21.5315   -7.1302   21.8124 O   0  0  0  0  0  0  0  0  0  0  0  0
  -26.6767  -22.8200   19.5517 O   0  0  0  0  0  0  0  0  0  1  0  0
  -27.3223  -20.0944   19.6837 O   0  0  0  0  0  0  0  0  0  0  0  0
  -23.9319   -3.1202   24.7386 F   0  0  0  0  0  0  0  0  0  0  0  0
  -20.4786   -6.3183   24.2362 F   0  0  0  0  0  0  0  0  0  0  0  0
  1  2  1  0  0  0  0
  1  6  2  0  0  0  0
  2  7  2  0  0  0  0
  3  9  2  0  0  0  0
  3 18  1  0  0  0  0
  4 10  1  0  0  0  0
  4 18  2  0  0  0  0
  5 11  2  0  0  0  0
  5 19  1  0  0  0  0
  6 22  1  0  0  0  0
  7 24  1  0  0  0  0
  8 12  2  0  0  0  0
  8 23  1  0  0  0  0
  9 26  1  0  0  0  0
 10 26  2  0  0  0  0
 11 28  1  0  0  0  0
 12 27  1  0  0  0  0
 13 14  2  0  0  0  0
 13 29  1  0  0  0  0
 14 30  1  0  0  0  0
 15 19  2  0  0  0  0
 15 20  1  0  0  0  0
 16 25  1  0  0  0  0
 16 27  2  0  0  0  0
 17 30  2  0  0  0  0
 17 31  1  0  0  0  0
 18 32  1  0  0  0  0
 19 36  1  0  0  0  0
 20 28  2  0  0  0  0
 20 34  1  0  0  0  0
 21 32  1  0  0  0  0
 21 33  2  0  0  0  0
 21 37  1  0  0  0  0
 22 24  2  0  0  0  0
 22 42  1  0  0  0  0
 23 25  2  0  0  0  0
 23 43  1  0  0  0  0
 24 51  1  0  0  0  0
 25 44  1  0  0  0  0
 26 80  1  0  0  0  0
 27 81  1  0  0  0  0
 28 82  1  0  0  0  0
 29 31  2  0  0  0  0
 29 80  1  0  0  0  0
 30 83  1  0  0  0  0
 31 84  1  0  0  0  0
 32 65  2  0  0  0  0
 33 67  1  0  0  0  0
 33 70  1  0  0  0  0
 34 35  2  0  0  0  0
 35 54  1  0  0  0  0
 36 38  1  0  0  0  0
 36 66  2  0  0  0  0
 37 71  1  0  0  0  0
 37 75  2  0  0  0  0
 38 68  1  0  0  0  0
 38 76  2  0  0  0  0
 39 52  1  0  0  0  0
 39 72  1  0  0  0  0
 39 77  2  0  0  0  0
 40 62  1  0  0  0  0
 40 69  1  0  0  0  0
 40 78  2  0  0  0  0
 41 63  1  0  0  0  0
 41 73  1  0  0  0  0
 41 79  2  0  0  0  0
 42 45  1  0  0  0  0
 43 52  1  0  0  0  0
 44 69  1  0  0  0  0
 45 47  1  0  0  0  0
 46 48  1  0  0  0  0
 46 49  1  0  0  0  0
 47 51  1  0  0  0  0
 48 53  1  0  0  0  0
 49 68  1  0  0  0  0
 50 53  1  0  0  0  0
 50 68  1  0  0  0  0
 51 72  1  0  0  0  0
 52 69  1  0  0  0  0
 53 67  1  0  0  0  0
 55 63  1  0  0  0  0
 56 64  1  0  0  0  0
 57 64  1  0  0  0  0
 58 64  1  0  0  0  0
 59 74  1  0  0  0  0
 60 61  1  0  0  0  0
 60 81  1  0  0  0  0
 61 82  1  0  0  0  0
 62 64  1  0  0  0  0
 62 73  1  0  0  0  0
 63 74  1  0  0  0  0
 65 67  1  0  0  0  0
M  CHG  1  74   1
M  ISO  4  36 100  38 100  60 101  81 101
M  END
> <Batch ID>
0124

> <Smiles>
CC=Cc1cc([100C:0](=N)[100C:0](=O)N2CCCC(n3nc(-c4ccc(Oc5ccc(F)cc5F)cc4)c(C(N)=O)c3N)C2)ccc1OC[101CH2:1][101O:1]c1ccc2c(c1)CN(C(=O)C(NC(=O)C(C)NC)C(C)(C)C)C(C(=O)NC1CCCc3ccccc31)C2

> <Shape>
0.309

> <Color>
0.212

> <Negative vol penalty>
0.000

$$$$

  -OEChem-04052302063D

 84 92  0     1  0  0  0  0  0999 V2000
  -30.0259  -21.1214   30.9667 C   0  0  0  0  0  0  0  0  0  0  0  0
  -30.6932  -20.7726   29.7969 C   0  0  0  0  0  0  0  0  0  0  0  0
  -23.1043   -9.8182   19.9331 C   0  0  0  0  0  0  0  0  0  0  0  0
  -23.8549   -9.8412   22.2294 C   0  0  0  0  0  0  0  0  0  0  0  0
  -28.7662  -21.7151   30.8988 C   0  0  0  0  0  0  0  0  0  0  0  0
  -30.1006  -21.0162   28.5584 C   0  0  0  0  0  0  0  0  0  0  0  0
  -33.3320  -23.0338   25.2219 C   0  0  0  0  0  0  0  0  0  0  0  0
  -22.3815   -8.6513   20.1810 C   0  0  0  0  0  0  0  0  0  0  0  0
  -23.1321   -8.6742   22.4773 C   0  0  0  0  0  0  0  0  0  0  0  0
  -34.2381  -22.1687   24.6100 C   0  0  0  0  0  0  0  0  0  0  0  0
  -19.9174   -7.8155   23.0678 C   0  0  0  0  0  0  0  0  0  0  0  0
  -19.1568   -7.7619   24.2358 C   0  0  0  0  0  0  0  0  0  0  0  0
  -32.8355  -22.0964   22.6487 C   0  0  0  0  0  0  0  0  0  0  0  0
  -30.3507  -18.4361   24.0611 C   0  0  0  0  0  0  0  0  0  0  0  0
  -31.9532  -16.7167   22.5582 C   0  0  0  0  0  0  0  0  0  0  0  0
  -20.4319   -5.8489   24.9784 C   0  0  0  0  0  0  0  0  0  0  0  0
  -23.8411  -10.4132   20.9573 C   0  0  0  0  0  0  0  0  0  0  0  0
  -24.1352  -12.9443   20.8368 C   0  0  0  0  0  0  0  0  0  0  0  0
  -28.1621  -21.9750   29.6586 C   0  0  0  0  0  0  0  0  0  0  0  0
  -32.1634  -23.4287   24.5548 C   0  0  0  0  0  0  0  0  0  0  0  0
  -28.8310  -21.6127   28.4739 C   0  0  0  0  0  0  0  0  0  0  0  0
  -31.9174  -22.9686   23.2533 C   0  0  0  0  0  0  0  0  0  0  0  0
  -29.7654  -17.5466   23.1601 C   0  0  0  0  0  0  0  0  0  0  0  0
  -30.5666  -16.6869   22.4086 C   0  0  0  0  0  0  0  0  0  0  0  0
  -22.3954   -8.0793   21.4531 C   0  0  0  0  0  0  0  0  0  0  0  0
  -33.9886  -21.6976   23.3244 C   0  0  0  0  0  0  0  0  0  0  0  0
  -20.9353   -6.8857   22.8551 C   0  0  0  0  0  0  0  0  0  0  0  0
  -32.5385  -17.6063   23.4592 C   0  0  0  0  0  0  0  0  0  0  0  0
  -19.4140   -6.7786   25.1911 C   0  0  0  0  0  0  0  0  0  0  0  0
  -31.7372  -18.4660   24.2106 C   0  0  0  0  0  0  0  0  0  0  0  0
  -21.1925   -5.9025   23.8104 C   0  0  0  0  0  0  0  0  0  0  0  0
  -24.5883  -11.6183   20.7017 C   0  0  0  0  0  0  0  0  0  0  0  0
  -25.2143  -13.7142   20.4773 C   0  0  0  0  0  0  0  0  0  0  0  0
  -22.8535  -13.4361   21.2504 C   0  0  0  0  0  0  0  0  0  0  0  0
  -29.0493  -23.0893   25.0938 C   0  0  0  0  0  0  0  0  0  0  0  0
  -28.7867  -25.0372   22.5133 C   0  0  0  0  0  0  0  0  0  0  0  0
  -30.1843  -26.2536   19.6473 C   0  0  0  0  0  0  0  0  0  0  0  0
  -30.6589  -14.8638   20.6726 C   0  0  0  0  0  0  0  0  0  0  0  0
  -26.7787  -22.5753   29.6367 C   0  0  0  0  0  0  0  0  0  0  0  0
  -31.2092  -24.3835   25.2183 C   0  0  0  0  0  0  0  0  0  0  0  0
  -30.6877  -23.3786   22.4864 C   0  0  0  0  0  0  0  0  0  0  0  0
  -26.3820  -23.1417   28.2757 C   0  0  0  0  0  0  0  0  0  0  0  0
  -29.5999  -12.4276   18.3017 C   0  0  0  0  0  0  0  0  0  0  0  0
  -26.7231  -22.1525   27.1658 C   0  0  0  0  0  0  0  0  0  0  0  0
  -28.1644  -12.1090   18.7258 C   0  0  0  0  0  0  0  0  0  0  0  0
  -30.5058  -12.6746   19.5067 C   0  0  0  0  0  0  0  0  0  0  0  0
  -28.5800  -13.3635   20.8800 C   0  0  0  0  0  0  0  0  0  0  0  0
  -28.2318  -21.8836   27.1109 C   0  0  1  0  0  0  0  0  0  0  0  0
  -29.7974  -24.3125   24.6446 C   0  0  1  0  0  0  0  0  0  0  0  0
  -27.6153  -13.1710   19.6985 C   0  0  2  0  0  0  0  0  0  0  0  0
  -27.8112  -18.2507   21.7559 C   0  0  0  0  0  0  0  0  0  0  0  0
  -29.7142  -27.8025   17.7297 C   0  0  0  0  0  0  0  0  0  0  0  0
  -26.9437  -22.9432   21.2769 C   0  0  0  0  0  0  0  0  0  0  0  0
  -27.2756  -24.0605   19.0611 C   0  0  0  0  0  0  0  0  0  0  0  0
  -26.2091  -25.3097   20.9385 C   0  0  0  0  0  0  0  0  0  0  0  0
  -32.4800  -27.9899   20.3357 C   0  0  0  0  0  0  0  0  0  0  0  0
  -28.2777  -17.5366   23.0205 C   0  0  0  0  0  0  0  0  0  0  0  0
  -35.9296  -18.6879   22.8478 C   0  0  0  0  0  0  0  0  0  0  0  0
  -35.6214  -19.9869   23.5758 C   0  0  0  0  0  0  0  0  0  1  0  0
  -34.6640  -17.9459   22.4479 C   0  0  0  0  0  0  0  0  0  0  0  0
  -28.6896  -24.8280   21.0213 C   0  0  1  0  0  0  0  0  0  0  0  0
  -30.3237  -27.6689   19.1166 C   0  0  2  0  0  0  0  0  0  0  0  0
  -27.3018  -24.2759   20.5894 C   0  0  0  0  0  0  0  0  0  0  0  0
  -25.8564  -11.5463   20.2884 N   0  0  0  0  0  0  0  0  0  0  0  0
  -26.2093  -12.8367   20.1607 N   0  0  0  0  0  0  0  0  0  0  0  0
  -29.7818  -24.3088   23.1804 N   0  0  0  0  0  0  0  0  0  0  0  0
  -29.9239  -13.6952   20.3812 N   0  0  0  0  0  0  0  0  0  0  0  0
  -25.3996  -15.0494   20.4041 N   0  0  0  0  0  0  0  0  0  0  0  0
  -21.8578  -12.5080   21.5844 N   0  0  0  0  0  0  0  0  0  0  0  0
  -29.9908  -15.7768   21.4878 N   0  0  0  0  0  0  0  0  0  0  0  0
  -28.9178  -22.9821   26.4651 N   0  0  0  0  0  0  0  0  0  0  0  0
  -29.0432  -26.1029   20.4065 N   0  0  0  0  0  0  0  0  0  0  0  0
  -31.7615  -28.0530   19.0370 N   0  3  0  0  0  0  0  0  0  0  0  0
  -22.5937  -14.6620   21.3059 O   0  0  0  0  0  0  0  0  0  0  0  0
  -28.6216  -22.3017   24.2579 O   0  0  0  0  0  0  0  0  0  0  0  0
  -28.0128  -25.8234   23.0653 O   0  0  0  0  0  0  0  0  0  0  0  0
  -31.0036  -25.3690   19.4089 O   0  0  0  0  0  0  0  0  0  0  0  0
  -31.7864  -15.0536   20.2092 O   0  0  0  0  0  0  0  0  0  0  0  0
  -21.6901   -6.9407   21.6954 O   0  0  0  0  0  0  0  0  0  0  0  0
  -34.8711  -20.8527   22.7251 O   0  0  0  0  0  0  0  0  0  1  0  0
  -33.9009  -17.6347   23.6058 O   0  0  0  0  0  0  0  0  0  0  0  0
  -18.6845   -6.7283   26.3134 F   0  0  0  0  0  0  0  0  0  0  0  0
  -32.2937  -19.3225   25.0782 F   0  0  0  0  0  0  0  0  0  0  0  0
  -22.1699   -5.0073   23.6122 F   0  0  0  0  0  0  0  0  0  0  0  0
  1  2  1  0  0  0  0
  1  5  2  0  0  0  0
  2  6  2  0  0  0  0
  3  8  2  0  0  0  0
  3 17  1  0  0  0  0
  4  9  1  0  0  0  0
  4 17  2  0  0  0  0
  5 19  1  0  0  0  0
  6 21  1  0  0  0  0
  7 10  2  0  0  0  0
  7 20  1  0  0  0  0
  8 25  1  0  0  0  0
  9 25  2  0  0  0  0
 10 26  1  0  0  0  0
 11 12  2  0  0  0  0
 11 27  1  0  0  0  0
 12 29  1  0  0  0  0
 13 22  1  0  0  0  0
 13 26  2  0  0  0  0
 14 23  1  0  0  0  0
 14 30  2  0  0  0  0
 15 24  1  0  0  0  0
 15 28  2  0  0  0  0
 16 29  2  0  0  0  0
 16 31  1  0  0  0  0
 17 32  1  0  0  0  0
 18 32  1  0  0  0  0
 18 33  2  0  0  0  0
 18 34  1  0  0  0  0
 19 21  2  0  0  0  0
 19 39  1  0  0  0  0
 20 22  2  0  0  0  0
 20 40  1  0  0  0  0
 21 48  1  0  0  0  0
 22 41  1  0  0  0  0
 23 24  2  0  0  0  0
 23 57  1  0  0  0  0
 24 70  1  0  0  0  0
 25 79  1  0  0  0  0
 26 80  1  0  0  0  0
 27 31  2  0  0  0  0
 27 79  1  0  0  0  0
 28 30  1  0  0  0  0
 28 81  1  0  0  0  0
 29 82  1  0  0  0  0
 30 83  1  0  0  0  0
 31 84  1  0  0  0  0
 32 64  2  0  0  0  0
 33 65  1  0  0  0  0
 33 68  1  0  0  0  0
 34 69  1  0  0  0  0
 34 74  2  0  0  0  0
 35 49  1  0  0  0  0
 35 71  1  0  0  0  0
 35 75  2  0  0  0  0
 36 61  1  0  0  0  0
 36 66  1  0  0  0  0
 36 76  2  0  0  0  0
 37 62  1  0  0  0  0
 37 72  1  0  0  0  0
 37 77  2  0  0  0  0
 38 67  1  0  0  0  0
 38 70  1  0  0  0  0
 38 78  2  0  0  0  0
 39 42  1  0  0  0  0
 40 49  1  0  0  0  0
 41 66  1  0  0  0  0
 42 44  1  0  0  0  0
 43 45  1  0  0  0  0
 43 46  1  0  0  0  0
 44 48  1  0  0  0  0
 45 50  1  0  0  0  0
 46 67  1  0  0  0  0
 47 50  1  0  0  0  0
 47 67  1  0  0  0  0
 48 71  1  0  0  0  0
 49 66  1  0  0  0  0
 50 65  1  0  0  0  0
 51 57  1  0  0  0  0
 52 62  1  0  0  0  0
 53 63  1  0  0  0  0
 54 63  1  0  0  0  0
 55 63  1  0  0  0  0
 56 73  1  0  0  0  0
 58 59  1  0  0  0  0
 58 60  1  0  0  0  0
 59 80  1  0  0  0  0
 60 81  1  0  0  0  0
 61 63  1  0  0  0  0
 61 72  1  0  0  0  0
 62 73  1  0  0  0  0
 64 65  1  0  0  0  0
M  CHG  1  73   1
M  ISO  4  38 100  59 101  70 100  80 101
M  END
> <Batch ID>
0124

> <Smiles>
CCc1cc(F)c(OCC[101CH2:1][101O:1]c2ccc3c(c2)CN(C(=O)C(NC(=O)C(C)NC)C(C)(C)C)C(C(=O)NC2CCCc4ccccc42)C3)cc1[100NH:0][100C:0](=O)N1CCCC(n2nc(-c3ccc(Oc4ccc(F)cc4F)cc3)c(C(N)=O)c2N)C1

> <Shape>
0.212

> <Color>
0.215

> <Negative vol penalty>
0.000

$$$$

  -OEChem-04052302063D

 86 94  0     1  0  0  0  0  0999 V2000
  -25.8771  -37.8904   24.2019 C   0  0  0  0  0  0  0  0  0  0  0  0
  -26.6326  -37.1447   23.3027 C   0  0  0  0  0  0  0  0  0  0  0  0
  -24.1363   -6.5195   22.8027 C   0  0  0  0  0  0  0  0  0  0  0  0
  -21.8816   -7.1294   23.4206 C   0  0  0  0  0  0  0  0  0  0  0  0
  -26.4676  -18.6044   19.6152 C   0  0  0  0  0  0  0  0  0  0  0  0
  -25.1409  -37.2455   25.1949 C   0  0  0  0  0  0  0  0  0  0  0  0
  -26.6533  -35.7536   23.3968 C   0  0  0  0  0  0  0  0  0  0  0  0
  -27.1443  -29.8887   19.3129 C   0  0  0  0  0  0  0  0  0  0  0  0
  -26.8222  -19.9533   19.6233 C   0  0  0  0  0  0  0  0  0  0  0  0
  -24.0866   -5.4411   23.6858 C   0  0  0  0  0  0  0  0  0  0  0  0
  -21.8320   -6.0508   24.3038 C   0  0  0  0  0  0  0  0  0  0  0  0
  -27.8817  -28.7105   19.2043 C   0  0  0  0  0  0  0  0  0  0  0  0
  -21.3577   -2.7095   24.1280 C   0  0  0  0  0  0  0  0  0  0  0  0
  -20.2070   -1.9212   24.1218 C   0  0  0  0  0  0  0  0  0  0  0  0
  -28.5564  -19.5073   18.0014 C   0  0  0  0  0  0  0  0  0  0  0  0
  -26.5080  -27.7006   20.9109 C   0  0  0  0  0  0  0  0  0  0  0  0
  -19.8276   -2.4567   26.4470 C   0  0  0  0  0  0  0  0  0  0  0  0
  -23.0338   -7.3638   22.6701 C   0  0  0  0  0  0  0  0  0  0  0  0
  -27.1575  -17.7068   18.8003 C   0  0  0  0  0  0  0  0  0  0  0  0
  -28.2019  -18.1582   17.9934 C   0  0  0  0  0  0  0  0  0  0  0  0
  -22.7136   -8.4834   20.4004 C   0  0  0  0  0  0  0  0  0  0  0  0
  -25.1450  -35.8453   25.2952 C   0  0  0  0  0  0  0  0  0  0  0  0
  -26.0884  -29.9855   20.2305 C   0  0  0  0  0  0  0  0  0  0  0  0
  -25.9176  -35.0894   24.3929 C   0  0  0  0  0  0  0  0  0  0  0  0
  -25.7572  -28.8803   21.0273 C   0  0  0  0  0  0  0  0  0  0  0  0
  -27.8666  -20.4048   18.8164 C   0  0  0  0  0  0  0  0  0  0  0  0
  -22.9345   -5.2067   24.4364 C   0  0  0  0  0  0  0  0  0  0  0  0
  -27.5655  -27.6172   20.0054 C   0  0  0  0  0  0  0  0  0  0  0  0
  -21.7434   -3.3714   25.2938 C   0  0  0  0  0  0  0  0  0  0  0  0
  -19.4419   -1.7948   25.2813 C   0  0  0  0  0  0  0  0  0  0  0  0
  -20.9784   -3.2450   26.4532 C   0  0  0  0  0  0  0  0  0  0  0  0
  -23.0846   -8.4783   21.7584 C   0  0  0  0  0  0  0  0  0  0  0  0
  -22.9474   -9.7717   19.9854 C   0  0  0  0  0  0  0  0  0  0  0  0
  -26.7600  -16.3045   18.8172 C   0  0  0  0  0  0  0  0  0  0  0  0
  -26.7534  -15.5086   19.9055 C   0  0  0  0  0  0  0  0  0  0  0  0
  -28.9479  -17.2523   17.1276 C   0  0  0  0  0  0  0  0  0  0  0  0
  -22.2031   -7.4189   19.5869 C   0  0  0  0  0  0  0  0  0  0  0  0
  -26.3126  -14.1065   19.7625 C   0  0  0  0  0  0  0  0  0  0  0  0
  -25.4830  -31.7983   22.7704 C   0  0  0  0  0  0  0  0  0  0  0  0
  -28.2002  -24.0967   19.4005 C   0  0  0  0  0  0  0  0  0  0  0  0
  -22.6077  -30.3002   22.6684 C   0  0  0  0  0  0  0  0  0  0  0  0
  -20.7899  -27.5824   21.6904 C   0  0  0  0  0  0  0  0  0  0  0  0
  -24.3710  -35.1954   26.4147 C   0  0  0  0  0  0  0  0  0  0  0  0
  -25.2856  -31.2546   20.3166 C   0  0  0  0  0  0  0  0  0  0  0  0
  -24.6199  -28.9262   22.0137 C   0  0  0  0  0  0  0  0  0  0  0  0
  -24.1490  -33.6987   26.2129 C   0  0  0  0  0  0  0  0  0  0  0  0
  -24.0057  -13.9482   22.6059 C   0  0  0  0  0  0  0  0  0  0  0  0
  -25.4462  -33.0195   25.7853 C   0  0  0  0  0  0  0  0  0  0  0  0
  -23.5685  -12.4869   22.5484 C   0  0  0  0  0  0  0  0  0  0  0  0
  -25.4584  -14.1281   22.1679 C   0  0  0  0  0  0  0  0  0  0  0  0
  -25.3141  -12.0896   20.7665 C   0  0  0  0  0  0  0  0  0  0  0  0
  -25.9459  -33.5774   24.4472 C   0  0  1  0  0  0  0  0  0  0  0  0
  -24.5599  -31.4134   21.6491 C   0  0  1  0  0  0  0  0  0  0  0  0
  -23.8415  -11.8915   21.1580 C   0  0  1  0  0  0  0  0  0  0  0  0
  -29.5197  -17.8211   15.8638 C   0  0  0  0  0  0  0  0  0  0  0  0
  -18.4717  -26.6260   21.7830 C   0  0  0  0  0  0  0  0  0  0  0  0
  -23.0407  -29.5399   25.5915 C   0  0  0  0  0  0  0  0  0  0  0  0
  -21.2210  -27.8379   25.3459 C   0  0  0  0  0  0  0  0  0  0  0  0
  -20.7113  -30.2599   25.0349 C   0  0  0  0  0  0  0  0  0  0  0  0
  -20.5514  -27.5717   18.7405 C   0  0  0  0  0  0  0  0  0  0  0  0
  -27.5633  -22.7430   19.6329 C   0  0  0  0  0  0  0  0  0  0  0  0
  -27.6010  -25.2462   20.1871 C   0  0  0  0  0  0  0  0  0  1  0  0
  -22.0392  -29.0357   23.2658 C   0  0  1  0  0  0  0  0  0  0  0  0
  -19.4527  -27.4672   20.9812 C   0  0  2  0  0  0  0  0  0  0  0  0
  -21.7758  -29.1678   24.7924 C   0  0  0  0  0  0  0  0  0  0  0  0
  -23.5211   -9.6688   22.1781 N   0  0  0  0  0  0  0  0  0  0  0  0
  -23.4259  -10.4340   21.0774 N   0  0  0  0  0  0  0  0  0  0  0  0
  -25.7087  -13.4995   20.8622 N   0  0  0  0  0  0  0  0  0  0  0  0
  -23.8688  -30.1914   22.0654 N   0  0  0  0  0  0  0  0  0  0  0  0
  -22.7883  -10.3911   18.7966 N   0  0  0  0  0  0  0  0  0  0  0  0
  -22.0233   -6.1581   20.1720 N   0  0  0  0  0  0  0  0  0  0  0  0
  -28.2189  -21.7468   18.8247 N   0  0  0  0  0  0  0  0  0  0  0  0
  -25.1859  -33.0168   23.3505 N   0  0  0  0  0  0  0  0  0  0  0  0
  -20.8533  -28.7106   22.4807 N   0  0  0  0  0  0  0  0  0  0  0  0
  -19.6289  -26.8356   19.6429 N   0  3  0  0  0  0  0  0  0  0  0  0
  -29.1368  -16.0581   17.3567 O   0  0  0  0  0  0  0  0  0  0  0  0
  -21.9305   -7.5767   18.3727 O   0  0  0  0  0  0  0  0  0  0  0  0
  -26.5108  -13.5560   18.6779 O   0  0  0  0  0  0  0  0  0  0  0  0
  -26.3961  -31.0449   23.0869 O   0  0  0  0  0  0  0  0  0  0  0  0
  -29.1419  -24.2648   18.6267 O   0  0  0  0  0  0  0  0  0  0  0  0
  -21.9536  -31.3443   22.7281 O   0  0  0  0  0  0  0  0  0  0  0  0
  -21.6870  -26.7526   21.5596 O   0  0  0  0  0  0  0  0  0  0  0  0
  -22.8857   -4.1542   25.2981 O   0  0  0  0  0  0  0  0  0  0  0  0
  -28.2841  -26.4662   19.9019 O   0  0  0  0  0  0  0  0  0  1  0  0
  -18.3361   -1.0390   25.2748 F   0  0  0  0  0  0  0  0  0  0  0  0
  -21.3433   -3.8794   27.5758 F   0  0  0  0  0  0  0  0  0  0  0  0
  1  2  1  0  0  0  0
  1  6  2  0  0  0  0
  2  7  2  0  0  0  0
  3 10  2  0  0  0  0
  3 18  1  0  0  0  0
  4 11  1  0  0  0  0
  4 18  2  0  0  0  0
  5  9  2  0  0  0  0
  5 19  1  0  0  0  0
  6 22  1  0  0  0  0
  7 24  1  0  0  0  0
  8 12  2  0  0  0  0
  8 23  1  0  0  0  0
  9 26  1  0  0  0  0
 10 27  1  0  0  0  0
 11 27  2  0  0  0  0
 12 28  1  0  0  0  0
 13 14  2  0  0  0  0
 13 29  1  0  0  0  0
 14 30  1  0  0  0  0
 15 20  1  0  0  0  0
 15 26  2  0  0  0  0
 16 25  1  0  0  0  0
 16 28  2  0  0  0  0
 17 30  2  0  0  0  0
 17 31  1  0  0  0  0
 18 32  1  0  0  0  0
 19 20  2  0  0  0  0
 19 34  1  0  0  0  0
 20 36  1  0  0  0  0
 21 32  1  0  0  0  0
 21 33  2  0  0  0  0
 21 37  1  0  0  0  0
 22 24  2  0  0  0  0
 22 43  1  0  0  0  0
 23 25  2  0  0  0  0
 23 44  1  0  0  0  0
 24 52  1  0  0  0  0
 25 45  1  0  0  0  0
 26 72  1  0  0  0  0
 27 83  1  0  0  0  0
 28 84  1  0  0  0  0
 29 31  2  0  0  0  0
 29 83  1  0  0  0  0
 30 85  1  0  0  0  0
 31 86  1  0  0  0  0
 32 66  2  0  0  0  0
 33 67  1  0  0  0  0
 33 70  1  0  0  0  0
 34 35  2  0  0  0  0
 35 38  1  0  0  0  0
 36 55  1  0  0  0  0
 36 76  2  0  0  0  0
 37 71  1  0  0  0  0
 37 77  2  0  0  0  0
 38 68  1  0  0  0  0
 38 78  2  0  0  0  0
 39 53  1  0  0  0  0
 39 73  1  0  0  0  0
 39 79  2  0  0  0  0
 40 61  1  0  0  0  0
 40 62  1  0  0  0  0
 40 80  2  0  0  0  0
 41 63  1  0  0  0  0
 41 69  1  0  0  0  0
 41 81  2  0  0  0  0
 42 64  1  0  0  0  0
 42 74  1  0  0  0  0
 42 82  2  0  0  0  0
 43 46  1  0  0  0  0
 44 53  1  0  0  0  0
 45 69  1  0  0  0  0
 46 48  1  0  0  0  0
 47 49  1  0  0  0  0
 47 50  1  0  0  0  0
 48 52  1  0  0  0  0
 49 54  1  0  0  0  0
 50 68  1  0  0  0  0
 51 54  1  0  0  0  0
 51 68  1  0  0  0  0
 52 73  1  0  0  0  0
 53 69  1  0  0  0  0
 54 67  1  0  0  0  0
 56 64  1  0  0  0  0
 57 65  1  0  0  0  0
 58 65  1  0  0  0  0
 59 65  1  0  0  0  0
 60 75  1  0  0  0  0
 61 72  1  0  0  0  0
 62 84  1  0  0  0  0
 63 65  1  0  0  0  0
 63 74  1  0  0  0  0
 64 75  1  0  0  0  0
 66 67  1  0  0  0  0
M  CHG  1  75   1
M  ISO  4  35 100  38 100  62 101  84 101
M  END
> <Batch ID>
0124

> <Smiles>
CNC(C)C(=O)NC(C(=O)N1Cc2cc([101O:1][101CH2:1]C(=O)CNc3ccc(C=[100CH:0][100C:0](=O)N4CCCC(n5nc(-c6ccc(Oc7ccc(F)cc7F)cc6)c(C(N)=O)c5N)C4)c(C(C)=O)c3)ccc2CC1C(=O)NC1CCCc2ccccc21)C(C)(C)C

> <Shape>
0.321

> <Color>
0.083

> <Negative vol penalty>
0.000

$$$$

  -OEChem-04052302063D

 96105  0     1  0  0  0  0  0999 V2000
  -25.8038  -19.1386   19.1513 C   0  0  0  0  0  0  0  0  0  0  0  0
  -26.2973  -20.4312   19.0063 C   0  0  0  0  0  0  0  0  0  0  0  0
  -23.1293   -9.8226   19.8684 C   0  0  0  0  0  0  0  0  0  0  0  0
  -23.7945   -9.7937   22.1909 C   0  0  0  0  0  0  0  0  0  0  0  0
  -32.0982  -18.5986   23.1969 C   0  0  0  0  0  0  0  0  0  0  0  0
  -26.1166  -18.1640   18.2046 C   0  0  0  0  0  0  0  0  0  0  0  0
  -27.1048  -20.7497   17.9150 C   0  0  0  0  0  0  0  0  0  0  0  0
  -25.8109  -25.1449   15.7579 C   0  0  0  0  0  0  0  0  0  0  0  0
  -31.8451  -17.2350   23.0478 C   0  0  0  0  0  0  0  0  0  0  0  0
  -22.3847   -8.6601   20.0672 C   0  0  0  0  0  0  0  0  0  0  0  0
  -23.0498   -8.6311   22.3897 C   0  0  0  0  0  0  0  0  0  0  0  0
  -26.2246  -26.3134   16.3959 C   0  0  0  0  0  0  0  0  0  0  0  0
  -19.8059   -7.8003   22.8447 C   0  0  0  0  0  0  0  0  0  0  0  0
  -19.0019   -7.7341   23.9826 C   0  0  0  0  0  0  0  0  0  0  0  0
  -30.1595  -19.1061   21.8475 C   0  0  0  0  0  0  0  0  0  0  0  0
  -28.0537  -26.5106   14.8356 C   0  0  0  0  0  0  0  0  0  0  0  0
  -29.1629  -25.9316   20.5862 C   0  0  0  0  0  0  0  0  0  0  0  0
  -20.2269   -5.7924   24.7352 C   0  0  0  0  0  0  0  0  0  0  0  0
  -23.8343  -10.3894   20.9303 C   0  0  0  0  0  0  0  0  0  0  0  0
  -31.2554  -19.5341   22.5968 C   0  0  0  0  0  0  0  0  0  0  0  0
  -30.8663  -24.3722   21.2579 C   0  0  0  0  0  0  0  0  0  0  0  0
  -24.1614  -12.9186   20.8690 C   0  0  0  0  0  0  0  0  0  0  0  0
  -26.9204  -18.4731   17.0960 C   0  0  0  0  0  0  0  0  0  0  0  0
  -26.5230  -24.6436   14.6588 C   0  0  0  0  0  0  0  0  0  0  0  0
  -27.4297  -19.7780   16.9533 C   0  0  0  0  0  0  0  0  0  0  0  0
  -27.6454  -25.3369   14.1838 C   0  0  0  0  0  0  0  0  0  0  0  0
  -29.9064  -17.7425   21.6983 C   0  0  0  0  0  0  0  0  0  0  0  0
  -29.6378  -24.9826   21.4846 C   0  0  0  0  0  0  0  0  0  0  0  0
  -30.7492  -16.8070   22.2985 C   0  0  0  0  0  0  0  0  0  0  0  0
  -22.3449   -8.0643   21.3278 C   0  0  0  0  0  0  0  0  0  0  0  0
  -27.3479  -26.9949   15.9366 C   0  0  0  0  0  0  0  0  0  0  0  0
  -20.8203   -6.8625   22.6520 C   0  0  0  0  0  0  0  0  0  0  0  0
  -19.2124   -6.7302   24.9278 C   0  0  0  0  0  0  0  0  0  0  0  0
  -21.0308   -5.8586   23.5972 C   0  0  0  0  0  0  0  0  0  0  0  0
  -24.6042  -11.5900   20.7255 C   0  0  0  0  0  0  0  0  0  0  0  0
  -31.5757  -24.7429   20.1269 C   0  0  0  0  0  0  0  0  0  0  0  0
  -29.9487  -26.2326   19.4853 C   0  0  0  0  0  0  0  0  0  0  0  0
  -25.2618  -13.6821   20.5643 C   0  0  0  0  0  0  0  0  0  0  0  0
  -29.6969  -15.0003   24.3725 C   0  0  0  0  0  0  0  0  0  0  0  0
  -31.5233  -20.9744   22.7548 C   0  0  0  0  0  0  0  0  0  0  0  0
  -31.0433  -21.9302   21.9456 C   0  0  0  0  0  0  0  0  0  0  0  0
  -30.2737  -14.5675   23.2492 C   0  0  0  0  0  0  0  0  0  0  0  0
  -31.3871  -23.3726   22.1818 C   0  0  0  0  0  0  0  0  0  0  0  0
  -22.8709  -13.4181   21.2444 C   0  0  0  0  0  0  0  0  0  0  0  0
  -28.1198  -21.9625   14.0543 C   0  0  0  0  0  0  0  0  0  0  0  0
  -28.3315  -23.2213   11.0722 C   0  0  0  0  0  0  0  0  0  0  0  0
  -28.2952  -25.9999    9.0910 C   0  0  0  0  0  0  0  0  0  0  0  0
  -30.6587  -14.7911   20.8770 C   0  0  0  0  0  0  0  0  0  0  0  0
  -27.2703  -17.3743   16.1240 C   0  0  0  0  0  0  0  0  0  0  0  0
  -26.0481  -23.3964   13.9650 C   0  0  0  0  0  0  0  0  0  0  0  0
  -28.4328  -24.8516   12.9951 C   0  0  0  0  0  0  0  0  0  0  0  0
  -27.8245  -17.8880   14.7977 C   0  0  0  0  0  0  0  0  0  0  0  0
  -29.6968  -12.4109   18.5110 C   0  0  0  0  0  0  0  0  0  0  0  0
  -28.8840  -18.9582   15.0405 C   0  0  0  0  0  0  0  0  0  0  0  0
  -28.2513  -12.0830   18.8840 C   0  0  0  0  0  0  0  0  0  0  0  0
  -30.5587  -12.5786   19.7571 C   0  0  0  0  0  0  0  0  0  0  0  0
  -28.6021  -13.2971   21.0910 C   0  0  0  0  0  0  0  0  0  0  0  0
  -28.2885  -20.1685   15.7700 C   0  0  1  0  0  0  0  0  0  0  0  0
  -27.1489  -22.6970   13.1736 C   0  0  1  0  0  0  0  0  0  0  0  0
  -27.6840  -13.1247   19.8643 C   0  0  2  0  0  0  0  0  0  0  0  0
  -28.7253  -17.3121   20.8902 C   0  0  0  0  0  0  0  0  0  0  0  0
  -28.8102  -24.6395   22.6798 C   0  0  0  0  0  0  0  0  0  0  0  0
  -32.9021  -24.1232   19.8268 C   0  0  0  0  0  0  0  0  0  0  0  0
  -28.5316  -26.7159    6.6975 C   0  0  0  0  0  0  0  0  0  0  0  0
  -29.3571  -29.7600   17.2361 C   0  0  0  0  0  0  0  0  0  0  0  0
  -31.3510  -22.8216   11.2534 C   0  0  0  0  0  0  0  0  0  0  0  0
  -31.6040  -24.3824    9.3122 C   0  0  0  0  0  0  0  0  0  0  0  0
  -30.3533  -22.2420    9.0346 C   0  0  0  0  0  0  0  0  0  0  0  0
  -25.5609  -27.1312    9.0381 C   0  0  0  0  0  0  0  0  0  0  0  0
  -29.9192  -27.3075   17.2338 C   0  0  0  0  0  0  0  0  0  0  0  0
  -29.3091  -24.1248   10.3600 C   0  0  1  0  0  0  0  0  0  0  0  0
  -27.5639  -26.3041    7.7960 C   0  0  2  0  0  0  0  0  0  0  0  0
  -29.1512  -28.4260   16.5334 C   0  0  1  0  0  0  0  0  0  1  0  0
  -30.6409  -23.4010   10.0137 C   0  0  0  0  0  0  0  0  0  0  0  0
  -25.8858  -11.5105   20.3579 N   0  0  0  0  0  0  0  0  0  0  0  0
  -31.1470  -25.6606   19.2316 N   0  0  0  0  0  0  0  0  0  0  0  0
  -26.2578  -12.7988   20.2679 N   0  0  0  0  0  0  0  0  0  0  0  0
  -27.9324  -23.6240   12.3545 N   0  0  0  0  0  0  0  0  0  0  0  0
  -29.9840  -13.5724   20.6646 N   0  0  0  0  0  0  0  0  0  0  0  0
  -25.4648  -15.0161   20.5235 N   0  0  0  0  0  0  0  0  0  0  0  0
  -21.8530  -12.4960   21.5236 N   0  0  0  0  0  0  0  0  0  0  0  0
  -29.4620  -27.1787   18.5989 N   0  0  0  0  0  0  0  0  0  0  0  0
  -27.5369  -20.9942   14.8492 N   0  0  0  0  0  0  0  0  0  0  0  0
  -28.6012  -24.6600    9.2021 N   0  0  0  0  0  0  0  0  0  0  0  0
  -30.5037  -15.3867   22.1558 N   0  0  0  0  0  0  0  0  0  0  0  0
  -26.5868  -27.4107    8.0006 N   0  3  0  0  0  0  0  0  0  0  0  0
  -32.1181  -23.7028   23.1258 O   0  0  0  0  0  0  0  0  0  0  0  0
  -22.6231  -14.6458   21.3136 O   0  0  0  0  0  0  0  0  0  0  0  0
  -29.3099  -22.2519   14.0144 O   0  0  0  0  0  0  0  0  0  0  0  0
  -27.9312  -22.1997   10.5085 O   0  0  0  0  0  0  0  0  0  0  0  0
  -28.5709  -26.8649    9.9193 O   0  0  0  0  0  0  0  0  0  0  0  0
  -31.3666  -15.3047   20.0011 O   0  0  0  0  0  0  0  0  0  0  0  0
  -21.6182   -6.9300   21.5221 O   0  0  0  0  0  0  0  0  0  0  0  0
  -27.7543  -28.1354   16.5579 O   0  0  0  0  0  0  0  0  0  1  0  0
  -18.4412   -6.6677   26.0213 F   0  0  0  0  0  0  0  0  0  0  0  0
  -22.0046   -4.9555   23.4181 F   0  0  0  0  0  0  0  0  0  0  0  0
  1  2  1  0  0  0  0
  1  6  2  0  0  0  0
  2  7  2  0  0  0  0
  3 10  2  0  0  0  0
  3 19  1  0  0  0  0
  4 11  1  0  0  0  0
  4 19  2  0  0  0  0
  5  9  2  0  0  0  0
  5 20  1  0  0  0  0
  6 23  1  0  0  0  0
  7 25  1  0  0  0  0
  8 12  2  0  0  0  0
  8 24  1  0  0  0  0
  9 29  1  0  0  0  0
 10 30  1  0  0  0  0
 11 30  2  0  0  0  0
 12 31  1  0  0  0  0
 13 14  2  0  0  0  0
 13 32  1  0  0  0  0
 14 33  1  0  0  0  0
 15 20  2  0  0  0  0
 15 27  1  0  0  0  0
 16 26  1  0  0  0  0
 16 31  2  0  0  0  0
 17 28  2  0  0  0  0
 17 37  1  0  0  0  0
 18 33  2  0  0  0  0
 18 34  1  0  0  0  0
 19 35  1  0  0  0  0
 20 40  1  0  0  0  0
 21 28  1  0  0  0  0
 21 36  2  0  0  0  0
 21 43  1  0  0  0  0
 22 35  1  0  0  0  0
 22 38  2  0  0  0  0
 22 44  1  0  0  0  0
 23 25  2  0  0  0  0
 23 49  1  0  0  0  0
 24 26  2  0  0  0  0
 24 50  1  0  0  0  0
 25 58  1  0  0  0  0
 26 51  1  0  0  0  0
 27 29  2  0  0  0  0
 27 61  1  0  0  0  0
 28 62  1  0  0  0  0
 29 85  1  0  0  0  0
 30 93  1  0  0  0  0
 31 94  1  0  0  0  0
 32 34  2  0  0  0  0
 32 93  1  0  0  0  0
 33 95  1  0  0  0  0
 34 96  1  0  0  0  0
 35 75  2  0  0  0  0
 36 63  1  0  0  0  0
 36 76  1  0  0  0  0
 37 76  2  0  0  0  0
 37 82  1  0  0  0  0
 38 77  1  0  0  0  0
 38 80  1  0  0  0  0
 39 42  2  0  0  0  0
 40 41  2  0  0  0  0
 41 43  1  0  0  0  0
 42 85  1  0  0  0  0
 43 87  2  0  0  0  0
 44 81  1  0  0  0  0
 44 88  2  0  0  0  0
 45 59  1  0  0  0  0
 45 83  1  0  0  0  0
 45 89  2  0  0  0  0
 46 71  1  0  0  0  0
 46 78  1  0  0  0  0
 46 90  2  0  0  0  0
 47 72  1  0  0  0  0
 47 84  1  0  0  0  0
 47 91  2  0  0  0  0
 48 79  1  0  0  0  0
 48 85  1  0  0  0  0
 48 92  2  0  0  0  0
 49 52  1  0  0  0  0
 50 59  1  0  0  0  0
 51 78  1  0  0  0  0
 52 54  1  0  0  0  0
 53 55  1  0  0  0  0
 53 56  1  0  0  0  0
 54 58  1  0  0  0  0
 55 60  1  0  0  0  0
 56 79  1  0  0  0  0
 57 60  1  0  0  0  0
 57 79  1  0  0  0  0
 58 83  1  0  0  0  0
 59 78  1  0  0  0  0
 60 77  1  0  0  0  0
 64 72  1  0  0  0  0
 65 73  1  0  0  0  0
 66 74  1  0  0  0  0
 67 74  1  0  0  0  0
 68 74  1  0  0  0  0
 69 86  1  0  0  0  0
 70 73  1  0  0  0  0
 70 82  1  0  0  0  0
 71 74  1  0  0  0  0
 71 84  1  0  0  0  0
 72 86  1  0  0  0  0
 73 94  1  0  0  0  0
 75 77  1  0  0  0  0
M  CHG  1  86   1
M  ISO  4  48 100  73 101  85 100  94 101
M  END
> <Batch ID>
0124

> <Smiles>
C=C[100N:0](c1ccc(C=CC(=O)c2c(C)cc(NC[101CH:1](C)[101O:1]c3ccc4c(c3)CN(C(=O)C(NC(=O)C(C)NC)C(C)(C)C)C(C(=O)NC3CCCc5ccccc53)C4)nc2C)cc1C)[100C:0](=O)N1CCCC(n2nc(-c3ccc(Oc4ccc(F)cc4F)cc3)c(C(N)=O)c2N)C1

> <Shape>
0.209

> <Color>
0.196

> <Negative vol penalty>
0.000

$$$$

  -OEChem-04052302063D

 86 94  0     1  0  0  0  0  0999 V2000
  -29.6322  -35.1817   19.5375 C   0  0  0  0  0  0  0  0  0  0  0  0
  -29.5876  -33.7914   19.5622 C   0  0  0  0  0  0  0  0  0  0  0  0
  -24.8900   -8.2671   21.0829 C   0  0  0  0  0  0  0  0  0  0  0  0
  -23.4603  -10.1826   20.7310 C   0  0  0  0  0  0  0  0  0  0  0  0
  -29.0090  -35.9159   20.5457 C   0  0  0  0  0  0  0  0  0  0  0  0
  -28.9206  -33.1345   20.5956 C   0  0  0  0  0  0  0  0  0  0  0  0
  -26.0035  -29.3464   18.9266 C   0  0  0  0  0  0  0  0  0  0  0  0
  -23.7674   -7.4710   21.3105 C   0  0  0  0  0  0  0  0  0  0  0  0
  -22.3377   -9.3865   20.9585 C   0  0  0  0  0  0  0  0  0  0  0  0
  -26.6408  -28.1532   18.5892 C   0  0  0  0  0  0  0  0  0  0  0  0
  -21.6025   -6.8829   23.8386 C   0  0  0  0  0  0  0  0  0  0  0  0
  -21.6385   -6.0084   24.9246 C   0  0  0  0  0  0  0  0  0  0  0  0
  -26.0001  -27.2162   20.7178 C   0  0  0  0  0  0  0  0  0  0  0  0
  -29.8276  -18.6774   21.2365 C   0  0  0  0  0  0  0  0  0  0  0  0
  -29.4214  -19.0671   18.5042 C   0  0  0  0  0  0  0  0  0  0  0  0
  -21.3306   -4.1371   23.4277 C   0  0  0  0  0  0  0  0  0  0  0  0
  -24.7364   -9.6229   20.7932 C   0  0  0  0  0  0  0  0  0  0  0  0
  -26.5282  -10.6916   19.3252 C   0  0  0  0  0  0  0  0  0  0  0  0
  -28.3258  -35.2679   21.5868 C   0  0  0  0  0  0  0  0  0  0  0  0
  -25.3681  -29.4875   20.1687 C   0  0  0  0  0  0  0  0  0  0  0  0
  -28.2888  -33.8608   21.6194 C   0  0  0  0  0  0  0  0  0  0  0  0
  -25.3533  -28.4113   21.0675 C   0  0  0  0  0  0  0  0  0  0  0  0
  -29.9109  -19.9602   20.6951 C   0  0  0  0  0  0  0  0  0  0  0  0
  -29.3382  -17.7843   19.0457 C   0  0  0  0  0  0  0  0  0  0  0  0
  -29.5414  -17.5895   20.4118 C   0  0  0  0  0  0  0  0  0  0  0  0
  -22.4913   -8.0307   21.2482 C   0  0  0  0  0  0  0  0  0  0  0  0
  -26.6416  -27.0888   19.4860 C   0  0  0  0  0  0  0  0  0  0  0  0
  -21.4304   -6.3846   22.5472 C   0  0  0  0  0  0  0  0  0  0  0  0
  -29.7077  -20.1551   19.3289 C   0  0  0  0  0  0  0  0  0  0  0  0
  -21.5026   -4.6354   24.7192 C   0  0  0  0  0  0  0  0  0  0  0  0
  -21.2945   -5.0117   22.3418 C   0  0  0  0  0  0  0  0  0  0  0  0
  -25.8956  -10.4458   20.5586 C   0  0  0  0  0  0  0  0  0  0  0  0
  -27.5720  -11.5287   19.6354 C   0  0  0  0  0  0  0  0  0  0  0  0
  -26.2014  -10.2066   18.0161 C   0  0  0  0  0  0  0  0  0  0  0  0
  -25.7660  -31.3823   22.6896 C   0  0  0  0  0  0  0  0  0  0  0  0
  -28.5531  -23.4167   18.2552 C   0  0  0  0  0  0  0  0  0  0  0  0
  -23.0537  -29.9311   23.7190 C   0  0  0  0  0  0  0  0  0  0  0  0
  -20.9883  -27.2178   23.5814 C   0  0  0  0  0  0  0  0  0  0  0  0
  -29.6403  -15.9470   22.3194 C   0  0  0  0  0  0  0  0  0  0  0  0
  -27.7078  -36.1032   22.6800 C   0  0  0  0  0  0  0  0  0  0  0  0
  -24.6622  -30.7720   20.5067 C   0  0  0  0  0  0  0  0  0  0  0  0
  -24.6679  -28.5049   22.4054 C   0  0  0  0  0  0  0  0  0  0  0  0
  -26.7023  -35.3380   23.5366 C   0  0  0  0  0  0  0  0  0  0  0  0
  -29.4901  -12.8795   24.1207 C   0  0  0  0  0  0  0  0  0  0  0  0
  -27.2696  -33.9812   23.9416 C   0  0  0  0  0  0  0  0  0  0  0  0
  -28.5936  -11.9931   23.2531 C   0  0  0  0  0  0  0  0  0  0  0  0
  -29.0289  -14.3358   24.1097 C   0  0  0  0  0  0  0  0  0  0  0  0
  -27.9665  -14.0381   21.9071 C   0  0  0  0  0  0  0  0  0  0  0  0
  -27.5540  -33.1124   22.7103 C   0  0  1  0  0  0  0  0  0  0  0  0
  -24.4885  -30.9812   22.0078 C   0  0  1  0  0  0  0  0  0  0  0  0
  -28.4299  -12.5739   21.8349 C   0  0  2  0  0  0  0  0  0  0  0  0
  -30.2198  -21.1125   21.5929 C   0  0  0  0  0  0  0  0  0  0  0  0
  -30.2700  -15.8117   17.8100 C   0  0  0  0  0  0  0  0  0  0  0  0
  -18.8682  -26.3041   24.5651 C   0  0  0  0  0  0  0  0  0  0  0  0
  -24.5449  -29.2476   26.2917 C   0  0  0  0  0  0  0  0  0  0  0  0
  -22.7569  -27.5705   26.8003 C   0  0  0  0  0  0  0  0  0  0  0  0
  -22.1801  -29.9910   26.6227 C   0  0  0  0  0  0  0  0  0  0  0  0
  -19.6635  -27.1266   20.9365 C   0  0  0  0  0  0  0  0  0  0  0  0
  -29.0302  -16.6371   18.1391 C   0  0  0  0  0  0  0  0  0  0  0  0
  -27.3393  -24.0656   17.6065 C   0  0  0  0  0  0  0  0  0  0  0  0
  -28.6327  -21.9074   18.1334 C   0  0  0  0  0  0  0  0  0  0  0  0
  -27.3105  -25.5778   17.7757 C   0  0  0  0  0  0  0  0  0  1  0  0
  -22.7436  -28.6941   24.5268 C   0  0  1  0  0  0  0  0  0  0  0  0
  -19.4823  -27.1051   23.4275 C   0  0  2  0  0  0  0  0  0  0  0  0
  -23.0711  -28.8744   26.0361 C   0  0  0  0  0  0  0  0  0  0  0  0
  -26.4882  -11.0757   21.5765 N   0  0  0  0  0  0  0  0  0  0  0  0
  -27.5040  -11.7255   20.9833 N   0  0  0  0  0  0  0  0  0  0  0  0
  -23.9971  -29.7836   22.6923 N   0  0  0  0  0  0  0  0  0  0  0  0
  -28.9002  -14.8193   22.7333 N   0  0  0  0  0  0  0  0  0  0  0  0
  -28.5322  -12.1082   18.8840 N   0  0  0  0  0  0  0  0  0  0  0  0
  -25.0969   -9.3554   17.8754 N   0  0  0  0  0  0  0  0  0  0  0  0
  -29.4618  -16.2942   20.9807 N   0  0  0  0  0  0  0  0  0  0  0  0
  -26.3254  -32.5458   22.1968 N   0  0  0  0  0  0  0  0  0  0  0  0
  -21.3485  -28.3669   24.2531 N   0  0  0  0  0  0  0  0  0  0  0  0
  -19.1418  -26.4326   22.1419 N   0  3  0  0  0  0  0  0  0  0  0  0
  -26.8790  -10.5057   17.0037 O   0  0  0  0  0  0  0  0  0  0  0  0
  -26.2104  -30.6885   23.5966 O   0  0  0  0  0  0  0  0  0  0  0  0
  -29.4193  -24.0654   18.8397 O   0  0  0  0  0  0  0  0  0  0  0  0
  -22.4748  -30.9875   23.9844 O   0  0  0  0  0  0  0  0  0  0  0  0
  -21.7671  -26.3694   23.1521 O   0  0  0  0  0  0  0  0  0  0  0  0
  -30.3991  -16.5432   23.0881 O   0  0  0  0  0  0  0  0  0  0  0  0
  -21.3957   -7.2542   21.4700 O   0  0  0  0  0  0  0  0  0  0  0  0
  -29.7867  -21.4127   18.7792 O   0  0  0  0  0  0  0  0  0  0  0  0
  -27.2635  -25.9232   19.1594 O   0  0  0  0  0  0  0  0  0  1  0  0
  -21.5387   -3.7955   25.7620 F   0  0  0  0  0  0  0  0  0  0  0  0
  -21.1301   -4.5270   21.1033 F   0  0  0  0  0  0  0  0  0  0  0  0
  1  2  1  0  0  0  0
  1  5  2  0  0  0  0
  2  6  2  0  0  0  0
  3  8  2  0  0  0  0
  3 17  1  0  0  0  0
  4  9  1  0  0  0  0
  4 17  2  0  0  0  0
  5 19  1  0  0  0  0
  6 21  1  0  0  0  0
  7 10  2  0  0  0  0
  7 20  1  0  0  0  0
  8 26  1  0  0  0  0
  9 26  2  0  0  0  0
 10 27  1  0  0  0  0
 11 12  2  0  0  0  0
 11 28  1  0  0  0  0
 12 30  1  0  0  0  0
 13 22  1  0  0  0  0
 13 27  2  0  0  0  0
 14 23  2  0  0  0  0
 14 25  1  0  0  0  0
 15 24  1  0  0  0  0
 15 29  2  0  0  0  0
 16 30  2  0  0  0  0
 16 31  1  0  0  0  0
 17 32  1  0  0  0  0
 18 32  1  0  0  0  0
 18 33  2  0  0  0  0
 18 34  1  0  0  0  0
 19 21  2  0  0  0  0
 19 40  1  0  0  0  0
 20 22  2  0  0  0  0
 20 41  1  0  0  0  0
 21 49  1  0  0  0  0
 22 42  1  0  0  0  0
 23 29  1  0  0  0  0
 23 52  1  0  0  0  0
 24 25  2  0  0  0  0
 24 59  1  0  0  0  0
 25 72  1  0  0  0  0
 26 82  1  0  0  0  0
 27 84  1  0  0  0  0
 28 31  2  0  0  0  0
 28 82  1  0  0  0  0
 29 83  1  0  0  0  0
 30 85  1  0  0  0  0
 31 86  1  0  0  0  0
 32 66  2  0  0  0  0
 33 67  1  0  0  0  0
 33 70  1  0  0  0  0
 34 71  1  0  0  0  0
 34 76  2  0  0  0  0
 35 50  1  0  0  0  0
 35 73  1  0  0  0  0
 35 77  2  0  0  0  0
 36 60  1  0  0  0  0
 36 61  1  0  0  0  0
 36 78  2  0  0  0  0
 37 63  1  0  0  0  0
 37 68  1  0  0  0  0
 37 79  2  0  0  0  0
 38 64  1  0  0  0  0
 38 74  1  0  0  0  0
 38 80  2  0  0  0  0
 39 69  1  0  0  0  0
 39 72  1  0  0  0  0
 39 81  2  0  0  0  0
 40 43  1  0  0  0  0
 41 50  1  0  0  0  0
 42 68  1  0  0  0  0
 43 45  1  0  0  0  0
 44 46  1  0  0  0  0
 44 47  1  0  0  0  0
 45 49  1  0  0  0  0
 46 51  1  0  0  0  0
 47 69  1  0  0  0  0
 48 51  1  0  0  0  0
 48 69  1  0  0  0  0
 49 73  1  0  0  0  0
 50 68  1  0  0  0  0
 51 67  1  0  0  0  0
 53 59  1  0  0  0  0
 54 64  1  0  0  0  0
 55 65  1  0  0  0  0
 56 65  1  0  0  0  0
 57 65  1  0  0  0  0
 58 75  1  0  0  0  0
 60 62  1  0  0  0  0
 61 83  1  0  0  0  0
 62 84  1  0  0  0  0
 63 65  1  0  0  0  0
 63 74  1  0  0  0  0
 64 75  1  0  0  0  0
 66 67  1  0  0  0  0
M  CHG  1  75   1
M  ISO  4  39 100  62 101  72 100  84 101
M  END
> <Batch ID>
0124

> <Smiles>
CCc1cc(OCC(=O)C[101CH2:1][101O:1]c2ccc3c(c2)CN(C(=O)C(NC(=O)C(C)NC)C(C)(C)C)C(C(=O)NC2CCCc4ccccc42)C3)c(C)cc1[100NH:0][100C:0](=O)N1CCCC(n2nc(-c3ccc(Oc4ccc(F)cc4F)cc3)c(C(N)=O)c2N)C1

> <Shape>
0.310

> <Color>
0.090

> <Negative vol penalty>
0.000

$$$$

  -OEChem-04052302063D

 85 93  0     1  0  0  0  0  0999 V2000
  -32.4747  -36.8437   26.7019 C   0  0  0  0  0  0  0  0  0  0  0  0
  -32.3400  -35.5136   26.3170 C   0  0  0  0  0  0  0  0  0  0  0  0
  -24.2994   -9.0704   21.9887 C   0  0  0  0  0  0  0  0  0  0  0  0
  -23.8846   -8.6384   19.6481 C   0  0  0  0  0  0  0  0  0  0  0  0
  -27.9468  -20.9852   22.2926 C   0  0  0  0  0  0  0  0  0  0  0  0
  -28.1666  -22.3479   22.0919 C   0  0  0  0  0  0  0  0  0  0  0  0
  -31.4618  -37.4626   27.4331 C   0  0  0  0  0  0  0  0  0  0  0  0
  -31.1926  -34.8013   26.6642 C   0  0  0  0  0  0  0  0  0  0  0  0
  -29.3578  -32.0755   22.8108 C   0  0  0  0  0  0  0  0  0  0  0  0
  -23.2222   -8.2529   22.3305 C   0  0  0  0  0  0  0  0  0  0  0  0
  -22.8074   -7.8208   19.9899 C   0  0  0  0  0  0  0  0  0  0  0  0
  -30.0041  -30.8761   22.5147 C   0  0  0  0  0  0  0  0  0  0  0  0
  -22.5929   -4.9409   22.5909 C   0  0  0  0  0  0  0  0  0  0  0  0
  -22.7771   -4.0256   23.6271 C   0  0  0  0  0  0  0  0  0  0  0  0
  -27.3007  -20.7483   19.9767 C   0  0  0  0  0  0  0  0  0  0  0  0
  -28.2891  -29.6657   23.7034 C   0  0  0  0  0  0  0  0  0  0  0  0
  -20.9897   -5.0732   24.8701 C   0  0  0  0  0  0  0  0  0  0  0  0
  -24.6306   -9.2632   20.6474 C   0  0  0  0  0  0  0  0  0  0  0  0
  -27.5139  -20.1854   21.2350 C   0  0  0  0  0  0  0  0  0  0  0  0
  -27.9534  -22.9108   20.8336 C   0  0  0  0  0  0  0  0  0  0  0  0
  -27.0858   -9.7200   20.1271 C   0  0  0  0  0  0  0  0  0  0  0  0
  -30.2971  -36.7604   27.7811 C   0  0  0  0  0  0  0  0  0  0  0  0
  -28.1762  -32.0798   23.5660 C   0  0  0  0  0  0  0  0  0  0  0  0
  -30.1637  -35.4110   27.4020 C   0  0  0  0  0  0  0  0  0  0  0  0
  -27.6284  -30.8662   24.0055 C   0  0  0  0  0  0  0  0  0  0  0  0
  -27.5205  -22.1110   19.7759 C   0  0  0  0  0  0  0  0  0  0  0  0
  -22.4762   -7.6281   21.3311 C   0  0  0  0  0  0  0  0  0  0  0  0
  -29.4713  -29.6712   22.9635 C   0  0  0  0  0  0  0  0  0  0  0  0
  -21.6072   -5.9225   22.6943 C   0  0  0  0  0  0  0  0  0  0  0  0
  -21.9755   -4.0917   24.7667 C   0  0  0  0  0  0  0  0  0  0  0  0
  -20.8056   -5.9886   23.8339 C   0  0  0  0  0  0  0  0  0  0  0  0
  -25.7429  -10.1081   20.2937 C   0  0  0  0  0  0  0  0  0  0  0  0
  -27.7402  -10.8813   19.7959 C   0  0  0  0  0  0  0  0  0  0  0  0
  -27.2842  -18.7647   21.4454 C   0  0  0  0  0  0  0  0  0  0  0  0
  -28.1948  -24.3533   20.6535 C   0  0  0  0  0  0  0  0  0  0  0  0
  -26.5269  -17.9690   20.6605 C   0  0  0  0  0  0  0  0  0  0  0  0
  -29.3676  -24.9627   20.8771 C   0  0  0  0  0  0  0  0  0  0  0  0
  -27.6879   -8.4256   20.2598 C   0  0  0  0  0  0  0  0  0  0  0  0
  -29.5066  -26.4357   20.6736 C   0  0  0  0  0  0  0  0  0  0  0  0
  -26.3985  -16.5380   21.0020 C   0  0  0  0  0  0  0  0  0  0  0  0
  -27.3097  -33.3040   26.3685 C   0  0  0  0  0  0  0  0  0  0  0  0
  -24.3779  -32.2277   25.4918 C   0  0  0  0  0  0  0  0  0  0  0  0
  -22.5306  -30.0540   23.6185 C   0  0  0  0  0  0  0  0  0  0  0  0
  -29.2501  -37.4579   28.6130 C   0  0  0  0  0  0  0  0  0  0  0  0
  -27.4769  -33.3799   23.8541 C   0  0  0  0  0  0  0  0  0  0  0  0
  -26.3514  -30.8150   24.8023 C   0  0  0  0  0  0  0  0  0  0  0  0
  -27.9011  -36.7436   28.6183 C   0  0  0  0  0  0  0  0  0  0  0  0
  -27.0558  -15.1076   17.6924 C   0  0  0  0  0  0  0  0  0  0  0  0
  -28.0894  -35.2488   28.8569 C   0  0  0  0  0  0  0  0  0  0  0  0
  -26.8658  -13.6193   17.9727 C   0  0  0  0  0  0  0  0  0  0  0  0
  -26.1138  -15.9718   18.5293 C   0  0  0  0  0  0  0  0  0  0  0  0
  -26.0129  -14.2154   20.2743 C   0  0  0  0  0  0  0  0  0  0  0  0
  -28.9231  -34.6123   27.7382 C   0  0  1  0  0  0  0  0  0  0  0  0
  -26.5563  -33.3069   25.0684 C   0  0  1  0  0  0  0  0  0  0  0  0
  -26.9833  -13.3295   19.4775 C   0  0  1  0  0  0  0  0  0  0  0  0
  -27.2809  -22.6802   18.4144 C   0  0  0  0  0  0  0  0  0  0  0  0
  -20.1585  -29.3876   23.1422 C   0  0  0  0  0  0  0  0  0  0  0  0
  -24.2580  -30.7554   28.1616 C   0  0  0  0  0  0  0  0  0  0  0  0
  -22.3708  -29.3896   27.2444 C   0  0  0  0  0  0  0  0  0  0  0  0
  -22.1195  -31.8600   27.4825 C   0  0  0  0  0  0  0  0  0  0  0  0
  -22.7830  -30.7655   20.7569 C   0  0  0  0  0  0  0  0  0  0  0  0
  -30.8875  -27.0048   20.9613 C   0  0  0  0  0  0  0  0  0  0  0  0
  -30.8437  -28.4420   21.4596 C   0  0  0  0  0  0  0  0  0  1  0  0
  -23.6170  -30.9357   25.6671 C   0  0  1  0  0  0  0  0  0  0  0  0
  -21.3241  -30.2698   22.7228 C   0  0  2  0  0  0  0  0  0  0  0  0
  -23.1165  -30.7360   27.1256 C   0  0  0  0  0  0  0  0  0  0  0  0
  -25.5538  -11.4138   20.0856 N   0  0  0  0  0  0  0  0  0  0  0  0
  -26.7866  -11.8564   19.7850 N   0  0  0  0  0  0  0  0  0  0  0  0
  -26.2018  -15.6356   19.9582 N   0  0  0  0  0  0  0  0  0  0  0  0
  -25.7082  -32.1133   25.0638 N   0  0  0  0  0  0  0  0  0  0  0  0
  -29.0325  -11.1533   19.5159 N   0  0  0  0  0  0  0  0  0  0  0  0
  -26.8706   -7.3408   20.6057 N   0  0  0  0  0  0  0  0  0  0  0  0
  -28.1133  -34.4125   26.5556 N   0  0  0  0  0  0  0  0  0  0  0  0
  -22.5546  -30.9488   24.6673 N   0  0  0  0  0  0  0  0  0  0  0  0
  -21.6669  -29.9541   21.3072 N   0  3  0  0  0  0  0  0  0  0  0  0
  -28.9172   -8.2395   20.0931 O   0  0  0  0  0  0  0  0  0  0  0  0
  -28.5640  -27.1277   20.2986 O   0  0  0  0  0  0  0  0  0  0  0  0
  -26.4686  -16.2291   22.1930 O   0  0  0  0  0  0  0  0  0  0  0  0
  -27.1710  -32.3663   27.1451 O   0  0  0  0  0  0  0  0  0  0  0  0
  -23.8107  -33.2992   25.7191 O   0  0  0  0  0  0  0  0  0  0  0  0
  -23.3660  -29.1768   23.4109 O   0  0  0  0  0  0  0  0  0  0  0  0
  -21.4251   -6.8301   21.6643 O   0  0  0  0  0  0  0  0  0  0  0  0
  -30.1004  -28.4991   22.6765 O   0  0  0  0  0  0  0  0  0  1  0  0
  -22.1514   -3.2116   25.7610 F   0  0  0  0  0  0  0  0  0  0  0  0
  -19.8563   -6.9286   23.9385 F   0  0  0  0  0  0  0  0  0  0  0  0
  1  2  1  0  0  0  0
  1  7  2  0  0  0  0
  2  8  2  0  0  0  0
  3 10  2  0  0  0  0
  3 18  1  0  0  0  0
  4 11  1  0  0  0  0
  4 18  2  0  0  0  0
  5  6  2  0  0  0  0
  5 19  1  0  0  0  0
  6 20  1  0  0  0  0
  7 22  1  0  0  0  0
  8 24  1  0  0  0  0
  9 12  2  0  0  0  0
  9 23  1  0  0  0  0
 10 27  1  0  0  0  0
 11 27  2  0  0  0  0
 12 28  1  0  0  0  0
 13 14  2  0  0  0  0
 13 29  1  0  0  0  0
 14 30  1  0  0  0  0
 15 19  2  0  0  0  0
 15 26  1  0  0  0  0
 16 25  1  0  0  0  0
 16 28  2  0  0  0  0
 17 30  2  0  0  0  0
 17 31  1  0  0  0  0
 18 32  1  0  0  0  0
 19 34  1  0  0  0  0
 20 26  2  0  0  0  0
 20 35  1  0  0  0  0
 21 32  1  0  0  0  0
 21 33  2  0  0  0  0
 21 38  1  0  0  0  0
 22 24  2  0  0  0  0
 22 44  1  0  0  0  0
 23 25  2  0  0  0  0
 23 45  1  0  0  0  0
 24 53  1  0  0  0  0
 25 46  1  0  0  0  0
 26 56  1  0  0  0  0
 27 82  1  0  0  0  0
 28 83  1  0  0  0  0
 29 31  2  0  0  0  0
 29 82  1  0  0  0  0
 30 84  1  0  0  0  0
 31 85  1  0  0  0  0
 32 67  2  0  0  0  0
 33 68  1  0  0  0  0
 33 71  1  0  0  0  0
 34 36  2  0  0  0  0
 35 37  2  0  0  0  0
 36 40  1  0  0  0  0
 37 39  1  0  0  0  0
 38 72  1  0  0  0  0
 38 76  2  0  0  0  0
 39 62  1  0  0  0  0
 39 77  2  0  0  0  0
 40 69  1  0  0  0  0
 40 78  2  0  0  0  0
 41 54  1  0  0  0  0
 41 73  1  0  0  0  0
 41 79  2  0  0  0  0
 42 64  1  0  0  0  0
 42 70  1  0  0  0  0
 42 80  2  0  0  0  0
 43 65  1  0  0  0  0
 43 74  1  0  0  0  0
 43 81  2  0  0  0  0
 44 47  1  0  0  0  0
 45 54  1  0  0  0  0
 46 70  1  0  0  0  0
 47 49  1  0  0  0  0
 48 50  1  0  0  0  0
 48 51  1  0  0  0  0
 49 53  1  0  0  0  0
 50 55  1  0  0  0  0
 51 69  1  0  0  0  0
 52 55  1  0  0  0  0
 52 69  1  0  0  0  0
 53 73  1  0  0  0  0
 54 70  1  0  0  0  0
 55 68  1  0  0  0  0
 57 65  1  0  0  0  0
 58 66  1  0  0  0  0
 59 66  1  0  0  0  0
 60 66  1  0  0  0  0
 61 75  1  0  0  0  0
 62 63  1  0  0  0  0
 63 83  1  0  0  0  0
 64 66  1  0  0  0  0
 64 74  1  0  0  0  0
 65 75  1  0  0  0  0
 67 68  1  0  0  0  0
M  CHG  1  75   1
M  ISO  4  36 100  40 100  63 101  83 101
M  END
> <Batch ID>
0124

> <Smiles>
CNC(C)C(=O)NC(C(=O)N1Cc2cc([101O:1][101CH2:1]CC(=O)C=Cc3ccc(C=[100CH:0][100C:0](=O)N4CCCC(n5nc(-c6ccc(Oc7ccc(F)cc7F)cc6)c(C(N)=O)c5N)C4)cc3C)ccc2CC1C(=O)NC1CCCc2ccccc21)C(C)(C)C

> <Shape>
0.247

> <Color>
0.097

> <Negative vol penalty>
0.000

$$$$

  -OEChem-04052302063D

 81 89  0     1  0  0  0  0  0999 V2000
  -23.8367  -35.0397   15.1182 C   0  0  0  0  0  0  0  0  0  0  0  0
  -24.4108  -33.7823   15.2761 C   0  0  0  0  0  0  0  0  0  0  0  0
  -24.4843   -9.9573   21.3808 C   0  0  0  0  0  0  0  0  0  0  0  0
  -25.1610  -11.1739   23.3554 C   0  0  0  0  0  0  0  0  0  0  0  0
  -23.8788  -35.9604   16.1643 C   0  0  0  0  0  0  0  0  0  0  0  0
  -25.0284  -33.4454   16.4800 C   0  0  0  0  0  0  0  0  0  0  0  0
  -25.1418  -27.9313   19.1425 C   0  0  0  0  0  0  0  0  0  0  0  0
  -31.3472  -23.2701   19.4008 C   0  0  0  0  0  0  0  0  0  0  0  0
  -30.9870  -21.9815   19.7950 C   0  0  0  0  0  0  0  0  0  0  0  0
  -24.2528   -8.8231   22.1589 C   0  0  0  0  0  0  0  0  0  0  0  0
  -24.9294  -10.0396   24.1336 C   0  0  0  0  0  0  0  0  0  0  0  0
  -26.1004  -26.9192   19.1631 C   0  0  0  0  0  0  0  0  0  0  0  0
  -26.0835   -6.3686   23.5901 C   0  0  0  0  0  0  0  0  0  0  0  0
  -26.5583   -5.1475   23.1117 C   0  0  0  0  0  0  0  0  0  0  0  0
  -26.9263  -27.7528   21.2708 C   0  0  0  0  0  0  0  0  0  0  0  0
  -28.6580  -22.6236   19.7658 C   0  0  0  0  0  0  0  0  0  0  0  0
  -24.3043   -4.2779   23.0944 C   0  0  0  0  0  0  0  0  0  0  0  0
  -24.9385  -11.1327   21.9791 C   0  0  0  0  0  0  0  0  0  0  0  0
  -24.2590  -13.3238   20.8631 C   0  0  0  0  0  0  0  0  0  0  0  0
  -24.4888  -35.6311   17.3851 C   0  0  0  0  0  0  0  0  0  0  0  0
  -25.0752  -28.8699   20.1823 C   0  0  0  0  0  0  0  0  0  0  0  0
  -25.0799  -34.3630   17.5430 C   0  0  0  0  0  0  0  0  0  0  0  0
  -25.9643  -28.7743   21.2623 C   0  0  0  0  0  0  0  0  0  0  0  0
  -30.3628  -24.2355   19.1892 C   0  0  0  0  0  0  0  0  0  0  0  0
  -29.0182  -23.9122   19.3716 C   0  0  0  0  0  0  0  0  0  0  0  0
  -29.6424  -21.6582   19.9775 C   0  0  0  0  0  0  0  0  0  0  0  0
  -24.4753   -8.8642   23.5353 C   0  0  0  0  0  0  0  0  0  0  0  0
  -26.9948  -26.8316   20.2259 C   0  0  0  0  0  0  0  0  0  0  0  0
  -24.7191   -6.5445   23.8207 C   0  0  0  0  0  0  0  0  0  0  0  0
  -25.6687   -4.1021   22.8638 C   0  0  0  0  0  0  0  0  0  0  0  0
  -23.8295   -5.4991   23.5728 C   0  0  0  0  0  0  0  0  0  0  0  0
  -25.1784  -12.3046   21.1757 C   0  0  0  0  0  0  0  0  0  0  0  0
  -24.9706  -14.1999   20.0805 C   0  0  0  0  0  0  0  0  0  0  0  0
  -29.0602  -19.5194   19.4171 C   0  0  0  0  0  0  0  0  0  0  0  0
  -22.8846  -13.4659   21.2460 C   0  0  0  0  0  0  0  0  0  0  0  0
  -25.4190  -32.0235   20.3829 C   0  0  0  0  0  0  0  0  0  0  0  0
  -29.6523  -17.1115   19.1353 C   0  0  0  0  0  0  0  0  0  0  0  0
  -24.4826  -31.5391   23.4506 C   0  0  0  0  0  0  0  0  0  0  0  0
  -24.2186  -29.3987   26.0956 C   0  0  0  0  0  0  0  0  0  0  0  0
  -24.5513  -36.6762   18.4706 C   0  0  0  0  0  0  0  0  0  0  0  0
  -24.0180  -29.9396   20.1583 C   0  0  0  0  0  0  0  0  0  0  0  0
  -25.9213  -29.7449   22.4131 C   0  0  0  0  0  0  0  0  0  0  0  0
  -24.8954  -36.1074   19.8447 C   0  0  0  0  0  0  0  0  0  0  0  0
  -29.5070  -13.7486   17.9066 C   0  0  0  0  0  0  0  0  0  0  0  0
  -26.0746  -35.1451   19.7441 C   0  0  0  0  0  0  0  0  0  0  0  0
  -28.3110  -13.1481   18.6445 C   0  0  0  0  0  0  0  0  0  0  0  0
  -30.2633  -14.7413   18.7838 C   0  0  0  0  0  0  0  0  0  0  0  0
  -28.2129  -15.2372   20.0768 C   0  0  0  0  0  0  0  0  0  0  0  0
  -25.7372  -33.9514   18.8425 C   0  0  1  0  0  0  0  0  0  0  0  0
  -24.3732  -31.1500   21.0162 C   0  0  1  0  0  0  0  0  0  0  0  0
  -27.4031  -14.2517   19.2157 C   0  0  2  0  0  0  0  0  0  0  0  0
  -30.7727  -25.6081   18.7670 C   0  0  0  0  0  0  0  0  0  0  0  0
  -23.4460  -29.3010   28.4811 C   0  0  0  0  0  0  0  0  0  0  0  0
  -26.9896  -33.0444   24.3217 C   0  0  0  0  0  0  0  0  0  0  0  0
  -26.6695  -32.1062   26.6208 C   0  0  0  0  0  0  0  0  0  0  0  0
  -24.9323  -33.5982   25.6314 C   0  0  0  0  0  0  0  0  0  0  0  0
  -22.2026  -27.3215   25.4791 C   0  0  0  0  0  0  0  0  0  0  0  0
  -27.9420  -24.9339   19.1500 C   0  0  0  0  0  0  0  0  0  1  0  0
  -28.6757  -18.1015   19.7184 C   0  0  0  0  0  0  0  0  0  0  0  0
  -25.1908  -31.2426   24.7504 C   0  0  1  0  0  0  0  0  0  0  0  0
  -23.0608  -29.0850   27.0259 C   0  0  2  0  0  0  0  0  0  0  0  0
  -25.9479  -32.4806   25.3086 C   0  0  0  0  0  0  0  0  0  0  0  0
  -26.3821  -12.5126   20.6356 N   0  0  0  0  0  0  0  0  0  0  0  0
  -29.2815  -20.3663   20.3728 N   0  0  0  0  0  0  0  0  0  0  0  0
  -26.2240  -13.6726   19.9757 N   0  0  0  0  0  0  0  0  0  0  0  0
  -24.8737  -30.7768   22.3408 N   0  0  0  0  0  0  0  0  0  0  0  0
  -29.3621  -15.7603   19.3251 N   0  0  0  0  0  0  0  0  0  0  0  0
  -24.6401  -15.3622   19.4786 N   0  0  0  0  0  0  0  0  0  0  0  0
  -22.3099  -12.4744   22.0529 N   0  0  0  0  0  0  0  0  0  0  0  0
  -24.9071  -33.0013   19.5515 N   0  0  0  0  0  0  0  0  0  0  0  0
  -24.1790  -30.7040   25.6529 N   0  0  0  0  0  0  0  0  0  0  0  0
  -22.6313  -27.6677   26.8587 N   0  3  0  0  0  0  0  0  0  0  0  0
  -22.1823  -14.4347   20.8699 O   0  0  0  0  0  0  0  0  0  0  0  0
  -26.6026  -31.8259   20.6314 O   0  0  0  0  0  0  0  0  0  0  0  0
  -30.6415  -17.5285   18.5271 O   0  0  0  0  0  0  0  0  0  0  0  0
  -23.6094  -32.4099   23.4227 O   0  0  0  0  0  0  0  0  0  0  0  0
  -25.0749  -28.5699   25.7948 O   0  0  0  0  0  0  0  0  0  0  0  0
  -24.2492   -7.7577   24.2950 O   0  0  0  0  0  0  0  0  0  0  0  0
  -27.9319  -25.8450   20.2482 O   0  0  0  0  0  0  0  0  0  1  0  0
  -26.1246   -2.9300   22.4029 F   0  0  0  0  0  0  0  0  0  0  0  0
  -22.5175   -5.6625   23.7913 F   0  0  0  0  0  0  0  0  0  0  0  0
  1  2  1  0  0  0  0
  1  5  2  0  0  0  0
  2  6  2  0  0  0  0
  3 10  2  0  0  0  0
  3 18  1  0  0  0  0
  4 11  1  0  0  0  0
  4 18  2  0  0  0  0
  5 20  1  0  0  0  0
  6 22  1  0  0  0  0
  7 12  2  0  0  0  0
  7 21  1  0  0  0  0
  8  9  2  0  0  0  0
  8 24  1  0  0  0  0
  9 26  1  0  0  0  0
 10 27  1  0  0  0  0
 11 27  2  0  0  0  0
 12 28  1  0  0  0  0
 13 14  2  0  0  0  0
 13 29  1  0  0  0  0
 14 30  1  0  0  0  0
 15 23  1  0  0  0  0
 15 28  2  0  0  0  0
 16 25  1  0  0  0  0
 16 26  2  0  0  0  0
 17 30  2  0  0  0  0
 17 31  1  0  0  0  0
 18 32  1  0  0  0  0
 19 32  1  0  0  0  0
 19 33  2  0  0  0  0
 19 35  1  0  0  0  0
 20 22  2  0  0  0  0
 20 40  1  0  0  0  0
 21 23  2  0  0  0  0
 21 41  1  0  0  0  0
 22 49  1  0  0  0  0
 23 42  1  0  0  0  0
 24 25  2  0  0  0  0
 24 52  1  0  0  0  0
 25 58  1  0  0  0  0
 26 64  1  0  0  0  0
 27 78  1  0  0  0  0
 28 79  1  0  0  0  0
 29 31  2  0  0  0  0
 29 78  1  0  0  0  0
 30 80  1  0  0  0  0
 31 81  1  0  0  0  0
 32 63  2  0  0  0  0
 33 65  1  0  0  0  0
 33 68  1  0  0  0  0
 34 59  1  0  0  0  0
 34 64  2  0  0  0  0
 35 69  1  0  0  0  0
 35 73  2  0  0  0  0
 36 50  1  0  0  0  0
 36 70  1  0  0  0  0
 36 74  2  0  0  0  0
 37 59  1  0  0  0  0
 37 67  1  0  0  0  0
 37 75  2  0  0  0  0
 38 60  1  0  0  0  0
 38 66  1  0  0  0  0
 38 76  2  0  0  0  0
 39 61  1  0  0  0  0
 39 71  1  0  0  0  0
 39 77  2  0  0  0  0
 40 43  1  0  0  0  0
 41 50  1  0  0  0  0
 42 66  1  0  0  0  0
 43 45  1  0  0  0  0
 44 46  1  0  0  0  0
 44 47  1  0  0  0  0
 45 49  1  0  0  0  0
 46 51  1  0  0  0  0
 47 67  1  0  0  0  0
 48 51  1  0  0  0  0
 48 67  1  0  0  0  0
 49 70  1  0  0  0  0
 50 66  1  0  0  0  0
 51 65  1  0  0  0  0
 53 61  1  0  0  0  0
 54 62  1  0  0  0  0
 55 62  1  0  0  0  0
 56 62  1  0  0  0  0
 57 72  1  0  0  0  0
 58 79  1  0  0  0  0
 60 62  1  0  0  0  0
 60 71  1  0  0  0  0
 61 72  1  0  0  0  0
 63 65  1  0  0  0  0
M  CHG  1  72   1
M  ISO  4  37 100  58 101  59 100  79 101
M  END
> <Batch ID>
0124

> <Smiles>
CNC(C)C(=O)NC(C(=O)N1Cc2cc([101O:1][101CH2:1]c3cc(NC=[100CH:0][100C:0](=O)N4CCCC(n5nc(-c6ccc(Oc7ccc(F)cc7F)cc6)c(C(N)=O)c5N)C4)ccc3C)ccc2CC1C(=O)NC1CCCc2ccccc21)C(C)(C)C

> <Shape>
0.282

> <Color>
0.154

> <Negative vol penalty>
0.000

$$$$

  -OEChem-04052302063D

 86 94  0     1  0  0  0  0  0999 V2000
  -27.9852  -35.8751   21.3923 C   0  0  0  0  0  0  0  0  0  0  0  0
  -28.2532  -34.5101   21.4114 C   0  0  0  0  0  0  0  0  0  0  0  0
  -23.2968  -10.0487   23.5351 C   0  0  0  0  0  0  0  0  0  0  0  0
  -23.9718  -10.2716   21.2261 C   0  0  0  0  0  0  0  0  0  0  0  0
  -26.8279  -36.3656   21.9956 C   0  0  0  0  0  0  0  0  0  0  0  0
  -27.3646  -33.6349   22.0350 C   0  0  0  0  0  0  0  0  0  0  0  0
  -26.4526  -29.4934   19.2671 C   0  0  0  0  0  0  0  0  0  0  0  0
  -22.4981   -8.9566   23.1963 C   0  0  0  0  0  0  0  0  0  0  0  0
  -23.1731   -9.1794   20.8872 C   0  0  0  0  0  0  0  0  0  0  0  0
  -27.4272  -28.4964   19.2728 C   0  0  0  0  0  0  0  0  0  0  0  0
  -22.9251   -5.6682   22.5350 C   0  0  0  0  0  0  0  0  0  0  0  0
  -22.9846   -4.5421   23.3559 C   0  0  0  0  0  0  0  0  0  0  0  0
  -30.6584  -19.9035   19.4915 C   0  0  0  0  0  0  0  0  0  0  0  0
  -26.1361  -27.2519   20.8862 C   0  0  0  0  0  0  0  0  0  0  0  0
  -28.4334  -19.8838   20.4326 C   0  0  0  0  0  0  0  0  0  0  0  0
  -20.6236   -4.7566   23.8213 C   0  0  0  0  0  0  0  0  0  0  0  0
  -24.0336  -10.7063   22.5500 C   0  0  0  0  0  0  0  0  0  0  0  0
  -30.9008  -18.6433   20.0380 C   0  0  0  0  0  0  0  0  0  0  0  0
  -26.2101  -11.8109   23.2919 C   0  0  0  0  0  0  0  0  0  0  0  0
  -25.9198  -35.4949   22.6185 C   0  0  0  0  0  0  0  0  0  0  0  0
  -25.3158  -29.3820   20.0805 C   0  0  0  0  0  0  0  0  0  0  0  0
  -26.1948  -34.1144   22.6484 C   0  0  0  0  0  0  0  0  0  0  0  0
  -25.1473  -28.2476   20.8871 C   0  0  0  0  0  0  0  0  0  0  0  0
  -29.9095  -18.0033   20.7818 C   0  0  0  0  0  0  0  0  0  0  0  0
  -28.6757  -18.6235   20.9791 C   0  0  0  0  0  0  0  0  0  0  0  0
  -22.4363   -8.5219   21.8723 C   0  0  0  0  0  0  0  0  0  0  0  0
  -27.2705  -27.3768   20.0846 C   0  0  0  0  0  0  0  0  0  0  0  0
  -21.7148   -6.3386   22.3573 C   0  0  0  0  0  0  0  0  0  0  0  0
  -29.4247  -20.5238   19.6888 C   0  0  0  0  0  0  0  0  0  0  0  0
  -21.8339   -4.0862   23.9990 C   0  0  0  0  0  0  0  0  0  0  0  0
  -20.5641   -5.8827   23.0004 C   0  0  0  0  0  0  0  0  0  0  0  0
  -24.8584  -11.8349   22.8993 C   0  0  0  0  0  0  0  0  0  0  0  0
  -26.5275  -13.1291   23.5111 C   0  0  0  0  0  0  0  0  0  0  0  0
  -32.6949  -17.7741   18.6095 C   0  0  0  0  0  0  0  0  0  0  0  0
  -32.2010  -18.0248   19.8124 C   0  0  0  0  0  0  0  0  0  0  0  0
  -27.0993  -10.6966   23.4448 C   0  0  0  0  0  0  0  0  0  0  0  0
  -24.1007  -31.0747   22.4810 C   0  0  0  0  0  0  0  0  0  0  0  0
  -28.6638  -24.0636   19.6523 C   0  0  0  0  0  0  0  0  0  0  0  0
  -21.6263  -28.9992   22.1778 C   0  0  0  0  0  0  0  0  0  0  0  0
  -20.5212  -25.9391   21.1474 C   0  0  0  0  0  0  0  0  0  0  0  0
  -26.3810  -18.4890   22.0100 C   0  0  0  0  0  0  0  0  0  0  0  0
  -24.7060  -36.0770   23.2985 C   0  0  0  0  0  0  0  0  0  0  0  0
  -24.2608  -30.4534   20.0429 C   0  0  0  0  0  0  0  0  0  0  0  0
  -23.9353  -28.0706   21.7636 C   0  0  0  0  0  0  0  0  0  0  0  0
  -23.6284  -35.0420   23.6117 C   0  0  0  0  0  0  0  0  0  0  0  0
  -23.5691  -17.2267   23.7924 C   0  0  0  0  0  0  0  0  0  0  0  0
  -24.2481  -33.8019   24.2480 C   0  0  0  0  0  0  0  0  0  0  0  0
  -23.7651  -15.7094   23.7512 C   0  0  0  0  0  0  0  0  0  0  0  0
  -24.0176  -17.8919   22.4924 C   0  0  0  0  0  0  0  0  0  0  0  0
  -25.5793  -16.0451   22.0241 C   0  0  0  0  0  0  0  0  0  0  0  0
  -25.2428  -33.1305   23.2933 C   0  0  1  0  0  0  0  0  0  0  0  0
  -23.3920  -30.4808   21.2966 C   0  0  1  0  0  0  0  0  0  0  0  0
  -25.2022  -15.3379   23.3361 C   0  0  2  0  0  0  0  0  0  0  0  0
  -30.4467  -16.7171   22.8659 C   0  0  0  0  0  0  0  0  0  0  0  0
  -18.4566  -24.5149   21.0670 C   0  0  0  0  0  0  0  0  0  0  0  0
  -21.9229  -28.4054   25.1560 C   0  0  0  0  0  0  0  0  0  0  0  0
  -20.5322  -26.3518   24.8139 C   0  0  0  0  0  0  0  0  0  0  0  0
  -19.5597  -28.6041   24.3621 C   0  0  0  0  0  0  0  0  0  0  0  0
  -20.5779  -25.8202   18.1908 C   0  0  0  0  0  0  0  0  0  0  0  0
  -30.1622  -16.6488   21.3704 C   0  0  0  0  0  0  0  0  0  0  0  0
  -27.7834  -25.0713   20.3627 C   0  0  0  0  0  0  0  0  0  1  0  0
  -28.2905  -22.6082   19.8457 C   0  0  0  0  0  0  0  0  0  0  0  0
  -21.2798  -27.6548   22.7708 C   0  0  1  0  0  0  0  0  0  0  0  0
  -19.3130  -25.5290   20.3249 C   0  0  2  0  0  0  0  0  0  0  0  0
  -20.8475  -27.7580   24.2608 C   0  0  0  0  0  0  0  0  0  0  0  0
  -24.3519  -13.0705   22.8700 N   0  0  0  0  0  0  0  0  0  0  0  0
  -25.3908  -13.8350   23.2470 N   0  0  0  0  0  0  0  0  0  0  0  0
  -22.9347  -29.1485   21.6966 N   0  0  0  0  0  0  0  0  0  0  0  0
  -25.3894  -17.4973   22.1647 N   0  0  0  0  0  0  0  0  0  0  0  0
  -27.6652  -13.7416   23.9020 N   0  0  0  0  0  0  0  0  0  0  0  0
  -26.6105   -9.4103   23.1786 N   0  0  0  0  0  0  0  0  0  0  0  0
  -27.6542  -17.9927   21.7316 N   0  0  0  0  0  0  0  0  0  0  0  0
  -24.5389  -32.3701   22.2830 N   0  0  0  0  0  0  0  0  0  0  0  0
  -20.2701  -27.0703   21.8948 N   0  0  0  0  0  0  0  0  0  0  0  0
  -19.7466  -24.9231   19.0342 N   0  3  0  0  0  0  0  0  0  0  0  0
  -28.2874  -10.8358   23.8226 O   0  0  0  0  0  0  0  0  0  0  0  0
  -24.2384  -30.4075   23.4996 O   0  0  0  0  0  0  0  0  0  0  0  0
  -29.6225  -24.4060   18.9618 O   0  0  0  0  0  0  0  0  0  0  0  0
  -20.7656  -29.8819   22.1364 O   0  0  0  0  0  0  0  0  0  0  0  0
  -21.5804  -25.3160   21.1316 O   0  0  0  0  0  0  0  0  0  0  0  0
  -26.1256  -19.6885   22.1434 O   0  0  0  0  0  0  0  0  0  0  0  0
  -21.6572   -7.4560   21.5414 O   0  0  0  0  0  0  0  0  0  0  0  0
  -28.2206  -26.4026   20.0925 O   0  0  0  0  0  0  0  0  0  1  0  0
  -29.1856  -21.7660   19.1505 O   0  0  0  0  0  0  0  0  0  0  0  0
  -21.8909   -3.0039   24.7861 F   0  0  0  0  0  0  0  0  0  0  0  0
  -19.3983   -6.5219   22.8327 F   0  0  0  0  0  0  0  0  0  0  0  0
  1  2  1  0  0  0  0
  1  5  2  0  0  0  0
  2  6  2  0  0  0  0
  3  8  2  0  0  0  0
  3 17  1  0  0  0  0
  4  9  1  0  0  0  0
  4 17  2  0  0  0  0
  5 20  1  0  0  0  0
  6 22  1  0  0  0  0
  7 10  2  0  0  0  0
  7 21  1  0  0  0  0
  8 26  1  0  0  0  0
  9 26  2  0  0  0  0
 10 27  1  0  0  0  0
 11 12  2  0  0  0  0
 11 28  1  0  0  0  0
 12 30  1  0  0  0  0
 13 18  1  0  0  0  0
 13 29  2  0  0  0  0
 14 23  1  0  0  0  0
 14 27  2  0  0  0  0
 15 25  2  0  0  0  0
 15 29  1  0  0  0  0
 16 30  2  0  0  0  0
 16 31  1  0  0  0  0
 17 32  1  0  0  0  0
 18 24  2  0  0  0  0
 18 35  1  0  0  0  0
 19 32  1  0  0  0  0
 19 33  2  0  0  0  0
 19 36  1  0  0  0  0
 20 22  2  0  0  0  0
 20 42  1  0  0  0  0
 21 23  2  0  0  0  0
 21 43  1  0  0  0  0
 22 51  1  0  0  0  0
 23 44  1  0  0  0  0
 24 25  1  0  0  0  0
 24 60  1  0  0  0  0
 25 72  1  0  0  0  0
 26 82  1  0  0  0  0
 27 83  1  0  0  0  0
 28 31  2  0  0  0  0
 28 82  1  0  0  0  0
 29 84  1  0  0  0  0
 30 85  1  0  0  0  0
 31 86  1  0  0  0  0
 32 66  2  0  0  0  0
 33 67  1  0  0  0  0
 33 70  1  0  0  0  0
 34 35  2  0  0  0  0
 36 71  1  0  0  0  0
 36 76  2  0  0  0  0
 37 52  1  0  0  0  0
 37 73  1  0  0  0  0
 37 77  2  0  0  0  0
 38 61  1  0  0  0  0
 38 62  1  0  0  0  0
 38 78  2  0  0  0  0
 39 63  1  0  0  0  0
 39 68  1  0  0  0  0
 39 79  2  0  0  0  0
 40 64  1  0  0  0  0
 40 74  1  0  0  0  0
 40 80  2  0  0  0  0
 41 69  1  0  0  0  0
 41 72  1  0  0  0  0
 41 81  2  0  0  0  0
 42 45  1  0  0  0  0
 43 52  1  0  0  0  0
 44 68  1  0  0  0  0
 45 47  1  0  0  0  0
 46 48  1  0  0  0  0
 46 49  1  0  0  0  0
 47 51  1  0  0  0  0
 48 53  1  0  0  0  0
 49 69  1  0  0  0  0
 50 53  1  0  0  0  0
 50 69  1  0  0  0  0
 51 73  1  0  0  0  0
 52 68  1  0  0  0  0
 53 67  1  0  0  0  0
 54 60  1  0  0  0  0
 55 64  1  0  0  0  0
 56 65  1  0  0  0  0
 57 65  1  0  0  0  0
 58 65  1  0  0  0  0
 59 75  1  0  0  0  0
 61 83  1  0  0  0  0
 62 84  1  0  0  0  0
 63 65  1  0  0  0  0
 63 74  1  0  0  0  0
 64 75  1  0  0  0  0
 66 67  1  0  0  0  0
M  CHG  1  75   1
M  ISO  4  41 100  61 101  72 100  83 101
M  END
> <Batch ID>
0124

> <Smiles>
C=Cc1cc(OCC(=O)[101CH2:1][101O:1]c2ccc3c(c2)CN(C(=O)C(NC(=O)C(C)NC)C(C)(C)C)C(C(=O)NC2CCCc4ccccc42)C3)cc([100NH:0][100C:0](=O)N2CCCC(n3nc(-c4ccc(Oc5ccc(F)cc5F)cc4)c(C(N)=O)c3N)C2)c1CC

> <Shape>
0.287

> <Color>
0.085

> <Negative vol penalty>
0.000

$$$$

  -OEChem-04052302063D

 87 95  0     1  0  0  0  0  0999 V2000
  -29.8976  -36.1971   21.3004 C   0  0  0  0  0  0  0  0  0  0  0  0
  -29.9381  -34.8080   21.2356 C   0  0  0  0  0  0  0  0  0  0  0  0
  -23.4809  -12.7664   19.3134 C   0  0  0  0  0  0  0  0  0  0  0  0
  -24.5437  -14.1119   21.0155 C   0  0  0  0  0  0  0  0  0  0  0  0
  -28.9283  -36.8296   22.0777 C   0  0  0  0  0  0  0  0  0  0  0  0
  -29.0099  -34.0506   21.9492 C   0  0  0  0  0  0  0  0  0  0  0  0
  -27.0671  -30.2665   19.2012 C   0  0  0  0  0  0  0  0  0  0  0  0
  -24.5945  -11.9270   19.2815 C   0  0  0  0  0  0  0  0  0  0  0  0
  -25.6573  -13.2725   20.9837 C   0  0  0  0  0  0  0  0  0  0  0  0
  -27.8566  -29.1295   19.0354 C   0  0  0  0  0  0  0  0  0  0  0  0
  -28.3714  -12.8076   19.0219 C   0  0  0  0  0  0  0  0  0  0  0  0
  -29.6320  -13.4041   19.0012 C   0  0  0  0  0  0  0  0  0  0  0  0
  -24.8213  -21.2258   18.6326 C   0  0  0  0  0  0  0  0  0  0  0  0
  -26.6075  -28.0160   20.7729 C   0  0  0  0  0  0  0  0  0  0  0  0
  -25.3582  -23.5378   20.0985 C   0  0  0  0  0  0  0  0  0  0  0  0
  -30.1925  -12.2915   21.0712 C   0  0  0  0  0  0  0  0  0  0  0  0
  -23.4555  -13.8588   20.1803 C   0  0  0  0  0  0  0  0  0  0  0  0
  -23.8246  -21.7973   19.4235 C   0  0  0  0  0  0  0  0  0  0  0  0
  -21.1654  -14.5962   21.0285 C   0  0  0  0  0  0  0  0  0  0  0  0
  -27.9817  -36.0797   22.7934 C   0  0  0  0  0  0  0  0  0  0  0  0
  -26.0471  -30.2907   20.1633 C   0  0  0  0  0  0  0  0  0  0  0  0
  -28.0278  -34.6736   22.7379 C   0  0  0  0  0  0  0  0  0  0  0  0
  -25.8047  -29.1536   20.9472 C   0  0  0  0  0  0  0  0  0  0  0  0
  -24.0930  -22.9533   20.1564 C   0  0  0  0  0  0  0  0  0  0  0  0
  -26.3550  -22.9662   19.3077 C   0  0  0  0  0  0  0  0  0  0  0  0
  -25.6827  -12.1801   20.1167 C   0  0  0  0  0  0  0  0  0  0  0  0
  -27.6288  -28.0050   19.8232 C   0  0  0  0  0  0  0  0  0  0  0  0
  -28.0211  -11.9531   20.0673 C   0  0  0  0  0  0  0  0  0  0  0  0
  -30.5426  -13.1460   20.0258 C   0  0  0  0  0  0  0  0  0  0  0  0
  -26.0866  -21.8102   18.5748 C   0  0  0  0  0  0  0  0  0  0  0  0
  -28.9317  -11.6951   21.0920 C   0  0  0  0  0  0  0  0  0  0  0  0
  -22.3057  -14.7266   20.2133 C   0  0  0  0  0  0  0  0  0  0  0  0
  -20.3720  -15.6626   20.6822 C   0  0  0  0  0  0  0  0  0  0  0  0
  -27.7965  -24.4442   18.3268 C   0  0  0  0  0  0  0  0  0  0  0  0
  -22.5134  -21.1641   19.4677 C   0  0  0  0  0  0  0  0  0  0  0  0
  -20.8515  -13.6004   22.0111 C   0  0  0  0  0  0  0  0  0  0  0  0
  -21.6997  -20.9936   18.2422 C   0  0  0  0  0  0  0  0  0  0  0  0
  -25.4601  -32.0168   22.7671 C   0  0  0  0  0  0  0  0  0  0  0  0
  -22.6606  -30.3782   22.7482 C   0  0  0  0  0  0  0  0  0  0  0  0
  -20.9400  -27.5935   21.7829 C   0  0  0  0  0  0  0  0  0  0  0  0
  -26.9823  -36.8071   23.6577 C   0  0  0  0  0  0  0  0  0  0  0  0
  -25.1869  -31.5156   20.3115 C   0  0  0  0  0  0  0  0  0  0  0  0
  -24.7091  -29.1214   21.9802 C   0  0  0  0  0  0  0  0  0  0  0  0
  -25.8015  -35.9394   24.0855 C   0  0  0  0  0  0  0  0  0  0  0  0
  -19.3641  -18.5614   17.0231 C   0  0  0  0  0  0  0  0  0  0  0  0
  -26.2892  -34.5834   24.5857 C   0  0  0  0  0  0  0  0  0  0  0  0
  -19.7760  -17.2814   17.7494 C   0  0  0  0  0  0  0  0  0  0  0  0
  -20.5726  -19.4351   16.7029 C   0  0  0  0  0  0  0  0  0  0  0  0
  -21.8190  -18.4962   18.6299 C   0  0  0  0  0  0  0  0  0  0  0  0
  -27.0227  -33.8179   23.4778 C   0  0  1  0  0  0  0  0  0  0  0  0
  -24.5109  -31.6095   21.6759 C   0  0  1  0  0  0  0  0  0  0  0  0
  -20.6220  -17.6010   18.9947 C   0  0  2  0  0  0  0  0  0  0  0  0
  -22.2050  -23.9561   23.3712 C   0  0  0  0  0  0  0  0  0  0  0  0
  -29.6781  -24.8366   16.7864 C   0  0  0  0  0  0  0  0  0  0  0  0
  -18.6779  -26.5198   21.9481 C   0  0  0  0  0  0  0  0  0  0  0  0
  -23.2532  -29.5793   25.6328 C   0  0  0  0  0  0  0  0  0  0  0  0
  -21.5112  -27.7934   25.4226 C   0  0  0  0  0  0  0  0  0  0  0  0
  -20.8697  -30.1926   25.1888 C   0  0  0  0  0  0  0  0  0  0  0  0
  -20.5785  -27.6329   18.8458 C   0  0  0  0  0  0  0  0  0  0  0  0
  -23.0430  -23.5857   21.0104 C   0  0  0  0  0  0  0  0  0  0  0  0
  -23.2551  -23.2841   22.5008 C   0  0  0  0  0  0  0  0  0  0  0  0
  -28.9252  -26.6505   18.3602 C   0  0  0  0  0  0  0  0  0  1  0  0
  -29.1255  -25.1490   18.1715 C   0  0  1  0  0  0  0  0  0  0  0  0
  -22.1810  -29.0743   23.3390 C   0  0  1  0  0  0  0  0  0  0  0  0
  -19.5815  -27.4260   21.1265 C   0  0  2  0  0  0  0  0  0  0  0  0
  -21.9758  -29.1609   24.8777 C   0  0  0  0  0  0  0  0  0  0  0  0
  -22.2459  -15.7916   19.4094 N   0  0  0  0  0  0  0  0  0  0  0  0
  -21.9760  -20.7105   20.5663 N   0  0  0  0  0  0  0  0  0  0  0  0
  -27.6289  -23.5559   19.2517 N   0  0  0  0  0  0  0  0  0  0  0  0
  -21.0584  -16.3402   19.7178 N   0  0  0  0  0  0  0  0  0  0  0  0
  -21.3730  -19.6891   17.8991 N   0  0  0  0  0  0  0  0  0  0  0  0
  -23.8991  -30.3458   22.0917 N   0  0  0  0  0  0  0  0  0  0  0  0
  -19.1612  -16.0772   21.1114 N   0  0  0  0  0  0  0  0  0  0  0  0
  -21.7781  -12.5746   22.2424 N   0  0  0  0  0  0  0  0  0  0  0  0
  -26.0743  -33.2359   22.5525 N   0  0  0  0  0  0  0  0  0  0  0  0
  -20.9807  -28.7065   22.5958 N   0  0  0  0  0  0  0  0  0  0  0  0
  -19.7323  -26.8325   19.7679 N   0  3  0  0  0  0  0  0  0  0  0  0
  -19.7738  -13.6104   22.6529 O   0  0  0  0  0  0  0  0  0  0  0  0
  -21.4009  -22.0278   17.6594 O   0  0  0  0  0  0  0  0  0  0  0  0
  -25.6221  -31.2803   23.7330 O   0  0  0  0  0  0  0  0  0  0  0  0
  -21.9588  -31.3866   22.8588 O   0  0  0  0  0  0  0  0  0  0  0  0
  -21.8708  -26.8129   21.5963 O   0  0  0  0  0  0  0  0  0  0  0  0
  -26.7694  -11.3611   20.0860 O   0  0  0  0  0  0  0  0  0  0  0  0
  -28.3984  -26.8941   19.6638 O   0  0  0  0  0  0  0  0  0  1  0  0
  -31.7538  -13.7177   20.0050 F   0  0  0  0  0  0  0  0  0  0  0  0
  -27.0384  -21.2535   17.8125 F   0  0  0  0  0  0  0  0  0  0  0  0
  -28.6014  -10.8741   22.0983 F   0  0  0  0  0  0  0  0  0  0  0  0
  1  2  1  0  0  0  0
  1  5  2  0  0  0  0
  2  6  2  0  0  0  0
  3  8  2  0  0  0  0
  3 17  1  0  0  0  0
  4  9  1  0  0  0  0
  4 17  2  0  0  0  0
  5 20  1  0  0  0  0
  6 22  1  0  0  0  0
  7 10  2  0  0  0  0
  7 21  1  0  0  0  0
  8 26  1  0  0  0  0
  9 26  2  0  0  0  0
 10 27  1  0  0  0  0
 11 12  2  0  0  0  0
 11 28  1  0  0  0  0
 12 29  1  0  0  0  0
 13 18  1  0  0  0  0
 13 30  2  0  0  0  0
 14 23  1  0  0  0  0
 14 27  2  0  0  0  0
 15 24  1  0  0  0  0
 15 25  2  0  0  0  0
 16 29  2  0  0  0  0
 16 31  1  0  0  0  0
 17 32  1  0  0  0  0
 18 24  2  0  0  0  0
 18 35  1  0  0  0  0
 19 32  1  0  0  0  0
 19 33  2  0  0  0  0
 19 36  1  0  0  0  0
 20 22  2  0  0  0  0
 20 41  1  0  0  0  0
 21 23  2  0  0  0  0
 21 42  1  0  0  0  0
 22 50  1  0  0  0  0
 23 43  1  0  0  0  0
 24 60  1  0  0  0  0
 25 30  1  0  0  0  0
 25 69  1  0  0  0  0
 26 83  1  0  0  0  0
 27 84  1  0  0  0  0
 28 31  2  0  0  0  0
 28 83  1  0  0  0  0
 29 85  1  0  0  0  0
 30 86  1  0  0  0  0
 31 87  1  0  0  0  0
 32 67  2  0  0  0  0
 33 70  1  0  0  0  0
 33 73  1  0  0  0  0
 34 63  1  0  0  0  0
 34 69  2  0  0  0  0
 35 37  1  0  0  0  0
 35 68  2  0  0  0  0
 36 74  1  0  0  0  0
 36 78  2  0  0  0  0
 37 71  1  0  0  0  0
 37 79  2  0  0  0  0
 38 51  1  0  0  0  0
 38 75  1  0  0  0  0
 38 80  2  0  0  0  0
 39 64  1  0  0  0  0
 39 72  1  0  0  0  0
 39 81  2  0  0  0  0
 40 65  1  0  0  0  0
 40 76  1  0  0  0  0
 40 82  2  0  0  0  0
 41 44  1  0  0  0  0
 42 51  1  0  0  0  0
 43 72  1  0  0  0  0
 44 46  1  0  0  0  0
 45 47  1  0  0  0  0
 45 48  1  0  0  0  0
 46 50  1  0  0  0  0
 47 52  1  0  0  0  0
 48 71  1  0  0  0  0
 49 52  1  0  0  0  0
 49 71  1  0  0  0  0
 50 75  1  0  0  0  0
 51 72  1  0  0  0  0
 52 70  1  0  0  0  0
 53 61  1  0  0  0  0
 54 63  1  0  0  0  0
 55 65  1  0  0  0  0
 56 66  1  0  0  0  0
 57 66  1  0  0  0  0
 58 66  1  0  0  0  0
 59 77  1  0  0  0  0
 60 61  1  0  0  0  0
 62 63  1  0  0  0  0
 62 84  1  0  0  0  0
 64 66  1  0  0  0  0
 64 76  1  0  0  0  0
 65 77  1  0  0  0  0
 67 70  1  0  0  0  0
M  CHG  1  77   1
M  ISO  4  35 100  37 100  62 101  84 101
M  END
> <Batch ID>
0124

> <Smiles>
CCCc1cc(NC=C(C)[101CH2:1][101O:1]c2ccc3c(c2)CN(C(=O)C(NC(=O)C(C)NC)C(C)(C)C)C(C(=O)NC2CCCc4ccccc42)C3)c(F)cc1[100C:0](=N)[100C:0](=O)N1CCCC(n2nc(-c3ccc(Oc4ccc(F)cc4F)cc3)c(C(N)=O)c2N)C1

> <Shape>
0.241

> <Color>
0.094

> <Negative vol penalty>
0.000

$$$$

  -OEChem-04052302063D

 87 95  0     1  0  0  0  0  0999 V2000
  -16.6841  -29.3144   24.2870 C   0  0  0  0  0  0  0  0  0  0  0  0
  -17.6055  -28.4158   23.7588 C   0  0  0  0  0  0  0  0  0  0  0  0
  -23.3618   -9.5206   20.6998 C   0  0  0  0  0  0  0  0  0  0  0  0
  -23.8716  -10.2694   22.9396 C   0  0  0  0  0  0  0  0  0  0  0  0
  -16.9422  -30.6838   24.2407 C   0  0  0  0  0  0  0  0  0  0  0  0
  -18.7851  -28.8863   23.1829 C   0  0  0  0  0  0  0  0  0  0  0  0
  -22.8484  -26.2372   24.6380 C   0  0  0  0  0  0  0  0  0  0  0  0
  -22.6780   -8.4229   21.2224 C   0  0  0  0  0  0  0  0  0  0  0  0
  -23.1879   -9.1717   23.4622 C   0  0  0  0  0  0  0  0  0  0  0  0
  -23.0532  -24.9998   24.0293 C   0  0  0  0  0  0  0  0  0  0  0  0
  -19.9777   -8.2707   24.0134 C   0  0  0  0  0  0  0  0  0  0  0  0
  -19.1055   -8.4991   25.0776 C   0  0  0  0  0  0  0  0  0  0  0  0
  -30.8227  -20.2515   21.2848 C   0  0  0  0  0  0  0  0  0  0  0  0
  -29.1834  -18.4975   21.5551 C   0  0  0  0  0  0  0  0  0  0  0  0
  -31.3854  -17.9732   20.7106 C   0  0  0  0  0  0  0  0  0  0  0  0
  -24.6883  -25.9983   22.5634 C   0  0  0  0  0  0  0  0  0  0  0  0
  -20.3941   -6.9916   26.4574 C   0  0  0  0  0  0  0  0  0  0  0  0
  -23.9586  -10.4439   21.5584 C   0  0  0  0  0  0  0  0  0  0  0  0
  -29.5422  -19.8416   21.6564 C   0  0  0  0  0  0  0  0  0  0  0  0
  -31.7443  -19.3173   20.8119 C   0  0  0  0  0  0  0  0  0  0  0  0
  -24.1339  -12.8456   20.7166 C   0  0  0  0  0  0  0  0  0  0  0  0
  -18.1300  -31.1707   23.6727 C   0  0  0  0  0  0  0  0  0  0  0  0
  -23.5553  -27.3686   24.2060 C   0  0  0  0  0  0  0  0  0  0  0  0
  -19.0588  -30.2635   23.1278 C   0  0  0  0  0  0  0  0  0  0  0  0
  -24.4925  -27.2484   23.1701 C   0  0  0  0  0  0  0  0  0  0  0  0
  -30.1049  -17.5633   21.0822 C   0  0  0  0  0  0  0  0  0  0  0  0
  -22.5911   -8.2484   22.6036 C   0  0  0  0  0  0  0  0  0  0  0  0
  -23.9711  -24.8807   22.9899 C   0  0  0  0  0  0  0  0  0  0  0  0
  -21.0582   -7.4027   24.1711 C   0  0  0  0  0  0  0  0  0  0  0  0
  -19.3136   -7.8596   26.2996 C   0  0  0  0  0  0  0  0  0  0  0  0
  -21.2664   -6.7632   25.3931 C   0  0  0  0  0  0  0  0  0  0  0  0
  -24.6656  -11.5777   21.0192 C   0  0  0  0  0  0  0  0  0  0  0  0
  -25.2033  -13.5604   20.2351 C   0  0  0  0  0  0  0  0  0  0  0  0
  -28.5688  -20.8284   22.1566 C   0  0  0  0  0  0  0  0  0  0  0  0
  -27.2412  -20.6446   22.1783 C   0  0  0  0  0  0  0  0  0  0  0  0
  -33.0797  -19.7444   20.4249 C   0  0  0  0  0  0  0  0  0  0  0  0
  -22.7932  -13.3336   20.8582 C   0  0  0  0  0  0  0  0  0  0  0  0
  -26.3371  -21.7137   22.6978 C   0  0  0  0  0  0  0  0  0  0  0  0
  -22.7476  -30.1689   22.9372 C   0  0  0  0  0  0  0  0  0  0  0  0
  -25.9105  -30.7986   23.2863 C   0  0  0  0  0  0  0  0  0  0  0  0
  -29.0901  -29.5929   23.5744 C   0  0  0  0  0  0  0  0  0  0  0  0
  -30.5335  -15.1432   20.5293 C   0  0  0  0  0  0  0  0  0  0  0  0
  -18.3433  -32.6621   23.6031 C   0  0  0  0  0  0  0  0  0  0  0  0
  -23.3424  -28.6907   24.8910 C   0  0  0  0  0  0  0  0  0  0  0  0
  -25.2917  -28.4283   22.6828 C   0  0  0  0  0  0  0  0  0  0  0  0
  -19.7887  -33.0578   23.3124 C   0  0  0  0  0  0  0  0  0  0  0  0
  -29.8483  -12.0473   18.9096 C   0  0  0  0  0  0  0  0  0  0  0  0
  -20.3492  -32.2257   22.1633 C   0  0  0  0  0  0  0  0  0  0  0  0
  -28.3951  -11.7535   19.2892 C   0  0  0  0  0  0  0  0  0  0  0  0
  -30.6124  -12.7047   20.0575 C   0  0  0  0  0  0  0  0  0  0  0  0
  -28.5237  -13.6088   21.0004 C   0  0  0  0  0  0  0  0  0  0  0  0
  -20.3611  -30.7337   22.5171 C   0  0  1  0  0  0  0  0  0  0  0  0
  -23.7420  -29.8826   24.0266 C   0  0  1  0  0  0  0  0  0  0  0  0
  -27.6959  -13.0056   19.8538 C   0  0  2  0  0  0  0  0  0  0  0  0
  -34.0251  -18.5940   18.3911 C   0  0  0  0  0  0  0  0  0  0  0  0
  -31.4709  -30.3512   23.8075 C   0  0  0  0  0  0  0  0  0  0  0  0
  -25.9622  -31.5378   20.3265 C   0  0  0  0  0  0  0  0  0  0  0  0
  -28.4585  -31.3586   20.3969 C   0  0  0  0  0  0  0  0  0  0  0  0
  -27.2914  -33.0557   21.8042 C   0  0  0  0  0  0  0  0  0  0  0  0
  -29.3901  -28.2313   26.1850 C   0  0  0  0  0  0  0  0  0  0  0  0
  -34.1236  -18.7446   19.8989 C   0  0  0  0  0  0  0  0  0  0  0  0
  -24.8530  -21.3817   22.6686 C   0  0  0  0  0  0  0  0  0  0  0  0
  -23.9828  -22.5118   23.1991 C   0  0  0  0  0  0  0  0  0  1  0  0
  -27.1390  -30.6107   22.4293 C   0  0  1  0  0  0  0  0  0  0  0  0
  -30.2098  -29.9263   24.5437 C   0  0  2  0  0  0  0  0  0  0  0  0
  -27.1964  -31.6187   21.2468 C   0  0  0  0  0  0  0  0  0  0  0  0
  -25.9713  -11.4890   20.7521 N   0  0  0  0  0  0  0  0  0  0  0  0
  -33.4498  -21.0029   20.5064 N   0  0  0  0  0  0  0  0  0  0  0  0
  -26.2690  -12.7102   20.2766 N   0  0  0  0  0  0  0  0  0  0  0  0
  -25.0432  -29.7009   23.3801 N   0  0  0  0  0  0  0  0  0  0  0  0
  -29.8928  -13.8861   20.5383 N   0  0  0  0  0  0  0  0  0  0  0  0
  -25.3267  -14.8269   19.7844 N   0  0  0  0  0  0  0  0  0  0  0  0
  -21.8172  -12.4671   21.3692 N   0  0  0  0  0  0  0  0  0  0  0  0
  -29.7399  -16.1981   20.9785 N   0  0  0  0  0  0  0  0  0  0  0  0
  -21.4708  -30.4315   23.3956 N   0  0  0  0  0  0  0  0  0  0  0  0
  -28.2821  -30.6837   23.3328 N   0  0  0  0  0  0  0  0  0  0  0  0
  -30.5348  -28.7414   25.3872 N   0  3  0  0  0  0  0  0  0  0  0  0
  -22.4667  -14.4982   20.5255 O   0  0  0  0  0  0  0  0  0  0  0  0
  -26.7742  -22.7815   23.1179 O   0  0  0  0  0  0  0  0  0  0  0  0
  -23.1121  -30.1541   21.7673 O   0  0  0  0  0  0  0  0  0  0  0  0
  -25.7308  -31.8771   23.8575 O   0  0  0  0  0  0  0  0  0  0  0  0
  -28.9487  -28.4774   23.0782 O   0  0  0  0  0  0  0  0  0  0  0  0
  -31.6913  -15.2786   20.1253 O   0  0  0  0  0  0  0  0  0  0  0  0
  -21.9237   -7.1775   23.1139 O   0  0  0  0  0  0  0  0  0  0  0  0
  -24.1725  -23.6742   22.3935 O   0  0  0  0  0  0  0  0  0  1  0  0
  -18.4768   -8.0803   27.3219 F   0  0  0  0  0  0  0  0  0  0  0  0
  -22.3033   -5.9291   25.5511 F   0  0  0  0  0  0  0  0  0  0  0  0
  1  2  1  0  0  0  0
  1  5  2  0  0  0  0
  2  6  2  0  0  0  0
  3  8  2  0  0  0  0
  3 18  1  0  0  0  0
  4  9  1  0  0  0  0
  4 18  2  0  0  0  0
  5 22  1  0  0  0  0
  6 24  1  0  0  0  0
  7 10  2  0  0  0  0
  7 23  1  0  0  0  0
  8 27  1  0  0  0  0
  9 27  2  0  0  0  0
 10 28  1  0  0  0  0
 11 12  2  0  0  0  0
 11 29  1  0  0  0  0
 12 30  1  0  0  0  0
 13 19  2  0  0  0  0
 13 20  1  0  0  0  0
 14 19  1  0  0  0  0
 14 26  2  0  0  0  0
 15 20  2  0  0  0  0
 15 26  1  0  0  0  0
 16 25  1  0  0  0  0
 16 28  2  0  0  0  0
 17 30  2  0  0  0  0
 17 31  1  0  0  0  0
 18 32  1  0  0  0  0
 19 34  1  0  0  0  0
 20 36  1  0  0  0  0
 21 32  1  0  0  0  0
 21 33  2  0  0  0  0
 21 37  1  0  0  0  0
 22 24  2  0  0  0  0
 22 43  1  0  0  0  0
 23 25  2  0  0  0  0
 23 44  1  0  0  0  0
 24 52  1  0  0  0  0
 25 45  1  0  0  0  0
 26 74  1  0  0  0  0
 27 84  1  0  0  0  0
 28 85  1  0  0  0  0
 29 31  2  0  0  0  0
 29 84  1  0  0  0  0
 30 86  1  0  0  0  0
 31 87  1  0  0  0  0
 32 67  2  0  0  0  0
 33 69  1  0  0  0  0
 33 72  1  0  0  0  0
 34 35  2  0  0  0  0
 35 38  1  0  0  0  0
 36 61  1  0  0  0  0
 36 68  2  0  0  0  0
 37 73  1  0  0  0  0
 37 78  2  0  0  0  0
 38 62  1  0  0  0  0
 38 79  2  0  0  0  0
 39 53  1  0  0  0  0
 39 75  1  0  0  0  0
 39 80  2  0  0  0  0
 40 64  1  0  0  0  0
 40 70  1  0  0  0  0
 40 81  2  0  0  0  0
 41 65  1  0  0  0  0
 41 76  1  0  0  0  0
 41 82  2  0  0  0  0
 42 71  1  0  0  0  0
 42 74  1  0  0  0  0
 42 83  2  0  0  0  0
 43 46  1  0  0  0  0
 44 53  1  0  0  0  0
 45 70  1  0  0  0  0
 46 48  1  0  0  0  0
 47 49  1  0  0  0  0
 47 50  1  0  0  0  0
 48 52  1  0  0  0  0
 49 54  1  0  0  0  0
 50 71  1  0  0  0  0
 51 54  1  0  0  0  0
 51 71  1  0  0  0  0
 52 75  1  0  0  0  0
 53 70  1  0  0  0  0
 54 69  1  0  0  0  0
 55 61  1  0  0  0  0
 56 65  1  0  0  0  0
 57 66  1  0  0  0  0
 58 66  1  0  0  0  0
 59 66  1  0  0  0  0
 60 77  1  0  0  0  0
 62 63  1  0  0  0  0
 63 85  1  0  0  0  0
 64 66  1  0  0  0  0
 64 76  1  0  0  0  0
 65 77  1  0  0  0  0
 67 69  1  0  0  0  0
M  CHG  1  77   1
M  ISO  4  42 100  63 101  74 100  85 101
M  END
> <Batch ID>
0124

> <Smiles>
CCC(=N)c1cc(C=CC(=O)C[101CH2:1][101O:1]c2ccc3c(c2)CN(C(=O)C(NC(=O)C(C)NC)C(C)(C)C)C(C(=O)NC2CCCc4ccccc42)C3)cc([100NH:0][100C:0](=O)N2CCCC(n3nc(-c4ccc(Oc5ccc(F)cc5F)cc4)c(C(N)=O)c3N)C2)c1

> <Shape>
0.269

> <Color>
0.151

> <Negative vol penalty>
0.000

$$$$

  -OEChem-04052302063D

 84 92  0     1  0  0  0  0  0999 V2000
  -25.7732  -37.4952   23.2500 C   0  0  0  0  0  0  0  0  0  0  0  0
  -26.5819  -36.4538   22.8063 C   0  0  0  0  0  0  0  0  0  0  0  0
  -23.9729   -9.8675   22.4025 C   0  0  0  0  0  0  0  0  0  0  0  0
  -24.4626  -11.5860   24.0285 C   0  0  0  0  0  0  0  0  0  0  0  0
  -24.6361  -37.2191   24.0080 C   0  0  0  0  0  0  0  0  0  0  0  0
  -26.2544  -35.1355   23.1214 C   0  0  0  0  0  0  0  0  0  0  0  0
  -27.1353  -30.1865   19.6232 C   0  0  0  0  0  0  0  0  0  0  0  0
  -23.5407   -9.0230   23.4250 C   0  0  0  0  0  0  0  0  0  0  0  0
  -24.0303  -10.7416   25.0511 C   0  0  0  0  0  0  0  0  0  0  0  0
  -28.1306  -29.2102   19.6129 C   0  0  0  0  0  0  0  0  0  0  0  0
  -20.7768   -8.6345   25.3336 C   0  0  0  0  0  0  0  0  0  0  0  0
  -19.5866   -7.9343   25.1366 C   0  0  0  0  0  0  0  0  0  0  0  0
  -28.3840  -20.5008   19.1144 C   0  0  0  0  0  0  0  0  0  0  0  0
  -26.7346  -27.7815   20.9655 C   0  0  0  0  0  0  0  0  0  0  0  0
  -30.5260  -18.7185   18.9807 C   0  0  0  0  0  0  0  0  0  0  0  0
  -20.7762   -5.8450   25.3748 C   0  0  0  0  0  0  0  0  0  0  0  0
  -24.4339  -11.1490   22.7042 C   0  0  0  0  0  0  0  0  0  0  0  0
  -29.6920  -20.9839   19.0781 C   0  0  0  0  0  0  0  0  0  0  0  0
  -24.1027  -12.9372   20.9153 C   0  0  0  0  0  0  0  0  0  0  0  0
  -24.2893  -35.8961   24.3244 C   0  0  0  0  0  0  0  0  0  0  0  0
  -25.9346  -29.9716   20.3150 C   0  0  0  0  0  0  0  0  0  0  0  0
  -25.1123  -34.8414   23.8855 C   0  0  0  0  0  0  0  0  0  0  0  0
  -25.7247  -28.7556   20.9809 C   0  0  0  0  0  0  0  0  0  0  0  0
  -29.2180  -18.2354   19.0171 C   0  0  0  0  0  0  0  0  0  0  0  0
  -23.5694   -9.4601   24.7493 C   0  0  0  0  0  0  0  0  0  0  0  0
  -27.9314  -28.0086   20.2865 C   0  0  0  0  0  0  0  0  0  0  0  0
  -21.9668   -7.9399   25.5512 C   0  0  0  0  0  0  0  0  0  0  0  0
  -19.5863   -6.5396   25.1572 C   0  0  0  0  0  0  0  0  0  0  0  0
  -28.1470  -19.1265   19.0840 C   0  0  0  0  0  0  0  0  0  0  0  0
  -30.7630  -20.0928   19.0112 C   0  0  0  0  0  0  0  0  0  0  0  0
  -21.9664   -6.5452   25.5718 C   0  0  0  0  0  0  0  0  0  0  0  0
  -24.8811  -12.0216   21.6484 C   0  0  0  0  0  0  0  0  0  0  0  0
  -24.9877  -13.5157   20.0387 C   0  0  0  0  0  0  0  0  0  0  0  0
  -29.9360  -22.4368   19.1107 C   0  0  0  0  0  0  0  0  0  0  0  0
  -29.1300  -23.3309   19.7002 C   0  0  0  0  0  0  0  0  0  0  0  0
  -22.7045  -13.2380   21.0177 C   0  0  0  0  0  0  0  0  0  0  0  0
  -29.4628  -24.7848   19.6683 C   0  0  0  0  0  0  0  0  0  0  0  0
  -24.4709  -31.3812   22.7592 C   0  0  0  0  0  0  0  0  0  0  0  0
  -22.0860  -29.3103   22.0204 C   0  0  0  0  0  0  0  0  0  0  0  0
  -21.1534  -26.3593   20.5822 C   0  0  0  0  0  0  0  0  0  0  0  0
  -29.9308  -15.8212   18.9191 C   0  0  0  0  0  0  0  0  0  0  0  0
  -23.0764  -35.6499   25.1864 C   0  0  0  0  0  0  0  0  0  0  0  0
  -24.8602  -31.0241   20.2941 C   0  0  0  0  0  0  0  0  0  0  0  0
  -24.4452  -28.4677   21.7215 C   0  0  0  0  0  0  0  0  0  0  0  0
  -22.5941  -34.2019   25.1599 C   0  0  0  0  0  0  0  0  0  0  0  0
  -29.7490  -12.2658   18.8601 C   0  0  0  0  0  0  0  0  0  0  0  0
  -23.7691  -33.2445   25.3317 C   0  0  0  0  0  0  0  0  0  0  0  0
  -28.4023  -11.9606   19.5199 C   0  0  0  0  0  0  0  0  0  0  0  0
  -30.4412  -13.4622   19.5106 C   0  0  0  0  0  0  0  0  0  0  0  0
  -28.2782  -14.3746   20.2577 C   0  0  0  0  0  0  0  0  0  0  0  0
  -24.7768  -33.3967   24.1859 C   0  0  1  0  0  0  0  0  0  0  0  0
  -23.8842  -30.9048   21.4606 C   0  0  1  0  0  0  0  0  0  0  0  0
  -27.5135  -13.2176   19.5942 C   0  0  2  0  0  0  0  0  0  0  0  0
  -19.1406  -24.9188   20.1686 C   0  0  0  0  0  0  0  0  0  0  0  0
  -22.1346  -28.4096   24.9352 C   0  0  0  0  0  0  0  0  0  0  0  0
  -20.8318  -26.3819   24.2578 C   0  0  0  0  0  0  0  0  0  0  0  0
  -19.8460  -28.6535   23.9568 C   0  0  0  0  0  0  0  0  0  0  0  0
  -21.4726  -26.5548   17.6464 C   0  0  0  0  0  0  0  0  0  0  0  0
  -28.4761  -25.6951   20.3685 C   0  0  0  0  0  0  0  0  0  1  0  0
  -21.7228  -27.9055   22.4368 C   0  0  1  0  0  0  0  0  0  0  0  0
  -20.0330  -26.0193   19.6160 C   0  0  2  0  0  0  0  0  0  0  0  0
  -21.1588  -27.8435   23.8844 C   0  0  0  0  0  0  0  0  0  0  0  0
  -26.1621  -12.0151   21.2702 N   0  0  0  0  0  0  0  0  0  0  0  0
  -26.1954  -12.9338   20.2899 N   0  0  0  0  0  0  0  0  0  0  0  0
  -23.4274  -29.5305   21.6771 N   0  0  0  0  0  0  0  0  0  0  0  0
  -29.5408  -14.6168   19.5422 N   0  0  0  0  0  0  0  0  0  0  0  0
  -24.8430  -14.4603   19.0851 N   0  0  0  0  0  0  0  0  0  0  0  0
  -21.9415  -12.5514   21.9720 N   0  0  0  0  0  0  0  0  0  0  0  0
  -28.9799  -16.8389   18.9855 N   0  0  0  0  0  0  0  0  0  0  0  0
  -24.2927  -32.7310   22.9955 N   0  0  0  0  0  0  0  0  0  0  0  0
  -20.8091  -27.4009   21.4175 N   0  0  0  0  0  0  0  0  0  0  0  0
  -20.5934  -25.5604   18.3137 N   0  3  0  0  0  0  0  0  0  0  0  0
  -22.1450  -14.0787   20.2735 O   0  0  0  0  0  0  0  0  0  0  0  0
  -30.4705  -25.2112   19.1108 O   0  0  0  0  0  0  0  0  0  0  0  0
  -25.0416  -30.5830   23.4933 O   0  0  0  0  0  0  0  0  0  0  0  0
  -21.2102  -30.1786   21.9936 O   0  0  0  0  0  0  0  0  0  0  0  0
  -22.2254  -25.7583   20.5971 O   0  0  0  0  0  0  0  0  0  0  0  0
  -31.0165  -15.9322   18.3438 O   0  0  0  0  0  0  0  0  0  0  0  0
  -23.1474   -8.6364   25.7474 O   0  0  0  0  0  0  0  0  0  0  0  0
  -28.9015  -27.0543   20.2787 O   0  0  0  0  0  0  0  0  0  1  0  0
  -18.4430   -5.8674   24.9695 F   0  0  0  0  0  0  0  0  0  0  0  0
  -26.8857  -18.6735   19.1191 F   0  0  0  0  0  0  0  0  0  0  0  0
  -32.0261  -20.5420   18.9753 F   0  0  0  0  0  0  0  0  0  0  0  0
  -23.1063   -5.8724   25.7816 F   0  0  0  0  0  0  0  0  0  0  0  0
  1  2  1  0  0  0  0
  1  5  2  0  0  0  0
  2  6  2  0  0  0  0
  3  8  2  0  0  0  0
  3 17  1  0  0  0  0
  4  9  1  0  0  0  0
  4 17  2  0  0  0  0
  5 20  1  0  0  0  0
  6 22  1  0  0  0  0
  7 10  2  0  0  0  0
  7 21  1  0  0  0  0
  8 25  1  0  0  0  0
  9 25  2  0  0  0  0
 10 26  1  0  0  0  0
 11 12  2  0  0  0  0
 11 27  1  0  0  0  0
 12 28  1  0  0  0  0
 13 18  1  0  0  0  0
 13 29  2  0  0  0  0
 14 23  1  0  0  0  0
 14 26  2  0  0  0  0
 15 24  2  0  0  0  0
 15 30  1  0  0  0  0
 16 28  2  0  0  0  0
 16 31  1  0  0  0  0
 17 32  1  0  0  0  0
 18 30  2  0  0  0  0
 18 34  1  0  0  0  0
 19 32  1  0  0  0  0
 19 33  2  0  0  0  0
 19 36  1  0  0  0  0
 20 22  2  0  0  0  0
 20 42  1  0  0  0  0
 21 23  2  0  0  0  0
 21 43  1  0  0  0  0
 22 51  1  0  0  0  0
 23 44  1  0  0  0  0
 24 29  1  0  0  0  0
 24 69  1  0  0  0  0
 25 79  1  0  0  0  0
 26 80  1  0  0  0  0
 27 31  2  0  0  0  0
 27 79  1  0  0  0  0
 28 81  1  0  0  0  0
 29 82  1  0  0  0  0
 30 83  1  0  0  0  0
 31 84  1  0  0  0  0
 32 63  2  0  0  0  0
 33 64  1  0  0  0  0
 33 67  1  0  0  0  0
 34 35  2  0  0  0  0
 35 37  1  0  0  0  0
 36 68  1  0  0  0  0
 36 73  2  0  0  0  0
 37 59  1  0  0  0  0
 37 74  2  0  0  0  0
 38 52  1  0  0  0  0
 38 70  1  0  0  0  0
 38 75  2  0  0  0  0
 39 60  1  0  0  0  0
 39 65  1  0  0  0  0
 39 76  2  0  0  0  0
 40 61  1  0  0  0  0
 40 71  1  0  0  0  0
 40 77  2  0  0  0  0
 41 66  1  0  0  0  0
 41 69  1  0  0  0  0
 41 78  2  0  0  0  0
 42 45  1  0  0  0  0
 43 52  1  0  0  0  0
 44 65  1  0  0  0  0
 45 47  1  0  0  0  0
 46 48  1  0  0  0  0
 46 49  1  0  0  0  0
 47 51  1  0  0  0  0
 48 53  1  0  0  0  0
 49 66  1  0  0  0  0
 50 53  1  0  0  0  0
 50 66  1  0  0  0  0
 51 70  1  0  0  0  0
 52 65  1  0  0  0  0
 53 64  1  0  0  0  0
 54 61  1  0  0  0  0
 55 62  1  0  0  0  0
 56 62  1  0  0  0  0
 57 62  1  0  0  0  0
 58 72  1  0  0  0  0
 59 80  1  0  0  0  0
 60 62  1  0  0  0  0
 60 71  1  0  0  0  0
 61 72  1  0  0  0  0
 63 64  1  0  0  0  0
M  CHG  1  72   1
M  ISO  4  41 100  59 101  69 100  80 101
M  END
> <Batch ID>
0124

> <Smiles>
CNC(C)C(=O)NC(C(=O)N1Cc2cc([101O:1][101CH2:1]C(=O)C=Cc3cc(F)c([100NH:0][100C:0](=O)N4CCCC(n5nc(-c6ccc(Oc7ccc(F)cc7F)cc6)c(C(N)=O)c5N)C4)cc3F)ccc2CC1C(=O)NC1CCCc2ccccc21)C(C)(C)C

> <Shape>
0.343

> <Color>
0.136

> <Negative vol penalty>
0.000

$$$$

  -OEChem-04052302063D

 84 92  0     1  0  0  0  0  0999 V2000
  -18.3323  -31.2571   25.3358 C   0  0  0  0  0  0  0  0  0  0  0  0
  -19.1063  -30.1926   25.7866 C   0  0  0  0  0  0  0  0  0  0  0  0
  -23.1294   -9.8819   19.9129 C   0  0  0  0  0  0  0  0  0  0  0  0
  -23.8169   -9.9350   22.2284 C   0  0  0  0  0  0  0  0  0  0  0  0
  -18.1353  -31.4443   23.9683 C   0  0  0  0  0  0  0  0  0  0  0  0
  -19.6828  -29.3140   24.8700 C   0  0  0  0  0  0  0  0  0  0  0  0
  -25.0962  -26.4954   25.3763 C   0  0  0  0  0  0  0  0  0  0  0  0
  -22.3966   -8.7204   20.1571 C   0  0  0  0  0  0  0  0  0  0  0  0
  -23.0840   -8.7735   22.4726 C   0  0  0  0  0  0  0  0  0  0  0  0
  -25.4501  -25.2104   25.7855 C   0  0  0  0  0  0  0  0  0  0  0  0
  -19.8517   -7.9316   22.9866 C   0  0  0  0  0  0  0  0  0  0  0  0
  -19.0592   -7.8964   24.1339 C   0  0  0  0  0  0  0  0  0  0  0  0
  -29.7068  -17.6289   23.2050 C   0  0  0  0  0  0  0  0  0  0  0  0
  -25.4989  -24.4968   23.4817 C   0  0  0  0  0  0  0  0  0  0  0  0
  -31.9215  -16.8084   22.6962 C   0  0  0  0  0  0  0  0  0  0  0  0
  -20.3078   -5.9907   24.9379 C   0  0  0  0  0  0  0  0  0  0  0  0
  -23.8396  -10.4891   20.9486 C   0  0  0  0  0  0  0  0  0  0  0  0
  -30.2516  -18.5362   24.1135 C   0  0  0  0  0  0  0  0  0  0  0  0
  -24.1446  -13.0175   20.8009 C   0  0  0  0  0  0  0  0  0  0  0  0
  -18.7177  -30.5732   23.0342 C   0  0  0  0  0  0  0  0  0  0  0  0
  -24.9301  -26.7885   24.0151 C   0  0  0  0  0  0  0  0  0  0  0  0
  -19.4923  -29.4890   23.4888 C   0  0  0  0  0  0  0  0  0  0  0  0
  -25.1454  -25.7869   23.0577 C   0  0  0  0  0  0  0  0  0  0  0  0
  -32.4664  -17.7158   23.6047 C   0  0  0  0  0  0  0  0  0  0  0  0
  -31.6314  -18.5798   24.3133 C   0  0  0  0  0  0  0  0  0  0  0  0
  -30.5417  -16.7649   22.4963 C   0  0  0  0  0  0  0  0  0  0  0  0
  -22.3739   -8.1663   21.4370 C   0  0  0  0  0  0  0  0  0  0  0  0
  -25.6486  -24.2102   24.8383 C   0  0  0  0  0  0  0  0  0  0  0  0
  -20.8723   -6.9963   22.8149 C   0  0  0  0  0  0  0  0  0  0  0  0
  -19.2873   -6.9260   25.1095 C   0  0  0  0  0  0  0  0  0  0  0  0
  -21.1003   -6.0259   23.7905 C   0  0  0  0  0  0  0  0  0  0  0  0
  -24.5972  -11.6886   20.6968 C   0  0  0  0  0  0  0  0  0  0  0  0
  -25.2354  -13.7795   20.4604 C   0  0  0  0  0  0  0  0  0  0  0  0
  -29.3409  -19.4339   24.8458 C   0  0  0  0  0  0  0  0  0  0  0  0
  -28.5355  -20.3367   24.2690 C   0  0  0  0  0  0  0  0  0  0  0  0
  -22.8535  -13.5185   21.1723 C   0  0  0  0  0  0  0  0  0  0  0  0
  -27.6561  -21.2067   25.1029 C   0  0  0  0  0  0  0  0  0  0  0  0
  -22.5037  -27.7703   22.2118 C   0  0  0  0  0  0  0  0  0  0  0  0
  -24.7869  -27.9349   19.9135 C   0  0  0  0  0  0  0  0  0  0  0  0
  -27.8157  -26.8692   18.7570 C   0  0  0  0  0  0  0  0  0  0  0  0
  -30.6760  -14.9173   20.7890 C   0  0  0  0  0  0  0  0  0  0  0  0
  -18.4374  -30.7883   21.5679 C   0  0  0  0  0  0  0  0  0  0  0  0
  -24.5744  -28.1863   23.5884 C   0  0  0  0  0  0  0  0  0  0  0  0
  -24.9995  -26.0551   21.5828 C   0  0  0  0  0  0  0  0  0  0  0  0
  -19.3918  -30.0313   20.6479 C   0  0  0  0  0  0  0  0  0  0  0  0
  -29.6751  -12.4510   18.4242 C   0  0  0  0  0  0  0  0  0  0  0  0
  -19.5521  -28.5883   21.1158 C   0  0  0  0  0  0  0  0  0  0  0  0
  -28.2275  -12.1421   18.8132 C   0  0  0  0  0  0  0  0  0  0  0  0
  -30.5483  -12.7125   19.6501 C   0  0  0  0  0  0  0  0  0  0  0  0
  -28.5877  -13.4256   20.9602 C   0  0  0  0  0  0  0  0  0  0  0  0
  -20.1547  -28.5289   22.5246 C   0  0  1  0  0  0  0  0  0  0  0  0
  -23.9298  -28.2434   22.2069 C   0  0  1  0  0  0  0  0  0  0  0  0
  -27.6552  -13.2191   19.7555 C   0  0  2  0  0  0  0  0  0  0  0  0
  -33.9473  -17.7415   23.7992 C   0  0  0  0  0  0  0  0  0  0  0  0
  -32.2280  -19.5496   25.2858 C   0  0  0  0  0  0  0  0  0  0  0  0
  -29.4006  -27.1539   16.8323 C   0  0  0  0  0  0  0  0  0  0  0  0
  -22.9873  -26.1875   18.1764 C   0  0  0  0  0  0  0  0  0  0  0  0
  -24.9649  -25.7285   16.7113 C   0  0  0  0  0  0  0  0  0  0  0  0
  -24.1129  -28.0598   16.9591 C   0  0  0  0  0  0  0  0  0  0  0  0
  -29.9570  -27.8986   20.5217 C   0  0  0  0  0  0  0  0  0  0  0  0
  -26.7925  -22.1864   24.3367 C   0  0  0  0  0  0  0  0  0  1  0  0
  -25.3406  -26.9774   18.8861 C   0  0  1  0  0  0  0  0  0  0  0  0
  -29.0153  -27.6315   18.2238 C   0  0  2  0  0  0  0  0  0  0  0  0
  -24.3524  -26.7324   17.7110 C   0  0  0  0  0  0  0  0  0  0  0  0
  -25.8759  -11.6075   20.3195 N   0  0  0  0  0  0  0  0  0  0  0  0
  -26.2361  -12.8951   20.1835 N   0  0  0  0  0  0  0  0  0  0  0  0
  -24.6442  -27.4360   21.2160 N   0  0  0  0  0  0  0  0  0  0  0  0
  -29.9458  -13.7467   20.4939 N   0  0  0  0  0  0  0  0  0  0  0  0
  -25.4267  -15.1130   20.3738 N   0  0  0  0  0  0  0  0  0  0  0  0
  -21.8462  -12.5978   21.4917 N   0  0  0  0  0  0  0  0  0  0  0  0
  -29.9887  -15.8435   21.5728 N   0  0  0  0  0  0  0  0  0  0  0  0
  -21.5816  -28.7654   22.4744 N   0  0  0  0  0  0  0  0  0  0  0  0
  -26.6322  -27.5191   18.4775 N   0  0  0  0  0  0  0  0  0  0  0  0
  -30.1879  -27.4482   19.1250 N   0  3  0  0  0  0  0  0  0  0  0  0
  -22.5959  -14.7457   21.2036 O   0  0  0  0  0  0  0  0  0  0  0  0
  -27.6362  -21.1306   26.3284 O   0  0  0  0  0  0  0  0  0  0  0  0
  -22.2579  -26.5900   21.9920 O   0  0  0  0  0  0  0  0  0  0  0  0
  -24.4986  -29.0854   19.5745 O   0  0  0  0  0  0  0  0  0  0  0  0
  -27.9181  -25.8020   19.3579 O   0  0  0  0  0  0  0  0  0  0  0  0
  -31.8164  -15.0978   20.3542 O   0  0  0  0  0  0  0  0  0  0  0  0
  -21.6587   -7.0331   21.6757 O   0  0  0  0  0  0  0  0  0  0  0  0
  -25.9934  -22.9549   25.2351 O   0  0  0  0  0  0  0  0  0  1  0  0
  -18.5271   -6.8933   26.2119 F   0  0  0  0  0  0  0  0  0  0  0  0
  -22.0800   -5.1254   23.6317 F   0  0  0  0  0  0  0  0  0  0  0  0
  1  2  1  0  0  0  0
  1  5  2  0  0  0  0
  2  6  2  0  0  0  0
  3  8  2  0  0  0  0
  3 17  1  0  0  0  0
  4  9  1  0  0  0  0
  4 17  2  0  0  0  0
  5 20  1  0  0  0  0
  6 22  1  0  0  0  0
  7 10  2  0  0  0  0
  7 21  1  0  0  0  0
  8 27  1  0  0  0  0
  9 27  2  0  0  0  0
 10 28  1  0  0  0  0
 11 12  2  0  0  0  0
 11 29  1  0  0  0  0
 12 30  1  0  0  0  0
 13 18  1  0  0  0  0
 13 26  2  0  0  0  0
 14 23  1  0  0  0  0
 14 28  2  0  0  0  0
 15 24  2  0  0  0  0
 15 26  1  0  0  0  0
 16 30  2  0  0  0  0
 16 31  1  0  0  0  0
 17 32  1  0  0  0  0
 18 25  2  0  0  0  0
 18 34  1  0  0  0  0
 19 32  1  0  0  0  0
 19 33  2  0  0  0  0
 19 36  1  0  0  0  0
 20 22  2  0  0  0  0
 20 42  1  0  0  0  0
 21 23  2  0  0  0  0
 21 43  1  0  0  0  0
 22 51  1  0  0  0  0
 23 44  1  0  0  0  0
 24 25  1  0  0  0  0
 24 54  1  0  0  0  0
 25 55  1  0  0  0  0
 26 71  1  0  0  0  0
 27 81  1  0  0  0  0
 28 82  1  0  0  0  0
 29 31  2  0  0  0  0
 29 81  1  0  0  0  0
 30 83  1  0  0  0  0
 31 84  1  0  0  0  0
 32 65  2  0  0  0  0
 33 66  1  0  0  0  0
 33 69  1  0  0  0  0
 34 35  2  0  0  0  0
 35 37  1  0  0  0  0
 36 70  1  0  0  0  0
 36 75  2  0  0  0  0
 37 61  1  0  0  0  0
 37 76  2  0  0  0  0
 38 52  1  0  0  0  0
 38 72  1  0  0  0  0
 38 77  2  0  0  0  0
 39 62  1  0  0  0  0
 39 67  1  0  0  0  0
 39 78  2  0  0  0  0
 40 63  1  0  0  0  0
 40 73  1  0  0  0  0
 40 79  2  0  0  0  0
 41 68  1  0  0  0  0
 41 71  1  0  0  0  0
 41 80  2  0  0  0  0
 42 45  1  0  0  0  0
 43 52  1  0  0  0  0
 44 67  1  0  0  0  0
 45 47  1  0  0  0  0
 46 48  1  0  0  0  0
 46 49  1  0  0  0  0
 47 51  1  0  0  0  0
 48 53  1  0  0  0  0
 49 68  1  0  0  0  0
 50 53  1  0  0  0  0
 50 68  1  0  0  0  0
 51 72  1  0  0  0  0
 52 67  1  0  0  0  0
 53 66  1  0  0  0  0
 56 63  1  0  0  0  0
 57 64  1  0  0  0  0
 58 64  1  0  0  0  0
 59 64  1  0  0  0  0
 60 74  1  0  0  0  0
 61 82  1  0  0  0  0
 62 64  1  0  0  0  0
 62 73  1  0  0  0  0
 63 74  1  0  0  0  0
 65 66  1  0  0  0  0
M  CHG  1  74   1
M  ISO  4  41 100  61 101  71 100  82 101
M  END
> <Batch ID>
0124

> <Smiles>
CNC(C)C(=O)NC(C(=O)N1Cc2cc([101O:1][101CH2:1]C(=O)C=Cc3cc([100NH:0][100C:0](=O)N4CCCC(n5nc(-c6ccc(Oc7ccc(F)cc7F)cc6)c(C(N)=O)c5N)C4)cc(C)c3C)ccc2CC1C(=O)NC1CCCc2ccccc21)C(C)(C)C

> <Shape>
0.276

> <Color>
0.219

> <Negative vol penalty>
0.000

$$$$

  -OEChem-04052302063D

 82 90  0     1  0  0  0  0  0999 V2000
  -32.9207  -21.6279   13.6635 C   0  0  0  0  0  0  0  0  0  0  0  0
  -32.2312  -21.0448   14.7218 C   0  0  0  0  0  0  0  0  0  0  0  0
  -22.9787  -10.0778   19.8311 C   0  0  0  0  0  0  0  0  0  0  0  0
  -23.8975   -9.7485   22.0412 C   0  0  0  0  0  0  0  0  0  0  0  0
  -33.2724  -22.9759   13.7206 C   0  0  0  0  0  0  0  0  0  0  0  0
  -31.8940  -21.8091   15.8383 C   0  0  0  0  0  0  0  0  0  0  0  0
  -26.8509  -21.2835   19.2730 C   0  0  0  0  0  0  0  0  0  0  0  0
  -22.2152   -8.9195   19.9758 C   0  0  0  0  0  0  0  0  0  0  0  0
  -23.1339   -8.5902   22.1860 C   0  0  0  0  0  0  0  0  0  0  0  0
  -26.6073  -20.6502   20.4909 C   0  0  0  0  0  0  0  0  0  0  0  0
  -22.6926   -5.5799   19.7679 C   0  0  0  0  0  0  0  0  0  0  0  0
  -22.6582   -4.6890   18.6952 C   0  0  0  0  0  0  0  0  0  0  0  0
  -26.9526  -22.7424   21.6409 C   0  0  0  0  0  0  0  0  0  0  0  0
  -31.3429  -17.5439   20.9492 C   0  0  0  0  0  0  0  0  0  0  0  0
  -30.9176  -19.5824   22.1740 C   0  0  0  0  0  0  0  0  0  0  0  0
  -29.8474  -17.5234   22.8466 C   0  0  0  0  0  0  0  0  0  0  0  0
  -20.2619   -4.9596   18.5474 C   0  0  0  0  0  0  0  0  0  0  0  0
  -23.8199  -10.4923   20.8637 C   0  0  0  0  0  0  0  0  0  0  0  0
  -24.2387  -13.0007   21.0644 C   0  0  0  0  0  0  0  0  0  0  0  0
  -32.9309  -23.7595   14.8341 C   0  0  0  0  0  0  0  0  0  0  0  0
  -27.1584  -22.6510   19.2307 C   0  0  0  0  0  0  0  0  0  0  0  0
  -32.2427  -23.1685   15.9109 C   0  0  0  0  0  0  0  0  0  0  0  0
  -27.1971  -23.3912   20.4210 C   0  0  0  0  0  0  0  0  0  0  0  0
  -31.5578  -18.9097   21.1333 C   0  0  0  0  0  0  0  0  0  0  0  0
  -30.4876  -16.8507   21.8058 C   0  0  0  0  0  0  0  0  0  0  0  0
  -22.2928   -8.1757   21.1533 C   0  0  0  0  0  0  0  0  0  0  0  0
  -26.6610  -21.3790   21.6754 C   0  0  0  0  0  0  0  0  0  0  0  0
  -21.5117   -6.1606   20.2304 C   0  0  0  0  0  0  0  0  0  0  0  0
  -30.0623  -18.8893   23.0307 C   0  0  0  0  0  0  0  0  0  0  0  0
  -21.4429   -4.3789   18.0849 C   0  0  0  0  0  0  0  0  0  0  0  0
  -20.2964   -5.8505   19.6202 C   0  0  0  0  0  0  0  0  0  0  0  0
  -24.6093  -11.6884   20.7145 C   0  0  0  0  0  0  0  0  0  0  0  0
  -25.3277  -13.7666   20.7267 C   0  0  0  0  0  0  0  0  0  0  0  0
  -23.0191  -13.4841   21.6429 C   0  0  0  0  0  0  0  0  0  0  0  0
  -29.6624  -24.3586   18.2728 C   0  0  0  0  0  0  0  0  0  0  0  0
  -27.7009  -26.8646   18.9010 C   0  0  0  0  0  0  0  0  0  0  0  0
  -25.0069  -28.0780   20.6089 C   0  0  0  0  0  0  0  0  0  0  0  0
  -30.8252  -14.6451   20.6363 C   0  0  0  0  0  0  0  0  0  0  0  0
  -33.3742  -25.2006   14.8711 C   0  0  0  0  0  0  0  0  0  0  0  0
  -27.3922  -23.3250   17.9066 C   0  0  0  0  0  0  0  0  0  0  0  0
  -27.5028  -24.8660   20.4280 C   0  0  0  0  0  0  0  0  0  0  0  0
  -32.6509  -26.0334   15.9263 C   0  0  0  0  0  0  0  0  0  0  0  0
  -29.4654  -12.6105   18.0501 C   0  0  0  0  0  0  0  0  0  0  0  0
  -32.6093  -25.2894   17.2573 C   0  0  0  0  0  0  0  0  0  0  0  0
  -28.0503  -12.2972   18.5415 C   0  0  0  0  0  0  0  0  0  0  0  0
  -30.4699  -12.6484   19.2004 C   0  0  0  0  0  0  0  0  0  0  0  0
  -28.6905  -13.2204   20.8053 C   0  0  0  0  0  0  0  0  0  0  0  0
  -31.8374  -23.9707   17.1284 C   0  0  1  0  0  0  0  0  0  0  0  0
  -28.2021  -24.6123   18.0261 C   0  0  1  0  0  0  0  0  0  0  0  0
  -27.6320  -13.2357   19.6904 C   0  0  2  0  0  0  0  0  0  0  0  0
  -32.4719  -19.6510   20.2174 C   0  0  0  0  0  0  0  0  0  0  0  0
  -23.6680  -30.1737   20.9443 C   0  0  0  0  0  0  0  0  0  0  0  0
  -29.9166  -27.9943   20.6687 C   0  0  0  0  0  0  0  0  0  0  0  0
  -28.2223  -29.5267   21.6932 C   0  0  0  0  0  0  0  0  0  0  0  0
  -28.7396  -29.6916   19.2585 C   0  0  0  0  0  0  0  0  0  0  0  0
  -22.5402  -26.8048   19.5825 C   0  0  0  0  0  0  0  0  0  0  0  0
  -27.3233  -20.1816   25.0279 C   0  0  0  0  0  0  0  0  0  0  0  0
  -27.0898  -21.2896   24.0129 C   0  0  0  0  0  0  0  0  0  1  0  0
  -28.1637  -19.0519   24.4536 C   0  0  0  0  0  0  0  0  0  0  0  0
  -27.4106  -27.7176   20.1123 C   0  0  1  0  0  0  0  0  0  0  0  0
  -23.8036  -28.8828   20.1519 C   0  0  2  0  0  0  0  0  0  0  0  0
  -28.5684  -28.7043   20.4336 C   0  0  0  0  0  0  0  0  0  0  0  0
  -25.8377  -11.6208   20.1944 N   0  0  0  0  0  0  0  0  0  0  0  0
  -26.2483  -12.9003   20.2148 N   0  0  0  0  0  0  0  0  0  0  0  0
  -27.7304  -25.4783   19.1086 N   0  0  0  0  0  0  0  0  0  0  0  0
  -30.0095  -13.5609   20.2493 N   0  0  0  0  0  0  0  0  0  0  0  0
  -25.5779  -15.0898   20.8207 N   0  0  0  0  0  0  0  0  0  0  0  0
  -22.0029  -12.5617   21.9271 N   0  0  0  0  0  0  0  0  0  0  0  0
  -30.2689  -15.4633   21.6190 N   0  0  0  0  0  0  0  0  0  0  0  0
  -30.4116  -24.2184   17.1201 N   0  0  0  0  0  0  0  0  0  0  0  0
  -26.1277  -28.3640   19.8584 N   0  0  0  0  0  0  0  0  0  0  0  0
  -22.5537  -28.0905   20.3268 N   0  3  0  0  0  0  0  0  0  0  0  0
  -22.8297  -14.7002   21.8850 O   0  0  0  0  0  0  0  0  0  0  0  0
  -30.0789  -24.2961   19.4236 O   0  0  0  0  0  0  0  0  0  0  0  0
  -27.8873  -27.4080   17.8094 O   0  0  0  0  0  0  0  0  0  0  0  0
  -24.9584  -27.2784   21.5410 O   0  0  0  0  0  0  0  0  0  0  0  0
  -31.9238  -14.8496   20.1135 O   0  0  0  0  0  0  0  0  0  0  0  0
  -21.5477   -7.0455   21.2950 O   0  0  0  0  0  0  0  0  0  0  0  0
  -26.4243  -20.7632   22.8656 O   0  0  0  0  0  0  0  0  0  1  0  0
  -29.4329  -19.5504   24.0531 O   0  0  0  0  0  0  0  0  0  0  0  0
  -21.4101   -3.5245   17.0538 F   0  0  0  0  0  0  0  0  0  0  0  0
  -19.1588   -6.4062   20.0593 F   0  0  0  0  0  0  0  0  0  0  0  0
  1  2  1  0  0  0  0
  1  5  2  0  0  0  0
  2  6  2  0  0  0  0
  3  8  2  0  0  0  0
  3 18  1  0  0  0  0
  4  9  1  0  0  0  0
  4 18  2  0  0  0  0
  5 20  1  0  0  0  0
  6 22  1  0  0  0  0
  7 10  2  0  0  0  0
  7 21  1  0  0  0  0
  8 26  1  0  0  0  0
  9 26  2  0  0  0  0
 10 27  1  0  0  0  0
 11 12  2  0  0  0  0
 11 28  1  0  0  0  0
 12 30  1  0  0  0  0
 13 23  1  0  0  0  0
 13 27  2  0  0  0  0
 14 24  1  0  0  0  0
 14 25  2  0  0  0  0
 15 24  2  0  0  0  0
 15 29  1  0  0  0  0
 16 25  1  0  0  0  0
 16 29  2  0  0  0  0
 17 30  2  0  0  0  0
 17 31  1  0  0  0  0
 18 32  1  0  0  0  0
 19 32  1  0  0  0  0
 19 33  2  0  0  0  0
 19 34  1  0  0  0  0
 20 22  2  0  0  0  0
 20 39  1  0  0  0  0
 21 23  2  0  0  0  0
 21 40  1  0  0  0  0
 22 48  1  0  0  0  0
 23 41  1  0  0  0  0
 24 51  1  0  0  0  0
 25 69  1  0  0  0  0
 26 78  1  0  0  0  0
 27 79  1  0  0  0  0
 28 31  2  0  0  0  0
 28 78  1  0  0  0  0
 29 80  1  0  0  0  0
 30 81  1  0  0  0  0
 31 82  1  0  0  0  0
 32 63  2  0  0  0  0
 33 64  1  0  0  0  0
 33 67  1  0  0  0  0
 34 68  1  0  0  0  0
 34 73  2  0  0  0  0
 35 49  1  0  0  0  0
 35 70  1  0  0  0  0
 35 74  2  0  0  0  0
 36 60  1  0  0  0  0
 36 65  1  0  0  0  0
 36 75  2  0  0  0  0
 37 61  1  0  0  0  0
 37 71  1  0  0  0  0
 37 76  2  0  0  0  0
 38 66  1  0  0  0  0
 38 69  1  0  0  0  0
 38 77  2  0  0  0  0
 39 42  1  0  0  0  0
 40 49  1  0  0  0  0
 41 65  1  0  0  0  0
 42 44  1  0  0  0  0
 43 45  1  0  0  0  0
 43 46  1  0  0  0  0
 44 48  1  0  0  0  0
 45 50  1  0  0  0  0
 46 66  1  0  0  0  0
 47 50  1  0  0  0  0
 47 66  1  0  0  0  0
 48 70  1  0  0  0  0
 49 65  1  0  0  0  0
 50 64  1  0  0  0  0
 52 61  1  0  0  0  0
 53 62  1  0  0  0  0
 54 62  1  0  0  0  0
 55 62  1  0  0  0  0
 56 72  1  0  0  0  0
 57 58  1  0  0  0  0
 57 59  1  0  0  0  0
 58 79  1  0  0  0  0
 59 80  1  0  0  0  0
 60 62  1  0  0  0  0
 60 71  1  0  0  0  0
 61 72  1  0  0  0  0
 63 64  1  0  0  0  0
M  CHG  1  72   1
M  ISO  4  38 100  58 101  69 100  79 101
M  END
> <Batch ID>
0124

> <Smiles>
CNC(C)C(=O)NC(C(=O)N1Cc2cc([101O:1][101CH2:1]CCOc3cc(C)cc([100NH:0][100C:0](=O)N4CCCC(n5nc(-c6ccc(Oc7ccc(F)cc7F)cc6)c(C(N)=O)c5N)C4)c3)ccc2CC1C(=O)NC1CCCc2ccccc21)C(C)(C)C

> <Shape>
0.261

> <Color>
0.186

> <Negative vol penalty>
0.000

$$$$

  -OEChem-04052302063D

 82 90  0     1  0  0  0  0  0999 V2000
  -16.9266  -29.3775   24.1984 C   0  0  0  0  0  0  0  0  0  0  0  0
  -17.5566  -28.2104   24.6185 C   0  0  0  0  0  0  0  0  0  0  0  0
  -23.0648   -9.9281   21.4862 C   0  0  0  0  0  0  0  0  0  0  0  0
  -23.8397  -10.8346   23.5873 C   0  0  0  0  0  0  0  0  0  0  0  0
  -17.3713  -30.0345   23.0519 C   0  0  0  0  0  0  0  0  0  0  0  0
  -18.6312  -27.6991   23.8916 C   0  0  0  0  0  0  0  0  0  0  0  0
  -24.7747  -24.1235   24.7791 C   0  0  0  0  0  0  0  0  0  0  0  0
  -22.3468   -8.9493   22.1732 C   0  0  0  0  0  0  0  0  0  0  0  0
  -23.1217   -9.8558   24.2744 C   0  0  0  0  0  0  0  0  0  0  0  0
  -25.4455  -22.9992   24.2997 C   0  0  0  0  0  0  0  0  0  0  0  0
  -22.9902   -6.0119   23.7167 C   0  0  0  0  0  0  0  0  0  0  0  0
  -23.0722   -4.7006   23.2484 C   0  0  0  0  0  0  0  0  0  0  0  0
  -29.8342  -19.1196   21.3350 C   0  0  0  0  0  0  0  0  0  0  0  0
  -26.1779  -24.2623   22.3795 C   0  0  0  0  0  0  0  0  0  0  0  0
  -27.5468  -20.0266   20.0207 C   0  0  0  0  0  0  0  0  0  0  0  0
  -20.6825   -4.6777   22.8940 C   0  0  0  0  0  0  0  0  0  0  0  0
  -23.8113  -10.8708   22.1932 C   0  0  0  0  0  0  0  0  0  0  0  0
  -29.2573  -18.3480   20.3265 C   0  0  0  0  0  0  0  0  0  0  0  0
  -24.0995  -13.1581   21.1011 C   0  0  0  0  0  0  0  0  0  0  0  0
  -18.4580  -29.5362   22.3160 C   0  0  0  0  0  0  0  0  0  0  0  0
  -24.7915  -25.3246   24.0556 C   0  0  0  0  0  0  0  0  0  0  0  0
  -19.0900  -28.3493   22.7334 C   0  0  0  0  0  0  0  0  0  0  0  0
  -25.5087  -25.4011   22.8531 C   0  0  0  0  0  0  0  0  0  0  0  0
  -29.2675  -20.3448   21.6865 C   0  0  0  0  0  0  0  0  0  0  0  0
  -28.1135  -18.8014   19.6693 C   0  0  0  0  0  0  0  0  0  0  0  0
  -28.1238  -20.7983   21.0293 C   0  0  0  0  0  0  0  0  0  0  0  0
  -22.3752   -8.9132   23.5673 C   0  0  0  0  0  0  0  0  0  0  0  0
  -26.1448  -23.0676   23.0983 C   0  0  0  0  0  0  0  0  0  0  0  0
  -21.7543   -6.6562   23.7737 C   0  0  0  0  0  0  0  0  0  0  0  0
  -21.9184   -4.0335   22.8371 C   0  0  0  0  0  0  0  0  0  0  0  0
  -20.6004   -5.9890   23.3623 C   0  0  0  0  0  0  0  0  0  0  0  0
  -24.5536  -11.8818   21.4841 C   0  0  0  0  0  0  0  0  0  0  0  0
  -25.1733  -13.7267   20.4608 C   0  0  0  0  0  0  0  0  0  0  0  0
  -29.8724  -17.0728   19.9820 C   0  0  0  0  0  0  0  0  0  0  0  0
  -30.0242  -16.0275   20.8204 C   0  0  0  0  0  0  0  0  0  0  0  0
  -22.8214  -13.7746   21.3060 C   0  0  0  0  0  0  0  0  0  0  0  0
  -30.6631  -14.7905   20.3155 C   0  0  0  0  0  0  0  0  0  0  0  0
  -22.5805  -27.1388   22.6687 C   0  0  0  0  0  0  0  0  0  0  0  0
  -25.0849  -29.1437   22.1885 C   0  0  0  0  0  0  0  0  0  0  0  0
  -28.4601  -29.5403   21.8762 C   0  0  0  0  0  0  0  0  0  0  0  0
  -18.8727  -30.2553   21.0568 C   0  0  0  0  0  0  0  0  0  0  0  0
  -24.0851  -26.5359   24.5996 C   0  0  0  0  0  0  0  0  0  0  0  0
  -25.5746  -26.6727   22.0486 C   0  0  0  0  0  0  0  0  0  0  0  0
  -20.2566  -29.8531   20.5534 C   0  0  0  0  0  0  0  0  0  0  0  0
  -29.5240  -11.7091   18.8788 C   0  0  0  0  0  0  0  0  0  0  0  0
  -20.4081  -28.3353   20.5636 C   0  0  0  0  0  0  0  0  0  0  0  0
  -28.1056  -11.5658   19.4295 C   0  0  0  0  0  0  0  0  0  0  0  0
  -30.4516  -12.3731   19.8913 C   0  0  0  0  0  0  0  0  0  0  0  0
  -28.5397  -13.5606   20.9321 C   0  0  0  0  0  0  0  0  0  0  0  0
  -20.2746  -27.7770   21.9856 C   0  0  1  0  0  0  0  0  0  0  0  0
  -23.7419  -27.5611   23.5232 C   0  0  1  0  0  0  0  0  0  0  0  0
  -27.5672  -12.9191   19.9271 C   0  0  2  0  0  0  0  0  0  0  0  0
  -27.4685  -18.0010   18.5837 C   0  0  0  0  0  0  0  0  0  0  0  0
  -29.5839  -20.6113   24.1594 C   0  0  0  0  0  0  0  0  0  0  0  0
  -30.2068  -31.2910   21.4503 C   0  0  0  0  0  0  0  0  0  0  0  0
  -24.3408  -29.1629   19.2295 C   0  0  0  0  0  0  0  0  0  0  0  0
  -26.6056  -30.1099   18.7377 C   0  0  0  0  0  0  0  0  0  0  0  0
  -25.0006  -31.3911   20.1537 C   0  0  0  0  0  0  0  0  0  0  0  0
  -29.7513  -29.0546   24.4945 C   0  0  0  0  0  0  0  0  0  0  0  0
  -29.9024  -21.1539   22.7695 C   0  0  0  0  0  0  0  0  0  0  0  0
  -27.4963  -22.1125   21.3903 C   0  0  0  0  0  0  0  0  0  1  0  0
  -26.1138  -29.3273   21.0992 C   0  0  1  0  0  0  0  0  0  0  0  0
  -29.4205  -30.5318   22.5077 C   0  0  2  0  0  0  0  0  0  0  0  0
  -25.5125  -29.9731   19.8189 C   0  0  0  0  0  0  0  0  0  0  0  0
  -25.8173  -11.6526   21.1174 N   0  0  0  0  0  0  0  0  0  0  0  0
  -26.1665  -12.7927   20.4973 N   0  0  0  0  0  0  0  0  0  0  0  0
  -29.8940  -13.6365   20.3698 N   0  0  0  0  0  0  0  0  0  0  0  0
  -24.8625  -27.8281   22.6191 N   0  0  0  0  0  0  0  0  0  0  0  0
  -25.3554  -14.9295   19.8755 N   0  0  0  0  0  0  0  0  0  0  0  0
  -21.8309  -13.0500   21.9830 N   0  0  0  0  0  0  0  0  0  0  0  0
  -21.4965  -27.9936   22.7303 N   0  0  0  0  0  0  0  0  0  0  0  0
  -27.2075  -30.0873   21.6946 N   0  0  0  0  0  0  0  0  0  0  0  0
  -30.3871  -29.8239   23.3941 N   0  3  0  0  0  0  0  0  0  0  0  0
  -22.5599  -14.9274   20.8863 O   0  0  0  0  0  0  0  0  0  0  0  0
  -31.8081  -14.9192   19.9023 O   0  0  0  0  0  0  0  0  0  0  0  0
  -22.6623  -26.1141   22.0016 O   0  0  0  0  0  0  0  0  0  0  0  0
  -24.5053  -30.1320   22.6457 O   0  0  0  0  0  0  0  0  0  0  0  0
  -28.7892  -28.3962   21.5707 O   0  0  0  0  0  0  0  0  0  0  0  0
  -21.6746   -7.9583   24.2381 O   0  0  0  0  0  0  0  0  0  0  0  0
  -26.7999  -21.9715   22.6279 O   0  0  0  0  0  0  0  0  0  1  0  0
  -21.9975   -2.7748   22.3860 F   0  0  0  0  0  0  0  0  0  0  0  0
  -19.4104   -6.6031   23.4136 F   0  0  0  0  0  0  0  0  0  0  0  0
  1  2  1  0  0  0  0
  1  5  2  0  0  0  0
  2  6  2  0  0  0  0
  3  8  2  0  0  0  0
  3 17  1  0  0  0  0
  4  9  1  0  0  0  0
  4 17  2  0  0  0  0
  5 20  1  0  0  0  0
  6 22  1  0  0  0  0
  7 10  2  0  0  0  0
  7 21  1  0  0  0  0
  8 27  1  0  0  0  0
  9 27  2  0  0  0  0
 10 28  1  0  0  0  0
 11 12  2  0  0  0  0
 11 29  1  0  0  0  0
 12 30  1  0  0  0  0
 13 18  2  0  0  0  0
 13 24  1  0  0  0  0
 14 23  1  0  0  0  0
 14 28  2  0  0  0  0
 15 25  2  0  0  0  0
 15 26  1  0  0  0  0
 16 30  2  0  0  0  0
 16 31  1  0  0  0  0
 17 32  1  0  0  0  0
 18 25  1  0  0  0  0
 18 34  1  0  0  0  0
 19 32  1  0  0  0  0
 19 33  2  0  0  0  0
 19 36  1  0  0  0  0
 20 22  2  0  0  0  0
 20 41  1  0  0  0  0
 21 23  2  0  0  0  0
 21 42  1  0  0  0  0
 22 50  1  0  0  0  0
 23 43  1  0  0  0  0
 24 26  2  0  0  0  0
 24 60  1  0  0  0  0
 25 53  1  0  0  0  0
 26 61  1  0  0  0  0
 27 79  1  0  0  0  0
 28 80  1  0  0  0  0
 29 31  2  0  0  0  0
 29 79  1  0  0  0  0
 30 81  1  0  0  0  0
 31 82  1  0  0  0  0
 32 65  2  0  0  0  0
 33 66  1  0  0  0  0
 33 69  1  0  0  0  0
 34 35  2  0  0  0  0
 35 37  1  0  0  0  0
 36 70  1  0  0  0  0
 36 74  2  0  0  0  0
 37 67  1  0  0  0  0
 37 75  2  0  0  0  0
 38 51  1  0  0  0  0
 38 71  1  0  0  0  0
 38 76  2  0  0  0  0
 39 62  1  0  0  0  0
 39 68  1  0  0  0  0
 39 77  2  0  0  0  0
 40 63  1  0  0  0  0
 40 72  1  0  0  0  0
 40 78  2  0  0  0  0
 41 44  1  0  0  0  0
 42 51  1  0  0  0  0
 43 68  1  0  0  0  0
 44 46  1  0  0  0  0
 45 47  1  0  0  0  0
 45 48  1  0  0  0  0
 46 50  1  0  0  0  0
 47 52  1  0  0  0  0
 48 67  1  0  0  0  0
 49 52  1  0  0  0  0
 49 67  1  0  0  0  0
 50 71  1  0  0  0  0
 51 68  1  0  0  0  0
 52 66  1  0  0  0  0
 54 60  1  0  0  0  0
 55 63  1  0  0  0  0
 56 64  1  0  0  0  0
 57 64  1  0  0  0  0
 58 64  1  0  0  0  0
 59 73  1  0  0  0  0
 61 80  1  0  0  0  0
 62 64  1  0  0  0  0
 62 72  1  0  0  0  0
 63 73  1  0  0  0  0
 65 66  1  0  0  0  0
M  CHG  1  73   1
M  ISO  4  35 100  37 100  61 101  80 101
M  END
> <Batch ID>
0124

> <Smiles>
CCc1cc(C=[100CH:0][100C:0](=O)N2CCCC(n3nc(-c4ccc(Oc5ccc(F)cc5F)cc4)c(C(N)=O)c3N)C2)c(C)cc1[101CH2:1][101O:1]c1ccc2c(c1)CN(C(=O)C(NC(=O)C(C)NC)C(C)(C)C)C(C(=O)NC1CCCc3ccccc31)C2

> <Shape>
0.299

> <Color>
0.185

> <Negative vol penalty>
0.000

$$$$

  -OEChem-04052302063D

 84 92  0     1  0  0  0  0  0999 V2000
  -28.7749  -37.3539   21.2814 C   0  0  0  0  0  0  0  0  0  0  0  0
  -29.1043  -36.0448   20.9449 C   0  0  0  0  0  0  0  0  0  0  0  0
  -24.8343   -8.2891   20.7572 C   0  0  0  0  0  0  0  0  0  0  0  0
  -23.1890   -9.8709   19.9647 C   0  0  0  0  0  0  0  0  0  0  0  0
  -27.8149  -37.5998   22.2621 C   0  0  0  0  0  0  0  0  0  0  0  0
  -28.4746  -34.9808   21.5898 C   0  0  0  0  0  0  0  0  0  0  0  0
  -26.9807  -29.5639   19.1544 C   0  0  0  0  0  0  0  0  0  0  0  0
  -23.8132   -7.4564   21.2150 C   0  0  0  0  0  0  0  0  0  0  0  0
  -22.1679   -9.0382   20.4225 C   0  0  0  0  0  0  0  0  0  0  0  0
  -27.6024  -28.3165   19.1889 C   0  0  0  0  0  0  0  0  0  0  0  0
  -21.7287   -7.3011   23.8711 C   0  0  0  0  0  0  0  0  0  0  0  0
  -21.8659   -6.7485   25.1444 C   0  0  0  0  0  0  0  0  0  0  0  0
  -26.1909  -27.6708   21.0355 C   0  0  0  0  0  0  0  0  0  0  0  0
  -21.7835   -4.5302   24.1906 C   0  0  0  0  0  0  0  0  0  0  0  0
  -24.5222   -9.4964   20.1322 C   0  0  0  0  0  0  0  0  0  0  0  0
  -26.1777  -10.3452   18.3867 C   0  0  0  0  0  0  0  0  0  0  0  0
  -27.1662  -36.5383   22.9125 C   0  0  0  0  0  0  0  0  0  0  0  0
  -25.9652  -29.8786   20.0688 C   0  0  0  0  0  0  0  0  0  0  0  0
  -27.5060  -35.2128   22.5811 C   0  0  0  0  0  0  0  0  0  0  0  0
  -25.5561  -28.9219   21.0089 C   0  0  0  0  0  0  0  0  0  0  0  0
  -22.4800   -7.8309   21.0476 C   0  0  0  0  0  0  0  0  0  0  0  0
  -27.2096  -27.3707   20.1314 C   0  0  0  0  0  0  0  0  0  0  0  0
  -21.6188   -6.4683   22.7575 C   0  0  0  0  0  0  0  0  0  0  0  0
  -21.8934   -5.3631   25.3042 C   0  0  0  0  0  0  0  0  0  0  0  0
  -21.6463   -5.0829   22.9173 C   0  0  0  0  0  0  0  0  0  0  0  0
  -25.5765  -10.3573   19.6596 C   0  0  0  0  0  0  0  0  0  0  0  0
  -27.1148  -11.3479   18.4400 C   0  0  0  0  0  0  0  0  0  0  0  0
  -29.8090  -21.2366   19.8260 C   0  0  0  0  0  0  0  0  0  0  0  0
  -27.6712  -20.0158   18.0413 C   0  0  0  0  0  0  0  0  0  0  0  0
  -29.1328  -21.8687   18.8436 C   0  0  0  0  0  0  0  0  0  0  0  0
  -29.9347  -19.8085   20.0985 C   0  0  0  0  0  0  0  0  0  0  0  0
  -28.3609  -21.1472   17.8213 C   0  0  0  0  0  0  0  0  0  0  0  0
  -28.9397  -18.9144   19.9374 C   0  0  0  0  0  0  0  0  0  0  0  0
  -27.6330  -19.2649   19.3159 C   0  0  0  0  0  0  0  0  0  0  0  0
  -29.2479  -23.3231   18.8308 C   0  0  0  0  0  0  0  0  0  0  0  0
  -28.1992  -24.1488   18.9519 C   0  0  0  0  0  0  0  0  0  0  0  0
  -25.9127   -9.5029   17.2571 C   0  0  0  0  0  0  0  0  0  0  0  0
  -25.6037  -32.0529   22.3591 C   0  0  0  0  0  0  0  0  0  0  0  0
  -22.6003  -30.8358   22.5018 C   0  0  0  0  0  0  0  0  0  0  0  0
  -20.5113  -28.2009   21.9184 C   0  0  0  0  0  0  0  0  0  0  0  0
  -28.3594  -16.5650   19.7145 C   0  0  0  0  0  0  0  0  0  0  0  0
  -26.1693  -36.8536   23.9995 C   0  0  0  0  0  0  0  0  0  0  0  0
  -25.2861  -31.2190   20.0012 C   0  0  0  0  0  0  0  0  0  0  0  0
  -24.4570  -29.2030   21.9995 C   0  0  0  0  0  0  0  0  0  0  0  0
  -25.2782  -35.6710   24.3704 C   0  0  0  0  0  0  0  0  0  0  0  0
  -28.8868  -14.0114   22.3336 C   0  0  0  0  0  0  0  0  0  0  0  0
  -26.1139  -34.4070   24.5454 C   0  0  0  0  0  0  0  0  0  0  0  0
  -28.0680  -12.8496   21.7791 C   0  0  0  0  0  0  0  0  0  0  0  0
  -28.2696  -15.3656   21.9864 C   0  0  0  0  0  0  0  0  0  0  0  0
  -27.2076  -14.3880   19.9716 C   0  0  0  0  0  0  0  0  0  0  0  0
  -26.8271  -34.0321   23.2407 C   0  0  1  0  0  0  0  0  0  0  0  0
  -24.6170  -31.6167   21.3133 C   0  0  1  0  0  0  0  0  0  0  0  0
  -27.8399  -13.0197   20.2696 C   0  0  2  0  0  0  0  0  0  0  0  0
  -31.2843  -19.4642   20.6884 C   0  0  0  0  0  0  0  0  0  0  0  0
  -28.3057  -21.7695   16.4461 C   0  0  0  0  0  0  0  0  0  0  0  0
  -18.1181  -27.4903   22.1738 C   0  0  0  0  0  0  0  0  0  0  0  0
  -23.0453  -30.4204   25.4917 C   0  0  0  0  0  0  0  0  0  0  0  0
  -21.0695  -28.8828   25.5013 C   0  0  0  0  0  0  0  0  0  0  0  0
  -20.7775  -31.2821   24.8843 C   0  0  0  0  0  0  0  0  0  0  0  0
  -20.1877  -27.8331   18.9997 C   0  0  0  0  0  0  0  0  0  0  0  0
  -28.3147  -25.6387   18.9337 C   0  0  0  0  0  0  0  0  0  1  0  0
  -21.9347  -29.7189   23.2690 C   0  0  1  0  0  0  0  0  0  0  0  0
  -19.1492  -28.1236   21.2527 C   0  0  2  0  0  0  0  0  0  0  0  0
  -21.7288  -30.0711   24.7693 C   0  0  0  0  0  0  0  0  0  0  0  0
  -26.0889  -11.2934   20.4629 N   0  0  0  0  0  0  0  0  0  0  0  0
  -27.0219  -11.8788   19.6928 N   0  0  0  0  0  0  0  0  0  0  0  0
  -23.8280  -30.5302   21.8974 N   0  0  0  0  0  0  0  0  0  0  0  0
  -27.9993  -15.4843   20.5444 N   0  0  0  0  0  0  0  0  0  0  0  0
  -28.0011  -11.8184   17.5369 N   0  0  0  0  0  0  0  0  0  0  0  0
  -24.9166   -8.5237   17.3729 N   0  0  0  0  0  0  0  0  0  0  0  0
  -29.0253  -17.6127   20.3447 N   0  0  0  0  0  0  0  0  0  0  0  0
  -25.9028  -33.4015   22.3227 N   0  0  0  0  0  0  0  0  0  0  0  0
  -20.7016  -29.4102   22.5530 N   0  0  0  0  0  0  0  0  0  0  0  0
  -19.2275  -27.3110   20.0058 N   0  3  0  0  0  0  0  0  0  0  0  0
  -26.5723  -18.8231   19.7468 O   0  0  0  0  0  0  0  0  0  0  0  0
  -26.5518   -9.6043   16.1825 O   0  0  0  0  0  0  0  0  0  0  0  0
  -26.0588  -31.2274   23.1421 O   0  0  0  0  0  0  0  0  0  0  0  0
  -22.0478  -31.9366   22.4350 O   0  0  0  0  0  0  0  0  0  0  0  0
  -21.3235  -27.2792   21.8825 O   0  0  0  0  0  0  0  0  0  0  0  0
  -28.0948  -16.5892   18.5070 O   0  0  0  0  0  0  0  0  0  0  0  0
  -21.4834   -7.0184   21.4939 O   0  0  0  0  0  0  0  0  0  0  0  0
  -27.8152  -26.1526   20.1677 O   0  0  0  0  0  0  0  0  0  1  0  0
  -22.0267   -4.8326   26.5269 F   0  0  0  0  0  0  0  0  0  0  0  0
  -21.5423   -4.2777   21.8511 F   0  0  0  0  0  0  0  0  0  0  0  0
  1  2  1  0  0  0  0
  1  5  2  0  0  0  0
  2  6  2  0  0  0  0
  3  8  2  0  0  0  0
  3 15  1  0  0  0  0
  4  9  1  0  0  0  0
  4 15  2  0  0  0  0
  5 17  1  0  0  0  0
  6 19  1  0  0  0  0
  7 10  2  0  0  0  0
  7 18  1  0  0  0  0
  8 21  1  0  0  0  0
  9 21  2  0  0  0  0
 10 22  1  0  0  0  0
 11 12  2  0  0  0  0
 11 23  1  0  0  0  0
 12 24  1  0  0  0  0
 13 20  1  0  0  0  0
 13 22  2  0  0  0  0
 14 24  2  0  0  0  0
 14 25  1  0  0  0  0
 15 26  1  0  0  0  0
 16 26  1  0  0  0  0
 16 27  2  0  0  0  0
 16 37  1  0  0  0  0
 17 19  2  0  0  0  0
 17 42  1  0  0  0  0
 18 20  2  0  0  0  0
 18 43  1  0  0  0  0
 19 51  1  0  0  0  0
 20 44  1  0  0  0  0
 21 81  1  0  0  0  0
 22 82  1  0  0  0  0
 23 25  2  0  0  0  0
 23 81  1  0  0  0  0
 24 83  1  0  0  0  0
 25 84  1  0  0  0  0
 26 65  2  0  0  0  0
 27 66  1  0  0  0  0
 27 69  1  0  0  0  0
 28 30  2  0  0  0  0
 28 31  1  0  0  0  0
 29 32  2  0  0  0  0
 29 34  1  0  0  0  0
 30 32  1  0  0  0  0
 30 35  1  0  0  0  0
 31 33  2  0  0  0  0
 31 54  1  0  0  0  0
 32 55  1  0  0  0  0
 33 34  1  0  0  0  0
 33 71  1  0  0  0  0
 34 75  2  0  0  0  0
 35 36  2  0  0  0  0
 36 61  1  0  0  0  0
 37 70  1  0  0  0  0
 37 76  2  0  0  0  0
 38 52  1  0  0  0  0
 38 72  1  0  0  0  0
 38 77  2  0  0  0  0
 39 62  1  0  0  0  0
 39 67  1  0  0  0  0
 39 78  2  0  0  0  0
 40 63  1  0  0  0  0
 40 73  1  0  0  0  0
 40 79  2  0  0  0  0
 41 68  1  0  0  0  0
 41 71  1  0  0  0  0
 41 80  2  0  0  0  0
 42 45  1  0  0  0  0
 43 52  1  0  0  0  0
 44 67  1  0  0  0  0
 45 47  1  0  0  0  0
 46 48  1  0  0  0  0
 46 49  1  0  0  0  0
 47 51  1  0  0  0  0
 48 53  1  0  0  0  0
 49 68  1  0  0  0  0
 50 53  1  0  0  0  0
 50 68  1  0  0  0  0
 51 72  1  0  0  0  0
 52 67  1  0  0  0  0
 53 66  1  0  0  0  0
 56 63  1  0  0  0  0
 57 64  1  0  0  0  0
 58 64  1  0  0  0  0
 59 64  1  0  0  0  0
 60 74  1  0  0  0  0
 61 82  1  0  0  0  0
 62 64  1  0  0  0  0
 62 73  1  0  0  0  0
 63 74  1  0  0  0  0
 65 66  1  0  0  0  0
M  CHG  1  74   1
M  ISO  4  41 100  61 101  71 100  82 101
M  END
> <Batch ID>
0124

> <Smiles>
CNC(C)C(=O)NC(C(=O)N1Cc2cc([101O:1][101CH2:1]C=Cc3cc(C)c([100NH:0][100C:0](=O)N4CCCC(n5nc(-c6ccc(Oc7ccc(F)cc7F)cc6)c(C(N)=O)c5N)C4)c(=O)cc3C)ccc2CC1C(=O)NC1CCCc2ccccc21)C(C)(C)C

> <Shape>
0.336

> <Color>
0.110

> <Negative vol penalty>
0.000

$$$$

  -OEChem-04052302063D

 85 93  0     1  0  0  0  0  0999 V2000
  -24.1061  -21.7471   20.3217 C   0  0  0  0  0  0  0  0  0  0  0  0
  -24.8746  -21.4839   21.4511 C   0  0  0  0  0  0  0  0  0  0  0  0
  -22.9995   -9.8949   19.9820 C   0  0  0  0  0  0  0  0  0  0  0  0
  -23.7245   -9.9464   22.2861 C   0  0  0  0  0  0  0  0  0  0  0  0
  -24.5484  -22.6750   19.3797 C   0  0  0  0  0  0  0  0  0  0  0  0
  -26.0865  -22.1478   21.6386 C   0  0  0  0  0  0  0  0  0  0  0  0
  -26.6655  -23.8324   26.3791 C   0  0  0  0  0  0  0  0  0  0  0  0
  -22.2323   -8.7610   20.2488 C   0  0  0  0  0  0  0  0  0  0  0  0
  -22.9573   -8.8125   22.5529 C   0  0  0  0  0  0  0  0  0  0  0  0
  -27.0357  -22.8986   27.3459 C   0  0  0  0  0  0  0  0  0  0  0  0
  -23.1997   -5.4732   22.0825 C   0  0  0  0  0  0  0  0  0  0  0  0
  -23.7866   -4.4560   22.8351 C   0  0  0  0  0  0  0  0  0  0  0  0
  -29.8824  -17.4475   23.0967 C   0  0  0  0  0  0  0  0  0  0  0  0
  -31.8546  -18.3427   24.1669 C   0  0  0  0  0  0  0  0  0  0  0  0
  -29.3215  -23.6542   27.1918 C   0  0  0  0  0  0  0  0  0  0  0  0
  -32.0602  -16.5481   22.5625 C   0  0  0  0  0  0  0  0  0  0  0  0
  -22.0627   -4.7007   24.5101 C   0  0  0  0  0  0  0  0  0  0  0  0
  -23.7457  -10.4876   21.0007 C   0  0  0  0  0  0  0  0  0  0  0  0
  -30.4713  -18.3440   23.9883 C   0  0  0  0  0  0  0  0  0  0  0  0
  -24.1324  -13.0029   20.8236 C   0  0  0  0  0  0  0  0  0  0  0  0
  -25.7616  -23.3576   19.5606 C   0  0  0  0  0  0  0  0  0  0  0  0
  -27.6240  -24.6781   25.8025 C   0  0  0  0  0  0  0  0  0  0  0  0
  -26.5460  -23.0847   20.6975 C   0  0  0  0  0  0  0  0  0  0  0  0
  -28.9604  -24.5996   26.2197 C   0  0  0  0  0  0  0  0  0  0  0  0
  -30.6768  -16.5494   22.3838 C   0  0  0  0  0  0  0  0  0  0  0  0
  -22.2111   -8.2198   21.5342 C   0  0  0  0  0  0  0  0  0  0  0  0
  -28.3644  -22.8074   27.7503 C   0  0  0  0  0  0  0  0  0  0  0  0
  -22.0443   -6.1043   22.5437 C   0  0  0  0  0  0  0  0  0  0  0  0
  -23.2181   -4.0697   24.0488 C   0  0  0  0  0  0  0  0  0  0  0  0
  -32.6491  -17.4447   23.4540 C   0  0  0  0  0  0  0  0  0  0  0  0
  -21.4758   -5.7180   23.7575 C   0  0  0  0  0  0  0  0  0  0  0  0
  -24.5388  -11.6586   20.7256 C   0  0  0  0  0  0  0  0  0  0  0  0
  -25.2427  -13.7247   20.4589 C   0  0  0  0  0  0  0  0  0  0  0  0
  -29.6591  -18.9705   26.9850 C   0  0  0  0  0  0  0  0  0  0  0  0
  -29.6245  -19.2999   24.7505 C   0  0  0  0  0  0  0  0  0  0  0  0
  -22.8648  -13.5502   21.2098 C   0  0  0  0  0  0  0  0  0  0  0  0
  -28.7349  -25.1316   22.8590 C   0  0  0  0  0  0  0  0  0  0  0  0
  -30.3327  -27.5830   24.2590 C   0  0  0  0  0  0  0  0  0  0  0  0
  -31.6391  -28.9400   27.1048 C   0  0  0  0  0  0  0  0  0  0  0  0
  -30.7227  -14.6827   20.6929 C   0  0  0  0  0  0  0  0  0  0  0  0
  -26.2211  -24.3171   18.4915 C   0  0  0  0  0  0  0  0  0  0  0  0
  -27.2039  -25.6983   24.7802 C   0  0  0  0  0  0  0  0  0  0  0  0
  -30.0243  -25.4984   25.6463 C   0  0  0  0  0  0  0  0  0  0  0  0
  -27.3360  -25.2530   18.9513 C   0  0  0  0  0  0  0  0  0  0  0  0
  -29.6031  -12.2294   18.3679 C   0  0  0  0  0  0  0  0  0  0  0  0
  -28.4184  -24.4717   19.6894 C   0  0  0  0  0  0  0  0  0  0  0  0
  -28.1523  -11.9728   18.7821 C   0  0  0  0  0  0  0  0  0  0  0  0
  -30.5037  -12.4728   19.5777 C   0  0  0  0  0  0  0  0  0  0  0  0
  -28.5887  -13.2634   20.9107 C   0  0  0  0  0  0  0  0  0  0  0  0
  -27.8543  -23.8027   20.9487 C   0  0  1  0  0  0  0  0  0  0  0  0
  -28.3526  -26.1580   23.8877 C   0  0  1  0  0  0  0  0  0  0  0  0
  -27.6310  -13.0771   19.7225 C   0  0  2  0  0  0  0  0  0  0  0  0
  -32.9201  -30.9347   27.9279 C   0  0  0  0  0  0  0  0  0  0  0  0
  -32.8961  -26.4194   23.0821 C   0  0  0  0  0  0  0  0  0  0  0  0
  -34.1940  -27.8469   24.6777 C   0  0  0  0  0  0  0  0  0  0  0  0
  -32.7303  -28.9118   22.9612 C   0  0  0  0  0  0  0  0  0  0  0  0
  -29.4352  -29.7591   28.9022 C   0  0  0  0  0  0  0  0  0  0  0  0
  -30.0658  -19.3063   28.3934 C   0  0  0  0  0  0  0  0  0  0  0  0
  -28.8469  -19.5554   29.2734 C   0  0  0  0  0  0  0  0  0  0  0  0
  -27.9686  -20.6903   28.7589 C   0  0  0  0  0  0  0  0  0  1  0  0
  -31.6735  -27.7375   24.9352 C   0  0  1  0  0  0  0  0  0  0  0  0
  -31.5419  -30.3368   27.6913 C   0  0  2  0  0  0  0  0  0  0  0  0
  -32.8540  -27.7105   23.9236 C   0  0  0  0  0  0  0  0  0  0  0  0
  -25.8081  -11.5312   20.3295 N   0  0  0  0  0  0  0  0  0  0  0  0
  -30.0546  -19.7002   25.9925 N   0  0  0  0  0  0  0  0  0  0  0  0
  -26.2088  -12.8047   20.1754 N   0  0  0  0  0  0  0  0  0  0  0  0
  -29.5649  -26.4753   24.6452 N   0  0  0  0  0  0  0  0  0  0  0  0
  -29.9492  -13.5345   20.4205 N   0  0  0  0  0  0  0  0  0  0  0  0
  -25.4769  -15.0502   20.3563 N   0  0  0  0  0  0  0  0  0  0  0  0
  -21.8324  -12.6668   21.5536 N   0  0  0  0  0  0  0  0  0  0  0  0
  -30.0789  -15.6386   21.4780 N   0  0  0  0  0  0  0  0  0  0  0  0
  -27.7037  -24.7728   22.0120 N   0  0  0  0  0  0  0  0  0  0  0  0
  -31.5929  -28.9603   25.7269 N   0  0  0  0  0  0  0  0  0  0  0  0
  -28.4959  -19.7266   24.3046 N   0  3  0  0  0  0  0  0  0  0  0  0
  -30.8146  -30.3032   28.9916 N   0  3  0  0  0  0  0  0  0  0  0  0
  -22.6488  -14.7857   21.2330 O   0  0  0  0  0  0  0  0  0  0  0  0
  -29.8809  -24.6985   22.8345 O   0  0  0  0  0  0  0  0  0  0  0  0
  -29.9765  -28.4184   23.4242 O   0  0  0  0  0  0  0  0  0  0  0  0
  -31.7489  -27.9321   27.7994 O   0  0  0  0  0  0  0  0  0  0  0  0
  -31.8614  -14.8207   20.2389 O   0  0  0  0  0  0  0  0  0  0  0  0
  -21.4624   -7.1134   21.7950 O   0  0  0  0  0  0  0  0  0  0  0  0
  -28.7285  -21.8964   28.6933 O   0  0  0  0  0  0  0  0  0  1  0  0
  -23.7809   -3.0918   24.7707 F   0  0  0  0  0  0  0  0  0  0  0  0
  -33.9772  -17.4414   23.6278 F   0  0  0  0  0  0  0  0  0  0  0  0
  -20.3653   -6.3197   24.2051 F   0  0  0  0  0  0  0  0  0  0  0  0
  1  2  1  0  0  0  0
  1  5  2  0  0  0  0
  2  6  2  0  0  0  0
  3  8  2  0  0  0  0
  3 18  1  0  0  0  0
  4  9  1  0  0  0  0
  4 18  2  0  0  0  0
  5 21  1  0  0  0  0
  6 23  1  0  0  0  0
  7 10  2  0  0  0  0
  7 22  1  0  0  0  0
  8 26  1  0  0  0  0
  9 26  2  0  0  0  0
 10 27  1  0  0  0  0
 11 12  2  0  0  0  0
 11 28  1  0  0  0  0
 12 29  1  0  0  0  0
 13 19  2  0  0  0  0
 13 25  1  0  0  0  0
 14 19  1  0  0  0  0
 14 30  2  0  0  0  0
 15 24  1  0  0  0  0
 15 27  2  0  0  0  0
 16 25  2  0  0  0  0
 16 30  1  0  0  0  0
 17 29  2  0  0  0  0
 17 31  1  0  0  0  0
 18 32  1  0  0  0  0
 19 35  1  0  0  0  0
 20 32  1  0  0  0  0
 20 33  2  0  0  0  0
 20 36  1  0  0  0  0
 21 23  2  0  0  0  0
 21 41  1  0  0  0  0
 22 24  2  0  0  0  0
 22 42  1  0  0  0  0
 23 50  1  0  0  0  0
 24 43  1  0  0  0  0
 25 71  1  0  0  0  0
 26 81  1  0  0  0  0
 27 82  1  0  0  0  0
 28 31  2  0  0  0  0
 28 81  1  0  0  0  0
 29 83  1  0  0  0  0
 30 84  1  0  0  0  0
 31 85  1  0  0  0  0
 32 64  2  0  0  0  0
 33 66  1  0  0  0  0
 33 69  1  0  0  0  0
 34 58  1  0  0  0  0
 34 65  2  0  0  0  0
 35 65  1  0  0  0  0
 35 74  2  0  0  0  0
 36 70  1  0  0  0  0
 36 76  2  0  0  0  0
 37 51  1  0  0  0  0
 37 72  1  0  0  0  0
 37 77  2  0  0  0  0
 38 61  1  0  0  0  0
 38 67  1  0  0  0  0
 38 78  2  0  0  0  0
 39 62  1  0  0  0  0
 39 73  1  0  0  0  0
 39 79  2  0  0  0  0
 40 68  1  0  0  0  0
 40 71  1  0  0  0  0
 40 80  2  0  0  0  0
 41 44  1  0  0  0  0
 42 51  1  0  0  0  0
 43 67  1  0  0  0  0
 44 46  1  0  0  0  0
 45 47  1  0  0  0  0
 45 48  1  0  0  0  0
 46 50  1  0  0  0  0
 47 52  1  0  0  0  0
 48 68  1  0  0  0  0
 49 52  1  0  0  0  0
 49 68  1  0  0  0  0
 50 72  1  0  0  0  0
 51 67  1  0  0  0  0
 52 66  1  0  0  0  0
 53 62  1  0  0  0  0
 54 63  1  0  0  0  0
 55 63  1  0  0  0  0
 56 63  1  0  0  0  0
 57 75  1  0  0  0  0
 58 59  1  0  0  0  0
 59 60  1  0  0  0  0
 60 82  1  0  0  0  0
 61 63  1  0  0  0  0
 61 73  1  0  0  0  0
 62 75  1  0  0  0  0
 64 66  1  0  0  0  0
M  CHG  2  74   1  75   1
M  ISO  4  40 100  60 101  71 100  82 101
M  END
> <Batch ID>
0124

> <Smiles>
CNC(C)C(=O)NC(C(=O)N1Cc2cc([101O:1][101CH2:1]CC=CNC(=N)c3cc(F)cc([100NH:0][100C:0](=O)N4CCCC(n5nc(-c6ccc(Oc7ccc(F)cc7F)cc6)c(C(N)=O)c5N)C4)c3)ccc2CC1C(=O)NC1CCCc2ccccc21)C(C)(C)C

> <Shape>
0.185

> <Color>
0.193

> <Negative vol penalty>
0.000

$$$$

  -OEChem-04052302063D

 85 93  0     1  0  0  0  0  0999 V2000
  -23.6817  -20.7603   28.6900 C   0  0  0  0  0  0  0  0  0  0  0  0
  -24.3897  -20.2795   27.5932 C   0  0  0  0  0  0  0  0  0  0  0  0
  -18.5406  -22.3379   20.1424 C   0  0  0  0  0  0  0  0  0  0  0  0
  -20.7278  -22.8826   21.0122 C   0  0  0  0  0  0  0  0  0  0  0  0
  -23.0370  -21.9943   28.6157 C   0  0  0  0  0  0  0  0  0  0  0  0
  -24.4525  -21.0321   26.4210 C   0  0  0  0  0  0  0  0  0  0  0  0
  -29.1245  -21.2113   24.4754 C   0  0  0  0  0  0  0  0  0  0  0  0
  -17.9773  -23.3416   20.9303 C   0  0  0  0  0  0  0  0  0  0  0  0
  -20.1645  -23.8864   21.8001 C   0  0  0  0  0  0  0  0  0  0  0  0
  -29.5644  -20.0912   23.7713 C   0  0  0  0  0  0  0  0  0  0  0  0
  -19.3507  -26.8316   23.7702 C   0  0  0  0  0  0  0  0  0  0  0  0
  -19.9944  -28.0686   23.8040 C   0  0  0  0  0  0  0  0  0  0  0  0
  -28.5632  -13.8937   19.9407 C   0  0  0  0  0  0  0  0  0  0  0  0
  -30.3427  -12.2773   19.7008 C   0  0  0  0  0  0  0  0  0  0  0  0
  -29.0555  -21.2052   21.6930 C   0  0  0  0  0  0  0  0  0  0  0  0
  -28.0735  -11.6681   19.1383 C   0  0  0  0  0  0  0  0  0  0  0  0
  -19.6955  -28.2893   21.4168 C   0  0  0  0  0  0  0  0  0  0  0  0
  -19.9159  -22.1083   20.1834 C   0  0  0  0  0  0  0  0  0  0  0  0
  -29.9128  -13.5579   20.0483 C   0  0  0  0  0  0  0  0  0  0  0  0
  -20.9898  -21.1960   18.0569 C   0  0  0  0  0  0  0  0  0  0  0  0
  -23.1000  -22.7668   27.4453 C   0  0  0  0  0  0  0  0  0  0  0  0
  -28.6358  -22.3344   23.7926 C   0  0  0  0  0  0  0  0  0  0  0  0
  -23.8069  -22.2770   26.3305 C   0  0  0  0  0  0  0  0  0  0  0  0
  -28.6124  -22.3392   22.3907 C   0  0  0  0  0  0  0  0  0  0  0  0
  -27.6436  -12.9487   19.4857 C   0  0  0  0  0  0  0  0  0  0  0  0
  -18.7892  -24.1159   21.7591 C   0  0  0  0  0  0  0  0  0  0  0  0
  -29.5273  -20.0869   22.3800 C   0  0  0  0  0  0  0  0  0  0  0  0
  -18.8795  -26.3234   22.5597 C   0  0  0  0  0  0  0  0  0  0  0  0
  -20.1668  -28.7974   22.6273 C   0  0  0  0  0  0  0  0  0  0  0  0
  -29.4231  -11.3323   19.2458 C   0  0  0  0  0  0  0  0  0  0  0  0
  -19.0519  -27.0523   21.3830 C   0  0  0  0  0  0  0  0  0  0  0  0
  -20.4983  -21.0713   19.3702 C   0  0  0  0  0  0  0  0  0  0  0  0
  -21.4325  -19.9363   17.7349 C   0  0  0  0  0  0  0  0  0  0  0  0
  -30.3853  -15.5886   21.4907 C   0  0  0  0  0  0  0  0  0  0  0  0
  -30.9041  -16.8235   21.5203 C   0  0  0  0  0  0  0  0  0  0  0  0
  -25.7056  -13.6501   20.4755 C   0  0  0  0  0  0  0  0  0  0  0  0
  -30.8958  -14.5667   20.5326 C   0  0  0  0  0  0  0  0  0  0  0  0
  -21.0415  -22.3476   17.2043 C   0  0  0  0  0  0  0  0  0  0  0  0
  -25.8479  -23.8577   23.6868 C   0  0  0  0  0  0  0  0  0  0  0  0
  -24.0704  -15.5232   20.2612 C   0  0  0  0  0  0  0  0  0  0  0  0
  -27.5104  -25.9637   21.8639 C   0  0  0  0  0  0  0  0  0  0  0  0
  -30.1696  -26.5451   19.8054 C   0  0  0  0  0  0  0  0  0  0  0  0
  -22.3476  -24.0730   27.3962 C   0  0  0  0  0  0  0  0  0  0  0  0
  -28.1899  -23.5450   24.5660 C   0  0  0  0  0  0  0  0  0  0  0  0
  -28.1158  -23.5276   21.6099 C   0  0  0  0  0  0  0  0  0  0  0  0
  -22.7756  -24.9795   26.2450 C   0  0  0  0  0  0  0  0  0  0  0  0
  -20.5365  -15.3821   19.4137 C   0  0  0  0  0  0  0  0  0  0  0  0
  -22.8663  -24.1857   24.9456 C   0  0  0  0  0  0  0  0  0  0  0  0
  -20.2096  -16.8621   19.2188 C   0  0  0  0  0  0  0  0  0  0  0  0
  -21.5658  -15.1759   20.5218 C   0  0  0  0  0  0  0  0  0  0  0  0
  -22.5026  -17.4326   20.1296 C   0  0  0  0  0  0  0  0  0  0  0  0
  -23.9188  -23.0754   25.0498 C   0  0  1  0  0  0  0  0  0  0  0  0
  -27.2315  -24.4357   23.7815 C   0  0  1  0  0  0  0  0  0  0  0  0
  -21.4905  -17.6860   18.9998 C   0  0  2  0  0  0  0  0  0  0  0  0
  -31.2444  -28.3551   18.4393 C   0  0  0  0  0  0  0  0  0  0  0  0
  -25.3424  -25.6452   19.7406 C   0  0  0  0  0  0  0  0  0  0  0  0
  -26.9080  -26.6841   18.0860 C   0  0  0  0  0  0  0  0  0  0  0  0
  -26.1446  -27.9911   20.0688 C   0  0  0  0  0  0  0  0  0  0  0  0
  -32.6746  -26.4023   21.3749 C   0  0  0  0  0  0  0  0  0  0  0  0
  -30.4302  -17.8881   22.4561 C   0  0  0  0  0  0  0  0  0  1  0  0
  -24.2584  -14.0435   20.4827 C   0  0  0  0  0  0  0  0  0  0  0  0
  -27.7987  -26.1060   20.3889 C   0  0  1  0  0  0  0  0  0  0  0  0
  -31.2066  -27.6536   19.7881 C   0  0  2  0  0  0  0  0  0  0  0  0
  -26.5560  -26.5833   19.5855 C   0  0  0  0  0  0  0  0  0  0  0  0
  -20.6173  -19.8303   19.8496 N   0  0  0  0  0  0  0  0  0  0  0  0
  -32.1322  -14.4852   20.1558 N   0  0  0  0  0  0  0  0  0  0  0  0
  -26.2905  -13.2852   19.3781 N   0  0  0  0  0  0  0  0  0  0  0  0
  -21.1885  -19.1637   18.8320 N   0  0  0  0  0  0  0  0  0  0  0  0
  -27.6848  -24.6848   22.4115 N   0  0  0  0  0  0  0  0  0  0  0  0
  -22.7592  -15.9986   20.2908 N   0  0  0  0  0  0  0  0  0  0  0  0
  -22.0027  -19.4253   16.6231 N   0  0  0  0  0  0  0  0  0  0  0  0
  -20.5438  -23.5633   17.6927 N   0  0  0  0  0  0  0  0  0  0  0  0
  -25.2499  -23.6262   24.9109 N   0  0  0  0  0  0  0  0  0  0  0  0
  -28.9546  -26.9897   20.2823 N   0  0  0  0  0  0  0  0  0  0  0  0
  -32.5615  -27.0998   20.0681 N   0  3  0  0  0  0  0  0  0  0  0  0
  -21.5002  -22.2961   16.0379 O   0  0  0  0  0  0  0  0  0  0  0  0
  -25.3584  -23.6393   22.5848 O   0  0  0  0  0  0  0  0  0  0  0  0
  -25.0602  -16.2331   20.0651 O   0  0  0  0  0  0  0  0  0  0  0  0
  -27.1507  -26.9523   22.5079 O   0  0  0  0  0  0  0  0  0  0  0  0
  -30.4120  -25.4003   19.4296 O   0  0  0  0  0  0  0  0  0  0  0  0
  -18.2399  -25.0956   22.5279 O   0  0  0  0  0  0  0  0  0  0  0  0
  -29.9554  -18.9947   21.6904 O   0  0  0  0  0  0  0  0  0  1  0  0
  -20.7836  -29.9860   22.6602 F   0  0  0  0  0  0  0  0  0  0  0  0
  -29.8356  -10.1025   18.9124 F   0  0  0  0  0  0  0  0  0  0  0  0
  -18.6002  -26.5698   20.2172 F   0  0  0  0  0  0  0  0  0  0  0  0
  1  2  1  0  0  0  0
  1  5  2  0  0  0  0
  2  6  2  0  0  0  0
  3  8  2  0  0  0  0
  3 18  1  0  0  0  0
  4  9  1  0  0  0  0
  4 18  2  0  0  0  0
  5 21  1  0  0  0  0
  6 23  1  0  0  0  0
  7 10  2  0  0  0  0
  7 22  1  0  0  0  0
  8 26  1  0  0  0  0
  9 26  2  0  0  0  0
 10 27  1  0  0  0  0
 11 12  2  0  0  0  0
 11 28  1  0  0  0  0
 12 29  1  0  0  0  0
 13 19  2  0  0  0  0
 13 25  1  0  0  0  0
 14 19  1  0  0  0  0
 14 30  2  0  0  0  0
 15 24  1  0  0  0  0
 15 27  2  0  0  0  0
 16 25  2  0  0  0  0
 16 30  1  0  0  0  0
 17 29  2  0  0  0  0
 17 31  1  0  0  0  0
 18 32  1  0  0  0  0
 19 37  1  0  0  0  0
 20 32  1  0  0  0  0
 20 33  2  0  0  0  0
 20 38  1  0  0  0  0
 21 23  2  0  0  0  0
 21 43  1  0  0  0  0
 22 24  2  0  0  0  0
 22 44  1  0  0  0  0
 23 52  1  0  0  0  0
 24 45  1  0  0  0  0
 25 67  1  0  0  0  0
 26 81  1  0  0  0  0
 27 82  1  0  0  0  0
 28 31  2  0  0  0  0
 28 81  1  0  0  0  0
 29 83  1  0  0  0  0
 30 84  1  0  0  0  0
 31 85  1  0  0  0  0
 32 65  2  0  0  0  0
 33 68  1  0  0  0  0
 33 71  1  0  0  0  0
 34 35  2  0  0  0  0
 34 37  1  0  0  0  0
 35 60  1  0  0  0  0
 36 61  1  0  0  0  0
 36 67  2  0  0  0  0
 37 66  2  0  0  0  0
 38 72  1  0  0  0  0
 38 76  2  0  0  0  0
 39 53  1  0  0  0  0
 39 73  1  0  0  0  0
 39 77  2  0  0  0  0
 40 61  1  0  0  0  0
 40 70  1  0  0  0  0
 40 78  2  0  0  0  0
 41 62  1  0  0  0  0
 41 69  1  0  0  0  0
 41 79  2  0  0  0  0
 42 63  1  0  0  0  0
 42 74  1  0  0  0  0
 42 80  2  0  0  0  0
 43 46  1  0  0  0  0
 44 53  1  0  0  0  0
 45 69  1  0  0  0  0
 46 48  1  0  0  0  0
 47 49  1  0  0  0  0
 47 50  1  0  0  0  0
 48 52  1  0  0  0  0
 49 54  1  0  0  0  0
 50 70  1  0  0  0  0
 51 54  1  0  0  0  0
 51 70  1  0  0  0  0
 52 73  1  0  0  0  0
 53 69  1  0  0  0  0
 54 68  1  0  0  0  0
 55 63  1  0  0  0  0
 56 64  1  0  0  0  0
 57 64  1  0  0  0  0
 58 64  1  0  0  0  0
 59 75  1  0  0  0  0
 60 82  1  0  0  0  0
 62 64  1  0  0  0  0
 62 74  1  0  0  0  0
 63 75  1  0  0  0  0
 65 68  1  0  0  0  0
M  CHG  1  75   1
M  ISO  4  40 100  60 101  61 100  82 101
M  END
> <Batch ID>
0124

> <Smiles>
CNC(C)C(=O)NC(C(=O)N1Cc2cc([101O:1][101CH2:1]C=CC(=N)c3cc(F)cc(NC=[100CH:0][100C:0](=O)N4CCCC(n5nc(-c6ccc(Oc7ccc(F)cc7F)cc6)c(C(N)=O)c5N)C4)c3)ccc2CC1C(=O)NC1CCCc2ccccc21)C(C)(C)C

> <Shape>
0.195

> <Color>
0.076

> <Negative vol penalty>
0.000

$$$$

  -OEChem-04052302063D

 84 92  0     1  0  0  0  0  0999 V2000
  -21.3906  -27.6663   22.5073 C   0  0  0  0  0  0  0  0  0  0  0  0
  -22.4067  -26.8166   22.9327 C   0  0  0  0  0  0  0  0  0  0  0  0
  -23.0051  -10.0083   19.9463 C   0  0  0  0  0  0  0  0  0  0  0  0
  -23.8119   -9.9312   22.2223 C   0  0  0  0  0  0  0  0  0  0  0  0
  -21.6940  -28.7704   21.7118 C   0  0  0  0  0  0  0  0  0  0  0  0
  -23.7268  -27.0701   22.5619 C   0  0  0  0  0  0  0  0  0  0  0  0
  -26.9605  -26.5693   26.4269 C   0  0  0  0  0  0  0  0  0  0  0  0
  -22.2305   -8.8726   20.1824 C   0  0  0  0  0  0  0  0  0  0  0  0
  -23.0372   -8.7956   22.4584 C   0  0  0  0  0  0  0  0  0  0  0  0
  -27.3197  -25.2727   26.7926 C   0  0  0  0  0  0  0  0  0  0  0  0
  -19.7985   -8.0829   23.1092 C   0  0  0  0  0  0  0  0  0  0  0  0
  -19.0649   -8.0357   24.2946 C   0  0  0  0  0  0  0  0  0  0  0  0
  -32.1728  -18.0917   24.2206 C   0  0  0  0  0  0  0  0  0  0  0  0
  -29.3886  -25.5089   25.5749 C   0  0  0  0  0  0  0  0  0  0  0  0
  -32.2537  -16.3796   22.5179 C   0  0  0  0  0  0  0  0  0  0  0  0
  -20.2593   -6.0418   24.9543 C   0  0  0  0  0  0  0  0  0  0  0  0
  -23.7959  -10.5376   20.9662 C   0  0  0  0  0  0  0  0  0  0  0  0
  -30.7833  -18.1377   24.1084 C   0  0  0  0  0  0  0  0  0  0  0  0
  -24.2149  -13.0532   20.9038 C   0  0  0  0  0  0  0  0  0  0  0  0
  -23.0197  -29.0429   21.3391 C   0  0  0  0  0  0  0  0  0  0  0  0
  -27.8092  -27.3427   25.6220 C   0  0  0  0  0  0  0  0  0  0  0  0
  -24.0481  -28.1781   21.7596 C   0  0  0  0  0  0  0  0  0  0  0  0
  -29.0391  -26.8159   25.2025 C   0  0  0  0  0  0  0  0  0  0  0  0
  -32.9081  -17.2127   23.4252 C   0  0  0  0  0  0  0  0  0  0  0  0
  -30.1289  -17.3046   23.2010 C   0  0  0  0  0  0  0  0  0  0  0  0
  -30.8641  -16.4255   22.4057 C   0  0  0  0  0  0  0  0  0  0  0  0
  -22.2465   -8.2663   21.4385 C   0  0  0  0  0  0  0  0  0  0  0  0
  -28.5326  -24.7413   26.3643 C   0  0  0  0  0  0  0  0  0  0  0  0
  -20.7625   -7.1095   22.8463 C   0  0  0  0  0  0  0  0  0  0  0  0
  -19.2953   -7.0152   25.2172 C   0  0  0  0  0  0  0  0  0  0  0  0
  -20.9929   -6.0891   23.7688 C   0  0  0  0  0  0  0  0  0  0  0  0
  -24.5968  -11.7104   20.7228 C   0  0  0  0  0  0  0  0  0  0  0  0
  -25.3225  -13.7777   20.5366 C   0  0  0  0  0  0  0  0  0  0  0  0
  -30.0381  -19.0772   24.9648 C   0  0  0  0  0  0  0  0  0  0  0  0
  -30.2193  -20.4052   24.9751 C   0  0  0  0  0  0  0  0  0  0  0  0
  -22.9702  -13.5970   21.3629 C   0  0  0  0  0  0  0  0  0  0  0  0
  -29.4182  -21.2700   25.8894 C   0  0  0  0  0  0  0  0  0  0  0  0
  -27.5756  -28.6704   22.7434 C   0  0  0  0  0  0  0  0  0  0  0  0
  -30.4487  -29.9539   23.5308 C   0  0  0  0  0  0  0  0  0  0  0  0
  -33.2978  -29.7523   25.3987 C   0  0  0  0  0  0  0  0  0  0  0  0
  -30.8214  -14.6479   20.6212 C   0  0  0  0  0  0  0  0  0  0  0  0
  -23.2930  -30.2218   20.4389 C   0  0  0  0  0  0  0  0  0  0  0  0
  -27.4192  -28.7492   25.2584 C   0  0  0  0  0  0  0  0  0  0  0  0
  -29.9950  -27.6125   24.3539 C   0  0  0  0  0  0  0  0  0  0  0  0
  -24.7631  -30.6312   20.4009 C   0  0  0  0  0  0  0  0  0  0  0  0
  -29.5828  -12.3331   18.2161 C   0  0  0  0  0  0  0  0  0  0  0  0
  -25.6541  -29.4058   20.2236 C   0  0  0  0  0  0  0  0  0  0  0  0
  -28.1438  -12.0752   18.6687 C   0  0  0  0  0  0  0  0  0  0  0  0
  -30.5292  -12.5016   19.4033 C   0  0  0  0  0  0  0  0  0  0  0  0
  -28.6749  -13.2484   20.8432 C   0  0  0  0  0  0  0  0  0  0  0  0
  -25.4954  -28.4336   21.3988 C   0  0  1  0  0  0  0  0  0  0  0  0
  -28.1287  -29.2619   24.0090 C   0  0  1  0  0  0  0  0  0  0  0  0
  -27.6731  -13.1365   19.6824 C   0  0  2  0  0  0  0  0  0  0  0  0
  -34.3941  -17.1646   23.5428 C   0  0  0  0  0  0  0  0  0  0  0  0
  -28.6365  -17.3483   23.0745 C   0  0  0  0  0  0  0  0  0  0  0  0
  -35.4800  -30.9261   25.7959 C   0  0  0  0  0  0  0  0  0  0  0  0
  -31.5311  -28.8225   20.9120 C   0  0  0  0  0  0  0  0  0  0  0  0
  -33.8463  -29.1808   21.7951 C   0  0  0  0  0  0  0  0  0  0  0  0
  -32.3260  -31.1297   21.4593 C   0  0  0  0  0  0  0  0  0  0  0  0
  -32.6443  -30.2522   28.2416 C   0  0  0  0  0  0  0  0  0  0  0  0
  -29.7134  -22.7530   25.8093 C   0  0  0  0  0  0  0  0  0  1  0  0
  -31.8889  -29.5314   23.3688 C   0  0  1  0  0  0  0  0  0  0  0  0
  -34.0302  -30.7872   26.2336 C   0  0  2  0  0  0  0  0  0  0  0  0
  -32.3794  -29.6501   21.8981 C   0  0  0  0  0  0  0  0  0  0  0  0
  -25.8491  -11.5863   20.2752 N   0  0  0  0  0  0  0  0  0  0  0  0
  -26.2637  -12.8605   20.1719 N   0  0  0  0  0  0  0  0  0  0  0  0
  -29.5657  -28.9804   24.0193 N   0  0  0  0  0  0  0  0  0  0  0  0
  -30.0213  -13.5259   20.3187 N   0  0  0  0  0  0  0  0  0  0  0  0
  -25.5734  -15.1034   20.4934 N   0  0  0  0  0  0  0  0  0  0  0  0
  -21.9372  -12.7112   21.6983 N   0  0  0  0  0  0  0  0  0  0  0  0
  -30.2206  -15.5707   21.4767 N   0  0  0  0  0  0  0  0  0  0  0  0
  -26.2283  -28.9107   22.5519 N   0  0  0  0  0  0  0  0  0  0  0  0
  -32.6571  -30.3261   24.3209 N   0  0  0  0  0  0  0  0  0  0  0  0
  -34.0086  -30.4011   27.6728 N   0  3  0  0  0  0  0  0  0  0  0  0
  -22.7743  -14.8324   21.4569 O   0  0  0  0  0  0  0  0  0  0  0  0
  -28.5762  -20.8070   26.6541 O   0  0  0  0  0  0  0  0  0  0  0  0
  -28.3165  -28.0436   21.9951 O   0  0  0  0  0  0  0  0  0  0  0  0
  -30.1206  -31.1073   23.2416 O   0  0  0  0  0  0  0  0  0  0  0  0
  -33.2974  -28.5543   25.6729 O   0  0  0  0  0  0  0  0  0  0  0  0
  -31.9455  -14.7937   20.1340 O   0  0  0  0  0  0  0  0  0  0  0  0
  -21.4905   -7.1583   21.6693 O   0  0  0  0  0  0  0  0  0  0  0  0
  -28.8853  -23.4759   26.7193 O   0  0  0  0  0  0  0  0  0  1  0  0
  -18.5919   -6.9708   26.3562 F   0  0  0  0  0  0  0  0  0  0  0  0
  -21.9185   -5.1518   23.5223 F   0  0  0  0  0  0  0  0  0  0  0  0
  1  2  1  0  0  0  0
  1  5  2  0  0  0  0
  2  6  2  0  0  0  0
  3  8  2  0  0  0  0
  3 17  1  0  0  0  0
  4  9  1  0  0  0  0
  4 17  2  0  0  0  0
  5 20  1  0  0  0  0
  6 22  1  0  0  0  0
  7 10  2  0  0  0  0
  7 21  1  0  0  0  0
  8 27  1  0  0  0  0
  9 27  2  0  0  0  0
 10 28  1  0  0  0  0
 11 12  2  0  0  0  0
 11 29  1  0  0  0  0
 12 30  1  0  0  0  0
 13 18  1  0  0  0  0
 13 24  2  0  0  0  0
 14 23  1  0  0  0  0
 14 28  2  0  0  0  0
 15 24  1  0  0  0  0
 15 26  2  0  0  0  0
 16 30  2  0  0  0  0
 16 31  1  0  0  0  0
 17 32  1  0  0  0  0
 18 25  2  0  0  0  0
 18 34  1  0  0  0  0
 19 32  1  0  0  0  0
 19 33  2  0  0  0  0
 19 36  1  0  0  0  0
 20 22  2  0  0  0  0
 20 42  1  0  0  0  0
 21 23  2  0  0  0  0
 21 43  1  0  0  0  0
 22 51  1  0  0  0  0
 23 44  1  0  0  0  0
 24 54  1  0  0  0  0
 25 26  1  0  0  0  0
 25 55  1  0  0  0  0
 26 71  1  0  0  0  0
 27 81  1  0  0  0  0
 28 82  1  0  0  0  0
 29 31  2  0  0  0  0
 29 81  1  0  0  0  0
 30 83  1  0  0  0  0
 31 84  1  0  0  0  0
 32 65  2  0  0  0  0
 33 66  1  0  0  0  0
 33 69  1  0  0  0  0
 34 35  2  0  0  0  0
 35 37  1  0  0  0  0
 36 70  1  0  0  0  0
 36 75  2  0  0  0  0
 37 61  1  0  0  0  0
 37 76  2  0  0  0  0
 38 52  1  0  0  0  0
 38 72  1  0  0  0  0
 38 77  2  0  0  0  0
 39 62  1  0  0  0  0
 39 67  1  0  0  0  0
 39 78  2  0  0  0  0
 40 63  1  0  0  0  0
 40 73  1  0  0  0  0
 40 79  2  0  0  0  0
 41 68  1  0  0  0  0
 41 71  1  0  0  0  0
 41 80  2  0  0  0  0
 42 45  1  0  0  0  0
 43 52  1  0  0  0  0
 44 67  1  0  0  0  0
 45 47  1  0  0  0  0
 46 48  1  0  0  0  0
 46 49  1  0  0  0  0
 47 51  1  0  0  0  0
 48 53  1  0  0  0  0
 49 68  1  0  0  0  0
 50 53  1  0  0  0  0
 50 68  1  0  0  0  0
 51 72  1  0  0  0  0
 52 67  1  0  0  0  0
 53 66  1  0  0  0  0
 56 63  1  0  0  0  0
 57 64  1  0  0  0  0
 58 64  1  0  0  0  0
 59 64  1  0  0  0  0
 60 74  1  0  0  0  0
 61 82  1  0  0  0  0
 62 64  1  0  0  0  0
 62 73  1  0  0  0  0
 63 74  1  0  0  0  0
 65 66  1  0  0  0  0
M  CHG  1  74   1
M  ISO  4  41 100  61 101  71 100  82 101
M  END
> <Batch ID>
0124

> <Smiles>
CNC(C)C(=O)NC(C(=O)N1Cc2cc([101O:1][101CH2:1]C(=O)C=Cc3cc(C)cc([100NH:0][100C:0](=O)N4CCCC(n5nc(-c6ccc(Oc7ccc(F)cc7F)cc6)c(C(N)=O)c5N)C4)c3C)ccc2CC1C(=O)NC1CCCc2ccccc21)C(C)(C)C

> <Shape>
0.237

> <Color>
0.205

> <Negative vol penalty>
0.000

$$$$

  -OEChem-04052302063D

 85 93  0     1  0  0  0  0  0999 V2000
  -27.0082  -34.1336   25.6564 C   0  0  0  0  0  0  0  0  0  0  0  0
  -27.3819  -32.9379   25.0515 C   0  0  0  0  0  0  0  0  0  0  0  0
  -25.2982  -11.7346   19.6577 C   0  0  0  0  0  0  0  0  0  0  0  0
  -27.2256  -12.4038   20.9518 C   0  0  0  0  0  0  0  0  0  0  0  0
  -25.6814  -34.3381   26.0331 C   0  0  0  0  0  0  0  0  0  0  0  0
  -26.4292  -31.9454   24.8239 C   0  0  0  0  0  0  0  0  0  0  0  0
  -26.7979  -29.9231   20.1958 C   0  0  0  0  0  0  0  0  0  0  0  0
  -26.0302  -10.6796   19.1130 C   0  0  0  0  0  0  0  0  0  0  0  0
  -27.9576  -11.3487   20.4071 C   0  0  0  0  0  0  0  0  0  0  0  0
  -27.8110  -28.9880   19.9885 C   0  0  0  0  0  0  0  0  0  0  0  0
  -30.4423   -9.0482   19.0864 C   0  0  0  0  0  0  0  0  0  0  0  0
  -31.7392   -9.3168   18.6489 C   0  0  0  0  0  0  0  0  0  0  0  0
  -30.3674  -22.1033   21.6579 C   0  0  0  0  0  0  0  0  0  0  0  0
  -28.9600  -20.2395   22.2759 C   0  0  0  0  0  0  0  0  0  0  0  0
  -28.2069  -21.8227   20.6136 C   0  0  0  0  0  0  0  0  0  0  0  0
  -26.2068  -27.2037   20.2372 C   0  0  0  0  0  0  0  0  0  0  0  0
  -30.8743  -10.9375   17.0797 C   0  0  0  0  0  0  0  0  0  0  0  0
  -25.8959  -12.5967   20.5771 C   0  0  0  0  0  0  0  0  0  0  0  0
  -30.1492  -20.9543   22.4180 C   0  0  0  0  0  0  0  0  0  0  0  0
  -29.3962  -22.5376   20.7558 C   0  0  0  0  0  0  0  0  0  0  0  0
  -24.3611  -13.6657   22.3119 C   0  0  0  0  0  0  0  0  0  0  0  0
  -24.7101  -33.3515   25.8013 C   0  0  0  0  0  0  0  0  0  0  0  0
  -25.4814  -29.5045   20.4367 C   0  0  0  0  0  0  0  0  0  0  0  0
  -25.0885  -32.1363   25.1991 C   0  0  0  0  0  0  0  0  0  0  0  0
  -25.1784  -28.1355   20.4448 C   0  0  0  0  0  0  0  0  0  0  0  0
  -27.9888  -20.6737   21.3737 C   0  0  0  0  0  0  0  0  0  0  0  0
  -27.3599  -10.4866   19.4877 C   0  0  0  0  0  0  0  0  0  0  0  0
  -27.5161  -27.6280   20.0120 C   0  0  0  0  0  0  0  0  0  0  0  0
  -29.3613   -9.7242   18.5206 C   0  0  0  0  0  0  0  0  0  0  0  0
  -31.9552  -10.2614   17.6456 C   0  0  0  0  0  0  0  0  0  0  0  0
  -29.5773  -10.6689   17.5172 C   0  0  0  0  0  0  0  0  0  0  0  0
  -25.1405  -13.6871   21.1397 C   0  0  0  0  0  0  0  0  0  0  0  0
  -23.8542  -14.9384   22.4104 C   0  0  0  0  0  0  0  0  0  0  0  0
  -31.9785  -21.3171   24.0110 C   0  0  0  0  0  0  0  0  0  0  0  0
  -31.1623  -20.5010   23.3585 C   0  0  0  0  0  0  0  0  0  0  0  0
  -29.6285  -23.7611   19.9457 C   0  0  0  0  0  0  0  0  0  0  0  0
  -24.1174  -12.5914   23.2296 C   0  0  0  0  0  0  0  0  0  0  0  0
  -23.4367  -29.8101   22.8511 C   0  0  0  0  0  0  0  0  0  0  0  0
  -21.3776  -28.4078   20.7736 C   0  0  0  0  0  0  0  0  0  0  0  0
  -20.9296  -26.4261   18.0316 C   0  0  0  0  0  0  0  0  0  0  0  0
  -25.7141  -20.2419   20.3809 C   0  0  0  0  0  0  0  0  0  0  0  0
  -23.2978  -33.5992   26.2689 C   0  0  0  0  0  0  0  0  0  0  0  0
  -24.3950  -30.5263   20.6320 C   0  0  0  0  0  0  0  0  0  0  0  0
  -23.7773  -27.6348   20.6789 C   0  0  0  0  0  0  0  0  0  0  0  0
  -22.2763  -32.6469   25.6525 C   0  0  0  0  0  0  0  0  0  0  0  0
  -22.5843  -18.6830   19.7087 C   0  0  0  0  0  0  0  0  0  0  0  0
  -22.7818  -31.2090   25.7140 C   0  0  0  0  0  0  0  0  0  0  0  0
  -22.8118  -17.2243   20.1118 C   0  0  0  0  0  0  0  0  0  0  0  0
  -23.8287  -19.2951   19.0679 C   0  0  0  0  0  0  0  0  0  0  0  0
  -25.2879  -17.7082   20.2603 C   0  0  0  0  0  0  0  0  0  0  0  0
  -24.0792  -31.0456   24.9130 C   0  0  1  0  0  0  0  0  0  0  0  0
  -23.1843  -29.9758   21.3792 C   0  0  1  0  0  0  0  0  0  0  0  0
  -24.0831  -17.0683   20.9692 C   0  0  2  0  0  0  0  0  0  0  0  0
  -19.1301  -25.4290   16.5945 C   0  0  0  0  0  0  0  0  0  0  0  0
  -29.8186  -27.3973   21.7123 C   0  0  0  0  0  0  0  0  0  0  0  0
  -20.7975  -26.3387   22.9398 C   0  0  0  0  0  0  0  0  0  0  0  0
  -19.7747  -24.8833   21.1780 C   0  0  0  0  0  0  0  0  0  0  0  0
  -18.7851  -27.1183   21.6761 C   0  0  0  0  0  0  0  0  0  0  0  0
  -21.9032  -27.8469   15.6248 C   0  0  0  0  0  0  0  0  0  0  0  0
  -30.7848  -25.9542   19.8489 C   0  0  0  0  0  0  0  0  0  0  0  0
  -20.9909  -26.9854   20.4477 C   0  0  1  0  0  0  0  0  0  0  0  0
  -20.0760  -26.6038   16.7889 C   0  0  2  0  0  0  0  0  0  0  0  0
  -29.8199  -27.0769   20.2234 C   0  0  1  0  0  0  0  0  0  1  0  0
  -20.1139  -26.3405   21.5579 C   0  0  0  0  0  0  0  0  0  0  0  0
  -25.1322  -14.8788   20.5367 N   0  0  0  0  0  0  0  0  0  0  0  0
  -24.3414  -15.6181   21.3330 N   0  0  0  0  0  0  0  0  0  0  0  0
  -22.7510  -28.6727   20.8710 N   0  0  0  0  0  0  0  0  0  0  0  0
  -24.9922  -19.1131   19.9385 N   0  0  0  0  0  0  0  0  0  0  0  0
  -23.0435  -15.5311   23.3126 N   0  0  0  0  0  0  0  0  0  0  0  0
  -24.7162  -11.3494   22.9786 N   0  0  0  0  0  0  0  0  0  0  0  0
  -26.7803  -19.9478   21.2302 N   0  0  0  0  0  0  0  0  0  0  0  0
  -30.4805  -24.7078   20.5004 N   0  0  0  0  0  0  0  0  0  0  0  0
  -23.7932  -30.9791   23.4959 N   0  0  0  0  0  0  0  0  0  0  0  0
  -20.3578  -27.0253   19.1340 N   0  0  0  0  0  0  0  0  0  0  0  0
  -20.9392  -26.7174   15.5794 N   0  3  0  0  0  0  0  0  0  0  0  0
  -29.0569  -23.8829   18.8654 O   0  0  0  0  0  0  0  0  0  0  0  0
  -23.3769  -12.7243   24.2334 O   0  0  0  0  0  0  0  0  0  0  0  0
  -23.3154  -28.7038   23.3642 O   0  0  0  0  0  0  0  0  0  0  0  0
  -20.4938  -29.2543   20.9288 O   0  0  0  0  0  0  0  0  0  0  0  0
  -21.9950  -25.8135   18.0258 O   0  0  0  0  0  0  0  0  0  0  0  0
  -25.3922  -21.3871   20.0540 O   0  0  0  0  0  0  0  0  0  0  0  0
  -28.0744   -9.4571   18.9566 O   0  0  0  0  0  0  0  0  0  0  0  0
  -28.5032  -26.7132   19.8105 O   0  0  0  0  0  0  0  0  0  1  0  0
  -33.2009  -10.5203   17.2266 F   0  0  0  0  0  0  0  0  0  0  0  0
  -28.5429  -11.3223   16.9706 F   0  0  0  0  0  0  0  0  0  0  0  0
  1  2  1  0  0  0  0
  1  5  2  0  0  0  0
  2  6  2  0  0  0  0
  3  8  2  0  0  0  0
  3 18  1  0  0  0  0
  4  9  1  0  0  0  0
  4 18  2  0  0  0  0
  5 22  1  0  0  0  0
  6 24  1  0  0  0  0
  7 10  2  0  0  0  0
  7 23  1  0  0  0  0
  8 27  1  0  0  0  0
  9 27  2  0  0  0  0
 10 28  1  0  0  0  0
 11 12  2  0  0  0  0
 11 29  1  0  0  0  0
 12 30  1  0  0  0  0
 13 19  2  0  0  0  0
 13 20  1  0  0  0  0
 14 19  1  0  0  0  0
 14 26  2  0  0  0  0
 15 20  2  0  0  0  0
 15 26  1  0  0  0  0
 16 25  1  0  0  0  0
 16 28  2  0  0  0  0
 17 30  2  0  0  0  0
 17 31  1  0  0  0  0
 18 32  1  0  0  0  0
 19 35  1  0  0  0  0
 20 36  1  0  0  0  0
 21 32  1  0  0  0  0
 21 33  2  0  0  0  0
 21 37  1  0  0  0  0
 22 24  2  0  0  0  0
 22 42  1  0  0  0  0
 23 25  2  0  0  0  0
 23 43  1  0  0  0  0
 24 51  1  0  0  0  0
 25 44  1  0  0  0  0
 26 71  1  0  0  0  0
 27 82  1  0  0  0  0
 28 83  1  0  0  0  0
 29 31  2  0  0  0  0
 29 82  1  0  0  0  0
 30 84  1  0  0  0  0
 31 85  1  0  0  0  0
 32 65  2  0  0  0  0
 33 66  1  0  0  0  0
 33 69  1  0  0  0  0
 34 35  2  0  0  0  0
 36 72  1  0  0  0  0
 36 76  2  0  0  0  0
 37 70  1  0  0  0  0
 37 77  2  0  0  0  0
 38 52  1  0  0  0  0
 38 73  1  0  0  0  0
 38 78  2  0  0  0  0
 39 61  1  0  0  0  0
 39 67  1  0  0  0  0
 39 79  2  0  0  0  0
 40 62  1  0  0  0  0
 40 74  1  0  0  0  0
 40 80  2  0  0  0  0
 41 68  1  0  0  0  0
 41 71  1  0  0  0  0
 41 81  2  0  0  0  0
 42 45  1  0  0  0  0
 43 52  1  0  0  0  0
 44 67  1  0  0  0  0
 45 47  1  0  0  0  0
 46 48  1  0  0  0  0
 46 49  1  0  0  0  0
 47 51  1  0  0  0  0
 48 53  1  0  0  0  0
 49 68  1  0  0  0  0
 50 53  1  0  0  0  0
 50 68  1  0  0  0  0
 51 73  1  0  0  0  0
 52 67  1  0  0  0  0
 53 66  1  0  0  0  0
 54 62  1  0  0  0  0
 55 63  1  0  0  0  0
 56 64  1  0  0  0  0
 57 64  1  0  0  0  0
 58 64  1  0  0  0  0
 59 75  1  0  0  0  0
 60 63  1  0  0  0  0
 60 72  1  0  0  0  0
 61 64  1  0  0  0  0
 61 74  1  0  0  0  0
 62 75  1  0  0  0  0
 63 83  1  0  0  0  0
 65 66  1  0  0  0  0
M  CHG  1  75   1
M  ISO  4  41 100  63 101  71 100  83 101
M  END
> <Batch ID>
0124

> <Smiles>
C=Cc1cc([100NH:0][100C:0](=O)N2CCCC(n3nc(-c4ccc(Oc5ccc(F)cc5F)cc4)c(C(N)=O)c3N)C2)cc(C(=O)NC[101CH:1](C)[101O:1]c2ccc3c(c2)CN(C(=O)C(NC(=O)C(C)NC)C(C)(C)C)C(C(=O)NC2CCCc4ccccc42)C3)c1

> <Shape>
0.251

> <Color>
0.080

> <Negative vol penalty>
0.000

$$$$

  -OEChem-04052302063D

 79 87  0     1  0  0  0  0  0999 V2000
  -27.9799  -11.1709   15.9397 C   0  0  0  0  0  0  0  0  0  0  0  0
  -26.8636  -11.9654   16.1809 C   0  0  0  0  0  0  0  0  0  0  0  0
  -25.0342  -28.9442   19.1706 C   0  0  0  0  0  0  0  0  0  0  0  0
  -25.8187  -27.3525   20.8102 C   0  0  0  0  0  0  0  0  0  0  0  0
  -29.0047  -11.1057   16.8828 C   0  0  0  0  0  0  0  0  0  0  0  0
  -26.7710  -12.6944   17.3660 C   0  0  0  0  0  0  0  0  0  0  0  0
  -24.2090  -18.2074   18.1062 C   0  0  0  0  0  0  0  0  0  0  0  0
  -26.2907  -29.5498   19.1572 C   0  0  0  0  0  0  0  0  0  0  0  0
  -27.0753  -27.9581   20.7967 C   0  0  0  0  0  0  0  0  0  0  0  0
  -22.9565  -18.6048   18.5723 C   0  0  0  0  0  0  0  0  0  0  0  0
  -30.5947  -28.8608   20.9270 C   0  0  0  0  0  0  0  0  0  0  0  0
  -31.7147  -28.0312   20.8733 C   0  0  0  0  0  0  0  0  0  0  0  0
  -23.8890  -18.9441   20.7710 C   0  0  0  0  0  0  0  0  0  0  0  0
  -30.9424  -27.1248   18.7710 C   0  0  0  0  0  0  0  0  0  0  0  0
  -17.6867  -21.7858   20.2905 C   0  0  0  0  0  0  0  0  0  0  0  0
  -24.7982  -27.8456   19.9971 C   0  0  0  0  0  0  0  0  0  0  0  0
  -23.0576  -26.1614   19.1962 C   0  0  0  0  0  0  0  0  0  0  0  0
  -28.9290  -11.8419   18.0757 C   0  0  0  0  0  0  0  0  0  0  0  0
  -25.3104  -18.1650   18.9731 C   0  0  0  0  0  0  0  0  0  0  0  0
  -27.7951  -12.6380   18.3265 C   0  0  0  0  0  0  0  0  0  0  0  0
  -25.1550  -18.5484   20.3128 C   0  0  0  0  0  0  0  0  0  0  0  0
  -27.3112  -29.0567   19.9703 C   0  0  0  0  0  0  0  0  0  0  0  0
  -22.7957  -18.9704   19.9055 C   0  0  0  0  0  0  0  0  0  0  0  0
  -29.6485  -28.8224   19.9028 C   0  0  0  0  0  0  0  0  0  0  0  0
  -31.8886  -27.1632   19.7953 C   0  0  0  0  0  0  0  0  0  0  0  0
  -29.8224  -27.9545   18.8248 C   0  0  0  0  0  0  0  0  0  0  0  0
  -23.5003  -27.2200   20.0118 C   0  0  0  0  0  0  0  0  0  0  0  0
  -18.1662  -22.1996   21.5156 C   0  0  0  0  0  0  0  0  0  0  0  0
  -21.7637  -25.9363   19.5981 C   0  0  0  0  0  0  0  0  0  0  0  0
  -19.0182  -20.1788   21.4935 C   0  0  0  0  0  0  0  0  0  0  0  0
  -17.9279  -23.4687   22.0857 C   0  0  0  0  0  0  0  0  0  0  0  0
  -18.3999  -23.9350   23.2905 C   0  0  0  0  0  0  0  0  0  0  0  0
  -23.7538  -25.4455   18.1674 C   0  0  0  0  0  0  0  0  0  0  0  0
  -18.0678  -25.3035   23.7490 C   0  0  0  0  0  0  0  0  0  0  0  0
  -27.2558  -15.8786   20.0179 C   0  0  0  0  0  0  0  0  0  0  0  0
  -28.8258  -18.3731   21.3722 C   0  0  0  0  0  0  0  0  0  0  0  0
  -28.7091  -21.5731   22.5528 C   0  0  0  0  0  0  0  0  0  0  0  0
  -30.0398  -11.7026   19.0864 C   0  0  0  0  0  0  0  0  0  0  0  0
  -26.6605  -17.7597   18.4485 C   0  0  0  0  0  0  0  0  0  0  0  0
  -26.3101  -18.5395   21.2793 C   0  0  0  0  0  0  0  0  0  0  0  0
  -30.0372  -12.7983   20.1492 C   0  0  0  0  0  0  0  0  0  0  0  0
  -18.7163  -28.6335   22.5881 C   0  0  0  0  0  0  0  0  0  0  0  0
  -28.6287  -13.0085   20.6958 C   0  0  0  0  0  0  0  0  0  0  0  0
  -20.0044  -28.4810   21.7799 C   0  0  0  0  0  0  0  0  0  0  0  0
  -18.6918  -27.6864   23.7835 C   0  0  0  0  0  0  0  0  0  0  0  0
  -20.1841  -26.0922   22.6086 C   0  0  0  0  0  0  0  0  0  0  0  0
  -27.6695  -13.4628   19.5891 C   0  0  1  0  0  0  0  0  0  0  0  0
  -27.6011  -17.2610   19.5412 C   0  0  1  0  0  0  0  0  0  0  0  0
  -20.2330  -27.0133   21.3770 C   0  0  2  0  0  0  0  0  0  0  0  0
  -30.1411  -23.3273   23.6341 C   0  0  0  0  0  0  0  0  0  0  0  0
  -28.6286  -16.8911   24.0321 C   0  0  0  0  0  0  0  0  0  0  0  0
  -29.1899  -19.0384   25.1906 C   0  0  0  0  0  0  0  0  0  0  0  0
  -30.8292  -18.0054   23.6194 C   0  0  0  0  0  0  0  0  0  0  0  0
  -28.3336  -23.4410   20.2881 C   0  0  0  0  0  0  0  0  0  0  0  0
  -19.7741  -18.9435   21.9188 C   0  0  0  0  0  0  0  0  0  0  0  0
  -21.2803  -19.0931   21.7342 C   0  0  0  0  0  0  0  0  0  1  0  0
  -28.7444  -19.0966   22.6947 C   0  0  1  0  0  0  0  0  0  0  0  0
  -29.6186  -22.7661   22.3208 C   0  0  2  0  0  0  0  0  0  0  0  0
  -29.3256  -18.2563   23.8667 C   0  0  0  0  0  0  0  0  0  0  0  0
  -22.5636  -27.6385   20.8671 N   0  0  0  0  0  0  0  0  0  0  0  0
  -18.9295  -21.2793   22.2071 N   0  0  0  0  0  0  0  0  0  0  0  0
  -21.5194  -26.8388   20.5910 N   0  0  0  0  0  0  0  0  0  0  0  0
  -18.9478  -26.3078   23.3709 N   0  0  0  0  0  0  0  0  0  0  0  0
  -27.6088  -18.1296   20.7200 N   0  0  0  0  0  0  0  0  0  0  0  0
  -20.8224  -25.0564   19.1954 N   0  0  0  0  0  0  0  0  0  0  0  0
  -25.0780  -25.8053   17.8820 N   0  0  0  0  0  0  0  0  0  0  0  0
  -27.8627  -14.8672   19.2979 N   0  0  0  0  0  0  0  0  0  0  0  0
  -29.4035  -20.3831   22.4975 N   0  0  0  0  0  0  0  0  0  0  0  0
  -28.8825  -23.8477   21.6073 N   0  3  0  0  0  0  0  0  0  0  0  0
  -23.2122  -24.5253   17.5091 O   0  0  0  0  0  0  0  0  0  0  0  0
  -17.0466  -25.4027   24.4166 O   0  0  0  0  0  0  0  0  0  0  0  0
  -26.4961  -15.7397   20.9694 O   0  0  0  0  0  0  0  0  0  0  0  0
  -29.9292  -18.0428   20.9306 O   0  0  0  0  0  0  0  0  0  0  0  0
  -27.5039  -21.6857   22.7656 O   0  0  0  0  0  0  0  0  0  0  0  0
  -28.5374  -29.6472   19.9573 O   0  0  0  0  0  0  0  0  0  0  0  0
  -21.5742  -19.3580   20.3632 O   0  0  0  0  0  0  0  0  0  1  0  0
  -32.9650  -26.3677   19.7430 F   0  0  0  0  0  0  0  0  0  0  0  0
  -28.9174  -27.9140   17.8373 F   0  0  0  0  0  0  0  0  0  0  0  0
  -18.2082  -20.1817   19.9805 S   0  0  0  0  0  0  0  0  0  0  0  0
  1  2  1  0  0  0  0
  1  5  2  0  0  0  0
  2  6  2  0  0  0  0
  3  8  2  0  0  0  0
  3 16  1  0  0  0  0
  4  9  1  0  0  0  0
  4 16  2  0  0  0  0
  5 18  1  0  0  0  0
  6 20  1  0  0  0  0
  7 10  2  0  0  0  0
  7 19  1  0  0  0  0
  8 22  1  0  0  0  0
  9 22  2  0  0  0  0
 10 23  1  0  0  0  0
 11 12  2  0  0  0  0
 11 24  1  0  0  0  0
 12 25  1  0  0  0  0
 13 21  1  0  0  0  0
 13 23  2  0  0  0  0
 14 25  2  0  0  0  0
 14 26  1  0  0  0  0
 15 28  2  0  0  0  0
 15 79  1  0  0  0  0
 16 27  1  0  0  0  0
 17 27  1  0  0  0  0
 17 29  2  0  0  0  0
 17 33  1  0  0  0  0
 18 20  2  0  0  0  0
 18 38  1  0  0  0  0
 19 21  2  0  0  0  0
 19 39  1  0  0  0  0
 20 47  1  0  0  0  0
 21 40  1  0  0  0  0
 22 75  1  0  0  0  0
 23 76  1  0  0  0  0
 24 26  2  0  0  0  0
 24 75  1  0  0  0  0
 25 77  1  0  0  0  0
 26 78  1  0  0  0  0
 27 60  2  0  0  0  0
 28 31  1  0  0  0  0
 28 61  1  0  0  0  0
 29 62  1  0  0  0  0
 29 65  1  0  0  0  0
 30 55  1  0  0  0  0
 30 61  2  0  0  0  0
 30 79  1  0  0  0  0
 31 32  2  0  0  0  0
 32 34  1  0  0  0  0
 33 66  1  0  0  0  0
 33 70  2  0  0  0  0
 34 63  1  0  0  0  0
 34 71  2  0  0  0  0
 35 48  1  0  0  0  0
 35 67  1  0  0  0  0
 35 72  2  0  0  0  0
 36 57  1  0  0  0  0
 36 64  1  0  0  0  0
 36 73  2  0  0  0  0
 37 58  1  0  0  0  0
 37 68  1  0  0  0  0
 37 74  2  0  0  0  0
 38 41  1  0  0  0  0
 39 48  1  0  0  0  0
 40 64  1  0  0  0  0
 41 43  1  0  0  0  0
 42 44  1  0  0  0  0
 42 45  1  0  0  0  0
 43 47  1  0  0  0  0
 44 49  1  0  0  0  0
 45 63  1  0  0  0  0
 46 49  1  0  0  0  0
 46 63  1  0  0  0  0
 47 67  1  0  0  0  0
 48 64  1  0  0  0  0
 49 62  1  0  0  0  0
 50 58  1  0  0  0  0
 51 59  1  0  0  0  0
 52 59  1  0  0  0  0
 53 59  1  0  0  0  0
 54 69  1  0  0  0  0
 55 56  1  0  0  0  0
 56 76  1  0  0  0  0
 57 59  1  0  0  0  0
 57 68  1  0  0  0  0
 58 69  1  0  0  0  0
 60 62  1  0  0  0  0
M  CHG  1  69   1
M  ISO  4  32 100  34 100  56 101  76 101
M  END
> <Batch ID>
0124

> <Smiles>
CNC(C)C(=O)NC(C(=O)N1Cc2cc([101O:1][101CH2:1]Cc3nc(C=[100CH:0][100C:0](=O)N4CCCC(n5nc(-c6ccc(Oc7ccc(F)cc7F)cc6)c(C(N)=O)c5N)C4)cs3)ccc2CC1C(=O)NC1CCCc2ccccc21)C(C)(C)C

> <Shape>
0.184

> <Color>
0.063

> <Negative vol penalty>
0.000

$$$$

  -OEChem-04052302063D

 84 92  0     1  0  0  0  0  0999 V2000
  -21.3906  -27.6663   22.5073 C   0  0  0  0  0  0  0  0  0  0  0  0
  -22.4067  -26.8166   22.9327 C   0  0  0  0  0  0  0  0  0  0  0  0
  -23.0051  -10.0083   19.9463 C   0  0  0  0  0  0  0  0  0  0  0  0
  -23.8119   -9.9312   22.2223 C   0  0  0  0  0  0  0  0  0  0  0  0
  -21.6940  -28.7704   21.7118 C   0  0  0  0  0  0  0  0  0  0  0  0
  -23.7268  -27.0701   22.5619 C   0  0  0  0  0  0  0  0  0  0  0  0
  -26.9605  -26.5693   26.4269 C   0  0  0  0  0  0  0  0  0  0  0  0
  -22.2305   -8.8726   20.1824 C   0  0  0  0  0  0  0  0  0  0  0  0
  -23.0372   -8.7956   22.4584 C   0  0  0  0  0  0  0  0  0  0  0  0
  -27.3197  -25.2727   26.7926 C   0  0  0  0  0  0  0  0  0  0  0  0
  -19.7985   -8.0829   23.1092 C   0  0  0  0  0  0  0  0  0  0  0  0
  -19.0649   -8.0357   24.2946 C   0  0  0  0  0  0  0  0  0  0  0  0
  -32.1728  -18.0917   24.2206 C   0  0  0  0  0  0  0  0  0  0  0  0
  -29.3886  -25.5089   25.5749 C   0  0  0  0  0  0  0  0  0  0  0  0
  -32.2537  -16.3796   22.5179 C   0  0  0  0  0  0  0  0  0  0  0  0
  -20.2593   -6.0418   24.9543 C   0  0  0  0  0  0  0  0  0  0  0  0
  -23.7959  -10.5376   20.9662 C   0  0  0  0  0  0  0  0  0  0  0  0
  -30.7833  -18.1377   24.1084 C   0  0  0  0  0  0  0  0  0  0  0  0
  -24.2149  -13.0532   20.9038 C   0  0  0  0  0  0  0  0  0  0  0  0
  -23.0197  -29.0429   21.3391 C   0  0  0  0  0  0  0  0  0  0  0  0
  -27.8092  -27.3427   25.6220 C   0  0  0  0  0  0  0  0  0  0  0  0
  -24.0481  -28.1781   21.7596 C   0  0  0  0  0  0  0  0  0  0  0  0
  -29.0391  -26.8159   25.2025 C   0  0  0  0  0  0  0  0  0  0  0  0
  -32.9081  -17.2127   23.4252 C   0  0  0  0  0  0  0  0  0  0  0  0
  -30.1289  -17.3046   23.2010 C   0  0  0  0  0  0  0  0  0  0  0  0
  -30.8641  -16.4255   22.4057 C   0  0  0  0  0  0  0  0  0  0  0  0
  -22.2465   -8.2663   21.4385 C   0  0  0  0  0  0  0  0  0  0  0  0
  -28.5326  -24.7413   26.3643 C   0  0  0  0  0  0  0  0  0  0  0  0
  -20.7625   -7.1095   22.8463 C   0  0  0  0  0  0  0  0  0  0  0  0
  -19.2953   -7.0152   25.2172 C   0  0  0  0  0  0  0  0  0  0  0  0
  -20.9929   -6.0891   23.7688 C   0  0  0  0  0  0  0  0  0  0  0  0
  -24.5968  -11.7104   20.7228 C   0  0  0  0  0  0  0  0  0  0  0  0
  -25.3225  -13.7777   20.5366 C   0  0  0  0  0  0  0  0  0  0  0  0
  -30.0381  -19.0772   24.9648 C   0  0  0  0  0  0  0  0  0  0  0  0
  -30.2193  -20.4052   24.9751 C   0  0  0  0  0  0  0  0  0  0  0  0
  -22.9702  -13.5970   21.3629 C   0  0  0  0  0  0  0  0  0  0  0  0
  -29.4182  -21.2700   25.8894 C   0  0  0  0  0  0  0  0  0  0  0  0
  -27.5756  -28.6704   22.7434 C   0  0  0  0  0  0  0  0  0  0  0  0
  -30.4487  -29.9539   23.5308 C   0  0  0  0  0  0  0  0  0  0  0  0
  -33.2978  -29.7523   25.3987 C   0  0  0  0  0  0  0  0  0  0  0  0
  -30.8214  -14.6479   20.6212 C   0  0  0  0  0  0  0  0  0  0  0  0
  -23.2930  -30.2218   20.4389 C   0  0  0  0  0  0  0  0  0  0  0  0
  -27.4192  -28.7492   25.2584 C   0  0  0  0  0  0  0  0  0  0  0  0
  -29.9950  -27.6125   24.3539 C   0  0  0  0  0  0  0  0  0  0  0  0
  -24.7631  -30.6312   20.4009 C   0  0  0  0  0  0  0  0  0  0  0  0
  -29.5828  -12.3331   18.2161 C   0  0  0  0  0  0  0  0  0  0  0  0
  -25.6541  -29.4058   20.2236 C   0  0  0  0  0  0  0  0  0  0  0  0
  -28.1438  -12.0752   18.6687 C   0  0  0  0  0  0  0  0  0  0  0  0
  -30.5292  -12.5016   19.4033 C   0  0  0  0  0  0  0  0  0  0  0  0
  -28.6749  -13.2484   20.8432 C   0  0  0  0  0  0  0  0  0  0  0  0
  -25.4954  -28.4336   21.3988 C   0  0  1  0  0  0  0  0  0  0  0  0
  -28.1287  -29.2619   24.0090 C   0  0  1  0  0  0  0  0  0  0  0  0
  -27.6731  -13.1365   19.6824 C   0  0  2  0  0  0  0  0  0  0  0  0
  -34.3941  -17.1646   23.5428 C   0  0  0  0  0  0  0  0  0  0  0  0
  -28.6365  -17.3483   23.0745 C   0  0  0  0  0  0  0  0  0  0  0  0
  -35.4800  -30.9261   25.7959 C   0  0  0  0  0  0  0  0  0  0  0  0
  -31.5311  -28.8225   20.9120 C   0  0  0  0  0  0  0  0  0  0  0  0
  -33.8463  -29.1808   21.7951 C   0  0  0  0  0  0  0  0  0  0  0  0
  -32.3260  -31.1297   21.4593 C   0  0  0  0  0  0  0  0  0  0  0  0
  -32.6443  -30.2522   28.2416 C   0  0  0  0  0  0  0  0  0  0  0  0
  -29.7134  -22.7530   25.8093 C   0  0  0  0  0  0  0  0  0  1  0  0
  -31.8889  -29.5314   23.3688 C   0  0  1  0  0  0  0  0  0  0  0  0
  -34.0302  -30.7872   26.2336 C   0  0  2  0  0  0  0  0  0  0  0  0
  -32.3794  -29.6501   21.8981 C   0  0  0  0  0  0  0  0  0  0  0  0
  -25.8491  -11.5863   20.2752 N   0  0  0  0  0  0  0  0  0  0  0  0
  -26.2637  -12.8605   20.1719 N   0  0  0  0  0  0  0  0  0  0  0  0
  -29.5657  -28.9804   24.0193 N   0  0  0  0  0  0  0  0  0  0  0  0
  -30.0213  -13.5259   20.3187 N   0  0  0  0  0  0  0  0  0  0  0  0
  -25.5734  -15.1034   20.4934 N   0  0  0  0  0  0  0  0  0  0  0  0
  -21.9372  -12.7112   21.6983 N   0  0  0  0  0  0  0  0  0  0  0  0
  -30.2206  -15.5707   21.4767 N   0  0  0  0  0  0  0  0  0  0  0  0
  -26.2283  -28.9107   22.5519 N   0  0  0  0  0  0  0  0  0  0  0  0
  -32.6571  -30.3261   24.3209 N   0  0  0  0  0  0  0  0  0  0  0  0
  -34.0086  -30.4011   27.6728 N   0  3  0  0  0  0  0  0  0  0  0  0
  -22.7743  -14.8324   21.4569 O   0  0  0  0  0  0  0  0  0  0  0  0
  -28.5762  -20.8070   26.6541 O   0  0  0  0  0  0  0  0  0  0  0  0
  -28.3165  -28.0436   21.9951 O   0  0  0  0  0  0  0  0  0  0  0  0
  -30.1206  -31.1073   23.2416 O   0  0  0  0  0  0  0  0  0  0  0  0
  -33.2974  -28.5543   25.6729 O   0  0  0  0  0  0  0  0  0  0  0  0
  -31.9455  -14.7937   20.1340 O   0  0  0  0  0  0  0  0  0  0  0  0
  -21.4905   -7.1583   21.6693 O   0  0  0  0  0  0  0  0  0  0  0  0
  -28.8853  -23.4759   26.7193 O   0  0  0  0  0  0  0  0  0  1  0  0
  -18.5919   -6.9708   26.3562 F   0  0  0  0  0  0  0  0  0  0  0  0
  -21.9185   -5.1518   23.5223 F   0  0  0  0  0  0  0  0  0  0  0  0
  1  2  1  0  0  0  0
  1  5  2  0  0  0  0
  2  6  2  0  0  0  0
  3  8  2  0  0  0  0
  3 17  1  0  0  0  0
  4  9  1  0  0  0  0
  4 17  2  0  0  0  0
  5 20  1  0  0  0  0
  6 22  1  0  0  0  0
  7 10  2  0  0  0  0
  7 21  1  0  0  0  0
  8 27  1  0  0  0  0
  9 27  2  0  0  0  0
 10 28  1  0  0  0  0
 11 12  2  0  0  0  0
 11 29  1  0  0  0  0
 12 30  1  0  0  0  0
 13 18  1  0  0  0  0
 13 24  2  0  0  0  0
 14 23  1  0  0  0  0
 14 28  2  0  0  0  0
 15 24  1  0  0  0  0
 15 26  2  0  0  0  0
 16 30  2  0  0  0  0
 16 31  1  0  0  0  0
 17 32  1  0  0  0  0
 18 25  2  0  0  0  0
 18 34  1  0  0  0  0
 19 32  1  0  0  0  0
 19 33  2  0  0  0  0
 19 36  1  0  0  0  0
 20 22  2  0  0  0  0
 20 42  1  0  0  0  0
 21 23  2  0  0  0  0
 21 43  1  0  0  0  0
 22 51  1  0  0  0  0
 23 44  1  0  0  0  0
 24 54  1  0  0  0  0
 25 26  1  0  0  0  0
 25 55  1  0  0  0  0
 26 71  1  0  0  0  0
 27 81  1  0  0  0  0
 28 82  1  0  0  0  0
 29 31  2  0  0  0  0
 29 81  1  0  0  0  0
 30 83  1  0  0  0  0
 31 84  1  0  0  0  0
 32 65  2  0  0  0  0
 33 66  1  0  0  0  0
 33 69  1  0  0  0  0
 34 35  2  0  0  0  0
 35 37  1  0  0  0  0
 36 70  1  0  0  0  0
 36 75  2  0  0  0  0
 37 61  1  0  0  0  0
 37 76  2  0  0  0  0
 38 52  1  0  0  0  0
 38 72  1  0  0  0  0
 38 77  2  0  0  0  0
 39 62  1  0  0  0  0
 39 67  1  0  0  0  0
 39 78  2  0  0  0  0
 40 63  1  0  0  0  0
 40 73  1  0  0  0  0
 40 79  2  0  0  0  0
 41 68  1  0  0  0  0
 41 71  1  0  0  0  0
 41 80  2  0  0  0  0
 42 45  1  0  0  0  0
 43 52  1  0  0  0  0
 44 67  1  0  0  0  0
 45 47  1  0  0  0  0
 46 48  1  0  0  0  0
 46 49  1  0  0  0  0
 47 51  1  0  0  0  0
 48 53  1  0  0  0  0
 49 68  1  0  0  0  0
 50 53  1  0  0  0  0
 50 68  1  0  0  0  0
 51 72  1  0  0  0  0
 52 67  1  0  0  0  0
 53 66  1  0  0  0  0
 56 63  1  0  0  0  0
 57 64  1  0  0  0  0
 58 64  1  0  0  0  0
 59 64  1  0  0  0  0
 60 74  1  0  0  0  0
 61 82  1  0  0  0  0
 62 64  1  0  0  0  0
 62 73  1  0  0  0  0
 63 74  1  0  0  0  0
 65 66  1  0  0  0  0
M  CHG  1  74   1
M  ISO  4  41 100  61 101  71 100  82 101
M  END
> <Batch ID>
0124

> <Smiles>
CNC(C)C(=O)NC(C(=O)N1Cc2cc([101O:1][101CH2:1]C(=O)C=Cc3cc(C)cc([100NH:0][100C:0](=O)N4CCCC(n5nc(-c6ccc(Oc7ccc(F)cc7F)cc6)c(C(N)=O)c5N)C4)c3C)ccc2CC1C(=O)NC1CCCc2ccccc21)C(C)(C)C

> <Shape>
0.237

> <Color>
0.205

> <Negative vol penalty>
0.000

$$$$

  -OEChem-04052302063D

 83 91  0     1  0  0  0  0  0999 V2000
  -31.6795  -29.6199   25.3545 C   0  0  0  0  0  0  0  0  0  0  0  0
  -31.1817  -29.2279   24.1160 C   0  0  0  0  0  0  0  0  0  0  0  0
  -26.3152  -13.4852   19.2600 C   0  0  0  0  0  0  0  0  0  0  0  0
  -24.5759  -13.9217   20.8791 C   0  0  0  0  0  0  0  0  0  0  0  0
  -31.1516  -29.0708   26.5223 C   0  0  0  0  0  0  0  0  0  0  0  0
  -30.1563  -28.2856   24.0445 C   0  0  0  0  0  0  0  0  0  0  0  0
  -26.5338  -29.6018   20.7597 C   0  0  0  0  0  0  0  0  0  0  0  0
  -26.3502  -12.1488   19.6579 C   0  0  0  0  0  0  0  0  0  0  0  0
  -24.6109  -12.5852   21.2770 C   0  0  0  0  0  0  0  0  0  0  0  0
  -26.8000  -29.4043   19.4055 C   0  0  0  0  0  0  0  0  0  0  0  0
  -23.4392   -9.6218   20.1522 C   0  0  0  0  0  0  0  0  0  0  0  0
  -22.2201   -8.9658   20.3226 C   0  0  0  0  0  0  0  0  0  0  0  0
  -29.5758  -23.1698   18.9055 C   0  0  0  0  0  0  0  0  0  0  0  0
  -25.5028  -27.3710   19.4533 C   0  0  0  0  0  0  0  0  0  0  0  0
  -22.7669   -8.5512   22.6391 C   0  0  0  0  0  0  0  0  0  0  0  0
  -25.4281  -14.3717   19.8707 C   0  0  0  0  0  0  0  0  0  0  0  0
  -30.3944  -22.8601   20.0177 C   0  0  0  0  0  0  0  0  0  0  0  0
  -24.5922  -16.3183   18.4494 C   0  0  0  0  0  0  0  0  0  0  0  0
  -30.1126  -28.1285   26.4655 C   0  0  0  0  0  0  0  0  0  0  0  0
  -25.7579  -28.6781   21.4747 C   0  0  0  0  0  0  0  0  0  0  0  0
  -29.6149  -27.7223   25.2126 C   0  0  0  0  0  0  0  0  0  0  0  0
  -25.2261  -27.5604   20.8159 C   0  0  0  0  0  0  0  0  0  0  0  0
  -25.4981  -11.6988   20.6663 C   0  0  0  0  0  0  0  0  0  0  0  0
  -26.2868  -28.2873   18.7527 C   0  0  0  0  0  0  0  0  0  0  0  0
  -24.3222   -9.7425   21.2252 C   0  0  0  0  0  0  0  0  0  0  0  0
  -21.8839   -8.4305   21.5660 C   0  0  0  0  0  0  0  0  0  0  0  0
  -23.9861   -9.2072   22.4687 C   0  0  0  0  0  0  0  0  0  0  0  0
  -25.3918  -15.7525   19.4605 C   0  0  0  0  0  0  0  0  0  0  0  0
  -29.7240  -24.5196   18.6862 C   0  0  0  0  0  0  0  0  0  0  0  0
  -30.9848  -24.0426   20.3986 C   0  0  0  0  0  0  0  0  0  0  0  0
  -24.9273  -17.6502   18.4516 C   0  0  0  0  0  0  0  0  0  0  0  0
  -29.0787  -25.3300   17.6400 C   0  0  0  0  0  0  0  0  0  0  0  0
  -29.2707  -26.6452   17.4527 C   0  0  0  0  0  0  0  0  0  0  0  0
  -30.5948  -21.5887   20.6479 C   0  0  0  0  0  0  0  0  0  0  0  0
  -23.6323  -15.6955   17.5855 C   0  0  0  0  0  0  0  0  0  0  0  0
  -29.9197  -20.3638   20.1740 C   0  0  0  0  0  0  0  0  0  0  0  0
  -26.2703  -26.7693   23.9642 C   0  0  0  0  0  0  0  0  0  0  0  0
  -23.0916  -26.1895   23.6782 C   0  0  0  0  0  0  0  0  0  0  0  0
  -20.3210  -26.1531   21.6859 C   0  0  0  0  0  0  0  0  0  0  0  0
  -29.6063  -27.5276   27.7528 C   0  0  0  0  0  0  0  0  0  0  0  0
  -25.4577  -28.9195   22.9286 C   0  0  0  0  0  0  0  0  0  0  0  0
  -24.3705  -26.5497   21.5334 C   0  0  0  0  0  0  0  0  0  0  0  0
  -28.2652  -26.8135   27.6057 C   0  0  0  0  0  0  0  0  0  0  0  0
  -26.5195  -21.1166   21.3157 C   0  0  0  0  0  0  0  0  0  0  0  0
  -28.2741  -25.9085   26.3779 C   0  0  0  0  0  0  0  0  0  0  0  0
  -25.7847  -19.8416   20.9107 C   0  0  0  0  0  0  0  0  0  0  0  0
  -27.9601  -20.8359   21.7403 C   0  0  0  0  0  0  0  0  0  0  0  0
  -28.0119  -18.8102   20.3141 C   0  0  0  0  0  0  0  0  0  0  0  0
  -28.4862  -26.7212   25.0949 C   0  0  1  0  0  0  0  0  0  0  0  0
  -25.0835  -27.6462   23.6809 C   0  0  1  0  0  0  0  0  0  0  0  0
  -26.5750  -19.0752   19.8382 C   0  0  1  0  0  0  0  0  0  0  0  0
  -31.9295  -24.4044   21.4664 C   0  0  0  0  0  0  0  0  0  0  0  0
  -17.8745  -25.5959   21.7239 C   0  0  0  0  0  0  0  0  0  0  0  0
  -27.4783  -29.6329   15.8523 C   0  0  0  0  0  0  0  0  0  0  0  0
  -23.7698  -23.2162   23.5821 C   0  0  0  0  0  0  0  0  0  0  0  0
  -21.4720  -22.7923   22.6828 C   0  0  0  0  0  0  0  0  0  0  0  0
  -21.7573  -23.7833   24.9542 C   0  0  0  0  0  0  0  0  0  0  0  0
  -19.5588  -28.9330   21.0147 C   0  0  0  0  0  0  0  0  0  0  0  0
  -28.5990  -27.4348   16.3613 C   0  0  0  0  0  0  0  0  0  0  0  0
  -22.2508  -25.1945   22.9153 C   0  0  1  0  0  0  0  0  0  0  0  0
  -18.9171  -26.6884   21.9029 C   0  0  2  0  0  0  0  0  0  0  0  0
  -27.7815  -28.5990   16.9293 C   0  0  2  0  0  0  0  0  0  1  0  0
  -22.3302  -23.7644   23.5202 C   0  0  0  0  0  0  0  0  0  0  0  0
  -26.1760  -16.6515   20.0613 N   0  0  0  0  0  0  0  0  0  0  0  0
  -31.3838  -21.3955   21.6852 N   0  0  0  0  0  0  0  0  0  0  0  0
  -25.8708  -17.7956   19.4257 N   0  0  0  0  0  0  0  0  0  0  0  0
  -28.6777  -20.0517   20.7241 N   0  0  0  0  0  0  0  0  0  0  0  0
  -24.1105  -26.8266   22.9558 N   0  0  0  0  0  0  0  0  0  0  0  0
  -24.5042  -18.6995   17.7152 N   0  0  0  0  0  0  0  0  0  0  0  0
  -23.4099  -14.3179   17.7168 N   0  0  0  0  0  0  0  0  0  0  0  0
  -27.2593  -27.3842   24.7081 N   0  0  0  0  0  0  0  0  0  0  0  0
  -20.9025  -25.7498   22.8693 N   0  0  0  0  0  0  0  0  0  0  0  0
  -18.6238  -27.7814   20.9332 N   0  3  0  0  0  0  0  0  0  0  0  0
  -23.0027  -16.3384   16.7115 O   0  0  0  0  0  0  0  0  0  0  0  0
  -30.4999  -19.6881   19.3223 O   0  0  0  0  0  0  0  0  0  0  0  0
  -26.2869  -25.6196   23.5406 O   0  0  0  0  0  0  0  0  0  0  0  0
  -22.8486  -26.3992   24.8692 O   0  0  0  0  0  0  0  0  0  0  0  0
  -20.8476  -26.0949   20.5769 O   0  0  0  0  0  0  0  0  0  0  0  0
  -30.5814  -25.0590   19.5920 O   0  0  0  0  0  0  0  0  0  0  0  0
  -25.5318  -10.3947   21.0546 O   0  0  0  0  0  0  0  0  0  0  0  0
  -26.5456  -28.0918   17.4311 O   0  0  0  0  0  0  0  0  0  1  0  0
  -20.7125   -7.8019   21.7299 F   0  0  0  0  0  0  0  0  0  0  0  0
  -24.8298   -9.3211   23.5035 F   0  0  0  0  0  0  0  0  0  0  0  0
  1  2  1  0  0  0  0
  1  5  2  0  0  0  0
  2  6  2  0  0  0  0
  3  8  2  0  0  0  0
  3 16  1  0  0  0  0
  4  9  1  0  0  0  0
  4 16  2  0  0  0  0
  5 19  1  0  0  0  0
  6 21  1  0  0  0  0
  7 10  2  0  0  0  0
  7 20  1  0  0  0  0
  8 23  1  0  0  0  0
  9 23  2  0  0  0  0
 10 24  1  0  0  0  0
 11 12  2  0  0  0  0
 11 25  1  0  0  0  0
 12 26  1  0  0  0  0
 13 17  1  0  0  0  0
 13 29  2  0  0  0  0
 14 22  1  0  0  0  0
 14 24  2  0  0  0  0
 15 26  2  0  0  0  0
 15 27  1  0  0  0  0
 16 28  1  0  0  0  0
 17 30  2  0  0  0  0
 17 34  1  0  0  0  0
 18 28  1  0  0  0  0
 18 31  2  0  0  0  0
 18 35  1  0  0  0  0
 19 21  2  0  0  0  0
 19 40  1  0  0  0  0
 20 22  2  0  0  0  0
 20 41  1  0  0  0  0
 21 49  1  0  0  0  0
 22 42  1  0  0  0  0
 23 80  1  0  0  0  0
 24 81  1  0  0  0  0
 25 27  2  0  0  0  0
 25 80  1  0  0  0  0
 26 82  1  0  0  0  0
 27 83  1  0  0  0  0
 28 64  2  0  0  0  0
 29 32  1  0  0  0  0
 29 79  1  0  0  0  0
 30 52  1  0  0  0  0
 30 79  1  0  0  0  0
 31 66  1  0  0  0  0
 31 69  1  0  0  0  0
 32 33  2  0  0  0  0
 33 59  1  0  0  0  0
 34 36  1  0  0  0  0
 34 65  2  0  0  0  0
 35 70  1  0  0  0  0
 35 74  2  0  0  0  0
 36 67  1  0  0  0  0
 36 75  2  0  0  0  0
 37 50  1  0  0  0  0
 37 71  1  0  0  0  0
 37 76  2  0  0  0  0
 38 60  1  0  0  0  0
 38 68  1  0  0  0  0
 38 77  2  0  0  0  0
 39 61  1  0  0  0  0
 39 72  1  0  0  0  0
 39 78  2  0  0  0  0
 40 43  1  0  0  0  0
 41 50  1  0  0  0  0
 42 68  1  0  0  0  0
 43 45  1  0  0  0  0
 44 46  1  0  0  0  0
 44 47  1  0  0  0  0
 45 49  1  0  0  0  0
 46 51  1  0  0  0  0
 47 67  1  0  0  0  0
 48 51  1  0  0  0  0
 48 67  1  0  0  0  0
 49 71  1  0  0  0  0
 50 68  1  0  0  0  0
 51 66  1  0  0  0  0
 53 61  1  0  0  0  0
 54 62  1  0  0  0  0
 55 63  1  0  0  0  0
 56 63  1  0  0  0  0
 57 63  1  0  0  0  0
 58 73  1  0  0  0  0
 59 62  1  0  0  0  0
 60 63  1  0  0  0  0
 60 72  1  0  0  0  0
 61 73  1  0  0  0  0
 62 81  1  0  0  0  0
 64 66  1  0  0  0  0
M  CHG  1  73   1
M  ISO  4  34 100  36 100  62 101  81 101
M  END
> <Batch ID>
0124

> <Smiles>
CNC(C)C(=O)NC(C(=O)N1Cc2cc([101O:1][101CH:1](C)CC=Cc3cc([100C:0](=N)[100C:0](=O)N4CCCC(n5nc(-c6ccc(Oc7ccc(F)cc7F)cc6)c(C(N)=O)c5N)C4)c(C)o3)ccc2CC1C(=O)NC1CCCc2ccccc21)C(C)(C)C

> <Shape>
0.198

> <Color>
0.072

> <Negative vol penalty>
0.000

$$$$

  -OEChem-04052302063D

 89 98  0     1  0  0  0  0  0999 V2000
  -17.6682  -28.9492   22.2545 C   0  0  0  0  0  0  0  0  0  0  0  0
  -18.9672  -29.1659   21.8060 C   0  0  0  0  0  0  0  0  0  0  0  0
  -26.3419  -13.2285   19.2814 C   0  0  0  0  0  0  0  0  0  0  0  0
  -26.4389  -12.6137   21.6158 C   0  0  0  0  0  0  0  0  0  0  0  0
  -17.4162  -27.9624   23.2067 C   0  0  0  0  0  0  0  0  0  0  0  0
  -20.0152  -28.3966   22.3104 C   0  0  0  0  0  0  0  0  0  0  0  0
  -24.9931  -26.5168   19.2785 C   0  0  0  0  0  0  0  0  0  0  0  0
  -25.0801  -12.6429   19.1796 C   0  0  0  0  0  0  0  0  0  0  0  0
  -25.1770  -12.0281   21.5141 C   0  0  0  0  0  0  0  0  0  0  0  0
  -26.2964  -27.0082   19.2191 C   0  0  0  0  0  0  0  0  0  0  0  0
  -23.8560   -9.1433   20.3464 C   0  0  0  0  0  0  0  0  0  0  0  0
  -23.6757   -7.8873   20.9257 C   0  0  0  0  0  0  0  0  0  0  0  0
  -26.9613  -25.4333   20.9212 C   0  0  0  0  0  0  0  0  0  0  0  0
  -34.0770  -24.5477   17.0740 C   0  0  0  0  0  0  0  0  0  0  0  0
  -32.4727  -23.3893   18.4602 C   0  0  0  0  0  0  0  0  0  0  0  0
  -21.9562   -8.7955   22.3595 C   0  0  0  0  0  0  0  0  0  0  0  0
  -27.0214  -13.2138   20.4995 C   0  0  0  0  0  0  0  0  0  0  0  0
  -29.4841  -13.4704   19.8855 C   0  0  0  0  0  0  0  0  0  0  0  0
  -18.4603  -27.1742   23.7159 C   0  0  0  0  0  0  0  0  0  0  0  0
  -24.6610  -25.4857   20.1689 C   0  0  0  0  0  0  0  0  0  0  0  0
  -19.7771  -27.3993   23.2713 C   0  0  0  0  0  0  0  0  0  0  0  0
  -25.6535  -24.9289   20.9881 C   0  0  0  0  0  0  0  0  0  0  0  0
  -34.6405  -23.3262   16.7053 C   0  0  0  0  0  0  0  0  0  0  0  0
  -33.0362  -22.1678   18.0915 C   0  0  0  0  0  0  0  0  0  0  0  0
  -32.9932  -24.5793   17.9515 C   0  0  0  0  0  0  0  0  0  0  0  0
  -24.4976  -12.0428   20.2959 C   0  0  0  0  0  0  0  0  0  0  0  0
  -27.2801  -26.4684   20.0426 C   0  0  0  0  0  0  0  0  0  0  0  0
  -23.0865  -10.2254   20.7737 C   0  0  0  0  0  0  0  0  0  0  0  0
  -22.7258   -7.7134   21.9323 C   0  0  0  0  0  0  0  0  0  0  0  0
  -22.1366  -10.0515   21.7802 C   0  0  0  0  0  0  0  0  0  0  0  0
  -34.1200  -22.1362   17.2140 C   0  0  0  0  0  0  0  0  0  0  0  0
  -28.3252  -13.8180   20.6052 C   0  0  0  0  0  0  0  0  0  0  0  0
  -30.4470  -14.3341   20.3473 C   0  0  0  0  0  0  0  0  0  0  0  0
  -31.3008  -28.3593   18.4650 C   0  0  0  0  0  0  0  0  0  0  0  0
  -30.4855  -27.3019   18.6132 C   0  0  0  0  0  0  0  0  0  0  0  0
  -33.0322  -20.5560   19.7144 C   0  0  0  0  0  0  0  0  0  0  0  0
  -29.6732  -12.4574   18.8885 C   0  0  0  0  0  0  0  0  0  0  0  0
  -22.6855  -25.2084   22.6436 C   0  0  0  0  0  0  0  0  0  0  0  0
  -31.9900  -19.5177   21.7753 C   0  0  0  0  0  0  0  0  0  0  0  0
  -23.5893  -22.0955   22.5176 C   0  0  0  0  0  0  0  0  0  0  0  0
  -25.9243  -19.7926   21.5737 C   0  0  0  0  0  0  0  0  0  0  0  0
  -18.1458  -26.1514   24.7788 C   0  0  0  0  0  0  0  0  0  0  0  0
  -23.2564  -24.9485   20.2018 C   0  0  0  0  0  0  0  0  0  0  0  0
  -25.3531  -23.8068   21.9468 C   0  0  0  0  0  0  0  0  0  0  0  0
  -32.7885  -28.2262   18.3722 C   0  0  0  0  0  0  0  0  0  0  0  0
  -30.9995  -25.8808   18.6525 C   0  0  0  0  0  0  0  0  0  0  0  0
  -19.2581  -25.1268   24.9863 C   0  0  0  0  0  0  0  0  0  0  0  0
  -30.4324  -17.4929   24.2881 C   0  0  0  0  0  0  0  0  0  0  0  0
  -20.6135  -25.8208   25.0754 C   0  0  0  0  0  0  0  0  0  0  0  0
  -29.8149  -16.3441   23.4916 C   0  0  0  0  0  0  0  0  0  0  0  0
  -33.2873  -26.8644   18.8526 C   0  0  0  0  0  0  0  0  0  0  0  0
  -30.3789  -18.8039   23.5100 C   0  0  0  0  0  0  0  0  0  0  0  0
  -30.3901  -17.5845   21.3572 C   0  0  0  0  0  0  0  0  0  0  0  0
  -20.9369  -26.5686   23.7763 C   0  0  1  0  0  0  0  0  0  0  0  0
  -22.9158  -24.2463   21.5126 C   0  0  1  0  0  0  0  0  0  0  0  0
  -30.4515  -16.2352   22.0947 C   0  0  2  0  0  0  0  0  0  0  0  0
  -35.7990  -23.2956   15.7664 C   0  0  0  0  0  0  0  0  0  0  0  0
  -33.7025  -18.3005   20.4599 C   0  0  0  0  0  0  0  0  0  0  0  0
  -26.4011  -17.3297   21.6399 C   0  0  0  0  0  0  0  0  0  0  0  0
  -24.3278  -22.3204   25.4695 C   0  0  0  0  0  0  0  0  0  0  0  0
  -25.6441  -20.2042   25.2296 C   0  0  0  0  0  0  0  0  0  0  0  0
  -23.1801  -20.1892   24.8407 C   0  0  0  0  0  0  0  0  0  0  0  0
  -25.9805  -19.6063   18.6206 C   0  0  0  0  0  0  0  0  0  0  0  0
  -28.9983  -27.4642   18.7340 C   0  0  0  0  0  0  0  0  0  1  0  0
  -32.5547  -19.2977   20.3944 C   0  0  2  0  0  0  0  0  0  0  0  0
  -24.6973  -21.2781   23.1364 C   0  0  1  0  0  0  0  0  0  0  0  0
  -25.7957  -18.4711   20.8378 C   0  0  2  0  0  0  0  0  0  0  0  0
  -24.4679  -21.0204   24.6525 C   0  0  0  0  0  0  0  0  0  0  0  0
  -28.5311  -14.8239   21.4594 N   0  0  0  0  0  0  0  0  0  0  0  0
  -32.5125  -20.9760   18.6031 N   0  0  0  0  0  0  0  0  0  0  0  0
  -29.8305  -15.1158   21.2795 N   0  0  0  0  0  0  0  0  0  0  0  0
  -32.4288  -25.8029   18.3195 N   0  0  1  0  0  0  0  0  0  0  0  0
  -23.9636  -23.3201   21.9466 N   0  0  0  0  0  0  0  0  0  0  0  0
  -30.9730  -18.6530   22.1806 N   0  0  0  0  0  0  0  0  0  0  0  0
  -31.7526  -14.4934   20.0429 N   0  0  0  0  0  0  0  0  0  0  0  0
  -28.5783  -11.6585   18.5317 N   0  0  0  0  0  0  0  0  0  0  0  0
  -21.3782  -25.6418   22.7561 N   0  0  0  0  0  0  0  0  0  0  0  0
  -24.8066  -20.0647   22.3339 N   0  0  0  0  0  0  0  0  0  0  0  0
  -26.4913  -18.5413   19.5216 N   0  3  0  0  0  0  0  0  0  0  0  0
  -30.7843  -12.2555   18.3425 O   0  0  0  0  0  0  0  0  0  0  0  0
  -23.6240  -25.5322   23.3619 O   0  0  0  0  0  0  0  0  0  0  0  0
  -32.4425  -20.4294   22.4726 O   0  0  0  0  0  0  0  0  0  0  0  0
  -22.4352  -21.6602   22.5337 O   0  0  0  0  0  0  0  0  0  0  0  0
  -26.9185  -20.5098   21.4861 O   0  0  0  0  0  0  0  0  0  0  0  0
  -23.2661  -11.4715   20.1970 O   0  0  0  0  0  0  0  0  0  0  0  0
  -28.5530  -26.9466   19.9871 O   0  0  0  0  0  0  0  0  0  1  0  0
  -22.5517   -6.5069   22.4874 F   0  0  0  0  0  0  0  0  0  0  0  0
  -21.3935  -11.0871   22.1940 F   0  0  0  0  0  0  0  0  0  0  0  0
  -34.6613  -20.9611   16.8599 F   0  0  0  0  0  0  0  0  0  0  0  0
  1  2  1  0  0  0  0
  1  5  2  0  0  0  0
  2  6  2  0  0  0  0
  3  8  2  0  0  0  0
  3 17  1  0  0  0  0
  4  9  1  0  0  0  0
  4 17  2  0  0  0  0
  5 19  1  0  0  0  0
  6 21  1  0  0  0  0
  7 10  2  0  0  0  0
  7 20  1  0  0  0  0
  8 26  1  0  0  0  0
  9 26  2  0  0  0  0
 10 27  1  0  0  0  0
 11 12  2  0  0  0  0
 11 28  1  0  0  0  0
 12 29  1  0  0  0  0
 13 22  1  0  0  0  0
 13 27  2  0  0  0  0
 14 23  2  0  0  0  0
 14 25  1  0  0  0  0
 15 24  1  0  0  0  0
 15 25  2  0  0  0  0
 16 29  2  0  0  0  0
 16 30  1  0  0  0  0
 17 32  1  0  0  0  0
 18 32  1  0  0  0  0
 18 33  2  0  0  0  0
 18 37  1  0  0  0  0
 19 21  2  0  0  0  0
 19 42  1  0  0  0  0
 20 22  2  0  0  0  0
 20 43  1  0  0  0  0
 21 54  1  0  0  0  0
 22 44  1  0  0  0  0
 23 31  1  0  0  0  0
 23 57  1  0  0  0  0
 24 31  2  0  0  0  0
 24 70  1  0  0  0  0
 25 72  1  0  0  0  0
 26 85  1  0  0  0  0
 27 86  1  0  0  0  0
 28 30  2  0  0  0  0
 28 85  1  0  0  0  0
 29 87  1  0  0  0  0
 30 88  1  0  0  0  0
 31 89  1  0  0  0  0
 32 69  2  0  0  0  0
 33 71  1  0  0  0  0
 33 75  1  0  0  0  0
 34 35  2  0  0  0  0
 34 45  1  0  0  0  0
 35 46  1  0  0  0  0
 35 64  1  0  0  0  0
 36 65  1  0  0  0  0
 36 70  2  0  0  0  0
 37 76  1  0  0  0  0
 37 80  2  0  0  0  0
 38 55  1  0  0  0  0
 38 77  1  0  0  0  0
 38 81  2  0  0  0  0
 39 65  1  0  0  0  0
 39 74  1  0  0  0  0
 39 82  2  0  0  0  0
 40 66  1  0  0  0  0
 40 73  1  0  0  0  0
 40 83  2  0  0  0  0
 41 67  1  0  0  0  0
 41 78  1  0  0  0  0
 41 84  2  0  0  0  0
 42 47  1  0  0  0  0
 43 55  1  0  0  0  0
 44 73  1  0  0  0  0
 45 51  1  0  0  0  0
 46 72  1  0  0  0  0
 47 49  1  0  0  0  0
 48 50  1  0  0  0  0
 48 52  1  0  0  0  0
 49 54  1  0  0  0  0
 50 56  1  0  0  0  0
 51 72  1  0  0  0  0
 52 74  1  0  0  0  0
 53 56  1  0  0  0  0
 53 74  1  0  0  0  0
 54 77  1  0  0  0  0
 55 73  1  0  0  0  0
 56 71  1  0  0  0  0
 58 65  1  0  0  0  0
 59 67  1  0  0  0  0
 60 68  1  0  0  0  0
 61 68  1  0  0  0  0
 62 68  1  0  0  0  0
 63 79  1  0  0  0  0
 64 86  1  0  0  0  0
 66 68  1  0  0  0  0
 66 78  1  0  0  0  0
 67 79  1  0  0  0  0
 69 71  1  0  0  0  0
M  CHG  1  79   1
M  ISO  4  39 100  64 101  65 100  86 101
M  END
> <Batch ID>
0124

> <Smiles>
CNC(C)C(=O)NC(C(=O)N1Cc2cc([101O:1][101CH2:1]C3=CCCN(c4cc(C)c(F)c(NC=[100C:0](C)[100C:0](=O)N5CCCC(n6nc(-c7ccc(Oc8ccc(F)cc8F)cc7)c(C(N)=O)c6N)C5)c4)C3)ccc2CC1C(=O)NC1CCCc2ccccc21)C(C)(C)C

> <Shape>
0.215

> <Color>
0.078

> <Negative vol penalty>
0.000

$$$$

  -OEChem-04052302063D

 82 90  0     1  0  0  0  0  0999 V2000
  -28.0195  -24.3016   16.9961 C   0  0  0  0  0  0  0  0  0  0  0  0
  -26.8278  -24.5560   17.6674 C   0  0  0  0  0  0  0  0  0  0  0  0
  -26.2414  -13.8949   19.9857 C   0  0  0  0  0  0  0  0  0  0  0  0
  -23.8295  -13.9163   20.1249 C   0  0  0  0  0  0  0  0  0  0  0  0
  -29.2228  -24.7875   17.5059 C   0  0  0  0  0  0  0  0  0  0  0  0
  -26.8389  -25.2955   18.8495 C   0  0  0  0  0  0  0  0  0  0  0  0
  -23.1703  -28.7835   18.9934 C   0  0  0  0  0  0  0  0  0  0  0  0
  -26.2742  -12.7187   20.7347 C   0  0  0  0  0  0  0  0  0  0  0  0
  -23.8623  -12.7400   20.8738 C   0  0  0  0  0  0  0  0  0  0  0  0
  -21.8822  -28.3408   19.2909 C   0  0  0  0  0  0  0  0  0  0  0  0
  -23.2911   -9.5470   22.5159 C   0  0  0  0  0  0  0  0  0  0  0  0
  -22.3876   -8.5386   22.1809 C   0  0  0  0  0  0  0  0  0  0  0  0
  -20.1552  -23.2037   19.5707 C   0  0  0  0  0  0  0  0  0  0  0  0
  -17.8732  -23.0502   18.7923 C   0  0  0  0  0  0  0  0  0  0  0  0
  -22.1625  -29.0764   21.5712 C   0  0  0  0  0  0  0  0  0  0  0  0
  -19.5162  -21.4459   18.0413 C   0  0  0  0  0  0  0  0  0  0  0  0
  -23.3407   -8.4211   19.9640 C   0  0  0  0  0  0  0  0  0  0  0  0
  -25.0190  -14.4938   19.6808 C   0  0  0  0  0  0  0  0  0  0  0  0
  -18.8469  -23.6873   19.5615 C   0  0  0  0  0  0  0  0  0  0  0  0
  -24.9045  -15.8235   17.5068 C   0  0  0  0  0  0  0  0  0  0  0  0
  -29.2475  -25.5416   18.6897 C   0  0  0  0  0  0  0  0  0  0  0  0
  -23.9696  -29.3670   19.9870 C   0  0  0  0  0  0  0  0  0  0  0  0
  -28.0438  -25.7908   19.3763 C   0  0  0  0  0  0  0  0  0  0  0  0
  -23.4595  -29.5280   21.2831 C   0  0  0  0  0  0  0  0  0  0  0  0
  -20.4899  -22.0830   18.8106 C   0  0  0  0  0  0  0  0  0  0  0  0
  -25.0847  -12.1412   21.1787 C   0  0  0  0  0  0  0  0  0  0  0  0
  -21.3791  -28.4846   20.5806 C   0  0  0  0  0  0  0  0  0  0  0  0
  -24.2194   -9.9926   21.5750 C   0  0  0  0  0  0  0  0  0  0  0  0
  -22.4124   -7.9756   20.9050 C   0  0  0  0  0  0  0  0  0  0  0  0
  -18.2079  -21.9295   18.0322 C   0  0  0  0  0  0  0  0  0  0  0  0
  -24.2442   -9.4296   20.2990 C   0  0  0  0  0  0  0  0  0  0  0  0
  -24.9845  -15.7091   18.9076 C   0  0  0  0  0  0  0  0  0  0  0  0
  -24.9021  -17.1769   17.2724 C   0  0  0  0  0  0  0  0  0  0  0  0
  -18.4935  -24.8708   20.3629 C   0  0  0  0  0  0  0  0  0  0  0  0
  -19.1978  -25.3361   21.4065 C   0  0  0  0  0  0  0  0  0  0  0  0
  -24.8381  -14.7981   16.5069 C   0  0  0  0  0  0  0  0  0  0  0  0
  -26.7513  -28.6398   21.3424 C   0  0  0  0  0  0  0  0  0  0  0  0
  -26.3603  -31.5211   22.7802 C   0  0  0  0  0  0  0  0  0  0  0  0
  -24.2284  -33.9761   23.8171 C   0  0  0  0  0  0  0  0  0  0  0  0
  -22.9052  -22.1058   19.5259 C   0  0  0  0  0  0  0  0  0  0  0  0
  -30.5781  -26.0055   19.2273 C   0  0  0  0  0  0  0  0  0  0  0  0
  -25.3472  -29.8637   19.6434 C   0  0  0  0  0  0  0  0  0  0  0  0
  -24.2697  -30.1664   22.3806 C   0  0  0  0  0  0  0  0  0  0  0  0
  -30.4596  -27.0992   20.2856 C   0  0  0  0  0  0  0  0  0  0  0  0
  -26.3237  -21.1608   19.8397 C   0  0  0  0  0  0  0  0  0  0  0  0
  -29.3893  -26.7367   21.3104 C   0  0  0  0  0  0  0  0  0  0  0  0
  -26.3208  -19.6698   19.4946 C   0  0  0  0  0  0  0  0  0  0  0  0
  -25.0719  -21.5656   20.6162 C   0  0  0  0  0  0  0  0  0  0  0  0
  -23.7979  -19.6963   19.6406 C   0  0  0  0  0  0  0  0  0  0  0  0
  -28.0120  -26.6101   20.6483 C   0  0  1  0  0  0  0  0  0  0  0  0
  -26.2623  -29.9758   20.8588 C   0  0  1  0  0  0  0  0  0  0  0  0
  -25.0081  -19.2543   18.8018 C   0  0  2  0  0  0  0  0  0  0  0  0
  -24.1992  -36.1915   24.9954 C   0  0  0  0  0  0  0  0  0  0  0  0
  -26.7673  -30.1032   25.4511 C   0  0  0  0  0  0  0  0  0  0  0  0
  -25.8026  -32.1150   26.5869 C   0  0  0  0  0  0  0  0  0  0  0  0
  -27.9069  -32.3214   25.2633 C   0  0  0  0  0  0  0  0  0  0  0  0
  -23.0895  -35.3483   21.4552 C   0  0  0  0  0  0  0  0  0  0  0  0
  -18.7931  -26.5437   22.2069 C   0  0  0  0  0  0  0  0  0  0  0  0
  -19.8830  -27.6091   22.2088 C   0  0  0  0  0  0  0  0  0  1  0  0
  -25.7093  -32.0001   24.0553 C   0  0  1  0  0  0  0  0  0  0  0  0
  -24.2720  -35.4844   23.6510 C   0  0  2  0  0  0  0  0  0  0  0  0
  -26.5317  -31.6211   25.3192 C   0  0  0  0  0  0  0  0  0  0  0  0
  -25.0299  -16.8953   19.5201 N   0  0  0  0  0  0  0  0  0  0  0  0
  -24.9783  -17.7678   18.4993 N   0  0  0  0  0  0  0  0  0  0  0  0
  -25.6132  -30.6302   21.9966 N   0  0  0  0  0  0  0  0  0  0  0  0
  -23.8676  -21.1433   19.8978 N   0  0  0  0  0  0  0  0  0  0  0  0
  -24.8425  -17.9072   16.1386 N   0  0  0  0  0  0  0  0  0  0  0  0
  -24.8509  -13.4592   16.9210 N   0  0  0  0  0  0  0  0  0  0  0  0
  -21.8189  -21.5916   18.8189 N   0  0  0  0  0  0  0  0  0  0  0  0
  -27.4515  -27.9198   20.3933 N   0  0  0  0  0  0  0  0  0  0  0  0
  -25.4939  -33.4335   23.8902 N   0  0  0  0  0  0  0  0  0  0  0  0
  -23.1287  -35.9466   22.8144 N   0  3  0  0  0  0  0  0  0  0  0  0
  -24.7861  -15.0613   15.2815 O   0  0  0  0  0  0  0  0  0  0  0  0
  -26.5123  -28.2889   22.4919 O   0  0  0  0  0  0  0  0  0  0  0  0
  -27.4871  -31.9282   22.4867 O   0  0  0  0  0  0  0  0  0  0  0  0
  -23.1768  -33.3430   23.8798 O   0  0  0  0  0  0  0  0  0  0  0  0
  -23.0485  -23.3024   19.7898 O   0  0  0  0  0  0  0  0  0  0  0  0
  -25.1163  -10.9933   21.9094 O   0  0  0  0  0  0  0  0  0  0  0  0
  -20.1224  -28.0528   20.8738 O   0  0  0  0  0  0  0  0  0  1  0  0
  -21.5457   -7.0061   20.5838 F   0  0  0  0  0  0  0  0  0  0  0  0
  -17.2738  -21.3190   17.2912 F   0  0  0  0  0  0  0  0  0  0  0  0
  -25.1345   -9.8527   19.3912 F   0  0  0  0  0  0  0  0  0  0  0  0
  1  2  1  0  0  0  0
  1  5  2  0  0  0  0
  2  6  2  0  0  0  0
  3  8  2  0  0  0  0
  3 18  1  0  0  0  0
  4  9  1  0  0  0  0
  4 18  2  0  0  0  0
  5 21  1  0  0  0  0
  6 23  1  0  0  0  0
  7 10  2  0  0  0  0
  7 22  1  0  0  0  0
  8 26  1  0  0  0  0
  9 26  2  0  0  0  0
 10 27  1  0  0  0  0
 11 12  2  0  0  0  0
 11 28  1  0  0  0  0
 12 29  1  0  0  0  0
 13 19  2  0  0  0  0
 13 25  1  0  0  0  0
 14 19  1  0  0  0  0
 14 30  2  0  0  0  0
 15 24  1  0  0  0  0
 15 27  2  0  0  0  0
 16 25  2  0  0  0  0
 16 30  1  0  0  0  0
 17 29  2  0  0  0  0
 17 31  1  0  0  0  0
 18 32  1  0  0  0  0
 19 34  1  0  0  0  0
 20 32  1  0  0  0  0
 20 33  2  0  0  0  0
 20 36  1  0  0  0  0
 21 23  2  0  0  0  0
 21 41  1  0  0  0  0
 22 24  2  0  0  0  0
 22 42  1  0  0  0  0
 23 50  1  0  0  0  0
 24 43  1  0  0  0  0
 25 69  1  0  0  0  0
 26 78  1  0  0  0  0
 27 79  1  0  0  0  0
 28 31  2  0  0  0  0
 28 78  1  0  0  0  0
 29 80  1  0  0  0  0
 30 81  1  0  0  0  0
 31 82  1  0  0  0  0
 32 63  2  0  0  0  0
 33 64  1  0  0  0  0
 33 67  1  0  0  0  0
 34 35  2  0  0  0  0
 35 58  1  0  0  0  0
 36 68  1  0  0  0  0
 36 73  2  0  0  0  0
 37 51  1  0  0  0  0
 37 70  1  0  0  0  0
 37 74  2  0  0  0  0
 38 60  1  0  0  0  0
 38 65  1  0  0  0  0
 38 75  2  0  0  0  0
 39 61  1  0  0  0  0
 39 71  1  0  0  0  0
 39 76  2  0  0  0  0
 40 66  1  0  0  0  0
 40 69  1  0  0  0  0
 40 77  2  0  0  0  0
 41 44  1  0  0  0  0
 42 51  1  0  0  0  0
 43 65  1  0  0  0  0
 44 46  1  0  0  0  0
 45 47  1  0  0  0  0
 45 48  1  0  0  0  0
 46 50  1  0  0  0  0
 47 52  1  0  0  0  0
 48 66  1  0  0  0  0
 49 52  1  0  0  0  0
 49 66  1  0  0  0  0
 50 70  1  0  0  0  0
 51 65  1  0  0  0  0
 52 64  1  0  0  0  0
 53 61  1  0  0  0  0
 54 62  1  0  0  0  0
 55 62  1  0  0  0  0
 56 62  1  0  0  0  0
 57 72  1  0  0  0  0
 58 59  1  0  0  0  0
 59 79  1  0  0  0  0
 60 62  1  0  0  0  0
 60 71  1  0  0  0  0
 61 72  1  0  0  0  0
 63 64  1  0  0  0  0
M  CHG  1  72   1
M  ISO  4  40 100  59 101  69 100  79 101
M  END
> <Batch ID>
0124

> <Smiles>
CNC(C)C(=O)NC(C(=O)N1Cc2cc([101O:1][101CH2:1]CC=Cc3cc(F)cc([100NH:0][100C:0](=O)N4CCCC(n5nc(-c6ccc(Oc7ccc(F)cc7F)cc6)c(C(N)=O)c5N)C4)c3)ccc2CC1C(=O)NC1CCCc2ccccc21)C(C)(C)C

> <Shape>
0.275

> <Color>
0.088

> <Negative vol penalty>
0.000

$$$$

  -OEChem-04052302063D

 85 93  0     1  0  0  0  0  0999 V2000
  -32.4956  -32.7817   20.8132 C   0  0  0  0  0  0  0  0  0  0  0  0
  -32.0667  -31.6925   20.0615 C   0  0  0  0  0  0  0  0  0  0  0  0
  -23.1275   -9.7819   20.8442 C   0  0  0  0  0  0  0  0  0  0  0  0
  -23.8162  -10.4587   23.0589 C   0  0  0  0  0  0  0  0  0  0  0  0
  -29.6903  -17.1434   18.9775 C   0  0  0  0  0  0  0  0  0  0  0  0
  -31.9909  -32.9832   22.0972 C   0  0  0  0  0  0  0  0  0  0  0  0
  -31.1337  -30.8034   20.5938 C   0  0  0  0  0  0  0  0  0  0  0  0
  -26.7317  -27.8264   17.5499 C   0  0  0  0  0  0  0  0  0  0  0  0
  -22.3967   -8.7283   21.3934 C   0  0  0  0  0  0  0  0  0  0  0  0
  -23.0854   -9.4051   23.6081 C   0  0  0  0  0  0  0  0  0  0  0  0
  -28.9955  -18.0535   18.1809 C   0  0  0  0  0  0  0  0  0  0  0  0
  -26.6531  -26.5291   17.0451 C   0  0  0  0  0  0  0  0  0  0  0  0
  -19.8548   -8.7285   24.3333 C   0  0  0  0  0  0  0  0  0  0  0  0
  -19.0629   -9.0030   25.4483 C   0  0  0  0  0  0  0  0  0  0  0  0
  -25.4941  -25.8289   19.0415 C   0  0  0  0  0  0  0  0  0  0  0  0
  -27.5061  -18.5286   20.0229 C   0  0  0  0  0  0  0  0  0  0  0  0
  -20.3150   -7.3865   26.7353 C   0  0  0  0  0  0  0  0  0  0  0  0
  -23.8373  -10.6470   21.6770 C   0  0  0  0  0  0  0  0  0  0  0  0
  -29.2929  -16.9258   20.2968 C   0  0  0  0  0  0  0  0  0  0  0  0
  -24.1381  -13.0423   20.8524 C   0  0  0  0  0  0  0  0  0  0  0  0
  -31.0440  -32.1015   22.6419 C   0  0  0  0  0  0  0  0  0  0  0  0
  -26.2009  -28.1327   18.8112 C   0  0  0  0  0  0  0  0  0  0  0  0
  -30.6169  -30.9925   21.8869 C   0  0  0  0  0  0  0  0  0  0  0  0
  -25.5650  -27.1314   19.5589 C   0  0  0  0  0  0  0  0  0  0  0  0
  -28.2008  -17.6185   20.8195 C   0  0  0  0  0  0  0  0  0  0  0  0
  -22.3756   -8.5400   22.7753 C   0  0  0  0  0  0  0  0  0  0  0  0
  -26.0368  -25.5295   17.7922 C   0  0  0  0  0  0  0  0  0  0  0  0
  -27.9034  -18.7461   18.7036 C   0  0  0  0  0  0  0  0  0  0  0  0
  -20.8767   -7.7830   24.4192 C   0  0  0  0  0  0  0  0  0  0  0  0
  -19.2931   -8.3320   26.6493 C   0  0  0  0  0  0  0  0  0  0  0  0
  -21.1068   -7.1120   25.6203 C   0  0  0  0  0  0  0  0  0  0  0  0
  -24.5928  -11.7352   21.1102 C   0  0  0  0  0  0  0  0  0  0  0  0
  -25.2276  -13.6857   20.3180 C   0  0  0  0  0  0  0  0  0  0  0  0
  -30.0359  -15.9692   21.1058 C   0  0  0  0  0  0  0  0  0  0  0  0
  -22.8464  -13.6230   21.0762 C   0  0  0  0  0  0  0  0  0  0  0  0
  -30.7065  -14.7998   20.4924 C   0  0  0  0  0  0  0  0  0  0  0  0
  -27.4055  -29.1956   21.5539 C   0  0  0  0  0  0  0  0  0  0  0  0
  -26.5721  -21.9480   17.6615 C   0  0  0  0  0  0  0  0  0  0  0  0
  -24.2845  -29.3087   22.4309 C   0  0  0  0  0  0  0  0  0  0  0  0
  -21.1027  -28.1632   21.9716 C   0  0  0  0  0  0  0  0  0  0  0  0
  -30.5626  -32.3339   24.0522 C   0  0  0  0  0  0  0  0  0  0  0  0
  -26.2701  -29.5428   19.3299 C   0  0  0  0  0  0  0  0  0  0  0  0
  -24.9613  -27.4130   20.9097 C   0  0  0  0  0  0  0  0  0  0  0  0
  -29.2963  -31.5554   24.3996 C   0  0  0  0  0  0  0  0  0  0  0  0
  -29.6549  -11.8864   18.6862 C   0  0  0  0  0  0  0  0  0  0  0  0
  -29.4185  -30.1055   23.9418 C   0  0  0  0  0  0  0  0  0  0  0  0
  -28.2194  -11.6730   19.1654 C   0  0  0  0  0  0  0  0  0  0  0  0
  -30.5380  -12.4421   19.7987 C   0  0  0  0  0  0  0  0  0  0  0  0
  -28.5767  -13.4940   20.8922 C   0  0  0  0  0  0  0  0  0  0  0  0
  -29.5875  -30.0198   22.4201 C   0  0  1  0  0  0  0  0  0  0  0  0
  -26.1510  -29.6273   20.8485 C   0  0  1  0  0  0  0  0  0  0  0  0
  -27.6481  -12.9594   19.7879 C   0  0  2  0  0  0  0  0  0  0  0  0
  -28.1886  -18.5410   23.1509 C   0  0  0  0  0  0  0  0  0  0  0  0
  -18.7707  -28.4142   22.8638 C   0  0  0  0  0  0  0  0  0  0  0  0
  -25.0361  -27.6250   24.8620 C   0  0  0  0  0  0  0  0  0  0  0  0
  -22.6044  -27.1183   25.1757 C   0  0  0  0  0  0  0  0  0  0  0  0
  -23.4166  -29.4717   25.3323 C   0  0  0  0  0  0  0  0  0  0  0  0
  -20.0830  -29.1191   19.3629 C   0  0  0  0  0  0  0  0  0  0  0  0
  -27.7550  -17.4052   22.2294 C   0  0  0  0  0  0  0  0  0  0  0  0
  -25.9523  -23.1978   18.2523 C   0  0  0  0  0  0  0  0  0  1  0  0
  -26.6078  -20.7359   18.5694 C   0  0  0  0  0  0  0  0  0  0  0  0
  -23.3186  -28.3421   23.0726 C   0  0  1  0  0  0  0  0  0  0  0  0
  -19.7794  -28.8939   21.8318 C   0  0  2  0  0  0  0  0  0  0  0  0
  -23.6069  -28.1332   24.5861 C   0  0  0  0  0  0  0  0  0  0  0  0
  -25.8715  -11.5571   20.7676 N   0  0  0  0  0  0  0  0  0  0  0  0
  -30.1621  -16.0738   22.3999 N   0  0  0  0  0  0  0  0  0  0  0  0
  -26.2295  -12.7607   20.2889 N   0  0  0  0  0  0  0  0  0  0  0  0
  -29.9493  -13.6412   20.3918 N   0  0  0  0  0  0  0  0  0  0  0  0
  -25.0599  -28.8058   21.3765 N   0  0  0  0  0  0  0  0  0  0  0  0
  -25.4166  -14.9467   19.8746 N   0  0  0  0  0  0  0  0  0  0  0  0
  -21.8408  -12.8212   21.6331 N   0  0  0  0  0  0  0  0  0  0  0  0
  -28.3153  -30.2153   21.7585 N   0  0  0  0  0  0  0  0  0  0  0  0
  -21.9814  -28.8488   22.7834 N   0  0  0  0  0  0  0  0  0  0  0  0
  -19.2055  -28.6711   20.4747 N   0  3  0  0  0  0  0  0  0  0  0  0
  -22.5869  -14.8128   20.7755 O   0  0  0  0  0  0  0  0  0  0  0  0
  -31.8641  -14.9816   20.1382 O   0  0  0  0  0  0  0  0  0  0  0  0
  -27.5374  -28.0243   21.8893 O   0  0  0  0  0  0  0  0  0  0  0  0
  -27.0190  -21.9196   16.5158 O   0  0  0  0  0  0  0  0  0  0  0  0
  -24.3435  -30.4691   22.8450 O   0  0  0  0  0  0  0  0  0  0  0  0
  -21.3324  -27.0897   21.4191 O   0  0  0  0  0  0  0  0  0  0  0  0
  -21.6624   -7.5122   23.3116 O   0  0  0  0  0  0  0  0  0  0  0  0
  -25.9593  -24.2624   17.3021 O   0  0  0  0  0  0  0  0  0  1  0  0
  -27.2166  -19.6411   17.9178 O   0  0  0  0  0  0  0  0  0  0  0  0
  -18.5336   -8.5968   27.7204 F   0  0  0  0  0  0  0  0  0  0  0  0
  -22.0879   -6.2035   25.7093 F   0  0  0  0  0  0  0  0  0  0  0  0
  1  2  1  0  0  0  0
  1  6  2  0  0  0  0
  2  7  2  0  0  0  0
  3  9  2  0  0  0  0
  3 18  1  0  0  0  0
  4 10  1  0  0  0  0
  4 18  2  0  0  0  0
  5 11  2  0  0  0  0
  5 19  1  0  0  0  0
  6 21  1  0  0  0  0
  7 23  1  0  0  0  0
  8 12  2  0  0  0  0
  8 22  1  0  0  0  0
  9 26  1  0  0  0  0
 10 26  2  0  0  0  0
 11 28  1  0  0  0  0
 12 27  1  0  0  0  0
 13 14  2  0  0  0  0
 13 29  1  0  0  0  0
 14 30  1  0  0  0  0
 15 24  1  0  0  0  0
 15 27  2  0  0  0  0
 16 25  1  0  0  0  0
 16 28  2  0  0  0  0
 17 30  2  0  0  0  0
 17 31  1  0  0  0  0
 18 32  1  0  0  0  0
 19 25  2  0  0  0  0
 19 34  1  0  0  0  0
 20 32  1  0  0  0  0
 20 33  2  0  0  0  0
 20 35  1  0  0  0  0
 21 23  2  0  0  0  0
 21 41  1  0  0  0  0
 22 24  2  0  0  0  0
 22 42  1  0  0  0  0
 23 50  1  0  0  0  0
 24 43  1  0  0  0  0
 25 59  1  0  0  0  0
 26 81  1  0  0  0  0
 27 82  1  0  0  0  0
 28 83  1  0  0  0  0
 29 31  2  0  0  0  0
 29 81  1  0  0  0  0
 30 84  1  0  0  0  0
 31 85  1  0  0  0  0
 32 65  2  0  0  0  0
 33 67  1  0  0  0  0
 33 70  1  0  0  0  0
 34 36  1  0  0  0  0
 34 66  2  0  0  0  0
 35 71  1  0  0  0  0
 35 75  2  0  0  0  0
 36 68  1  0  0  0  0
 36 76  2  0  0  0  0
 37 51  1  0  0  0  0
 37 72  1  0  0  0  0
 37 77  2  0  0  0  0
 38 60  1  0  0  0  0
 38 61  1  0  0  0  0
 38 78  2  0  0  0  0
 39 62  1  0  0  0  0
 39 69  1  0  0  0  0
 39 79  2  0  0  0  0
 40 63  1  0  0  0  0
 40 73  1  0  0  0  0
 40 80  2  0  0  0  0
 41 44  1  0  0  0  0
 42 51  1  0  0  0  0
 43 69  1  0  0  0  0
 44 46  1  0  0  0  0
 45 47  1  0  0  0  0
 45 48  1  0  0  0  0
 46 50  1  0  0  0  0
 47 52  1  0  0  0  0
 48 68  1  0  0  0  0
 49 52  1  0  0  0  0
 49 68  1  0  0  0  0
 50 72  1  0  0  0  0
 51 69  1  0  0  0  0
 52 67  1  0  0  0  0
 53 59  1  0  0  0  0
 54 63  1  0  0  0  0
 55 64  1  0  0  0  0
 56 64  1  0  0  0  0
 57 64  1  0  0  0  0
 58 74  1  0  0  0  0
 60 82  1  0  0  0  0
 61 83  1  0  0  0  0
 62 64  1  0  0  0  0
 62 73  1  0  0  0  0
 63 74  1  0  0  0  0
 65 67  1  0  0  0  0
M  CHG  1  74   1
M  ISO  4  34 100  36 100  60 101  82 101
M  END
> <Batch ID>
0124

> <Smiles>
CCc1cc(OCC(=O)[101CH2:1][101O:1]c2ccc3c(c2)CN(C(=O)C(NC(=O)C(C)NC)C(C)(C)C)C(C(=O)NC2CCCc4ccccc42)C3)ccc1[100C:0](=N)[100C:0](=O)N1CCCC(n2nc(-c3ccc(Oc4ccc(F)cc4F)cc3)c(C(N)=O)c2N)C1

> <Shape>
0.277

> <Color>
0.175

> <Negative vol penalty>
0.000

$$$$

  -OEChem-04052302063D

 85 93  0     1  0  0  0  0  0999 V2000
  -24.8203  -36.3976   20.8289 C   0  0  0  0  0  0  0  0  0  0  0  0
  -25.5775  -35.5869   19.9893 C   0  0  0  0  0  0  0  0  0  0  0  0
  -25.1088   -9.7886   22.7650 C   0  0  0  0  0  0  0  0  0  0  0  0
  -24.2822  -11.7942   23.8287 C   0  0  0  0  0  0  0  0  0  0  0  0
  -24.6298  -36.0340   22.1614 C   0  0  0  0  0  0  0  0  0  0  0  0
  -26.1455  -34.4125   20.4821 C   0  0  0  0  0  0  0  0  0  0  0  0
  -27.8875  -27.7701   18.4424 C   0  0  0  0  0  0  0  0  0  0  0  0
  -24.8654   -9.0681   23.9343 C   0  0  0  0  0  0  0  0  0  0  0  0
  -24.0388  -11.0737   24.9980 C   0  0  0  0  0  0  0  0  0  0  0  0
  -28.9717  -26.8936   18.4402 C   0  0  0  0  0  0  0  0  0  0  0  0
  -22.2073   -7.6826   25.4988 C   0  0  0  0  0  0  0  0  0  0  0  0
  -21.5847   -6.4404   25.3770 C   0  0  0  0  0  0  0  0  0  0  0  0
  -28.4226  -21.4578   21.8142 C   0  0  0  0  0  0  0  0  0  0  0  0
  -27.4451  -19.2559   21.9955 C   0  0  0  0  0  0  0  0  0  0  0  0
  -29.4838  -19.5727   20.7384 C   0  0  0  0  0  0  0  0  0  0  0  0
  -28.5094  -26.3257   20.7387 C   0  0  0  0  0  0  0  0  0  0  0  0
  -23.4996   -5.3804   26.4000 C   0  0  0  0  0  0  0  0  0  0  0  0
  -24.8173  -11.1517   22.7122 C   0  0  0  0  0  0  0  0  0  0  0  0
  -27.4172  -20.6183   22.2936 C   0  0  0  0  0  0  0  0  0  0  0  0
  -29.4559  -20.9351   21.0365 C   0  0  0  0  0  0  0  0  0  0  0  0
  -24.1816  -12.1006   20.4312 C   0  0  0  0  0  0  0  0  0  0  0  0
  -25.1877  -34.8497   22.6682 C   0  0  0  0  0  0  0  0  0  0  0  0
  -27.1115  -27.9395   19.5980 C   0  0  0  0  0  0  0  0  0  0  0  0
  -25.9633  -34.0334   21.8229 C   0  0  0  0  0  0  0  0  0  0  0  0
  -27.4144  -27.2030   20.7521 C   0  0  0  0  0  0  0  0  0  0  0  0
  -28.4784  -18.7331   21.2179 C   0  0  0  0  0  0  0  0  0  0  0  0
  -24.3304   -9.7107   25.0508 C   0  0  0  0  0  0  0  0  0  0  0  0
  -29.2845  -26.1733   19.5893 C   0  0  0  0  0  0  0  0  0  0  0  0
  -23.4761   -7.7738   26.0710 C   0  0  0  0  0  0  0  0  0  0  0  0
  -22.2308   -5.2893   25.8277 C   0  0  0  0  0  0  0  0  0  0  0  0
  -24.1223   -6.6227   26.5217 C   0  0  0  0  0  0  0  0  0  0  0  0
  -25.0690  -11.8966   21.5048 C   0  0  0  0  0  0  0  0  0  0  0  0
  -24.8916  -12.8670   19.5397 C   0  0  0  0  0  0  0  0  0  0  0  0
  -25.7246  -20.4852   24.0635 C   0  0  0  0  0  0  0  0  0  0  0  0
  -26.3386  -21.1630   23.1035 C   0  0  0  0  0  0  0  0  0  0  0  0
  -30.3449  -22.4108   19.3246 C   0  0  0  0  0  0  0  0  0  0  0  0
  -30.5224  -21.8261   20.5263 C   0  0  0  0  0  0  0  0  0  0  0  0
  -22.8357  -11.6386   20.2555 C   0  0  0  0  0  0  0  0  0  0  0  0
  -26.4555  -30.3838   21.5212 C   0  0  0  0  0  0  0  0  0  0  0  0
  -24.4220  -28.2579   22.8879 C   0  0  0  0  0  0  0  0  0  0  0  0
  -23.6018  -24.9970   23.4716 C   0  0  0  0  0  0  0  0  0  0  0  0
  -29.4596  -16.6692   20.1578 C   0  0  0  0  0  0  0  0  0  0  0  0
  -24.9937  -34.5224   24.1276 C   0  0  0  0  0  0  0  0  0  0  0  0
  -25.9290  -28.8689   19.5760 C   0  0  0  0  0  0  0  0  0  0  0  0
  -26.6003  -27.3336   22.0126 C   0  0  0  0  0  0  0  0  0  0  0  0
  -25.3171  -33.0714   24.4746 C   0  0  0  0  0  0  0  0  0  0  0  0
  -29.3734  -13.7596   18.1074 C   0  0  0  0  0  0  0  0  0  0  0  0
  -26.6417  -32.6541   23.8435 C   0  0  0  0  0  0  0  0  0  0  0  0
  -28.1753  -12.9731   18.6443 C   0  0  0  0  0  0  0  0  0  0  0  0
  -30.1355  -14.4665   19.2269 C   0  0  0  0  0  0  0  0  0  0  0  0
  -28.1148  -14.5293   20.6348 C   0  0  0  0  0  0  0  0  0  0  0  0
  -26.5750  -32.7393   22.3139 C   0  0  1  0  0  0  0  0  0  0  0  0
  -25.5196  -29.3480   20.9653 C   0  0  1  0  0  0  0  0  0  0  0  0
  -27.2779  -13.8528   19.5367 C   0  0  2  0  0  0  0  0  0  0  0  0
  -32.8327  -21.0607   21.1505 C   0  0  0  0  0  0  0  0  0  0  0  0
  -21.9065  -23.5733   24.6533 C   0  0  0  0  0  0  0  0  0  0  0  0
  -25.7612  -28.8832   25.5573 C   0  0  0  0  0  0  0  0  0  0  0  0
  -24.7195  -26.8052   26.4873 C   0  0  0  0  0  0  0  0  0  0  0  0
  -23.2723  -28.6632   25.6650 C   0  0  0  0  0  0  0  0  0  0  0  0
  -22.7238  -23.7383   20.9411 C   0  0  0  0  0  0  0  0  0  0  0  0
  -31.3000  -23.3305   18.6123 C   0  0  0  0  0  0  0  0  0  0  0  0
  -31.7101  -22.0501   21.4332 C   0  0  0  0  0  0  0  0  0  0  0  0
  -30.6759  -24.6957   18.3497 C   0  0  0  0  0  0  0  0  0  1  0  0
  -24.5275  -27.2381   23.9960 C   0  0  1  0  0  0  0  0  0  0  0  0
  -22.2855  -24.2514   23.3459 C   0  0  2  0  0  0  0  0  0  0  0  0
  -24.5868  -27.8962   25.4034 C   0  0  0  0  0  0  0  0  0  0  0  0
  -26.2525  -12.4858   21.3146 N   0  0  0  0  0  0  0  0  0  0  0  0
  -26.1137  -13.0675   20.1111 N   0  0  0  0  0  0  0  0  0  0  0  0
  -25.4579  -28.2597   21.9430 N   0  0  0  0  0  0  0  0  0  0  0  0
  -29.2220  -15.2845   20.0278 N   0  0  0  0  0  0  0  0  0  0  0  0
  -24.5837  -13.3823   18.3305 N   0  0  0  0  0  0  0  0  0  0  0  0
  -22.2582  -10.8620   21.2692 N   0  0  0  0  0  0  0  0  0  0  0  0
  -28.5066  -17.3491   20.9155 N   0  0  0  0  0  0  0  0  0  0  0  0
  -25.8578  -31.6035   21.7752 N   0  0  0  0  0  0  0  0  0  0  0  0
  -23.4094  -26.3190   23.8128 N   0  0  0  0  0  0  0  0  0  0  0  0
  -22.3802  -23.2083   22.2857 N   0  3  0  0  0  0  0  0  0  0  0  0
  -22.1708  -11.8927   19.2226 O   0  0  0  0  0  0  0  0  0  0  0  0
  -27.6323  -30.0972   21.7073 O   0  0  0  0  0  0  0  0  0  0  0  0
  -23.4525  -29.0199   22.8576 O   0  0  0  0  0  0  0  0  0  0  0  0
  -24.6919  -24.4594   23.2893 O   0  0  0  0  0  0  0  0  0  0  0  0
  -30.4216  -17.2165   19.6128 O   0  0  0  0  0  0  0  0  0  0  0  0
  -24.0926   -9.0079   26.1919 O   0  0  0  0  0  0  0  0  0  0  0  0
  -30.3426  -25.3176   19.5901 O   0  0  0  0  0  0  0  0  0  1  0  0
  -21.6322   -4.0967   25.7121 F   0  0  0  0  0  0  0  0  0  0  0  0
  -25.3408   -6.7041   27.0734 F   0  0  0  0  0  0  0  0  0  0  0  0
  1  2  1  0  0  0  0
  1  5  2  0  0  0  0
  2  6  2  0  0  0  0
  3  8  2  0  0  0  0
  3 18  1  0  0  0  0
  4  9  1  0  0  0  0
  4 18  2  0  0  0  0
  5 22  1  0  0  0  0
  6 24  1  0  0  0  0
  7 10  2  0  0  0  0
  7 23  1  0  0  0  0
  8 27  1  0  0  0  0
  9 27  2  0  0  0  0
 10 28  1  0  0  0  0
 11 12  2  0  0  0  0
 11 29  1  0  0  0  0
 12 30  1  0  0  0  0
 13 19  2  0  0  0  0
 13 20  1  0  0  0  0
 14 19  1  0  0  0  0
 14 26  2  0  0  0  0
 15 20  2  0  0  0  0
 15 26  1  0  0  0  0
 16 25  1  0  0  0  0
 16 28  2  0  0  0  0
 17 30  2  0  0  0  0
 17 31  1  0  0  0  0
 18 32  1  0  0  0  0
 19 35  1  0  0  0  0
 20 37  1  0  0  0  0
 21 32  1  0  0  0  0
 21 33  2  0  0  0  0
 21 38  1  0  0  0  0
 22 24  2  0  0  0  0
 22 43  1  0  0  0  0
 23 25  2  0  0  0  0
 23 44  1  0  0  0  0
 24 52  1  0  0  0  0
 25 45  1  0  0  0  0
 26 73  1  0  0  0  0
 27 82  1  0  0  0  0
 28 83  1  0  0  0  0
 29 31  2  0  0  0  0
 29 82  1  0  0  0  0
 30 84  1  0  0  0  0
 31 85  1  0  0  0  0
 32 67  2  0  0  0  0
 33 68  1  0  0  0  0
 33 71  1  0  0  0  0
 34 35  2  0  0  0  0
 36 37  2  0  0  0  0
 36 61  1  0  0  0  0
 37 62  1  0  0  0  0
 38 72  1  0  0  0  0
 38 77  2  0  0  0  0
 39 53  1  0  0  0  0
 39 74  1  0  0  0  0
 39 78  2  0  0  0  0
 40 64  1  0  0  0  0
 40 69  1  0  0  0  0
 40 79  2  0  0  0  0
 41 65  1  0  0  0  0
 41 75  1  0  0  0  0
 41 80  2  0  0  0  0
 42 70  1  0  0  0  0
 42 73  1  0  0  0  0
 42 81  2  0  0  0  0
 43 46  1  0  0  0  0
 44 53  1  0  0  0  0
 45 69  1  0  0  0  0
 46 48  1  0  0  0  0
 47 49  1  0  0  0  0
 47 50  1  0  0  0  0
 48 52  1  0  0  0  0
 49 54  1  0  0  0  0
 50 70  1  0  0  0  0
 51 54  1  0  0  0  0
 51 70  1  0  0  0  0
 52 74  1  0  0  0  0
 53 69  1  0  0  0  0
 54 68  1  0  0  0  0
 55 62  1  0  0  0  0
 56 65  1  0  0  0  0
 57 66  1  0  0  0  0
 58 66  1  0  0  0  0
 59 66  1  0  0  0  0
 60 76  1  0  0  0  0
 61 63  1  0  0  0  0
 63 83  1  0  0  0  0
 64 66  1  0  0  0  0
 64 75  1  0  0  0  0
 65 76  1  0  0  0  0
 67 68  1  0  0  0  0
M  CHG  1  76   1
M  ISO  4  42 100  63 101  73 100  83 101
M  END
> <Batch ID>
0124

> <Smiles>
C=Cc1cc([100NH:0][100C:0](=O)N2CCCC(n3nc(-c4ccc(Oc5ccc(F)cc5F)cc4)c(C(N)=O)c3N)C2)cc(C(=CC[101CH2:1][101O:1]c2ccc3c(c2)CN(C(=O)C(NC(=O)C(C)NC)C(C)(C)C)C(C(=O)NC2CCCc4ccccc42)C3)CC)c1

> <Shape>
0.248

> <Color>
0.083

> <Negative vol penalty>
0.000

$$$$

  -OEChem-04052302063D

 86 94  0     1  0  0  0  0  0999 V2000
  -23.1426  -35.4746   15.4447 C   0  0  0  0  0  0  0  0  0  0  0  0
  -23.7962  -34.2488   15.5194 C   0  0  0  0  0  0  0  0  0  0  0  0
  -23.3842  -10.0944   20.9394 C   0  0  0  0  0  0  0  0  0  0  0  0
  -24.9235   -8.2747   21.3348 C   0  0  0  0  0  0  0  0  0  0  0  0
  -23.1916  -36.3563   16.5237 C   0  0  0  0  0  0  0  0  0  0  0  0
  -24.5000  -33.9044   16.6728 C   0  0  0  0  0  0  0  0  0  0  0  0
  -25.0825  -28.3109   19.0978 C   0  0  0  0  0  0  0  0  0  0  0  0
  -22.3098   -9.2162   21.0807 C   0  0  0  0  0  0  0  0  0  0  0  0
  -23.8491   -7.3965   21.4762 C   0  0  0  0  0  0  0  0  0  0  0  0
  -26.0974  -27.3578   19.0244 C   0  0  0  0  0  0  0  0  0  0  0  0
  -21.5879   -6.5926   23.8556 C   0  0  0  0  0  0  0  0  0  0  0  0
  -21.6229   -5.6946   24.9223 C   0  0  0  0  0  0  0  0  0  0  0  0
  -27.6315  -17.7700   19.9617 C   0  0  0  0  0  0  0  0  0  0  0  0
  -26.9932  -28.1595   21.1158 C   0  0  0  0  0  0  0  0  0  0  0  0
  -21.5380   -3.8461   23.3689 C   0  0  0  0  0  0  0  0  0  0  0  0
  -24.6911   -9.6236   21.0663 C   0  0  0  0  0  0  0  0  0  0  0  0
  -28.4221  -18.1826   18.8892 C   0  0  0  0  0  0  0  0  0  0  0  0
  -26.4268  -11.2794   21.9344 C   0  0  0  0  0  0  0  0  0  0  0  0
  -23.8883  -36.0184   17.6946 C   0  0  0  0  0  0  0  0  0  0  0  0
  -25.0216  -29.2042   20.1771 C   0  0  0  0  0  0  0  0  0  0  0  0
  -24.5595  -34.7829   17.7680 C   0  0  0  0  0  0  0  0  0  0  0  0
  -25.9751  -29.1213   21.2018 C   0  0  0  0  0  0  0  0  0  0  0  0
  -27.3448  -18.6576   20.9989 C   0  0  0  0  0  0  0  0  0  0  0  0
  -28.9261  -19.4827   18.8538 C   0  0  0  0  0  0  0  0  0  0  0  0
  -27.8488  -19.9577   20.9635 C   0  0  0  0  0  0  0  0  0  0  0  0
  -22.5422   -7.8673   21.3492 C   0  0  0  0  0  0  0  0  0  0  0  0
  -27.0546  -27.2839   20.0320 C   0  0  0  0  0  0  0  0  0  0  0  0
  -21.5279   -6.1174   22.5455 C   0  0  0  0  0  0  0  0  0  0  0  0
  -28.6395  -20.3703   19.8910 C   0  0  0  0  0  0  0  0  0  0  0  0
  -21.5980   -4.3213   24.6790 C   0  0  0  0  0  0  0  0  0  0  0  0
  -21.5030   -4.7441   22.3022 C   0  0  0  0  0  0  0  0  0  0  0  0
  -25.8015  -10.5301   20.9198 C   0  0  0  0  0  0  0  0  0  0  0  0
  -27.4176  -11.9755   21.2861 C   0  0  0  0  0  0  0  0  0  0  0  0
  -28.7083  -17.2228   17.8081 C   0  0  0  0  0  0  0  0  0  0  0  0
  -26.1380  -11.3405   23.3375 C   0  0  0  0  0  0  0  0  0  0  0  0
  -25.1944  -32.3629   20.4871 C   0  0  0  0  0  0  0  0  0  0  0  0
  -28.5566  -23.9901   19.8704 C   0  0  0  0  0  0  0  0  0  0  0  0
  -24.4645  -31.7087   23.5792 C   0  0  0  0  0  0  0  0  0  0  0  0
  -24.4759  -29.4586   26.1451 C   0  0  0  0  0  0  0  0  0  0  0  0
  -29.0527  -15.1097   16.9669 C   0  0  0  0  0  0  0  0  0  0  0  0
  -23.9525  -37.0240   18.8168 C   0  0  0  0  0  0  0  0  0  0  0  0
  -23.9050  -30.2089   20.2549 C   0  0  0  0  0  0  0  0  0  0  0  0
  -25.9423  -30.0438   22.3920 C   0  0  0  0  0  0  0  0  0  0  0  0
  -24.4069  -36.4255   20.1456 C   0  0  0  0  0  0  0  0  0  0  0  0
  -29.2477  -11.5276   16.5995 C   0  0  0  0  0  0  0  0  0  0  0  0
  -25.6318  -35.5398   19.9412 C   0  0  0  0  0  0  0  0  0  0  0  0
  -28.3897  -11.0130   17.7552 C   0  0  0  0  0  0  0  0  0  0  0  0
  -28.6926  -12.8276   16.0257 C   0  0  0  0  0  0  0  0  0  0  0  0
  -27.6499  -13.3946   18.2028 C   0  0  0  0  0  0  0  0  0  0  0  0
  -25.3126  -34.3628   19.0115 C   0  0  1  0  0  0  0  0  0  0  0  0
  -24.2386  -31.4054   21.1407 C   0  0  1  0  0  0  0  0  0  0  0  0
  -28.1974  -12.1000   18.8277 C   0  0  1  0  0  0  0  0  0  0  0  0
  -26.4964  -18.1908   22.1363 C   0  0  0  0  0  0  0  0  0  0  0  0
  -29.7739  -19.9327   17.7062 C   0  0  0  0  0  0  0  0  0  0  0  0
  -27.5439  -20.9118   22.0742 C   0  0  0  0  0  0  0  0  0  0  0  0
  -23.8478  -29.2255   28.5635 C   0  0  0  0  0  0  0  0  0  0  0  0
  -26.9265  -33.3272   24.3721 C   0  0  0  0  0  0  0  0  0  0  0  0
  -26.7930  -32.2860   26.6451 C   0  0  0  0  0  0  0  0  0  0  0  0
  -24.9191  -33.7077   25.8143 C   0  0  0  0  0  0  0  0  0  0  0  0
  -22.5507  -27.2893   25.5561 C   0  0  0  0  0  0  0  0  0  0  0  0
  -27.7451  -25.1316   19.2927 C   0  0  0  0  0  0  0  0  0  1  0  0
  -28.3396  -22.6348   19.2294 C   0  0  0  0  0  0  0  0  0  0  0  0
  -25.2618  -31.4064   24.8250 C   0  0  1  0  0  0  0  0  0  0  0  0
  -23.3931  -29.0416   27.1240 C   0  0  2  0  0  0  0  0  0  0  0  0
  -25.9771  -32.6656   25.3908 C   0  0  0  0  0  0  0  0  0  0  0  0
  -26.3490  -10.7315   19.7183 N   0  0  0  0  0  0  0  0  0  0  0  0
  -28.7792  -15.9509   18.0285 N   0  0  0  0  0  0  0  0  0  0  0  0
  -27.3287  -11.6152   19.9737 N   0  0  0  0  0  0  0  0  0  0  0  0
  -24.8347  -31.0132   22.4194 N   0  0  0  0  0  0  0  0  0  0  0  0
  -28.4921  -13.8241   17.0786 N   0  0  0  0  0  0  0  0  0  0  0  0
  -28.3474  -12.8546   21.7164 N   0  0  0  0  0  0  0  0  0  0  0  0
  -25.0864  -10.5607   23.8377 N   0  0  0  0  0  0  0  0  0  0  0  0
  -24.5804  -33.3389   19.7256 N   0  0  0  0  0  0  0  0  0  0  0  0
  -24.3359  -30.7749   25.7590 N   0  0  0  0  0  0  0  0  0  0  0  0
  -23.0370  -27.6085   26.9230 N   0  3  0  0  0  0  0  0  0  0  0  0
  -26.7825  -12.0778   24.1215 O   0  0  0  0  0  0  0  0  0  0  0  0
  -26.3997  -32.2272   20.6619 O   0  0  0  0  0  0  0  0  0  0  0  0
  -29.3425  -24.1537   20.8024 O   0  0  0  0  0  0  0  0  0  0  0  0
  -23.5425  -32.5262   23.6349 O   0  0  0  0  0  0  0  0  0  0  0  0
  -25.3597  -28.6942   25.7642 O   0  0  0  0  0  0  0  0  0  0  0  0
  -29.7258  -15.4366   15.9865 O   0  0  0  0  0  0  0  0  0  0  0  0
  -21.4940   -7.0102   21.4875 O   0  0  0  0  0  0  0  0  0  0  0  0
  -28.0467  -26.3550   19.9625 O   0  0  0  0  0  0  0  0  0  1  0  0
  -29.1358  -21.6519   19.8568 O   0  0  0  0  0  0  0  0  0  0  0  0
  -21.6332   -3.4590   25.7034 F   0  0  0  0  0  0  0  0  0  0  0  0
  -21.4466   -4.2816   21.0457 F   0  0  0  0  0  0  0  0  0  0  0  0
  1  2  1  0  0  0  0
  1  5  2  0  0  0  0
  2  6  2  0  0  0  0
  3  8  2  0  0  0  0
  3 16  1  0  0  0  0
  4  9  1  0  0  0  0
  4 16  2  0  0  0  0
  5 19  1  0  0  0  0
  6 21  1  0  0  0  0
  7 10  2  0  0  0  0
  7 20  1  0  0  0  0
  8 26  1  0  0  0  0
  9 26  2  0  0  0  0
 10 27  1  0  0  0  0
 11 12  2  0  0  0  0
 11 28  1  0  0  0  0
 12 30  1  0  0  0  0
 13 17  2  0  0  0  0
 13 23  1  0  0  0  0
 14 22  1  0  0  0  0
 14 27  2  0  0  0  0
 15 30  2  0  0  0  0
 15 31  1  0  0  0  0
 16 32  1  0  0  0  0
 17 24  1  0  0  0  0
 17 34  1  0  0  0  0
 18 32  1  0  0  0  0
 18 33  2  0  0  0  0
 18 35  1  0  0  0  0
 19 21  2  0  0  0  0
 19 41  1  0  0  0  0
 20 22  2  0  0  0  0
 20 42  1  0  0  0  0
 21 50  1  0  0  0  0
 22 43  1  0  0  0  0
 23 25  2  0  0  0  0
 23 53  1  0  0  0  0
 24 29  2  0  0  0  0
 24 54  1  0  0  0  0
 25 29  1  0  0  0  0
 25 55  1  0  0  0  0
 26 82  1  0  0  0  0
 27 83  1  0  0  0  0
 28 31  2  0  0  0  0
 28 82  1  0  0  0  0
 29 84  1  0  0  0  0
 30 85  1  0  0  0  0
 31 86  1  0  0  0  0
 32 66  2  0  0  0  0
 33 68  1  0  0  0  0
 33 71  1  0  0  0  0
 34 67  2  0  0  0  0
 35 72  1  0  0  0  0
 35 76  2  0  0  0  0
 36 51  1  0  0  0  0
 36 73  1  0  0  0  0
 36 77  2  0  0  0  0
 37 61  1  0  0  0  0
 37 62  1  0  0  0  0
 37 78  2  0  0  0  0
 38 63  1  0  0  0  0
 38 69  1  0  0  0  0
 38 79  2  0  0  0  0
 39 64  1  0  0  0  0
 39 74  1  0  0  0  0
 39 80  2  0  0  0  0
 40 67  1  0  0  0  0
 40 70  1  0  0  0  0
 40 81  2  0  0  0  0
 41 44  1  0  0  0  0
 42 51  1  0  0  0  0
 43 69  1  0  0  0  0
 44 46  1  0  0  0  0
 45 47  1  0  0  0  0
 45 48  1  0  0  0  0
 46 50  1  0  0  0  0
 47 52  1  0  0  0  0
 48 70  1  0  0  0  0
 49 52  1  0  0  0  0
 49 70  1  0  0  0  0
 50 73  1  0  0  0  0
 51 69  1  0  0  0  0
 52 68  1  0  0  0  0
 56 64  1  0  0  0  0
 57 65  1  0  0  0  0
 58 65  1  0  0  0  0
 59 65  1  0  0  0  0
 60 75  1  0  0  0  0
 61 83  1  0  0  0  0
 62 84  1  0  0  0  0
 63 65  1  0  0  0  0
 63 74  1  0  0  0  0
 64 75  1  0  0  0  0
 66 68  1  0  0  0  0
M  CHG  1  75   1
M  ISO  4  40 100  61 101  67 100  83 101
M  END
> <Batch ID>
0124

> <Smiles>
CNC(C)C(=O)NC(C(=O)N1Cc2cc([101O:1][101CH2:1]C(=O)COc3c(C)c(C)cc(C=[100N:0][100C:0](=O)N4CCCC(n5nc(-c6ccc(Oc7ccc(F)cc7F)cc6)c(C(N)=O)c5N)C4)c3C)ccc2CC1C(=O)NC1CCCc2ccccc21)C(C)(C)C

> <Shape>
0.297

> <Color>
0.131

> <Negative vol penalty>
0.000

$$$$

  -OEChem-04052302063D

 85 93  0     1  0  0  0  0  0999 V2000
  -29.8716  -36.4356   23.3931 C   0  0  0  0  0  0  0  0  0  0  0  0
  -29.7806  -35.0551   23.5396 C   0  0  0  0  0  0  0  0  0  0  0  0
  -23.9485   -8.7829   20.3250 C   0  0  0  0  0  0  0  0  0  0  0  0
  -22.8859  -10.6637   21.4069 C   0  0  0  0  0  0  0  0  0  0  0  0
  -29.8812  -20.0364   20.7682 C   0  0  0  0  0  0  0  0  0  0  0  0
  -28.8262  -37.2515   23.8237 C   0  0  0  0  0  0  0  0  0  0  0  0
  -28.6446  -34.4898   24.1178 C   0  0  0  0  0  0  0  0  0  0  0  0
  -26.9708  -30.4495   21.5644 C   0  0  0  0  0  0  0  0  0  0  0  0
  -29.8761  -18.6438   20.8458 C   0  0  0  0  0  0  0  0  0  0  0  0
  -22.9987   -7.9262   20.8814 C   0  0  0  0  0  0  0  0  0  0  0  0
  -21.9360   -9.8070   21.9633 C   0  0  0  0  0  0  0  0  0  0  0  0
  -27.6549  -29.2493   21.7523 C   0  0  0  0  0  0  0  0  0  0  0  0
  -22.4188   -6.4541   23.8682 C   0  0  0  0  0  0  0  0  0  0  0  0
  -22.8740   -5.2637   24.4352 C   0  0  0  0  0  0  0  0  0  0  0  0
  -28.1761  -19.9476   19.0588 C   0  0  0  0  0  0  0  0  0  0  0  0
  -25.9454  -28.5230   23.2915 C   0  0  0  0  0  0  0  0  0  0  0  0
  -21.5229   -4.0050   22.8771 C   0  0  0  0  0  0  0  0  0  0  0  0
  -23.8921  -10.1516   20.5878 C   0  0  0  0  0  0  0  0  0  0  0  0
  -29.0312  -20.6884   19.8747 C   0  0  0  0  0  0  0  0  0  0  0  0
  -28.1710  -18.5549   19.1364 C   0  0  0  0  0  0  0  0  0  0  0  0
  -24.7955  -11.7048   18.7770 C   0  0  0  0  0  0  0  0  0  0  0  0
  -27.6726  -36.6952   24.3986 C   0  0  0  0  0  0  0  0  0  0  0  0
  -25.7725  -30.7004   22.2481 C   0  0  0  0  0  0  0  0  0  0  0  0
  -27.5834  -35.2991   24.5577 C   0  0  0  0  0  0  0  0  0  0  0  0
  -25.2467  -29.7261   23.1086 C   0  0  0  0  0  0  0  0  0  0  0  0
  -29.0210  -17.9030   20.0299 C   0  0  0  0  0  0  0  0  0  0  0  0
  -21.9924   -8.4382   21.7005 C   0  0  0  0  0  0  0  0  0  0  0  0
  -27.1437  -28.2870   22.6182 C   0  0  0  0  0  0  0  0  0  0  0  0
  -21.5157   -6.4199   22.8057 C   0  0  0  0  0  0  0  0  0  0  0  0
  -22.4261   -4.0392   23.9396 C   0  0  0  0  0  0  0  0  0  0  0  0
  -21.0678   -5.1954   22.3102 C   0  0  0  0  0  0  0  0  0  0  0  0
  -24.8733  -11.0370   20.0139 C   0  0  0  0  0  0  0  0  0  0  0  0
  -25.9683  -12.4151   18.6960 C   0  0  0  0  0  0  0  0  0  0  0  0
  -27.3237  -17.8507   16.9452 C   0  0  0  0  0  0  0  0  0  0  0  0
  -29.0364  -22.1585   19.7944 C   0  0  0  0  0  0  0  0  0  0  0  0
  -27.2643  -17.8140   18.2673 C   0  0  0  0  0  0  0  0  0  0  0  0
  -29.5003  -22.9841   20.7458 C   0  0  0  0  0  0  0  0  0  0  0  0
  -23.7560  -11.6850   17.7897 C   0  0  0  0  0  0  0  0  0  0  0  0
  -24.8100  -32.8650   24.3676 C   0  0  0  0  0  0  0  0  0  0  0  0
  -28.6642  -25.1118   21.7401 C   0  0  0  0  0  0  0  0  0  0  0  0
  -21.9284  -31.4409   23.9310 C   0  0  0  0  0  0  0  0  0  0  0  0
  -20.1821  -28.6603   23.0005 C   0  0  0  0  0  0  0  0  0  0  0  0
  -29.8328  -15.7132   20.9745 C   0  0  0  0  0  0  0  0  0  0  0  0
  -26.5889  -37.6208   24.8921 C   0  0  0  0  0  0  0  0  0  0  0  0
  -25.0329  -31.9890   22.0140 C   0  0  0  0  0  0  0  0  0  0  0  0
  -23.9535  -29.9382   23.8508 C   0  0  0  0  0  0  0  0  0  0  0  0
  -25.2593  -36.9176   25.1525 C   0  0  0  0  0  0  0  0  0  0  0  0
  -30.1454  -12.2131   21.5477 C   0  0  0  0  0  0  0  0  0  0  0  0
  -25.4812  -35.6314   25.9419 C   0  0  0  0  0  0  0  0  0  0  0  0
  -28.7953  -11.6500   21.0980 C   0  0  0  0  0  0  0  0  0  0  0  0
  -29.9949  -13.5731   22.2270 C   0  0  0  0  0  0  0  0  0  0  0  0
  -27.9032  -14.0127   21.0018 C   0  0  0  0  0  0  0  0  0  0  0  0
  -26.3567  -34.6467   25.1575 C   0  0  1  0  0  0  0  0  0  0  0  0
  -24.0869  -32.3508   23.1550 C   0  0  1  0  0  0  0  0  0  0  0  0
  -28.0107  -12.6736   20.2540 C   0  0  2  0  0  0  0  0  0  0  0  0
  -17.8399  -27.7855   22.7854 C   0  0  0  0  0  0  0  0  0  0  0  0
  -21.7857  -31.0855   26.9581 C   0  0  0  0  0  0  0  0  0  0  0  0
  -19.9565  -29.4128   26.6056 C   0  0  0  0  0  0  0  0  0  0  0  0
  -19.6352  -31.7798   25.8868 C   0  0  0  0  0  0  0  0  0  0  0  0
  -20.4815  -28.2438   20.0858 C   0  0  0  0  0  0  0  0  0  0  0  0
  -29.4786  -24.4770   20.6217 C   0  0  0  0  0  0  0  0  0  0  0  0
  -28.5820  -26.6260   21.7081 C   0  0  0  0  0  0  0  0  0  1  0  0
  -21.1977  -30.2871   24.5743 C   0  0  1  0  0  0  0  0  0  0  0  0
  -18.9913  -28.4812   22.0762 C   0  0  2  0  0  0  0  0  0  0  0  0
  -20.6692  -30.6378   25.9938 C   0  0  0  0  0  0  0  0  0  0  0  0
  -26.0060  -11.2995   20.6712 N   0  0  0  0  0  0  0  0  0  0  0  0
  -26.6508  -12.1400   19.8443 N   0  0  0  0  0  0  0  0  0  0  0  0
  -23.2706  -31.2169   23.5934 N   0  0  0  0  0  0  0  0  0  0  0  0
  -29.2454  -14.4920   21.3674 N   0  0  0  0  0  0  0  0  0  0  0  0
  -26.4720  -13.2419   17.7551 N   0  0  0  0  0  0  0  0  0  0  0  0
  -22.6191  -10.9021   18.0322 N   0  0  0  0  0  0  0  0  0  0  0  0
  -29.0389  -16.4897   20.1310 N   0  0  0  0  0  0  0  0  0  0  0  0
  -25.5798  -33.9876   24.1297 N   0  0  0  0  0  0  0  0  0  0  0  0
  -20.1586  -29.8858   23.6321 N   0  0  0  0  0  0  0  0  0  0  0  0
  -19.3747  -27.6647   20.8899 N   0  3  0  0  0  0  0  0  0  0  0  0
  -23.8405  -12.3290   16.7166 O   0  0  0  0  0  0  0  0  0  0  0  0
  -24.6781  -32.2869   25.4400 O   0  0  0  0  0  0  0  0  0  0  0  0
  -28.0930  -24.4534   22.6085 O   0  0  0  0  0  0  0  0  0  0  0  0
  -21.3282  -32.4995   23.7288 O   0  0  0  0  0  0  0  0  0  0  0  0
  -21.0447  -27.7978   23.1503 O   0  0  0  0  0  0  0  0  0  0  0  0
  -30.9680  -16.0333   21.3360 O   0  0  0  0  0  0  0  0  0  0  0  0
  -21.0653   -7.6026   22.2434 O   0  0  0  0  0  0  0  0  0  0  0  0
  -27.8097  -27.1149   22.8039 O   0  0  0  0  0  0  0  0  0  1  0  0
  -22.8644   -2.8961   24.4832 F   0  0  0  0  0  0  0  0  0  0  0  0
  -20.2010   -5.1562   21.2889 F   0  0  0  0  0  0  0  0  0  0  0  0
  1  2  1  0  0  0  0
  1  6  2  0  0  0  0
  2  7  2  0  0  0  0
  3 10  2  0  0  0  0
  3 18  1  0  0  0  0
  4 11  1  0  0  0  0
  4 18  2  0  0  0  0
  5  9  2  0  0  0  0
  5 19  1  0  0  0  0
  6 22  1  0  0  0  0
  7 24  1  0  0  0  0
  8 12  2  0  0  0  0
  8 23  1  0  0  0  0
  9 26  1  0  0  0  0
 10 27  1  0  0  0  0
 11 27  2  0  0  0  0
 12 28  1  0  0  0  0
 13 14  2  0  0  0  0
 13 29  1  0  0  0  0
 14 30  1  0  0  0  0
 15 19  2  0  0  0  0
 15 20  1  0  0  0  0
 16 25  1  0  0  0  0
 16 28  2  0  0  0  0
 17 30  2  0  0  0  0
 17 31  1  0  0  0  0
 18 32  1  0  0  0  0
 19 35  1  0  0  0  0
 20 26  2  0  0  0  0
 20 36  1  0  0  0  0
 21 32  1  0  0  0  0
 21 33  2  0  0  0  0
 21 38  1  0  0  0  0
 22 24  2  0  0  0  0
 22 44  1  0  0  0  0
 23 25  2  0  0  0  0
 23 45  1  0  0  0  0
 24 53  1  0  0  0  0
 25 46  1  0  0  0  0
 26 72  1  0  0  0  0
 27 82  1  0  0  0  0
 28 83  1  0  0  0  0
 29 31  2  0  0  0  0
 29 82  1  0  0  0  0
 30 84  1  0  0  0  0
 31 85  1  0  0  0  0
 32 66  2  0  0  0  0
 33 67  1  0  0  0  0
 33 70  1  0  0  0  0
 34 36  2  0  0  0  0
 35 37  2  0  0  0  0
 37 61  1  0  0  0  0
 38 71  1  0  0  0  0
 38 76  2  0  0  0  0
 39 54  1  0  0  0  0
 39 73  1  0  0  0  0
 39 77  2  0  0  0  0
 40 61  1  0  0  0  0
 40 62  1  0  0  0  0
 40 78  2  0  0  0  0
 41 63  1  0  0  0  0
 41 68  1  0  0  0  0
 41 79  2  0  0  0  0
 42 64  1  0  0  0  0
 42 74  1  0  0  0  0
 42 80  2  0  0  0  0
 43 69  1  0  0  0  0
 43 72  1  0  0  0  0
 43 81  2  0  0  0  0
 44 47  1  0  0  0  0
 45 54  1  0  0  0  0
 46 68  1  0  0  0  0
 47 49  1  0  0  0  0
 48 50  1  0  0  0  0
 48 51  1  0  0  0  0
 49 53  1  0  0  0  0
 50 55  1  0  0  0  0
 51 69  1  0  0  0  0
 52 55  1  0  0  0  0
 52 69  1  0  0  0  0
 53 73  1  0  0  0  0
 54 68  1  0  0  0  0
 55 67  1  0  0  0  0
 56 64  1  0  0  0  0
 57 65  1  0  0  0  0
 58 65  1  0  0  0  0
 59 65  1  0  0  0  0
 60 75  1  0  0  0  0
 62 83  1  0  0  0  0
 63 65  1  0  0  0  0
 63 74  1  0  0  0  0
 64 75  1  0  0  0  0
 66 67  1  0  0  0  0
M  CHG  1  75   1
M  ISO  4  43 100  62 101  72 100  83 101
M  END
> <Batch ID>
0124

> <Smiles>
C=Cc1cc(C=CCC(=O)[101CH2:1][101O:1]c2ccc3c(c2)CN(C(=O)C(NC(=O)C(C)NC)C(C)(C)C)C(C(=O)NC2CCCc4ccccc42)C3)ccc1[100NH:0][100C:0](=O)N1CCCC(n2nc(-c3ccc(Oc4ccc(F)cc4F)cc3)c(C(N)=O)c2N)C1

> <Shape>
0.333

> <Color>
0.079

> <Negative vol penalty>
0.000

$$$$

  -OEChem-04052302063D

 85 93  0     1  0  0  0  0  0999 V2000
  -25.6317  -32.5783   31.1215 C   0  0  0  0  0  0  0  0  0  0  0  0
  -26.4588  -31.6032   30.5734 C   0  0  0  0  0  0  0  0  0  0  0  0
  -22.9945   -9.9134   19.9912 C   0  0  0  0  0  0  0  0  0  0  0  0
  -23.7159   -9.9747   22.2962 C   0  0  0  0  0  0  0  0  0  0  0  0
  -24.5919  -33.1152   30.3637 C   0  0  0  0  0  0  0  0  0  0  0  0
  -26.2458  -31.1636   29.2673 C   0  0  0  0  0  0  0  0  0  0  0  0
  -30.5088  -29.4471   25.2193 C   0  0  0  0  0  0  0  0  0  0  0  0
  -22.2248   -8.7822   20.2622 C   0  0  0  0  0  0  0  0  0  0  0  0
  -22.9461   -8.8434   22.5672 C   0  0  0  0  0  0  0  0  0  0  0  0
  -30.9824  -28.1949   24.8300 C   0  0  0  0  0  0  0  0  0  0  0  0
  -23.1831   -5.5015   22.1132 C   0  0  0  0  0  0  0  0  0  0  0  0
  -23.7669   -4.4868   22.8716 C   0  0  0  0  0  0  0  0  0  0  0  0
  -30.3669  -18.9846   23.0938 C   0  0  0  0  0  0  0  0  0  0  0  0
  -29.4672  -28.2119   22.9530 C   0  0  0  0  0  0  0  0  0  0  0  0
  -31.8991  -17.2550   21.5305 C   0  0  0  0  0  0  0  0  0  0  0  0
  -22.0408   -4.7427   24.5426 C   0  0  0  0  0  0  0  0  0  0  0  0
  -23.7402  -10.5096   21.0082 C   0  0  0  0  0  0  0  0  0  0  0  0
  -31.6634  -19.3423   22.7242 C   0  0  0  0  0  0  0  0  0  0  0  0
  -24.1319  -13.0233   20.8197 C   0  0  0  0  0  0  0  0  0  0  0  0
  -24.3720  -32.6889   29.0443 C   0  0  0  0  0  0  0  0  0  0  0  0
  -29.5013  -30.0873   24.4833 C   0  0  0  0  0  0  0  0  0  0  0  0
  -25.2012  -31.6943   28.4915 C   0  0  0  0  0  0  0  0  0  0  0  0
  -28.9843  -29.4733   23.3336 C   0  0  0  0  0  0  0  0  0  0  0  0
  -29.8365  -17.7620   22.6818 C   0  0  0  0  0  0  0  0  0  0  0  0
  -30.6026  -16.8973   21.9002 C   0  0  0  0  0  0  0  0  0  0  0  0
  -22.2006   -8.2472   21.5502 C   0  0  0  0  0  0  0  0  0  0  0  0
  -30.4596  -27.5759   23.6984 C   0  0  0  0  0  0  0  0  0  0  0  0
  -22.0282   -6.1369   22.5695 C   0  0  0  0  0  0  0  0  0  0  0  0
  -23.1958   -4.1074   24.0862 C   0  0  0  0  0  0  0  0  0  0  0  0
  -32.4295  -18.4776   21.9425 C   0  0  0  0  0  0  0  0  0  0  0  0
  -21.4570   -5.7574   23.7841 C   0  0  0  0  0  0  0  0  0  0  0  0
  -24.5360  -11.6778   20.7288 C   0  0  0  0  0  0  0  0  0  0  0  0
  -25.2440  -13.7413   20.4535 C   0  0  0  0  0  0  0  0  0  0  0  0
  -32.2191  -20.6353   23.1621 C   0  0  0  0  0  0  0  0  0  0  0  0
  -31.4918  -21.7483   23.3595 C   0  0  0  0  0  0  0  0  0  0  0  0
  -31.1206  -24.0710   23.9331 C   0  0  0  0  0  0  0  0  0  0  0  0
  -22.8646  -13.5748   21.2012 C   0  0  0  0  0  0  0  0  0  0  0  0
  -31.9994  -23.0574   23.7837 C   0  0  0  0  0  0  0  0  0  0  0  0
  -26.5385  -31.0551   25.1069 C   0  0  0  0  0  0  0  0  0  0  0  0
  -26.7466  -32.3332   22.1328 C   0  0  0  0  0  0  0  0  0  0  0  0
  -28.2077  -32.2730   19.0492 C   0  0  0  0  0  0  0  0  0  0  0  0
  -30.7254  -14.6903   20.6917 C   0  0  0  0  0  0  0  0  0  0  0  0
  -23.2060  -33.2644   28.2803 C   0  0  0  0  0  0  0  0  0  0  0  0
  -29.0201  -31.4497   24.9012 C   0  0  0  0  0  0  0  0  0  0  0  0
  -27.9159  -30.1275   22.4975 C   0  0  0  0  0  0  0  0  0  0  0  0
  -23.2802  -33.0142   26.7762 C   0  0  0  0  0  0  0  0  0  0  0  0
  -29.6051  -12.2280   18.3768 C   0  0  0  0  0  0  0  0  0  0  0  0
  -23.6397  -31.5588   26.4943 C   0  0  0  0  0  0  0  0  0  0  0  0
  -28.1532  -11.9760   18.7898 C   0  0  0  0  0  0  0  0  0  0  0  0
  -30.5042  -12.4755   19.5868 C   0  0  0  0  0  0  0  0  0  0  0  0
  -28.5885  -13.2760   20.9129 C   0  0  0  0  0  0  0  0  0  0  0  0
  -25.0174  -31.2094   27.0698 C   0  0  1  0  0  0  0  0  0  0  0  0
  -27.6287  -31.7807   24.3702 C   0  0  1  0  0  0  0  0  0  0  0  0
  -27.6324  -13.0857   19.7241 C   0  0  2  0  0  0  0  0  0  0  0  0
  -28.4448  -17.4040   23.0924 C   0  0  0  0  0  0  0  0  0  0  0  0
  -33.4801  -23.1837   24.0306 C   0  0  0  0  0  0  0  0  0  0  0  0
  -28.1433  -33.4162   16.8162 C   0  0  0  0  0  0  0  0  0  0  0  0
  -24.1674  -30.8522   21.4518 C   0  0  0  0  0  0  0  0  0  0  0  0
  -24.6650  -31.2424   19.0293 C   0  0  0  0  0  0  0  0  0  0  0  0
  -24.3002  -33.1827   20.5542 C   0  0  0  0  0  0  0  0  0  0  0  0
  -31.0273  -33.1417   19.2826 C   0  0  0  0  0  0  0  0  0  0  0  0
  -31.3876  -25.4845   24.3474 C   0  0  0  0  0  0  0  0  0  1  0  0
  -26.4396  -31.8478   20.7367 C   0  0  1  0  0  0  0  0  0  0  0  0
  -28.7936  -33.3792   18.1904 C   0  0  2  0  0  0  0  0  0  0  0  0
  -24.9118  -31.7678   20.4596 C   0  0  0  0  0  0  0  0  0  0  0  0
  -25.8056  -11.5462   20.3355 N   0  0  0  0  0  0  0  0  0  0  0  0
  -26.2089  -12.8182   20.1759 N   0  0  0  0  0  0  0  0  0  0  0  0
  -27.4736  -31.4567   22.9507 N   0  0  0  0  0  0  0  0  0  0  0  0
  -29.9503  -13.5422   20.4236 N   0  0  0  0  0  0  0  0  0  0  0  0
  -25.4809  -15.0659   20.3449 N   0  0  0  0  0  0  0  0  0  0  0  0
  -21.8301  -12.6950   21.5476 N   0  0  0  0  0  0  0  0  0  0  0  0
  -30.0822  -15.6511   21.4712 N   0  0  0  0  0  0  0  0  0  0  0  0
  -26.0669  -31.7271   26.2184 N   0  0  0  0  0  0  0  0  0  0  0  0
  -27.1661  -32.7293   19.8291 N   0  0  0  0  0  0  0  0  0  0  0  0
  -30.2590  -33.1752   18.0116 N   0  3  0  0  0  0  0  0  0  0  0  0
  -22.6509  -14.8108   21.2182 O   0  0  0  0  0  0  0  0  0  0  0  0
  -26.1527  -29.9668   24.6964 O   0  0  0  0  0  0  0  0  0  0  0  0
  -26.3619  -33.4519   22.4823 O   0  0  0  0  0  0  0  0  0  0  0  0
  -28.6293  -31.1188   19.0275 O   0  0  0  0  0  0  0  0  0  0  0  0
  -31.8652  -14.8240   20.2389 O   0  0  0  0  0  0  0  0  0  0  0  0
  -21.4494   -7.1435   21.8150 O   0  0  0  0  0  0  0  0  0  0  0  0
  -30.9197  -26.3534   23.3166 O   0  0  0  0  0  0  0  0  0  1  0  0
  -23.7556   -3.1319   24.8137 F   0  0  0  0  0  0  0  0  0  0  0  0
  -33.6778  -18.8074   21.5797 F   0  0  0  0  0  0  0  0  0  0  0  0
  -20.3469   -6.3633   24.2271 F   0  0  0  0  0  0  0  0  0  0  0  0
  1  2  1  0  0  0  0
  1  5  2  0  0  0  0
  2  6  2  0  0  0  0
  3  8  2  0  0  0  0
  3 17  1  0  0  0  0
  4  9  1  0  0  0  0
  4 17  2  0  0  0  0
  5 20  1  0  0  0  0
  6 22  1  0  0  0  0
  7 10  2  0  0  0  0
  7 21  1  0  0  0  0
  8 26  1  0  0  0  0
  9 26  2  0  0  0  0
 10 27  1  0  0  0  0
 11 12  2  0  0  0  0
 11 28  1  0  0  0  0
 12 29  1  0  0  0  0
 13 18  1  0  0  0  0
 13 24  2  0  0  0  0
 14 23  1  0  0  0  0
 14 27  2  0  0  0  0
 15 25  2  0  0  0  0
 15 30  1  0  0  0  0
 16 29  2  0  0  0  0
 16 31  1  0  0  0  0
 17 32  1  0  0  0  0
 18 30  2  0  0  0  0
 18 34  1  0  0  0  0
 19 32  1  0  0  0  0
 19 33  2  0  0  0  0
 19 37  1  0  0  0  0
 20 22  2  0  0  0  0
 20 43  1  0  0  0  0
 21 23  2  0  0  0  0
 21 44  1  0  0  0  0
 22 52  1  0  0  0  0
 23 45  1  0  0  0  0
 24 25  1  0  0  0  0
 24 55  1  0  0  0  0
 25 72  1  0  0  0  0
 26 81  1  0  0  0  0
 27 82  1  0  0  0  0
 28 31  2  0  0  0  0
 28 81  1  0  0  0  0
 29 83  1  0  0  0  0
 30 84  1  0  0  0  0
 31 85  1  0  0  0  0
 32 66  2  0  0  0  0
 33 67  1  0  0  0  0
 33 70  1  0  0  0  0
 34 35  2  0  0  0  0
 35 38  1  0  0  0  0
 36 38  2  0  0  0  0
 36 62  1  0  0  0  0
 37 71  1  0  0  0  0
 37 76  2  0  0  0  0
 38 56  1  0  0  0  0
 39 53  1  0  0  0  0
 39 73  1  0  0  0  0
 39 77  2  0  0  0  0
 40 63  1  0  0  0  0
 40 68  1  0  0  0  0
 40 78  2  0  0  0  0
 41 64  1  0  0  0  0
 41 74  1  0  0  0  0
 41 79  2  0  0  0  0
 42 69  1  0  0  0  0
 42 72  1  0  0  0  0
 42 80  2  0  0  0  0
 43 46  1  0  0  0  0
 44 53  1  0  0  0  0
 45 68  1  0  0  0  0
 46 48  1  0  0  0  0
 47 49  1  0  0  0  0
 47 50  1  0  0  0  0
 48 52  1  0  0  0  0
 49 54  1  0  0  0  0
 50 69  1  0  0  0  0
 51 54  1  0  0  0  0
 51 69  1  0  0  0  0
 52 73  1  0  0  0  0
 53 68  1  0  0  0  0
 54 67  1  0  0  0  0
 57 64  1  0  0  0  0
 58 65  1  0  0  0  0
 59 65  1  0  0  0  0
 60 65  1  0  0  0  0
 61 75  1  0  0  0  0
 62 82  1  0  0  0  0
 63 65  1  0  0  0  0
 63 74  1  0  0  0  0
 64 75  1  0  0  0  0
 66 67  1  0  0  0  0
M  CHG  1  75   1
M  ISO  4  42 100  62 101  72 100  82 101
M  END
> <Batch ID>
0124

> <Smiles>
CNC(C)C(=O)NC(C(=O)N1Cc2cc([101O:1][101CH2:1]C=C(C)C=Cc3cc(C)c([100NH:0][100C:0](=O)N4CCCC(n5nc(-c6ccc(Oc7ccc(F)cc7F)cc6)c(C(N)=O)c5N)C4)cc3F)ccc2CC1C(=O)NC1CCCc2ccccc21)C(C)(C)C

> <Shape>
0.268

> <Color>
0.205

> <Negative vol penalty>
0.000

$$$$

  -OEChem-04052302063D

 85 93  0     1  0  0  0  0  0999 V2000
  -27.3480  -31.5225   16.1378 C   0  0  0  0  0  0  0  0  0  0  0  0
  -27.1888  -30.1465   16.2662 C   0  0  0  0  0  0  0  0  0  0  0  0
  -22.9567  -10.1868   20.4023 C   0  0  0  0  0  0  0  0  0  0  0  0
  -24.3501   -9.2039   22.1139 C   0  0  0  0  0  0  0  0  0  0  0  0
  -30.2321  -16.1918   23.4970 C   0  0  0  0  0  0  0  0  0  0  0  0
  -27.4138  -32.3247   17.2763 C   0  0  0  0  0  0  0  0  0  0  0  0
  -27.0965  -29.5716   17.5333 C   0  0  0  0  0  0  0  0  0  0  0  0
  -23.7203  -24.7207   19.1381 C   0  0  0  0  0  0  0  0  0  0  0  0
  -22.1520   -9.0475   20.4031 C   0  0  0  0  0  0  0  0  0  0  0  0
  -23.5454   -8.0646   22.1148 C   0  0  0  0  0  0  0  0  0  0  0  0
  -29.6021  -17.4032   23.7822 C   0  0  0  0  0  0  0  0  0  0  0  0
  -24.0350  -23.3729   19.3056 C   0  0  0  0  0  0  0  0  0  0  0  0
  -20.5556   -7.1298   23.3828 C   0  0  0  0  0  0  0  0  0  0  0  0
  -20.1803   -6.6042   24.6191 C   0  0  0  0  0  0  0  0  0  0  0  0
  -29.8835  -16.5663   21.1358 C   0  0  0  0  0  0  0  0  0  0  0  0
  -24.3087  -23.7374   21.6744 C   0  0  0  0  0  0  0  0  0  0  0  0
  -21.2715   -4.5211   24.0647 C   0  0  0  0  0  0  0  0  0  0  0  0
  -24.0558  -10.2650   21.2577 C   0  0  0  0  0  0  0  0  0  0  0  0
  -30.3728  -15.7733   22.1738 C   0  0  0  0  0  0  0  0  0  0  0  0
  -24.7296  -12.5950   22.0482 C   0  0  0  0  0  0  0  0  0  0  0  0
  -27.3126  -31.7605   18.5577 C   0  0  0  0  0  0  0  0  0  0  0  0
  -23.7081  -25.5907   20.2378 C   0  0  0  0  0  0  0  0  0  0  0  0
  -27.1624  -30.3668   18.6900 C   0  0  0  0  0  0  0  0  0  0  0  0
  -23.9910  -25.0953   21.5186 C   0  0  0  0  0  0  0  0  0  0  0  0
  -22.4463   -7.9864   21.2594 C   0  0  0  0  0  0  0  0  0  0  0  0
  -24.3321  -22.8816   20.5735 C   0  0  0  0  0  0  0  0  0  0  0  0
  -29.1129  -18.1961   22.7441 C   0  0  0  0  0  0  0  0  0  0  0  0
  -21.2887   -6.3511   22.4873 C   0  0  0  0  0  0  0  0  0  0  0  0
  -29.2536  -17.7777   21.4209 C   0  0  0  0  0  0  0  0  0  0  0  0
  -20.5383   -5.2999   24.9601 C   0  0  0  0  0  0  0  0  0  0  0  0
  -21.6467   -5.0467   22.8283 C   0  0  0  0  0  0  0  0  0  0  0  0
  -24.8877  -11.4414   21.2569 C   0  0  0  0  0  0  0  0  0  0  0  0
  -25.7676  -13.4129   21.6741 C   0  0  0  0  0  0  0  0  0  0  0  0
  -31.0315  -14.5113   21.8766 C   0  0  0  0  0  0  0  0  0  0  0  0
  -23.7336  -12.8998   23.0335 C   0  0  0  0  0  0  0  0  0  0  0  0
  -31.1975  -14.0376   20.4833 C   0  0  0  0  0  0  0  0  0  0  0  0
  -25.3382  -28.1937   21.0570 C   0  0  0  0  0  0  0  0  0  0  0  0
  -23.2312  -28.2633   23.5223 C   0  0  0  0  0  0  0  0  0  0  0  0
  -21.0783  -26.5516   25.5427 C   0  0  0  0  0  0  0  0  0  0  0  0
  -27.4366  -32.6627   19.7600 C   0  0  0  0  0  0  0  0  0  0  0  0
  -23.3404  -27.0364   20.0444 C   0  0  0  0  0  0  0  0  0  0  0  0
  -23.9717  -25.9836   22.7347 C   0  0  0  0  0  0  0  0  0  0  0  0
  -26.9547  -32.0184   21.0573 C   0  0  0  0  0  0  0  0  0  0  0  0
  -29.0038  -13.0869   17.8111 C   0  0  0  0  0  0  0  0  0  0  0  0
  -27.5159  -30.6065   21.1927 C   0  0  0  0  0  0  0  0  0  0  0  0
  -27.7386  -12.6320   18.5378 C   0  0  0  0  0  0  0  0  0  0  0  0
  -30.2587  -12.7453   18.6079 C   0  0  0  0  0  0  0  0  0  0  0  0
  -28.9870  -12.8326   20.7348 C   0  0  0  0  0  0  0  0  0  0  0  0
  -27.0336  -29.7089   20.0467 C   0  0  1  0  0  0  0  0  0  0  0  0
  -23.8608  -27.9395   21.1584 C   0  0  1  0  0  0  0  0  0  0  0  0
  -27.6973  -13.1853   19.9734 C   0  0  2  0  0  0  0  0  0  0  0  0
  -19.5296  -26.8718   27.4911 C   0  0  0  0  0  0  0  0  0  0  0  0
  -25.6295  -28.3910   25.4044 C   0  0  0  0  0  0  0  0  0  0  0  0
  -24.1010  -27.7555   27.2827 C   0  0  0  0  0  0  0  0  0  0  0  0
  -23.7258  -29.8843   26.0375 C   0  0  0  0  0  0  0  0  0  0  0  0
  -18.7274  -25.6901   23.9646 C   0  0  0  0  0  0  0  0  0  0  0  0
  -28.3968  -19.7313   24.4134 C   0  0  0  0  0  0  0  0  0  0  0  0
  -26.1609  -19.7808   20.1657 C   0  0  0  0  0  0  0  0  0  0  0  0
  -26.8761  -19.0576   19.0299 C   0  0  0  0  0  0  0  0  0  0  0  0
  -25.2746  -20.9049   19.6459 C   0  0  0  0  0  0  0  0  0  1  0  0
  -27.7952  -17.9621   19.5515 C   0  0  0  0  0  0  0  0  0  0  0  0
  -23.1956  -27.6818   24.9150 C   0  0  1  0  0  0  0  0  0  0  0  0
  -19.6535  -26.8464   25.9756 C   0  0  2  0  0  0  0  0  0  0  0  0
  -24.1653  -28.4115   25.8869 C   0  0  0  0  0  0  0  0  0  0  0  0
  -25.9430  -11.5162   20.4415 N   0  0  0  0  0  0  0  0  0  0  0  0
  -31.5160  -13.7216   22.7967 N   0  0  0  0  0  0  0  0  0  0  0  0
  -26.4573  -12.7265   20.7184 N   0  0  0  0  0  0  0  0  0  0  0  0
  -30.1712  -13.2534   19.9754 N   0  0  0  0  0  0  0  0  0  0  0  0
  -23.6126  -27.3908   22.4931 N   0  0  0  0  0  0  0  0  0  0  0  0
  -26.1486  -14.6452   22.0726 N   0  0  0  0  0  0  0  0  0  0  0  0
  -22.7392  -11.9474   23.2951 N   0  0  0  0  0  0  0  0  0  0  0  0
  -25.6691  -29.2850   20.2766 N   0  0  0  0  0  0  0  0  0  0  0  0
  -21.7982  -27.7088   25.3330 N   0  0  0  0  0  0  0  0  0  0  0  0
  -18.7256  -25.8077   25.4455 N   0  3  0  0  0  0  0  0  0  0  0  0
  -23.7162  -13.9913   23.6514 O   0  0  0  0  0  0  0  0  0  0  0  0
  -32.2285  -14.3902   19.9257 O   0  0  0  0  0  0  0  0  0  0  0  0
  -26.1201  -27.4552   21.6445 O   0  0  0  0  0  0  0  0  0  0  0  0
  -22.9248  -29.4461   23.3528 O   0  0  0  0  0  0  0  0  0  0  0  0
  -21.5106  -25.4090   25.4078 O   0  0  0  0  0  0  0  0  0  0  0  0
  -21.6612   -6.8746   21.2606 O   0  0  0  0  0  0  0  0  0  0  0  0
  -28.4996  -19.3772   23.0357 O   0  0  0  0  0  0  0  0  0  0  0  0
  -24.6403  -21.5666   20.7396 O   0  0  0  0  0  0  0  0  0  1  0  0
  -28.7792  -18.5490   20.3918 O   0  0  0  0  0  0  0  0  0  0  0  0
  -20.1792   -4.7958   26.1480 F   0  0  0  0  0  0  0  0  0  0  0  0
  -22.3520   -4.2942   21.9727 F   0  0  0  0  0  0  0  0  0  0  0  0
  1  2  1  0  0  0  0
  1  6  2  0  0  0  0
  2  7  2  0  0  0  0
  3  9  2  0  0  0  0
  3 18  1  0  0  0  0
  4 10  1  0  0  0  0
  4 18  2  0  0  0  0
  5 11  2  0  0  0  0
  5 19  1  0  0  0  0
  6 21  1  0  0  0  0
  7 23  1  0  0  0  0
  8 12  2  0  0  0  0
  8 22  1  0  0  0  0
  9 25  1  0  0  0  0
 10 25  2  0  0  0  0
 11 27  1  0  0  0  0
 12 26  1  0  0  0  0
 13 14  2  0  0  0  0
 13 28  1  0  0  0  0
 14 30  1  0  0  0  0
 15 19  2  0  0  0  0
 15 29  1  0  0  0  0
 16 24  1  0  0  0  0
 16 26  2  0  0  0  0
 17 30  2  0  0  0  0
 17 31  1  0  0  0  0
 18 32  1  0  0  0  0
 19 34  1  0  0  0  0
 20 32  1  0  0  0  0
 20 33  2  0  0  0  0
 20 35  1  0  0  0  0
 21 23  2  0  0  0  0
 21 40  1  0  0  0  0
 22 24  2  0  0  0  0
 22 41  1  0  0  0  0
 23 49  1  0  0  0  0
 24 42  1  0  0  0  0
 25 80  1  0  0  0  0
 26 82  1  0  0  0  0
 27 29  2  0  0  0  0
 27 81  1  0  0  0  0
 28 31  2  0  0  0  0
 28 80  1  0  0  0  0
 29 83  1  0  0  0  0
 30 84  1  0  0  0  0
 31 85  1  0  0  0  0
 32 65  2  0  0  0  0
 33 67  1  0  0  0  0
 33 70  1  0  0  0  0
 34 36  1  0  0  0  0
 34 66  2  0  0  0  0
 35 71  1  0  0  0  0
 35 75  2  0  0  0  0
 36 68  1  0  0  0  0
 36 76  2  0  0  0  0
 37 50  1  0  0  0  0
 37 72  1  0  0  0  0
 37 77  2  0  0  0  0
 38 62  1  0  0  0  0
 38 69  1  0  0  0  0
 38 78  2  0  0  0  0
 39 63  1  0  0  0  0
 39 73  1  0  0  0  0
 39 79  2  0  0  0  0
 40 43  1  0  0  0  0
 41 50  1  0  0  0  0
 42 69  1  0  0  0  0
 43 45  1  0  0  0  0
 44 46  1  0  0  0  0
 44 47  1  0  0  0  0
 45 49  1  0  0  0  0
 46 51  1  0  0  0  0
 47 68  1  0  0  0  0
 48 51  1  0  0  0  0
 48 68  1  0  0  0  0
 49 72  1  0  0  0  0
 50 69  1  0  0  0  0
 51 67  1  0  0  0  0
 52 63  1  0  0  0  0
 53 64  1  0  0  0  0
 54 64  1  0  0  0  0
 55 64  1  0  0  0  0
 56 74  1  0  0  0  0
 57 81  1  0  0  0  0
 58 59  1  0  0  0  0
 58 60  1  0  0  0  0
 59 61  1  0  0  0  0
 60 82  1  0  0  0  0
 61 83  1  0  0  0  0
 62 64  1  0  0  0  0
 62 73  1  0  0  0  0
 63 74  1  0  0  0  0
 65 67  1  0  0  0  0
M  CHG  1  74   1
M  ISO  4  34 100  36 100  60 101  82 101
M  END
> <Batch ID>
0124

> <Smiles>
CNC(C)C(=O)NC(C(=O)N1Cc2cc([101O:1][101CH2:1]CCCOc3cc([100C:0](=N)[100C:0](=O)N4CCCC(n5nc(-c6ccc(Oc7ccc(F)cc7F)cc6)c(C(N)=O)c5N)C4)ccc3OC)ccc2CC1C(=O)NC1CCCc2ccccc21)C(C)(C)C

> <Shape>
0.243

> <Color>
0.122

> <Negative vol penalty>
0.000

$$$$

  -OEChem-04052302063D

 85 93  0     1  0  0  0  0  0999 V2000
  -22.8242  -29.7576   13.4212 C   0  0  0  0  0  0  0  0  0  0  0  0
  -23.8063  -29.2938   14.2905 C   0  0  0  0  0  0  0  0  0  0  0  0
  -24.3237   -8.8619   21.3824 C   0  0  0  0  0  0  0  0  0  0  0  0
  -24.7986  -10.1122   23.3944 C   0  0  0  0  0  0  0  0  0  0  0  0
  -22.4616  -31.1038   13.4354 C   0  0  0  0  0  0  0  0  0  0  0  0
  -24.4273  -30.1763   15.1737 C   0  0  0  0  0  0  0  0  0  0  0  0
  -24.8445  -28.2738   19.8483 C   0  0  0  0  0  0  0  0  0  0  0  0
  -24.0479   -7.7307   22.1504 C   0  0  0  0  0  0  0  0  0  0  0  0
  -24.5227   -8.9811   24.1624 C   0  0  0  0  0  0  0  0  0  0  0  0
  -25.8622  -27.3470   20.0701 C   0  0  0  0  0  0  0  0  0  0  0  0
  -22.8686   -4.6135   23.6020 C   0  0  0  0  0  0  0  0  0  0  0  0
  -21.7310   -3.8731   23.2808 C   0  0  0  0  0  0  0  0  0  0  0  0
  -27.2192  -29.0818   21.0541 C   0  0  0  0  0  0  0  0  0  0  0  0
  -27.5789  -20.3961   20.9601 C   0  0  0  0  0  0  0  0  0  0  0  0
  -29.8237  -18.9195   20.2096 C   0  0  0  0  0  0  0  0  0  0  0  0
  -20.3511   -5.8115   23.6999 C   0  0  0  0  0  0  0  0  0  0  0  0
  -24.6992  -10.0527   22.0043 C   0  0  0  0  0  0  0  0  0  0  0  0
  -24.0758  -12.2174   20.8072 C   0  0  0  0  0  0  0  0  0  0  0  0
  -23.0716  -32.0013   14.3259 C   0  0  0  0  0  0  0  0  0  0  0  0
  -25.0110  -29.6160   20.2185 C   0  0  0  0  0  0  0  0  0  0  0  0
  -24.0735  -31.5360   15.1989 C   0  0  0  0  0  0  0  0  0  0  0  0
  -26.2011  -30.0231   20.8383 C   0  0  0  0  0  0  0  0  0  0  0  0
  -27.4380  -19.0667   20.5622 C   0  0  0  0  0  0  0  0  0  0  0  0
  -29.9645  -20.2490   20.6075 C   0  0  0  0  0  0  0  0  0  0  0  0
  -28.8421  -20.9873   20.9827 C   0  0  0  0  0  0  0  0  0  0  0  0
  -28.5604  -18.3284   20.1870 C   0  0  0  0  0  0  0  0  0  0  0  0
  -24.1473   -7.7903   23.5405 C   0  0  0  0  0  0  0  0  0  0  0  0
  -27.0509  -27.7516   20.6704 C   0  0  0  0  0  0  0  0  0  0  0  0
  -22.7475   -5.9528   23.9723 C   0  0  0  0  0  0  0  0  0  0  0  0
  -20.4722   -4.4721   23.3297 C   0  0  0  0  0  0  0  0  0  0  0  0
  -21.4888   -6.5518   24.0213 C   0  0  0  0  0  0  0  0  0  0  0  0
  -24.9848  -11.2213   21.2114 C   0  0  0  0  0  0  0  0  0  0  0  0
  -24.8355  -13.1008   20.0799 C   0  0  0  0  0  0  0  0  0  0  0  0
  -28.8723  -23.2014   20.4450 C   0  0  0  0  0  0  0  0  0  0  0  0
  -22.6704  -12.3337   21.0661 C   0  0  0  0  0  0  0  0  0  0  0  0
  -28.9969  -24.6472   20.8012 C   0  0  0  0  0  0  0  0  0  0  0  0
  -25.0635  -32.3838   18.6563 C   0  0  0  0  0  0  0  0  0  0  0  0
  -25.2032  -33.6250   21.6500 C   0  0  0  0  0  0  0  0  0  0  0  0
  -26.0190  -33.1833   24.9343 C   0  0  0  0  0  0  0  0  0  0  0  0
  -29.4619  -16.1189   19.3796 C   0  0  0  0  0  0  0  0  0  0  0  0
  -22.6799  -33.4567   14.2717 C   0  0  0  0  0  0  0  0  0  0  0  0
  -23.8933  -30.5978   19.9967 C   0  0  0  0  0  0  0  0  0  0  0  0
  -26.4217  -31.4482   21.2729 C   0  0  0  0  0  0  0  0  0  0  0  0
  -23.1207  -34.2522   15.4978 C   0  0  0  0  0  0  0  0  0  0  0  0
  -29.5731  -12.7155   18.3397 C   0  0  0  0  0  0  0  0  0  0  0  0
  -24.5736  -33.9405   15.8423 C   0  0  0  0  0  0  0  0  0  0  0  0
  -28.3145  -12.1053   18.9608 C   0  0  0  0  0  0  0  0  0  0  0  0
  -30.2135  -13.7534   19.2596 C   0  0  0  0  0  0  0  0  0  0  0  0
  -28.0497  -14.2003   20.3493 C   0  0  0  0  0  0  0  0  0  0  0  0
  -24.7525  -32.4574   16.1888 C   0  0  1  0  0  0  0  0  0  0  0  0
  -24.3710  -32.0458   19.9462 C   0  0  1  0  0  0  0  0  0  0  0  0
  -27.3329  -13.1962   19.4320 C   0  0  2  0  0  0  0  0  0  0  0  0
  -31.3273  -20.8604   20.6237 C   0  0  0  0  0  0  0  0  0  0  0  0
  -25.5011  -18.3572   19.1370 C   0  0  0  0  0  0  0  0  0  0  0  0
  -26.0560  -34.3900   27.1343 C   0  0  0  0  0  0  0  0  0  0  0  0
  -27.6822  -35.1656   20.7606 C   0  0  0  0  0  0  0  0  0  0  0  0
  -28.2078  -35.5757   23.1738 C   0  0  0  0  0  0  0  0  0  0  0  0
  -26.0986  -36.4721   22.1887 C   0  0  0  0  0  0  0  0  0  0  0  0
  -24.1443  -31.2483   26.1590 C   0  0  0  0  0  0  0  0  0  0  0  0
  -26.0729  -18.4591   20.5475 C   0  0  0  0  0  0  0  0  0  0  0  0
  -27.8049  -25.5045   20.4751 C   0  0  0  0  0  0  0  0  0  1  0  0
  -26.3137  -33.9879   22.6062 C   0  0  1  0  0  0  0  0  0  0  0  0
  -25.2553  -33.4847   26.2112 C   0  0  2  0  0  0  0  0  0  0  0  0
  -27.0725  -35.2738   22.1725 C   0  0  0  0  0  0  0  0  0  0  0  0
  -26.2270  -11.4498   20.7768 N   0  0  0  0  0  0  0  0  0  0  0  0
  -28.9652  -22.3275   21.3863 N   0  0  0  0  0  0  0  0  0  0  0  0
  -26.1038  -12.5995   20.0919 N   0  0  0  0  0  0  0  0  0  0  0  0
  -25.3017  -32.3719   21.0287 N   0  0  0  0  0  0  0  0  0  0  0  0
  -29.2255  -14.7568   19.6618 N   0  0  0  0  0  0  0  0  0  0  0  0
  -24.5355  -14.2497   19.4376 N   0  0  0  0  0  0  0  0  0  0  0  0
  -22.0473  -11.3382   21.8309 N   0  0  0  0  0  0  0  0  0  0  0  0
  -28.4379  -16.9768   19.7797 N   0  0  0  0  0  0  0  0  0  0  0  0
  -24.2835  -32.1921   17.5319 N   0  0  0  0  0  0  0  0  0  0  0  0
  -25.7028  -34.0718   23.9283 N   0  0  0  0  0  0  0  0  0  0  0  0
  -24.9482  -32.2223   26.9413 N   0  3  0  0  0  0  0  0  0  0  0  0
  -21.9842  -13.2834   20.6182 O   0  0  0  0  0  0  0  0  0  0  0  0
  -30.0289  -25.0242   21.3334 O   0  0  0  0  0  0  0  0  0  0  0  0
  -26.2194  -32.7900   18.6795 O   0  0  0  0  0  0  0  0  0  0  0  0
  -24.2788  -34.4208   21.4668 O   0  0  0  0  0  0  0  0  0  0  0  0
  -26.8189  -32.2551   24.8399 O   0  0  0  0  0  0  0  0  0  0  0  0
  -30.4842  -16.4935   18.7995 O   0  0  0  0  0  0  0  0  0  0  0  0
  -23.8780   -6.6868   24.2903 O   0  0  0  0  0  0  0  0  0  0  0  0
  -28.0461  -26.8492   20.8875 O   0  0  0  0  0  0  0  0  0  1  0  0
  -19.3800   -3.7614   23.0196 F   0  0  0  0  0  0  0  0  0  0  0  0
  -21.3662   -7.8385   24.3751 F   0  0  0  0  0  0  0  0  0  0  0  0
  1  2  1  0  0  0  0
  1  5  2  0  0  0  0
  2  6  2  0  0  0  0
  3  8  2  0  0  0  0
  3 17  1  0  0  0  0
  4  9  1  0  0  0  0
  4 17  2  0  0  0  0
  5 19  1  0  0  0  0
  6 21  1  0  0  0  0
  7 10  2  0  0  0  0
  7 20  1  0  0  0  0
  8 27  1  0  0  0  0
  9 27  2  0  0  0  0
 10 28  1  0  0  0  0
 11 12  2  0  0  0  0
 11 29  1  0  0  0  0
 12 30  1  0  0  0  0
 13 22  1  0  0  0  0
 13 28  2  0  0  0  0
 14 23  1  0  0  0  0
 14 25  2  0  0  0  0
 15 24  2  0  0  0  0
 15 26  1  0  0  0  0
 16 30  2  0  0  0  0
 16 31  1  0  0  0  0
 17 32  1  0  0  0  0
 18 32  1  0  0  0  0
 18 33  2  0  0  0  0
 18 35  1  0  0  0  0
 19 21  2  0  0  0  0
 19 41  1  0  0  0  0
 20 22  2  0  0  0  0
 20 42  1  0  0  0  0
 21 50  1  0  0  0  0
 22 43  1  0  0  0  0
 23 26  2  0  0  0  0
 23 60  1  0  0  0  0
 24 25  1  0  0  0  0
 24 53  1  0  0  0  0
 25 66  1  0  0  0  0
 26 72  1  0  0  0  0
 27 82  1  0  0  0  0
 28 83  1  0  0  0  0
 29 31  2  0  0  0  0
 29 82  1  0  0  0  0
 30 84  1  0  0  0  0
 31 85  1  0  0  0  0
 32 65  2  0  0  0  0
 33 67  1  0  0  0  0
 33 70  1  0  0  0  0
 34 36  1  0  0  0  0
 34 66  2  0  0  0  0
 35 71  1  0  0  0  0
 35 76  2  0  0  0  0
 36 61  1  0  0  0  0
 36 77  2  0  0  0  0
 37 51  1  0  0  0  0
 37 73  1  0  0  0  0
 37 78  2  0  0  0  0
 38 62  1  0  0  0  0
 38 68  1  0  0  0  0
 38 79  2  0  0  0  0
 39 63  1  0  0  0  0
 39 74  1  0  0  0  0
 39 80  2  0  0  0  0
 40 69  1  0  0  0  0
 40 72  1  0  0  0  0
 40 81  2  0  0  0  0
 41 44  1  0  0  0  0
 42 51  1  0  0  0  0
 43 68  1  0  0  0  0
 44 46  1  0  0  0  0
 45 47  1  0  0  0  0
 45 48  1  0  0  0  0
 46 50  1  0  0  0  0
 47 52  1  0  0  0  0
 48 69  1  0  0  0  0
 49 52  1  0  0  0  0
 49 69  1  0  0  0  0
 50 73  1  0  0  0  0
 51 68  1  0  0  0  0
 52 67  1  0  0  0  0
 54 60  1  0  0  0  0
 55 63  1  0  0  0  0
 56 64  1  0  0  0  0
 57 64  1  0  0  0  0
 58 64  1  0  0  0  0
 59 75  1  0  0  0  0
 61 83  1  0  0  0  0
 62 64  1  0  0  0  0
 62 74  1  0  0  0  0
 63 75  1  0  0  0  0
 65 67  1  0  0  0  0
M  CHG  1  75   1
M  ISO  4  40 100  61 101  72 100  83 101
M  END
> <Batch ID>
0124

> <Smiles>
C=Cc1cc(NCC(=O)[101CH2:1][101O:1]c2ccc3c(c2)CN(C(=O)C(NC(=O)C(C)NC)C(C)(C)C)C(C(=O)NC2CCCc4ccccc42)C3)c(C)cc1[100NH:0][100C:0](=O)N1CCCC(n2nc(-c3ccc(Oc4ccc(F)cc4F)cc3)c(C(N)=O)c2N)C1

> <Shape>
0.305

> <Color>
0.117

> <Negative vol penalty>
0.000

$$$$

  -OEChem-04052302063D

 82 90  0     1  0  0  0  0  0999 V2000
  -28.4400  -24.2204   16.9149 C   0  0  0  0  0  0  0  0  0  0  0  0
  -27.2730  -24.3525   17.6606 C   0  0  0  0  0  0  0  0  0  0  0  0
  -26.9654  -13.3066   20.1844 C   0  0  0  0  0  0  0  0  0  0  0  0
  -24.6311  -13.9169   20.3096 C   0  0  0  0  0  0  0  0  0  0  0  0
  -18.6476  -21.8514   19.4170 C   0  0  0  0  0  0  0  0  0  0  0  0
  -29.6088  -24.8552   17.3332 C   0  0  0  0  0  0  0  0  0  0  0  0
  -27.2743  -25.1186   18.8257 C   0  0  0  0  0  0  0  0  0  0  0  0
  -23.2399  -28.1617   19.1547 C   0  0  0  0  0  0  0  0  0  0  0  0
  -19.0596  -20.7573   18.6563 C   0  0  0  0  0  0  0  0  0  0  0  0
  -26.6956  -12.1308   20.8844 C   0  0  0  0  0  0  0  0  0  0  0  0
  -24.3612  -12.7410   21.0095 C   0  0  0  0  0  0  0  0  0  0  0  0
  -22.0346  -27.5809   19.5466 C   0  0  0  0  0  0  0  0  0  0  0  0
  -22.9951   -9.7268   22.5150 C   0  0  0  0  0  0  0  0  0  0  0  0
  -21.8766   -8.9860   22.1331 C   0  0  0  0  0  0  0  0  0  0  0  0
  -20.9425  -22.2868   20.0341 C   0  0  0  0  0  0  0  0  0  0  0  0
  -22.3747  -28.4025   21.7890 C   0  0  0  0  0  0  0  0  0  0  0  0
  -22.8071   -8.7225   19.9191 C   0  0  0  0  0  0  0  0  0  0  0  0
  -25.9332  -14.1998   19.8970 C   0  0  0  0  0  0  0  0  0  0  0  0
  -19.5890  -22.6162   20.1059 C   0  0  0  0  0  0  0  0  0  0  0  0
  -26.7524  -15.5293   17.8798 C   0  0  0  0  0  0  0  0  0  0  0  0
  -29.6220  -25.6373   18.4989 C   0  0  0  0  0  0  0  0  0  0  0  0
  -24.0283  -28.8591   20.0811 C   0  0  0  0  0  0  0  0  0  0  0  0
  -28.4447  -25.7633   19.2607 C   0  0  0  0  0  0  0  0  0  0  0  0
  -23.5884  -28.9935   21.4057 C   0  0  0  0  0  0  0  0  0  0  0  0
  -20.4131  -20.4278   18.5846 C   0  0  0  0  0  0  0  0  0  0  0  0
  -21.3546  -21.1926   19.2735 C   0  0  0  0  0  0  0  0  0  0  0  0
  -25.3935  -11.8479   21.2970 C   0  0  0  0  0  0  0  0  0  0  0  0
  -21.6032  -27.6988   20.8646 C   0  0  0  0  0  0  0  0  0  0  0  0
  -24.0196   -9.9655   21.5989 C   0  0  0  0  0  0  0  0  0  0  0  0
  -21.7826   -8.4839   20.8352 C   0  0  0  0  0  0  0  0  0  0  0  0
  -23.9256   -9.4633   20.3010 C   0  0  0  0  0  0  0  0  0  0  0  0
  -26.2115  -15.4149   19.1745 C   0  0  0  0  0  0  0  0  0  0  0  0
  -26.8192  -16.8824   17.6539 C   0  0  0  0  0  0  0  0  0  0  0  0
  -19.1525  -23.7712   20.9079 C   0  0  0  0  0  0  0  0  0  0  0  0
  -19.8639  -24.3416   21.8929 C   0  0  0  0  0  0  0  0  0  0  0  0
  -27.1581  -14.5040   16.9634 C   0  0  0  0  0  0  0  0  0  0  0  0
  -26.9583  -28.4936   21.2581 C   0  0  0  0  0  0  0  0  0  0  0  0
  -26.3272  -31.3465   22.6669 C   0  0  0  0  0  0  0  0  0  0  0  0
  -23.9947  -33.5645   23.8013 C   0  0  0  0  0  0  0  0  0  0  0  0
  -23.7840  -21.5413   19.8417 C   0  0  0  0  0  0  0  0  0  0  0  0
  -30.9213  -26.2657   18.9367 C   0  0  0  0  0  0  0  0  0  0  0  0
  -25.3130  -29.5027   19.6362 C   0  0  0  0  0  0  0  0  0  0  0  0
  -24.3881  -29.7493   22.4341 C   0  0  0  0  0  0  0  0  0  0  0  0
  -30.7448  -27.3653   19.9807 C   0  0  0  0  0  0  0  0  0  0  0  0
  -27.3075  -21.0460   19.9691 C   0  0  0  0  0  0  0  0  0  0  0  0
  -29.7933  -26.9081   21.0819 C   0  0  0  0  0  0  0  0  0  0  0  0
  -27.4760  -19.5574   19.6560 C   0  0  0  0  0  0  0  0  0  0  0  0
  -26.0605  -21.3109   20.8109 C   0  0  0  0  0  0  0  0  0  0  0  0
  -24.9829  -19.2684   19.9528 C   0  0  0  0  0  0  0  0  0  0  0  0
  -28.4001  -26.6060   20.5169 C   0  0  1  0  0  0  0  0  0  0  0  0
  -26.2859  -29.7511   20.7847 C   0  0  1  0  0  0  0  0  0  0  0  0
  -26.1900  -18.9596   19.0522 C   0  0  2  0  0  0  0  0  0  0  0  0
  -20.8257  -19.2496   17.7631 C   0  0  0  0  0  0  0  0  0  0  0  0
  -23.7832  -35.7913   24.9387 C   0  0  0  0  0  0  0  0  0  0  0  0
  -27.0705  -30.0545   25.3293 C   0  0  0  0  0  0  0  0  0  0  0  0
  -25.9529  -31.9699   26.4913 C   0  0  0  0  0  0  0  0  0  0  0  0
  -27.9279  -32.3840   25.0248 C   0  0  0  0  0  0  0  0  0  0  0  0
  -22.5516  -34.7344   21.4974 C   0  0  0  0  0  0  0  0  0  0  0  0
  -19.3735  -25.5146   22.6969 C   0  0  0  0  0  0  0  0  0  0  0  0
  -20.3291  -26.6985   22.6058 C   0  0  0  0  0  0  0  0  0  1  0  0
  -25.7090  -31.7797   23.9743 C   0  0  1  0  0  0  0  0  0  0  0  0
  -23.8505  -35.0629   23.6054 C   0  0  2  0  0  0  0  0  0  0  0  0
  -26.6507  -31.5311   25.1862 C   0  0  0  0  0  0  0  0  0  0  0  0
  -25.9532  -16.6009   19.7320 N   0  0  0  0  0  0  0  0  0  0  0  0
  -26.3336  -17.4733   18.7831 N   0  0  0  0  0  0  0  0  0  0  0  0
  -25.6401  -30.3553   21.9518 N   0  0  0  0  0  0  0  0  0  0  0  0
  -24.8813  -20.7193   20.1751 N   0  0  0  0  0  0  0  0  0  0  0  0
  -27.2456  -17.6125   16.6015 N   0  0  0  0  0  0  0  0  0  0  0  0
  -26.2113  -14.0028   16.0596 N   0  0  0  0  0  0  0  0  0  0  0  0
  -22.7339  -20.8738   19.2121 N   0  0  0  0  0  0  0  0  0  0  0  0
  -27.6747  -27.8351   20.2769 N   0  0  0  0  0  0  0  0  0  0  0  0
  -25.3171  -33.1739   23.7983 N   0  0  0  0  0  0  0  0  0  0  0  0
  -22.6089  -35.3682   22.8398 N   0  3  0  0  0  0  0  0  0  0  0  0
  -28.3212  -14.0342   16.9574 O   0  0  0  0  0  0  0  0  0  0  0  0
  -26.8375  -28.1471   22.4273 O   0  0  0  0  0  0  0  0  0  0  0  0
  -27.3771  -31.8734   22.2904 O   0  0  0  0  0  0  0  0  0  0  0  0
  -23.0308  -32.8159   23.9463 O   0  0  0  0  0  0  0  0  0  0  0  0
  -23.7876  -22.7534   20.0715 O   0  0  0  0  0  0  0  0  0  0  0  0
  -25.1297  -10.7004   21.9798 O   0  0  0  0  0  0  0  0  0  0  0  0
  -20.4274  -27.1323   21.2499 O   0  0  0  0  0  0  0  0  0  1  0  0
  -20.7092   -7.7712   20.4690 F   0  0  0  0  0  0  0  0  0  0  0  0
  -24.9071   -9.6883   19.4169 F   0  0  0  0  0  0  0  0  0  0  0  0
  1  2  1  0  0  0  0
  1  6  2  0  0  0  0
  2  7  2  0  0  0  0
  3 10  2  0  0  0  0
  3 18  1  0  0  0  0
  4 11  1  0  0  0  0
  4 18  2  0  0  0  0
  5  9  2  0  0  0  0
  5 19  1  0  0  0  0
  6 21  1  0  0  0  0
  7 23  1  0  0  0  0
  8 12  2  0  0  0  0
  8 22  1  0  0  0  0
  9 25  1  0  0  0  0
 10 27  1  0  0  0  0
 11 27  2  0  0  0  0
 12 28  1  0  0  0  0
 13 14  2  0  0  0  0
 13 29  1  0  0  0  0
 14 30  1  0  0  0  0
 15 19  2  0  0  0  0
 15 26  1  0  0  0  0
 16 24  1  0  0  0  0
 16 28  2  0  0  0  0
 17 30  2  0  0  0  0
 17 31  1  0  0  0  0
 18 32  1  0  0  0  0
 19 34  1  0  0  0  0
 20 32  1  0  0  0  0
 20 33  2  0  0  0  0
 20 36  1  0  0  0  0
 21 23  2  0  0  0  0
 21 41  1  0  0  0  0
 22 24  2  0  0  0  0
 22 42  1  0  0  0  0
 23 50  1  0  0  0  0
 24 43  1  0  0  0  0
 25 26  2  0  0  0  0
 25 53  1  0  0  0  0
 26 70  1  0  0  0  0
 27 79  1  0  0  0  0
 28 80  1  0  0  0  0
 29 31  2  0  0  0  0
 29 79  1  0  0  0  0
 30 81  1  0  0  0  0
 31 82  1  0  0  0  0
 32 64  2  0  0  0  0
 33 65  1  0  0  0  0
 33 68  1  0  0  0  0
 34 35  2  0  0  0  0
 35 59  1  0  0  0  0
 36 69  1  0  0  0  0
 36 74  2  0  0  0  0
 37 51  1  0  0  0  0
 37 71  1  0  0  0  0
 37 75  2  0  0  0  0
 38 61  1  0  0  0  0
 38 66  1  0  0  0  0
 38 76  2  0  0  0  0
 39 62  1  0  0  0  0
 39 72  1  0  0  0  0
 39 77  2  0  0  0  0
 40 67  1  0  0  0  0
 40 70  1  0  0  0  0
 40 78  2  0  0  0  0
 41 44  1  0  0  0  0
 42 51  1  0  0  0  0
 43 66  1  0  0  0  0
 44 46  1  0  0  0  0
 45 47  1  0  0  0  0
 45 48  1  0  0  0  0
 46 50  1  0  0  0  0
 47 52  1  0  0  0  0
 48 67  1  0  0  0  0
 49 52  1  0  0  0  0
 49 67  1  0  0  0  0
 50 71  1  0  0  0  0
 51 66  1  0  0  0  0
 52 65  1  0  0  0  0
 54 62  1  0  0  0  0
 55 63  1  0  0  0  0
 56 63  1  0  0  0  0
 57 63  1  0  0  0  0
 58 73  1  0  0  0  0
 59 60  1  0  0  0  0
 60 80  1  0  0  0  0
 61 63  1  0  0  0  0
 61 72  1  0  0  0  0
 62 73  1  0  0  0  0
 64 65  1  0  0  0  0
M  CHG  1  73   1
M  ISO  4  40 100  60 101  70 100  80 101
M  END
> <Batch ID>
0124

> <Smiles>
CNC(C)C(=O)NC(C(=O)N1Cc2cc([101O:1][101CH2:1]CC=Cc3ccc(C)c([100NH:0][100C:0](=O)N4CCCC(n5nc(-c6ccc(Oc7ccc(F)cc7F)cc6)c(C(N)=O)c5N)C4)c3)ccc2CC1C(=O)NC1CCCc2ccccc21)C(C)(C)C

> <Shape>
0.278

> <Color>
0.087

> <Negative vol penalty>
0.000

$$$$

  -OEChem-04052302063D

 86 94  0     1  0  0  0  0  0999 V2000
  -17.4005  -12.3544   22.3139 C   0  0  0  0  0  0  0  0  0  0  0  0
  -18.0508  -13.5736   22.1523 C   0  0  0  0  0  0  0  0  0  0  0  0
  -23.7923  -28.9507   23.2146 C   0  0  0  0  0  0  0  0  0  0  0  0
  -22.6211  -29.5901   21.2006 C   0  0  0  0  0  0  0  0  0  0  0  0
  -18.1038  -11.2480   22.7883 C   0  0  0  0  0  0  0  0  0  0  0  0
  -19.4047  -13.6873   22.4660 C   0  0  0  0  0  0  0  0  0  0  0  0
  -23.5601  -17.1797   19.6302 C   0  0  0  0  0  0  0  0  0  0  0  0
  -22.7252  -29.4160   23.9829 C   0  0  0  0  0  0  0  0  0  0  0  0
  -21.5539  -30.0554   21.9689 C   0  0  0  0  0  0  0  0  0  0  0  0
  -24.0933  -18.4328   19.9290 C   0  0  0  0  0  0  0  0  0  0  0  0
  -18.9154  -28.7392   23.6201 C   0  0  0  0  0  0  0  0  0  0  0  0
  -17.6267  -28.3947   23.2126 C   0  0  0  0  0  0  0  0  0  0  0  0
  -33.3841  -24.3817   20.1395 C   0  0  0  0  0  0  0  0  0  0  0  0
  -25.9795  -17.3700   20.9929 C   0  0  0  0  0  0  0  0  0  0  0  0
  -31.8838  -22.5375   20.5698 C   0  0  0  0  0  0  0  0  0  0  0  0
  -17.0758  -30.7351   22.9757 C   0  0  0  0  0  0  0  0  0  0  0  0
  -23.7403  -29.0378   21.8234 C   0  0  0  0  0  0  0  0  0  0  0  0
  -32.2969  -25.1871   19.8006 C   0  0  0  0  0  0  0  0  0  0  0  0
  -25.0177  -27.2592   20.5148 C   0  0  0  0  0  0  0  0  0  0  0  0
  -19.4694  -11.3457   23.0988 C   0  0  0  0  0  0  0  0  0  0  0  0
  -24.2284  -16.0103   20.0208 C   0  0  0  0  0  0  0  0  0  0  0  0
  -20.1267  -12.5814   22.9462 C   0  0  0  0  0  0  0  0  0  0  0  0
  -25.4540  -16.1032   20.6956 C   0  0  0  0  0  0  0  0  0  0  0  0
  -33.1776  -23.0568   20.5240 C   0  0  0  0  0  0  0  0  0  0  0  0
  -30.7965  -23.3429   20.2311 C   0  0  0  0  0  0  0  0  0  0  0  0
  -21.6060  -29.9683   23.3601 C   0  0  0  0  0  0  0  0  0  0  0  0
  -25.3016  -18.5281   20.6130 C   0  0  0  0  0  0  0  0  0  0  0  0
  -19.2843  -30.0817   23.7055 C   0  0  0  0  0  0  0  0  0  0  0  0
  -16.7069  -29.3926   22.8904 C   0  0  0  0  0  0  0  0  0  0  0  0
  -18.3646  -31.0797   23.3833 C   0  0  0  0  0  0  0  0  0  0  0  0
  -31.0031  -24.6678   19.8465 C   0  0  0  0  0  0  0  0  0  0  0  0
  -24.8426  -28.5578   21.0292 C   0  0  0  0  0  0  0  0  0  0  0  0
  -26.2114  -27.3161   19.8378 C   0  0  0  0  0  0  0  0  0  0  0  0
  -32.5215  -26.5974   19.3915 C   0  0  0  0  0  0  0  0  0  0  0  0
  -24.1766  -26.1046   20.6380 C   0  0  0  0  0  0  0  0  0  0  0  0
  -23.5409  -13.5661   21.9331 C   0  0  0  0  0  0  0  0  0  0  0  0
  -27.7102  -21.2413   20.6051 C   0  0  0  0  0  0  0  0  0  0  0  0
  -26.3298  -12.3810   20.7756 C   0  0  0  0  0  0  0  0  0  0  0  0
  -29.3715  -12.9960   19.3554 C   0  0  0  0  0  0  0  0  0  0  0  0
  -31.5175  -28.8588   19.4339 C   0  0  0  0  0  0  0  0  0  0  0  0
  -20.1762  -10.1343   23.6532 C   0  0  0  0  0  0  0  0  0  0  0  0
  -23.6534  -14.6661   19.6674 C   0  0  0  0  0  0  0  0  0  0  0  0
  -26.2209  -14.8781   21.1191 C   0  0  0  0  0  0  0  0  0  0  0  0
  -21.6982  -10.2430   23.6073 C   0  0  0  0  0  0  0  0  0  0  0  0
  -29.0942  -31.2815   18.5652 C   0  0  0  0  0  0  0  0  0  0  0  0
  -22.1520  -11.6043   24.1249 C   0  0  0  0  0  0  0  0  0  0  0  0
  -27.7827  -30.6808   19.0786 C   0  0  0  0  0  0  0  0  0  0  0  0
  -30.2590  -30.9933   19.5112 C   0  0  0  0  0  0  0  0  0  0  0  0
  -29.1316  -28.9839   20.3769 C   0  0  0  0  0  0  0  0  0  0  0  0
  -21.6005  -12.7381   23.2521 C   0  0  1  0  0  0  0  0  0  0  0  0
  -24.1632  -13.5433   20.5656 C   0  0  1  0  0  0  0  0  0  0  0  0
  -27.9421  -29.1866   19.4243 C   0  0  1  0  0  0  0  0  0  0  0  0
  -34.3400  -22.1957   20.8863 C   0  0  0  0  0  0  0  0  0  0  0  0
  -31.4466  -11.8297   18.5609 C   0  0  0  0  0  0  0  0  0  0  0  0
  -27.2333  -12.0235   23.6680 C   0  0  0  0  0  0  0  0  0  0  0  0
  -29.5799  -11.7754   22.8311 C   0  0  0  0  0  0  0  0  0  0  0  0
  -27.8330  -10.1316   22.1463 C   0  0  0  0  0  0  0  0  0  0  0  0
  -28.9838  -13.9479   16.5801 C   0  0  0  0  0  0  0  0  0  0  0  0
  -29.2058  -21.4694   20.6614 C   0  0  0  0  0  0  0  0  0  0  0  0
  -27.2456  -19.8477   20.9811 C   0  0  0  0  0  0  0  0  0  1  0  0
  -27.7804  -12.4691   21.1844 C   0  0  1  0  0  0  0  0  0  0  0  0
  -30.0765  -12.3616   18.1701 C   0  0  2  0  0  0  0  0  0  0  0  0
  -28.0915  -11.6232   22.4513 C   0  0  0  0  0  0  0  0  0  0  0  0
  -25.8448  -29.3797   20.7067 N   0  0  0  0  0  0  0  0  0  0  0  0
  -26.6613  -28.5955   19.9824 N   0  0  0  0  0  0  0  0  0  0  0  0
  -25.6144  -13.5867   20.7561 N   0  0  0  0  0  0  0  0  0  0  0  0
  -30.3476  -29.5570   19.7806 N   0  0  0  0  0  0  0  0  0  0  0  0
  -26.9096  -26.3961   19.1388 N   0  0  0  0  0  0  0  0  0  0  0  0
  -22.9858  -26.2203   21.3681 N   0  0  0  0  0  0  0  0  0  0  0  0
  -29.5106  -22.8238   20.2770 N   0  0  0  0  0  0  0  0  0  0  0  0
  -31.4872  -27.4839   19.6925 N   0  0  0  0  0  0  0  0  0  0  0  0
  -22.3630  -12.8497   22.0272 N   0  0  0  0  0  0  0  0  0  0  0  0
  -28.5592  -12.0938   20.0092 N   0  0  0  0  0  0  0  0  0  0  0  0
  -30.2540  -13.3599   17.0779 N   0  3  0  0  0  0  0  0  0  0  0  0
  -33.5870  -26.9045   18.8638 O   0  0  0  0  0  0  0  0  0  0  0  0
  -24.4802  -24.9986   20.1299 O   0  0  0  0  0  0  0  0  0  0  0  0
  -24.0896  -14.1864   22.8363 O   0  0  0  0  0  0  0  0  0  0  0  0
  -26.9150  -22.1209   20.2771 O   0  0  0  0  0  0  0  0  0  0  0  0
  -25.8511  -11.2839   20.4774 O   0  0  0  0  0  0  0  0  0  0  0  0
  -29.5287  -14.1731   19.6720 O   0  0  0  0  0  0  0  0  0  0  0  0
  -32.4906  -29.4049   18.9047 O   0  0  0  0  0  0  0  0  0  0  0  0
  -20.5644  -30.4222   24.1095 O   0  0  0  0  0  0  0  0  0  0  0  0
  -25.8239  -19.7500   20.9064 O   0  0  0  0  0  0  0  0  0  1  0  0
  -15.4699  -29.0615   22.4976 F   0  0  0  0  0  0  0  0  0  0  0  0
  -18.7136  -32.3711   23.4623 F   0  0  0  0  0  0  0  0  0  0  0  0
  -29.9571  -25.4424   19.5204 F   0  0  0  0  0  0  0  0  0  0  0  0
  1  2  1  0  0  0  0
  1  5  2  0  0  0  0
  2  6  2  0  0  0  0
  3  8  2  0  0  0  0
  3 17  1  0  0  0  0
  4  9  1  0  0  0  0
  4 17  2  0  0  0  0
  5 20  1  0  0  0  0
  6 22  1  0  0  0  0
  7 10  2  0  0  0  0
  7 21  1  0  0  0  0
  8 26  1  0  0  0  0
  9 26  2  0  0  0  0
 10 27  1  0  0  0  0
 11 12  2  0  0  0  0
 11 28  1  0  0  0  0
 12 29  1  0  0  0  0
 13 18  2  0  0  0  0
 13 24  1  0  0  0  0
 14 23  1  0  0  0  0
 14 27  2  0  0  0  0
 15 24  2  0  0  0  0
 15 25  1  0  0  0  0
 16 29  2  0  0  0  0
 16 30  1  0  0  0  0
 17 32  1  0  0  0  0
 18 31  1  0  0  0  0
 18 34  1  0  0  0  0
 19 32  1  0  0  0  0
 19 33  2  0  0  0  0
 19 35  1  0  0  0  0
 20 22  2  0  0  0  0
 20 41  1  0  0  0  0
 21 23  2  0  0  0  0
 21 42  1  0  0  0  0
 22 50  1  0  0  0  0
 23 43  1  0  0  0  0
 24 53  1  0  0  0  0
 25 31  2  0  0  0  0
 25 70  1  0  0  0  0
 26 82  1  0  0  0  0
 27 83  1  0  0  0  0
 28 30  2  0  0  0  0
 28 82  1  0  0  0  0
 29 84  1  0  0  0  0
 30 85  1  0  0  0  0
 31 86  1  0  0  0  0
 32 64  2  0  0  0  0
 33 65  1  0  0  0  0
 33 68  1  0  0  0  0
 34 71  1  0  0  0  0
 34 75  2  0  0  0  0
 35 69  1  0  0  0  0
 35 76  2  0  0  0  0
 36 51  1  0  0  0  0
 36 72  1  0  0  0  0
 36 77  2  0  0  0  0
 37 59  1  0  0  0  0
 37 60  1  0  0  0  0
 37 78  2  0  0  0  0
 38 61  1  0  0  0  0
 38 66  1  0  0  0  0
 38 79  2  0  0  0  0
 39 62  1  0  0  0  0
 39 73  1  0  0  0  0
 39 80  2  0  0  0  0
 40 67  1  0  0  0  0
 40 71  1  0  0  0  0
 40 81  2  0  0  0  0
 41 44  1  0  0  0  0
 42 51  1  0  0  0  0
 43 66  1  0  0  0  0
 44 46  1  0  0  0  0
 45 47  1  0  0  0  0
 45 48  1  0  0  0  0
 46 50  1  0  0  0  0
 47 52  1  0  0  0  0
 48 67  1  0  0  0  0
 49 52  1  0  0  0  0
 49 67  1  0  0  0  0
 50 72  1  0  0  0  0
 51 66  1  0  0  0  0
 52 65  1  0  0  0  0
 54 62  1  0  0  0  0
 55 63  1  0  0  0  0
 56 63  1  0  0  0  0
 57 63  1  0  0  0  0
 58 74  1  0  0  0  0
 59 70  1  0  0  0  0
 60 83  1  0  0  0  0
 61 63  1  0  0  0  0
 61 73  1  0  0  0  0
 62 74  1  0  0  0  0
 64 65  1  0  0  0  0
M  CHG  1  74   1
M  ISO  4  40 100  60 101  71 100  83 101
M  END
> <Batch ID>
0124

> <Smiles>
CNC(C)C(=O)NC(C(=O)N1Cc2cc([101O:1][101CH2:1]C(=O)CNc3cc(C)cc(C(=O)[100NH:0][100C:0](=O)N4CCCC(n5nc(-c6ccc(Oc7ccc(F)cc7F)cc6)c(C(N)=O)c5N)C4)c3F)ccc2CC1C(=O)NC1CCCc2ccccc21)C(C)(C)C

> <Shape>
0.254

> <Color>
0.065

> <Negative vol penalty>
0.000

$$$$

  -OEChem-04052302063D

 83 91  0     1  0  0  0  0  0999 V2000
  -24.5731  -37.1535   17.0232 C   0  0  0  0  0  0  0  0  0  0  0  0
  -25.3122  -35.9763   16.9671 C   0  0  0  0  0  0  0  0  0  0  0  0
  -23.8788   -9.3990   21.3029 C   0  0  0  0  0  0  0  0  0  0  0  0
  -24.5719  -10.3702   23.4038 C   0  0  0  0  0  0  0  0  0  0  0  0
  -24.0963  -37.6182   18.2483 C   0  0  0  0  0  0  0  0  0  0  0  0
  -25.5760  -35.2635   18.1362 C   0  0  0  0  0  0  0  0  0  0  0  0
  -25.9699  -29.1809   18.7300 C   0  0  0  0  0  0  0  0  0  0  0  0
  -23.4248   -8.2653   21.9768 C   0  0  0  0  0  0  0  0  0  0  0  0
  -24.1178   -9.2365   24.0777 C   0  0  0  0  0  0  0  0  0  0  0  0
  -27.0588  -28.3113   18.7736 C   0  0  0  0  0  0  0  0  0  0  0  0
  -20.7223   -7.3662   23.7992 C   0  0  0  0  0  0  0  0  0  0  0  0
  -19.4730   -6.8577   23.4438 C   0  0  0  0  0  0  0  0  0  0  0  0
  -28.7055  -20.4762   20.7897 C   0  0  0  0  0  0  0  0  0  0  0  0
  -26.9936  -28.3601   21.1845 C   0  0  0  0  0  0  0  0  0  0  0  0
  -30.6209  -18.7573   19.7131 C   0  0  0  0  0  0  0  0  0  0  0  0
  -20.5021   -4.7609   22.8263 C   0  0  0  0  0  0  0  0  0  0  0  0
  -24.4524  -10.4515   22.0164 C   0  0  0  0  0  0  0  0  0  0  0  0
  -29.8659  -20.9964   20.2166 C   0  0  0  0  0  0  0  0  0  0  0  0
  -24.1884  -12.7870   21.0248 C   0  0  0  0  0  0  0  0  0  0  0  0
  -24.3462  -36.9057   19.4317 C   0  0  0  0  0  0  0  0  0  0  0  0
  -25.3906  -29.6561   19.9154 C   0  0  0  0  0  0  0  0  0  0  0  0
  -25.1033  -35.7198   19.3784 C   0  0  0  0  0  0  0  0  0  0  0  0
  -25.8959  -29.2336   21.1533 C   0  0  0  0  0  0  0  0  0  0  0  0
  -28.5028  -19.0965   20.8246 C   0  0  0  0  0  0  0  0  0  0  0  0
  -29.4605  -18.2371   20.2863 C   0  0  0  0  0  0  0  0  0  0  0  0
  -23.5442   -8.1840   23.3642 C   0  0  0  0  0  0  0  0  0  0  0  0
  -27.5726  -27.9030   20.0009 C   0  0  0  0  0  0  0  0  0  0  0  0
  -21.8616   -6.5720   23.6681 C   0  0  0  0  0  0  0  0  0  0  0  0
  -19.3629   -5.5551   22.9574 C   0  0  0  0  0  0  0  0  0  0  0  0
  -30.8236  -20.1369   19.6782 C   0  0  0  0  0  0  0  0  0  0  0  0
  -21.7515   -5.2694   23.1817 C   0  0  0  0  0  0  0  0  0  0  0  0
  -24.9222  -11.6226   21.3208 C   0  0  0  0  0  0  0  0  0  0  0  0
  -25.0785  -13.5938   20.3591 C   0  0  0  0  0  0  0  0  0  0  0  0
  -30.0750  -22.4542   20.1823 C   0  0  0  0  0  0  0  0  0  0  0  0
  -29.0960  -23.3717   20.1375 C   0  0  0  0  0  0  0  0  0  0  0  0
  -29.3570  -24.7937   20.1136 C   0  0  0  0  0  0  0  0  0  0  0  0
  -28.3864  -25.7113   20.0690 C   0  0  0  0  0  0  0  0  0  1  0  0
  -22.8242  -13.1103   21.3248 C   0  0  0  0  0  0  0  0  0  0  0  0
  -25.0037  -32.5240   21.2304 C   0  0  0  0  0  0  0  0  0  0  0  0
  -23.2717  -30.8602   23.4108 C   0  0  0  0  0  0  0  0  0  0  0  0
  -22.6335  -27.8746   24.9359 C   0  0  0  0  0  0  0  0  0  0  0  0
  -30.1370  -15.8565   19.8157 C   0  0  0  0  0  0  0  0  0  0  0  0
  -23.8505  -37.4723   20.7386 C   0  0  0  0  0  0  0  0  0  0  0  0
  -24.1997  -30.5726   19.8514 C   0  0  0  0  0  0  0  0  0  0  0  0
  -25.2972  -29.6988   22.4547 C   0  0  0  0  0  0  0  0  0  0  0  0
  -23.8545  -36.4606   21.8817 C   0  0  0  0  0  0  0  0  0  0  0  0
  -29.6713  -12.5873   18.4842 C   0  0  0  0  0  0  0  0  0  0  0  0
  -25.1759  -35.6992   21.9161 C   0  0  0  0  0  0  0  0  0  0  0  0
  -28.3339  -12.1407   19.0791 C   0  0  0  0  0  0  0  0  0  0  0  0
  -30.4832  -13.4194   19.4752 C   0  0  0  0  0  0  0  0  0  0  0  0
  -28.4331  -14.1191   20.6486 C   0  0  0  0  0  0  0  0  0  0  0  0
  -25.3891  -34.9055   20.6215 C   0  0  1  0  0  0  0  0  0  0  0  0
  -24.0133  -31.3995   21.1198 C   0  0  1  0  0  0  0  0  0  0  0  0
  -27.5515  -13.3325   19.6648 C   0  0  2  0  0  0  0  0  0  0  0  0
  -27.2507  -18.5664   21.4449 C   0  0  0  0  0  0  0  0  0  0  0  0
  -21.1885  -26.8354   26.7048 C   0  0  0  0  0  0  0  0  0  0  0  0
  -25.0166  -32.1208   25.5733 C   0  0  0  0  0  0  0  0  0  0  0  0
  -24.1898  -30.3716   27.1622 C   0  0  0  0  0  0  0  0  0  0  0  0
  -22.5849  -31.9860   26.1420 C   0  0  0  0  0  0  0  0  0  0  0  0
  -21.3807  -26.0281   22.9917 C   0  0  0  0  0  0  0  0  0  0  0  0
  -23.5812  -30.1561   24.7098 C   0  0  1  0  0  0  0  0  0  0  0  0
  -21.3318  -27.1484   25.2235 C   0  0  2  0  0  0  0  0  0  0  0  0
  -23.8558  -31.1512   25.8725 C   0  0  0  0  0  0  0  0  0  0  0  0
  -26.1814  -11.6805   20.8792 N   0  0  0  0  0  0  0  0  0  0  0  0
  -26.2458  -12.8909   20.2989 N   0  0  0  0  0  0  0  0  0  0  0  0
  -24.1380  -30.5992   22.3397 N   0  0  0  0  0  0  0  0  0  0  0  0
  -29.6794  -14.5326   19.9848 N   0  0  0  0  0  0  0  0  0  0  0  0
  -24.9688  -14.8288   19.8252 N   0  0  0  0  0  0  0  0  0  0  0  0
  -22.0503  -12.1675   22.0151 N   0  0  0  0  0  0  0  0  0  0  0  0
  -29.2735  -16.8328   20.3115 N   0  0  0  0  0  0  0  0  0  0  0  0
  -24.5905  -33.6986   20.6313 N   0  0  0  0  0  0  0  0  0  0  0  0
  -22.4695  -29.2436   24.9544 N   0  0  0  0  0  0  0  0  0  0  0  0
  -21.2749  -25.8671   24.4647 N   0  3  0  0  0  0  0  0  0  0  0  0
  -22.3020  -14.1963   20.9762 O   0  0  0  0  0  0  0  0  0  0  0  0
  -26.0637  -32.3400   21.8171 O   0  0  0  0  0  0  0  0  0  0  0  0
  -22.2932  -31.6085   23.3467 O   0  0  0  0  0  0  0  0  0  0  0  0
  -23.6908  -27.2864   24.7202 O   0  0  0  0  0  0  0  0  0  0  0  0
  -31.2026  -16.1071   19.2467 O   0  0  0  0  0  0  0  0  0  0  0  0
  -23.1011   -7.0780   24.0221 O   0  0  0  0  0  0  0  0  0  0  0  0
  -28.6358  -27.0548   20.0463 O   0  0  0  0  0  0  0  0  0  1  0  0
  -18.1630   -5.0664   22.6176 F   0  0  0  0  0  0  0  0  0  0  0  0
  -31.9444  -20.6221   19.1243 F   0  0  0  0  0  0  0  0  0  0  0  0
  -22.8422   -4.5013   23.0546 F   0  0  0  0  0  0  0  0  0  0  0  0
  1  2  1  0  0  0  0
  1  5  2  0  0  0  0
  2  6  2  0  0  0  0
  3  8  2  0  0  0  0
  3 17  1  0  0  0  0
  4  9  1  0  0  0  0
  4 17  2  0  0  0  0
  5 20  1  0  0  0  0
  6 22  1  0  0  0  0
  7 10  2  0  0  0  0
  7 21  1  0  0  0  0
  8 26  1  0  0  0  0
  9 26  2  0  0  0  0
 10 27  1  0  0  0  0
 11 12  2  0  0  0  0
 11 28  1  0  0  0  0
 12 29  1  0  0  0  0
 13 18  1  0  0  0  0
 13 24  2  0  0  0  0
 14 23  1  0  0  0  0
 14 27  2  0  0  0  0
 15 25  2  0  0  0  0
 15 30  1  0  0  0  0
 16 29  2  0  0  0  0
 16 31  1  0  0  0  0
 17 32  1  0  0  0  0
 18 30  2  0  0  0  0
 18 34  1  0  0  0  0
 19 32  1  0  0  0  0
 19 33  2  0  0  0  0
 19 38  1  0  0  0  0
 20 22  2  0  0  0  0
 20 43  1  0  0  0  0
 21 23  2  0  0  0  0
 21 44  1  0  0  0  0
 22 52  1  0  0  0  0
 23 45  1  0  0  0  0
 24 25  1  0  0  0  0
 24 55  1  0  0  0  0
 25 70  1  0  0  0  0
 26 79  1  0  0  0  0
 27 80  1  0  0  0  0
 28 31  2  0  0  0  0
 28 79  1  0  0  0  0
 29 81  1  0  0  0  0
 30 82  1  0  0  0  0
 31 83  1  0  0  0  0
 32 64  2  0  0  0  0
 33 65  1  0  0  0  0
 33 68  1  0  0  0  0
 34 35  2  0  0  0  0
 35 36  1  0  0  0  0
 36 37  2  0  0  0  0
 37 80  1  0  0  0  0
 38 69  1  0  0  0  0
 38 74  2  0  0  0  0
 39 53  1  0  0  0  0
 39 71  1  0  0  0  0
 39 75  2  0  0  0  0
 40 61  1  0  0  0  0
 40 66  1  0  0  0  0
 40 76  2  0  0  0  0
 41 62  1  0  0  0  0
 41 72  1  0  0  0  0
 41 77  2  0  0  0  0
 42 67  1  0  0  0  0
 42 70  1  0  0  0  0
 42 78  2  0  0  0  0
 43 46  1  0  0  0  0
 44 53  1  0  0  0  0
 45 66  1  0  0  0  0
 46 48  1  0  0  0  0
 47 49  1  0  0  0  0
 47 50  1  0  0  0  0
 48 52  1  0  0  0  0
 49 54  1  0  0  0  0
 50 67  1  0  0  0  0
 51 54  1  0  0  0  0
 51 67  1  0  0  0  0
 52 71  1  0  0  0  0
 53 66  1  0  0  0  0
 54 65  1  0  0  0  0
 56 62  1  0  0  0  0
 57 63  1  0  0  0  0
 58 63  1  0  0  0  0
 59 63  1  0  0  0  0
 60 73  1  0  0  0  0
 61 63  1  0  0  0  0
 61 72  1  0  0  0  0
 62 73  1  0  0  0  0
 64 65  1  0  0  0  0
M  CHG  1  73   1
M  ISO  4  37 101  42 100  70 100  80 101
M  END
> <Batch ID>
0124

> <Smiles>
CNC(C)C(=O)NC(C(=O)N1Cc2cc([101O:1][101CH:1]=CC=Cc3cc(C)c([100NH:0][100C:0](=O)N4CCCC(n5nc(-c6ccc(Oc7ccc(F)cc7F)cc6)c(C(N)=O)c5N)C4)cc3F)ccc2CC1C(=O)NC1CCCc2ccccc21)C(C)(C)C

> <Shape>
0.308

> <Color>
0.171

> <Negative vol penalty>
0.000

$$$$

  -OEChem-04052302063D

 86 94  0     1  0  0  0  0  0999 V2000
  -26.8675  -35.6005   22.1590 C   0  0  0  0  0  0  0  0  0  0  0  0
  -27.2879  -34.2749   22.1203 C   0  0  0  0  0  0  0  0  0  0  0  0
  -23.6262   -8.9692   20.2050 C   0  0  0  0  0  0  0  0  0  0  0  0
  -23.0734  -10.8337   21.6387 C   0  0  0  0  0  0  0  0  0  0  0  0
  -25.5920  -35.9127   22.6277 C   0  0  0  0  0  0  0  0  0  0  0  0
  -26.4334  -33.2608   22.5513 C   0  0  0  0  0  0  0  0  0  0  0  0
  -26.3801  -29.2958   19.4016 C   0  0  0  0  0  0  0  0  0  0  0  0
  -22.7472   -8.1574   20.9218 C   0  0  0  0  0  0  0  0  0  0  0  0
  -22.1943  -10.0218   22.3554 C   0  0  0  0  0  0  0  0  0  0  0  0
  -27.4550  -28.4108   19.4737 C   0  0  0  0  0  0  0  0  0  0  0  0
  -20.9173   -5.5009   22.6005 C   0  0  0  0  0  0  0  0  0  0  0  0
  -21.3544   -4.2250   22.9564 C   0  0  0  0  0  0  0  0  0  0  0  0
  -28.6458  -19.7546   18.6669 C   0  0  0  0  0  0  0  0  0  0  0  0
  -26.1178  -26.9041   20.8007 C   0  0  0  0  0  0  0  0  0  0  0  0
  -30.5765  -18.1526   19.8870 C   0  0  0  0  0  0  0  0  0  0  0  0
  -23.1747   -5.1988   24.2116 C   0  0  0  0  0  0  0  0  0  0  0  0
  -23.7893  -10.3074   20.5635 C   0  0  0  0  0  0  0  0  0  0  0  0
  -29.7468  -20.3418   19.2902 C   0  0  0  0  0  0  0  0  0  0  0  0
  -28.5101  -18.3664   18.6537 C   0  0  0  0  0  0  0  0  0  0  0  0
  -24.4013  -11.9292   18.6918 C   0  0  0  0  0  0  0  0  0  0  0  0
  -24.7180  -34.9010   23.0557 C   0  0  0  0  0  0  0  0  0  0  0  0
  -25.1674  -28.9960   20.0387 C   0  0  0  0  0  0  0  0  0  0  0  0
  -25.1456  -33.5599   23.0275 C   0  0  0  0  0  0  0  0  0  0  0  0
  -25.0282  -27.7858   20.7330 C   0  0  0  0  0  0  0  0  0  0  0  0
  -30.7122  -19.5408   19.9002 C   0  0  0  0  0  0  0  0  0  0  0  0
  -29.4754  -17.5654   19.2637 C   0  0  0  0  0  0  0  0  0  0  0  0
  -22.0312   -8.6836   21.9970 C   0  0  0  0  0  0  0  0  0  0  0  0
  -27.3249  -27.2161   20.1758 C   0  0  0  0  0  0  0  0  0  0  0  0
  -21.6089   -6.6257   23.0501 C   0  0  0  0  0  0  0  0  0  0  0  0
  -22.4831   -4.0739   23.7619 C   0  0  0  0  0  0  0  0  0  0  0  0
  -22.7376   -6.4747   23.8556 C   0  0  0  0  0  0  0  0  0  0  0  0
  -24.6976  -11.1464   19.8238 C   0  0  0  0  0  0  0  0  0  0  0  0
  -25.5928  -12.5315   18.3694 C   0  0  0  0  0  0  0  0  0  0  0  0
  -29.8624  -21.8109   19.2870 C   0  0  0  0  0  0  0  0  0  0  0  0
  -28.9521  -22.6470   19.8053 C   0  0  0  0  0  0  0  0  0  0  0  0
  -27.3469  -17.7844   17.9954 C   0  0  0  0  0  0  0  0  0  0  0  0
  -23.1599  -12.0969   17.9943 C   0  0  0  0  0  0  0  0  0  0  0  0
  -29.1595  -24.1230   19.7422 C   0  0  0  0  0  0  0  0  0  0  0  0
  -23.4599  -30.3406   22.3583 C   0  0  0  0  0  0  0  0  0  0  0  0
  -21.3052  -28.0478   21.5691 C   0  0  0  0  0  0  0  0  0  0  0  0
  -20.7084  -24.9864   20.1841 C   0  0  0  0  0  0  0  0  0  0  0  0
  -30.2377  -15.2321   19.8304 C   0  0  0  0  0  0  0  0  0  0  0  0
  -23.3661  -35.2914   23.5986 C   0  0  0  0  0  0  0  0  0  0  0  0
  -24.0088  -29.9489   19.9290 C   0  0  0  0  0  0  0  0  0  0  0  0
  -23.7409  -27.4077   21.4174 C   0  0  0  0  0  0  0  0  0  0  0  0
  -22.3848  -34.1253   23.6856 C   0  0  0  0  0  0  0  0  0  0  0  0
  -30.2818  -11.6803   20.0755 C   0  0  0  0  0  0  0  0  0  0  0  0
  -23.0561  -32.9084   24.3142 C   0  0  0  0  0  0  0  0  0  0  0  0
  -28.8085  -11.2892   19.9387 C   0  0  0  0  0  0  0  0  0  0  0  0
  -30.4530  -12.9804   20.8592 C   0  0  0  0  0  0  0  0  0  0  0  0
  -28.1919  -13.7235   20.2232 C   0  0  0  0  0  0  0  0  0  0  0  0
  -24.2385  -32.4296   23.4632 C   0  0  1  0  0  0  0  0  0  0  0  0
  -22.9863  -29.7776   21.0482 C   0  0  1  0  0  0  0  0  0  0  0  0
  -27.9651  -12.4545   19.3854 C   0  0  2  0  0  0  0  0  0  0  0  0
  -31.9053  -20.1358   20.5770 C   0  0  0  0  0  0  0  0  0  0  0  0
  -26.0838  -18.5926   17.9847 C   0  0  0  0  0  0  0  0  0  0  0  0
  -18.8522  -23.3634   19.7175 C   0  0  0  0  0  0  0  0  0  0  0  0
  -21.2767  -27.2384   24.5109 C   0  0  0  0  0  0  0  0  0  0  0  0
  -20.1915  -25.0855   23.8360 C   0  0  0  0  0  0  0  0  0  0  0  0
  -19.0308  -27.2522   23.4109 C   0  0  0  0  0  0  0  0  0  0  0  0
  -21.1648  -25.1254   17.2632 C   0  0  0  0  0  0  0  0  0  0  0  0
  -28.0621  -24.9627   20.3615 C   0  0  0  0  0  0  0  0  0  1  0  0
  -21.0430  -26.6289   22.0129 C   0  0  1  0  0  0  0  0  0  0  0  0
  -19.6743  -24.5219   19.1745 C   0  0  2  0  0  0  0  0  0  0  0  0
  -20.4105  -26.5590   23.4315 C   0  0  0  0  0  0  0  0  0  0  0  0
  -25.9771  -11.2407   20.1953 N   0  0  0  0  0  0  0  0  0  0  0  0
  -26.4953  -12.0898   19.2917 N   0  0  0  0  0  0  0  0  0  0  0  0
  -22.6389  -28.3752   21.2867 N   0  0  0  0  0  0  0  0  0  0  0  0
  -29.6278  -14.0401   20.2752 N   0  0  0  0  0  0  0  0  0  0  0  0
  -25.9461  -13.3905   17.3898 N   0  0  0  0  0  0  0  0  0  0  0  0
  -22.0335  -11.4045   18.4591 N   0  0  0  0  0  0  0  0  0  0  0  0
  -29.3576  -16.1533   19.2635 N   0  0  0  0  0  0  0  0  0  0  0  0
  -23.7663  -31.6873   22.3140 N   0  0  0  0  0  0  0  0  0  0  0  0
  -20.2317  -26.0171   20.9661 N   0  0  0  0  0  0  0  0  0  0  0  0
  -20.3406  -24.0770   17.9179 N   0  3  0  0  0  0  0  0  0  0  0  0
  -27.3253  -16.6794   17.4536 O   0  0  0  0  0  0  0  0  0  0  0  0
  -23.0566  -12.8260   16.9788 O   0  0  0  0  0  0  0  0  0  0  0  0
  -30.1547  -24.6204   19.2224 O   0  0  0  0  0  0  0  0  0  0  0  0
  -23.5399  -29.6078   23.3372 O   0  0  0  0  0  0  0  0  0  0  0  0
  -20.3604  -28.8347   21.4696 O   0  0  0  0  0  0  0  0  0  0  0  0
  -21.8260  -24.4826   20.2728 O   0  0  0  0  0  0  0  0  0  0  0  0
  -31.4552  -15.4105   19.9192 O   0  0  0  0  0  0  0  0  0  0  0  0
  -21.1732   -7.8918   22.6965 O   0  0  0  0  0  0  0  0  0  0  0  0
  -28.3727  -26.3509   20.2483 O   0  0  0  0  0  0  0  0  0  1  0  0
  -22.9018   -2.8487   24.1049 F   0  0  0  0  0  0  0  0  0  0  0  0
  -23.4054   -7.5516   24.2916 F   0  0  0  0  0  0  0  0  0  0  0  0
  1  2  1  0  0  0  0
  1  5  2  0  0  0  0
  2  6  2  0  0  0  0
  3  8  2  0  0  0  0
  3 17  1  0  0  0  0
  4  9  1  0  0  0  0
  4 17  2  0  0  0  0
  5 21  1  0  0  0  0
  6 23  1  0  0  0  0
  7 10  2  0  0  0  0
  7 22  1  0  0  0  0
  8 27  1  0  0  0  0
  9 27  2  0  0  0  0
 10 28  1  0  0  0  0
 11 12  2  0  0  0  0
 11 29  1  0  0  0  0
 12 30  1  0  0  0  0
 13 18  1  0  0  0  0
 13 19  2  0  0  0  0
 14 24  1  0  0  0  0
 14 28  2  0  0  0  0
 15 25  1  0  0  0  0
 15 26  2  0  0  0  0
 16 30  2  0  0  0  0
 16 31  1  0  0  0  0
 17 32  1  0  0  0  0
 18 25  2  0  0  0  0
 18 34  1  0  0  0  0
 19 26  1  0  0  0  0
 19 36  1  0  0  0  0
 20 32  1  0  0  0  0
 20 33  2  0  0  0  0
 20 37  1  0  0  0  0
 21 23  2  0  0  0  0
 21 43  1  0  0  0  0
 22 24  2  0  0  0  0
 22 44  1  0  0  0  0
 23 52  1  0  0  0  0
 24 45  1  0  0  0  0
 25 55  1  0  0  0  0
 26 72  1  0  0  0  0
 27 83  1  0  0  0  0
 28 84  1  0  0  0  0
 29 31  2  0  0  0  0
 29 83  1  0  0  0  0
 30 85  1  0  0  0  0
 31 86  1  0  0  0  0
 32 66  2  0  0  0  0
 33 67  1  0  0  0  0
 33 70  1  0  0  0  0
 34 35  2  0  0  0  0
 35 38  1  0  0  0  0
 36 56  1  0  0  0  0
 36 76  2  0  0  0  0
 37 71  1  0  0  0  0
 37 77  2  0  0  0  0
 38 62  1  0  0  0  0
 38 78  2  0  0  0  0
 39 53  1  0  0  0  0
 39 73  1  0  0  0  0
 39 79  2  0  0  0  0
 40 63  1  0  0  0  0
 40 68  1  0  0  0  0
 40 80  2  0  0  0  0
 41 64  1  0  0  0  0
 41 74  1  0  0  0  0
 41 81  2  0  0  0  0
 42 69  1  0  0  0  0
 42 72  1  0  0  0  0
 42 82  2  0  0  0  0
 43 46  1  0  0  0  0
 44 53  1  0  0  0  0
 45 68  1  0  0  0  0
 46 48  1  0  0  0  0
 47 49  1  0  0  0  0
 47 50  1  0  0  0  0
 48 52  1  0  0  0  0
 49 54  1  0  0  0  0
 50 69  1  0  0  0  0
 51 54  1  0  0  0  0
 51 69  1  0  0  0  0
 52 73  1  0  0  0  0
 53 68  1  0  0  0  0
 54 67  1  0  0  0  0
 57 64  1  0  0  0  0
 58 65  1  0  0  0  0
 59 65  1  0  0  0  0
 60 65  1  0  0  0  0
 61 75  1  0  0  0  0
 62 84  1  0  0  0  0
 63 65  1  0  0  0  0
 63 74  1  0  0  0  0
 64 75  1  0  0  0  0
 66 67  1  0  0  0  0
M  CHG  1  75   1
M  ISO  4  42 100  62 101  72 100  84 101
M  END
> <Batch ID>
0124

> <Smiles>
CNC(C)C(=O)NC(C(=O)N1Cc2cc([101O:1][101CH2:1]C(=O)C=Cc3cc(C(C)=O)c([100NH:0][100C:0](=O)N4CCCC(n5nc(-c6ccc(Oc7ccc(F)cc7F)cc6)c(C(N)=O)c5N)C4)cc3C)ccc2CC1C(=O)NC1CCCc2ccccc21)C(C)(C)C

> <Shape>
0.329

> <Color>
0.131

> <Negative vol penalty>
0.000

$$$$

  -OEChem-04052302063D

 84 92  0     1  0  0  0  0  0999 V2000
  -25.8325  -19.7407   14.3645 C   0  0  0  0  0  0  0  0  0  0  0  0
  -26.7755  -19.0605   15.1283 C   0  0  0  0  0  0  0  0  0  0  0  0
  -27.3276  -29.5494   20.6471 C   0  0  0  0  0  0  0  0  0  0  0  0
  -25.9507  -27.9034   21.7571 C   0  0  0  0  0  0  0  0  0  0  0  0
  -24.5825  -20.0386   14.9055 C   0  0  0  0  0  0  0  0  0  0  0  0
  -26.4694  -18.6788   16.4341 C   0  0  0  0  0  0  0  0  0  0  0  0
  -28.3423  -13.6147   19.3243 C   0  0  0  0  0  0  0  0  0  0  0  0
  -26.3171  -30.4986   20.8011 C   0  0  0  0  0  0  0  0  0  0  0  0
  -24.9402  -28.8526   21.9112 C   0  0  0  0  0  0  0  0  0  0  0  0
  -29.3748  -13.3799   20.2314 C   0  0  0  0  0  0  0  0  0  0  0  0
  -22.5210  -30.2475   20.0054 C   0  0  0  0  0  0  0  0  0  0  0  0
  -21.2152  -29.8583   19.7068 C   0  0  0  0  0  0  0  0  0  0  0  0
  -27.8184  -13.6276   22.0578 C   0  0  0  0  0  0  0  0  0  0  0  0
  -29.7601  -18.2966   21.8796 C   0  0  0  0  0  0  0  0  0  0  0  0
  -20.5490  -30.3528   21.9759 C   0  0  0  0  0  0  0  0  0  0  0  0
  -30.4240  -18.9396   19.3122 C   0  0  0  0  0  0  0  0  0  0  0  0
  -27.1443  -28.2518   21.1251 C   0  0  0  0  0  0  0  0  0  0  0  0
  -29.2386  -26.9946   21.8606 C   0  0  0  0  0  0  0  0  0  0  0  0
  -24.2574  -19.6519   16.2152 C   0  0  0  0  0  0  0  0  0  0  0  0
  -27.0402  -13.8690   19.7783 C   0  0  0  0  0  0  0  0  0  0  0  0
  -25.2143  -18.9730   16.9936 C   0  0  0  0  0  0  0  0  0  0  0  0
  -26.7707  -13.8628   21.1544 C   0  0  0  0  0  0  0  0  0  0  0  0
  -29.1586  -19.3943   21.2740 C   0  0  0  0  0  0  0  0  0  0  0  0
  -29.4915  -19.7286   19.9661 C   0  0  0  0  0  0  0  0  0  0  0  0
  -25.1235  -30.1502   21.4332 C   0  0  0  0  0  0  0  0  0  0  0  0
  -29.1135  -13.3892   21.5984 C   0  0  0  0  0  0  0  0  0  0  0  0
  -22.8408  -30.6893   21.2892 C   0  0  0  0  0  0  0  0  0  0  0  0
  -20.2292  -29.9110   20.6920 C   0  0  0  0  0  0  0  0  0  0  0  0
  -21.8548  -30.7420   22.2744 C   0  0  0  0  0  0  0  0  0  0  0  0
  -28.1875  -27.2708   20.9658 C   0  0  0  0  0  0  0  0  0  0  0  0
  -30.6805  -17.5715   21.1400 C   0  0  0  0  0  0  0  0  0  0  0  0
  -29.9506  -25.9888   21.2541 C   0  0  0  0  0  0  0  0  0  0  0  0
  -29.5441  -27.5937   23.1269 C   0  0  0  0  0  0  0  0  0  0  0  0
  -25.0247  -16.3168   19.5551 C   0  0  0  0  0  0  0  0  0  0  0  0
  -22.9697  -14.2506   20.9799 C   0  0  0  0  0  0  0  0  0  0  0  0
  -31.5562  -16.2860   23.1207 C   0  0  0  0  0  0  0  0  0  0  0  0
  -22.5295  -11.4886   22.9355 C   0  0  0  0  0  0  0  0  0  0  0  0
  -29.1624  -21.2777   18.0069 C   0  0  0  0  0  0  0  0  0  0  0  0
  -22.9104  -20.0379   16.7729 C   0  0  0  0  0  0  0  0  0  0  0  0
  -25.9322  -14.0940   18.7862 C   0  0  0  0  0  0  0  0  0  0  0  0
  -25.3860  -14.1105   21.6924 C   0  0  0  0  0  0  0  0  0  0  0  0
  -22.5307  -19.2685   18.0355 C   0  0  0  0  0  0  0  0  0  0  0  0
  -30.3681  -24.3242   16.6131 C   0  0  0  0  0  0  0  0  0  0  0  0
  -23.7003  -19.2384   19.0143 C   0  0  0  0  0  0  0  0  0  0  0  0
  -30.0322  -25.3688   17.6799 C   0  0  0  0  0  0  0  0  0  0  0  0
  -29.2830  -23.2542   16.5056 C   0  0  0  0  0  0  0  0  0  0  0  0
  -28.5933  -23.6441   18.8383 C   0  0  0  0  0  0  0  0  0  0  0  0
  -24.9108  -18.5204   18.4054 C   0  0  1  0  0  0  0  0  0  0  0  0
  -24.7465  -14.8511   19.3762 C   0  0  1  0  0  0  0  0  0  0  0  0
  -29.6881  -24.7066   19.0285 C   0  0  2  0  0  0  0  0  0  0  0  0
  -28.1629  -20.1944   22.0481 C   0  0  0  0  0  0  0  0  0  0  0  0
  -20.7337  -10.0644   23.9575 C   0  0  0  0  0  0  0  0  0  0  0  0
  -22.4726  -16.3966   23.0912 C   0  0  0  0  0  0  0  0  0  0  0  0
  -21.4596  -14.6302   24.5478 C   0  0  0  0  0  0  0  0  0  0  0  0
  -20.4232  -15.1730   22.3447 C   0  0  0  0  0  0  0  0  0  0  0  0
  -23.4322   -9.0875   21.4595 C   0  0  0  0  0  0  0  0  0  0  0  0
  -32.2230  -14.9398   23.3673 C   0  0  0  0  0  0  0  0  0  0  0  0
  -31.4145  -14.0462   24.3014 C   0  0  0  0  0  0  0  0  0  0  0  0
  -30.0146  -13.7900   23.7625 C   0  0  0  0  0  0  0  0  0  1  0  0
  -22.6130  -13.9110   22.4070 C   0  0  1  0  0  0  0  0  0  0  0  0
  -21.6534  -10.2610   22.7624 C   0  0  2  0  0  0  0  0  0  0  0  0
  -21.7687  -15.0249   23.0879 C   0  0  0  0  0  0  0  0  0  0  0  0
  -31.0293  -17.8658   19.8675 N   0  0  0  0  0  0  0  0  0  0  0  0
  -28.2247  -26.5025   19.8738 N   0  0  0  0  0  0  0  0  0  0  0  0
  -29.3079  -25.7338   20.0784 N   0  0  0  0  0  0  0  0  0  0  0  0
  -24.3376  -14.3315   20.6827 N   0  0  0  0  0  0  0  0  0  0  0  0
  -29.0130  -22.6682   17.8204 N   0  0  0  0  0  0  0  0  0  0  0  0
  -31.0575  -25.3065   21.6169 N   0  0  0  0  0  0  0  0  0  0  0  0
  -28.7089  -28.6139   23.6022 N   0  0  0  0  0  0  0  0  0  0  0  0
  -28.9100  -20.8398   19.3065 N   0  0  0  0  0  0  0  0  0  0  0  0
  -31.2895  -16.4576   21.7652 N   0  0  0  0  0  0  0  0  0  0  0  0
  -24.7219  -17.0862   18.4480 N   0  0  0  0  0  0  0  0  0  0  0  0
  -21.9597  -12.6072   22.3652 N   0  0  0  0  0  0  0  0  0  0  0  0
  -22.4956   -9.0408   22.6116 N   0  3  0  0  0  0  0  0  0  0  0  0
  -30.5379  -27.2462   23.8089 O   0  0  0  0  0  0  0  0  0  0  0  0
  -25.4791  -16.7200   20.6194 O   0  0  0  0  0  0  0  0  0  0  0  0
  -22.0680  -14.4302   20.1576 O   0  0  0  0  0  0  0  0  0  0  0  0
  -31.3135  -17.0693   24.0328 O   0  0  0  0  0  0  0  0  0  0  0  0
  -23.6094  -11.4590   23.5216 O   0  0  0  0  0  0  0  0  0  0  0  0
  -29.5166  -20.5341   17.0884 O   0  0  0  0  0  0  0  0  0  0  0  0
  -24.1374  -31.0762   21.5838 O   0  0  0  0  0  0  0  0  0  0  0  0
  -30.1195  -13.1609   22.4859 O   0  0  0  0  0  0  0  0  0  1  0  0
  -18.9750  -29.5386   20.4047 F   0  0  0  0  0  0  0  0  0  0  0  0
  -22.1557  -31.1667   23.5093 F   0  0  0  0  0  0  0  0  0  0  0  0
  1  2  1  0  0  0  0
  1  5  2  0  0  0  0
  2  6  2  0  0  0  0
  3  8  2  0  0  0  0
  3 17  1  0  0  0  0
  4  9  1  0  0  0  0
  4 17  2  0  0  0  0
  5 19  1  0  0  0  0
  6 21  1  0  0  0  0
  7 10  2  0  0  0  0
  7 20  1  0  0  0  0
  8 25  1  0  0  0  0
  9 25  2  0  0  0  0
 10 26  1  0  0  0  0
 11 12  2  0  0  0  0
 11 27  1  0  0  0  0
 12 28  1  0  0  0  0
 13 22  1  0  0  0  0
 13 26  2  0  0  0  0
 14 23  2  0  0  0  0
 14 31  1  0  0  0  0
 15 28  2  0  0  0  0
 15 29  1  0  0  0  0
 16 24  2  0  0  0  0
 16 63  1  0  0  0  0
 17 30  1  0  0  0  0
 18 30  1  0  0  0  0
 18 32  2  0  0  0  0
 18 33  1  0  0  0  0
 19 21  2  0  0  0  0
 19 39  1  0  0  0  0
 20 22  2  0  0  0  0
 20 40  1  0  0  0  0
 21 48  1  0  0  0  0
 22 41  1  0  0  0  0
 23 24  1  0  0  0  0
 23 51  1  0  0  0  0
 24 70  1  0  0  0  0
 25 81  1  0  0  0  0
 26 82  1  0  0  0  0
 27 29  2  0  0  0  0
 27 81  1  0  0  0  0
 28 83  1  0  0  0  0
 29 84  1  0  0  0  0
 30 64  2  0  0  0  0
 31 63  2  0  0  0  0
 31 71  1  0  0  0  0
 32 65  1  0  0  0  0
 32 68  1  0  0  0  0
 33 69  1  0  0  0  0
 33 75  2  0  0  0  0
 34 49  1  0  0  0  0
 34 72  1  0  0  0  0
 34 76  2  0  0  0  0
 35 60  1  0  0  0  0
 35 66  1  0  0  0  0
 35 77  2  0  0  0  0
 36 57  1  0  0  0  0
 36 71  1  0  0  0  0
 36 78  2  0  0  0  0
 37 61  1  0  0  0  0
 37 73  1  0  0  0  0
 37 79  2  0  0  0  0
 38 67  1  0  0  0  0
 38 70  1  0  0  0  0
 38 80  2  0  0  0  0
 39 42  1  0  0  0  0
 40 49  1  0  0  0  0
 41 66  1  0  0  0  0
 42 44  1  0  0  0  0
 43 45  1  0  0  0  0
 43 46  1  0  0  0  0
 44 48  1  0  0  0  0
 45 50  1  0  0  0  0
 46 67  1  0  0  0  0
 47 50  1  0  0  0  0
 47 67  1  0  0  0  0
 48 72  1  0  0  0  0
 49 66  1  0  0  0  0
 50 65  1  0  0  0  0
 52 61  1  0  0  0  0
 53 62  1  0  0  0  0
 54 62  1  0  0  0  0
 55 62  1  0  0  0  0
 56 74  1  0  0  0  0
 57 58  1  0  0  0  0
 58 59  1  0  0  0  0
 59 82  1  0  0  0  0
 60 62  1  0  0  0  0
 60 73  1  0  0  0  0
 61 74  1  0  0  0  0
 64 65  1  0  0  0  0
M  CHG  1  74   1
M  ISO  4  38 100  59 101  70 100  82 101
M  END
> <Batch ID>
0124

> <Smiles>
CNC(C)C(=O)NC(C(=O)N1Cc2cc([101O:1][101CH2:1]CCC(=O)Nc3cc(C)c([100NH:0][100C:0](=O)N4CCCC(n5nc(-c6ccc(Oc7ccc(F)cc7F)cc6)c(C(N)=O)c5N)C4)cn3)ccc2CC1C(=O)NC1CCCc2ccccc21)C(C)(C)C

> <Shape>
0.254

> <Color>
0.064

> <Negative vol penalty>
0.000

$$$$

  -OEChem-04052302063D

 84 92  0     1  0  0  0  0  0999 V2000
  -27.2204  -37.1212   26.4858 C   0  0  0  0  0  0  0  0  0  0  0  0
  -27.5304  -35.7866   26.7269 C   0  0  0  0  0  0  0  0  0  0  0  0
  -24.5293  -14.1828   20.9383 C   0  0  0  0  0  0  0  0  0  0  0  0
  -26.8179  -13.6790   20.3505 C   0  0  0  0  0  0  0  0  0  0  0  0
  -26.0546  -37.4513   25.7960 C   0  0  0  0  0  0  0  0  0  0  0  0
  -26.6741  -34.7812   26.2792 C   0  0  0  0  0  0  0  0  0  0  0  0
  -29.1555  -30.9489   24.0881 C   0  0  0  0  0  0  0  0  0  0  0  0
  -24.1496  -12.8935   20.5650 C   0  0  0  0  0  0  0  0  0  0  0  0
  -26.4382  -12.3897   19.9773 C   0  0  0  0  0  0  0  0  0  0  0  0
  -29.7811  -30.0310   24.9305 C   0  0  0  0  0  0  0  0  0  0  0  0
  -22.6394   -9.6187   20.1069 C   0  0  0  0  0  0  0  0  0  0  0  0
  -21.7821   -8.9228   20.9592 C   0  0  0  0  0  0  0  0  0  0  0  0
  -27.9299  -28.5117   24.6397 C   0  0  0  0  0  0  0  0  0  0  0  0
  -30.1502  -23.9378   21.3692 C   0  0  0  0  0  0  0  0  0  0  0  0
  -31.2893  -22.1508   22.5294 C   0  0  0  0  0  0  0  0  0  0  0  0
  -23.4144   -9.0843   22.7331 C   0  0  0  0  0  0  0  0  0  0  0  0
  -25.8634  -14.5755   20.8309 C   0  0  0  0  0  0  0  0  0  0  0  0
  -26.6775  -16.3349   22.4891 C   0  0  0  0  0  0  0  0  0  0  0  0
  -25.1885  -36.4491   25.3311 C   0  0  0  0  0  0  0  0  0  0  0  0
  -27.9053  -30.6592   23.5229 C   0  0  0  0  0  0  0  0  0  0  0  0
  -25.4949  -35.0983   25.5836 C   0  0  0  0  0  0  0  0  0  0  0  0
  -27.2918  -29.4267   23.7884 C   0  0  0  0  0  0  0  0  0  0  0  0
  -30.6553  -24.8569   22.2888 C   0  0  0  0  0  0  0  0  0  0  0  0
  -31.7946  -23.0699   23.4490 C   0  0  0  0  0  0  0  0  0  0  0  0
  -31.4775  -24.4230   23.3287 C   0  0  0  0  0  0  0  0  0  0  0  0
  -30.4671  -22.5847   21.4895 C   0  0  0  0  0  0  0  0  0  0  0  0
  -25.1040  -11.9970   20.0846 C   0  0  0  0  0  0  0  0  0  0  0  0
  -29.1670  -28.8133   25.2088 C   0  0  0  0  0  0  0  0  0  0  0  0
  -23.8843  -10.0473   20.5677 C   0  0  0  0  0  0  0  0  0  0  0  0
  -22.1696   -8.6556   22.2723 C   0  0  0  0  0  0  0  0  0  0  0  0
  -24.2718   -9.7802   21.8807 C   0  0  0  0  0  0  0  0  0  0  0  0
  -26.2561  -15.9073   21.2158 C   0  0  0  0  0  0  0  0  0  0  0  0
  -26.9336  -17.6753   22.3340 C   0  0  0  0  0  0  0  0  0  0  0  0
  -31.2535  -25.5588   25.2996 C   0  0  0  0  0  0  0  0  0  0  0  0
  -26.8243  -15.5871   23.7037 C   0  0  0  0  0  0  0  0  0  0  0  0
  -25.0096  -31.9588   23.6966 C   0  0  0  0  0  0  0  0  0  0  0  0
  -24.3134  -29.7631   21.4126 C   0  0  0  0  0  0  0  0  0  0  0  0
  -25.0646  -26.7783   19.9383 C   0  0  0  0  0  0  0  0  0  0  0  0
  -29.1237  -21.9158   19.4661 C   0  0  0  0  0  0  0  0  0  0  0  0
  -23.9160  -36.8565   24.6314 C   0  0  0  0  0  0  0  0  0  0  0  0
  -27.2560  -31.6490   22.5948 C   0  0  0  0  0  0  0  0  0  0  0  0
  -25.9592  -29.0590   23.1905 C   0  0  0  0  0  0  0  0  0  0  0  0
  -23.2516  -35.7169   23.8632 C   0  0  0  0  0  0  0  0  0  0  0  0
  -25.8810  -20.8077   18.4996 C   0  0  0  0  0  0  0  0  0  0  0  0
  -23.1949  -34.4567   24.7209 C   0  0  0  0  0  0  0  0  0  0  0  0
  -25.7242  -19.4692   19.2249 C   0  0  0  0  0  0  0  0  0  0  0  0
  -27.3133  -21.0258   18.0151 C   0  0  0  0  0  0  0  0  0  0  0  0
  -28.1904  -19.5387   19.7725 C   0  0  0  0  0  0  0  0  0  0  0  0
  -24.6037  -33.9783   25.0922 C   0  0  1  0  0  0  0  0  0  0  0  0
  -25.7459  -31.4628   22.4843 C   0  0  1  0  0  0  0  0  0  0  0  0
  -26.7795  -19.3032   20.3359 C   0  0  2  0  0  0  0  0  0  0  0  0
  -30.2996  -26.3001   22.1384 C   0  0  0  0  0  0  0  0  0  0  0  0
  -34.1467  -22.8756   24.2953 C   0  0  0  0  0  0  0  0  0  0  0  0
  -24.2935  -25.2299   18.1202 C   0  0  0  0  0  0  0  0  0  0  0  0
  -22.0068  -28.8375   23.1826 C   0  0  0  0  0  0  0  0  0  0  0  0
  -21.8862  -26.7458   21.8120 C   0  0  0  0  0  0  0  0  0  0  0  0
  -21.4661  -28.9606   20.7439 C   0  0  0  0  0  0  0  0  0  0  0  0
  -27.6306  -27.0210   18.4837 C   0  0  0  0  0  0  0  0  0  0  0  0
  -32.6727  -22.5799   24.5541 C   0  0  0  0  0  0  0  0  0  0  0  0
  -31.7016  -26.5187   26.3691 C   0  0  0  0  0  0  0  0  0  0  0  0
  -31.2019  -27.9185   26.0538 C   0  0  0  0  0  0  0  0  0  1  0  0
  -23.8218  -28.3357   21.4162 C   0  0  1  0  0  0  0  0  0  0  0  0
  -25.2152  -26.3849   18.4799 C   0  0  2  0  0  0  0  0  0  0  0  0
  -22.3195  -28.2273   21.8016 C   0  0  0  0  0  0  0  0  0  0  0  0
  -26.2437  -16.8961   20.3179 N   0  0  0  0  0  0  0  0  0  0  0  0
  -31.9863  -25.3484   24.2553 N   0  0  0  0  0  0  0  0  0  0  0  0
  -26.6604  -17.9583   21.0280 N   0  0  0  0  0  0  0  0  0  0  0  0
  -25.3615  -30.0626   22.2945 N   0  0  0  0  0  0  0  0  0  0  0  0
  -28.2571  -20.8568   19.1221 N   0  0  0  0  0  0  0  0  0  0  0  0
  -27.3635  -18.6278   23.1886 N   0  0  0  0  0  0  0  0  0  0  0  0
  -26.5183  -14.2195   23.6874 N   0  0  0  0  0  0  0  0  0  0  0  0
  -29.9532  -21.6514   20.5554 N   0  0  0  0  0  0  0  0  0  0  0  0
  -25.2174  -33.2967   23.9727 N   0  0  0  0  0  0  0  0  0  0  0  0
  -24.1424  -27.7903   20.1017 N   0  0  0  0  0  0  0  0  0  0  0  0
  -26.6188  -25.9716   18.1971 N   0  3  0  0  0  0  0  0  0  0  0  0
  -27.1996  -16.1196   24.7757 O   0  0  0  0  0  0  0  0  0  0  0  0
  -24.3040  -31.1853   24.3334 O   0  0  0  0  0  0  0  0  0  0  0  0
  -23.7917  -30.5804   20.6501 O   0  0  0  0  0  0  0  0  0  0  0  0
  -25.6987  -26.2391   20.8425 O   0  0  0  0  0  0  0  0  0  0  0  0
  -29.1105  -22.9889   18.8576 O   0  0  0  0  0  0  0  0  0  0  0  0
  -24.7340  -10.7388   19.7206 O   0  0  0  0  0  0  0  0  0  0  0  0
  -29.7751  -27.9158   26.0313 O   0  0  0  0  0  0  0  0  0  1  0  0
  -21.3456   -7.9887   23.0910 F   0  0  0  0  0  0  0  0  0  0  0  0
  -25.4660  -10.1905   22.3294 F   0  0  0  0  0  0  0  0  0  0  0  0
  1  2  1  0  0  0  0
  1  5  2  0  0  0  0
  2  6  2  0  0  0  0
  3  8  2  0  0  0  0
  3 17  1  0  0  0  0
  4  9  1  0  0  0  0
  4 17  2  0  0  0  0
  5 19  1  0  0  0  0
  6 21  1  0  0  0  0
  7 10  2  0  0  0  0
  7 20  1  0  0  0  0
  8 27  1  0  0  0  0
  9 27  2  0  0  0  0
 10 28  1  0  0  0  0
 11 12  2  0  0  0  0
 11 29  1  0  0  0  0
 12 30  1  0  0  0  0
 13 22  1  0  0  0  0
 13 28  2  0  0  0  0
 14 23  2  0  0  0  0
 14 26  1  0  0  0  0
 15 24  1  0  0  0  0
 15 26  2  0  0  0  0
 16 30  2  0  0  0  0
 16 31  1  0  0  0  0
 17 32  1  0  0  0  0
 18 32  1  0  0  0  0
 18 33  2  0  0  0  0
 18 35  1  0  0  0  0
 19 21  2  0  0  0  0
 19 40  1  0  0  0  0
 20 22  2  0  0  0  0
 20 41  1  0  0  0  0
 21 49  1  0  0  0  0
 22 42  1  0  0  0  0
 23 25  1  0  0  0  0
 23 52  1  0  0  0  0
 24 25  2  0  0  0  0
 24 59  1  0  0  0  0
 25 66  1  0  0  0  0
 26 72  1  0  0  0  0
 27 81  1  0  0  0  0
 28 82  1  0  0  0  0
 29 31  2  0  0  0  0
 29 81  1  0  0  0  0
 30 83  1  0  0  0  0
 31 84  1  0  0  0  0
 32 65  2  0  0  0  0
 33 67  1  0  0  0  0
 33 70  1  0  0  0  0
 34 60  1  0  0  0  0
 34 66  2  0  0  0  0
 35 71  1  0  0  0  0
 35 76  2  0  0  0  0
 36 50  1  0  0  0  0
 36 73  1  0  0  0  0
 36 77  2  0  0  0  0
 37 62  1  0  0  0  0
 37 68  1  0  0  0  0
 37 78  2  0  0  0  0
 38 63  1  0  0  0  0
 38 74  1  0  0  0  0
 38 79  2  0  0  0  0
 39 69  1  0  0  0  0
 39 72  1  0  0  0  0
 39 80  2  0  0  0  0
 40 43  1  0  0  0  0
 41 50  1  0  0  0  0
 42 68  1  0  0  0  0
 43 45  1  0  0  0  0
 44 46  1  0  0  0  0
 44 47  1  0  0  0  0
 45 49  1  0  0  0  0
 46 51  1  0  0  0  0
 47 69  1  0  0  0  0
 48 51  1  0  0  0  0
 48 69  1  0  0  0  0
 49 73  1  0  0  0  0
 50 68  1  0  0  0  0
 51 67  1  0  0  0  0
 53 59  1  0  0  0  0
 54 63  1  0  0  0  0
 55 64  1  0  0  0  0
 56 64  1  0  0  0  0
 57 64  1  0  0  0  0
 58 75  1  0  0  0  0
 60 61  1  0  0  0  0
 61 82  1  0  0  0  0
 62 64  1  0  0  0  0
 62 74  1  0  0  0  0
 63 75  1  0  0  0  0
 65 67  1  0  0  0  0
M  CHG  1  75   1
M  ISO  4  39 100  61 101  72 100  82 101
M  END
> <Batch ID>
0124

> <Smiles>
CCc1cc([100NH:0][100C:0](=O)N2CCCC(n3nc(-c4ccc(Oc5ccc(F)cc5F)cc4)c(C(N)=O)c3N)C2)cc(C)c1NC=C[101CH2:1][101O:1]c1ccc2c(c1)CN(C(=O)C(NC(=O)C(C)NC)C(C)(C)C)C(C(=O)NC1CCCc3ccccc31)C2

> <Shape>
0.259

> <Color>
0.063

> <Negative vol penalty>
0.000

$$$$

  -OEChem-04052302063D

 85 93  0     1  0  0  0  0  0999 V2000
  -17.0646  -26.0566   21.8604 C   0  0  0  0  0  0  0  0  0  0  0  0
  -18.3582  -25.5533   21.9546 C   0  0  0  0  0  0  0  0  0  0  0  0
  -24.1707  -11.8629   24.1045 C   0  0  0  0  0  0  0  0  0  0  0  0
  -24.0266  -14.2641   23.8793 C   0  0  0  0  0  0  0  0  0  0  0  0
  -16.8611  -27.3938   21.5222 C   0  0  0  0  0  0  0  0  0  0  0  0
  -19.4490  -26.3866   21.7095 C   0  0  0  0  0  0  0  0  0  0  0  0
  -23.1251  -25.8374   25.1489 C   0  0  0  0  0  0  0  0  0  0  0  0
  -23.6725  -11.9548   25.4040 C   0  0  0  0  0  0  0  0  0  0  0  0
  -23.5282  -14.3560   25.1789 C   0  0  0  0  0  0  0  0  0  0  0  0
  -23.9556  -24.7249   25.0210 C   0  0  0  0  0  0  0  0  0  0  0  0
  -24.8451  -12.7620   28.4696 C   0  0  0  0  0  0  0  0  0  0  0  0
  -25.4810  -12.0149   29.4610 C   0  0  0  0  0  0  0  0  0  0  0  0
  -25.6389  -26.1079   23.9852 C   0  0  0  0  0  0  0  0  0  0  0  0
  -29.6333  -18.5068   19.7897 C   0  0  0  0  0  0  0  0  0  0  0  0
  -31.8594  -17.5725   19.6973 C   0  0  0  0  0  0  0  0  0  0  0  0
  -23.4152  -10.8421   29.9020 C   0  0  0  0  0  0  0  0  0  0  0  0
  -24.3479  -13.0176   23.3421 C   0  0  0  0  0  0  0  0  0  0  0  0
  -31.5593  -19.9547   19.9656 C   0  0  0  0  0  0  0  0  0  0  0  0
  -24.1214  -12.7678   20.8135 C   0  0  0  0  0  0  0  0  0  0  0  0
  -17.9502  -28.2464   21.2822 C   0  0  0  0  0  0  0  0  0  0  0  0
  -23.5416  -27.0936   24.6851 C   0  0  0  0  0  0  0  0  0  0  0  0
  -19.2597  -27.7362   21.3663 C   0  0  0  0  0  0  0  0  0  0  0  0
  -24.8128  -27.2353   24.1107 C   0  0  0  0  0  0  0  0  0  0  0  0
  -30.4753  -17.4013   19.6695 C   0  0  0  0  0  0  0  0  0  0  0  0
  -23.3512  -13.2014   25.9412 C   0  0  0  0  0  0  0  0  0  0  0  0
  -25.2115  -24.8594   24.4365 C   0  0  0  0  0  0  0  0  0  0  0  0
  -23.4943  -12.5493   28.1944 C   0  0  0  0  0  0  0  0  0  0  0  0
  -30.1753  -19.7835   19.9377 C   0  0  0  0  0  0  0  0  0  0  0  0
  -24.7661  -11.0549   30.1773 C   0  0  0  0  0  0  0  0  0  0  0  0
  -32.4014  -18.8492   19.8454 C   0  0  0  0  0  0  0  0  0  0  0  0
  -22.7794  -11.5894   28.9106 C   0  0  0  0  0  0  0  0  0  0  0  0
  -24.8631  -12.9233   21.9999 C   0  0  0  0  0  0  0  0  0  0  0  0
  -25.0679  -12.7322   19.8189 C   0  0  0  0  0  0  0  0  0  0  0  0
  -32.9231  -21.8490   19.2124 C   0  0  0  0  0  0  0  0  0  0  0  0
  -32.1442  -21.2801   20.1204 C   0  0  0  0  0  0  0  0  0  0  0  0
  -22.7035  -12.6647   20.6272 C   0  0  0  0  0  0  0  0  0  0  0  0
  -22.4930  -29.1327   22.4837 C   0  0  0  0  0  0  0  0  0  0  0  0
  -24.8187  -31.0381   23.7015 C   0  0  0  0  0  0  0  0  0  0  0  0
  -27.7763  -31.2835   25.3864 C   0  0  0  0  0  0  0  0  0  0  0  0
  -30.6185  -14.9022   19.3865 C   0  0  0  0  0  0  0  0  0  0  0  0
  -17.6792  -29.6726   20.8733 C   0  0  0  0  0  0  0  0  0  0  0  0
  -22.6447  -28.2891   24.8547 C   0  0  0  0  0  0  0  0  0  0  0  0
  -25.3152  -28.5660   23.6152 C   0  0  0  0  0  0  0  0  0  0  0  0
  -18.8981  -30.5834   20.9957 C   0  0  0  0  0  0  0  0  0  0  0  0
  -29.6284  -11.5005   19.0318 C   0  0  0  0  0  0  0  0  0  0  0  0
  -20.1280  -29.9135   20.3911 C   0  0  0  0  0  0  0  0  0  0  0  0
  -28.2241  -11.4665   19.6392 C   0  0  0  0  0  0  0  0  0  0  0  0
  -30.5519  -12.4513   19.7914 C   0  0  0  0  0  0  0  0  0  0  0  0
  -28.6297  -13.7806   20.5707 C   0  0  0  0  0  0  0  0  0  0  0  0
  -20.4692  -28.6150   21.1320 C   0  0  1  0  0  0  0  0  0  0  0  0
  -22.9650  -29.4192   23.8812 C   0  0  1  0  0  0  0  0  0  0  0  0
  -27.6451  -12.8858   19.8001 C   0  0  2  0  0  0  0  0  0  0  0  0
  -29.4479  -32.9709   26.1964 C   0  0  0  0  0  0  0  0  0  0  0  0
  -25.8790  -31.3494   20.8575 C   0  0  0  0  0  0  0  0  0  0  0  0
  -28.0196  -32.2158   21.8248 C   0  0  0  0  0  0  0  0  0  0  0  0
  -25.8879  -33.4528   22.2102 C   0  0  0  0  0  0  0  0  0  0  0  0
  -27.3624  -30.5088   28.2126 C   0  0  0  0  0  0  0  0  0  0  0  0
  -27.1695  -22.3326   22.7488 C   0  0  0  0  0  0  0  0  0  0  0  0
  -28.1465  -22.2726   21.5798 C   0  0  0  0  0  0  0  0  0  0  0  0
  -26.9265  -23.7652   23.2048 C   0  0  0  0  0  0  0  0  0  1  0  0
  -28.4230  -20.8384   21.1513 C   0  0  0  0  0  0  0  0  0  0  0  0
  -26.2823  -31.2605   23.4061 C   0  0  1  0  0  0  0  0  0  0  0  0
  -28.2055  -32.1659   26.5447 C   0  0  2  0  0  0  0  0  0  0  0  0
  -26.5073  -32.0440   22.0821 C   0  0  0  0  0  0  0  0  0  0  0  0
  -26.1794  -12.9824   21.7810 N   0  0  0  0  0  0  0  0  0  0  0  0
  -26.2722  -12.8632   20.4456 N   0  0  0  0  0  0  0  0  0  0  0  0
  -24.3989  -29.7038   23.7976 N   0  0  0  0  0  0  0  0  0  0  0  0
  -29.9398  -13.7773   19.9010 N   0  0  0  0  0  0  0  0  0  0  0  0
  -24.9793  -12.6019   18.4782 N   0  0  0  0  0  0  0  0  0  0  0  0
  -21.8754  -12.7201   21.7567 N   0  0  0  0  0  0  0  0  0  0  0  0
  -29.9246  -16.1045   19.5187 N   0  0  0  0  0  0  0  0  0  0  0  0
  -21.1333  -28.9072   22.3842 N   0  0  0  0  0  0  0  0  0  0  0  0
  -26.8432  -31.9087   24.5866 N   0  0  0  0  0  0  0  0  0  0  0  0
  -28.5050  -31.3353   27.7453 N   0  3  0  0  0  0  0  0  0  0  0  0
  -22.1872  -12.5110   19.4944 O   0  0  0  0  0  0  0  0  0  0  0  0
  -23.3023  -29.1188   21.5636 O   0  0  0  0  0  0  0  0  0  0  0  0
  -24.0766  -32.0124   23.8489 O   0  0  0  0  0  0  0  0  0  0  0  0
  -28.2268  -30.1542   25.2068 O   0  0  0  0  0  0  0  0  0  0  0  0
  -31.7212  -14.8020   18.8425 O   0  0  0  0  0  0  0  0  0  0  0  0
  -22.8647  -13.2914   27.2092 O   0  0  0  0  0  0  0  0  0  0  0  0
  -26.0238  -23.7750   24.3100 O   0  0  0  0  0  0  0  0  0  1  0  0
  -29.3250  -20.8524   20.0534 O   0  0  0  0  0  0  0  0  0  0  0  0
  -25.3772  -10.3364   31.1283 F   0  0  0  0  0  0  0  0  0  0  0  0
  -33.7343  -18.9959   19.8717 F   0  0  0  0  0  0  0  0  0  0  0  0
  -21.4817  -11.3797   28.6499 F   0  0  0  0  0  0  0  0  0  0  0  0
  1  2  1  0  0  0  0
  1  5  2  0  0  0  0
  2  6  2  0  0  0  0
  3  8  2  0  0  0  0
  3 17  1  0  0  0  0
  4  9  1  0  0  0  0
  4 17  2  0  0  0  0
  5 20  1  0  0  0  0
  6 22  1  0  0  0  0
  7 10  2  0  0  0  0
  7 21  1  0  0  0  0
  8 25  1  0  0  0  0
  9 25  2  0  0  0  0
 10 26  1  0  0  0  0
 11 12  2  0  0  0  0
 11 27  1  0  0  0  0
 12 29  1  0  0  0  0
 13 23  1  0  0  0  0
 13 26  2  0  0  0  0
 14 24  2  0  0  0  0
 14 28  1  0  0  0  0
 15 24  1  0  0  0  0
 15 30  2  0  0  0  0
 16 29  2  0  0  0  0
 16 31  1  0  0  0  0
 17 32  1  0  0  0  0
 18 28  2  0  0  0  0
 18 30  1  0  0  0  0
 18 35  1  0  0  0  0
 19 32  1  0  0  0  0
 19 33  2  0  0  0  0
 19 36  1  0  0  0  0
 20 22  2  0  0  0  0
 20 41  1  0  0  0  0
 21 23  2  0  0  0  0
 21 42  1  0  0  0  0
 22 50  1  0  0  0  0
 23 43  1  0  0  0  0
 24 71  1  0  0  0  0
 25 80  1  0  0  0  0
 26 81  1  0  0  0  0
 27 31  2  0  0  0  0
 27 80  1  0  0  0  0
 28 82  1  0  0  0  0
 29 83  1  0  0  0  0
 30 84  1  0  0  0  0
 31 85  1  0  0  0  0
 32 65  2  0  0  0  0
 33 66  1  0  0  0  0
 33 69  1  0  0  0  0
 34 35  2  0  0  0  0
 36 70  1  0  0  0  0
 36 75  2  0  0  0  0
 37 51  1  0  0  0  0
 37 72  1  0  0  0  0
 37 76  2  0  0  0  0
 38 62  1  0  0  0  0
 38 67  1  0  0  0  0
 38 77  2  0  0  0  0
 39 63  1  0  0  0  0
 39 73  1  0  0  0  0
 39 78  2  0  0  0  0
 40 68  1  0  0  0  0
 40 71  1  0  0  0  0
 40 79  2  0  0  0  0
 41 44  1  0  0  0  0
 42 51  1  0  0  0  0
 43 67  1  0  0  0  0
 44 46  1  0  0  0  0
 45 47  1  0  0  0  0
 45 48  1  0  0  0  0
 46 50  1  0  0  0  0
 47 52  1  0  0  0  0
 48 68  1  0  0  0  0
 49 52  1  0  0  0  0
 49 68  1  0  0  0  0
 50 72  1  0  0  0  0
 51 67  1  0  0  0  0
 52 66  1  0  0  0  0
 53 63  1  0  0  0  0
 54 64  1  0  0  0  0
 55 64  1  0  0  0  0
 56 64  1  0  0  0  0
 57 74  1  0  0  0  0
 58 59  1  0  0  0  0
 58 60  1  0  0  0  0
 59 61  1  0  0  0  0
 60 81  1  0  0  0  0
 61 82  1  0  0  0  0
 62 64  1  0  0  0  0
 62 73  1  0  0  0  0
 63 74  1  0  0  0  0
 65 66  1  0  0  0  0
M  CHG  1  74   1
M  ISO  4  40 100  60 101  71 100  81 101
M  END
> <Batch ID>
0124

> <Smiles>
C=Cc1c(F)cc([100NH:0][100C:0](=O)N2CCCC(n3nc(-c4ccc(Oc5ccc(F)cc5F)cc4)c(C(N)=O)c3N)C2)cc1OCCC[101CH2:1][101O:1]c1ccc2c(c1)CN(C(=O)C(NC(=O)C(C)NC)C(C)(C)C)C(C(=O)NC1CCCc3ccccc31)C2

> <Shape>
0.235

> <Color>
0.107

> <Negative vol penalty>
0.000

$$$$

  -OEChem-04052302063D

 83 91  0     1  0  0  0  0  0999 V2000
  -27.3521  -10.0948   16.9729 C   0  0  0  0  0  0  0  0  0  0  0  0
  -26.5316  -11.2172   16.9239 C   0  0  0  0  0  0  0  0  0  0  0  0
  -27.0604  -27.8046   19.2222 C   0  0  0  0  0  0  0  0  0  0  0  0
  -24.7714  -28.1331   19.9218 C   0  0  0  0  0  0  0  0  0  0  0  0
  -28.4377  -10.0640   17.8471 C   0  0  0  0  0  0  0  0  0  0  0  0
  -26.7956  -12.3091   17.7500 C   0  0  0  0  0  0  0  0  0  0  0  0
  -26.4583  -16.7270   15.2978 C   0  0  0  0  0  0  0  0  0  0  0  0
  -27.4542  -28.8941   19.9989 C   0  0  0  0  0  0  0  0  0  0  0  0
  -25.1652  -29.2227   20.6986 C   0  0  0  0  0  0  0  0  0  0  0  0
  -25.1787  -17.2265   15.0588 C   0  0  0  0  0  0  0  0  0  0  0  0
  -26.6275  -29.7402   23.7010 C   0  0  0  0  0  0  0  0  0  0  0  0
  -26.1142  -29.8311   24.9948 C   0  0  0  0  0  0  0  0  0  0  0  0
  -20.2060  -24.0753   14.3328 C   0  0  0  0  0  0  0  0  0  0  0  0
  -18.9527  -25.7474   15.5453 C   0  0  0  0  0  0  0  0  0  0  0  0
  -25.4134  -18.7131   16.9440 C   0  0  0  0  0  0  0  0  0  0  0  0
  -18.5505  -23.4012   15.9583 C   0  0  0  0  0  0  0  0  0  0  0  0
  -25.1078  -31.9579   24.4462 C   0  0  0  0  0  0  0  0  0  0  0  0
  -25.7190  -27.4241   19.1836 C   0  0  0  0  0  0  0  0  0  0  0  0
  -19.9222  -25.4147   14.5993 C   0  0  0  0  0  0  0  0  0  0  0  0
  -25.2399  -24.9511   18.7806 C   0  0  0  0  0  0  0  0  0  0  0  0
  -28.7209  -11.1599   18.6775 C   0  0  0  0  0  0  0  0  0  0  0  0
  -27.2220  -17.2099   16.3702 C   0  0  0  0  0  0  0  0  0  0  0  0
  -27.8853  -12.2924   18.6372 C   0  0  0  0  0  0  0  0  0  0  0  0
  -26.7033  -18.2199   17.1930 C   0  0  0  0  0  0  0  0  0  0  0  0
  -19.5201  -23.0685   15.0123 C   0  0  0  0  0  0  0  0  0  0  0  0
  -26.5066  -29.6032   20.7372 C   0  0  0  0  0  0  0  0  0  0  0  0
  -24.6550  -18.2176   15.8837 C   0  0  0  0  0  0  0  0  0  0  0  0
  -26.3810  -30.7583   22.7798 C   0  0  0  0  0  0  0  0  0  0  0  0
  -25.3543  -30.9398   25.3674 C   0  0  0  0  0  0  0  0  0  0  0  0
  -18.2668  -24.7407   16.2248 C   0  0  0  0  0  0  0  0  0  0  0  0
  -25.6211  -31.8670   23.1524 C   0  0  0  0  0  0  0  0  0  0  0  0
  -25.3114  -26.2990   18.3809 C   0  0  0  0  0  0  0  0  0  0  0  0
  -24.8017  -24.2842   17.6626 C   0  0  0  0  0  0  0  0  0  0  0  0
  -20.9140  -21.0796   15.6078 C   0  0  0  0  0  0  0  0  0  0  0  0
  -22.0837  -20.6121   15.1470 C   0  0  0  0  0  0  0  0  0  0  0  0
  -20.6368  -26.4647   13.8907 C   0  0  0  0  0  0  0  0  0  0  0  0
  -25.5425  -24.3550   20.0490 C   0  0  0  0  0  0  0  0  0  0  0  0
  -21.6716  -26.1465   12.8802 C   0  0  0  0  0  0  0  0  0  0  0  0
  -28.4626  -15.9240   18.9991 C   0  0  0  0  0  0  0  0  0  0  0  0
  -29.8146  -18.8546   19.3251 C   0  0  0  0  0  0  0  0  0  0  0  0
  -29.7637  -22.4576   19.1445 C   0  0  0  0  0  0  0  0  0  0  0  0
  -29.8777  -11.0615   19.6401 C   0  0  0  0  0  0  0  0  0  0  0  0
  -28.6109  -16.6797   16.5985 C   0  0  0  0  0  0  0  0  0  0  0  0
  -27.4907  -18.7865   18.3452 C   0  0  0  0  0  0  0  0  0  0  0  0
  -30.3097  -12.4089   20.2131 C   0  0  0  0  0  0  0  0  0  0  0  0
  -24.8606  -24.5074   12.8924 C   0  0  0  0  0  0  0  0  0  0  0  0
  -29.0943  -13.2075   20.6735 C   0  0  0  0  0  0  0  0  0  0  0  0
  -25.3475  -24.6929   14.3292 C   0  0  0  0  0  0  0  0  0  0  0  0
  -24.0515  -25.7099   12.4174 C   0  0  0  0  0  0  0  0  0  0  0  0
  -23.3786  -26.2341   14.7457 C   0  0  0  0  0  0  0  0  0  0  0  0
  -28.1538  -13.5064   19.4998 C   0  0  1  0  0  0  0  0  0  0  0  0
  -29.0991  -16.8797   18.0299 C   0  0  1  0  0  0  0  0  0  0  0  0
  -24.1764  -25.0275   15.2701 C   0  0  2  0  0  0  0  0  0  0  0  0
  -31.5716  -24.1393   19.5929 C   0  0  0  0  0  0  0  0  0  0  0  0
  -28.6263  -18.9523   22.1338 C   0  0  0  0  0  0  0  0  0  0  0  0
  -29.0472  -21.4202   22.1506 C   0  0  0  0  0  0  0  0  0  0  0  0
  -30.9608  -19.8317   21.9575 C   0  0  0  0  0  0  0  0  0  0  0  0
  -29.4520  -23.6793   16.4669 C   0  0  0  0  0  0  0  0  0  0  0  0
  -19.8269  -21.6201   14.7249 C   0  0  0  0  0  0  0  0  0  0  0  0
  -23.1606  -20.0624   16.0238 C   0  0  0  0  0  0  0  0  0  1  0  0
  -29.4110  -20.1506   19.9857 C   0  0  1  0  0  0  0  0  0  0  0  0
  -30.8244  -23.3517   18.5280 C   0  0  2  0  0  0  0  0  0  0  0  0
  -29.4955  -20.0769   21.5364 C   0  0  0  0  0  0  0  0  0  0  0  0
  -24.9479  -26.4795   17.1084 N   0  0  0  0  0  0  0  0  0  0  0  0
  -20.4212  -27.7373   14.0882 N   0  0  0  0  0  0  0  0  0  0  0  0
  -24.6438  -25.2362   16.6988 N   0  0  0  0  0  0  0  0  0  0  0  0
  -22.9713  -26.0222   13.3510 N   0  0  0  0  0  0  0  0  0  0  0  0
  -28.8413  -18.2311   18.5314 N   0  0  0  0  0  0  0  0  0  0  0  0
  -24.5399  -22.9823   17.4199 N   0  0  0  0  0  0  0  0  0  0  0  0
  -25.9806  -25.1851   21.0898 N   0  0  0  0  0  0  0  0  0  0  0  0
  -28.6755  -14.5923   18.6979 N   0  0  0  0  0  0  0  0  0  0  0  0
  -30.2450  -21.1891   19.3905 N   0  0  0  0  0  0  0  0  0  0  0  0
  -30.2005  -24.3177   17.5801 N   0  3  0  0  0  0  0  0  0  0  0  0
  -25.4436  -23.1205   20.2485 O   0  0  0  0  0  0  0  0  0  0  0  0
  -21.2674  -26.0270   11.7310 O   0  0  0  0  0  0  0  0  0  0  0  0
  -27.8267  -16.3623   19.9505 O   0  0  0  0  0  0  0  0  0  0  0  0
  -30.9537  -18.4153   19.5010 O   0  0  0  0  0  0  0  0  0  0  0  0
  -28.6235  -22.8468   19.3872 O   0  0  0  0  0  0  0  0  0  0  0  0
  -26.8906  -30.6663   21.4954 O   0  0  0  0  0  0  0  0  0  0  0  0
  -23.4061  -18.7064   15.6530 O   0  0  0  0  0  0  0  0  0  1  0  0
  -24.8602  -31.0262   26.6094 F   0  0  0  0  0  0  0  0  0  0  0  0
  -17.3358  -25.0601   17.1334 F   0  0  0  0  0  0  0  0  0  0  0  0
  -25.3799  -32.8476   22.2714 F   0  0  0  0  0  0  0  0  0  0  0  0
  1  2  1  0  0  0  0
  1  5  2  0  0  0  0
  2  6  2  0  0  0  0
  3  8  2  0  0  0  0
  3 18  1  0  0  0  0
  4  9  1  0  0  0  0
  4 18  2  0  0  0  0
  5 21  1  0  0  0  0
  6 23  1  0  0  0  0
  7 10  2  0  0  0  0
  7 22  1  0  0  0  0
  8 26  1  0  0  0  0
  9 26  2  0  0  0  0
 10 27  1  0  0  0  0
 11 12  2  0  0  0  0
 11 28  1  0  0  0  0
 12 29  1  0  0  0  0
 13 19  1  0  0  0  0
 13 25  2  0  0  0  0
 14 19  2  0  0  0  0
 14 30  1  0  0  0  0
 15 24  1  0  0  0  0
 15 27  2  0  0  0  0
 16 25  1  0  0  0  0
 16 30  2  0  0  0  0
 17 29  2  0  0  0  0
 17 31  1  0  0  0  0
 18 32  1  0  0  0  0
 19 36  1  0  0  0  0
 20 32  1  0  0  0  0
 20 33  2  0  0  0  0
 20 37  1  0  0  0  0
 21 23  2  0  0  0  0
 21 42  1  0  0  0  0
 22 24  2  0  0  0  0
 22 43  1  0  0  0  0
 23 51  1  0  0  0  0
 24 44  1  0  0  0  0
 25 59  1  0  0  0  0
 26 79  1  0  0  0  0
 27 80  1  0  0  0  0
 28 31  2  0  0  0  0
 28 79  1  0  0  0  0
 29 81  1  0  0  0  0
 30 82  1  0  0  0  0
 31 83  1  0  0  0  0
 32 64  2  0  0  0  0
 33 66  1  0  0  0  0
 33 69  1  0  0  0  0
 34 35  2  0  0  0  0
 34 59  1  0  0  0  0
 35 60  1  0  0  0  0
 36 38  1  0  0  0  0
 36 65  2  0  0  0  0
 37 70  1  0  0  0  0
 37 74  2  0  0  0  0
 38 67  1  0  0  0  0
 38 75  2  0  0  0  0
 39 52  1  0  0  0  0
 39 71  1  0  0  0  0
 39 76  2  0  0  0  0
 40 61  1  0  0  0  0
 40 68  1  0  0  0  0
 40 77  2  0  0  0  0
 41 62  1  0  0  0  0
 41 72  1  0  0  0  0
 41 78  2  0  0  0  0
 42 45  1  0  0  0  0
 43 52  1  0  0  0  0
 44 68  1  0  0  0  0
 45 47  1  0  0  0  0
 46 48  1  0  0  0  0
 46 49  1  0  0  0  0
 47 51  1  0  0  0  0
 48 53  1  0  0  0  0
 49 67  1  0  0  0  0
 50 53  1  0  0  0  0
 50 67  1  0  0  0  0
 51 71  1  0  0  0  0
 52 68  1  0  0  0  0
 53 66  1  0  0  0  0
 54 62  1  0  0  0  0
 55 63  1  0  0  0  0
 56 63  1  0  0  0  0
 57 63  1  0  0  0  0
 58 73  1  0  0  0  0
 60 80  1  0  0  0  0
 61 63  1  0  0  0  0
 61 72  1  0  0  0  0
 62 73  1  0  0  0  0
 64 66  1  0  0  0  0
M  CHG  1  73   1
M  ISO  4  36 100  38 100  60 101  80 101
M  END
> <Batch ID>
0124

> <Smiles>
CNC(C)C(=O)NC(C(=O)N1Cc2cc([101O:1][101CH2:1]C=CCc3cc(F)cc([100C:0](=N)[100C:0](=O)N4CCCC(n5nc(-c6ccc(Oc7ccc(F)cc7F)cc6)c(C(N)=O)c5N)C4)c3)ccc2CC1C(=O)NC1CCCc2ccccc21)C(C)(C)C

> <Shape>
0.201

> <Color>
0.051

> <Negative vol penalty>
0.000

$$$$

  -OEChem-04052302063D

 85 93  0     1  0  0  0  0  0999 V2000
  -25.6355  -37.1910   22.2439 C   0  0  0  0  0  0  0  0  0  0  0  0
  -26.3738  -36.0866   21.8308 C   0  0  0  0  0  0  0  0  0  0  0  0
  -23.3143  -10.0582   23.5295 C   0  0  0  0  0  0  0  0  0  0  0  0
  -23.9624  -10.2865   21.2133 C   0  0  0  0  0  0  0  0  0  0  0  0
  -24.5786  -37.0266   23.1383 C   0  0  0  0  0  0  0  0  0  0  0  0
  -26.0562  -34.8172   22.3127 C   0  0  0  0  0  0  0  0  0  0  0  0
  -26.4743  -29.5155   19.2758 C   0  0  0  0  0  0  0  0  0  0  0  0
  -22.5100   -8.9682   23.1971 C   0  0  0  0  0  0  0  0  0  0  0  0
  -23.1581   -9.1964   20.8808 C   0  0  0  0  0  0  0  0  0  0  0  0
  -27.4445  -28.5143   19.2657 C   0  0  0  0  0  0  0  0  0  0  0  0
  -22.9242   -5.6811   22.5216 C   0  0  0  0  0  0  0  0  0  0  0  0
  -22.9917   -4.5526   23.3387 C   0  0  0  0  0  0  0  0  0  0  0  0
  -26.1706  -27.2717   20.8943 C   0  0  0  0  0  0  0  0  0  0  0  0
  -30.6411  -19.9078   19.4199 C   0  0  0  0  0  0  0  0  0  0  0  0
  -28.4299  -19.8943   20.3934 C   0  0  0  0  0  0  0  0  0  0  0  0
  -20.6367   -4.7692   23.8325 C   0  0  0  0  0  0  0  0  0  0  0  0
  -24.0405  -10.7174   22.5376 C   0  0  0  0  0  0  0  0  0  0  0  0
  -26.2272  -11.8167   23.2568 C   0  0  0  0  0  0  0  0  0  0  0  0
  -24.2419  -35.7533   23.6240 C   0  0  0  0  0  0  0  0  0  0  0  0
  -25.3485  -29.4073   20.1047 C   0  0  0  0  0  0  0  0  0  0  0  0
  -24.9947  -34.6358   23.2155 C   0  0  0  0  0  0  0  0  0  0  0  0
  -25.1863  -28.2717   20.9112 C   0  0  0  0  0  0  0  0  0  0  0  0
  -30.8869  -18.6457   19.9605 C   0  0  0  0  0  0  0  0  0  0  0  0
  -29.9042  -18.0079   20.7176 C   0  0  0  0  0  0  0  0  0  0  0  0
  -28.6757  -18.6321   20.9340 C   0  0  0  0  0  0  0  0  0  0  0  0
  -22.4319   -8.5373   21.8727 C   0  0  0  0  0  0  0  0  0  0  0  0
  -27.2942  -27.3936   20.0772 C   0  0  0  0  0  0  0  0  0  0  0  0
  -21.7129   -6.3537   22.3601 C   0  0  0  0  0  0  0  0  0  0  0  0
  -29.4126  -20.5321   19.6363 C   0  0  0  0  0  0  0  0  0  0  0  0
  -21.8480   -4.0966   23.9941 C   0  0  0  0  0  0  0  0  0  0  0  0
  -20.5692   -5.8978   23.0155 C   0  0  0  0  0  0  0  0  0  0  0  0
  -24.8710  -11.8438   22.8803 C   0  0  0  0  0  0  0  0  0  0  0  0
  -26.5492  -13.1338   23.4758 C   0  0  0  0  0  0  0  0  0  0  0  0
  -27.1165  -10.7007   23.3961 C   0  0  0  0  0  0  0  0  0  0  0  0
  -24.1744  -31.0997   22.5257 C   0  0  0  0  0  0  0  0  0  0  0  0
  -28.6668  -24.0753   19.6182 C   0  0  0  0  0  0  0  0  0  0  0  0
  -21.6869  -29.0357   22.2524 C   0  0  0  0  0  0  0  0  0  0  0  0
  -20.5541  -25.9828   21.2308 C   0  0  0  0  0  0  0  0  0  0  0  0
  -26.3931  -18.4981   21.9915 C   0  0  0  0  0  0  0  0  0  0  0  0
  -23.1211  -35.6315   24.6259 C   0  0  0  0  0  0  0  0  0  0  0  0
  -24.2977  -30.4833   20.0842 C   0  0  0  0  0  0  0  0  0  0  0  0
  -23.9858  -28.0980   21.8040 C   0  0  0  0  0  0  0  0  0  0  0  0
  -22.6115  -34.2031   24.7990 C   0  0  0  0  0  0  0  0  0  0  0  0
  -23.6005  -17.2350   23.8034 C   0  0  0  0  0  0  0  0  0  0  0  0
  -23.7798  -33.2339   24.9488 C   0  0  0  0  0  0  0  0  0  0  0  0
  -23.7937  -15.7176   23.7557 C   0  0  0  0  0  0  0  0  0  0  0  0
  -24.0346  -17.9032   22.5000 C   0  0  0  0  0  0  0  0  0  0  0  0
  -25.5879  -16.0553   22.0083 C   0  0  0  0  0  0  0  0  0  0  0  0
  -24.6652  -33.2394   23.6968 C   0  0  1  0  0  0  0  0  0  0  0  0
  -23.4466  -30.5116   21.3500 C   0  0  1  0  0  0  0  0  0  0  0  0
  -25.2252  -15.3451   23.3227 C   0  0  2  0  0  0  0  0  0  0  0  0
  -32.2106  -17.9993   19.7131 C   0  0  0  0  0  0  0  0  0  0  0  0
  -30.4846  -16.7125   22.7844 C   0  0  0  0  0  0  0  0  0  0  0  0
  -18.4824  -24.5678   21.1760 C   0  0  0  0  0  0  0  0  0  0  0  0
  -22.0223  -28.4339   25.2249 C   0  0  0  0  0  0  0  0  0  0  0  0
  -20.6180  -26.3872   24.8977 C   0  0  0  0  0  0  0  0  0  0  0  0
  -19.6491  -28.6447   24.4644 C   0  0  0  0  0  0  0  0  0  0  0  0
  -20.5691  -25.8704   18.2734 C   0  0  0  0  0  0  0  0  0  0  0  0
  -30.1722  -16.6527   21.2934 C   0  0  0  0  0  0  0  0  0  0  0  0
  -27.8009  -25.0852   20.3430 C   0  0  0  0  0  0  0  0  0  1  0  0
  -28.2899  -22.6211   19.8136 C   0  0  0  0  0  0  0  0  0  0  0  0
  -21.3427  -27.6915   22.8472 C   0  0  1  0  0  0  0  0  0  0  0  0
  -19.3328  -25.5799   20.4243 C   0  0  2  0  0  0  0  0  0  0  0  0
  -20.9317  -27.7932   24.3433 C   0  0  0  0  0  0  0  0  0  0  0  0
  -24.3661  -13.0802   22.8603 N   0  0  0  0  0  0  0  0  0  0  0  0
  -25.4105  -13.8422   23.2272 N   0  0  0  0  0  0  0  0  0  0  0  0
  -22.9891  -29.1804   21.7533 N   0  0  0  0  0  0  0  0  0  0  0  0
  -25.4018  -17.5075   22.1551 N   0  0  0  0  0  0  0  0  0  0  0  0
  -27.6924  -13.7436   23.8550 N   0  0  0  0  0  0  0  0  0  0  0  0
  -26.6226   -9.4159   23.1321 N   0  0  0  0  0  0  0  0  0  0  0  0
  -27.6621  -18.0007   21.6967 N   0  0  0  0  0  0  0  0  0  0  0  0
  -24.0472  -32.4711   22.6374 N   0  0  0  0  0  0  0  0  0  0  0  0
  -20.3184  -27.1134   21.9841 N   0  0  0  0  0  0  0  0  0  0  0  0
  -19.7457  -24.9750   19.1263 N   0  3  0  0  0  0  0  0  0  0  0  0
  -28.3091  -10.8371   23.7603 O   0  0  0  0  0  0  0  0  0  0  0  0
  -24.8034  -30.3635   23.2767 O   0  0  0  0  0  0  0  0  0  0  0  0
  -29.6173  -24.4151   18.9152 O   0  0  0  0  0  0  0  0  0  0  0  0
  -20.8296  -29.9222   22.2250 O   0  0  0  0  0  0  0  0  0  0  0  0
  -21.6103  -25.3551   21.1989 O   0  0  0  0  0  0  0  0  0  0  0  0
  -26.1411  -19.6976   22.1312 O   0  0  0  0  0  0  0  0  0  0  0  0
  -21.6474   -7.4735   21.5480 O   0  0  0  0  0  0  0  0  0  0  0  0
  -28.2400  -26.4152   20.0697 O   0  0  0  0  0  0  0  0  0  1  0  0
  -29.1715  -21.7766   19.1041 O   0  0  0  0  0  0  0  0  0  0  0  0
  -21.9126   -3.0120   24.7774 F   0  0  0  0  0  0  0  0  0  0  0  0
  -19.4024   -6.5391   22.8633 F   0  0  0  0  0  0  0  0  0  0  0  0
  1  2  1  0  0  0  0
  1  5  2  0  0  0  0
  2  6  2  0  0  0  0
  3  8  2  0  0  0  0
  3 17  1  0  0  0  0
  4  9  1  0  0  0  0
  4 17  2  0  0  0  0
  5 19  1  0  0  0  0
  6 21  1  0  0  0  0
  7 10  2  0  0  0  0
  7 20  1  0  0  0  0
  8 26  1  0  0  0  0
  9 26  2  0  0  0  0
 10 27  1  0  0  0  0
 11 12  2  0  0  0  0
 11 28  1  0  0  0  0
 12 30  1  0  0  0  0
 13 22  1  0  0  0  0
 13 27  2  0  0  0  0
 14 23  2  0  0  0  0
 14 29  1  0  0  0  0
 15 25  1  0  0  0  0
 15 29  2  0  0  0  0
 16 30  2  0  0  0  0
 16 31  1  0  0  0  0
 17 32  1  0  0  0  0
 18 32  1  0  0  0  0
 18 33  2  0  0  0  0
 18 34  1  0  0  0  0
 19 21  2  0  0  0  0
 19 40  1  0  0  0  0
 20 22  2  0  0  0  0
 20 41  1  0  0  0  0
 21 49  1  0  0  0  0
 22 42  1  0  0  0  0
 23 24  1  0  0  0  0
 23 52  1  0  0  0  0
 24 25  2  0  0  0  0
 24 59  1  0  0  0  0
 25 71  1  0  0  0  0
 26 81  1  0  0  0  0
 27 82  1  0  0  0  0
 28 31  2  0  0  0  0
 28 81  1  0  0  0  0
 29 83  1  0  0  0  0
 30 84  1  0  0  0  0
 31 85  1  0  0  0  0
 32 65  2  0  0  0  0
 33 66  1  0  0  0  0
 33 69  1  0  0  0  0
 34 70  1  0  0  0  0
 34 75  2  0  0  0  0
 35 50  1  0  0  0  0
 35 72  1  0  0  0  0
 35 76  2  0  0  0  0
 36 60  1  0  0  0  0
 36 61  1  0  0  0  0
 36 77  2  0  0  0  0
 37 62  1  0  0  0  0
 37 67  1  0  0  0  0
 37 78  2  0  0  0  0
 38 63  1  0  0  0  0
 38 73  1  0  0  0  0
 38 79  2  0  0  0  0
 39 68  1  0  0  0  0
 39 71  1  0  0  0  0
 39 80  2  0  0  0  0
 40 43  1  0  0  0  0
 41 50  1  0  0  0  0
 42 67  1  0  0  0  0
 43 45  1  0  0  0  0
 44 46  1  0  0  0  0
 44 47  1  0  0  0  0
 45 49  1  0  0  0  0
 46 51  1  0  0  0  0
 47 68  1  0  0  0  0
 48 51  1  0  0  0  0
 48 68  1  0  0  0  0
 49 72  1  0  0  0  0
 50 67  1  0  0  0  0
 51 66  1  0  0  0  0
 53 59  1  0  0  0  0
 54 63  1  0  0  0  0
 55 64  1  0  0  0  0
 56 64  1  0  0  0  0
 57 64  1  0  0  0  0
 58 74  1  0  0  0  0
 60 82  1  0  0  0  0
 61 83  1  0  0  0  0
 62 64  1  0  0  0  0
 62 73  1  0  0  0  0
 63 74  1  0  0  0  0
 65 66  1  0  0  0  0
M  CHG  1  74   1
M  ISO  4  39 100  60 101  71 100  82 101
M  END
> <Batch ID>
0124

> <Smiles>
CCc1c(C)cc(OCC(=O)[101CH2:1][101O:1]c2ccc3c(c2)CN(C(=O)C(NC(=O)C(C)NC)C(C)(C)C)C(C(=O)NC2CCCc4ccccc42)C3)cc1[100NH:0][100C:0](=O)N1CCCC(n2nc(-c3ccc(Oc4ccc(F)cc4F)cc3)c(C(N)=O)c2N)C1

> <Shape>
0.294

> <Color>
0.086

> <Negative vol penalty>
0.000

$$$$

  -OEChem-04052302063D

 83 91  0     1  0  0  0  0  0999 V2000
  -27.3164  -34.1886   25.0003 C   0  0  0  0  0  0  0  0  0  0  0  0
  -27.6160  -32.9206   24.5126 C   0  0  0  0  0  0  0  0  0  0  0  0
  -24.8067   -8.9857   21.4906 C   0  0  0  0  0  0  0  0  0  0  0  0
  -23.1426  -10.6787   21.0418 C   0  0  0  0  0  0  0  0  0  0  0  0
  -26.0122  -34.4957   25.3857 C   0  0  0  0  0  0  0  0  0  0  0  0
  -26.6117  -31.9586   24.4112 C   0  0  0  0  0  0  0  0  0  0  0  0
  -26.7513  -29.4613   20.0078 C   0  0  0  0  0  0  0  0  0  0  0  0
  -24.6036  -19.6451   19.9181 C   0  0  0  0  0  0  0  0  0  0  0  0
  -25.2075  -18.4196   19.6372 C   0  0  0  0  0  0  0  0  0  0  0  0
  -23.9473   -8.3847   22.4103 C   0  0  0  0  0  0  0  0  0  0  0  0
  -22.2831  -10.0777   21.9614 C   0  0  0  0  0  0  0  0  0  0  0  0
  -27.7131  -28.4610   19.8733 C   0  0  0  0  0  0  0  0  0  0  0  0
  -21.2474   -6.3505   22.3360 C   0  0  0  0  0  0  0  0  0  0  0  0
  -21.1143   -4.9629   22.2880 C   0  0  0  0  0  0  0  0  0  0  0  0
  -27.2619  -19.2022   20.6393 C   0  0  0  0  0  0  0  0  0  0  0  0
  -26.0350  -26.7928   20.3425 C   0  0  0  0  0  0  0  0  0  0  0  0
  -21.9176   -4.8072   24.5612 C   0  0  0  0  0  0  0  0  0  0  0  0
  -24.4044  -10.1327   20.8064 C   0  0  0  0  0  0  0  0  0  0  0  0
  -26.6580  -20.4278   20.9202 C   0  0  0  0  0  0  0  0  0  0  0  0
  -25.3874  -10.4830   18.4786 C   0  0  0  0  0  0  0  0  0  0  0  0
  -24.9894  -33.5400   25.2799 C   0  0  0  0  0  0  0  0  0  0  0  0
  -25.4241  -29.1351   20.3219 C   0  0  0  0  0  0  0  0  0  0  0  0
  -25.2929  -32.2528   24.7968 C   0  0  0  0  0  0  0  0  0  0  0  0
  -25.0577  -27.7907   20.4779 C   0  0  0  0  0  0  0  0  0  0  0  0
  -25.3289  -20.6493   20.5596 C   0  0  0  0  0  0  0  0  0  0  0  0
  -26.5366  -18.1981   19.9978 C   0  0  0  0  0  0  0  0  0  0  0  0
  -22.6855   -8.9307   22.6457 C   0  0  0  0  0  0  0  0  0  0  0  0
  -27.3556  -27.1267   20.0435 C   0  0  0  0  0  0  0  0  0  0  0  0
  -21.7156   -6.9666   23.4965 C   0  0  0  0  0  0  0  0  0  0  0  0
  -21.4493   -4.1912   23.4006 C   0  0  0  0  0  0  0  0  0  0  0  0
  -22.0507   -6.1949   24.6092 C   0  0  0  0  0  0  0  0  0  0  0  0
  -25.2919  -10.7543   19.8567 C   0  0  0  0  0  0  0  0  0  0  0  0
  -26.3700  -11.3309   18.0290 C   0  0  0  0  0  0  0  0  0  0  0  0
  -27.4506  -21.4675   21.5977 C   0  0  0  0  0  0  0  0  0  0  0  0
  -28.5694  -22.0279   21.1120 C   0  0  0  0  0  0  0  0  0  0  0  0
  -24.6534   -9.5483   17.6766 C   0  0  0  0  0  0  0  0  0  0  0  0
  -23.4667  -29.7850   22.7406 C   0  0  0  0  0  0  0  0  0  0  0  0
  -21.2849  -28.2829   20.8682 C   0  0  0  0  0  0  0  0  0  0  0  0
  -20.6655  -26.0578   18.3558 C   0  0  0  0  0  0  0  0  0  0  0  0
  -28.4588  -16.5697   20.0028 C   0  0  0  0  0  0  0  0  0  0  0  0
  -23.6043  -33.9035   25.7533 C   0  0  0  0  0  0  0  0  0  0  0  0
  -24.3929  -30.2240   20.4372 C   0  0  0  0  0  0  0  0  0  0  0  0
  -23.6421  -27.3863   20.7958 C   0  0  0  0  0  0  0  0  0  0  0  0
  -22.5219  -32.9454   25.2627 C   0  0  0  0  0  0  0  0  0  0  0  0
  -30.3321  -13.5843   19.4979 C   0  0  0  0  0  0  0  0  0  0  0  0
  -22.9612  -31.4979   25.4595 C   0  0  0  0  0  0  0  0  0  0  0  0
  -29.2606  -12.4959   19.4011 C   0  0  0  0  0  0  0  0  0  0  0  0
  -29.9596  -14.6577   20.5191 C   0  0  0  0  0  0  0  0  0  0  0  0
  -27.5614  -14.1705   20.2352 C   0  0  0  0  0  0  0  0  0  0  0  0
  -24.2257  -31.1900   24.6486 C   0  0  1  0  0  0  0  0  0  0  0  0
  -23.1798  -29.8128   21.2659 C   0  0  1  0  0  0  0  0  0  0  0  0
  -27.8617  -13.1011   19.1722 C   0  0  2  0  0  0  0  0  0  0  0  0
  -24.6496  -21.9502   20.8447 C   0  0  0  0  0  0  0  0  0  0  0  0
  -18.7805  -25.0104   17.0723 C   0  0  0  0  0  0  0  0  0  0  0  0
  -20.6715  -26.4755   23.2487 C   0  0  0  0  0  0  0  0  0  0  0  0
  -19.5312  -24.9013   21.6708 C   0  0  0  0  0  0  0  0  0  0  0  0
  -18.6621  -27.2216   21.9603 C   0  0  0  0  0  0  0  0  0  0  0  0
  -21.6345  -27.1771   15.7931 C   0  0  0  0  0  0  0  0  0  0  0  0
  -29.3438  -23.0909   21.8386 C   0  0  0  0  0  0  0  0  0  0  0  0
  -29.4693  -24.3585   20.9954 C   0  0  0  0  0  0  0  0  0  0  0  0
  -28.1068  -24.9642   20.6876 C   0  0  0  0  0  0  0  0  0  1  0  0
  -20.8228  -26.8557   20.6995 C   0  0  1  0  0  0  0  0  0  0  0  0
  -19.7855  -26.1506   17.1223 C   0  0  2  0  0  0  0  0  0  0  0  0
  -19.9491  -26.3710   21.8908 C   0  0  0  0  0  0  0  0  0  0  0  0
  -26.1459  -11.7004   20.2563 N   0  0  0  0  0  0  0  0  0  0  0  0
  -26.7873  -12.0309   19.1226 N   0  0  0  0  0  0  0  0  0  0  0  0
  -22.6714  -28.4879   20.9048 N   0  0  0  0  0  0  0  0  0  0  0  0
  -28.6241  -15.1882   20.2368 N   0  0  0  0  0  0  0  0  0  0  0  0
  -26.9091  -11.5383   16.8089 N   0  0  0  0  0  0  0  0  0  0  0  0
  -23.6795   -8.7548   18.2982 N   0  0  0  0  0  0  0  0  0  0  0  0
  -27.1497  -16.9529   19.7128 N   0  0  0  0  0  0  0  0  0  0  0  0
  -23.8961  -30.9943   23.2531 N   0  0  0  0  0  0  0  0  0  0  0  0
  -20.1545  -26.7934   19.4042 N   0  0  0  0  0  0  0  0  0  0  0  0
  -20.6178  -26.0979   15.8871 N   0  3  0  0  0  0  0  0  0  0  0  0
  -24.8665   -9.4089   16.4483 O   0  0  0  0  0  0  0  0  0  0  0  0
  -23.3086  -28.7439   23.3673 O   0  0  0  0  0  0  0  0  0  0  0  0
  -20.4467  -29.1835   20.9568 O   0  0  0  0  0  0  0  0  0  0  0  0
  -21.7005  -25.3958   18.3874 O   0  0  0  0  0  0  0  0  0  0  0  0
  -29.4132  -17.3511   20.0290 O   0  0  0  0  0  0  0  0  0  0  0  0
  -21.8465   -8.3444   23.5429 O   0  0  0  0  0  0  0  0  0  0  0  0
  -28.2926  -26.1484   19.9135 O   0  0  0  0  0  0  0  0  0  1  0  0
  -21.3200   -2.8588   23.3549 F   0  0  0  0  0  0  0  0  0  0  0  0
  -22.5000   -6.7812   25.7273 F   0  0  0  0  0  0  0  0  0  0  0  0
  1  2  1  0  0  0  0
  1  5  2  0  0  0  0
  2  6  2  0  0  0  0
  3 10  2  0  0  0  0
  3 18  1  0  0  0  0
  4 11  1  0  0  0  0
  4 18  2  0  0  0  0
  5 21  1  0  0  0  0
  6 23  1  0  0  0  0
  7 12  2  0  0  0  0
  7 22  1  0  0  0  0
  8  9  2  0  0  0  0
  8 25  1  0  0  0  0
  9 26  1  0  0  0  0
 10 27  1  0  0  0  0
 11 27  2  0  0  0  0
 12 28  1  0  0  0  0
 13 14  2  0  0  0  0
 13 29  1  0  0  0  0
 14 30  1  0  0  0  0
 15 19  1  0  0  0  0
 15 26  2  0  0  0  0
 16 24  1  0  0  0  0
 16 28  2  0  0  0  0
 17 30  2  0  0  0  0
 17 31  1  0  0  0  0
 18 32  1  0  0  0  0
 19 25  2  0  0  0  0
 19 34  1  0  0  0  0
 20 32  1  0  0  0  0
 20 33  2  0  0  0  0
 20 36  1  0  0  0  0
 21 23  2  0  0  0  0
 21 41  1  0  0  0  0
 22 24  2  0  0  0  0
 22 42  1  0  0  0  0
 23 50  1  0  0  0  0
 24 43  1  0  0  0  0
 25 53  1  0  0  0  0
 26 71  1  0  0  0  0
 27 80  1  0  0  0  0
 28 81  1  0  0  0  0
 29 31  2  0  0  0  0
 29 80  1  0  0  0  0
 30 82  1  0  0  0  0
 31 83  1  0  0  0  0
 32 65  2  0  0  0  0
 33 66  1  0  0  0  0
 33 69  1  0  0  0  0
 34 35  2  0  0  0  0
 35 59  1  0  0  0  0
 36 70  1  0  0  0  0
 36 75  2  0  0  0  0
 37 51  1  0  0  0  0
 37 72  1  0  0  0  0
 37 76  2  0  0  0  0
 38 62  1  0  0  0  0
 38 67  1  0  0  0  0
 38 77  2  0  0  0  0
 39 63  1  0  0  0  0
 39 73  1  0  0  0  0
 39 78  2  0  0  0  0
 40 68  1  0  0  0  0
 40 71  1  0  0  0  0
 40 79  2  0  0  0  0
 41 44  1  0  0  0  0
 42 51  1  0  0  0  0
 43 67  1  0  0  0  0
 44 46  1  0  0  0  0
 45 47  1  0  0  0  0
 45 48  1  0  0  0  0
 46 50  1  0  0  0  0
 47 52  1  0  0  0  0
 48 68  1  0  0  0  0
 49 52  1  0  0  0  0
 49 68  1  0  0  0  0
 50 72  1  0  0  0  0
 51 67  1  0  0  0  0
 52 66  1  0  0  0  0
 54 63  1  0  0  0  0
 55 64  1  0  0  0  0
 56 64  1  0  0  0  0
 57 64  1  0  0  0  0
 58 74  1  0  0  0  0
 59 60  1  0  0  0  0
 60 61  1  0  0  0  0
 61 81  1  0  0  0  0
 62 64  1  0  0  0  0
 62 73  1  0  0  0  0
 63 74  1  0  0  0  0
 65 66  1  0  0  0  0
M  CHG  1  74   1
M  ISO  4  40 100  61 101  71 100  81 101
M  END
> <Batch ID>
0124

> <Smiles>
CNC(C)C(=O)NC(C(=O)N1Cc2cc([101O:1][101CH2:1]CCC=Cc3cc([100NH:0][100C:0](=O)N4CCCC(n5nc(-c6ccc(Oc7ccc(F)cc7F)cc6)c(C(N)=O)c5N)C4)ccc3C)ccc2CC1C(=O)NC1CCCc2ccccc21)C(C)(C)C

> <Shape>
0.308

> <Color>
0.116

> <Negative vol penalty>
0.000

$$$$

  -OEChem-04052302063D

 86 94  0     1  0  0  0  0  0999 V2000
  -18.1556  -25.4363   21.4991 C   0  0  0  0  0  0  0  0  0  0  0  0
  -19.5260  -25.4264   21.2594 C   0  0  0  0  0  0  0  0  0  0  0  0
  -22.0246  -10.2901   20.5675 C   0  0  0  0  0  0  0  0  0  0  0  0
  -22.9941  -10.1001   22.7723 C   0  0  0  0  0  0  0  0  0  0  0  0
  -17.4748  -26.6491   21.5964 C   0  0  0  0  0  0  0  0  0  0  0  0
  -20.2162  -26.6294   21.1159 C   0  0  0  0  0  0  0  0  0  0  0  0
  -24.5754  -26.6876   23.6925 C   0  0  0  0  0  0  0  0  0  0  0  0
  -22.0400   -8.9011   20.4410 C   0  0  0  0  0  0  0  0  0  0  0  0
  -23.0095   -8.7111   22.6458 C   0  0  0  0  0  0  0  0  0  0  0  0
  -25.6560  -26.0090   23.1310 C   0  0  0  0  0  0  0  0  0  0  0  0
  -20.8048   -6.1633   22.9073 C   0  0  0  0  0  0  0  0  0  0  0  0
  -20.3614   -5.4101   23.9943 C   0  0  0  0  0  0  0  0  0  0  0  0
  -27.8658  -20.7969   18.0047 C   0  0  0  0  0  0  0  0  0  0  0  0
  -26.5382  -28.1008   22.3154 C   0  0  0  0  0  0  0  0  0  0  0  0
  -29.1158  -22.0443   16.3560 C   0  0  0  0  0  0  0  0  0  0  0  0
  -22.5250   -4.3448   24.1389 C   0  0  0  0  0  0  0  0  0  0  0  0
  -22.5017  -10.8897   21.7331 C   0  0  0  0  0  0  0  0  0  0  0  0
  -27.4669  -19.8940   17.0192 C   0  0  0  0  0  0  0  0  0  0  0  0
  -21.4498  -13.1193   22.3888 C   0  0  0  0  0  0  0  0  0  0  0  0
  -18.1588  -27.8678   21.4635 C   0  0  0  0  0  0  0  0  0  0  0  0
  -24.4622  -28.0791   23.5601 C   0  0  0  0  0  0  0  0  0  0  0  0
  -19.5437  -27.8597   21.2101 C   0  0  0  0  0  0  0  0  0  0  0  0
  -25.4565  -28.7951   22.8784 C   0  0  0  0  0  0  0  0  0  0  0  0
  -28.7170  -21.1414   15.3704 C   0  0  0  0  0  0  0  0  0  0  0  0
  -27.8925  -20.0662   15.7021 C   0  0  0  0  0  0  0  0  0  0  0  0
  -22.5324   -8.1116   21.4801 C   0  0  0  0  0  0  0  0  0  0  0  0
  -26.6362  -26.7152   22.4398 C   0  0  0  0  0  0  0  0  0  0  0  0
  -22.1084   -6.0071   22.4360 C   0  0  0  0  0  0  0  0  0  0  0  0
  -28.6902  -21.8721   17.6731 C   0  0  0  0  0  0  0  0  0  0  0  0
  -21.2215   -4.5009   24.6102 C   0  0  0  0  0  0  0  0  0  0  0  0
  -22.9685   -5.0979   23.0518 C   0  0  0  0  0  0  0  0  0  0  0  0
  -22.4866  -12.3245   21.8642 C   0  0  0  0  0  0  0  0  0  0  0  0
  -21.9215  -14.4057   22.2932 C   0  0  0  0  0  0  0  0  0  0  0  0
  -26.6061  -18.7814   17.4003 C   0  0  0  0  0  0  0  0  0  0  0  0
  -26.9070  -17.8408   18.3184 C   0  0  0  0  0  0  0  0  0  0  0  0
  -20.1745  -12.7296   22.9155 C   0  0  0  0  0  0  0  0  0  0  0  0
  -25.9215  -16.7782   18.6021 C   0  0  0  0  0  0  0  0  0  0  0  0
  -22.3515  -30.0402   22.2175 C   0  0  0  0  0  0  0  0  0  0  0  0
  -28.3559  -24.3688   20.2851 C   0  0  0  0  0  0  0  0  0  0  0  0
  -24.1882  -32.3313   23.5959 C   0  0  0  0  0  0  0  0  0  0  0  0
  -27.2306  -33.2430   24.8446 C   0  0  0  0  0  0  0  0  0  0  0  0
  -17.3719  -29.1528   21.5294 C   0  0  0  0  0  0  0  0  0  0  0  0
  -23.3042  -28.7995   24.1946 C   0  0  0  0  0  0  0  0  0  0  0  0
  -25.3920  -30.2920   22.7255 C   0  0  0  0  0  0  0  0  0  0  0  0
  -18.2418  -30.3897   21.7382 C   0  0  0  0  0  0  0  0  0  0  0  0
  -25.9704  -16.9277   22.2637 C   0  0  0  0  0  0  0  0  0  0  0  0
  -19.4425  -30.3628   20.7978 C   0  0  0  0  0  0  0  0  0  0  0  0
  -25.0129  -15.7927   22.6167 C   0  0  0  0  0  0  0  0  0  0  0  0
  -26.7771  -16.6237   21.0022 C   0  0  0  0  0  0  0  0  0  0  0  0
  -24.9740  -15.1373   20.1777 C   0  0  0  0  0  0  0  0  0  0  0  0
  -20.3318  -29.1443   21.0733 C   0  0  1  0  0  0  0  0  0  0  0  0
  -23.0228  -30.1565   23.5567 C   0  0  1  0  0  0  0  0  0  0  0  0
  -24.1184  -15.4422   21.4171 C   0  0  1  0  0  0  0  0  0  0  0  0
  -29.1888  -21.3486   13.9682 C   0  0  0  0  0  0  0  0  0  0  0  0
  -26.3657  -19.6690   13.7533 C   0  0  0  0  0  0  0  0  0  0  0  0
  -28.4370  -35.1921   25.8659 C   0  0  0  0  0  0  0  0  0  0  0  0
  -24.4076  -33.6337   20.8453 C   0  0  0  0  0  0  0  0  0  0  0  0
  -26.3374  -34.9736   21.7107 C   0  0  0  0  0  0  0  0  0  0  0  0
  -24.0786  -35.2376   22.7357 C   0  0  0  0  0  0  0  0  0  0  0  0
  -27.7466  -31.7585   27.3523 C   0  0  0  0  0  0  0  0  0  0  0  0
  -27.4721  -19.1028   14.6357 C   0  0  0  0  0  0  0  0  0  0  0  0
  -27.4667  -24.7124   21.4626 C   0  0  0  0  0  0  0  0  0  1  0  0
  -28.1982  -22.9704   19.7243 C   0  0  0  0  0  0  0  0  0  0  0  0
  -25.3998  -33.1272   23.1745 C   0  0  1  0  0  0  0  0  0  0  0  0
  -27.6222  -33.9369   26.1367 C   0  0  2  0  0  0  0  0  0  0  0  0
  -25.0564  -34.2146   22.1176 C   0  0  0  0  0  0  0  0  0  0  0  0
  -23.5375  -13.0456   21.4647 N   0  0  0  0  0  0  0  0  0  0  0  0
  -23.1635  -14.3071   21.7384 N   0  0  0  0  0  0  0  0  0  0  0  0
  -25.9032  -16.2344   19.8853 N   0  0  0  0  0  0  0  0  0  0  0  0
  -24.2371  -30.9504   23.3582 N   0  0  0  0  0  0  0  0  0  0  0  0
  -21.3908  -15.6004   22.6303 N   0  0  0  0  0  0  0  0  0  0  0  0
  -19.8500  -11.3664   22.9399 N   0  0  0  0  0  0  0  0  0  0  0  0
  -21.1448  -29.3677   22.2496 N   0  0  0  0  0  0  0  0  0  0  0  0
  -25.9905  -33.6515   24.4010 N   0  0  0  0  0  0  0  0  0  0  0  0
  -28.4350  -33.0239   26.9892 N   0  3  0  0  0  0  0  0  0  0  0  0
  -19.3406  -13.5669   23.3364 O   0  0  0  0  0  0  0  0  0  0  0  0
  -25.1768  -16.4331   17.6829 O   0  0  0  0  0  0  0  0  0  0  0  0
  -22.8878  -30.5261   21.2286 O   0  0  0  0  0  0  0  0  0  0  0  0
  -29.1567  -25.1752   19.8143 O   0  0  0  0  0  0  0  0  0  0  0  0
  -23.2364  -32.9124   24.1232 O   0  0  0  0  0  0  0  0  0  0  0  0
  -27.9541  -32.4236   24.2828 O   0  0  0  0  0  0  0  0  0  0  0  0
  -22.5474   -6.7562   21.3572 O   0  0  0  0  0  0  0  0  0  0  0  0
  -27.6917  -26.0551   21.8902 O   0  0  0  0  0  0  0  0  0  1  0  0
  -29.0834  -22.7624   18.6441 O   0  0  0  0  0  0  0  0  0  0  0  0
  -20.7959   -3.7788   25.6550 F   0  0  0  0  0  0  0  0  0  0  0  0
  -24.2222   -4.9444   22.6042 F   0  0  0  0  0  0  0  0  0  0  0  0
  1  2  1  0  0  0  0
  1  5  2  0  0  0  0
  2  6  2  0  0  0  0
  3  8  2  0  0  0  0
  3 17  1  0  0  0  0
  4  9  1  0  0  0  0
  4 17  2  0  0  0  0
  5 20  1  0  0  0  0
  6 22  1  0  0  0  0
  7 10  2  0  0  0  0
  7 21  1  0  0  0  0
  8 26  1  0  0  0  0
  9 26  2  0  0  0  0
 10 27  1  0  0  0  0
 11 12  2  0  0  0  0
 11 28  1  0  0  0  0
 12 30  1  0  0  0  0
 13 18  1  0  0  0  0
 13 29  2  0  0  0  0
 14 23  1  0  0  0  0
 14 27  2  0  0  0  0
 15 24  2  0  0  0  0
 15 29  1  0  0  0  0
 16 30  2  0  0  0  0
 16 31  1  0  0  0  0
 17 32  1  0  0  0  0
 18 25  2  0  0  0  0
 18 34  1  0  0  0  0
 19 32  1  0  0  0  0
 19 33  2  0  0  0  0
 19 36  1  0  0  0  0
 20 22  2  0  0  0  0
 20 42  1  0  0  0  0
 21 23  2  0  0  0  0
 21 43  1  0  0  0  0
 22 51  1  0  0  0  0
 23 44  1  0  0  0  0
 24 25  1  0  0  0  0
 24 54  1  0  0  0  0
 25 61  1  0  0  0  0
 26 82  1  0  0  0  0
 27 83  1  0  0  0  0
 28 31  2  0  0  0  0
 28 82  1  0  0  0  0
 29 84  1  0  0  0  0
 30 85  1  0  0  0  0
 31 86  1  0  0  0  0
 32 67  2  0  0  0  0
 33 68  1  0  0  0  0
 33 71  1  0  0  0  0
 34 35  2  0  0  0  0
 35 37  1  0  0  0  0
 36 72  1  0  0  0  0
 36 76  2  0  0  0  0
 37 69  1  0  0  0  0
 37 77  2  0  0  0  0
 38 52  1  0  0  0  0
 38 73  1  0  0  0  0
 38 78  2  0  0  0  0
 39 62  1  0  0  0  0
 39 63  1  0  0  0  0
 39 79  2  0  0  0  0
 40 64  1  0  0  0  0
 40 70  1  0  0  0  0
 40 80  2  0  0  0  0
 41 65  1  0  0  0  0
 41 74  1  0  0  0  0
 41 81  2  0  0  0  0
 42 45  1  0  0  0  0
 43 52  1  0  0  0  0
 44 70  1  0  0  0  0
 45 47  1  0  0  0  0
 46 48  1  0  0  0  0
 46 49  1  0  0  0  0
 47 51  1  0  0  0  0
 48 53  1  0  0  0  0
 49 69  1  0  0  0  0
 50 53  1  0  0  0  0
 50 69  1  0  0  0  0
 51 73  1  0  0  0  0
 52 70  1  0  0  0  0
 53 68  1  0  0  0  0
 55 61  1  0  0  0  0
 56 65  1  0  0  0  0
 57 66  1  0  0  0  0
 58 66  1  0  0  0  0
 59 66  1  0  0  0  0
 60 75  1  0  0  0  0
 62 83  1  0  0  0  0
 63 84  1  0  0  0  0
 64 66  1  0  0  0  0
 64 74  1  0  0  0  0
 65 75  1  0  0  0  0
 67 68  1  0  0  0  0
M  CHG  1  75   1
M  ISO  4  35 100  37 100  62 101  83 101
M  END
> <Batch ID>
0124

> <Smiles>
CCc1c(C)cc(OCC(=O)[101CH2:1][101O:1]c2ccc3c(c2)CN(C(=O)C(NC(=O)C(C)NC)C(C)(C)C)C(C(=O)NC2CCCc4ccccc42)C3)cc1C=[100CH:0][100C:0](=O)N1CCCC(n2nc(-c3ccc(Oc4ccc(F)cc4F)cc3)c(C(N)=O)c2N)C1

> <Shape>
0.255

> <Color>
0.102

> <Negative vol penalty>
0.000

$$$$

  -OEChem-04052302062D

  0  0  0     0  0  0  0  0  0999 V2000
M  END
$$$$

  -OEChem-04052302063D

 83 91  0     1  0  0  0  0  0999 V2000
  -26.3770  -37.8017   21.7309 C   0  0  0  0  0  0  0  0  0  0  0  0
  -26.9709  -36.7991   20.9710 C   0  0  0  0  0  0  0  0  0  0  0  0
  -23.9100   -9.3141   20.3643 C   0  0  0  0  0  0  0  0  0  0  0  0
  -22.8697  -11.2573   21.3539 C   0  0  0  0  0  0  0  0  0  0  0  0
  -25.7441  -37.4825   22.9315 C   0  0  0  0  0  0  0  0  0  0  0  0
  -26.9333  -35.4768   21.4118 C   0  0  0  0  0  0  0  0  0  0  0  0
  -26.5936  -28.7689   18.9208 C   0  0  0  0  0  0  0  0  0  0  0  0
  -22.9573   -8.4953   20.9706 C   0  0  0  0  0  0  0  0  0  0  0  0
  -21.9170  -10.4385   21.9601 C   0  0  0  0  0  0  0  0  0  0  0  0
  -27.2502  -27.5440   19.0322 C   0  0  0  0  0  0  0  0  0  0  0  0
  -22.3862   -7.1851   24.0335 C   0  0  0  0  0  0  0  0  0  0  0  0
  -22.8358   -6.0221   24.6586 C   0  0  0  0  0  0  0  0  0  0  0  0
  -28.2030  -20.3520   18.4837 C   0  0  0  0  0  0  0  0  0  0  0  0
  -26.0600  -27.0994   21.0828 C   0  0  0  0  0  0  0  0  0  0  0  0
  -29.9150  -19.1488   20.3288 C   0  0  0  0  0  0  0  0  0  0  0  0
  -21.4642   -4.6954   23.1768 C   0  0  0  0  0  0  0  0  0  0  0  0
  -23.8662  -10.6951   20.5560 C   0  0  0  0  0  0  0  0  0  0  0  0
  -29.0655  -21.1364   19.2494 C   0  0  0  0  0  0  0  0  0  0  0  0
  -24.7695  -12.1447   18.6612 C   0  0  0  0  0  0  0  0  0  0  0  0
  -25.6903  -36.1542   23.3825 C   0  0  0  0  0  0  0  0  0  0  0  0
  -25.6718  -29.1737   19.8970 C   0  0  0  0  0  0  0  0  0  0  0  0
  -26.3003  -35.1397   22.6203 C   0  0  0  0  0  0  0  0  0  0  0  0
  -25.3912  -28.3287   20.9802 C   0  0  0  0  0  0  0  0  0  0  0  0
  -28.1964  -18.9659   18.6405 C   0  0  0  0  0  0  0  0  0  0  0  0
  -29.9215  -20.5348   20.1720 C   0  0  0  0  0  0  0  0  0  0  0  0
  -29.0524  -18.3644   19.5630 C   0  0  0  0  0  0  0  0  0  0  0  0
  -21.9607   -9.0575   21.7684 C   0  0  0  0  0  0  0  0  0  0  0  0
  -26.9856  -26.7104   20.1148 C   0  0  0  0  0  0  0  0  0  0  0  0
  -21.4756   -7.1033   22.9801 C   0  0  0  0  0  0  0  0  0  0  0  0
  -22.3748   -4.7772   24.2303 C   0  0  0  0  0  0  0  0  0  0  0  0
  -21.0146   -5.8585   22.5517 C   0  0  0  0  0  0  0  0  0  0  0  0
  -24.8504  -11.5414   19.9305 C   0  0  0  0  0  0  0  0  0  0  0  0
  -25.9473  -12.8401   18.5358 C   0  0  0  0  0  0  0  0  0  0  0  0
  -29.0492  -22.5967   19.0613 C   0  0  0  0  0  0  0  0  0  0  0  0
  -27.9777  -23.3871   19.2303 C   0  0  0  0  0  0  0  0  0  0  0  0
  -23.7232  -12.0822   17.6829 C   0  0  0  0  0  0  0  0  0  0  0  0
  -25.4931  -31.5976   21.9455 C   0  0  0  0  0  0  0  0  0  0  0  0
  -22.5568  -30.3596   22.5518 C   0  0  0  0  0  0  0  0  0  0  0  0
  -20.4926  -27.6423   22.5068 C   0  0  0  0  0  0  0  0  0  0  0  0
  -29.8533  -16.2199   20.6149 C   0  0  0  0  0  0  0  0  0  0  0  0
  -25.0361  -35.8644   24.7102 C   0  0  0  0  0  0  0  0  0  0  0  0
  -24.9521  -30.4861   19.7483 C   0  0  0  0  0  0  0  0  0  0  0  0
  -24.3952  -28.7078   22.0444 C   0  0  0  0  0  0  0  0  0  0  0  0
  -24.7145  -34.3871   24.9211 C   0  0  0  0  0  0  0  0  0  0  0  0
  -30.1421  -12.7518   21.3672 C   0  0  0  0  0  0  0  0  0  0  0  0
  -25.9092  -33.5204   24.5362 C   0  0  0  0  0  0  0  0  0  0  0  0
  -28.7845  -12.1774   20.9561 C   0  0  0  0  0  0  0  0  0  0  0  0
  -30.0070  -14.1465   21.9758 C   0  0  0  0  0  0  0  0  0  0  0  0
  -27.9106  -14.5391   20.7429 C   0  0  0  0  0  0  0  0  0  0  0  0
  -26.2588  -33.6901   23.0528 C   0  0  1  0  0  0  0  0  0  0  0  0
  -24.4142  -31.0257   21.0700 C   0  0  1  0  0  0  0  0  0  0  0  0
  -28.0023  -13.1622   20.0651 C   0  0  2  0  0  0  0  0  0  0  0  0
  -30.8588  -21.3444   21.0095 C   0  0  0  0  0  0  0  0  0  0  0  0
  -27.9735  -17.4557   16.6516 C   0  0  0  0  0  0  0  0  0  0  0  0
  -18.1606  -26.9300   23.0999 C   0  0  0  0  0  0  0  0  0  0  0  0
  -23.3262  -30.3075   25.5040 C   0  0  0  0  0  0  0  0  0  0  0  0
  -21.4063  -28.7514   25.9051 C   0  0  0  0  0  0  0  0  0  0  0  0
  -20.9836  -31.0562   25.0495 C   0  0  0  0  0  0  0  0  0  0  0  0
  -19.8734  -26.9272   19.7025 C   0  0  0  0  0  0  0  0  0  0  0  0
  -27.2612  -18.1507   17.8076 C   0  0  0  0  0  0  0  0  0  0  0  0
  -28.0064  -24.8662   19.0135 C   0  0  0  0  0  0  0  0  0  1  0  0
  -22.0074  -29.3311   23.5106 C   0  0  1  0  0  0  0  0  0  0  0  0
  -19.0706  -27.4658   22.0055 C   0  0  2  0  0  0  0  0  0  0  0  0
  -21.9511  -29.8550   24.9734 C   0  0  0  0  0  0  0  0  0  0  0  0
  -25.9897  -11.8282   20.5660 N   0  0  0  0  0  0  0  0  0  0  0  0
  -26.6354  -12.6194   19.6924 N   0  0  0  0  0  0  0  0  0  0  0  0
  -23.7220  -30.0038   21.8579 N   0  0  0  0  0  0  0  0  0  0  0  0
  -29.2590  -15.0257   21.0745 N   0  0  0  0  0  0  0  0  0  0  0  0
  -26.4510  -13.6127   17.5500 N   0  0  0  0  0  0  0  0  0  0  0  0
  -22.5817  -11.3224   17.9731 N   0  0  0  0  0  0  0  0  0  0  0  0
  -29.0599  -16.9582   19.7373 N   0  0  0  0  0  0  0  0  0  0  0  0
  -25.3358  -32.9413   22.2272 N   0  0  0  0  0  0  0  0  0  0  0  0
  -20.7149  -28.9209   22.9727 N   0  0  0  0  0  0  0  0  0  0  0  0
  -19.0397  -26.5129   20.8601 N   0  3  0  0  0  0  0  0  0  0  0  0
  -23.8053  -12.6689   16.5772 O   0  0  0  0  0  0  0  0  0  0  0  0
  -26.4004  -30.8732   22.3376 O   0  0  0  0  0  0  0  0  0  0  0  0
  -21.9697  -31.4362   22.4181 O   0  0  0  0  0  0  0  0  0  0  0  0
  -21.3220  -26.7356   22.4904 O   0  0  0  0  0  0  0  0  0  0  0  0
  -30.9935  -16.5489   20.9520 O   0  0  0  0  0  0  0  0  0  0  0  0
  -21.0308   -8.2589   22.3599 O   0  0  0  0  0  0  0  0  0  0  0  0
  -27.6256  -25.5146   20.2263 O   0  0  0  0  0  0  0  0  0  1  0  0
  -22.8078   -3.6603   24.8297 F   0  0  0  0  0  0  0  0  0  0  0  0
  -20.1406   -5.7735   21.5394 F   0  0  0  0  0  0  0  0  0  0  0  0
  1  2  1  0  0  0  0
  1  5  2  0  0  0  0
  2  6  2  0  0  0  0
  3  8  2  0  0  0  0
  3 17  1  0  0  0  0
  4  9  1  0  0  0  0
  4 17  2  0  0  0  0
  5 20  1  0  0  0  0
  6 22  1  0  0  0  0
  7 10  2  0  0  0  0
  7 21  1  0  0  0  0
  8 27  1  0  0  0  0
  9 27  2  0  0  0  0
 10 28  1  0  0  0  0
 11 12  2  0  0  0  0
 11 29  1  0  0  0  0
 12 30  1  0  0  0  0
 13 18  2  0  0  0  0
 13 24  1  0  0  0  0
 14 23  1  0  0  0  0
 14 28  2  0  0  0  0
 15 25  2  0  0  0  0
 15 26  1  0  0  0  0
 16 30  2  0  0  0  0
 16 31  1  0  0  0  0
 17 32  1  0  0  0  0
 18 25  1  0  0  0  0
 18 34  1  0  0  0  0
 19 32  1  0  0  0  0
 19 33  2  0  0  0  0
 19 36  1  0  0  0  0
 20 22  2  0  0  0  0
 20 41  1  0  0  0  0
 21 23  2  0  0  0  0
 21 42  1  0  0  0  0
 22 50  1  0  0  0  0
 23 43  1  0  0  0  0
 24 26  2  0  0  0  0
 24 60  1  0  0  0  0
 25 53  1  0  0  0  0
 26 71  1  0  0  0  0
 27 80  1  0  0  0  0
 28 81  1  0  0  0  0
 29 31  2  0  0  0  0
 29 80  1  0  0  0  0
 30 82  1  0  0  0  0
 31 83  1  0  0  0  0
 32 65  2  0  0  0  0
 33 66  1  0  0  0  0
 33 69  1  0  0  0  0
 34 35  2  0  0  0  0
 35 61  1  0  0  0  0
 36 70  1  0  0  0  0
 36 75  2  0  0  0  0
 37 51  1  0  0  0  0
 37 72  1  0  0  0  0
 37 76  2  0  0  0  0
 38 62  1  0  0  0  0
 38 67  1  0  0  0  0
 38 77  2  0  0  0  0
 39 63  1  0  0  0  0
 39 73  1  0  0  0  0
 39 78  2  0  0  0  0
 40 68  1  0  0  0  0
 40 71  1  0  0  0  0
 40 79  2  0  0  0  0
 41 44  1  0  0  0  0
 42 51  1  0  0  0  0
 43 67  1  0  0  0  0
 44 46  1  0  0  0  0
 45 47  1  0  0  0  0
 45 48  1  0  0  0  0
 46 50  1  0  0  0  0
 47 52  1  0  0  0  0
 48 68  1  0  0  0  0
 49 52  1  0  0  0  0
 49 68  1  0  0  0  0
 50 72  1  0  0  0  0
 51 67  1  0  0  0  0
 52 66  1  0  0  0  0
 54 60  1  0  0  0  0
 55 63  1  0  0  0  0
 56 64  1  0  0  0  0
 57 64  1  0  0  0  0
 58 64  1  0  0  0  0
 59 74  1  0  0  0  0
 61 81  1  0  0  0  0
 62 64  1  0  0  0  0
 62 73  1  0  0  0  0
 63 74  1  0  0  0  0
 65 66  1  0  0  0  0
M  CHG  1  74   1
M  ISO  4  40 100  61 101  71 100  81 101
M  END
> <Batch ID>
0124

> <Smiles>
CCc1cc(C=C[101CH2:1][101O:1]c2ccc3c(c2)CN(C(=O)C(NC(=O)C(C)NC)C(C)(C)C)C(C(=O)NC2CCCc4ccccc42)C3)c(C)cc1[100NH:0][100C:0](=O)N1CCCC(n2nc(-c3ccc(Oc4ccc(F)cc4F)cc3)c(C(N)=O)c2N)C1

> <Shape>
0.366

> <Color>
0.091

> <Negative vol penalty>
0.000

$$$$

  -OEChem-04052302063D

 84 92  0     1  0  0  0  0  0999 V2000
  -34.1476  -31.5447   27.1802 C   0  0  0  0  0  0  0  0  0  0  0  0
  -34.2453  -30.3497   26.4746 C   0  0  0  0  0  0  0  0  0  0  0  0
  -23.0000   -9.8941   19.9810 C   0  0  0  0  0  0  0  0  0  0  0  0
  -23.7250   -9.9448   22.2851 C   0  0  0  0  0  0  0  0  0  0  0  0
  -33.9522  -32.7433   26.4954 C   0  0  0  0  0  0  0  0  0  0  0  0
  -34.1466  -30.3526   25.0837 C   0  0  0  0  0  0  0  0  0  0  0  0
  -37.6713  -27.4603   22.8801 C   0  0  0  0  0  0  0  0  0  0  0  0
  -22.2332   -8.7598   20.2472 C   0  0  0  0  0  0  0  0  0  0  0  0
  -22.9582   -8.8105   22.5514 C   0  0  0  0  0  0  0  0  0  0  0  0
  -37.4586  -26.0824   22.8852 C   0  0  0  0  0  0  0  0  0  0  0  0
  -23.2017   -5.4715   22.0793 C   0  0  0  0  0  0  0  0  0  0  0  0
  -23.7889   -4.4541   22.8314 C   0  0  0  0  0  0  0  0  0  0  0  0
  -36.6646  -26.2027   20.6105 C   0  0  0  0  0  0  0  0  0  0  0  0
  -30.4023  -18.9671   23.1019 C   0  0  0  0  0  0  0  0  0  0  0  0
  -22.0650   -4.6974   24.5065 C   0  0  0  0  0  0  0  0  0  0  0  0
  -31.8795  -17.2676   21.5606 C   0  0  0  0  0  0  0  0  0  0  0  0
  -23.7460  -10.4866   21.0000 C   0  0  0  0  0  0  0  0  0  0  0  0
  -24.1320  -13.0021   20.8241 C   0  0  0  0  0  0  0  0  0  0  0  0
  -33.8607  -32.7621   25.0947 C   0  0  0  0  0  0  0  0  0  0  0  0
  -37.3715  -28.2226   21.7420 C   0  0  0  0  0  0  0  0  0  0  0  0
  -33.9485  -31.5524   24.3796 C   0  0  0  0  0  0  0  0  0  0  0  0
  -36.8768  -27.5897   20.5927 C   0  0  0  0  0  0  0  0  0  0  0  0
  -29.8498  -17.7561   22.7000 C   0  0  0  0  0  0  0  0  0  0  0  0
  -30.5959  -16.8845   21.9146 C   0  0  0  0  0  0  0  0  0  0  0  0
  -22.2122   -8.2180   21.5324 C   0  0  0  0  0  0  0  0  0  0  0  0
  -36.9525  -25.4538   21.7512 C   0  0  0  0  0  0  0  0  0  0  0  0
  -22.0461   -6.1019   22.5408 C   0  0  0  0  0  0  0  0  0  0  0  0
  -23.2206   -4.0670   24.0450 C   0  0  0  0  0  0  0  0  0  0  0  0
  -21.4778   -5.7148   23.7544 C   0  0  0  0  0  0  0  0  0  0  0  0
  -24.5388  -11.6580   20.7255 C   0  0  0  0  0  0  0  0  0  0  0  0
  -31.6947  -19.2569   22.6950 C   0  0  0  0  0  0  0  0  0  0  0  0
  -25.2419  -13.7244   20.4598 C   0  0  0  0  0  0  0  0  0  0  0  0
  -32.3252  -20.5276   23.0949 C   0  0  0  0  0  0  0  0  0  0  0  0
  -33.5799  -20.8883   22.7748 C   0  0  0  0  0  0  0  0  0  0  0  0
  -35.5232  -22.3321   22.7452 C   0  0  0  0  0  0  0  0  0  0  0  0
  -22.8641  -13.5488   21.2106 C   0  0  0  0  0  0  0  0  0  0  0  0
  -34.2532  -22.1341   23.1572 C   0  0  0  0  0  0  0  0  0  0  0  0
  -35.3659  -30.6041   21.1017 C   0  0  0  0  0  0  0  0  0  0  0  0
  -36.8975  -30.6069   18.2422 C   0  0  0  0  0  0  0  0  0  0  0  0
  -38.7362  -28.8864   15.9388 C   0  0  0  0  0  0  0  0  0  0  0  0
  -30.7216  -14.6841   20.6943 C   0  0  0  0  0  0  0  0  0  0  0  0
  -33.6021  -34.0764   24.4016 C   0  0  0  0  0  0  0  0  0  0  0  0
  -37.6318  -29.7040   21.7435 C   0  0  0  0  0  0  0  0  0  0  0  0
  -36.5579  -28.3600   19.3383 C   0  0  0  0  0  0  0  0  0  0  0  0
  -33.8830  -34.0396   22.9016 C   0  0  0  0  0  0  0  0  0  0  0  0
  -29.6029  -12.2317   18.3682 C   0  0  0  0  0  0  0  0  0  0  0  0
  -33.2655  -32.7944   22.2732 C   0  0  0  0  0  0  0  0  0  0  0  0
  -28.1522  -11.9743   18.7822 C   0  0  0  0  0  0  0  0  0  0  0  0
  -30.5034  -12.4748   19.5780 C   0  0  0  0  0  0  0  0  0  0  0  0
  -28.5881  -13.2641   20.9114 C   0  0  0  0  0  0  0  0  0  0  0  0
  -33.8712  -31.5177   22.8686 C   0  0  1  0  0  0  0  0  0  0  0  0
  -36.8073  -30.4566   20.7037 C   0  0  1  0  0  0  0  0  0  0  0  0
  -27.6305  -13.0780   19.7232 C   0  0  2  0  0  0  0  0  0  0  0  0
  -28.4583  -17.4172   23.1241 C   0  0  0  0  0  0  0  0  0  0  0  0
  -33.4743  -23.1201   23.9882 C   0  0  0  0  0  0  0  0  0  0  0  0
  -39.8079  -29.1428   13.6842 C   0  0  0  0  0  0  0  0  0  0  0  0
  -34.1592  -30.3731   16.9167 C   0  0  0  0  0  0  0  0  0  0  0  0
  -35.3170  -29.6858   14.8059 C   0  0  0  0  0  0  0  0  0  0  0  0
  -35.7382  -31.9438   15.7791 C   0  0  0  0  0  0  0  0  0  0  0  0
  -41.4352  -28.3599   17.0331 C   0  0  0  0  0  0  0  0  0  0  0  0
  -36.4165  -23.5050   23.0045 C   0  0  0  0  0  0  0  0  0  1  0  0
  -36.6979  -29.9029   16.9218 C   0  0  1  0  0  0  0  0  0  0  0  0
  -40.0051  -29.2490   15.1884 C   0  0  2  0  0  0  0  0  0  0  0  0
  -35.4822  -30.4619   16.1300 C   0  0  0  0  0  0  0  0  0  0  0  0
  -32.4502  -18.4355   21.9319 N   0  0  0  0  0  0  0  0  0  0  0  0
  -25.8081  -11.5312   20.3294 N   0  0  0  0  0  0  0  0  0  0  0  0
  -26.2084  -12.8049   20.1759 N   0  0  0  0  0  0  0  0  0  0  0  0
  -36.8236  -29.8071   19.3914 N   0  0  0  0  0  0  0  0  0  0  0  0
  -29.9485  -13.5358   20.4214 N   0  0  0  0  0  0  0  0  0  0  0  0
  -25.4757  -15.0501   20.3579 N   0  0  0  0  0  0  0  0  0  0  0  0
  -21.8321  -12.6649   21.5540 N   0  0  0  0  0  0  0  0  0  0  0  0
  -30.0775  -15.6395   21.4799 N   0  0  0  0  0  0  0  0  0  0  0  0
  -35.1781  -31.2657   22.3002 N   0  0  0  0  0  0  0  0  0  0  0  0
  -37.9687  -29.9989   16.2118 N   0  0  0  0  0  0  0  0  0  0  0  0
  -41.1176  -28.3390   15.5820 N   0  3  0  0  0  0  0  0  0  0  0  0
  -22.6477  -14.7842   21.2344 O   0  0  0  0  0  0  0  0  0  0  0  0
  -34.4891  -30.1524   20.3745 O   0  0  0  0  0  0  0  0  0  0  0  0
  -37.1183  -31.8205   18.2532 O   0  0  0  0  0  0  0  0  0  0  0  0
  -38.4524  -27.7314   16.2482 O   0  0  0  0  0  0  0  0  0  0  0  0
  -31.8603  -14.8228   20.2404 O   0  0  0  0  0  0  0  0  0  0  0  0
  -21.4639   -7.1113   21.7926 O   0  0  0  0  0  0  0  0  0  0  0  0
  -36.7433  -24.1092   21.7537 O   0  0  0  0  0  0  0  0  0  1  0  0
  -23.7837   -3.0889   24.7664 F   0  0  0  0  0  0  0  0  0  0  0  0
  -20.3670   -6.3159   24.2024 F   0  0  0  0  0  0  0  0  0  0  0  0
  1  2  1  0  0  0  0
  1  5  2  0  0  0  0
  2  6  2  0  0  0  0
  3  8  2  0  0  0  0
  3 17  1  0  0  0  0
  4  9  1  0  0  0  0
  4 17  2  0  0  0  0
  5 19  1  0  0  0  0
  6 21  1  0  0  0  0
  7 10  2  0  0  0  0
  7 20  1  0  0  0  0
  8 25  1  0  0  0  0
  9 25  2  0  0  0  0
 10 26  1  0  0  0  0
 11 12  2  0  0  0  0
 11 27  1  0  0  0  0
 12 28  1  0  0  0  0
 13 22  1  0  0  0  0
 13 26  2  0  0  0  0
 14 23  2  0  0  0  0
 14 31  1  0  0  0  0
 15 28  2  0  0  0  0
 15 29  1  0  0  0  0
 16 24  2  0  0  0  0
 16 65  1  0  0  0  0
 17 30  1  0  0  0  0
 18 30  1  0  0  0  0
 18 32  2  0  0  0  0
 18 36  1  0  0  0  0
 19 21  2  0  0  0  0
 19 42  1  0  0  0  0
 20 22  2  0  0  0  0
 20 43  1  0  0  0  0
 21 51  1  0  0  0  0
 22 44  1  0  0  0  0
 23 24  1  0  0  0  0
 23 54  1  0  0  0  0
 24 72  1  0  0  0  0
 25 81  1  0  0  0  0
 26 82  1  0  0  0  0
 27 29  2  0  0  0  0
 27 81  1  0  0  0  0
 28 83  1  0  0  0  0
 29 84  1  0  0  0  0
 30 66  2  0  0  0  0
 31 33  1  0  0  0  0
 31 65  2  0  0  0  0
 32 67  1  0  0  0  0
 32 70  1  0  0  0  0
 33 34  2  0  0  0  0
 34 37  1  0  0  0  0
 35 37  2  0  0  0  0
 35 61  1  0  0  0  0
 36 71  1  0  0  0  0
 36 76  2  0  0  0  0
 37 55  1  0  0  0  0
 38 52  1  0  0  0  0
 38 73  1  0  0  0  0
 38 77  2  0  0  0  0
 39 62  1  0  0  0  0
 39 68  1  0  0  0  0
 39 78  2  0  0  0  0
 40 63  1  0  0  0  0
 40 74  1  0  0  0  0
 40 79  2  0  0  0  0
 41 69  1  0  0  0  0
 41 72  1  0  0  0  0
 41 80  2  0  0  0  0
 42 45  1  0  0  0  0
 43 52  1  0  0  0  0
 44 68  1  0  0  0  0
 45 47  1  0  0  0  0
 46 48  1  0  0  0  0
 46 49  1  0  0  0  0
 47 51  1  0  0  0  0
 48 53  1  0  0  0  0
 49 69  1  0  0  0  0
 50 53  1  0  0  0  0
 50 69  1  0  0  0  0
 51 73  1  0  0  0  0
 52 68  1  0  0  0  0
 53 67  1  0  0  0  0
 56 63  1  0  0  0  0
 57 64  1  0  0  0  0
 58 64  1  0  0  0  0
 59 64  1  0  0  0  0
 60 75  1  0  0  0  0
 61 82  1  0  0  0  0
 62 64  1  0  0  0  0
 62 74  1  0  0  0  0
 63 75  1  0  0  0  0
 66 67  1  0  0  0  0
M  CHG  1  75   1
M  ISO  4  41 100  61 101  72 100  82 101
M  END
> <Batch ID>
0124

> <Smiles>
CNC(C)C(=O)NC(C(=O)N1Cc2cc([101O:1][101CH2:1]C=C(C)C=Cc3cc(C)c([100NH:0][100C:0](=O)N4CCCC(n5nc(-c6ccc(Oc7ccc(F)cc7F)cc6)c(C(N)=O)c5N)C4)cn3)ccc2CC1C(=O)NC1CCCc2ccccc21)C(C)(C)C

> <Shape>
0.176

> <Color>
0.198

> <Negative vol penalty>
0.000

$$$$

  -OEChem-04052302063D

 85 93  0     1  0  0  0  0  0999 V2000
  -27.6729  -31.8394   27.7771 C   0  0  0  0  0  0  0  0  0  0  0  0
  -27.9327  -30.9307   26.7563 C   0  0  0  0  0  0  0  0  0  0  0  0
  -23.8228   -9.6157   21.4244 C   0  0  0  0  0  0  0  0  0  0  0  0
  -24.4927  -10.6617   23.4966 C   0  0  0  0  0  0  0  0  0  0  0  0
  -26.3561  -32.1376   28.1251 C   0  0  0  0  0  0  0  0  0  0  0  0
  -26.8757  -30.3187   26.0835 C   0  0  0  0  0  0  0  0  0  0  0  0
  -27.5446  -30.2549   21.0642 C   0  0  0  0  0  0  0  0  0  0  0  0
  -23.3433   -8.5153   22.1348 C   0  0  0  0  0  0  0  0  0  0  0  0
  -24.0132   -9.5613   24.2071 C   0  0  0  0  0  0  0  0  0  0  0  0
  -28.4171  -29.2967   20.5502 C   0  0  0  0  0  0  0  0  0  0  0  0
  -20.5996   -7.7219   23.9447 C   0  0  0  0  0  0  0  0  0  0  0  0
  -19.3501   -7.2146   23.5883 C   0  0  0  0  0  0  0  0  0  0  0  0
  -28.7965  -20.6047   20.5584 C   0  0  0  0  0  0  0  0  0  0  0  0
  -26.5341  -27.9155   19.9451 C   0  0  0  0  0  0  0  0  0  0  0  0
  -30.7075  -18.8229   19.5807 C   0  0  0  0  0  0  0  0  0  0  0  0
  -20.3629   -5.0826   23.0723 C   0  0  0  0  0  0  0  0  0  0  0  0
  -24.3976  -10.6889   22.1052 C   0  0  0  0  0  0  0  0  0  0  0  0
  -29.9725  -21.0886   19.9852 C   0  0  0  0  0  0  0  0  0  0  0  0
  -24.1796  -12.9859   21.0173 C   0  0  0  0  0  0  0  0  0  0  0  0
  -25.2824  -31.5362   27.4497 C   0  0  0  0  0  0  0  0  0  0  0  0
  -26.1584  -30.0455   21.0323 C   0  0  0  0  0  0  0  0  0  0  0  0
  -25.5433  -30.6080   26.4236 C   0  0  0  0  0  0  0  0  0  0  0  0
  -25.6461  -28.8738   20.4570 C   0  0  0  0  0  0  0  0  0  0  0  0
  -28.5760  -19.2299   20.6427 C   0  0  0  0  0  0  0  0  0  0  0  0
  -29.5315  -18.3390   20.1538 C   0  0  0  0  0  0  0  0  0  0  0  0
  -23.4385   -8.4881   23.5261 C   0  0  0  0  0  0  0  0  0  0  0  0
  -27.9121  -28.1254   19.9932 C   0  0  0  0  0  0  0  0  0  0  0  0
  -21.7308   -6.9096   23.8648 C   0  0  0  0  0  0  0  0  0  0  0  0
  -30.9280  -20.1977   19.4964 C   0  0  0  0  0  0  0  0  0  0  0  0
  -19.2318   -5.8950   23.1521 C   0  0  0  0  0  0  0  0  0  0  0  0
  -21.6124   -5.5900   23.4287 C   0  0  0  0  0  0  0  0  0  0  0  0
  -24.8936  -11.8257   21.3719 C   0  0  0  0  0  0  0  0  0  0  0  0
  -25.0908  -13.7549   20.3355 C   0  0  0  0  0  0  0  0  0  0  0  0
  -30.1834  -22.5450   19.9093 C   0  0  0  0  0  0  0  0  0  0  0  0
  -29.2038  -23.4499   19.7750 C   0  0  0  0  0  0  0  0  0  0  0  0
  -22.8147  -13.3373   21.2807 C   0  0  0  0  0  0  0  0  0  0  0  0
  -29.5245  -24.9048   19.6977 C   0  0  0  0  0  0  0  0  0  0  0  0
  -23.8797  -29.7736   23.2316 C   0  0  0  0  0  0  0  0  0  0  0  0
  -21.9259  -29.7424   20.6424 C   0  0  0  0  0  0  0  0  0  0  0  0
  -21.5472  -29.1337   17.3058 C   0  0  0  0  0  0  0  0  0  0  0  0
  -30.1858  -15.9337   19.7898 C   0  0  0  0  0  0  0  0  0  0  0  0
  -23.8764  -31.8542   27.8930 C   0  0  0  0  0  0  0  0  0  0  0  0
  -25.2295  -31.1009   21.5666 C   0  0  0  0  0  0  0  0  0  0  0  0
  -24.1652  -28.6101   20.3801 C   0  0  0  0  0  0  0  0  0  0  0  0
  -22.8109  -31.4452   26.8792 C   0  0  0  0  0  0  0  0  0  0  0  0
  -29.7013  -12.6197   18.5814 C   0  0  0  0  0  0  0  0  0  0  0  0
  -23.0716  -30.0304   26.3722 C   0  0  0  0  0  0  0  0  0  0  0  0
  -28.3486  -12.2132   19.1705 C   0  0  0  0  0  0  0  0  0  0  0  0
  -30.5069  -13.4810   19.5524 C   0  0  0  0  0  0  0  0  0  0  0  0
  -28.4465  -14.2513   20.6616 C   0  0  0  0  0  0  0  0  0  0  0  0
  -24.4235  -29.9422   25.6538 C   0  0  1  0  0  0  0  0  0  0  0  0
  -23.8576  -30.5525   21.9469 C   0  0  1  0  0  0  0  0  0  0  0  0
  -27.5716  -13.4367   19.6948 C   0  0  2  0  0  0  0  0  0  0  0  0
  -27.3067  -18.7395   21.2606 C   0  0  0  0  0  0  0  0  0  0  0  0
  -19.8246  -29.1622   15.4813 C   0  0  0  0  0  0  0  0  0  0  0  0
  -20.7411  -27.1468   21.7238 C   0  0  0  0  0  0  0  0  0  0  0  0
  -19.7503  -26.7380   19.4612 C   0  0  0  0  0  0  0  0  0  0  0  0
  -19.0654  -28.7436   20.7770 C   0  0  0  0  0  0  0  0  0  0  0  0
  -23.0478  -31.1642   15.7617 C   0  0  0  0  0  0  0  0  0  0  0  0
  -32.0757  -20.8794   17.5281 C   0  0  0  0  0  0  0  0  0  0  0  0
  -28.3338  -25.8279   19.5468 C   0  0  0  0  0  0  0  0  0  1  0  0
  -21.3685  -28.6711   19.7365 C   0  0  1  0  0  0  0  0  0  0  0  0
  -20.9079  -29.9523   16.1987 C   0  0  2  0  0  0  0  0  0  0  0  0
  -20.2594  -27.8287   20.4277 C   0  0  0  0  0  0  0  0  0  0  0  0
  -26.1607  -11.8508   20.9501 N   0  0  0  0  0  0  0  0  0  0  0  0
  -26.2500  -13.0363   20.3233 N   0  0  0  0  0  0  0  0  0  0  0  0
  -23.2979  -29.6693   20.9217 N   0  0  0  0  0  0  0  0  0  0  0  0
  -29.7088  -14.6231   20.0035 N   0  0  0  0  0  0  0  0  0  0  0  0
  -25.0056  -14.9688   19.7511 N   0  0  0  0  0  0  0  0  0  0  0  0
  -22.0176  -12.4320   21.9944 N   0  0  0  0  0  0  0  0  0  0  0  0
  -29.3265  -16.9392   20.2316 N   0  0  0  0  0  0  0  0  0  0  0  0
  -24.3248  -30.4978   24.3211 N   0  0  0  0  0  0  0  0  0  0  0  0
  -20.9329  -29.3503   18.5211 N   0  0  0  0  0  0  0  0  0  0  0  0
  -21.9337  -30.3597   15.1974 N   0  3  0  0  0  0  0  0  0  0  0  0
  -22.3122  -14.4146   20.8803 O   0  0  0  0  0  0  0  0  0  0  0  0
  -30.6780  -25.3224   19.7535 O   0  0  0  0  0  0  0  0  0  0  0  0
  -23.5182  -28.6027   23.2346 O   0  0  0  0  0  0  0  0  0  0  0  0
  -21.1731  -30.6161   21.0801 O   0  0  0  0  0  0  0  0  0  0  0  0
  -22.4943  -28.3749   17.1112 O   0  0  0  0  0  0  0  0  0  0  0  0
  -31.2638  -16.1487   19.2299 O   0  0  0  0  0  0  0  0  0  0  0  0
  -22.9705   -7.4145   24.2197 O   0  0  0  0  0  0  0  0  0  0  0  0
  -32.0873  -20.6444   18.9342 O   0  0  0  0  0  0  0  0  0  0  0  0
  -28.7615  -27.1881   19.4914 O   0  0  0  0  0  0  0  0  0  1  0  0
  -18.0316   -5.4074   22.8114 F   0  0  0  0  0  0  0  0  0  0  0  0
  -22.6954   -4.8045   23.3510 F   0  0  0  0  0  0  0  0  0  0  0  0
  1  2  1  0  0  0  0
  1  5  2  0  0  0  0
  2  6  2  0  0  0  0
  3  8  2  0  0  0  0
  3 17  1  0  0  0  0
  4  9  1  0  0  0  0
  4 17  2  0  0  0  0
  5 20  1  0  0  0  0
  6 22  1  0  0  0  0
  7 10  2  0  0  0  0
  7 21  1  0  0  0  0
  8 26  1  0  0  0  0
  9 26  2  0  0  0  0
 10 27  1  0  0  0  0
 11 12  2  0  0  0  0
 11 28  1  0  0  0  0
 12 30  1  0  0  0  0
 13 18  1  0  0  0  0
 13 24  2  0  0  0  0
 14 23  1  0  0  0  0
 14 27  2  0  0  0  0
 15 25  2  0  0  0  0
 15 29  1  0  0  0  0
 16 30  2  0  0  0  0
 16 31  1  0  0  0  0
 17 32  1  0  0  0  0
 18 29  2  0  0  0  0
 18 34  1  0  0  0  0
 19 32  1  0  0  0  0
 19 33  2  0  0  0  0
 19 36  1  0  0  0  0
 20 22  2  0  0  0  0
 20 42  1  0  0  0  0
 21 23  2  0  0  0  0
 21 43  1  0  0  0  0
 22 51  1  0  0  0  0
 23 44  1  0  0  0  0
 24 25  1  0  0  0  0
 24 54  1  0  0  0  0
 25 71  1  0  0  0  0
 26 81  1  0  0  0  0
 27 83  1  0  0  0  0
 28 31  2  0  0  0  0
 28 81  1  0  0  0  0
 29 82  1  0  0  0  0
 30 84  1  0  0  0  0
 31 85  1  0  0  0  0
 32 65  2  0  0  0  0
 33 66  1  0  0  0  0
 33 69  1  0  0  0  0
 34 35  2  0  0  0  0
 35 37  1  0  0  0  0
 36 70  1  0  0  0  0
 36 75  2  0  0  0  0
 37 61  1  0  0  0  0
 37 76  2  0  0  0  0
 38 52  1  0  0  0  0
 38 72  1  0  0  0  0
 38 77  2  0  0  0  0
 39 62  1  0  0  0  0
 39 67  1  0  0  0  0
 39 78  2  0  0  0  0
 40 63  1  0  0  0  0
 40 73  1  0  0  0  0
 40 79  2  0  0  0  0
 41 68  1  0  0  0  0
 41 71  1  0  0  0  0
 41 80  2  0  0  0  0
 42 45  1  0  0  0  0
 43 52  1  0  0  0  0
 44 67  1  0  0  0  0
 45 47  1  0  0  0  0
 46 48  1  0  0  0  0
 46 49  1  0  0  0  0
 47 51  1  0  0  0  0
 48 53  1  0  0  0  0
 49 68  1  0  0  0  0
 50 53  1  0  0  0  0
 50 68  1  0  0  0  0
 51 72  1  0  0  0  0
 52 67  1  0  0  0  0
 53 66  1  0  0  0  0
 55 63  1  0  0  0  0
 56 64  1  0  0  0  0
 57 64  1  0  0  0  0
 58 64  1  0  0  0  0
 59 74  1  0  0  0  0
 60 82  1  0  0  0  0
 61 83  1  0  0  0  0
 62 64  1  0  0  0  0
 62 73  1  0  0  0  0
 63 74  1  0  0  0  0
 65 66  1  0  0  0  0
M  CHG  1  74   1
M  ISO  4  41 100  61 101  71 100  83 101
M  END
> <Batch ID>
0124

> <Smiles>
CNC(C)C(=O)NC(C(=O)N1Cc2cc([101O:1][101CH2:1]C(=O)C=Cc3cc(C)c([100NH:0][100C:0](=O)N4CCCC(n5nc(-c6ccc(Oc7ccc(F)cc7F)cc6)c(C(N)=O)c5N)C4)cc3OC)ccc2CC1C(=O)NC1CCCc2ccccc21)C(C)(C)C

> <Shape>
0.342

> <Color>
0.189

> <Negative vol penalty>
0.000

$$$$

  -OEChem-04052302063D

 84 92  0     1  0  0  0  0  0999 V2000
  -27.5718  -24.4937   16.5078 C   0  0  0  0  0  0  0  0  0  0  0  0
  -26.4012  -24.7638   17.2093 C   0  0  0  0  0  0  0  0  0  0  0  0
  -26.4284  -14.1010   20.9958 C   0  0  0  0  0  0  0  0  0  0  0  0
  -24.1459  -14.1050   20.2038 C   0  0  0  0  0  0  0  0  0  0  0  0
  -28.8025  -24.8923   17.0278 C   0  0  0  0  0  0  0  0  0  0  0  0
  -26.4607  -25.4318   18.4318 C   0  0  0  0  0  0  0  0  0  0  0  0
  -22.9636  -29.0730   18.8285 C   0  0  0  0  0  0  0  0  0  0  0  0
  -26.1735  -12.9393   21.7246 C   0  0  0  0  0  0  0  0  0  0  0  0
  -23.8909  -12.9433   20.9326 C   0  0  0  0  0  0  0  0  0  0  0  0
  -21.6594  -28.6743   19.1180 C   0  0  0  0  0  0  0  0  0  0  0  0
  -24.4672   -9.6286   20.6146 C   0  0  0  0  0  0  0  0  0  0  0  0
  -23.7620   -8.6075   19.9778 C   0  0  0  0  0  0  0  0  0  0  0  0
  -20.6291  -22.8954   20.5902 C   0  0  0  0  0  0  0  0  0  0  0  0
  -22.0001  -29.2618   21.4327 C   0  0  0  0  0  0  0  0  0  0  0  0
  -19.9957  -21.0267   19.1960 C   0  0  0  0  0  0  0  0  0  0  0  0
  -22.0320   -8.7544   21.6579 C   0  0  0  0  0  0  0  0  0  0  0  0
  -25.4145  -14.6839   20.2354 C   0  0  0  0  0  0  0  0  0  0  0  0
  -19.2862  -23.2442   20.7329 C   0  0  0  0  0  0  0  0  0  0  0  0
  -26.1376  -15.9716   18.1554 C   0  0  0  0  0  0  0  0  0  0  0  0
  -28.8763  -25.5740   18.2527 C   0  0  0  0  0  0  0  0  0  0  0  0
  -23.8009  -29.5596   19.8427 C   0  0  0  0  0  0  0  0  0  0  0  0
  -27.6937  -25.8387   18.9694 C   0  0  0  0  0  0  0  0  0  0  0  0
  -23.3137  -29.6684   21.1530 C   0  0  0  0  0  0  0  0  0  0  0  0
  -18.6527  -21.3755   19.3387 C   0  0  0  0  0  0  0  0  0  0  0  0
  -18.2979  -22.4842   20.1072 C   0  0  0  0  0  0  0  0  0  0  0  0
  -20.9839  -21.7867   19.8216 C   0  0  0  0  0  0  0  0  0  0  0  0
  -24.9048  -12.3605   21.6930 C   0  0  0  0  0  0  0  0  0  0  0  0
  -21.1784  -28.7660   20.4208 C   0  0  0  0  0  0  0  0  0  0  0  0
  -23.9548  -10.2126   21.7732 C   0  0  0  0  0  0  0  0  0  0  0  0
  -22.5444   -8.1704   20.4993 C   0  0  0  0  0  0  0  0  0  0  0  0
  -22.7372   -9.7755   22.2948 C   0  0  0  0  0  0  0  0  0  0  0  0
  -25.6771  -15.8842   19.4828 C   0  0  0  0  0  0  0  0  0  0  0  0
  -26.2242  -17.3203   17.9101 C   0  0  0  0  0  0  0  0  0  0  0  0
  -18.9468  -24.4207   21.5505 C   0  0  0  0  0  0  0  0  0  0  0  0
  -18.8597  -25.6800   21.0942 C   0  0  0  0  0  0  0  0  0  0  0  0
  -26.4583  -14.9272   17.2270 C   0  0  0  0  0  0  0  0  0  0  0  0
  -26.5601  -28.6255   21.1146 C   0  0  0  0  0  0  0  0  0  0  0  0
  -26.3226  -31.4332   22.7217 C   0  0  0  0  0  0  0  0  0  0  0  0
  -24.3214  -33.9204   23.9284 C   0  0  0  0  0  0  0  0  0  0  0  0
  -23.4524  -22.0778   20.2315 C   0  0  0  0  0  0  0  0  0  0  0  0
  -30.2334  -25.9432   18.7973 C   0  0  0  0  0  0  0  0  0  0  0  0
  -25.1965  -30.0106   19.5090 C   0  0  0  0  0  0  0  0  0  0  0  0
  -24.1657  -30.2032   22.2740 C   0  0  0  0  0  0  0  0  0  0  0  0
  -30.1790  -26.9777   19.9186 C   0  0  0  0  0  0  0  0  0  0  0  0
  -26.9633  -21.4924   20.1420 C   0  0  0  0  0  0  0  0  0  0  0  0
  -29.1044  -26.6064   20.9356 C   0  0  0  0  0  0  0  0  0  0  0  0
  -27.0739  -19.9970   19.8359 C   0  0  0  0  0  0  0  0  0  0  0  0
  -25.7793  -21.7980   21.0576 C   0  0  0  0  0  0  0  0  0  0  0  0
  -24.5981  -19.7758   20.2928 C   0  0  0  0  0  0  0  0  0  0  0  0
  -27.7152  -26.5831   20.2868 C   0  0  1  0  0  0  0  0  0  0  0  0
  -26.1296  -30.0087   20.7159 C   0  0  1  0  0  0  0  0  0  0  0  0
  -25.7376  -19.4268   19.3214 C   0  0  2  0  0  0  0  0  0  0  0  0
  -16.8529  -22.8487   20.2532 C   0  0  0  0  0  0  0  0  0  0  0  0
  -16.8957  -19.6100   19.6263 C   0  0  0  0  0  0  0  0  0  0  0  0
  -24.4108  -36.0623   25.2329 C   0  0  0  0  0  0  0  0  0  0  0  0
  -26.6922  -29.8444   25.3003 C   0  0  0  0  0  0  0  0  0  0  0  0
  -25.8369  -31.8294   26.5638 C   0  0  0  0  0  0  0  0  0  0  0  0
  -27.9335  -32.0142   25.2248 C   0  0  0  0  0  0  0  0  0  0  0  0
  -23.2222  -35.4797   21.6658 C   0  0  0  0  0  0  0  0  0  0  0  0
  -17.6147  -20.5443   18.6581 C   0  0  0  0  0  0  0  0  0  0  0  0
  -18.5218  -26.8565   21.9686 C   0  0  0  0  0  0  0  0  0  0  0  0
  -19.6610  -27.8679   22.0167 C   0  0  0  0  0  0  0  0  0  1  0  0
  -25.7095  -31.8668   24.0313 C   0  0  1  0  0  0  0  0  0  0  0  0
  -24.4347  -35.4321   23.8490 C   0  0  2  0  0  0  0  0  0  0  0  0
  -26.5273  -31.3768   25.2595 C   0  0  0  0  0  0  0  0  0  0  0  0
  -25.4847  -17.0819   20.0418 N   0  0  0  0  0  0  0  0  0  0  0  0
  -25.8261  -17.9347   19.0609 N   0  0  0  0  0  0  0  0  0  0  0  0
  -25.5252  -30.6253   21.8986 N   0  0  0  0  0  0  0  0  0  0  0  0
  -24.5475  -21.2310   20.5043 N   0  0  0  0  0  0  0  0  0  0  0  0
  -26.6013  -18.0286   16.8246 N   0  0  0  0  0  0  0  0  0  0  0  0
  -26.3127  -13.5964   17.6421 N   0  0  0  0  0  0  0  0  0  0  0  0
  -22.3480  -21.4316   19.6771 N   0  0  0  0  0  0  0  0  0  0  0  0
  -27.2146  -27.9301   20.1157 N   0  0  0  0  0  0  0  0  0  0  0  0
  -25.5605  -33.3160   23.9523 N   0  0  0  0  0  0  0  0  0  0  0  0
  -23.3051  -35.9953   23.0566 N   0  3  0  0  0  0  0  0  0  0  0  0
  -26.8777  -15.1668   16.0694 O   0  0  0  0  0  0  0  0  0  0  0  0
  -26.3178  -28.2197   22.2452 O   0  0  0  0  0  0  0  0  0  0  0  0
  -27.4640  -31.8036   22.4362 O   0  0  0  0  0  0  0  0  0  0  0  0
  -23.2418  -33.3345   23.9692 O   0  0  0  0  0  0  0  0  0  0  0  0
  -23.5013  -23.2916   20.4466 O   0  0  0  0  0  0  0  0  0  0  0  0
  -24.6558  -11.2268   22.4038 O   0  0  0  0  0  0  0  0  0  0  0  0
  -19.9060  -28.3770   20.7063 O   0  0  0  0  0  0  0  0  0  1  0  0
  -21.8665   -7.1909   19.8868 F   0  0  0  0  0  0  0  0  0  0  0  0
  -22.2394  -10.3335   23.4068 F   0  0  0  0  0  0  0  0  0  0  0  0
  1  2  1  0  0  0  0
  1  5  2  0  0  0  0
  2  6  2  0  0  0  0
  3  8  2  0  0  0  0
  3 17  1  0  0  0  0
  4  9  1  0  0  0  0
  4 17  2  0  0  0  0
  5 20  1  0  0  0  0
  6 22  1  0  0  0  0
  7 10  2  0  0  0  0
  7 21  1  0  0  0  0
  8 27  1  0  0  0  0
  9 27  2  0  0  0  0
 10 28  1  0  0  0  0
 11 12  2  0  0  0  0
 11 29  1  0  0  0  0
 12 30  1  0  0  0  0
 13 18  2  0  0  0  0
 13 26  1  0  0  0  0
 14 23  1  0  0  0  0
 14 28  2  0  0  0  0
 15 24  1  0  0  0  0
 15 26  2  0  0  0  0
 16 30  2  0  0  0  0
 16 31  1  0  0  0  0
 17 32  1  0  0  0  0
 18 25  1  0  0  0  0
 18 34  1  0  0  0  0
 19 32  1  0  0  0  0
 19 33  2  0  0  0  0
 19 36  1  0  0  0  0
 20 22  2  0  0  0  0
 20 41  1  0  0  0  0
 21 23  2  0  0  0  0
 21 42  1  0  0  0  0
 22 50  1  0  0  0  0
 23 43  1  0  0  0  0
 24 25  2  0  0  0  0
 24 60  1  0  0  0  0
 25 53  1  0  0  0  0
 26 72  1  0  0  0  0
 27 81  1  0  0  0  0
 28 82  1  0  0  0  0
 29 31  2  0  0  0  0
 29 81  1  0  0  0  0
 30 83  1  0  0  0  0
 31 84  1  0  0  0  0
 32 66  2  0  0  0  0
 33 67  1  0  0  0  0
 33 70  1  0  0  0  0
 34 35  2  0  0  0  0
 35 61  1  0  0  0  0
 36 71  1  0  0  0  0
 36 76  2  0  0  0  0
 37 51  1  0  0  0  0
 37 73  1  0  0  0  0
 37 77  2  0  0  0  0
 38 63  1  0  0  0  0
 38 68  1  0  0  0  0
 38 78  2  0  0  0  0
 39 64  1  0  0  0  0
 39 74  1  0  0  0  0
 39 79  2  0  0  0  0
 40 69  1  0  0  0  0
 40 72  1  0  0  0  0
 40 80  2  0  0  0  0
 41 44  1  0  0  0  0
 42 51  1  0  0  0  0
 43 68  1  0  0  0  0
 44 46  1  0  0  0  0
 45 47  1  0  0  0  0
 45 48  1  0  0  0  0
 46 50  1  0  0  0  0
 47 52  1  0  0  0  0
 48 69  1  0  0  0  0
 49 52  1  0  0  0  0
 49 69  1  0  0  0  0
 50 73  1  0  0  0  0
 51 68  1  0  0  0  0
 52 67  1  0  0  0  0
 54 60  1  0  0  0  0
 55 64  1  0  0  0  0
 56 65  1  0  0  0  0
 57 65  1  0  0  0  0
 58 65  1  0  0  0  0
 59 75  1  0  0  0  0
 61 62  1  0  0  0  0
 62 82  1  0  0  0  0
 63 65  1  0  0  0  0
 63 74  1  0  0  0  0
 64 75  1  0  0  0  0
 66 67  1  0  0  0  0
M  CHG  1  75   1
M  ISO  4  40 100  62 101  72 100  82 101
M  END
> <Batch ID>
0124

> <Smiles>
CCc1cc([100NH:0][100C:0](=O)N2CCCC(n3nc(-c4ccc(Oc5ccc(F)cc5F)cc4)c(C(N)=O)c3N)C2)cc(C=CC[101CH2:1][101O:1]c2ccc3c(c2)CN(C(=O)C(NC(=O)C(C)NC)C(C)(C)C)C(C(=O)NC2CCCc4ccccc42)C3)c1C

> <Shape>
0.272

> <Color>
0.083

> <Negative vol penalty>
0.000

$$$$

  -OEChem-04052302063D

 84 92  0     1  0  0  0  0  0999 V2000
  -21.9132  -30.5154   29.5477 C   0  0  0  0  0  0  0  0  0  0  0  0
  -23.2764  -30.2705   29.4161 C   0  0  0  0  0  0  0  0  0  0  0  0
  -23.0709   -9.8715   19.9407 C   0  0  0  0  0  0  0  0  0  0  0  0
  -23.8343   -9.8742   22.2329 C   0  0  0  0  0  0  0  0  0  0  0  0
  -21.0280  -29.4514   29.7155 C   0  0  0  0  0  0  0  0  0  0  0  0
  -23.7552  -28.9614   29.4534 C   0  0  0  0  0  0  0  0  0  0  0  0
  -28.9220  -24.8266   26.7104 C   0  0  0  0  0  0  0  0  0  0  0  0
  -22.3262   -8.7187   20.1901 C   0  0  0  0  0  0  0  0  0  0  0  0
  -23.0896   -8.7215   22.4823 C   0  0  0  0  0  0  0  0  0  0  0  0
  -29.9285  -23.9504   27.1142 C   0  0  0  0  0  0  0  0  0  0  0  0
  -19.8615   -7.9262   23.0886 C   0  0  0  0  0  0  0  0  0  0  0  0
  -19.1063   -7.8853   24.2606 C   0  0  0  0  0  0  0  0  0  0  0  0
  -30.5131  -18.3322   24.0479 C   0  0  0  0  0  0  0  0  0  0  0  0
  -28.2976  -22.1860   27.3294 C   0  0  0  0  0  0  0  0  0  0  0  0
  -32.0708  -16.5843   22.5310 C   0  0  0  0  0  0  0  0  0  0  0  0
  -20.3468   -5.9455   24.9923 C   0  0  0  0  0  0  0  0  0  0  0  0
  -23.8250  -10.4492   20.9621 C   0  0  0  0  0  0  0  0  0  0  0  0
  -31.9007  -18.3331   24.1893 C   0  0  0  0  0  0  0  0  0  0  0  0
  -24.1693  -12.9742   20.8453 C   0  0  0  0  0  0  0  0  0  0  0  0
  -21.4952  -28.1279   29.7451 C   0  0  0  0  0  0  0  0  0  0  0  0
  -27.5919  -24.3913   26.6234 C   0  0  0  0  0  0  0  0  0  0  0  0
  -22.8756  -27.8788   29.6231 C   0  0  0  0  0  0  0  0  0  0  0  0
  -27.2766  -23.0580   26.9217 C   0  0  0  0  0  0  0  0  0  0  0  0
  -29.9043  -17.4573   23.1482 C   0  0  0  0  0  0  0  0  0  0  0  0
  -30.6831  -16.5834   22.3897 C   0  0  0  0  0  0  0  0  0  0  0  0
  -22.3355   -8.1438   21.4609 C   0  0  0  0  0  0  0  0  0  0  0  0
  -29.6159  -22.6306   27.4265 C   0  0  0  0  0  0  0  0  0  0  0  0
  -20.8593   -6.9767   22.8684 C   0  0  0  0  0  0  0  0  0  0  0  0
  -19.3490   -6.8950   25.2125 C   0  0  0  0  0  0  0  0  0  0  0  0
  -32.6796  -17.4592   23.4308 C   0  0  0  0  0  0  0  0  0  0  0  0
  -21.1020   -5.9863   23.8202 C   0  0  0  0  0  0  0  0  0  0  0  0
  -24.5950  -11.6397   20.7050 C   0  0  0  0  0  0  0  0  0  0  0  0
  -25.2617  -13.7230   20.4815 C   0  0  0  0  0  0  0  0  0  0  0  0
  -32.5384  -19.2587   25.1404 C   0  0  0  0  0  0  0  0  0  0  0  0
  -31.9718  -19.7231   26.2651 C   0  0  0  0  0  0  0  0  0  0  0  0
  -22.9001  -13.4907   21.2670 C   0  0  0  0  0  0  0  0  0  0  0  0
  -24.8715  -25.1906   28.0602 C   0  0  0  0  0  0  0  0  0  0  0  0
  -23.5861  -23.1202   25.9193 C   0  0  0  0  0  0  0  0  0  0  0  0
  -24.0292  -20.4347   23.8605 C   0  0  0  0  0  0  0  0  0  0  0  0
  -30.7293  -14.7626   20.6493 C   0  0  0  0  0  0  0  0  0  0  0  0
  -20.5054  -27.0137   29.9761 C   0  0  0  0  0  0  0  0  0  0  0  0
  -26.5220  -25.3418   26.1605 C   0  0  0  0  0  0  0  0  0  0  0  0
  -25.8672  -22.5356   26.8248 C   0  0  0  0  0  0  0  0  0  0  0  0
  -21.0524  -25.6314   29.6292 C   0  0  0  0  0  0  0  0  0  0  0  0
  -29.6087  -12.3535   18.2792 C   0  0  0  0  0  0  0  0  0  0  0  0
  -22.4485  -25.4473   30.2155 C   0  0  0  0  0  0  0  0  0  0  0  0
  -28.1694  -12.0628   18.7105 C   0  0  0  0  0  0  0  0  0  0  0  0
  -30.5259  -12.5795   19.4797 C   0  0  0  0  0  0  0  0  0  0  0  0
  -28.6218  -13.3040   20.8650 C   0  0  0  0  0  0  0  0  0  0  0  0
  -23.4307  -26.4710   29.6336 C   0  0  1  0  0  0  0  0  0  0  0  0
  -25.1220  -24.9268   26.6024 C   0  0  1  0  0  0  0  0  0  0  0  0
  -27.6470  -13.1335   19.6884 C   0  0  2  0  0  0  0  0  0  0  0  0
  -27.9567  -18.2040   21.7568 C   0  0  0  0  0  0  0  0  0  0  0  0
  -23.4658  -18.7172   22.1198 C   0  0  0  0  0  0  0  0  0  0  0  0
  -22.2838  -21.6862   28.2768 C   0  0  0  0  0  0  0  0  0  0  0  0
  -21.8713  -19.7303   26.7693 C   0  0  0  0  0  0  0  0  0  0  0  0
  -20.8164  -21.9342   26.2668 C   0  0  0  0  0  0  0  0  0  0  0  0
  -24.9360  -22.1965   21.6622 C   0  0  0  0  0  0  0  0  0  0  0  0
  -28.4157  -17.4774   23.0170 C   0  0  0  0  0  0  0  0  0  0  0  0
  -32.6558  -20.6790   27.2037 C   0  0  0  0  0  0  0  0  0  0  0  0
  -31.9064  -22.0023   27.3044 C   0  0  0  0  0  0  0  0  0  1  0  0
  -23.3009  -21.6378   25.9042 C   0  0  1  0  0  0  0  0  0  0  0  0
  -23.6369  -20.1996   22.4130 C   0  0  2  0  0  0  0  0  0  0  0  0
  -22.0945  -21.2572   26.8081 C   0  0  0  0  0  0  0  0  0  0  0  0
  -25.8591  -11.5431   20.2846 N   0  0  0  0  0  0  0  0  0  0  0  0
  -26.2371  -12.8265   20.1576 N   0  0  0  0  0  0  0  0  0  0  0  0
  -24.8554  -23.5052   26.3737 N   0  0  0  0  0  0  0  0  0  0  0  0
  -29.9693  -13.6097   20.3595 N   0  0  0  0  0  0  0  0  0  0  0  0
  -25.4734  -15.0544   20.4101 N   0  0  0  0  0  0  0  0  0  0  0  0
  -21.8877  -12.5821   21.6044 N   0  0  0  0  0  0  0  0  0  0  0  0
  -30.0842  -15.6871   21.4701 N   0  0  0  0  0  0  0  0  0  0  0  0
  -23.8405  -26.0782   28.3023 N   0  0  0  0  0  0  0  0  0  0  0  0
  -23.1375  -21.2679   24.5025 N   0  0  0  0  0  0  0  0  0  0  0  0
  -24.6813  -20.7421   21.4987 N   0  3  0  0  0  0  0  0  0  0  0  0
  -22.6652  -14.7215   21.3265 O   0  0  0  0  0  0  0  0  0  0  0  0
  -25.5615  -24.6292   28.9031 O   0  0  0  0  0  0  0  0  0  0  0  0
  -22.7173  -23.9071   25.5351 O   0  0  0  0  0  0  0  0  0  0  0  0
  -25.0248  -19.9269   24.3718 O   0  0  0  0  0  0  0  0  0  0  0  0
  -31.8578  -14.9308   20.1802 O   0  0  0  0  0  0  0  0  0  0  0  0
  -21.6087   -7.0191   21.7047 O   0  0  0  0  0  0  0  0  0  0  0  0
  -30.5962  -21.7734   27.8216 O   0  0  0  0  0  0  0  0  0  1  0  0
  -18.6247   -6.8568   26.3386 F   0  0  0  0  0  0  0  0  0  0  0  0
  -34.0149  -17.4481   23.5560 F   0  0  0  0  0  0  0  0  0  0  0  0
  -22.0600   -5.0721   23.6148 F   0  0  0  0  0  0  0  0  0  0  0  0
  1  2  1  0  0  0  0
  1  5  2  0  0  0  0
  2  6  2  0  0  0  0
  3  8  2  0  0  0  0
  3 17  1  0  0  0  0
  4  9  1  0  0  0  0
  4 17  2  0  0  0  0
  5 20  1  0  0  0  0
  6 22  1  0  0  0  0
  7 10  2  0  0  0  0
  7 21  1  0  0  0  0
  8 26  1  0  0  0  0
  9 26  2  0  0  0  0
 10 27  1  0  0  0  0
 11 12  2  0  0  0  0
 11 28  1  0  0  0  0
 12 29  1  0  0  0  0
 13 18  2  0  0  0  0
 13 24  1  0  0  0  0
 14 23  1  0  0  0  0
 14 27  2  0  0  0  0
 15 25  1  0  0  0  0
 15 30  2  0  0  0  0
 16 29  2  0  0  0  0
 16 31  1  0  0  0  0
 17 32  1  0  0  0  0
 18 30  1  0  0  0  0
 18 34  1  0  0  0  0
 19 32  1  0  0  0  0
 19 33  2  0  0  0  0
 19 36  1  0  0  0  0
 20 22  2  0  0  0  0
 20 41  1  0  0  0  0
 21 23  2  0  0  0  0
 21 42  1  0  0  0  0
 22 50  1  0  0  0  0
 23 43  1  0  0  0  0
 24 25  2  0  0  0  0
 24 59  1  0  0  0  0
 25 71  1  0  0  0  0
 26 80  1  0  0  0  0
 27 81  1  0  0  0  0
 28 31  2  0  0  0  0
 28 80  1  0  0  0  0
 29 82  1  0  0  0  0
 30 83  1  0  0  0  0
 31 84  1  0  0  0  0
 32 65  2  0  0  0  0
 33 66  1  0  0  0  0
 33 69  1  0  0  0  0
 34 35  2  0  0  0  0
 35 60  1  0  0  0  0
 36 70  1  0  0  0  0
 36 75  2  0  0  0  0
 37 51  1  0  0  0  0
 37 72  1  0  0  0  0
 37 76  2  0  0  0  0
 38 62  1  0  0  0  0
 38 67  1  0  0  0  0
 38 77  2  0  0  0  0
 39 63  1  0  0  0  0
 39 73  1  0  0  0  0
 39 78  2  0  0  0  0
 40 68  1  0  0  0  0
 40 71  1  0  0  0  0
 40 79  2  0  0  0  0
 41 44  1  0  0  0  0
 42 51  1  0  0  0  0
 43 67  1  0  0  0  0
 44 46  1  0  0  0  0
 45 47  1  0  0  0  0
 45 48  1  0  0  0  0
 46 50  1  0  0  0  0
 47 52  1  0  0  0  0
 48 68  1  0  0  0  0
 49 52  1  0  0  0  0
 49 68  1  0  0  0  0
 50 72  1  0  0  0  0
 51 67  1  0  0  0  0
 52 66  1  0  0  0  0
 53 59  1  0  0  0  0
 54 63  1  0  0  0  0
 55 64  1  0  0  0  0
 56 64  1  0  0  0  0
 57 64  1  0  0  0  0
 58 74  1  0  0  0  0
 60 61  1  0  0  0  0
 61 81  1  0  0  0  0
 62 64  1  0  0  0  0
 62 73  1  0  0  0  0
 63 74  1  0  0  0  0
 65 66  1  0  0  0  0
M  CHG  1  74   1
M  ISO  4  40 100  61 101  71 100  81 101
M  END
> <Batch ID>
0124

> <Smiles>
CCc1cc(C=CC[101CH2:1][101O:1]c2ccc3c(c2)CN(C(=O)C(NC(=O)C(C)NC)C(C)(C)C)C(C(=O)NC2CCCc4ccccc42)C3)c(F)cc1[100NH:0][100C:0](=O)N1CCCC(n2nc(-c3ccc(Oc4ccc(F)cc4F)cc3)c(C(N)=O)c2N)C1

> <Shape>
0.170

> <Color>
0.196

> <Negative vol penalty>
0.000

$$$$

  -OEChem-04052302063D

 83 91  0     1  0  0  0  0  0999 V2000
  -19.3224  -19.5294   19.5968 C   0  0  0  0  0  0  0  0  0  0  0  0
  -20.4211  -19.7576   20.4191 C   0  0  0  0  0  0  0  0  0  0  0  0
  -23.0752   -9.8687   19.9408 C   0  0  0  0  0  0  0  0  0  0  0  0
  -23.8343   -9.8757   22.2344 C   0  0  0  0  0  0  0  0  0  0  0  0
  -18.3208  -20.4934   19.4901 C   0  0  0  0  0  0  0  0  0  0  0  0
  -20.5193  -20.9505   21.1345 C   0  0  0  0  0  0  0  0  0  0  0  0
  -21.9497  -20.2233   25.9376 C   0  0  0  0  0  0  0  0  0  0  0  0
  -22.3308   -8.7159   20.1906 C   0  0  0  0  0  0  0  0  0  0  0  0
  -23.0898   -8.7229   22.4843 C   0  0  0  0  0  0  0  0  0  0  0  0
  -23.3030  -19.9813   26.1693 C   0  0  0  0  0  0  0  0  0  0  0  0
  -19.8611   -7.9265   23.0858 C   0  0  0  0  0  0  0  0  0  0  0  0
  -19.1037   -7.8870   24.2564 C   0  0  0  0  0  0  0  0  0  0  0  0
  -31.8536  -18.3591   24.2017 C   0  0  0  0  0  0  0  0  0  0  0  0
  -29.8802  -17.4563   23.1399 C   0  0  0  0  0  0  0  0  0  0  0  0
  -23.5976  -22.2858   26.8189 C   0  0  0  0  0  0  0  0  0  0  0  0
  -32.0642  -16.6076   22.5510 C   0  0  0  0  0  0  0  0  0  0  0  0
  -20.3441   -5.9491   24.9936 C   0  0  0  0  0  0  0  0  0  0  0  0
  -23.8270  -10.4486   20.9627 C   0  0  0  0  0  0  0  0  0  0  0  0
  -30.4678  -18.3411   24.0441 C   0  0  0  0  0  0  0  0  0  0  0  0
  -24.1699  -12.9736   20.8425 C   0  0  0  0  0  0  0  0  0  0  0  0
  -18.4020  -21.6946   20.2120 C   0  0  0  0  0  0  0  0  0  0  0  0
  -21.4115  -21.5031   26.1348 C   0  0  0  0  0  0  0  0  0  0  0  0
  -19.5185  -21.9320   21.0363 C   0  0  0  0  0  0  0  0  0  0  0  0
  -22.2365  -22.5407   26.5915 C   0  0  0  0  0  0  0  0  0  0  0  0
  -32.6518  -17.4924   23.4551 C   0  0  0  0  0  0  0  0  0  0  0  0
  -30.6784  -16.5895   22.3933 C   0  0  0  0  0  0  0  0  0  0  0  0
  -22.3380   -8.1430   21.4624 C   0  0  0  0  0  0  0  0  0  0  0  0
  -24.1278  -21.0134   26.6072 C   0  0  0  0  0  0  0  0  0  0  0  0
  -20.8599   -6.9772   22.8690 C   0  0  0  0  0  0  0  0  0  0  0  0
  -19.3452   -6.8983   25.2103 C   0  0  0  0  0  0  0  0  0  0  0  0
  -21.1014   -5.9886   23.8229 C   0  0  0  0  0  0  0  0  0  0  0  0
  -24.5967  -11.6391   20.7051 C   0  0  0  0  0  0  0  0  0  0  0  0
  -25.2625  -13.7226   20.4795 C   0  0  0  0  0  0  0  0  0  0  0  0
  -29.6241  -19.2569   24.8321 C   0  0  0  0  0  0  0  0  0  0  0  0
  -28.3142  -19.0823   25.0557 C   0  0  0  0  0  0  0  0  0  0  0  0
  -22.8995  -13.4900   21.2609 C   0  0  0  0  0  0  0  0  0  0  0  0
  -27.5462  -20.0758   25.8612 C   0  0  0  0  0  0  0  0  0  0  0  0
  -20.0041  -23.6566   24.2679 C   0  0  0  0  0  0  0  0  0  0  0  0
  -19.5488  -25.2187   27.0741 C   0  0  0  0  0  0  0  0  0  0  0  0
  -20.5430  -25.7332   30.2980 C   0  0  0  0  0  0  0  0  0  0  0  0
  -30.7290  -14.7660   20.6560 C   0  0  0  0  0  0  0  0  0  0  0  0
  -17.3180  -22.7269   20.0278 C   0  0  0  0  0  0  0  0  0  0  0  0
  -19.9440  -21.7412   25.9061 C   0  0  0  0  0  0  0  0  0  0  0  0
  -21.7035  -23.9277   26.8379 C   0  0  0  0  0  0  0  0  0  0  0  0
  -17.3133  -23.8047   21.1088 C   0  0  0  0  0  0  0  0  0  0  0  0
  -29.6145  -12.3523   18.2876 C   0  0  0  0  0  0  0  0  0  0  0  0
  -18.7271  -24.3237   21.3513 C   0  0  0  0  0  0  0  0  0  0  0  0
  -28.1746  -12.0614   18.7167 C   0  0  0  0  0  0  0  0  0  0  0  0
  -30.5293  -12.5809   19.4896 C   0  0  0  0  0  0  0  0  0  0  0  0
  -28.6221  -13.3063   20.8701 C   0  0  0  0  0  0  0  0  0  0  0  0
  -19.6487  -23.2030   21.8474 C   0  0  1  0  0  0  0  0  0  0  0  0
  -19.6100  -23.2070   25.6463 C   0  0  1  0  0  0  0  0  0  0  0  0
  -27.6496  -13.1333   19.6919 C   0  0  2  0  0  0  0  0  0  0  0  0
  -34.1337  -17.5117   23.6228 C   0  0  0  0  0  0  0  0  0  0  0  0
  -20.0009  -27.0985   32.3326 C   0  0  0  0  0  0  0  0  0  0  0  0
  -20.8671  -27.6521   25.7893 C   0  0  0  0  0  0  0  0  0  0  0  0
  -21.1574  -28.6177   28.0810 C   0  0  0  0  0  0  0  0  0  0  0  0
  -18.8673  -28.1714   27.1984 C   0  0  0  0  0  0  0  0  0  0  0  0
  -19.9525  -23.3183   31.9038 C   0  0  0  0  0  0  0  0  0  0  0  0
  -26.0748  -19.7690   26.0442 C   0  0  0  0  0  0  0  0  0  1  0  0
  -20.3351  -26.2276   27.8759 C   0  0  1  0  0  0  0  0  0  0  0  0
  -19.7594  -25.7896   31.5969 C   0  0  2  0  0  0  0  0  0  0  0  0
  -20.3175  -27.6417   27.2297 C   0  0  0  0  0  0  0  0  0  0  0  0
  -25.8616  -11.5427   20.2872 N   0  0  0  0  0  0  0  0  0  0  0  0
  -26.2391  -12.8261   20.1589 N   0  0  0  0  0  0  0  0  0  0  0  0
  -20.2634  -24.1121   26.5939 N   0  0  0  0  0  0  0  0  0  0  0  0
  -29.9704  -13.6120   20.3666 N   0  0  0  0  0  0  0  0  0  0  0  0
  -25.4735  -15.0539   20.4064 N   0  0  0  0  0  0  0  0  0  0  0  0
  -21.8871  -12.5813   21.5979 N   0  0  0  0  0  0  0  0  0  0  0  0
  -30.0818  -15.6914   21.4741 N   0  0  0  0  0  0  0  0  0  0  0  0
  -19.4100  -22.9358   23.2496 N   0  0  0  0  0  0  0  0  0  0  0  0
  -19.7951  -26.1828   29.2304 N   0  0  0  0  0  0  0  0  0  0  0  0
  -20.1586  -24.6668   32.4919 N   0  3  0  0  0  0  0  0  0  0  0  0
  -22.6637  -14.7207   21.3180 O   0  0  0  0  0  0  0  0  0  0  0  0
  -28.0751  -21.0742   26.3423 O   0  0  0  0  0  0  0  0  0  0  0  0
  -20.7881  -24.5895   24.1378 O   0  0  0  0  0  0  0  0  0  0  0  0
  -18.3434  -25.4020   26.8870 O   0  0  0  0  0  0  0  0  0  0  0  0
  -21.7038  -25.3339   30.2372 O   0  0  0  0  0  0  0  0  0  0  0  0
  -31.8584  -14.9342   20.1887 O   0  0  0  0  0  0  0  0  0  0  0  0
  -21.6115   -7.0182   21.7066 O   0  0  0  0  0  0  0  0  0  0  0  0
  -25.4493  -20.7801   26.8334 O   0  0  0  0  0  0  0  0  0  1  0  0
  -18.6189   -6.8615   26.3351 F   0  0  0  0  0  0  0  0  0  0  0  0
  -22.0605   -5.0747   23.6207 F   0  0  0  0  0  0  0  0  0  0  0  0
  1  2  1  0  0  0  0
  1  5  2  0  0  0  0
  2  6  2  0  0  0  0
  3  8  2  0  0  0  0
  3 18  1  0  0  0  0
  4  9  1  0  0  0  0
  4 18  2  0  0  0  0
  5 21  1  0  0  0  0
  6 23  1  0  0  0  0
  7 10  2  0  0  0  0
  7 22  1  0  0  0  0
  8 27  1  0  0  0  0
  9 27  2  0  0  0  0
 10 28  1  0  0  0  0
 11 12  2  0  0  0  0
 11 29  1  0  0  0  0
 12 30  1  0  0  0  0
 13 19  1  0  0  0  0
 13 25  2  0  0  0  0
 14 19  2  0  0  0  0
 14 26  1  0  0  0  0
 15 24  1  0  0  0  0
 15 28  2  0  0  0  0
 16 25  1  0  0  0  0
 16 26  2  0  0  0  0
 17 30  2  0  0  0  0
 17 31  1  0  0  0  0
 18 32  1  0  0  0  0
 19 34  1  0  0  0  0
 20 32  1  0  0  0  0
 20 33  2  0  0  0  0
 20 36  1  0  0  0  0
 21 23  2  0  0  0  0
 21 42  1  0  0  0  0
 22 24  2  0  0  0  0
 22 43  1  0  0  0  0
 23 51  1  0  0  0  0
 24 44  1  0  0  0  0
 25 54  1  0  0  0  0
 26 70  1  0  0  0  0
 27 80  1  0  0  0  0
 28 81  1  0  0  0  0
 29 31  2  0  0  0  0
 29 80  1  0  0  0  0
 30 82  1  0  0  0  0
 31 83  1  0  0  0  0
 32 64  2  0  0  0  0
 33 65  1  0  0  0  0
 33 68  1  0  0  0  0
 34 35  2  0  0  0  0
 35 37  1  0  0  0  0
 36 69  1  0  0  0  0
 36 74  2  0  0  0  0
 37 60  1  0  0  0  0
 37 75  2  0  0  0  0
 38 52  1  0  0  0  0
 38 71  1  0  0  0  0
 38 76  2  0  0  0  0
 39 61  1  0  0  0  0
 39 66  1  0  0  0  0
 39 77  2  0  0  0  0
 40 62  1  0  0  0  0
 40 72  1  0  0  0  0
 40 78  2  0  0  0  0
 41 67  1  0  0  0  0
 41 70  1  0  0  0  0
 41 79  2  0  0  0  0
 42 45  1  0  0  0  0
 43 52  1  0  0  0  0
 44 66  1  0  0  0  0
 45 47  1  0  0  0  0
 46 48  1  0  0  0  0
 46 49  1  0  0  0  0
 47 51  1  0  0  0  0
 48 53  1  0  0  0  0
 49 67  1  0  0  0  0
 50 53  1  0  0  0  0
 50 67  1  0  0  0  0
 51 71  1  0  0  0  0
 52 66  1  0  0  0  0
 53 65  1  0  0  0  0
 55 62  1  0  0  0  0
 56 63  1  0  0  0  0
 57 63  1  0  0  0  0
 58 63  1  0  0  0  0
 59 73  1  0  0  0  0
 60 81  1  0  0  0  0
 61 63  1  0  0  0  0
 61 72  1  0  0  0  0
 62 73  1  0  0  0  0
 64 65  1  0  0  0  0
M  CHG  1  73   1
M  ISO  4  41 100  60 101  70 100  81 101
M  END
> <Batch ID>
0124

> <Smiles>
CNC(C)C(=O)NC(C(=O)N1Cc2cc([101O:1][101CH2:1]C(=O)C=Cc3cc(C)cc([100NH:0][100C:0](=O)N4CCCC(n5nc(-c6ccc(Oc7ccc(F)cc7F)cc6)c(C(N)=O)c5N)C4)c3)ccc2CC1C(=O)NC1CCCc2ccccc21)C(C)(C)C

> <Shape>
0.170

> <Color>
0.196

> <Negative vol penalty>
0.000

$$$$

  -OEChem-04052302063D

 87 95  0     1  0  0  0  0  0999 V2000
  -29.1289  -37.6825   25.3803 C   0  0  0  0  0  0  0  0  0  0  0  0
  -29.3811  -36.3145   25.3606 C   0  0  0  0  0  0  0  0  0  0  0  0
  -23.1588   -9.7897   19.8133 C   0  0  0  0  0  0  0  0  0  0  0  0
  -23.9699   -9.6494   22.0848 C   0  0  0  0  0  0  0  0  0  0  0  0
  -27.8154  -38.1486   25.3422 C   0  0  0  0  0  0  0  0  0  0  0  0
  -28.3199  -35.4118   25.3039 C   0  0  0  0  0  0  0  0  0  0  0  0
  -28.2292  -30.0136   22.4130 C   0  0  0  0  0  0  0  0  0  0  0  0
  -22.4791   -8.5833   19.9814 C   0  0  0  0  0  0  0  0  0  0  0  0
  -23.2902   -8.4430   22.2529 C   0  0  0  0  0  0  0  0  0  0  0  0
  -28.4146  -28.7064   22.8610 C   0  0  0  0  0  0  0  0  0  0  0  0
  -20.1204   -7.4338   22.8484 C   0  0  0  0  0  0  0  0  0  0  0  0
  -19.3935   -7.2600   24.0261 C   0  0  0  0  0  0  0  0  0  0  0  0
  -26.0247  -28.4392   23.0514 C   0  0  0  0  0  0  0  0  0  0  0  0
  -30.8536  -17.9247   20.9494 C   0  0  0  0  0  0  0  0  0  0  0  0
  -29.3705  -19.3135   22.8610 C   0  0  0  0  0  0  0  0  0  0  0  0
  -20.7463   -5.3355   24.5770 C   0  0  0  0  0  0  0  0  0  0  0  0
  -23.9042  -10.3227   20.8650 C   0  0  0  0  0  0  0  0  0  0  0  0
  -24.1172  -12.8635   20.9468 C   0  0  0  0  0  0  0  0  0  0  0  0
  -26.7379  -37.2513   25.2752 C   0  0  0  0  0  0  0  0  0  0  0  0
  -26.9384  -30.5479   22.2910 C   0  0  0  0  0  0  0  0  0  0  0  0
  -26.9907  -35.8663   25.2662 C   0  0  0  0  0  0  0  0  0  0  0  0
  -25.8255  -29.7525   22.5992 C   0  0  0  0  0  0  0  0  0  0  0  0
  -30.9666  -19.3115   21.0473 C   0  0  0  0  0  0  0  0  0  0  0  0
  -29.9989  -17.2322   21.8072 C   0  0  0  0  0  0  0  0  0  0  0  0
  -30.2251  -20.0059   22.0031 C   0  0  0  0  0  0  0  0  0  0  0  0
  -29.2574  -17.9267   22.7630 C   0  0  0  0  0  0  0  0  0  0  0  0
  -22.5448   -7.9100   21.2013 C   0  0  0  0  0  0  0  0  0  0  0  0
  -27.3124  -27.9199   23.1830 C   0  0  0  0  0  0  0  0  0  0  0  0
  -21.1602   -6.5585   22.5350 C   0  0  0  0  0  0  0  0  0  0  0  0
  -19.7064   -6.2109   24.8904 C   0  0  0  0  0  0  0  0  0  0  0  0
  -21.4732   -5.5094   23.3993 C   0  0  0  0  0  0  0  0  0  0  0  0
  -24.6070  -11.5686   20.6917 C   0  0  0  0  0  0  0  0  0  0  0  0
  -25.1621  -13.6952   20.6260 C   0  0  0  0  0  0  0  0  0  0  0  0
  -31.2631  -22.0562   18.7698 C   0  0  0  0  0  0  0  0  0  0  0  0
  -29.5051  -23.6166   22.6147 C   0  0  0  0  0  0  0  0  0  0  0  0
  -31.1653  -20.7431   19.0065 C   0  0  0  0  0  0  0  0  0  0  0  0
  -29.3793  -22.2887   22.5194 C   0  0  0  0  0  0  0  0  0  0  0  0
  -22.8326  -13.2775   21.4306 C   0  0  0  0  0  0  0  0  0  0  0  0
  -28.3674  -24.4591   23.0786 C   0  0  0  0  0  0  0  0  0  0  0  0
  -25.3783  -32.9720   23.6302 C   0  0  0  0  0  0  0  0  0  0  0  0
  -23.0836  -32.1733   21.4812 C   0  0  0  0  0  0  0  0  0  0  0  0
  -21.6962  -29.7844   19.4774 C   0  0  0  0  0  0  0  0  0  0  0  0
  -30.5720  -15.0030   20.7832 C   0  0  0  0  0  0  0  0  0  0  0  0
  -25.3336  -37.8013   25.2836 C   0  0  0  0  0  0  0  0  0  0  0  0
  -26.7542  -31.9508   21.7809 C   0  0  0  0  0  0  0  0  0  0  0  0
  -24.4181  -30.2722   22.4661 C   0  0  0  0  0  0  0  0  0  0  0  0
  -24.2797  -36.7874   24.8459 C   0  0  0  0  0  0  0  0  0  0  0  0
  -29.5250  -12.7355   18.2457 C   0  0  0  0  0  0  0  0  0  0  0  0
  -24.5018  -35.4505   25.5462 C   0  0  0  0  0  0  0  0  0  0  0  0
  -28.1119  -12.3363   18.6768 C   0  0  0  0  0  0  0  0  0  0  0  0
  -30.4549  -12.9127   19.4447 C   0  0  0  0  0  0  0  0  0  0  0  0
  -28.5465  -13.4234   20.9165 C   0  0  0  0  0  0  0  0  0  0  0  0
  -25.8672  -34.8561   25.1800 C   0  0  1  0  0  0  0  0  0  0  0  0
  -25.4165  -32.5628   22.1850 C   0  0  1  0  0  0  0  0  0  0  0  0
  -27.5567  -13.2966   19.7469 C   0  0  2  0  0  0  0  0  0  0  0  0
  -19.8062  -29.4181   17.8677 C   0  0  0  0  0  0  0  0  0  0  0  0
  -21.1283  -32.0100   23.8179 C   0  0  0  0  0  0  0  0  0  0  0  0
  -19.5608  -30.7490   22.3276 C   0  0  0  0  0  0  0  0  0  0  0  0
  -20.2062  -33.0908   21.7597 C   0  0  0  0  0  0  0  0  0  0  0  0
  -23.5532  -29.1668   17.2573 C   0  0  0  0  0  0  0  0  0  0  0  0
  -31.8896  -20.0279   20.1159 C   0  0  0  0  0  0  0  0  0  0  0  0
  -28.6399  -25.9471   23.1418 C   0  0  0  0  0  0  0  0  0  1  0  0
  -21.9006  -31.2354   21.4792 C   0  0  1  0  0  0  0  0  0  0  0  0
  -21.2658  -29.8161   18.0220 C   0  0  2  0  0  0  0  0  0  0  0  0
  -20.7255  -31.7619   22.3505 C   0  0  0  0  0  0  0  0  0  0  0  0
  -25.8651  -11.5723   20.2432 N   0  0  0  0  0  0  0  0  0  0  0  0
  -26.1746  -12.8797   20.2139 N   0  0  0  0  0  0  0  0  0  0  0  0
  -24.2902  -31.6521   21.9692 N   0  0  0  0  0  0  0  0  0  0  0  0
  -29.8657  -13.8387   20.4143 N   0  0  0  0  0  0  0  0  0  0  0  0
  -28.3870  -17.2450   23.6432 N   0  0  0  0  0  0  0  0  0  0  0  0
  -25.3042  -15.0373   20.6588 N   0  0  0  0  0  0  0  0  0  0  0  0
  -21.8751  -12.2931   21.7109 N   0  0  0  0  0  0  0  0  0  0  0  0
  -30.3247  -21.4017   22.1138 N   0  0  0  0  0  0  0  0  0  0  0  0
  -29.8984  -15.8240   21.6871 N   0  0  0  0  0  0  0  0  0  0  0  0
  -25.8219  -34.2600   23.8621 N   0  0  0  0  0  0  0  0  0  0  0  0
  -21.5550  -31.0172   20.0787 N   0  0  0  0  0  0  0  0  0  0  0  0
  -22.0966  -28.8778   17.2156 N   0  3  0  0  0  0  0  0  0  0  0  0
  -22.5368  -14.4856   21.5935 O   0  0  0  0  0  0  0  0  0  0  0  0
  -27.2822  -23.9742   23.3874 O   0  0  0  0  0  0  0  0  0  0  0  0
  -24.9749  -32.1786   24.4724 O   0  0  0  0  0  0  0  0  0  0  0  0
  -22.9439  -33.3237   21.0584 O   0  0  0  0  0  0  0  0  0  0  0  0
  -22.1122  -28.7668   20.0270 O   0  0  0  0  0  0  0  0  0  0  0  0
  -31.6803  -15.2671   20.3099 O   0  0  0  0  0  0  0  0  0  0  0  0
  -21.8815   -6.7329   21.3658 O   0  0  0  0  0  0  0  0  0  0  0  0
  -27.4905  -26.6439   23.6212 O   0  0  0  0  0  0  0  0  0  1  0  0
  -19.0093   -6.0450   26.0221 F   0  0  0  0  0  0  0  0  0  0  0  0
  -22.4719   -4.6660   23.1042 F   0  0  0  0  0  0  0  0  0  0  0  0
  1  2  1  0  0  0  0
  1  5  2  0  0  0  0
  2  6  2  0  0  0  0
  3  8  2  0  0  0  0
  3 17  1  0  0  0  0
  4  9  1  0  0  0  0
  4 17  2  0  0  0  0
  5 19  1  0  0  0  0
  6 21  1  0  0  0  0
  7 10  2  0  0  0  0
  7 20  1  0  0  0  0
  8 27  1  0  0  0  0
  9 27  2  0  0  0  0
 10 28  1  0  0  0  0
 11 12  2  0  0  0  0
 11 29  1  0  0  0  0
 12 30  1  0  0  0  0
 13 22  1  0  0  0  0
 13 28  2  0  0  0  0
 14 23  1  0  0  0  0
 14 24  2  0  0  0  0
 15 25  1  0  0  0  0
 15 26  2  0  0  0  0
 16 30  2  0  0  0  0
 16 31  1  0  0  0  0
 17 32  1  0  0  0  0
 18 32  1  0  0  0  0
 18 33  2  0  0  0  0
 18 38  1  0  0  0  0
 19 21  2  0  0  0  0
 19 44  1  0  0  0  0
 20 22  2  0  0  0  0
 20 45  1  0  0  0  0
 21 53  1  0  0  0  0
 22 46  1  0  0  0  0
 23 25  2  0  0  0  0
 23 61  1  0  0  0  0
 24 26  1  0  0  0  0
 24 74  1  0  0  0  0
 25 73  1  0  0  0  0
 26 70  1  0  0  0  0
 27 84  1  0  0  0  0
 28 85  1  0  0  0  0
 29 31  2  0  0  0  0
 29 84  1  0  0  0  0
 30 86  1  0  0  0  0
 31 87  1  0  0  0  0
 32 66  2  0  0  0  0
 33 67  1  0  0  0  0
 33 71  1  0  0  0  0
 34 36  2  0  0  0  0
 35 37  2  0  0  0  0
 35 39  1  0  0  0  0
 36 61  1  0  0  0  0
 37 73  1  0  0  0  0
 38 72  1  0  0  0  0
 38 78  2  0  0  0  0
 39 62  1  0  0  0  0
 39 79  2  0  0  0  0
 40 54  1  0  0  0  0
 40 75  1  0  0  0  0
 40 80  2  0  0  0  0
 41 63  1  0  0  0  0
 41 68  1  0  0  0  0
 41 81  2  0  0  0  0
 42 64  1  0  0  0  0
 42 76  1  0  0  0  0
 42 82  2  0  0  0  0
 43 69  1  0  0  0  0
 43 74  1  0  0  0  0
 43 83  2  0  0  0  0
 44 47  1  0  0  0  0
 45 54  1  0  0  0  0
 46 68  1  0  0  0  0
 47 49  1  0  0  0  0
 48 50  1  0  0  0  0
 48 51  1  0  0  0  0
 49 53  1  0  0  0  0
 50 55  1  0  0  0  0
 51 69  1  0  0  0  0
 52 55  1  0  0  0  0
 52 69  1  0  0  0  0
 53 75  1  0  0  0  0
 54 68  1  0  0  0  0
 55 67  1  0  0  0  0
 56 64  1  0  0  0  0
 57 65  1  0  0  0  0
 58 65  1  0  0  0  0
 59 65  1  0  0  0  0
 60 77  1  0  0  0  0
 62 85  1  0  0  0  0
 63 65  1  0  0  0  0
 63 76  1  0  0  0  0
 64 77  1  0  0  0  0
 66 67  1  0  0  0  0
M  CHG  1  77   1
M  ISO  4  43 100  62 101  74 100  85 101
M  END
> <Batch ID>
0124

> <Smiles>
C=CCc1cc([100NH:0][100C:0](=O)N2CCCC(n3nc(-c4ccc(Oc5ccc(F)cc5F)cc4)c(C(N)=O)c3N)C2)c(N)cc1NC=CC(=O)[101CH2:1][101O:1]c1ccc2c(c1)CN(C(=O)C(NC(=O)C(C)NC)C(C)(C)C)C(C(=O)NC1CCCc3ccccc31)C2

> <Shape>
0.322

> <Color>
0.182

> <Negative vol penalty>
0.000

$$$$

  -OEChem-04052302063D

 82 90  0     1  0  0  0  0  0999 V2000
  -38.9615  -31.9993   26.6680 C   0  0  0  0  0  0  0  0  0  0  0  0
  -38.2181  -30.8259   26.7450 C   0  0  0  0  0  0  0  0  0  0  0  0
  -23.0610   -9.7925   20.0322 C   0  0  0  0  0  0  0  0  0  0  0  0
  -23.7929   -9.9179   22.3313 C   0  0  0  0  0  0  0  0  0  0  0  0
  -38.4456  -33.1073   25.9973 C   0  0  0  0  0  0  0  0  0  0  0  0
  -36.9576  -30.7603   26.1522 C   0  0  0  0  0  0  0  0  0  0  0  0
  -36.2539  -26.4714   23.5533 C   0  0  0  0  0  0  0  0  0  0  0  0
  -32.6376  -17.5418   23.2422 C   0  0  0  0  0  0  0  0  0  0  0  0
  -32.0399  -16.6218   22.3809 C   0  0  0  0  0  0  0  0  0  0  0  0
  -22.3103   -8.6561   20.3332 C   0  0  0  0  0  0  0  0  0  0  0  0
  -23.0421   -8.7815   22.6322 C   0  0  0  0  0  0  0  0  0  0  0  0
  -35.9604  -25.3230   24.2873 C   0  0  0  0  0  0  0  0  0  0  0  0
  -19.3419   -7.9448   21.7877 C   0  0  0  0  0  0  0  0  0  0  0  0
  -18.0409   -7.8767   21.2895 C   0  0  0  0  0  0  0  0  0  0  0  0
  -33.6217  -25.5910   23.7603 C   0  0  0  0  0  0  0  0  0  0  0  0
  -30.4642  -18.4482   23.7825 C   0  0  0  0  0  0  0  0  0  0  0  0
  -18.6101   -5.8653   20.0780 C   0  0  0  0  0  0  0  0  0  0  0  0
  -23.8023  -10.4234   21.0313 C   0  0  0  0  0  0  0  0  0  0  0  0
  -24.1541  -12.9378   20.7831 C   0  0  0  0  0  0  0  0  0  0  0  0
  -37.1823  -33.0522   25.3877 C   0  0  0  0  0  0  0  0  0  0  0  0
  -35.2304  -27.1956   22.9253 C   0  0  0  0  0  0  0  0  0  0  0  0
  -36.4237  -31.8692   25.4738 C   0  0  0  0  0  0  0  0  0  0  0  0
  -33.9051  -26.7469   23.0168 C   0  0  0  0  0  0  0  0  0  0  0  0
  -29.8665  -17.5282   22.9211 C   0  0  0  0  0  0  0  0  0  0  0  0
  -31.8498  -18.4550   23.9431 C   0  0  0  0  0  0  0  0  0  0  0  0
  -30.6544  -16.6150   22.2203 C   0  0  0  0  0  0  0  0  0  0  0  0
  -22.3008   -8.1506   21.6332 C   0  0  0  0  0  0  0  0  0  0  0  0
  -34.6439  -24.8842   24.3933 C   0  0  0  0  0  0  0  0  0  0  0  0
  -20.2771   -6.9732   21.4311 C   0  0  0  0  0  0  0  0  0  0  0  0
  -17.6750   -6.8369   20.4347 C   0  0  0  0  0  0  0  0  0  0  0  0
  -19.9112   -5.9335   20.5763 C   0  0  0  0  0  0  0  0  0  0  0  0
  -24.5785  -11.5970   20.7209 C   0  0  0  0  0  0  0  0  0  0  0  0
  -25.2531  -13.6642   20.3945 C   0  0  0  0  0  0  0  0  0  0  0  0
  -33.4341  -21.5806   25.0707 C   0  0  0  0  0  0  0  0  0  0  0  0
  -33.7577  -22.7206   24.4594 C   0  0  0  0  0  0  0  0  0  1  0  0
  -32.7921  -20.5129   24.2810 C   0  0  0  0  0  0  0  0  0  0  0  0
  -22.8803  -13.4783   21.1587 C   0  0  0  0  0  0  0  0  0  0  0  0
  -34.0825  -30.1478   23.1916 C   0  0  0  0  0  0  0  0  0  0  0  0
  -32.2972  -29.2666   20.6306 C   0  0  0  0  0  0  0  0  0  0  0  0
  -30.8916  -26.7472   18.8077 C   0  0  0  0  0  0  0  0  0  0  0  0
  -30.7202  -14.7028   20.5816 C   0  0  0  0  0  0  0  0  0  0  0  0
  -36.6464  -34.2909   24.7144 C   0  0  0  0  0  0  0  0  0  0  0  0
  -35.5666  -28.4174   22.1149 C   0  0  0  0  0  0  0  0  0  0  0  0
  -32.7723  -27.4772   22.3445 C   0  0  0  0  0  0  0  0  0  0  0  0
  -35.4614  -34.0182   23.7915 C   0  0  0  0  0  0  0  0  0  0  0  0
  -29.6267  -12.1709   18.3297 C   0  0  0  0  0  0  0  0  0  0  0  0
  -34.4456  -33.1125   24.4803 C   0  0  0  0  0  0  0  0  0  0  0  0
  -28.1809  -11.9062   18.7562 C   0  0  0  0  0  0  0  0  0  0  0  0
  -30.5278  -12.4601   19.5289 C   0  0  0  0  0  0  0  0  0  0  0  0
  -28.6066  -13.2612   20.8466 C   0  0  0  0  0  0  0  0  0  0  0  0
  -35.0630  -31.7511   24.8223 C   0  0  1  0  0  0  0  0  0  0  0  0
  -34.3837  -29.3655   21.9446 C   0  0  1  0  0  0  0  0  0  0  0  0
  -27.6476  -13.0290   19.6675 C   0  0  2  0  0  0  0  0  0  0  0  0
  -28.3798  -17.5428   22.7693 C   0  0  0  0  0  0  0  0  0  0  0  0
  -29.4575  -26.3394   16.7892 C   0  0  0  0  0  0  0  0  0  0  0  0
  -29.8326  -30.1249   22.2114 C   0  0  0  0  0  0  0  0  0  0  0  0
  -28.4278  -28.8424   20.5834 C   0  0  0  0  0  0  0  0  0  0  0  0
  -29.7997  -30.7711   19.7956 C   0  0  0  0  0  0  0  0  0  0  0  0
  -33.0262  -25.2032   17.4592 C   0  0  0  0  0  0  0  0  0  0  0  0
  -30.9494  -28.6138   20.4407 C   0  0  1  0  0  0  0  0  0  0  0  0
  -30.8784  -26.4700   17.3152 C   0  0  2  0  0  0  0  0  0  0  0  0
  -29.7733  -29.5752   20.7722 C   0  0  0  0  0  0  0  0  0  0  0  0
  -25.8480  -11.4759   20.3239 N   0  0  0  0  0  0  0  0  0  0  0  0
  -32.4523  -19.3821   24.8107 N   0  0  0  0  0  0  0  0  0  0  0  0
  -26.2308  -12.7499   20.1330 N   0  0  0  0  0  0  0  0  0  0  0  0
  -33.1512  -28.6698   21.5689 N   0  0  0  0  0  0  0  0  0  0  0  0
  -29.9616  -13.5370   20.3440 N   0  0  0  0  0  0  0  0  0  0  0  0
  -25.4688  -14.9894   20.2543 N   0  0  0  0  0  0  0  0  0  0  0  0
  -21.8613  -12.5909   21.5307 N   0  0  0  0  0  0  0  0  0  0  0  0
  -30.0660  -15.6713   21.3423 N   0  0  0  0  0  0  0  0  0  0  0  0
  -35.1377  -30.9189   23.6406 N   0  0  0  0  0  0  0  0  0  0  0  0
  -30.9339  -28.0990   19.0757 N   0  0  0  0  0  0  0  0  0  0  0  0
  -31.6080  -25.2052   17.0168 N   0  3  0  0  0  0  0  0  0  0  0  0
  -22.6475  -14.7109   21.1484 O   0  0  0  0  0  0  0  0  0  0  0  0
  -32.9744  -30.0595   23.7074 O   0  0  0  0  0  0  0  0  0  0  0  0
  -32.5847  -30.2650   19.9656 O   0  0  0  0  0  0  0  0  0  0  0  0
  -30.8632  -25.8539   19.6514 O   0  0  0  0  0  0  0  0  0  0  0  0
  -31.8554  -14.8437   20.1197 O   0  0  0  0  0  0  0  0  0  0  0  0
  -21.5682   -7.0418   21.9272 O   0  0  0  0  0  0  0  0  0  0  0  0
  -34.3546  -23.7640   25.1097 O   0  0  0  0  0  0  0  0  0  1  0  0
  -16.4251   -6.7708   19.9575 F   0  0  0  0  0  0  0  0  0  0  0  0
  -20.8049   -4.9965   20.2311 F   0  0  0  0  0  0  0  0  0  0  0  0
  1  2  1  0  0  0  0
  1  5  2  0  0  0  0
  2  6  2  0  0  0  0
  3 10  2  0  0  0  0
  3 18  1  0  0  0  0
  4 11  1  0  0  0  0
  4 18  2  0  0  0  0
  5 20  1  0  0  0  0
  6 22  1  0  0  0  0
  7 12  2  0  0  0  0
  7 21  1  0  0  0  0
  8  9  2  0  0  0  0
  8 25  1  0  0  0  0
  9 26  1  0  0  0  0
 10 27  1  0  0  0  0
 11 27  2  0  0  0  0
 12 28  1  0  0  0  0
 13 14  2  0  0  0  0
 13 29  1  0  0  0  0
 14 30  1  0  0  0  0
 15 23  1  0  0  0  0
 15 28  2  0  0  0  0
 16 24  1  0  0  0  0
 16 25  2  0  0  0  0
 17 30  2  0  0  0  0
 17 31  1  0  0  0  0
 18 32  1  0  0  0  0
 19 32  1  0  0  0  0
 19 33  2  0  0  0  0
 19 37  1  0  0  0  0
 20 22  2  0  0  0  0
 20 42  1  0  0  0  0
 21 23  2  0  0  0  0
 21 43  1  0  0  0  0
 22 51  1  0  0  0  0
 23 44  1  0  0  0  0
 24 26  2  0  0  0  0
 24 54  1  0  0  0  0
 25 64  1  0  0  0  0
 26 70  1  0  0  0  0
 27 79  1  0  0  0  0
 28 80  1  0  0  0  0
 29 31  2  0  0  0  0
 29 79  1  0  0  0  0
 30 81  1  0  0  0  0
 31 82  1  0  0  0  0
 32 63  2  0  0  0  0
 33 65  1  0  0  0  0
 33 68  1  0  0  0  0
 34 35  2  0  0  0  0
 34 36  1  0  0  0  0
 35 80  1  0  0  0  0
 36 64  2  0  0  0  0
 37 69  1  0  0  0  0
 37 74  2  0  0  0  0
 38 52  1  0  0  0  0
 38 71  1  0  0  0  0
 38 75  2  0  0  0  0
 39 60  1  0  0  0  0
 39 66  1  0  0  0  0
 39 76  2  0  0  0  0
 40 61  1  0  0  0  0
 40 72  1  0  0  0  0
 40 77  2  0  0  0  0
 41 67  1  0  0  0  0
 41 70  1  0  0  0  0
 41 78  2  0  0  0  0
 42 45  1  0  0  0  0
 43 52  1  0  0  0  0
 44 66  1  0  0  0  0
 45 47  1  0  0  0  0
 46 48  1  0  0  0  0
 46 49  1  0  0  0  0
 47 51  1  0  0  0  0
 48 53  1  0  0  0  0
 49 67  1  0  0  0  0
 50 53  1  0  0  0  0
 50 67  1  0  0  0  0
 51 71  1  0  0  0  0
 52 66  1  0  0  0  0
 53 65  1  0  0  0  0
 55 61  1  0  0  0  0
 56 62  1  0  0  0  0
 57 62  1  0  0  0  0
 58 62  1  0  0  0  0
 59 73  1  0  0  0  0
 60 62  1  0  0  0  0
 60 72  1  0  0  0  0
 61 73  1  0  0  0  0
 63 65  1  0  0  0  0
M  CHG  1  73   1
M  ISO  4  35 101  41 100  70 100  80 101
M  END
> <Batch ID>
0124

> <Smiles>
CNC(C)C(=O)NC(C(=O)N1Cc2cc([101O:1][101CH:1]=CC=Nc3ccc([100NH:0][100C:0](=O)N4CCCC(n5nc(-c6ccc(Oc7ccc(F)cc7F)cc6)c(C(N)=O)c5N)C4)c(C)c3)ccc2CC1C(=O)NC1CCCc2ccccc21)C(C)(C)C

> <Shape>
0.187

> <Color>
0.211

> <Negative vol penalty>
0.000

$$$$

  -OEChem-04052302063D

 83 91  0     1  0  0  0  0  0999 V2000
  -27.3901  -20.9301   15.6836 C   0  0  0  0  0  0  0  0  0  0  0  0
  -27.9179  -19.9051   16.4623 C   0  0  0  0  0  0  0  0  0  0  0  0
  -26.8687  -29.6256   20.6497 C   0  0  0  0  0  0  0  0  0  0  0  0
  -25.2612  -27.8509   20.9717 C   0  0  0  0  0  0  0  0  0  0  0  0
  -26.1581  -21.4922   16.0151 C   0  0  0  0  0  0  0  0  0  0  0  0
  -27.2142  -19.4425   17.5738 C   0  0  0  0  0  0  0  0  0  0  0  0
  -27.1307  -14.3868   17.8536 C   0  0  0  0  0  0  0  0  0  0  0  0
  -25.8283  -30.5476   20.5367 C   0  0  0  0  0  0  0  0  0  0  0  0
  -24.2207  -28.7730   20.8588 C   0  0  0  0  0  0  0  0  0  0  0  0
  -28.2801  -13.7563   18.3278 C   0  0  0  0  0  0  0  0  0  0  0  0
  -22.7246  -31.0895   22.8123 C   0  0  0  0  0  0  0  0  0  0  0  0
  -21.6863  -31.0095   23.7403 C   0  0  0  0  0  0  0  0  0  0  0  0
  -27.2506  -13.5243   20.4970 C   0  0  0  0  0  0  0  0  0  0  0  0
  -30.3650  -19.5794   21.8463 C   0  0  0  0  0  0  0  0  0  0  0  0
  -20.1120  -30.6344   21.9464 C   0  0  0  0  0  0  0  0  0  0  0  0
  -30.6347  -18.7665   19.6275 C   0  0  0  0  0  0  0  0  0  0  0  0
  -26.5852  -28.2772   20.8671 C   0  0  0  0  0  0  0  0  0  0  0  0
  -28.3261  -26.9337   22.1602 C   0  0  0  0  0  0  0  0  0  0  0  0
  -25.4345  -21.0296   17.1256 C   0  0  0  0  0  0  0  0  0  0  0  0
  -26.0348  -14.6009   18.7019 C   0  0  0  0  0  0  0  0  0  0  0  0
  -25.9719  -19.9998   17.9212 C   0  0  0  0  0  0  0  0  0  0  0  0
  -26.0874  -14.1555   20.0304 C   0  0  0  0  0  0  0  0  0  0  0  0
  -30.3383  -18.2629   22.2929 C   0  0  0  0  0  0  0  0  0  0  0  0
  -30.5156  -19.8446   20.4897 C   0  0  0  0  0  0  0  0  0  0  0  0
  -24.5042  -30.1214   20.6413 C   0  0  0  0  0  0  0  0  0  0  0  0
  -28.3414  -13.3275   19.6505 C   0  0  0  0  0  0  0  0  0  0  0  0
  -22.4566  -30.9420   21.4514 C   0  0  0  0  0  0  0  0  0  0  0  0
  -20.3800  -30.7819   23.3073 C   0  0  0  0  0  0  0  0  0  0  0  0
  -21.1503  -30.7144   21.0184 C   0  0  0  0  0  0  0  0  0  0  0  0
  -27.6596  -27.3241   20.9833 C   0  0  0  0  0  0  0  0  0  0  0  0
  -30.4651  -17.2557   21.3499 C   0  0  0  0  0  0  0  0  0  0  0  0
  -29.2556  -26.0142   21.7395 C   0  0  0  0  0  0  0  0  0  0  0  0
  -31.5057  -15.2229   21.4482 C   0  0  0  0  0  0  0  0  0  0  0  0
  -28.1230  -27.3637   23.5129 C   0  0  0  0  0  0  0  0  0  0  0  0
  -24.5079  -17.1680   19.7893 C   0  0  0  0  0  0  0  0  0  0  0  0
  -22.4840  -14.9576   21.0305 C   0  0  0  0  0  0  0  0  0  0  0  0
  -22.7661  -11.7634   22.6843 C   0  0  0  0  0  0  0  0  0  0  0  0
  -30.6906  -21.5887   18.6804 C   0  0  0  0  0  0  0  0  0  0  0  0
  -24.1289  -21.7005   17.4720 C   0  0  0  0  0  0  0  0  0  0  0  0
  -24.7921  -15.2587   18.1677 C   0  0  0  0  0  0  0  0  0  0  0  0
  -24.9304  -14.3432   20.9762 C   0  0  0  0  0  0  0  0  0  0  0  0
  -23.2717  -20.8980   18.4474 C   0  0  0  0  0  0  0  0  0  0  0  0
  -30.7776  -24.7661   17.0761 C   0  0  0  0  0  0  0  0  0  0  0  0
  -24.1185  -20.3927   19.6113 C   0  0  0  0  0  0  0  0  0  0  0  0
  -30.0290  -25.6828   18.0464 C   0  0  0  0  0  0  0  0  0  0  0  0
  -30.1632  -23.3683   17.0281 C   0  0  0  0  0  0  0  0  0  0  0  0
  -29.2567  -23.6310   19.3037 C   0  0  0  0  0  0  0  0  0  0  0  0
  -25.2271  -19.4539   19.1201 C   0  0  1  0  0  0  0  0  0  0  0  0
  -23.9311  -15.8855   19.2600 C   0  0  1  0  0  0  0  0  0  0  0  0
  -29.8785  -25.0309   19.4350 C   0  0  2  0  0  0  0  0  0  0  0  0
  -30.1781  -17.9710   23.7448 C   0  0  0  0  0  0  0  0  0  0  0  0
  -21.1642   -9.8347   22.7917 C   0  0  0  0  0  0  0  0  0  0  0  0
  -21.5523  -16.2519   23.6318 C   0  0  0  0  0  0  0  0  0  0  0  0
  -21.3090  -13.9578   24.6046 C   0  0  0  0  0  0  0  0  0  0  0  0
  -19.9319  -14.6282   22.6356 C   0  0  0  0  0  0  0  0  0  0  0  0
  -24.7930   -9.8718   21.6487 C   0  0  0  0  0  0  0  0  0  0  0  0
  -31.5935  -13.7626   21.7986 C   0  0  0  0  0  0  0  0  0  0  0  0
  -31.8135  -12.9163   20.5504 C   0  0  0  0  0  0  0  0  0  0  0  0
  -30.7037  -13.0862   19.5197 C   0  0  0  0  0  0  0  0  0  1  0  0
  -22.4032  -14.1917   22.3289 C   0  0  1  0  0  0  0  0  0  0  0  0
  -22.3974  -10.4072   22.1104 C   0  0  2  0  0  0  0  0  0  0  0  0
  -21.3241  -14.7660   23.2896 C   0  0  0  0  0  0  0  0  0  0  0  0
  -30.6132  -17.4743   20.0240 N   0  0  0  0  0  0  0  0  0  0  0  0
  -28.1262  -26.7036   19.8965 N   0  0  0  0  0  0  0  0  0  0  0  0
  -30.4451  -15.9047   21.7348 N   0  0  0  0  0  0  0  0  0  0  0  0
  -29.0959  -25.9140   20.3888 N   0  0  0  0  0  0  0  0  0  0  0  0
  -23.7399  -14.9973   20.4084 N   0  0  0  0  0  0  0  0  0  0  0  0
  -30.0558  -22.8121   18.3787 N   0  0  0  0  0  0  0  0  0  0  0  0
  -30.1859  -25.2898   22.3970 N   0  0  0  0  0  0  0  0  0  0  0  0
  -27.1258  -28.3146   23.7691 N   0  0  0  0  0  0  0  0  0  0  0  0
  -30.5465  -21.1755   20.0044 N   0  0  0  0  0  0  0  0  0  0  0  0
  -24.6870  -18.1436   18.8273 N   0  0  0  0  0  0  0  0  0  0  0  0
  -22.1971  -12.7937   21.9660 N   0  0  0  0  0  0  0  0  0  0  0  0
  -23.5221   -9.4460   22.2893 N   0  3  0  0  0  0  0  0  0  0  0  0
  -28.8167  -26.9301   24.4638 O   0  0  0  0  0  0  0  0  0  0  0  0
  -24.7696  -17.2657   20.9825 O   0  0  0  0  0  0  0  0  0  0  0  0
  -21.4685  -15.4946   20.5810 O   0  0  0  0  0  0  0  0  0  0  0  0
  -23.4838  -11.8954   23.6732 O   0  0  0  0  0  0  0  0  0  0  0  0
  -31.3390  -20.9680   17.8340 O   0  0  0  0  0  0  0  0  0  0  0  0
  -23.4887  -31.0209   20.5314 O   0  0  0  0  0  0  0  0  0  0  0  0
  -29.4624  -12.7124   20.1161 O   0  0  0  0  0  0  0  0  0  1  0  0
  -19.3833  -30.7036   24.1987 F   0  0  0  0  0  0  0  0  0  0  0  0
  -20.8869  -30.5707   19.7124 F   0  0  0  0  0  0  0  0  0  0  0  0
  1  2  1  0  0  0  0
  1  5  2  0  0  0  0
  2  6  2  0  0  0  0
  3  8  2  0  0  0  0
  3 17  1  0  0  0  0
  4  9  1  0  0  0  0
  4 17  2  0  0  0  0
  5 19  1  0  0  0  0
  6 21  1  0  0  0  0
  7 10  2  0  0  0  0
  7 20  1  0  0  0  0
  8 25  1  0  0  0  0
  9 25  2  0  0  0  0
 10 26  1  0  0  0  0
 11 12  2  0  0  0  0
 11 27  1  0  0  0  0
 12 28  1  0  0  0  0
 13 22  1  0  0  0  0
 13 26  2  0  0  0  0
 14 23  1  0  0  0  0
 14 24  2  0  0  0  0
 15 28  2  0  0  0  0
 15 29  1  0  0  0  0
 16 24  1  0  0  0  0
 16 63  2  0  0  0  0
 17 30  1  0  0  0  0
 18 30  1  0  0  0  0
 18 32  2  0  0  0  0
 18 34  1  0  0  0  0
 19 21  2  0  0  0  0
 19 39  1  0  0  0  0
 20 22  2  0  0  0  0
 20 40  1  0  0  0  0
 21 48  1  0  0  0  0
 22 41  1  0  0  0  0
 23 31  2  0  0  0  0
 23 51  1  0  0  0  0
 24 71  1  0  0  0  0
 25 80  1  0  0  0  0
 26 81  1  0  0  0  0
 27 29  2  0  0  0  0
 27 80  1  0  0  0  0
 28 82  1  0  0  0  0
 29 83  1  0  0  0  0
 30 64  2  0  0  0  0
 31 63  1  0  0  0  0
 31 65  1  0  0  0  0
 32 66  1  0  0  0  0
 32 69  1  0  0  0  0
 33 57  1  0  0  0  0
 33 65  2  0  0  0  0
 34 70  1  0  0  0  0
 34 75  2  0  0  0  0
 35 49  1  0  0  0  0
 35 72  1  0  0  0  0
 35 76  2  0  0  0  0
 36 60  1  0  0  0  0
 36 67  1  0  0  0  0
 36 77  2  0  0  0  0
 37 61  1  0  0  0  0
 37 73  1  0  0  0  0
 37 78  2  0  0  0  0
 38 68  1  0  0  0  0
 38 71  1  0  0  0  0
 38 79  2  0  0  0  0
 39 42  1  0  0  0  0
 40 49  1  0  0  0  0
 41 67  1  0  0  0  0
 42 44  1  0  0  0  0
 43 45  1  0  0  0  0
 43 46  1  0  0  0  0
 44 48  1  0  0  0  0
 45 50  1  0  0  0  0
 46 68  1  0  0  0  0
 47 50  1  0  0  0  0
 47 68  1  0  0  0  0
 48 72  1  0  0  0  0
 49 67  1  0  0  0  0
 50 66  1  0  0  0  0
 52 61  1  0  0  0  0
 53 62  1  0  0  0  0
 54 62  1  0  0  0  0
 55 62  1  0  0  0  0
 56 74  1  0  0  0  0
 57 58  1  0  0  0  0
 58 59  1  0  0  0  0
 59 81  1  0  0  0  0
 60 62  1  0  0  0  0
 60 73  1  0  0  0  0
 61 74  1  0  0  0  0
 64 66  1  0  0  0  0
M  CHG  1  74   1
M  ISO  4  38 100  59 101  71 100  81 101
M  END
> <Batch ID>
0124

> <Smiles>
CNC(C)C(=O)NC(C(=O)N1Cc2cc([101O:1][101CH2:1]CC=CNc3ncc([100NH:0][100C:0](=O)N4CCCC(n5nc(-c6ccc(Oc7ccc(F)cc7F)cc6)c(C(N)=O)c5N)C4)cc3C)ccc2CC1C(=O)NC1CCCc2ccccc21)C(C)(C)C

> <Shape>
0.263

> <Color>
0.065

> <Negative vol penalty>
0.000

$$$$

  -OEChem-04052302063D

 87 95  0     1  0  0  0  0  0999 V2000
  -28.8919  -37.1917   22.1795 C   0  0  0  0  0  0  0  0  0  0  0  0
  -29.2226  -35.9022   21.7752 C   0  0  0  0  0  0  0  0  0  0  0  0
  -23.0127  -10.3926   21.6408 C   0  0  0  0  0  0  0  0  0  0  0  0
  -22.8516  -12.7703   22.0380 C   0  0  0  0  0  0  0  0  0  0  0  0
  -27.8648  -37.3902   23.1011 C   0  0  0  0  0  0  0  0  0  0  0  0
  -28.5270  -34.8104   22.2934 C   0  0  0  0  0  0  0  0  0  0  0  0
  -27.1262  -29.6141   19.3707 C   0  0  0  0  0  0  0  0  0  0  0  0
  -21.9803  -10.1704   22.5521 C   0  0  0  0  0  0  0  0  0  0  0  0
  -21.8192  -12.5481   22.9493 C   0  0  0  0  0  0  0  0  0  0  0  0
  -27.7212  -28.3533   19.3616 C   0  0  0  0  0  0  0  0  0  0  0  0
  -21.6071  -10.0382   25.9088 C   0  0  0  0  0  0  0  0  0  0  0  0
  -21.7713   -9.0077   26.8344 C   0  0  0  0  0  0  0  0  0  0  0  0
  -29.6601  -17.5560   19.4750 C   0  0  0  0  0  0  0  0  0  0  0  0
  -26.1624  -27.6122   21.0469 C   0  0  0  0  0  0  0  0  0  0  0  0
  -19.7958   -7.9173   25.9708 C   0  0  0  0  0  0  0  0  0  0  0  0
  -23.4484  -11.6925   21.3838 C   0  0  0  0  0  0  0  0  0  0  0  0
  -30.1376  -16.8853   18.3490 C   0  0  0  0  0  0  0  0  0  0  0  0
  -30.2624  -19.6696   18.4714 C   0  0  0  0  0  0  0  0  0  0  0  0
  -24.3940  -12.1459   19.0583 C   0  0  0  0  0  0  0  0  0  0  0  0
  -27.1498  -36.3009   23.6235 C   0  0  0  0  0  0  0  0  0  0  0  0
  -26.0499  -29.8871   20.2272 C   0  0  0  0  0  0  0  0  0  0  0  0
  -27.4902  -34.9945   23.2239 C   0  0  0  0  0  0  0  0  0  0  0  0
  -25.5538  -28.8765   21.0630 C   0  0  0  0  0  0  0  0  0  0  0  0
  -30.6775  -17.6067   17.2843 C   0  0  0  0  0  0  0  0  0  0  0  0
  -30.7399  -18.9989   17.3454 C   0  0  0  0  0  0  0  0  0  0  0  0
  -21.3836  -11.2482   23.2063 C   0  0  0  0  0  0  0  0  0  0  0  0
  -27.2412  -27.3530   20.2019 C   0  0  0  0  0  0  0  0  0  0  0  0
  -20.5372  -10.0083   25.0143 C   0  0  0  0  0  0  0  0  0  0  0  0
  -20.8656   -7.9472   26.8654 C   0  0  0  0  0  0  0  0  0  0  0  0
  -29.7225  -18.9482   19.5362 C   0  0  0  0  0  0  0  0  0  0  0  0
  -19.6316   -8.9479   25.0452 C   0  0  0  0  0  0  0  0  0  0  0  0
  -24.5151  -11.9226   20.4429 C   0  0  0  0  0  0  0  0  0  0  0  0
  -25.6864  -12.3072   18.6221 C   0  0  0  0  0  0  0  0  0  0  0  0
  -30.3175  -21.1389   18.5646 C   0  0  0  0  0  0  0  0  0  0  0  0
  -29.2497  -21.9432   18.6884 C   0  0  0  0  0  0  0  0  0  0  0  0
  -29.3601  -23.3837   18.7677 C   0  0  0  0  0  0  0  0  0  0  0  0
  -28.2996  -24.1955   18.8914 C   0  0  0  0  0  0  0  0  0  0  0  0
  -30.0569  -15.4312   18.3137 C   0  0  0  0  0  0  0  0  0  0  0  0
  -23.2183  -12.2026   18.2395 C   0  0  0  0  0  0  0  0  0  0  0  0
  -30.7404  -14.5979   19.3294 C   0  0  0  0  0  0  0  0  0  0  0  0
  -25.5544  -31.9028   22.6345 C   0  0  0  0  0  0  0  0  0  0  0  0
  -22.5277  -30.7485   22.4654 C   0  0  0  0  0  0  0  0  0  0  0  0
  -20.4424  -28.2102   21.5403 C   0  0  0  0  0  0  0  0  0  0  0  0
  -26.0791  -36.5620   24.6531 C   0  0  0  0  0  0  0  0  0  0  0  0
  -25.4019  -31.2443   20.2057 C   0  0  0  0  0  0  0  0  0  0  0  0
  -24.3878  -29.1126   21.9867 C   0  0  0  0  0  0  0  0  0  0  0  0
  -25.1415  -35.3771   24.8707 C   0  0  0  0  0  0  0  0  0  0  0  0
  -30.0881  -11.4667   20.9502 C   0  0  0  0  0  0  0  0  0  0  0  0
  -25.9389  -34.0850   25.0162 C   0  0  0  0  0  0  0  0  0  0  0  0
  -28.5661  -11.3447   20.8828 C   0  0  0  0  0  0  0  0  0  0  0  0
  -30.5248  -12.9184   21.1186 C   0  0  0  0  0  0  0  0  0  0  0  0
  -28.4639  -13.7164   19.9942 C   0  0  0  0  0  0  0  0  0  0  0  0
  -26.7423  -33.7863   23.7446 C   0  0  1  0  0  0  0  0  0  0  0  0
  -24.6423  -31.5642   21.4895 C   0  0  1  0  0  0  0  0  0  0  0  0
  -27.9857  -12.2674   19.7964 C   0  0  2  0  0  0  0  0  0  0  0  0
  -31.3222  -19.7649   16.1976 C   0  0  0  0  0  0  0  0  0  0  0  0
  -30.2171  -16.9711   14.9030 C   0  0  0  0  0  0  0  0  0  0  0  0
  -18.0245  -27.5390   21.5651 C   0  0  0  0  0  0  0  0  0  0  0  0
  -22.7369  -30.1138   25.4425 C   0  0  0  0  0  0  0  0  0  0  0  0
  -20.7391  -28.6254   25.1945 C   0  0  0  0  0  0  0  0  0  0  0  0
  -20.5374  -31.0682   24.7314 C   0  0  0  0  0  0  0  0  0  0  0  0
  -20.3349  -28.0561   18.5867 C   0  0  0  0  0  0  0  0  0  0  0  0
  -31.1878  -16.8867   16.0754 C   0  0  0  0  0  0  0  0  0  0  0  0
  -28.4031  -25.6843   18.9684 C   0  0  0  0  0  0  0  0  0  1  0  0
  -21.7860  -29.5961   23.0986 C   0  0  1  0  0  0  0  0  0  0  0  0
  -19.1337  -28.2114   20.7711 C   0  0  2  0  0  0  0  0  0  0  0  0
  -21.4731  -29.8467   24.6009 C   0  0  0  0  0  0  0  0  0  0  0  0
  -25.7843  -11.9396   20.8589 N   0  0  0  0  0  0  0  0  0  0  0  0
  -29.3893  -14.7748   17.4055 N   0  0  0  0  0  0  0  0  0  0  0  0
  -26.4725  -12.1754   19.7289 N   0  0  0  0  0  0  0  0  0  0  0  0
  -29.9278  -13.7723   20.0937 N   0  0  0  0  0  0  0  0  0  0  0  0
  -23.7920  -30.4579   21.9337 N   0  0  0  0  0  0  0  0  0  0  0  0
  -26.2157  -12.5473   17.4037 N   0  0  0  0  0  0  0  0  0  0  0  0
  -21.9701  -12.0155   18.8489 N   0  0  0  0  0  0  0  0  0  0  0  0
  -25.8793  -33.2434   22.7175 N   0  0  0  0  0  0  0  0  0  0  0  0
  -20.6055  -29.3671   22.2725 N   0  0  0  0  0  0  0  0  0  0  0  0
  -19.2919  -27.4869   19.4785 N   0  3  0  0  0  0  0  0  0  0  0  0
  -23.2742  -12.3966   17.0015 O   0  0  0  0  0  0  0  0  0  0  0  0
  -31.9563  -14.7277   19.3866 O   0  0  0  0  0  0  0  0  0  0  0  0
  -25.9340  -31.0140   23.3879 O   0  0  0  0  0  0  0  0  0  0  0  0
  -22.0014  -31.8638   22.4369 O   0  0  0  0  0  0  0  0  0  0  0  0
  -21.2385  -27.2748   21.4989 O   0  0  0  0  0  0  0  0  0  0  0  0
  -20.3760  -11.0318   24.0954 O   0  0  0  0  0  0  0  0  0  0  0  0
  -27.8206  -26.1217   20.1955 O   0  0  0  0  0  0  0  0  0  1  0  0
  -21.0243   -6.9569   27.7532 F   0  0  0  0  0  0  0  0  0  0  0  0
  -29.2596  -19.5769   20.6268 F   0  0  0  0  0  0  0  0  0  0  0  0
  -18.6025   -8.9131   24.1876 F   0  0  0  0  0  0  0  0  0  0  0  0
  1  2  1  0  0  0  0
  1  5  2  0  0  0  0
  2  6  2  0  0  0  0
  3  8  2  0  0  0  0
  3 16  1  0  0  0  0
  4  9  1  0  0  0  0
  4 16  2  0  0  0  0
  5 20  1  0  0  0  0
  6 22  1  0  0  0  0
  7 10  2  0  0  0  0
  7 21  1  0  0  0  0
  8 26  1  0  0  0  0
  9 26  2  0  0  0  0
 10 27  1  0  0  0  0
 11 12  2  0  0  0  0
 11 28  1  0  0  0  0
 12 29  1  0  0  0  0
 13 17  2  0  0  0  0
 13 30  1  0  0  0  0
 14 23  1  0  0  0  0
 14 27  2  0  0  0  0
 15 29  2  0  0  0  0
 15 31  1  0  0  0  0
 16 32  1  0  0  0  0
 17 24  1  0  0  0  0
 17 38  1  0  0  0  0
 18 25  1  0  0  0  0
 18 30  2  0  0  0  0
 18 34  1  0  0  0  0
 19 32  1  0  0  0  0
 19 33  2  0  0  0  0
 19 39  1  0  0  0  0
 20 22  2  0  0  0  0
 20 44  1  0  0  0  0
 21 23  2  0  0  0  0
 21 45  1  0  0  0  0
 22 53  1  0  0  0  0
 23 46  1  0  0  0  0
 24 25  2  0  0  0  0
 24 63  1  0  0  0  0
 25 56  1  0  0  0  0
 26 83  1  0  0  0  0
 27 84  1  0  0  0  0
 28 31  2  0  0  0  0
 28 83  1  0  0  0  0
 29 85  1  0  0  0  0
 30 86  1  0  0  0  0
 31 87  1  0  0  0  0
 32 68  2  0  0  0  0
 33 70  1  0  0  0  0
 33 73  1  0  0  0  0
 34 35  2  0  0  0  0
 35 36  1  0  0  0  0
 36 37  2  0  0  0  0
 37 64  1  0  0  0  0
 38 40  1  0  0  0  0
 38 69  2  0  0  0  0
 39 74  1  0  0  0  0
 39 78  2  0  0  0  0
 40 71  1  0  0  0  0
 40 79  2  0  0  0  0
 41 54  1  0  0  0  0
 41 75  1  0  0  0  0
 41 80  2  0  0  0  0
 42 65  1  0  0  0  0
 42 72  1  0  0  0  0
 42 81  2  0  0  0  0
 43 66  1  0  0  0  0
 43 76  1  0  0  0  0
 43 82  2  0  0  0  0
 44 47  1  0  0  0  0
 45 54  1  0  0  0  0
 46 72  1  0  0  0  0
 47 49  1  0  0  0  0
 48 50  1  0  0  0  0
 48 51  1  0  0  0  0
 49 53  1  0  0  0  0
 50 55  1  0  0  0  0
 51 71  1  0  0  0  0
 52 55  1  0  0  0  0
 52 71  1  0  0  0  0
 53 75  1  0  0  0  0
 54 72  1  0  0  0  0
 55 70  1  0  0  0  0
 57 63  1  0  0  0  0
 58 66  1  0  0  0  0
 59 67  1  0  0  0  0
 60 67  1  0  0  0  0
 61 67  1  0  0  0  0
 62 77  1  0  0  0  0
 64 84  1  0  0  0  0
 65 67  1  0  0  0  0
 65 76  1  0  0  0  0
 66 77  1  0  0  0  0
 68 70  1  0  0  0  0
M  CHG  1  77   1
M  ISO  4  38 100  40 100  64 101  84 101
M  END
> <Batch ID>
0124

> <Smiles>
CCc1c([100C:0](=N)[100C:0](=O)N2CCCC(n3nc(-c4ccc(Oc5ccc(F)cc5F)cc4)c(C(N)=O)c3N)C2)cc(F)c(C=CC=C[101CH2:1][101O:1]c2ccc3c(c2)CN(C(=O)C(NC(=O)C(C)NC)C(C)(C)C)C(C(=O)NC2CCCc4ccccc42)C3)c1C

> <Shape>
0.286

> <Color>
0.094

> <Negative vol penalty>
0.000

$$$$

  -OEChem-04052302063D

 86 94  0     1  0  0  0  0  0999 V2000
  -35.1485  -28.7924   25.5221 C   0  0  0  0  0  0  0  0  0  0  0  0
  -34.5490  -27.6168   25.9626 C   0  0  0  0  0  0  0  0  0  0  0  0
  -23.1428   -9.8145   19.9570 C   0  0  0  0  0  0  0  0  0  0  0  0
  -23.5665  -10.0010   22.3282 C   0  0  0  0  0  0  0  0  0  0  0  0
  -34.7176  -29.3928   24.3398 C   0  0  0  0  0  0  0  0  0  0  0  0
  -33.5174  -27.0415   25.2215 C   0  0  0  0  0  0  0  0  0  0  0  0
  -34.0452  -22.0297   24.7225 C   0  0  0  0  0  0  0  0  0  0  0  0
  -22.3652   -8.6792   20.1852 C   0  0  0  0  0  0  0  0  0  0  0  0
  -22.7889   -8.8658   22.5565 C   0  0  0  0  0  0  0  0  0  0  0  0
  -33.6906  -21.2402   25.8155 C   0  0  0  0  0  0  0  0  0  0  0  0
  -23.1405   -5.5128   22.3018 C   0  0  0  0  0  0  0  0  0  0  0  0
  -23.6419   -4.5490   23.1767 C   0  0  0  0  0  0  0  0  0  0  0  0
  -31.5743  -20.7495   24.7669 C   0  0  0  0  0  0  0  0  0  0  0  0
  -32.1988  -14.3368   23.5954 C   0  0  0  0  0  0  0  0  0  0  0  0
  -21.7145   -4.8418   24.6038 C   0  0  0  0  0  0  0  0  0  0  0  0
  -23.7435  -10.4754   21.0285 C   0  0  0  0  0  0  0  0  0  0  0  0
  -24.1113  -12.9861   20.7662 C   0  0  0  0  0  0  0  0  0  0  0  0
  -33.6867  -28.8193   23.5789 C   0  0  0  0  0  0  0  0  0  0  0  0
  -33.1610  -22.1941   23.6466 C   0  0  0  0  0  0  0  0  0  0  0  0
  -33.0714  -27.6354   24.0286 C   0  0  0  0  0  0  0  0  0  0  0  0
  -31.9211  -21.5395   23.6603 C   0  0  0  0  0  0  0  0  0  0  0  0
  -32.7209  -15.1118   24.6309 C   0  0  0  0  0  0  0  0  0  0  0  0
  -31.1158  -14.1506   26.1595 C   0  0  0  0  0  0  0  0  0  0  0  0
  -30.5936  -13.3757   25.1239 C   0  0  0  0  0  0  0  0  0  0  0  0
  -32.1795  -15.0187   25.9130 C   0  0  0  0  0  0  0  0  0  0  0  0
  -31.1351  -13.4688   23.8419 C   0  0  0  0  0  0  0  0  0  0  0  0
  -22.1883   -8.2049   21.4850 C   0  0  0  0  0  0  0  0  0  0  0  0
  -32.4539  -20.6023   25.8392 C   0  0  0  0  0  0  0  0  0  0  0  0
  -21.9262   -6.1412   22.5780 C   0  0  0  0  0  0  0  0  0  0  0  0
  -22.9289   -4.2135   24.3276 C   0  0  0  0  0  0  0  0  0  0  0  0
  -21.2132   -5.8056   23.7290 C   0  0  0  0  0  0  0  0  0  0  0  0
  -24.5474  -11.6478   20.7933 C   0  0  0  0  0  0  0  0  0  0  0  0
  -25.2478  -13.7124   20.5068 C   0  0  0  0  0  0  0  0  0  0  0  0
  -32.1669  -16.9630   27.1149 C   0  0  0  0  0  0  0  0  0  0  0  0
  -22.7964  -13.5245   20.9583 C   0  0  0  0  0  0  0  0  0  0  0  0
  -31.6612  -24.6703   22.3339 C   0  0  0  0  0  0  0  0  0  0  0  0
  -30.7646  -22.4622   20.1333 C   0  0  0  0  0  0  0  0  0  0  0  0
  -30.2096  -19.1796   19.3825 C   0  0  0  0  0  0  0  0  0  0  0  0
  -31.0569  -12.6789   21.4510 C   0  0  0  0  0  0  0  0  0  0  0  0
  -33.2229  -29.5302   22.3322 C   0  0  0  0  0  0  0  0  0  0  0  0
  -33.5693  -23.0276   22.4629 C   0  0  0  0  0  0  0  0  0  0  0  0
  -30.9442  -21.6674   22.5210 C   0  0  0  0  0  0  0  0  0  0  0  0
  -32.3778  -28.6547   21.4105 C   0  0  0  0  0  0  0  0  0  0  0  0
  -29.4968  -13.3658   18.3250 C   0  0  0  0  0  0  0  0  0  0  0  0
  -31.3191  -27.9029   22.2110 C   0  0  0  0  0  0  0  0  0  0  0  0
  -28.0102  -13.1309   18.6024 C   0  0  0  0  0  0  0  0  0  0  0  0
  -30.3785  -12.3727   19.0801 C   0  0  0  0  0  0  0  0  0  0  0  0
  -28.6452  -12.0629   20.8031 C   0  0  0  0  0  0  0  0  0  0  0  0
  -31.9662  -26.9676   23.2396 C   0  0  1  0  0  0  0  0  0  0  0  0
  -32.3813  -23.5399   21.6546 C   0  0  1  0  0  0  0  0  0  0  0  0
  -27.7204  -13.0804   20.1154 C   0  0  2  0  0  0  0  0  0  0  0  0
  -33.8598  -16.0342   24.3402 C   0  0  0  0  0  0  0  0  0  0  0  0
  -30.5357  -14.0521   27.5357 C   0  0  0  0  0  0  0  0  0  0  0  0
  -26.9686  -12.0474   25.1209 C   0  0  0  0  0  0  0  0  0  0  0  0
  -29.4451  -17.6880   17.5149 C   0  0  0  0  0  0  0  0  0  0  0  0
  -27.8788  -23.3164   20.6356 C   0  0  0  0  0  0  0  0  0  0  0  0
  -27.1322  -21.2114   19.5043 C   0  0  0  0  0  0  0  0  0  0  0  0
  -28.4436  -22.9107   18.2334 C   0  0  0  0  0  0  0  0  0  0  0  0
  -32.7930  -17.7368   19.3219 C   0  0  0  0  0  0  0  0  0  0  0  0
  -29.4524  -12.4444   25.3909 C   0  0  0  0  0  0  0  0  0  0  0  0
  -32.6398  -17.8836   28.2079 C   0  0  0  0  0  0  0  0  0  0  0  0
  -28.1211  -13.0090   24.8783 C   0  0  0  0  0  0  0  0  0  0  0  0
  -33.1615  -19.1783   27.6077 C   0  0  0  0  0  0  0  0  0  1  0  0
  -29.6039  -21.5079   19.9877 C   0  0  1  0  0  0  0  0  0  0  0  0
  -30.6410  -18.3297   18.2010 C   0  0  2  0  0  0  0  0  0  0  0  0
  -28.2820  -22.2356   19.6128 C   0  0  0  0  0  0  0  0  0  0  0  0
  -25.8586  -11.5281   20.5689 N   0  0  0  0  0  0  0  0  0  0  0  0
  -32.7081  -15.7997   26.9544 N   0  0  0  0  0  0  0  0  0  0  0  0
  -26.2562  -12.8005   20.3982 N   0  0  0  0  0  0  0  0  0  0  0  0
  -31.3869  -22.4983   21.3892 N   0  0  0  0  0  0  0  0  0  0  0  0
  -30.0506  -12.3827   20.5074 N   0  0  0  0  0  0  0  0  0  0  0  0
  -25.4730  -15.0356   20.3632 N   0  0  0  0  0  0  0  0  0  0  0  0
  -21.7423  -12.6375   21.2157 N   0  0  0  0  0  0  0  0  0  0  0  0
  -30.6201  -12.6911   22.7752 N   0  0  0  0  0  0  0  0  0  0  0  0
  -32.4576  -25.7691   22.5941 N   0  0  0  0  0  0  0  0  0  0  0  0
  -30.0244  -20.4978   19.0228 N   0  0  0  0  0  0  0  0  0  0  0  0
  -31.5616  -17.2472   18.6503 N   0  3  0  0  0  0  0  0  0  0  0  0
  -22.5604  -14.7545   20.8871 O   0  0  0  0  0  0  0  0  0  0  0  0
  -30.4708  -24.5546   22.6008 O   0  0  0  0  0  0  0  0  0  0  0  0
  -31.1112  -23.1449   19.1661 O   0  0  0  0  0  0  0  0  0  0  0  0
  -30.0491  -18.7194   20.5108 O   0  0  0  0  0  0  0  0  0  0  0  0
  -32.2145  -12.9319   21.1074 O   0  0  0  0  0  0  0  0  0  0  0  0
  -21.4293   -7.0972   21.7081 O   0  0  0  0  0  0  0  0  0  0  0  0
  -32.1051  -19.8316   26.9051 O   0  0  0  0  0  0  0  0  0  1  0  0
  -23.4097   -3.2869   25.1669 F   0  0  0  0  0  0  0  0  0  0  0  0
  -20.0454   -6.4050   23.9990 F   0  0  0  0  0  0  0  0  0  0  0  0
  1  2  1  0  0  0  0
  1  5  2  0  0  0  0
  2  6  2  0  0  0  0
  3  8  2  0  0  0  0
  3 16  1  0  0  0  0
  4  9  1  0  0  0  0
  4 16  2  0  0  0  0
  5 18  1  0  0  0  0
  6 20  1  0  0  0  0
  7 10  2  0  0  0  0
  7 19  1  0  0  0  0
  8 27  1  0  0  0  0
  9 27  2  0  0  0  0
 10 28  1  0  0  0  0
 11 12  2  0  0  0  0
 11 29  1  0  0  0  0
 12 30  1  0  0  0  0
 13 21  1  0  0  0  0
 13 28  2  0  0  0  0
 14 22  1  0  0  0  0
 14 26  2  0  0  0  0
 15 30  2  0  0  0  0
 15 31  1  0  0  0  0
 16 32  1  0  0  0  0
 17 32  1  0  0  0  0
 17 33  2  0  0  0  0
 17 35  1  0  0  0  0
 18 20  2  0  0  0  0
 18 40  1  0  0  0  0
 19 21  2  0  0  0  0
 19 41  1  0  0  0  0
 20 49  1  0  0  0  0
 21 42  1  0  0  0  0
 22 25  2  0  0  0  0
 22 52  1  0  0  0  0
 23 24  2  0  0  0  0
 23 25  1  0  0  0  0
 23 53  1  0  0  0  0
 24 26  1  0  0  0  0
 24 60  1  0  0  0  0
 25 68  1  0  0  0  0
 26 74  1  0  0  0  0
 27 83  1  0  0  0  0
 28 84  1  0  0  0  0
 29 31  2  0  0  0  0
 29 83  1  0  0  0  0
 30 85  1  0  0  0  0
 31 86  1  0  0  0  0
 32 67  2  0  0  0  0
 33 69  1  0  0  0  0
 33 72  1  0  0  0  0
 34 61  1  0  0  0  0
 34 68  2  0  0  0  0
 35 73  1  0  0  0  0
 35 78  2  0  0  0  0
 36 50  1  0  0  0  0
 36 75  1  0  0  0  0
 36 79  2  0  0  0  0
 37 64  1  0  0  0  0
 37 70  1  0  0  0  0
 37 80  2  0  0  0  0
 38 65  1  0  0  0  0
 38 76  1  0  0  0  0
 38 81  2  0  0  0  0
 39 71  1  0  0  0  0
 39 74  1  0  0  0  0
 39 82  2  0  0  0  0
 40 43  1  0  0  0  0
 41 50  1  0  0  0  0
 42 70  1  0  0  0  0
 43 45  1  0  0  0  0
 44 46  1  0  0  0  0
 44 47  1  0  0  0  0
 45 49  1  0  0  0  0
 46 51  1  0  0  0  0
 47 71  1  0  0  0  0
 48 51  1  0  0  0  0
 48 71  1  0  0  0  0
 49 75  1  0  0  0  0
 50 70  1  0  0  0  0
 51 69  1  0  0  0  0
 54 62  1  0  0  0  0
 55 65  1  0  0  0  0
 56 66  1  0  0  0  0
 57 66  1  0  0  0  0
 58 66  1  0  0  0  0
 59 77  1  0  0  0  0
 60 62  1  0  0  0  0
 61 63  1  0  0  0  0
 63 84  1  0  0  0  0
 64 66  1  0  0  0  0
 64 76  1  0  0  0  0
 65 77  1  0  0  0  0
 67 69  1  0  0  0  0
M  CHG  1  77   1
M  ISO  4  39 100  63 101  74 100  84 101
M  END
> <Batch ID>
0124

> <Smiles>
CCCc1c([100NH:0][100C:0](=O)N2CCCC(n3nc(-c4ccc(Oc5ccc(F)cc5F)cc4)c(C(N)=O)c3N)C2)cc(C)c(NC=C[101CH2:1][101O:1]c2ccc3c(c2)CN(C(=O)C(NC(=O)C(C)NC)C(C)(C)C)C(C(=O)NC2CCCc4ccccc42)C3)c1C

> <Shape>
0.198

> <Color>
0.188

> <Negative vol penalty>
0.000

$$$$

  -OEChem-04052302063D

 83 91  0     1  0  0  0  0  0999 V2000
  -29.7248  -12.0254   20.0036 C   0  0  0  0  0  0  0  0  0  0  0  0
  -29.5713  -13.0117   20.9726 C   0  0  0  0  0  0  0  0  0  0  0  0
  -33.2428  -19.9120   25.0891 C   0  0  0  0  0  0  0  0  0  0  0  0
  -25.5521  -26.6305   20.6881 C   0  0  0  0  0  0  0  0  0  0  0  0
  -26.4051  -25.9468   22.8426 C   0  0  0  0  0  0  0  0  0  0  0  0
  -32.8618  -19.7368   23.7588 C   0  0  0  0  0  0  0  0  0  0  0  0
  -28.9349  -12.0494   18.8549 C   0  0  0  0  0  0  0  0  0  0  0  0
  -28.6285  -14.0233   20.7929 C   0  0  0  0  0  0  0  0  0  0  0  0
  -25.9210  -14.9210   24.9773 C   0  0  0  0  0  0  0  0  0  0  0  0
  -32.2899  -19.8275   26.1043 C   0  0  0  0  0  0  0  0  0  0  0  0
  -24.4144  -27.1520   21.3040 C   0  0  0  0  0  0  0  0  0  0  0  0
  -25.2675  -26.4683   23.4586 C   0  0  0  0  0  0  0  0  0  0  0  0
  -26.5292  -15.6757   25.9794 C   0  0  0  0  0  0  0  0  0  0  0  0
  -21.5136  -25.9772   22.5805 C   0  0  0  0  0  0  0  0  0  0  0  0
  -20.2766  -25.6939   22.0015 C   0  0  0  0  0  0  0  0  0  0  0  0
  -30.5751  -19.3930   24.4589 C   0  0  0  0  0  0  0  0  0  0  0  0
  -25.3282  -17.6286   25.2293 C   0  0  0  0  0  0  0  0  0  0  0  0
  -19.8795  -28.0571   21.6939 C   0  0  0  0  0  0  0  0  0  0  0  0
  -26.5474  -26.0278   21.4574 C   0  0  0  0  0  0  0  0  0  0  0  0
  -31.5280  -19.4774   23.4436 C   0  0  0  0  0  0  0  0  0  0  0  0
  -28.9306  -26.1612   20.5571 C   0  0  0  0  0  0  0  0  0  0  0  0
  -27.9753  -13.0563   18.6656 C   0  0  0  0  0  0  0  0  0  0  0  0
  -25.0186  -15.5180   24.0852 C   0  0  0  0  0  0  0  0  0  0  0  0
  -27.8260  -14.0616   19.6400 C   0  0  0  0  0  0  0  0  0  0  0  0
  -24.7080  -16.8788   24.2182 C   0  0  0  0  0  0  0  0  0  0  0  0
  -30.9562  -19.5681   25.7892 C   0  0  0  0  0  0  0  0  0  0  0  0
  -24.2721  -27.0709   22.6893 C   0  0  0  0  0  0  0  0  0  0  0  0
  -26.2350  -17.0303   26.1038 C   0  0  0  0  0  0  0  0  0  0  0  0
  -21.9335  -27.3004   22.7163 C   0  0  0  0  0  0  0  0  0  0  0  0
  -19.4596  -26.7339   21.5582 C   0  0  0  0  0  0  0  0  0  0  0  0
  -21.1165  -28.3404   22.2729 C   0  0  0  0  0  0  0  0  0  0  0  0
  -27.7226  -25.4884   20.8217 C   0  0  0  0  0  0  0  0  0  0  0  0
  -29.7215  -25.2192   19.9460 C   0  0  0  0  0  0  0  0  0  0  0  0
  -31.1318  -19.2952   22.0560 C   0  0  0  0  0  0  0  0  0  0  0  0
  -29.8755  -19.4191   21.5774 C   0  0  0  0  0  0  0  0  0  0  0  0
  -29.8128  -18.3075   27.3153 C   0  0  0  0  0  0  0  0  0  0  0  0
  -29.3043  -27.5164   20.8387 C   0  0  0  0  0  0  0  0  0  0  0  0
  -29.6335  -19.2114   20.1312 C   0  0  0  0  0  0  0  0  0  0  0  0
  -24.9414  -15.9701   20.9398 C   0  0  0  0  0  0  0  0  0  0  0  0
  -21.9603  -17.0853   21.5657 C   0  0  0  0  0  0  0  0  0  0  0  0
  -19.7905  -18.4466   23.8208 C   0  0  0  0  0  0  0  0  0  0  0  0
  -27.1775  -13.0674   17.3857 C   0  0  0  0  0  0  0  0  0  0  0  0
  -24.3508  -14.6842   23.0263 C   0  0  0  0  0  0  0  0  0  0  0  0
  -23.7307  -17.5627   23.2987 C   0  0  0  0  0  0  0  0  0  0  0  0
  -25.9415  -13.9612   17.4461 C   0  0  0  0  0  0  0  0  0  0  0  0
  -29.4749  -21.3031   17.2233 C   0  0  0  0  0  0  0  0  0  0  0  0
  -26.2915  -15.3160   18.0534 C   0  0  0  0  0  0  0  0  0  0  0  0
  -29.0794  -22.6663   17.7900 C   0  0  0  0  0  0  0  0  0  0  0  0
  -28.8298  -20.1644   18.0065 C   0  0  0  0  0  0  0  0  0  0  0  0
  -28.7199  -21.5693   20.0468 C   0  0  0  0  0  0  0  0  0  0  0  0
  -26.7969  -15.1613   19.4929 C   0  0  1  0  0  0  0  0  0  0  0  0
  -23.8383  -15.5100   21.8504 C   0  0  1  0  0  0  0  0  0  0  0  0
  -29.3744  -22.7437   19.2986 C   0  0  2  0  0  0  0  0  0  0  0  0
  -17.4339  -19.2835   24.0293 C   0  0  0  0  0  0  0  0  0  0  0  0
  -26.9660  -16.5229   29.1236 C   0  0  0  0  0  0  0  0  0  0  0  0
  -22.7353  -19.6316   20.0739 C   0  0  0  0  0  0  0  0  0  0  0  0
  -20.7567  -20.7597   21.1136 C   0  0  0  0  0  0  0  0  0  0  0  0
  -20.4228  -18.8066   19.5981 C   0  0  0  0  0  0  0  0  0  0  0  0
  -19.1358  -16.4344   25.8900 C   0  0  0  0  0  0  0  0  0  0  0  0
  -28.7989  -18.0905   28.4074 C   0  0  0  0  0  0  0  0  0  0  0  0
  -21.3735  -18.4327   21.9108 C   0  0  1  0  0  0  0  0  0  0  0  0
  -18.3612  -18.0885   24.1862 C   0  0  2  0  0  0  0  0  0  0  0  0
  -27.7409  -17.0926   27.9434 C   0  0  2  0  0  0  0  0  0  1  0  0
  -21.3420  -19.3955   20.6904 C   0  0  0  0  0  0  0  0  0  0  0  0
  -27.7399  -24.2173   20.4120 N   0  0  0  0  0  0  0  0  0  0  0  0
  -29.9966  -19.4842   26.8120 N   0  0  0  0  0  0  0  0  0  0  0  0
  -28.9684  -24.0838   19.8837 N   0  0  0  0  0  0  0  0  0  0  0  0
  -29.0991  -20.2882   19.4377 N   0  0  0  0  0  0  0  0  0  0  0  0
  -23.1086  -16.7063   22.2754 N   0  0  0  0  0  0  0  0  0  0  0  0
  -30.9807  -25.2596   19.4610 N   0  0  0  0  0  0  0  0  0  0  0  0
  -28.3713  -28.3491   21.4716 N   0  0  0  0  0  0  0  0  0  0  0  0
  -25.6884  -14.9421   20.3970 N   0  0  0  0  0  0  0  0  0  0  0  0
  -20.0643  -18.1695   22.4981 N   0  0  0  0  0  0  0  0  0  0  0  0
  -18.2896  -17.6203   25.5992 N   0  3  0  0  0  0  0  0  0  0  0  0
  -30.4264  -27.9801   20.5233 O   0  0  0  0  0  0  0  0  0  0  0  0
  -29.9322  -18.1054   19.7001 O   0  0  0  0  0  0  0  0  0  0  0  0
  -25.1019  -17.1689   20.7430 O   0  0  0  0  0  0  0  0  0  0  0  0
  -21.4156  -16.3914   20.7035 O   0  0  0  0  0  0  0  0  0  0  0  0
  -20.5835  -18.9277   24.6271 O   0  0  0  0  0  0  0  0  0  0  0  0
  -23.1622  -27.5799   23.2906 O   0  0  0  0  0  0  0  0  0  0  0  0
  -26.8277  -17.7694   27.0807 O   0  0  0  0  0  0  0  0  0  1  0  0
  -18.2724  -26.4617   21.0008 F   0  0  0  0  0  0  0  0  0  0  0  0
  -21.5151  -29.6135   22.3996 F   0  0  0  0  0  0  0  0  0  0  0  0
  1  2  1  0  0  0  0
  1  7  2  0  0  0  0
  2  8  2  0  0  0  0
  3  6  1  0  0  0  0
  3 10  2  0  0  0  0
  4 11  2  0  0  0  0
  4 19  1  0  0  0  0
  5 12  1  0  0  0  0
  5 19  2  0  0  0  0
  6 20  2  0  0  0  0
  7 22  1  0  0  0  0
  8 24  1  0  0  0  0
  9 13  2  0  0  0  0
  9 23  1  0  0  0  0
 10 26  1  0  0  0  0
 11 27  1  0  0  0  0
 12 27  2  0  0  0  0
 13 28  1  0  0  0  0
 14 15  2  0  0  0  0
 14 29  1  0  0  0  0
 15 30  1  0  0  0  0
 16 20  1  0  0  0  0
 16 26  2  0  0  0  0
 17 25  1  0  0  0  0
 17 28  2  0  0  0  0
 18 30  2  0  0  0  0
 18 31  1  0  0  0  0
 19 32  1  0  0  0  0
 20 34  1  0  0  0  0
 21 32  1  0  0  0  0
 21 33  2  0  0  0  0
 21 37  1  0  0  0  0
 22 24  2  0  0  0  0
 22 42  1  0  0  0  0
 23 25  2  0  0  0  0
 23 43  1  0  0  0  0
 24 51  1  0  0  0  0
 25 44  1  0  0  0  0
 26 66  1  0  0  0  0
 27 80  1  0  0  0  0
 28 81  1  0  0  0  0
 29 31  2  0  0  0  0
 29 80  1  0  0  0  0
 30 82  1  0  0  0  0
 31 83  1  0  0  0  0
 32 65  2  0  0  0  0
 33 67  1  0  0  0  0
 33 70  1  0  0  0  0
 34 35  2  0  0  0  0
 35 38  1  0  0  0  0
 36 60  1  0  0  0  0
 36 66  2  0  0  0  0
 37 71  1  0  0  0  0
 37 75  2  0  0  0  0
 38 68  1  0  0  0  0
 38 76  2  0  0  0  0
 39 52  1  0  0  0  0
 39 72  1  0  0  0  0
 39 77  2  0  0  0  0
 40 61  1  0  0  0  0
 40 69  1  0  0  0  0
 40 78  2  0  0  0  0
 41 62  1  0  0  0  0
 41 73  1  0  0  0  0
 41 79  2  0  0  0  0
 42 45  1  0  0  0  0
 43 52  1  0  0  0  0
 44 69  1  0  0  0  0
 45 47  1  0  0  0  0
 46 48  1  0  0  0  0
 46 49  1  0  0  0  0
 47 51  1  0  0  0  0
 48 53  1  0  0  0  0
 49 68  1  0  0  0  0
 50 53  1  0  0  0  0
 50 68  1  0  0  0  0
 51 72  1  0  0  0  0
 52 69  1  0  0  0  0
 53 67  1  0  0  0  0
 54 62  1  0  0  0  0
 55 63  1  0  0  0  0
 56 64  1  0  0  0  0
 57 64  1  0  0  0  0
 58 64  1  0  0  0  0
 59 74  1  0  0  0  0
 60 63  1  0  0  0  0
 61 64  1  0  0  0  0
 61 73  1  0  0  0  0
 62 74  1  0  0  0  0
 63 81  1  0  0  0  0
 65 67  1  0  0  0  0
M  CHG  1  74   1
M  ISO  4  35 100  38 100  63 101  81 101
M  END
> <Batch ID>
0124

> <Smiles>
CNC(C)C(=O)NC(C(=O)N1Cc2cc([101O:1][101CH:1](C)C=CNc3cccc(C=[100CH:0][100C:0](=O)N4CCCC(n5nc(-c6ccc(Oc7ccc(F)cc7F)cc6)c(C(N)=O)c5N)C4)c3)ccc2CC1C(=O)NC1CCCc2ccccc21)C(C)(C)C

> <Shape>
0.187

> <Color>
0.072

> <Negative vol penalty>
0.000

$$$$

  -OEChem-04052302063D

 83 91  0     1  0  0  0  0  0999 V2000
  -19.3224  -19.5294   19.5968 C   0  0  0  0  0  0  0  0  0  0  0  0
  -20.4211  -19.7576   20.4191 C   0  0  0  0  0  0  0  0  0  0  0  0
  -23.0752   -9.8687   19.9408 C   0  0  0  0  0  0  0  0  0  0  0  0
  -23.8343   -9.8757   22.2344 C   0  0  0  0  0  0  0  0  0  0  0  0
  -18.3208  -20.4934   19.4901 C   0  0  0  0  0  0  0  0  0  0  0  0
  -20.5193  -20.9505   21.1345 C   0  0  0  0  0  0  0  0  0  0  0  0
  -21.9497  -20.2233   25.9376 C   0  0  0  0  0  0  0  0  0  0  0  0
  -22.3308   -8.7159   20.1906 C   0  0  0  0  0  0  0  0  0  0  0  0
  -23.0898   -8.7229   22.4843 C   0  0  0  0  0  0  0  0  0  0  0  0
  -23.3030  -19.9813   26.1693 C   0  0  0  0  0  0  0  0  0  0  0  0
  -19.8611   -7.9265   23.0858 C   0  0  0  0  0  0  0  0  0  0  0  0
  -19.1037   -7.8870   24.2564 C   0  0  0  0  0  0  0  0  0  0  0  0
  -31.8536  -18.3591   24.2017 C   0  0  0  0  0  0  0  0  0  0  0  0
  -29.8802  -17.4563   23.1399 C   0  0  0  0  0  0  0  0  0  0  0  0
  -23.5976  -22.2858   26.8189 C   0  0  0  0  0  0  0  0  0  0  0  0
  -32.0642  -16.6076   22.5510 C   0  0  0  0  0  0  0  0  0  0  0  0
  -20.3441   -5.9491   24.9936 C   0  0  0  0  0  0  0  0  0  0  0  0
  -23.8270  -10.4486   20.9627 C   0  0  0  0  0  0  0  0  0  0  0  0
  -30.4678  -18.3411   24.0441 C   0  0  0  0  0  0  0  0  0  0  0  0
  -24.1699  -12.9736   20.8425 C   0  0  0  0  0  0  0  0  0  0  0  0
  -18.4020  -21.6946   20.2120 C   0  0  0  0  0  0  0  0  0  0  0  0
  -21.4115  -21.5031   26.1348 C   0  0  0  0  0  0  0  0  0  0  0  0
  -19.5185  -21.9320   21.0363 C   0  0  0  0  0  0  0  0  0  0  0  0
  -22.2365  -22.5407   26.5915 C   0  0  0  0  0  0  0  0  0  0  0  0
  -32.6518  -17.4924   23.4551 C   0  0  0  0  0  0  0  0  0  0  0  0
  -30.6784  -16.5895   22.3933 C   0  0  0  0  0  0  0  0  0  0  0  0
  -22.3380   -8.1430   21.4624 C   0  0  0  0  0  0  0  0  0  0  0  0
  -24.1278  -21.0134   26.6072 C   0  0  0  0  0  0  0  0  0  0  0  0
  -20.8599   -6.9772   22.8690 C   0  0  0  0  0  0  0  0  0  0  0  0
  -19.3452   -6.8983   25.2103 C   0  0  0  0  0  0  0  0  0  0  0  0
  -21.1014   -5.9886   23.8229 C   0  0  0  0  0  0  0  0  0  0  0  0
  -24.5967  -11.6391   20.7051 C   0  0  0  0  0  0  0  0  0  0  0  0
  -25.2625  -13.7226   20.4795 C   0  0  0  0  0  0  0  0  0  0  0  0
  -29.6241  -19.2569   24.8321 C   0  0  0  0  0  0  0  0  0  0  0  0
  -28.3142  -19.0823   25.0557 C   0  0  0  0  0  0  0  0  0  0  0  0
  -22.8995  -13.4900   21.2609 C   0  0  0  0  0  0  0  0  0  0  0  0
  -27.5462  -20.0758   25.8612 C   0  0  0  0  0  0  0  0  0  0  0  0
  -20.0041  -23.6566   24.2679 C   0  0  0  0  0  0  0  0  0  0  0  0
  -19.5488  -25.2187   27.0741 C   0  0  0  0  0  0  0  0  0  0  0  0
  -20.5430  -25.7332   30.2980 C   0  0  0  0  0  0  0  0  0  0  0  0
  -30.7290  -14.7660   20.6560 C   0  0  0  0  0  0  0  0  0  0  0  0
  -17.3180  -22.7269   20.0278 C   0  0  0  0  0  0  0  0  0  0  0  0
  -19.9440  -21.7412   25.9061 C   0  0  0  0  0  0  0  0  0  0  0  0
  -21.7035  -23.9277   26.8379 C   0  0  0  0  0  0  0  0  0  0  0  0
  -17.3133  -23.8047   21.1088 C   0  0  0  0  0  0  0  0  0  0  0  0
  -29.6145  -12.3523   18.2876 C   0  0  0  0  0  0  0  0  0  0  0  0
  -18.7271  -24.3237   21.3513 C   0  0  0  0  0  0  0  0  0  0  0  0
  -28.1746  -12.0614   18.7167 C   0  0  0  0  0  0  0  0  0  0  0  0
  -30.5293  -12.5809   19.4896 C   0  0  0  0  0  0  0  0  0  0  0  0
  -28.6221  -13.3063   20.8701 C   0  0  0  0  0  0  0  0  0  0  0  0
  -19.6487  -23.2030   21.8474 C   0  0  1  0  0  0  0  0  0  0  0  0
  -19.6100  -23.2070   25.6463 C   0  0  1  0  0  0  0  0  0  0  0  0
  -27.6496  -13.1333   19.6919 C   0  0  2  0  0  0  0  0  0  0  0  0
  -34.1337  -17.5117   23.6228 C   0  0  0  0  0  0  0  0  0  0  0  0
  -20.0009  -27.0985   32.3326 C   0  0  0  0  0  0  0  0  0  0  0  0
  -20.8671  -27.6521   25.7893 C   0  0  0  0  0  0  0  0  0  0  0  0
  -21.1574  -28.6177   28.0810 C   0  0  0  0  0  0  0  0  0  0  0  0
  -18.8673  -28.1714   27.1984 C   0  0  0  0  0  0  0  0  0  0  0  0
  -19.9525  -23.3183   31.9038 C   0  0  0  0  0  0  0  0  0  0  0  0
  -26.0748  -19.7690   26.0442 C   0  0  0  0  0  0  0  0  0  1  0  0
  -20.3351  -26.2276   27.8759 C   0  0  1  0  0  0  0  0  0  0  0  0
  -19.7594  -25.7896   31.5969 C   0  0  2  0  0  0  0  0  0  0  0  0
  -20.3175  -27.6417   27.2297 C   0  0  0  0  0  0  0  0  0  0  0  0
  -25.8616  -11.5427   20.2872 N   0  0  0  0  0  0  0  0  0  0  0  0
  -26.2391  -12.8261   20.1589 N   0  0  0  0  0  0  0  0  0  0  0  0
  -20.2634  -24.1121   26.5939 N   0  0  0  0  0  0  0  0  0  0  0  0
  -29.9704  -13.6120   20.3666 N   0  0  0  0  0  0  0  0  0  0  0  0
  -25.4735  -15.0539   20.4064 N   0  0  0  0  0  0  0  0  0  0  0  0
  -21.8871  -12.5813   21.5979 N   0  0  0  0  0  0  0  0  0  0  0  0
  -30.0818  -15.6914   21.4741 N   0  0  0  0  0  0  0  0  0  0  0  0
  -19.4100  -22.9358   23.2496 N   0  0  0  0  0  0  0  0  0  0  0  0
  -19.7951  -26.1828   29.2304 N   0  0  0  0  0  0  0  0  0  0  0  0
  -20.1586  -24.6668   32.4919 N   0  3  0  0  0  0  0  0  0  0  0  0
  -22.6637  -14.7207   21.3180 O   0  0  0  0  0  0  0  0  0  0  0  0
  -28.0751  -21.0742   26.3423 O   0  0  0  0  0  0  0  0  0  0  0  0
  -20.7881  -24.5895   24.1378 O   0  0  0  0  0  0  0  0  0  0  0  0
  -18.3434  -25.4020   26.8870 O   0  0  0  0  0  0  0  0  0  0  0  0
  -21.7038  -25.3339   30.2372 O   0  0  0  0  0  0  0  0  0  0  0  0
  -31.8584  -14.9342   20.1887 O   0  0  0  0  0  0  0  0  0  0  0  0
  -21.6115   -7.0182   21.7066 O   0  0  0  0  0  0  0  0  0  0  0  0
  -25.4493  -20.7801   26.8334 O   0  0  0  0  0  0  0  0  0  1  0  0
  -18.6189   -6.8615   26.3351 F   0  0  0  0  0  0  0  0  0  0  0  0
  -22.0605   -5.0747   23.6207 F   0  0  0  0  0  0  0  0  0  0  0  0
  1  2  1  0  0  0  0
  1  5  2  0  0  0  0
  2  6  2  0  0  0  0
  3  8  2  0  0  0  0
  3 18  1  0  0  0  0
  4  9  1  0  0  0  0
  4 18  2  0  0  0  0
  5 21  1  0  0  0  0
  6 23  1  0  0  0  0
  7 10  2  0  0  0  0
  7 22  1  0  0  0  0
  8 27  1  0  0  0  0
  9 27  2  0  0  0  0
 10 28  1  0  0  0  0
 11 12  2  0  0  0  0
 11 29  1  0  0  0  0
 12 30  1  0  0  0  0
 13 19  1  0  0  0  0
 13 25  2  0  0  0  0
 14 19  2  0  0  0  0
 14 26  1  0  0  0  0
 15 24  1  0  0  0  0
 15 28  2  0  0  0  0
 16 25  1  0  0  0  0
 16 26  2  0  0  0  0
 17 30  2  0  0  0  0
 17 31  1  0  0  0  0
 18 32  1  0  0  0  0
 19 34  1  0  0  0  0
 20 32  1  0  0  0  0
 20 33  2  0  0  0  0
 20 36  1  0  0  0  0
 21 23  2  0  0  0  0
 21 42  1  0  0  0  0
 22 24  2  0  0  0  0
 22 43  1  0  0  0  0
 23 51  1  0  0  0  0
 24 44  1  0  0  0  0
 25 54  1  0  0  0  0
 26 70  1  0  0  0  0
 27 80  1  0  0  0  0
 28 81  1  0  0  0  0
 29 31  2  0  0  0  0
 29 80  1  0  0  0  0
 30 82  1  0  0  0  0
 31 83  1  0  0  0  0
 32 64  2  0  0  0  0
 33 65  1  0  0  0  0
 33 68  1  0  0  0  0
 34 35  2  0  0  0  0
 35 37  1  0  0  0  0
 36 69  1  0  0  0  0
 36 74  2  0  0  0  0
 37 60  1  0  0  0  0
 37 75  2  0  0  0  0
 38 52  1  0  0  0  0
 38 71  1  0  0  0  0
 38 76  2  0  0  0  0
 39 61  1  0  0  0  0
 39 66  1  0  0  0  0
 39 77  2  0  0  0  0
 40 62  1  0  0  0  0
 40 72  1  0  0  0  0
 40 78  2  0  0  0  0
 41 67  1  0  0  0  0
 41 70  1  0  0  0  0
 41 79  2  0  0  0  0
 42 45  1  0  0  0  0
 43 52  1  0  0  0  0
 44 66  1  0  0  0  0
 45 47  1  0  0  0  0
 46 48  1  0  0  0  0
 46 49  1  0  0  0  0
 47 51  1  0  0  0  0
 48 53  1  0  0  0  0
 49 67  1  0  0  0  0
 50 53  1  0  0  0  0
 50 67  1  0  0  0  0
 51 71  1  0  0  0  0
 52 66  1  0  0  0  0
 53 65  1  0  0  0  0
 55 62  1  0  0  0  0
 56 63  1  0  0  0  0
 57 63  1  0  0  0  0
 58 63  1  0  0  0  0
 59 73  1  0  0  0  0
 60 81  1  0  0  0  0
 61 63  1  0  0  0  0
 61 72  1  0  0  0  0
 62 73  1  0  0  0  0
 64 65  1  0  0  0  0
M  CHG  1  73   1
M  ISO  4  41 100  60 101  70 100  81 101
M  END
> <Batch ID>
0124

> <Smiles>
CNC(C)C(=O)NC(C(=O)N1Cc2cc([101O:1][101CH2:1]C(=O)C=Cc3cc(C)cc([100NH:0][100C:0](=O)N4CCCC(n5nc(-c6ccc(Oc7ccc(F)cc7F)cc6)c(C(N)=O)c5N)C4)c3)ccc2CC1C(=O)NC1CCCc2ccccc21)C(C)(C)C

> <Shape>
0.170

> <Color>
0.196

> <Negative vol penalty>
0.000

$$$$

  -OEChem-04052302063D

 85 93  0     1  0  0  0  0  0999 V2000
  -26.2010  -35.9533   22.5949 C   0  0  0  0  0  0  0  0  0  0  0  0
  -27.1242  -35.1064   21.9900 C   0  0  0  0  0  0  0  0  0  0  0  0
  -23.1357   -9.8295   21.5036 C   0  0  0  0  0  0  0  0  0  0  0  0
  -23.7869  -10.8426   23.5981 C   0  0  0  0  0  0  0  0  0  0  0  0
  -25.5363  -35.5463   23.7508 C   0  0  0  0  0  0  0  0  0  0  0  0
  -27.3839  -33.8523   22.5414 C   0  0  0  0  0  0  0  0  0  0  0  0
  -29.1223  -27.1684   20.6387 C   0  0  0  0  0  0  0  0  0  0  0  0
  -22.4196   -8.8544   22.1979 C   0  0  0  0  0  0  0  0  0  0  0  0
  -23.0707   -9.8676   24.2924 C   0  0  0  0  0  0  0  0  0  0  0  0
  -30.0602  -26.1769   20.9234 C   0  0  0  0  0  0  0  0  0  0  0  0
  -23.0874   -6.0027   23.8849 C   0  0  0  0  0  0  0  0  0  0  0  0
  -23.2322   -4.6777   23.4739 C   0  0  0  0  0  0  0  0  0  0  0  0
  -28.7937  -25.5486   22.8780 C   0  0  0  0  0  0  0  0  0  0  0  0
  -30.0759  -19.6037   21.8364 C   0  0  0  0  0  0  0  0  0  0  0  0
  -31.7654  -17.4615   21.2539 C   0  0  0  0  0  0  0  0  0  0  0  0
  -20.8625   -4.5603   23.0176 C   0  0  0  0  0  0  0  0  0  0  0  0
  -23.8194  -10.8236   22.2037 C   0  0  0  0  0  0  0  0  0  0  0  0
  -24.0826  -13.0752   21.0338 C   0  0  0  0  0  0  0  0  0  0  0  0
  -25.7808  -34.2827   24.3113 C   0  0  0  0  0  0  0  0  0  0  0  0
  -28.0169  -27.3649   21.4789 C   0  0  0  0  0  0  0  0  0  0  0  0
  -26.7228  -33.4285   23.7068 C   0  0  0  0  0  0  0  0  0  0  0  0
  -27.8418  -26.5415   22.6003 C   0  0  0  0  0  0  0  0  0  0  0  0
  -29.5424  -18.3997   21.3768 C   0  0  0  0  0  0  0  0  0  0  0  0
  -32.2989  -18.6656   21.7134 C   0  0  0  0  0  0  0  0  0  0  0  0
  -31.4542  -19.7367   22.0046 C   0  0  0  0  0  0  0  0  0  0  0  0
  -30.3871  -17.3286   21.0856 C   0  0  0  0  0  0  0  0  0  0  0  0
  -22.3871   -8.8735   23.5922 C   0  0  0  0  0  0  0  0  0  0  0  0
  -29.8975  -25.3687   22.0448 C   0  0  0  0  0  0  0  0  0  0  0  0
  -21.8301   -6.6065   23.8624 C   0  0  0  0  0  0  0  0  0  0  0  0
  -22.1198   -3.9565   23.0402 C   0  0  0  0  0  0  0  0  0  0  0  0
  -20.7177   -5.8853   23.4287 C   0  0  0  0  0  0  0  0  0  0  0  0
  -24.5598  -11.8308   21.4871 C   0  0  0  0  0  0  0  0  0  0  0  0
  -25.1651  -13.6544   20.4180 C   0  0  0  0  0  0  0  0  0  0  0  0
  -32.2798  -21.8203   21.5555 C   0  0  0  0  0  0  0  0  0  0  0  0
  -22.7775  -13.6556   21.1582 C   0  0  0  0  0  0  0  0  0  0  0  0
  -26.9634  -29.7667   23.2749 C   0  0  0  0  0  0  0  0  0  0  0  0
  -24.4063  -27.8159   23.6966 C   0  0  0  0  0  0  0  0  0  0  0  0
  -23.1513  -24.6423   23.6910 C   0  0  0  0  0  0  0  0  0  0  0  0
  -30.5795  -14.9469   20.2875 C   0  0  0  0  0  0  0  0  0  0  0  0
  -25.0728  -33.9056   25.5884 C   0  0  0  0  0  0  0  0  0  0  0  0
  -27.0000  -28.4211   21.1432 C   0  0  0  0  0  0  0  0  0  0  0  0
  -26.6617  -26.6985   23.5229 C   0  0  0  0  0  0  0  0  0  0  0  0
  -25.1288  -32.4118   25.8977 C   0  0  0  0  0  0  0  0  0  0  0  0
  -29.6577  -11.7063   19.1361 C   0  0  0  0  0  0  0  0  0  0  0  0
  -26.5467  -31.8810   25.7117 C   0  0  0  0  0  0  0  0  0  0  0  0
  -28.2100  -11.5522   19.6078 C   0  0  0  0  0  0  0  0  0  0  0  0
  -30.5075  -12.4667   20.1526 C   0  0  0  0  0  0  0  0  0  0  0  0
  -28.5151  -13.6108   21.0416 C   0  0  0  0  0  0  0  0  0  0  0  0
  -27.0134  -32.0506   24.2609 C   0  0  1  0  0  0  0  0  0  0  0  0
  -26.1855  -28.8720   22.3518 C   0  0  1  0  0  0  0  0  0  0  0  0
  -27.6047  -12.9079   20.0214 C   0  0  2  0  0  0  0  0  0  0  0  0
  -33.7780  -18.7842   21.8858 C   0  0  0  0  0  0  0  0  0  0  0  0
  -27.6403  -18.3851   19.7433 C   0  0  0  0  0  0  0  0  0  0  0  0
  -34.2346  -23.3009   21.3228 C   0  0  0  0  0  0  0  0  0  0  0  0
  -21.0358  -23.3599   24.1122 C   0  0  0  0  0  0  0  0  0  0  0  0
  -24.8049  -28.1507   26.7031 C   0  0  0  0  0  0  0  0  0  0  0  0
  -23.3290  -26.1583   27.0502 C   0  0  0  0  0  0  0  0  0  0  0  0
  -22.4193  -28.2063   25.9544 C   0  0  0  0  0  0  0  0  0  0  0  0
  -23.0810  -23.6202   20.9145 C   0  0  0  0  0  0  0  0  0  0  0  0
  -28.0623  -18.2855   21.2058 C   0  0  0  0  0  0  0  0  0  0  0  0
  -31.9135  -24.2682   21.4281 C   0  0  0  0  0  0  0  0  0  1  0  0
  -32.8454  -23.1705   21.9350 C   0  0  1  0  0  0  0  0  0  0  0  0
  -24.0371  -26.7358   24.6845 C   0  0  1  0  0  0  0  0  0  0  0  0
  -21.8962  -24.0566   23.0696 C   0  0  2  0  0  0  0  0  0  0  0  0
  -23.6709  -27.3109   26.0819 C   0  0  0  0  0  0  0  0  0  0  0  0
  -25.8453  -11.6303   21.1850 N   0  0  0  0  0  0  0  0  0  0  0  0
  -31.9741  -20.9567   22.4684 N   0  0  0  0  0  0  0  0  0  0  0  0
  -26.1851  -12.7565   20.5351 N   0  0  0  0  0  0  0  0  0  0  0  0
  -25.6981  -27.7493   23.1556 N   0  0  0  0  0  0  0  0  0  0  0  0
  -29.8742  -13.7424   20.4938 N   0  0  0  0  0  0  0  0  0  0  0  0
  -25.3344  -14.8390   19.7932 N   0  0  0  0  0  0  0  0  0  0  0  0
  -21.7816  -12.9249   21.8204 N   0  0  0  0  0  0  0  0  0  0  0  0
  -29.8642  -16.0976   20.6177 N   0  0  0  0  0  0  0  0  0  0  0  0
  -26.4254  -31.0314   23.4184 N   0  0  0  0  0  0  0  0  0  0  0  0
  -22.9718  -25.9586   24.0604 N   0  0  0  0  0  0  0  0  0  0  0  0
  -22.2540  -23.0646   22.0166 N   0  3  0  0  0  0  0  0  0  0  0  0
  -22.4982  -14.7818   20.6815 O   0  0  0  0  0  0  0  0  0  0  0  0
  -27.9760  -29.3407   23.8179 O   0  0  0  0  0  0  0  0  0  0  0  0
  -23.5766  -28.6825   23.4098 O   0  0  0  0  0  0  0  0  0  0  0  0
  -24.1861  -23.9957   23.8377 O   0  0  0  0  0  0  0  0  0  0  0  0
  -31.7230  -14.9583   19.8247 O   0  0  0  0  0  0  0  0  0  0  0  0
  -21.6882   -7.9223   24.2700 O   0  0  0  0  0  0  0  0  0  0  0  0
  -30.8118  -24.4007   22.3253 O   0  0  0  0  0  0  0  0  0  1  0  0
  -22.2592   -2.6845   22.6441 F   0  0  0  0  0  0  0  0  0  0  0  0
  -19.5076   -6.4604   23.4038 F   0  0  0  0  0  0  0  0  0  0  0  0
  1  2  1  0  0  0  0
  1  5  2  0  0  0  0
  2  6  2  0  0  0  0
  3  8  2  0  0  0  0
  3 17  1  0  0  0  0
  4  9  1  0  0  0  0
  4 17  2  0  0  0  0
  5 19  1  0  0  0  0
  6 21  1  0  0  0  0
  7 10  2  0  0  0  0
  7 20  1  0  0  0  0
  8 27  1  0  0  0  0
  9 27  2  0  0  0  0
 10 28  1  0  0  0  0
 11 12  2  0  0  0  0
 11 29  1  0  0  0  0
 12 30  1  0  0  0  0
 13 22  1  0  0  0  0
 13 28  2  0  0  0  0
 14 23  1  0  0  0  0
 14 25  2  0  0  0  0
 15 24  2  0  0  0  0
 15 26  1  0  0  0  0
 16 30  2  0  0  0  0
 16 31  1  0  0  0  0
 17 32  1  0  0  0  0
 18 32  1  0  0  0  0
 18 33  2  0  0  0  0
 18 35  1  0  0  0  0
 19 21  2  0  0  0  0
 19 40  1  0  0  0  0
 20 22  2  0  0  0  0
 20 41  1  0  0  0  0
 21 49  1  0  0  0  0
 22 42  1  0  0  0  0
 23 26  2  0  0  0  0
 23 60  1  0  0  0  0
 24 25  1  0  0  0  0
 24 52  1  0  0  0  0
 25 67  1  0  0  0  0
 26 73  1  0  0  0  0
 27 82  1  0  0  0  0
 28 83  1  0  0  0  0
 29 31  2  0  0  0  0
 29 82  1  0  0  0  0
 30 84  1  0  0  0  0
 31 85  1  0  0  0  0
 32 66  2  0  0  0  0
 33 68  1  0  0  0  0
 33 71  1  0  0  0  0
 34 62  1  0  0  0  0
 34 67  2  0  0  0  0
 35 72  1  0  0  0  0
 35 77  2  0  0  0  0
 36 50  1  0  0  0  0
 36 74  1  0  0  0  0
 36 78  2  0  0  0  0
 37 63  1  0  0  0  0
 37 69  1  0  0  0  0
 37 79  2  0  0  0  0
 38 64  1  0  0  0  0
 38 75  1  0  0  0  0
 38 80  2  0  0  0  0
 39 70  1  0  0  0  0
 39 73  1  0  0  0  0
 39 81  2  0  0  0  0
 40 43  1  0  0  0  0
 41 50  1  0  0  0  0
 42 69  1  0  0  0  0
 43 45  1  0  0  0  0
 44 46  1  0  0  0  0
 44 47  1  0  0  0  0
 45 49  1  0  0  0  0
 46 51  1  0  0  0  0
 47 70  1  0  0  0  0
 48 51  1  0  0  0  0
 48 70  1  0  0  0  0
 49 74  1  0  0  0  0
 50 69  1  0  0  0  0
 51 68  1  0  0  0  0
 53 60  1  0  0  0  0
 54 62  1  0  0  0  0
 55 64  1  0  0  0  0
 56 65  1  0  0  0  0
 57 65  1  0  0  0  0
 58 65  1  0  0  0  0
 59 76  1  0  0  0  0
 61 62  1  0  0  0  0
 61 83  1  0  0  0  0
 63 65  1  0  0  0  0
 63 75  1  0  0  0  0
 64 76  1  0  0  0  0
 66 68  1  0  0  0  0
M  CHG  1  76   1
M  ISO  4  39 100  61 101  73 100  83 101
M  END
> <Batch ID>
0124

> <Smiles>
CCc1cc(NC=C(C)[101CH2:1][101O:1]c2ccc3c(c2)CN(C(=O)C(NC(=O)C(C)NC)C(C)(C)C)C(C(=O)NC2CCCc4ccccc42)C3)c(C)cc1[100NH:0][100C:0](=O)N1CCCC(n2nc(-c3ccc(Oc4ccc(F)cc4F)cc3)c(C(N)=O)c2N)C1

> <Shape>
0.282

> <Color>
0.167

> <Negative vol penalty>
0.000

$$$$

  -OEChem-04052302063D

 83 91  0     1  0  0  0  0  0999 V2000
  -19.3224  -19.5294   19.5968 C   0  0  0  0  0  0  0  0  0  0  0  0
  -20.4211  -19.7576   20.4191 C   0  0  0  0  0  0  0  0  0  0  0  0
  -23.0752   -9.8687   19.9408 C   0  0  0  0  0  0  0  0  0  0  0  0
  -23.8343   -9.8757   22.2344 C   0  0  0  0  0  0  0  0  0  0  0  0
  -18.3208  -20.4934   19.4901 C   0  0  0  0  0  0  0  0  0  0  0  0
  -20.5193  -20.9505   21.1345 C   0  0  0  0  0  0  0  0  0  0  0  0
  -21.9497  -20.2233   25.9376 C   0  0  0  0  0  0  0  0  0  0  0  0
  -22.3308   -8.7159   20.1906 C   0  0  0  0  0  0  0  0  0  0  0  0
  -23.0898   -8.7229   22.4843 C   0  0  0  0  0  0  0  0  0  0  0  0
  -23.3030  -19.9813   26.1693 C   0  0  0  0  0  0  0  0  0  0  0  0
  -19.8611   -7.9265   23.0858 C   0  0  0  0  0  0  0  0  0  0  0  0
  -19.1037   -7.8870   24.2564 C   0  0  0  0  0  0  0  0  0  0  0  0
  -31.8536  -18.3591   24.2017 C   0  0  0  0  0  0  0  0  0  0  0  0
  -29.8802  -17.4563   23.1399 C   0  0  0  0  0  0  0  0  0  0  0  0
  -23.5976  -22.2858   26.8189 C   0  0  0  0  0  0  0  0  0  0  0  0
  -32.0642  -16.6076   22.5510 C   0  0  0  0  0  0  0  0  0  0  0  0
  -20.3441   -5.9491   24.9936 C   0  0  0  0  0  0  0  0  0  0  0  0
  -23.8270  -10.4486   20.9627 C   0  0  0  0  0  0  0  0  0  0  0  0
  -30.4678  -18.3411   24.0441 C   0  0  0  0  0  0  0  0  0  0  0  0
  -24.1699  -12.9736   20.8425 C   0  0  0  0  0  0  0  0  0  0  0  0
  -18.4020  -21.6946   20.2120 C   0  0  0  0  0  0  0  0  0  0  0  0
  -21.4115  -21.5031   26.1348 C   0  0  0  0  0  0  0  0  0  0  0  0
  -19.5185  -21.9320   21.0363 C   0  0  0  0  0  0  0  0  0  0  0  0
  -22.2365  -22.5407   26.5915 C   0  0  0  0  0  0  0  0  0  0  0  0
  -32.6518  -17.4924   23.4551 C   0  0  0  0  0  0  0  0  0  0  0  0
  -30.6784  -16.5895   22.3933 C   0  0  0  0  0  0  0  0  0  0  0  0
  -22.3380   -8.1430   21.4624 C   0  0  0  0  0  0  0  0  0  0  0  0
  -24.1278  -21.0134   26.6072 C   0  0  0  0  0  0  0  0  0  0  0  0
  -20.8599   -6.9772   22.8690 C   0  0  0  0  0  0  0  0  0  0  0  0
  -19.3452   -6.8983   25.2103 C   0  0  0  0  0  0  0  0  0  0  0  0
  -21.1014   -5.9886   23.8229 C   0  0  0  0  0  0  0  0  0  0  0  0
  -24.5967  -11.6391   20.7051 C   0  0  0  0  0  0  0  0  0  0  0  0
  -25.2625  -13.7226   20.4795 C   0  0  0  0  0  0  0  0  0  0  0  0
  -29.6241  -19.2569   24.8321 C   0  0  0  0  0  0  0  0  0  0  0  0
  -28.3142  -19.0823   25.0557 C   0  0  0  0  0  0  0  0  0  0  0  0
  -22.8995  -13.4900   21.2609 C   0  0  0  0  0  0  0  0  0  0  0  0
  -27.5462  -20.0758   25.8612 C   0  0  0  0  0  0  0  0  0  0  0  0
  -20.0041  -23.6566   24.2679 C   0  0  0  0  0  0  0  0  0  0  0  0
  -19.5488  -25.2187   27.0741 C   0  0  0  0  0  0  0  0  0  0  0  0
  -20.5430  -25.7332   30.2980 C   0  0  0  0  0  0  0  0  0  0  0  0
  -30.7290  -14.7660   20.6560 C   0  0  0  0  0  0  0  0  0  0  0  0
  -17.3180  -22.7269   20.0278 C   0  0  0  0  0  0  0  0  0  0  0  0
  -19.9440  -21.7412   25.9061 C   0  0  0  0  0  0  0  0  0  0  0  0
  -21.7035  -23.9277   26.8379 C   0  0  0  0  0  0  0  0  0  0  0  0
  -17.3133  -23.8047   21.1088 C   0  0  0  0  0  0  0  0  0  0  0  0
  -29.6145  -12.3523   18.2876 C   0  0  0  0  0  0  0  0  0  0  0  0
  -18.7271  -24.3237   21.3513 C   0  0  0  0  0  0  0  0  0  0  0  0
  -28.1746  -12.0614   18.7167 C   0  0  0  0  0  0  0  0  0  0  0  0
  -30.5293  -12.5809   19.4896 C   0  0  0  0  0  0  0  0  0  0  0  0
  -28.6221  -13.3063   20.8701 C   0  0  0  0  0  0  0  0  0  0  0  0
  -19.6487  -23.2030   21.8474 C   0  0  1  0  0  0  0  0  0  0  0  0
  -19.6100  -23.2070   25.6463 C   0  0  1  0  0  0  0  0  0  0  0  0
  -27.6496  -13.1333   19.6919 C   0  0  2  0  0  0  0  0  0  0  0  0
  -34.1337  -17.5117   23.6228 C   0  0  0  0  0  0  0  0  0  0  0  0
  -20.0009  -27.0985   32.3326 C   0  0  0  0  0  0  0  0  0  0  0  0
  -20.8671  -27.6521   25.7893 C   0  0  0  0  0  0  0  0  0  0  0  0
  -21.1574  -28.6177   28.0810 C   0  0  0  0  0  0  0  0  0  0  0  0
  -18.8673  -28.1714   27.1984 C   0  0  0  0  0  0  0  0  0  0  0  0
  -19.9525  -23.3183   31.9038 C   0  0  0  0  0  0  0  0  0  0  0  0
  -26.0748  -19.7690   26.0442 C   0  0  0  0  0  0  0  0  0  1  0  0
  -20.3351  -26.2276   27.8759 C   0  0  1  0  0  0  0  0  0  0  0  0
  -19.7594  -25.7896   31.5969 C   0  0  2  0  0  0  0  0  0  0  0  0
  -20.3175  -27.6417   27.2297 C   0  0  0  0  0  0  0  0  0  0  0  0
  -25.8616  -11.5427   20.2872 N   0  0  0  0  0  0  0  0  0  0  0  0
  -26.2391  -12.8261   20.1589 N   0  0  0  0  0  0  0  0  0  0  0  0
  -20.2634  -24.1121   26.5939 N   0  0  0  0  0  0  0  0  0  0  0  0
  -29.9704  -13.6120   20.3666 N   0  0  0  0  0  0  0  0  0  0  0  0
  -25.4735  -15.0539   20.4064 N   0  0  0  0  0  0  0  0  0  0  0  0
  -21.8871  -12.5813   21.5979 N   0  0  0  0  0  0  0  0  0  0  0  0
  -30.0818  -15.6914   21.4741 N   0  0  0  0  0  0  0  0  0  0  0  0
  -19.4100  -22.9358   23.2496 N   0  0  0  0  0  0  0  0  0  0  0  0
  -19.7951  -26.1828   29.2304 N   0  0  0  0  0  0  0  0  0  0  0  0
  -20.1586  -24.6668   32.4919 N   0  3  0  0  0  0  0  0  0  0  0  0
  -22.6637  -14.7207   21.3180 O   0  0  0  0  0  0  0  0  0  0  0  0
  -28.0751  -21.0742   26.3423 O   0  0  0  0  0  0  0  0  0  0  0  0
  -20.7881  -24.5895   24.1378 O   0  0  0  0  0  0  0  0  0  0  0  0
  -18.3434  -25.4020   26.8870 O   0  0  0  0  0  0  0  0  0  0  0  0
  -21.7038  -25.3339   30.2372 O   0  0  0  0  0  0  0  0  0  0  0  0
  -31.8584  -14.9342   20.1887 O   0  0  0  0  0  0  0  0  0  0  0  0
  -21.6115   -7.0182   21.7066 O   0  0  0  0  0  0  0  0  0  0  0  0
  -25.4493  -20.7801   26.8334 O   0  0  0  0  0  0  0  0  0  1  0  0
  -18.6189   -6.8615   26.3351 F   0  0  0  0  0  0  0  0  0  0  0  0
  -22.0605   -5.0747   23.6207 F   0  0  0  0  0  0  0  0  0  0  0  0
  1  2  1  0  0  0  0
  1  5  2  0  0  0  0
  2  6  2  0  0  0  0
  3  8  2  0  0  0  0
  3 18  1  0  0  0  0
  4  9  1  0  0  0  0
  4 18  2  0  0  0  0
  5 21  1  0  0  0  0
  6 23  1  0  0  0  0
  7 10  2  0  0  0  0
  7 22  1  0  0  0  0
  8 27  1  0  0  0  0
  9 27  2  0  0  0  0
 10 28  1  0  0  0  0
 11 12  2  0  0  0  0
 11 29  1  0  0  0  0
 12 30  1  0  0  0  0
 13 19  1  0  0  0  0
 13 25  2  0  0  0  0
 14 19  2  0  0  0  0
 14 26  1  0  0  0  0
 15 24  1  0  0  0  0
 15 28  2  0  0  0  0
 16 25  1  0  0  0  0
 16 26  2  0  0  0  0
 17 30  2  0  0  0  0
 17 31  1  0  0  0  0
 18 32  1  0  0  0  0
 19 34  1  0  0  0  0
 20 32  1  0  0  0  0
 20 33  2  0  0  0  0
 20 36  1  0  0  0  0
 21 23  2  0  0  0  0
 21 42  1  0  0  0  0
 22 24  2  0  0  0  0
 22 43  1  0  0  0  0
 23 51  1  0  0  0  0
 24 44  1  0  0  0  0
 25 54  1  0  0  0  0
 26 70  1  0  0  0  0
 27 80  1  0  0  0  0
 28 81  1  0  0  0  0
 29 31  2  0  0  0  0
 29 80  1  0  0  0  0
 30 82  1  0  0  0  0
 31 83  1  0  0  0  0
 32 64  2  0  0  0  0
 33 65  1  0  0  0  0
 33 68  1  0  0  0  0
 34 35  2  0  0  0  0
 35 37  1  0  0  0  0
 36 69  1  0  0  0  0
 36 74  2  0  0  0  0
 37 60  1  0  0  0  0
 37 75  2  0  0  0  0
 38 52  1  0  0  0  0
 38 71  1  0  0  0  0
 38 76  2  0  0  0  0
 39 61  1  0  0  0  0
 39 66  1  0  0  0  0
 39 77  2  0  0  0  0
 40 62  1  0  0  0  0
 40 72  1  0  0  0  0
 40 78  2  0  0  0  0
 41 67  1  0  0  0  0
 41 70  1  0  0  0  0
 41 79  2  0  0  0  0
 42 45  1  0  0  0  0
 43 52  1  0  0  0  0
 44 66  1  0  0  0  0
 45 47  1  0  0  0  0
 46 48  1  0  0  0  0
 46 49  1  0  0  0  0
 47 51  1  0  0  0  0
 48 53  1  0  0  0  0
 49 67  1  0  0  0  0
 50 53  1  0  0  0  0
 50 67  1  0  0  0  0
 51 71  1  0  0  0  0
 52 66  1  0  0  0  0
 53 65  1  0  0  0  0
 55 62  1  0  0  0  0
 56 63  1  0  0  0  0
 57 63  1  0  0  0  0
 58 63  1  0  0  0  0
 59 73  1  0  0  0  0
 60 81  1  0  0  0  0
 61 63  1  0  0  0  0
 61 72  1  0  0  0  0
 62 73  1  0  0  0  0
 64 65  1  0  0  0  0
M  CHG  1  73   1
M  ISO  4  41 100  60 101  70 100  81 101
M  END
> <Batch ID>
0124

> <Smiles>
CNC(C)C(=O)NC(C(=O)N1Cc2cc([101O:1][101CH2:1]C(=O)C=Cc3cc(C)cc([100NH:0][100C:0](=O)N4CCCC(n5nc(-c6ccc(Oc7ccc(F)cc7F)cc6)c(C(N)=O)c5N)C4)c3)ccc2CC1C(=O)NC1CCCc2ccccc21)C(C)(C)C

> <Shape>
0.170

> <Color>
0.196

> <Negative vol penalty>
0.000

$$$$

  -OEChem-04052302063D

 83 91  0     1  0  0  0  0  0999 V2000
  -24.9448  -19.6161   18.1372 C   0  0  0  0  0  0  0  0  0  0  0  0
  -24.7371  -20.8629   18.7183 C   0  0  0  0  0  0  0  0  0  0  0  0
  -18.2949  -28.5221   22.5884 C   0  0  0  0  0  0  0  0  0  0  0  0
  -23.0744  -14.9819   19.9790 C   0  0  0  0  0  0  0  0  0  0  0  0
  -21.8143  -14.0552   21.8203 C   0  0  0  0  0  0  0  0  0  0  0  0
  -18.3822  -27.2458   22.0324 C   0  0  0  0  0  0  0  0  0  0  0  0
  -19.4140  -29.0996   23.1882 C   0  0  0  0  0  0  0  0  0  0  0  0
  -26.2079  -19.0277   18.1851 C   0  0  0  0  0  0  0  0  0  0  0  0
  -25.7921  -21.5215   19.3488 C   0  0  0  0  0  0  0  0  0  0  0  0
  -26.0297  -26.4288   18.1212 C   0  0  0  0  0  0  0  0  0  0  0  0
  -23.9176  -13.8710   19.9969 C   0  0  0  0  0  0  0  0  0  0  0  0
  -22.6575  -12.9442   21.8382 C   0  0  0  0  0  0  0  0  0  0  0  0
  -25.1281  -27.2867   18.7496 C   0  0  0  0  0  0  0  0  0  0  0  0
  -24.2589   -9.6936   22.1333 C   0  0  0  0  0  0  0  0  0  0  0  0
  -23.6706   -8.4337   22.2431 C   0  0  0  0  0  0  0  0  0  0  0  0
  -20.7077  -27.1245   22.6763 C   0  0  0  0  0  0  0  0  0  0  0  0
  -26.8574  -27.9679   20.2874 C   0  0  0  0  0  0  0  0  0  0  0  0
  -22.4569   -8.8215   20.1904 C   0  0  0  0  0  0  0  0  0  0  0  0
  -22.0227  -15.0741   20.8907 C   0  0  0  0  0  0  0  0  0  0  0  0
  -19.5886  -26.5470   22.0764 C   0  0  0  0  0  0  0  0  0  0  0  0
  -20.6203  -28.4008   23.2322 C   0  0  0  0  0  0  0  0  0  0  0  0
  -19.9620  -16.3747   20.1362 C   0  0  0  0  0  0  0  0  0  0  0  0
  -27.2813  -19.6838   18.8081 C   0  0  0  0  0  0  0  0  0  0  0  0
  -27.3512  -26.3257   18.5788 C   0  0  0  0  0  0  0  0  0  0  0  0
  -27.0704  -20.9408   19.4063 C   0  0  0  0  0  0  0  0  0  0  0  0
  -27.7745  -27.1098   19.6614 C   0  0  0  0  0  0  0  0  0  0  0  0
  -23.7092  -12.8521   20.9265 C   0  0  0  0  0  0  0  0  0  0  0  0
  -25.5411  -28.0543   19.8346 C   0  0  0  0  0  0  0  0  0  0  0  0
  -23.9462  -10.5175   21.0521 C   0  0  0  0  0  0  0  0  0  0  0  0
  -22.7696   -7.9976   21.2716 C   0  0  0  0  0  0  0  0  0  0  0  0
  -23.0452  -10.0814   20.0806 C   0  0  0  0  0  0  0  0  0  0  0  0
  -21.1517  -16.2217   20.8731 C   0  0  0  0  0  0  0  0  0  0  0  0
  -19.5145  -17.6313   20.4636 C   0  0  0  0  0  0  0  0  0  0  0  0
  -19.6785  -25.2162   21.4960 C   0  0  0  0  0  0  0  0  0  0  0  0
  -20.6222  -24.2963   21.7888 C   0  0  0  0  0  0  0  0  0  0  0  0
  -23.5217  -29.4170   22.4483 C   0  0  0  0  0  0  0  0  0  0  0  0
  -21.8140  -29.0184   23.8729 C   0  0  0  0  0  0  0  0  0  0  0  0
  -19.3188  -15.4624   19.2364 C   0  0  0  0  0  0  0  0  0  0  0  0
  -20.5725  -22.9806   21.1200 C   0  0  0  0  0  0  0  0  0  0  0  0
  -29.1320  -23.9840   19.7826 C   0  0  0  0  0  0  0  0  0  0  0  0
  -31.4895  -26.2035   19.5874 C   0  0  0  0  0  0  0  0  0  0  0  0
  -32.3620  -29.5007   19.4691 C   0  0  0  0  0  0  0  0  0  0  0  0
  -28.6171  -18.9869   18.8761 C   0  0  0  0  0  0  0  0  0  0  0  0
  -28.3187  -25.4155   17.8733 C   0  0  0  0  0  0  0  0  0  0  0  0
  -29.1879  -27.0510   20.1786 C   0  0  0  0  0  0  0  0  0  0  0  0
  -29.7722  -19.9179   19.2357 C   0  0  0  0  0  0  0  0  0  0  0  0
  -21.0017  -20.8368   24.0613 C   0  0  0  0  0  0  0  0  0  0  0  0
  -29.3949  -20.8046   20.4182 C   0  0  0  0  0  0  0  0  0  0  0  0
  -21.0281  -19.4540   23.4155 C   0  0  0  0  0  0  0  0  0  0  0  0
  -21.6437  -21.8973   23.1682 C   0  0  0  0  0  0  0  0  0  0  0  0
  -21.0868  -20.5708   21.1506 C   0  0  0  0  0  0  0  0  0  0  0  0
  -28.1958  -21.6977   20.0777 C   0  0  1  0  0  0  0  0  0  0  0  0
  -29.5012  -25.0079   18.7468 C   0  0  1  0  0  0  0  0  0  0  0  0
  -20.4038  -19.4969   22.0118 C   0  0  1  0  0  0  0  0  0  0  0  0
  -34.3672  -31.0047   19.3497 C   0  0  0  0  0  0  0  0  0  0  0  0
  -32.0544  -25.6809   22.5400 C   0  0  0  0  0  0  0  0  0  0  0  0
  -33.3602  -27.8163   22.5964 C   0  0  0  0  0  0  0  0  0  0  0  0
  -34.0949  -25.9458   21.1185 C   0  0  0  0  0  0  0  0  0  0  0  0
  -31.4872  -30.6548   16.8881 C   0  0  0  0  0  0  0  0  0  0  0  0
  -24.8626  -29.1333   21.8424 C   0  0  0  0  0  0  0  0  0  1  0  0
  -32.0310  -27.2717   20.5066 C   0  0  1  0  0  0  0  0  0  0  0  0
  -33.3055  -30.2608   18.5546 C   0  0  2  0  0  0  0  0  0  0  0  0
  -32.8579  -26.6786   21.6821 C   0  0  0  0  0  0  0  0  0  0  0  0
  -21.4418  -17.2954   21.6127 N   0  0  0  0  0  0  0  0  0  0  0  0
  -23.0591  -28.6765   23.4028 N   0  0  0  0  0  0  0  0  0  0  0  0
  -20.4280  -18.1351   21.3421 N   0  0  0  0  0  0  0  0  0  0  0  0
  -21.0705  -21.8793   21.8140 N   0  0  0  0  0  0  0  0  0  0  0  0
  -30.0947  -26.1412   19.4592 N   0  0  0  0  0  0  0  0  0  0  0  0
  -18.4328  -18.3435   20.0826 N   0  0  0  0  0  0  0  0  0  0  0  0
  -19.9133  -14.2130   19.0135 N   0  0  0  0  0  0  0  0  0  0  0  0
  -28.6143  -22.8149   19.2585 N   0  0  0  0  0  0  0  0  0  0  0  0
  -32.7747  -28.1991   19.6610 N   0  0  0  0  0  0  0  0  0  0  0  0
  -21.7225  -29.8244   24.8712 N   0  3  0  0  0  0  0  0  0  0  0  0
  -32.5491  -31.2520   17.7382 N   0  3  0  0  0  0  0  0  0  0  0  0
  -18.2571  -15.7532   18.6348 O   0  0  0  0  0  0  0  0  0  0  0  0
  -20.0968  -22.9379   19.9840 O   0  0  0  0  0  0  0  0  0  0  0  0
  -29.3053  -24.2354   20.9693 O   0  0  0  0  0  0  0  0  0  0  0  0
  -32.2755  -25.4566   18.9992 O   0  0  0  0  0  0  0  0  0  0  0  0
  -31.3610  -30.0116   19.9668 O   0  0  0  0  0  0  0  0  0  0  0  0
  -24.5317  -11.7678   20.9441 O   0  0  0  0  0  0  0  0  0  0  0  0
  -24.6630  -28.8920   20.4502 O   0  0  0  0  0  0  0  0  0  1  0  0
  -22.2059   -6.7870   21.3764 F   0  0  0  0  0  0  0  0  0  0  0  0
  -22.7418  -10.8681   19.0390 F   0  0  0  0  0  0  0  0  0  0  0  0
  1  2  1  0  0  0  0
  1  8  2  0  0  0  0
  2  9  2  0  0  0  0
  3  6  1  0  0  0  0
  3  7  2  0  0  0  0
  4 11  2  0  0  0  0
  4 19  1  0  0  0  0
  5 12  1  0  0  0  0
  5 19  2  0  0  0  0
  6 20  2  0  0  0  0
  7 21  1  0  0  0  0
  8 23  1  0  0  0  0
  9 25  1  0  0  0  0
 10 13  2  0  0  0  0
 10 24  1  0  0  0  0
 11 27  1  0  0  0  0
 12 27  2  0  0  0  0
 13 28  1  0  0  0  0
 14 15  2  0  0  0  0
 14 29  1  0  0  0  0
 15 30  1  0  0  0  0
 16 20  1  0  0  0  0
 16 21  2  0  0  0  0
 17 26  1  0  0  0  0
 17 28  2  0  0  0  0
 18 30  2  0  0  0  0
 18 31  1  0  0  0  0
 19 32  1  0  0  0  0
 20 34  1  0  0  0  0
 21 37  1  0  0  0  0
 22 32  1  0  0  0  0
 22 33  2  0  0  0  0
 22 38  1  0  0  0  0
 23 25  2  0  0  0  0
 23 43  1  0  0  0  0
 24 26  2  0  0  0  0
 24 44  1  0  0  0  0
 25 52  1  0  0  0  0
 26 45  1  0  0  0  0
 27 80  1  0  0  0  0
 28 81  1  0  0  0  0
 29 31  2  0  0  0  0
 29 80  1  0  0  0  0
 30 82  1  0  0  0  0
 31 83  1  0  0  0  0
 32 64  2  0  0  0  0
 33 66  1  0  0  0  0
 33 69  1  0  0  0  0
 34 35  2  0  0  0  0
 35 39  1  0  0  0  0
 36 60  1  0  0  0  0
 36 65  2  0  0  0  0
 37 65  1  0  0  0  0
 37 73  2  0  0  0  0
 38 70  1  0  0  0  0
 38 75  2  0  0  0  0
 39 67  1  0  0  0  0
 39 76  2  0  0  0  0
 40 53  1  0  0  0  0
 40 71  1  0  0  0  0
 40 77  2  0  0  0  0
 41 61  1  0  0  0  0
 41 68  1  0  0  0  0
 41 78  2  0  0  0  0
 42 62  1  0  0  0  0
 42 72  1  0  0  0  0
 42 79  2  0  0  0  0
 43 46  1  0  0  0  0
 44 53  1  0  0  0  0
 45 68  1  0  0  0  0
 46 48  1  0  0  0  0
 47 49  1  0  0  0  0
 47 50  1  0  0  0  0
 48 52  1  0  0  0  0
 49 54  1  0  0  0  0
 50 67  1  0  0  0  0
 51 54  1  0  0  0  0
 51 67  1  0  0  0  0
 52 71  1  0  0  0  0
 53 68  1  0  0  0  0
 54 66  1  0  0  0  0
 55 62  1  0  0  0  0
 56 63  1  0  0  0  0
 57 63  1  0  0  0  0
 58 63  1  0  0  0  0
 59 74  1  0  0  0  0
 60 81  1  0  0  0  0
 61 63  1  0  0  0  0
 61 72  1  0  0  0  0
 62 74  1  0  0  0  0
 64 66  1  0  0  0  0
M  CHG  2  73   1  74   1
M  ISO  4  35 100  39 100  60 101  81 101
M  END
> <Batch ID>
0124

> <Smiles>
CNC(C)C(=O)NC(C(=O)N1Cc2cc([101O:1][101CH:1]=CNC(=N)c3cccc(C=[100CH:0][100C:0](=O)N4CCCC(n5nc(-c6ccc(Oc7ccc(F)cc7F)cc6)c(C(N)=O)c5N)C4)c3)ccc2CC1C(=O)NC1CCCc2ccccc21)C(C)(C)C

> <Shape>
0.247

> <Color>
0.059

> <Negative vol penalty>
0.000

$$$$

  -OEChem-04052302063D

 84 92  0     1  0  0  0  0  0999 V2000
  -28.9177   -9.0357   20.2373 C   0  0  0  0  0  0  0  0  0  0  0  0
  -29.2799  -10.3167   19.8334 C   0  0  0  0  0  0  0  0  0  0  0  0
  -31.6058  -28.7266   17.9652 C   0  0  0  0  0  0  0  0  0  0  0  0
  -21.8169  -25.3333   24.0047 C   0  0  0  0  0  0  0  0  0  0  0  0
  -22.2295  -27.2688   22.6188 C   0  0  0  0  0  0  0  0  0  0  0  0
  -27.6202   -8.7872   20.6828 C   0  0  0  0  0  0  0  0  0  0  0  0
  -28.3443  -11.3499   19.8738 C   0  0  0  0  0  0  0  0  0  0  0  0
  -29.4185  -17.2413   21.1559 C   0  0  0  0  0  0  0  0  0  0  0  0
  -30.7876  -29.5356   18.7535 C   0  0  0  0  0  0  0  0  0  0  0  0
  -31.7861  -27.3836   18.2964 C   0  0  0  0  0  0  0  0  0  0  0  0
  -20.8146  -26.0302   24.6795 C   0  0  0  0  0  0  0  0  0  0  0  0
  -21.2271  -27.9657   23.2936 C   0  0  0  0  0  0  0  0  0  0  0  0
  -29.5957  -18.3607   20.3439 C   0  0  0  0  0  0  0  0  0  0  0  0
  -18.5314  -30.1346   24.4103 C   0  0  0  0  0  0  0  0  0  0  0  0
  -17.6262  -30.8715   23.6468 C   0  0  0  0  0  0  0  0  0  0  0  0
  -27.2634  -18.9161   20.6111 C   0  0  0  0  0  0  0  0  0  0  0  0
  -16.9437  -28.8530   22.5079 C   0  0  0  0  0  0  0  0  0  0  0  0
  -22.5244  -25.9527   22.9743 C   0  0  0  0  0  0  0  0  0  0  0  0
  -23.4153  -24.4391   21.1242 C   0  0  0  0  0  0  0  0  0  0  0  0
  -26.6709   -9.8199   20.7378 C   0  0  0  0  0  0  0  0  0  0  0  0
  -28.1579  -16.9443   21.6935 C   0  0  0  0  0  0  0  0  0  0  0  0
  -27.0324  -11.1147   20.3192 C   0  0  0  0  0  0  0  0  0  0  0  0
  -27.0735  -17.7938   21.4316 C   0  0  0  0  0  0  0  0  0  0  0  0
  -30.1497  -29.0018   19.8733 C   0  0  0  0  0  0  0  0  0  0  0  0
  -31.1482  -26.8498   19.4161 C   0  0  0  0  0  0  0  0  0  0  0  0
  -30.3300  -27.6588   20.2046 C   0  0  0  0  0  0  0  0  0  0  0  0
  -20.5197  -27.3463   24.3240 C   0  0  0  0  0  0  0  0  0  0  0  0
  -28.5175  -19.1967   20.0690 C   0  0  0  0  0  0  0  0  0  0  0  0
  -18.6429  -28.7569   24.2227 C   0  0  0  0  0  0  0  0  0  0  0  0
  -16.8323  -30.2307   22.6956 C   0  0  0  0  0  0  0  0  0  0  0  0
  -17.8490  -28.1161   23.2715 C   0  0  0  0  0  0  0  0  0  0  0  0
  -23.5603  -25.2336   22.2773 C   0  0  0  0  0  0  0  0  0  0  0  0
  -24.6832  -23.9813   20.8609 C   0  0  0  0  0  0  0  0  0  0  0  0
  -30.9796  -24.6487   18.8226 C   0  0  0  0  0  0  0  0  0  0  0  0
  -22.2396  -24.1415   20.3594 C   0  0  0  0  0  0  0  0  0  0  0  0
  -26.1197  -14.5198   21.4261 C   0  0  0  0  0  0  0  0  0  0  0  0
  -29.8560  -22.3965   19.0296 C   0  0  0  0  0  0  0  0  0  0  0  0
  -24.5005  -16.1365   23.7254 C   0  0  0  0  0  0  0  0  0  0  0  0
  -23.8537  -19.1130   25.2644 C   0  0  0  0  0  0  0  0  0  0  0  0
  -30.1290  -26.0742   22.1526 C   0  0  0  0  0  0  0  0  0  0  0  0
  -25.2672   -9.4928   21.1820 C   0  0  0  0  0  0  0  0  0  0  0  0
  -27.9892  -15.7478   22.5893 C   0  0  0  0  0  0  0  0  0  0  0  0
  -25.7042  -17.5303   22.0010 C   0  0  0  0  0  0  0  0  0  0  0  0
  -24.4419  -10.7235   21.5485 C   0  0  0  0  0  0  0  0  0  0  0  0
  -28.8017  -22.8944   23.0496 C   0  0  0  0  0  0  0  0  0  0  0  0
  -24.5948  -11.8052   20.4838 C   0  0  0  0  0  0  0  0  0  0  0  0
  -27.2944  -23.0592   22.8426 C   0  0  0  0  0  0  0  0  0  0  0  0
  -29.4423  -24.1700   23.5940 C   0  0  0  0  0  0  0  0  0  0  0  0
  -27.6532  -25.5503   22.6126 C   0  0  0  0  0  0  0  0  0  0  0  0
  -26.0528  -12.2670   20.3720 C   0  0  1  0  0  0  0  0  0  0  0  0
  -26.5470  -15.2561   22.6642 C   0  0  1  0  0  0  0  0  0  0  0  0
  -26.9744  -24.3122   22.0041 C   0  0  2  0  0  0  0  0  0  0  0  0
  -29.2793  -29.8938   20.6980 C   0  0  0  0  0  0  0  0  0  0  0  0
  -22.4563  -20.1260   27.0860 C   0  0  0  0  0  0  0  0  0  0  0  0
  -22.0499  -16.0110   21.9119 C   0  0  0  0  0  0  0  0  0  0  0  0
  -21.0088  -17.8072   23.3112 C   0  0  0  0  0  0  0  0  0  0  0  0
  -21.5773  -15.6041   24.3337 C   0  0  0  0  0  0  0  0  0  0  0  0
  -26.2456  -19.9738   26.7799 C   0  0  0  0  0  0  0  0  0  0  0  0
  -31.1556  -23.1727   19.0371 C   0  0  0  0  0  0  0  0  0  0  0  0
  -29.9734  -20.9082   19.2900 C   0  0  0  0  0  0  0  0  0  1  0  0
  -23.4368  -17.2077   23.7313 C   0  0  1  0  0  0  0  0  0  0  0  0
  -23.7944  -19.4961   26.7321 C   0  0  2  0  0  0  0  0  0  0  0  0
  -22.0434  -16.6617   23.3096 C   0  0  0  0  0  0  0  0  0  0  0  0
  -24.8209  -25.2799   22.7164 N   0  0  0  0  0  0  0  0  0  0  0  0
  -31.3453  -25.4944   19.7296 N   0  0  0  0  0  0  0  0  0  0  0  0
  -25.4795  -24.5086   21.8346 N   0  0  0  0  0  0  0  0  0  0  0  0
  -25.5885  -16.3446   22.8659 N   0  0  0  0  0  0  0  0  0  0  0  0
  -29.0992  -25.3142   22.7467 N   0  0  0  0  0  0  0  0  0  0  0  0
  -25.1834  -23.1832   19.8939 N   0  0  0  0  0  0  0  0  0  0  0  0
  -21.0184  -24.6942   20.7690 N   0  0  0  0  0  0  0  0  0  0  0  0
  -29.6817  -27.1171   21.3421 N   0  0  0  0  0  0  0  0  0  0  0  0
  -26.3837  -13.1638   21.4586 N   0  0  0  0  0  0  0  0  0  0  0  0
  -23.4666  -17.8052   25.0619 N   0  0  0  0  0  0  0  0  0  0  0  0
  -24.8735  -20.4714   27.0569 N   0  3  0  0  0  0  0  0  0  0  0  0
  -22.2681  -23.3940   19.3525 O   0  0  0  0  0  0  0  0  0  0  0  0
  -25.5885  -15.1361   20.5097 O   0  0  0  0  0  0  0  0  0  0  0  0
  -28.7710  -22.9368   18.8190 O   0  0  0  0  0  0  0  0  0  0  0  0
  -24.3742  -15.1548   24.4616 O   0  0  0  0  0  0  0  0  0  0  0  0
  -24.2044  -19.8967   24.3850 O   0  0  0  0  0  0  0  0  0  0  0  0
  -31.3196  -25.8018   22.3266 O   0  0  0  0  0  0  0  0  0  0  0  0
  -19.5415  -28.0265   24.9821 O   0  0  0  0  0  0  0  0  0  0  0  0
  -28.6875  -20.2897   19.2763 O   0  0  0  0  0  0  0  0  0  1  0  0
  -15.9619  -30.9383   21.9635 F   0  0  0  0  0  0  0  0  0  0  0  0
  -17.9507  -26.7926   23.0875 F   0  0  0  0  0  0  0  0  0  0  0  0
  1  2  1  0  0  0  0
  1  6  2  0  0  0  0
  2  7  2  0  0  0  0
  3  9  1  0  0  0  0
  3 10  2  0  0  0  0
  4 11  2  0  0  0  0
  4 18  1  0  0  0  0
  5 12  1  0  0  0  0
  5 18  2  0  0  0  0
  6 20  1  0  0  0  0
  7 22  1  0  0  0  0
  8 13  2  0  0  0  0
  8 21  1  0  0  0  0
  9 24  2  0  0  0  0
 10 25  1  0  0  0  0
 11 27  1  0  0  0  0
 12 27  2  0  0  0  0
 13 28  1  0  0  0  0
 14 15  2  0  0  0  0
 14 29  1  0  0  0  0
 15 30  1  0  0  0  0
 16 23  1  0  0  0  0
 16 28  2  0  0  0  0
 17 30  2  0  0  0  0
 17 31  1  0  0  0  0
 18 32  1  0  0  0  0
 19 32  1  0  0  0  0
 19 33  2  0  0  0  0
 19 35  1  0  0  0  0
 20 22  2  0  0  0  0
 20 41  1  0  0  0  0
 21 23  2  0  0  0  0
 21 42  1  0  0  0  0
 22 50  1  0  0  0  0
 23 43  1  0  0  0  0
 24 26  1  0  0  0  0
 24 53  1  0  0  0  0
 25 26  2  0  0  0  0
 25 65  1  0  0  0  0
 26 71  1  0  0  0  0
 27 81  1  0  0  0  0
 28 82  1  0  0  0  0
 29 31  2  0  0  0  0
 29 81  1  0  0  0  0
 30 83  1  0  0  0  0
 31 84  1  0  0  0  0
 32 64  2  0  0  0  0
 33 66  1  0  0  0  0
 33 69  1  0  0  0  0
 34 59  1  0  0  0  0
 34 65  2  0  0  0  0
 35 70  1  0  0  0  0
 35 75  2  0  0  0  0
 36 51  1  0  0  0  0
 36 72  1  0  0  0  0
 36 76  2  0  0  0  0
 37 59  1  0  0  0  0
 37 60  1  0  0  0  0
 37 77  2  0  0  0  0
 38 61  1  0  0  0  0
 38 67  1  0  0  0  0
 38 78  2  0  0  0  0
 39 62  1  0  0  0  0
 39 73  1  0  0  0  0
 39 79  2  0  0  0  0
 40 68  1  0  0  0  0
 40 71  1  0  0  0  0
 40 80  2  0  0  0  0
 41 44  1  0  0  0  0
 42 51  1  0  0  0  0
 43 67  1  0  0  0  0
 44 46  1  0  0  0  0
 45 47  1  0  0  0  0
 45 48  1  0  0  0  0
 46 50  1  0  0  0  0
 47 52  1  0  0  0  0
 48 68  1  0  0  0  0
 49 52  1  0  0  0  0
 49 68  1  0  0  0  0
 50 72  1  0  0  0  0
 51 67  1  0  0  0  0
 52 66  1  0  0  0  0
 54 62  1  0  0  0  0
 55 63  1  0  0  0  0
 56 63  1  0  0  0  0
 57 63  1  0  0  0  0
 58 74  1  0  0  0  0
 60 82  1  0  0  0  0
 61 63  1  0  0  0  0
 61 73  1  0  0  0  0
 62 74  1  0  0  0  0
 64 66  1  0  0  0  0
M  CHG  1  74   1
M  ISO  4  40 100  60 101  71 100  82 101
M  END
> <Batch ID>
0124

> <Smiles>
CNC(C)C(=O)NC(C(=O)N1Cc2cc([101O:1][101CH2:1]C(=O)C=CNc3cccc(C)c3[100NH:0][100C:0](=O)N3CCCC(n4nc(-c5ccc(Oc6ccc(F)cc6F)cc5)c(C(N)=O)c4N)C3)ccc2CC1C(=O)NC1CCCc2ccccc21)C(C)(C)C

> <Shape>
0.189

> <Color>
0.076

> <Negative vol penalty>
0.000

$$$$

  -OEChem-04052302063D

 84 92  0     1  0  0  0  0  0999 V2000
  -16.9568  -30.9452   23.1116 C   0  0  0  0  0  0  0  0  0  0  0  0
  -18.1410  -31.2396   22.4436 C   0  0  0  0  0  0  0  0  0  0  0  0
  -24.2033   -9.4204   22.2657 C   0  0  0  0  0  0  0  0  0  0  0  0
  -24.1031   -9.0694   19.8775 C   0  0  0  0  0  0  0  0  0  0  0  0
  -29.6336  -21.1450   21.8643 C   0  0  0  0  0  0  0  0  0  0  0  0
  -16.8959  -29.8477   23.9694 C   0  0  0  0  0  0  0  0  0  0  0  0
  -19.2655  -30.4372   22.6337 C   0  0  0  0  0  0  0  0  0  0  0  0
  -25.0196  -27.9733   19.1500 C   0  0  0  0  0  0  0  0  0  0  0  0
  -29.8191  -22.5074   21.6297 C   0  0  0  0  0  0  0  0  0  0  0  0
  -23.1504   -8.5227   22.4419 C   0  0  0  0  0  0  0  0  0  0  0  0
  -23.0502   -8.1716   20.0536 C   0  0  0  0  0  0  0  0  0  0  0  0
  -26.4058  -27.8974   19.2785 C   0  0  0  0  0  0  0  0  0  0  0  0
  -22.7191   -5.1696   22.4996 C   0  0  0  0  0  0  0  0  0  0  0  0
  -22.8385   -4.2217   23.5159 C   0  0  0  0  0  0  0  0  0  0  0  0
  -26.1608  -25.9811   20.7231 C   0  0  0  0  0  0  0  0  0  0  0  0
  -29.8298  -22.0960   19.2490 C   0  0  0  0  0  0  0  0  0  0  0  0
  -20.8482   -5.0986   24.5678 C   0  0  0  0  0  0  0  0  0  0  0  0
  -24.6797   -9.6938   20.9835 C   0  0  0  0  0  0  0  0  0  0  0  0
  -29.5462  -20.2581   20.7913 C   0  0  0  0  0  0  0  0  0  0  0  0
  -27.1432  -10.3259   20.7863 C   0  0  0  0  0  0  0  0  0  0  0  0
  -18.0174  -29.0258   24.1627 C   0  0  0  0  0  0  0  0  0  0  0  0
  -24.1917  -27.0589   19.8170 C   0  0  0  0  0  0  0  0  0  0  0  0
  -19.2199  -29.3284   23.4959 C   0  0  0  0  0  0  0  0  0  0  0  0
  -24.7645  -26.0460   20.5994 C   0  0  0  0  0  0  0  0  0  0  0  0
  -29.6443  -20.7335   19.4836 C   0  0  0  0  0  0  0  0  0  0  0  0
  -29.9172  -22.9829   20.3220 C   0  0  0  0  0  0  0  0  0  0  0  0
  -22.5738   -7.8983   21.3358 C   0  0  0  0  0  0  0  0  0  0  0  0
  -26.9764  -26.9030   20.0675 C   0  0  0  0  0  0  0  0  0  0  0  0
  -21.6642   -6.0821   22.5175 C   0  0  0  0  0  0  0  0  0  0  0  0
  -21.9031   -4.1862   24.5499 C   0  0  0  0  0  0  0  0  0  0  0  0
  -20.7287   -6.0466   23.5515 C   0  0  0  0  0  0  0  0  0  0  0  0
  -25.7669  -10.6215   20.8008 C   0  0  0  0  0  0  0  0  0  0  0  0
  -27.7529  -11.5395   20.5815 C   0  0  0  0  0  0  0  0  0  0  0  0
  -29.3519  -18.8411   21.0688 C   0  0  0  0  0  0  0  0  0  0  0  0
  -28.2925  -18.3097   21.7125 C   0  0  0  0  0  0  0  0  0  0  0  0
  -27.8109   -9.0669   20.9438 C   0  0  0  0  0  0  0  0  0  0  0  0
  -28.2353  -16.8472   21.9088 C   0  0  0  0  0  0  0  0  0  0  0  0
  -21.9358  -27.2862   22.0447 C   0  0  0  0  0  0  0  0  0  0  0  0
  -21.5699  -24.1197   21.4432 C   0  0  0  0  0  0  0  0  0  0  0  0
  -30.2264  -25.0061   18.8540 C   0  0  0  0  0  0  0  0  0  0  0  0
  -22.9370  -21.2124   20.2917 C   0  0  0  0  0  0  0  0  0  0  0  0
  -17.9172  -27.8782   25.1362 C   0  0  0  0  0  0  0  0  0  0  0  0
  -22.6994  -27.1379   19.6466 C   0  0  0  0  0  0  0  0  0  0  0  0
  -23.9206  -25.0275   21.3198 C   0  0  0  0  0  0  0  0  0  0  0  0
  -19.0444  -26.8587   24.9941 C   0  0  0  0  0  0  0  0  0  0  0  0
  -25.8448  -16.0160   19.2581 C   0  0  0  0  0  0  0  0  0  0  0  0
  -20.3931  -27.5645   24.8951 C   0  0  0  0  0  0  0  0  0  0  0  0
  -25.6929  -14.5108   19.4610 C   0  0  0  0  0  0  0  0  0  0  0  0
  -26.0580  -16.7524   20.5797 C   0  0  0  0  0  0  0  0  0  0  0  0
  -27.0450  -14.7139   21.5850 C   0  0  0  0  0  0  0  0  0  0  0  0
  -20.4538  -28.4672   23.6570 C   0  0  1  0  0  0  0  0  0  0  0  0
  -21.9320  -26.4697   20.7833 C   0  0  1  0  0  0  0  0  0  0  0  0
  -26.8765  -13.9476   20.2637 C   0  0  1  0  0  0  0  0  0  0  0  0
  -29.5547  -19.8124   18.3097 C   0  0  0  0  0  0  0  0  0  0  0  0
  -22.4070  -18.7821   19.9603 C   0  0  0  0  0  0  0  0  0  0  0  0
  -21.9137  -23.6390   24.4367 C   0  0  0  0  0  0  0  0  0  0  0  0
  -22.3260  -21.2220   23.9305 C   0  0  0  0  0  0  0  0  0  0  0  0
  -20.1306  -22.2578   23.3564 C   0  0  0  0  0  0  0  0  0  0  0  0
  -23.3322  -21.4060   17.3651 C   0  0  0  0  0  0  0  0  0  0  0  0
  -30.4217  -26.5052   19.0504 C   0  0  0  0  0  0  0  0  0  0  0  0
  -29.1121  -27.2781   19.0907 C   0  0  0  0  0  0  0  0  0  1  0  0
  -22.1751  -22.8503   21.9922 C   0  0  1  0  0  0  0  0  0  0  0  0
  -22.4111  -20.1648   19.3272 C   0  0  2  0  0  0  0  0  0  0  0  0
  -21.6524  -22.5125   23.4170 C   0  0  0  0  0  0  0  0  0  0  0  0
  -25.5167  -11.9210   20.6198 N   0  0  0  0  0  0  0  0  0  0  0  0
  -26.7440  -12.4527   20.4897 N   0  0  0  0  0  0  0  0  0  0  0  0
  -27.1572  -16.1587   21.3556 N   0  0  0  0  0  0  0  0  0  0  0  0
  -22.4662  -25.1504   21.1270 N   0  0  0  0  0  0  0  0  0  0  0  0
  -29.0482  -11.9040   20.4729 N   0  0  0  0  0  0  0  0  0  0  0  0
  -27.0329   -7.9188   21.1460 N   0  0  0  0  0  0  0  0  0  0  0  0
  -30.1082  -24.3648   20.0842 N   0  0  0  0  0  0  0  0  0  0  0  0
  -20.6790  -27.6769   22.4658 N   0  0  0  0  0  0  0  0  0  0  0  0
  -21.9172  -21.8126   20.9996 N   0  0  0  0  0  0  0  0  0  0  0  0
  -23.2575  -20.1179   18.1015 N   0  3  0  0  0  0  0  0  0  0  0  0
  -29.0610   -8.9656   20.9228 O   0  0  0  0  0  0  0  0  0  0  0  0
  -29.1446  -16.3243   22.5558 O   0  0  0  0  0  0  0  0  0  0  0  0
  -23.0001  -27.5414   22.5960 O   0  0  0  0  0  0  0  0  0  0  0  0
  -20.3475  -24.1914   21.2936 O   0  0  0  0  0  0  0  0  0  0  0  0
  -30.1879  -24.4931   17.7406 O   0  0  0  0  0  0  0  0  0  0  0  0
  -24.1331  -21.4698   20.4085 O   0  0  0  0  0  0  0  0  0  0  0  0
  -21.5465   -7.0221   21.5074 O   0  0  0  0  0  0  0  0  0  0  0  0
  -28.3291  -26.8270   20.1952 O   0  0  0  0  0  0  0  0  0  1  0  0
  -22.0170   -3.2748   25.5250 F   0  0  0  0  0  0  0  0  0  0  0  0
  -19.7125   -6.9198   23.5734 F   0  0  0  0  0  0  0  0  0  0  0  0
  1  2  1  0  0  0  0
  1  6  2  0  0  0  0
  2  7  2  0  0  0  0
  3 10  2  0  0  0  0
  3 18  1  0  0  0  0
  4 11  1  0  0  0  0
  4 18  2  0  0  0  0
  5  9  2  0  0  0  0
  5 19  1  0  0  0  0
  6 21  1  0  0  0  0
  7 23  1  0  0  0  0
  8 12  2  0  0  0  0
  8 22  1  0  0  0  0
  9 26  1  0  0  0  0
 10 27  1  0  0  0  0
 11 27  2  0  0  0  0
 12 28  1  0  0  0  0
 13 14  2  0  0  0  0
 13 29  1  0  0  0  0
 14 30  1  0  0  0  0
 15 24  1  0  0  0  0
 15 28  2  0  0  0  0
 16 25  1  0  0  0  0
 16 26  2  0  0  0  0
 17 30  2  0  0  0  0
 17 31  1  0  0  0  0
 18 32  1  0  0  0  0
 19 25  2  0  0  0  0
 19 34  1  0  0  0  0
 20 32  1  0  0  0  0
 20 33  2  0  0  0  0
 20 36  1  0  0  0  0
 21 23  2  0  0  0  0
 21 42  1  0  0  0  0
 22 24  2  0  0  0  0
 22 43  1  0  0  0  0
 23 51  1  0  0  0  0
 24 44  1  0  0  0  0
 25 54  1  0  0  0  0
 26 71  1  0  0  0  0
 27 81  1  0  0  0  0
 28 82  1  0  0  0  0
 29 31  2  0  0  0  0
 29 81  1  0  0  0  0
 30 83  1  0  0  0  0
 31 84  1  0  0  0  0
 32 65  2  0  0  0  0
 33 66  1  0  0  0  0
 33 69  1  0  0  0  0
 34 35  2  0  0  0  0
 35 37  1  0  0  0  0
 36 70  1  0  0  0  0
 36 75  2  0  0  0  0
 37 67  1  0  0  0  0
 37 76  2  0  0  0  0
 38 52  1  0  0  0  0
 38 72  1  0  0  0  0
 38 77  2  0  0  0  0
 39 62  1  0  0  0  0
 39 68  1  0  0  0  0
 39 78  2  0  0  0  0
 40 60  1  0  0  0  0
 40 71  1  0  0  0  0
 40 79  2  0  0  0  0
 41 63  1  0  0  0  0
 41 73  1  0  0  0  0
 41 80  2  0  0  0  0
 42 45  1  0  0  0  0
 43 52  1  0  0  0  0
 44 68  1  0  0  0  0
 45 47  1  0  0  0  0
 46 48  1  0  0  0  0
 46 49  1  0  0  0  0
 47 51  1  0  0  0  0
 48 53  1  0  0  0  0
 49 67  1  0  0  0  0
 50 53  1  0  0  0  0
 50 67  1  0  0  0  0
 51 72  1  0  0  0  0
 52 68  1  0  0  0  0
 53 66  1  0  0  0  0
 55 63  1  0  0  0  0
 56 64  1  0  0  0  0
 57 64  1  0  0  0  0
 58 64  1  0  0  0  0
 59 74  1  0  0  0  0
 60 61  1  0  0  0  0
 61 82  1  0  0  0  0
 62 64  1  0  0  0  0
 62 73  1  0  0  0  0
 63 74  1  0  0  0  0
 65 66  1  0  0  0  0
M  CHG  1  74   1
M  ISO  4  35 100  37 100  61 101  82 101
M  END
> <Batch ID>
0124

> <Smiles>
CNC(C)C(=O)NC(C(=O)N1Cc2cc([101O:1][101CH2:1]CC(=O)Nc3ccc(C=[100CH:0][100C:0](=O)N4CCCC(n5nc(-c6ccc(Oc7ccc(F)cc7F)cc6)c(C(N)=O)c5N)C4)c(C)c3)ccc2CC1C(=O)NC1CCCc2ccccc21)C(C)(C)C

> <Shape>
0.273

> <Color>
0.106

> <Negative vol penalty>
0.000

$$$$

  -OEChem-04052302063D

 84 92  0     1  0  0  0  0  0999 V2000
  -27.6152  -23.5954   18.2342 C   0  0  0  0  0  0  0  0  0  0  0  0
  -26.4403  -24.0039   18.8573 C   0  0  0  0  0  0  0  0  0  0  0  0
  -27.0889  -17.1450   22.4880 C   0  0  0  0  0  0  0  0  0  0  0  0
  -25.3613  -18.3779   21.3337 C   0  0  0  0  0  0  0  0  0  0  0  0
  -28.8434  -24.0880   18.6734 C   0  0  0  0  0  0  0  0  0  0  0  0
  -26.4930  -24.9044   19.9207 C   0  0  0  0  0  0  0  0  0  0  0  0
  -23.0068  -28.5583   19.5469 C   0  0  0  0  0  0  0  0  0  0  0  0
  -26.7463  -15.9967   21.7743 C   0  0  0  0  0  0  0  0  0  0  0  0
  -25.0187  -17.2295   20.6198 C   0  0  0  0  0  0  0  0  0  0  0  0
  -21.6989  -28.2290   19.9001 C   0  0  0  0  0  0  0  0  0  0  0  0
  -26.1934  -15.5100   17.9583 C   0  0  0  0  0  0  0  0  0  0  0  0
  -25.9826  -15.6407   16.5857 C   0  0  0  0  0  0  0  0  0  0  0  0
  -18.8092  -24.5941   26.1644 C   0  0  0  0  0  0  0  0  0  0  0  0
  -22.0242  -29.2700   22.0518 C   0  0  0  0  0  0  0  0  0  0  0  0
  -20.6651  -23.8174   27.5022 C   0  0  0  0  0  0  0  0  0  0  0  0
  -23.7175  -14.8456   16.8578 C   0  0  0  0  0  0  0  0  0  0  0  0
  -26.3963  -18.3357   22.2678 C   0  0  0  0  0  0  0  0  0  0  0  0
  -19.5998  -24.5093   25.0184 C   0  0  0  0  0  0  0  0  0  0  0  0
  -27.6923  -20.5013   22.6393 C   0  0  0  0  0  0  0  0  0  0  0  0
  -28.9105  -25.0024   19.7364 C   0  0  0  0  0  0  0  0  0  0  0  0
  -23.8381  -29.2375   20.4492 C   0  0  0  0  0  0  0  0  0  0  0  0
  -27.7234  -25.4086   20.3753 C   0  0  0  0  0  0  0  0  0  0  0  0
  -23.3414  -29.6091   21.7067 C   0  0  0  0  0  0  0  0  0  0  0  0
  -20.9230  -24.0785   25.1142 C   0  0  0  0  0  0  0  0  0  0  0  0
  -21.4557  -23.7326   26.3561 C   0  0  0  0  0  0  0  0  0  0  0  0
  -25.7113  -16.0389   20.8402 C   0  0  0  0  0  0  0  0  0  0  0  0
  -21.2083  -28.5823   21.1537 C   0  0  0  0  0  0  0  0  0  0  0  0
  -25.1663  -15.0470   18.7807 C   0  0  0  0  0  0  0  0  0  0  0  0
  -24.7447  -15.3086   16.0355 C   0  0  0  0  0  0  0  0  0  0  0  0
  -19.3418  -24.2482   27.4063 C   0  0  0  0  0  0  0  0  0  0  0  0
  -23.9283  -14.7149   18.2305 C   0  0  0  0  0  0  0  0  0  0  0  0
  -26.7493  -19.5222   23.0052 C   0  0  0  0  0  0  0  0  0  0  0  0
  -27.6561  -21.4133   23.6657 C   0  0  0  0  0  0  0  0  0  0  0  0
  -19.0049  -24.8835   23.7246 C   0  0  0  0  0  0  0  0  0  0  0  0
  -19.0025  -26.1206   23.2038 C   0  0  0  0  0  0  0  0  0  0  0  0
  -28.5263  -20.5796   21.4757 C   0  0  0  0  0  0  0  0  0  0  0  0
  -26.5840  -28.5728   21.9058 C   0  0  0  0  0  0  0  0  0  0  0  0
  -26.3448  -31.6472   22.9125 C   0  0  0  0  0  0  0  0  0  0  0  0
  -24.3440  -34.3308   23.5770 C   0  0  0  0  0  0  0  0  0  0  0  0
  -23.4598  -22.9157   27.6455 C   0  0  0  0  0  0  0  0  0  0  0  0
  -30.2648  -25.4707   20.2067 C   0  0  0  0  0  0  0  0  0  0  0  0
  -25.2379  -29.6090   20.0430 C   0  0  0  0  0  0  0  0  0  0  0  0
  -24.1868  -30.3568   22.7039 C   0  0  0  0  0  0  0  0  0  0  0  0
  -30.2057  -26.7100   21.0961 C   0  0  0  0  0  0  0  0  0  0  0  0
  -26.7441  -21.7385   28.3558 C   0  0  0  0  0  0  0  0  0  0  0  0
  -29.1220  -26.5536   22.1582 C   0  0  0  0  0  0  0  0  0  0  0  0
  -27.2063  -21.1311   27.0293 C   0  0  0  0  0  0  0  0  0  0  0  0
  -25.2570  -21.4926   28.6045 C   0  0  0  0  0  0  0  0  0  0  0  0
  -24.8300  -21.3009   26.1859 C   0  0  0  0  0  0  0  0  0  0  0  0
  -27.7377  -26.4030   21.5159 C   0  0  1  0  0  0  0  0  0  0  0  0
  -26.1618  -29.8483   21.2332 C   0  0  1  0  0  0  0  0  0  0  0  0
  -26.3067  -21.5789   25.8606 C   0  0  2  0  0  0  0  0  0  0  0  0
  -22.7586  -25.1474   23.7821 C   0  0  0  0  0  0  0  0  0  0  0  0
  -24.4314  -36.6914   24.4240 C   0  0  0  0  0  0  0  0  0  0  0  0
  -26.6888  -30.6097   25.7612 C   0  0  0  0  0  0  0  0  0  0  0  0
  -25.8314  -32.8104   26.5919 C   0  0  0  0  0  0  0  0  0  0  0  0
  -27.9388  -32.7171   25.2604 C   0  0  0  0  0  0  0  0  0  0  0  0
  -23.2679  -35.4047   21.0377 C   0  0  0  0  0  0  0  0  0  0  0  0
  -21.7782  -23.9855   23.8875 C   0  0  0  0  0  0  0  0  0  0  0  0
  -18.3711  -26.4618   21.8818 C   0  0  0  0  0  0  0  0  0  0  0  0
  -19.3780  -27.0819   20.9203 C   0  0  0  0  0  0  0  0  0  1  0  0
  -25.7235  -32.3371   24.1028 C   0  0  1  0  0  0  0  0  0  0  0  0
  -24.4635  -35.7953   23.1957 C   0  0  2  0  0  0  0  0  0  0  0  0
  -26.5301  -32.1028   25.4112 C   0  0  0  0  0  0  0  0  0  0  0  0
  -26.1575  -19.7871   24.1729 N   0  0  0  0  0  0  0  0  0  0  0  0
  -26.7300  -20.9431   24.5497 N   0  0  0  0  0  0  0  0  0  0  0  0
  -25.5508  -30.6918   22.2624 N   0  0  0  0  0  0  0  0  0  0  0  0
  -24.4667  -21.9453   27.4577 N   0  0  0  0  0  0  0  0  0  0  0  0
  -28.3265  -22.5635   23.8893 N   0  0  0  0  0  0  0  0  0  0  0  0
  -28.4372  -19.5583   20.5199 N   0  0  0  0  0  0  0  0  0  0  0  0
  -22.7969  -23.2922   26.4778 N   0  0  0  0  0  0  0  0  0  0  0  0
  -27.2435  -27.6891   21.0730 N   0  0  0  0  0  0  0  0  0  0  0  0
  -25.5806  -33.7409   23.7323 N   0  0  0  0  0  0  0  0  0  0  0  0
  -23.3422  -36.1897   22.2968 N   0  3  0  0  0  0  0  0  0  0  0  0
  -29.3387  -21.5185   21.2970 O   0  0  0  0  0  0  0  0  0  0  0  0
  -26.3316  -28.4036   23.0930 O   0  0  0  0  0  0  0  0  0  0  0  0
  -27.4898  -31.9500   22.5676 O   0  0  0  0  0  0  0  0  0  0  0  0
  -23.2619  -33.7675   23.7261 O   0  0  0  0  0  0  0  0  0  0  0  0
  -23.2228  -23.3985   28.7558 O   0  0  0  0  0  0  0  0  0  0  0  0
  -25.3769  -14.9186   20.1433 O   0  0  0  0  0  0  0  0  0  0  0  0
  -19.9323  -28.2615   21.5012 O   0  0  0  0  0  0  0  0  0  1  0  0
  -24.5419  -15.4356   14.7175 F   0  0  0  0  0  0  0  0  0  0  0  0
  -18.5824  -24.3289   28.5068 F   0  0  0  0  0  0  0  0  0  0  0  0
  -22.9373  -14.2707   19.0157 F   0  0  0  0  0  0  0  0  0  0  0  0
  1  2  1  0  0  0  0
  1  5  2  0  0  0  0
  2  6  2  0  0  0  0
  3  8  2  0  0  0  0
  3 17  1  0  0  0  0
  4  9  1  0  0  0  0
  4 17  2  0  0  0  0
  5 20  1  0  0  0  0
  6 22  1  0  0  0  0
  7 10  2  0  0  0  0
  7 21  1  0  0  0  0
  8 26  1  0  0  0  0
  9 26  2  0  0  0  0
 10 27  1  0  0  0  0
 11 12  2  0  0  0  0
 11 28  1  0  0  0  0
 12 29  1  0  0  0  0
 13 18  2  0  0  0  0
 13 30  1  0  0  0  0
 14 23  1  0  0  0  0
 14 27  2  0  0  0  0
 15 25  1  0  0  0  0
 15 30  2  0  0  0  0
 16 29  2  0  0  0  0
 16 31  1  0  0  0  0
 17 32  1  0  0  0  0
 18 24  1  0  0  0  0
 18 34  1  0  0  0  0
 19 32  1  0  0  0  0
 19 33  2  0  0  0  0
 19 36  1  0  0  0  0
 20 22  2  0  0  0  0
 20 41  1  0  0  0  0
 21 23  2  0  0  0  0
 21 42  1  0  0  0  0
 22 50  1  0  0  0  0
 23 43  1  0  0  0  0
 24 25  2  0  0  0  0
 24 59  1  0  0  0  0
 25 71  1  0  0  0  0
 26 80  1  0  0  0  0
 27 81  1  0  0  0  0
 28 31  2  0  0  0  0
 28 80  1  0  0  0  0
 29 82  1  0  0  0  0
 30 83  1  0  0  0  0
 31 84  1  0  0  0  0
 32 65  2  0  0  0  0
 33 66  1  0  0  0  0
 33 69  1  0  0  0  0
 34 35  2  0  0  0  0
 35 60  1  0  0  0  0
 36 70  1  0  0  0  0
 36 75  2  0  0  0  0
 37 51  1  0  0  0  0
 37 72  1  0  0  0  0
 37 76  2  0  0  0  0
 38 62  1  0  0  0  0
 38 67  1  0  0  0  0
 38 77  2  0  0  0  0
 39 63  1  0  0  0  0
 39 73  1  0  0  0  0
 39 78  2  0  0  0  0
 40 68  1  0  0  0  0
 40 71  1  0  0  0  0
 40 79  2  0  0  0  0
 41 44  1  0  0  0  0
 42 51  1  0  0  0  0
 43 67  1  0  0  0  0
 44 46  1  0  0  0  0
 45 47  1  0  0  0  0
 45 48  1  0  0  0  0
 46 50  1  0  0  0  0
 47 52  1  0  0  0  0
 48 68  1  0  0  0  0
 49 52  1  0  0  0  0
 49 68  1  0  0  0  0
 50 72  1  0  0  0  0
 51 67  1  0  0  0  0
 52 66  1  0  0  0  0
 53 59  1  0  0  0  0
 54 63  1  0  0  0  0
 55 64  1  0  0  0  0
 56 64  1  0  0  0  0
 57 64  1  0  0  0  0
 58 74  1  0  0  0  0
 60 61  1  0  0  0  0
 61 81  1  0  0  0  0
 62 64  1  0  0  0  0
 62 73  1  0  0  0  0
 63 74  1  0  0  0  0
 65 66  1  0  0  0  0
M  CHG  1  74   1
M  ISO  4  40 100  61 101  71 100  81 101
M  END
> <Batch ID>
0124

> <Smiles>
CCc1c(C=CC[101CH2:1][101O:1]c2ccc3c(c2)CN(C(=O)C(NC(=O)C(C)NC)C(C)(C)C)C(C(=O)NC2CCCc4ccccc42)C3)cc(F)cc1[100NH:0][100C:0](=O)N1CCCC(n2nc(-c3ccc(Oc4ccc(F)cc4F)cc3)c(C(N)=O)c2N)C1

> <Shape>
0.215

> <Color>
0.061

> <Negative vol penalty>
0.000

$$$$

  -OEChem-04052302063D

 84 92  0     1  0  0  0  0  0999 V2000
  -27.9385  -24.1349   16.9659 C   0  0  0  0  0  0  0  0  0  0  0  0
  -26.8106  -24.3130   17.7605 C   0  0  0  0  0  0  0  0  0  0  0  0
  -26.5754  -14.4802   19.6633 C   0  0  0  0  0  0  0  0  0  0  0  0
  -24.5251  -14.6634   20.9281 C   0  0  0  0  0  0  0  0  0  0  0  0
  -22.7441  -24.5032   24.8130 C   0  0  0  0  0  0  0  0  0  0  0  0
  -29.1412  -24.7464   17.3176 C   0  0  0  0  0  0  0  0  0  0  0  0
  -26.8849  -25.1017   18.9081 C   0  0  0  0  0  0  0  0  0  0  0  0
  -22.9496  -28.2574   19.3547 C   0  0  0  0  0  0  0  0  0  0  0  0
  -23.8456  -23.7231   24.4612 C   0  0  0  0  0  0  0  0  0  0  0  0
  -26.6345  -13.1178   19.9564 C   0  0  0  0  0  0  0  0  0  0  0  0
  -24.5841  -13.3010   21.2212 C   0  0  0  0  0  0  0  0  0  0  0  0
  -21.7488  -27.7169   19.8127 C   0  0  0  0  0  0  0  0  0  0  0  0
  -23.8857  -10.3864   19.6599 C   0  0  0  0  0  0  0  0  0  0  0  0
  -22.7108   -9.6457   19.5308 C   0  0  0  0  0  0  0  0  0  0  0  0
  -22.2121  -28.5735   22.0197 C   0  0  0  0  0  0  0  0  0  0  0  0
  -22.5105  -21.7251   24.7117 C   0  0  0  0  0  0  0  0  0  0  0  0
  -22.8248   -9.0571   21.8712 C   0  0  0  0  0  0  0  0  0  0  0  0
  -25.5207  -15.2531   20.1491 C   0  0  0  0  0  0  0  0  0  0  0  0
  -21.5258  -23.8943   25.1143 C   0  0  0  0  0  0  0  0  0  0  0  0
  -24.8317  -17.2664   18.7422 C   0  0  0  0  0  0  0  0  0  0  0  0
  -29.2278  -25.5508   18.4648 C   0  0  0  0  0  0  0  0  0  0  0  0
  -23.7972  -28.9518   20.2297 C   0  0  0  0  0  0  0  0  0  0  0  0
  -28.0902  -25.7234   19.2762 C   0  0  0  0  0  0  0  0  0  0  0  0
  -23.4218  -29.1241   21.5697 C   0  0  0  0  0  0  0  0  0  0  0  0
  -21.4090  -22.5052   25.0636 C   0  0  0  0  0  0  0  0  0  0  0  0
  -23.7287  -22.3340   24.4105 C   0  0  0  0  0  0  0  0  0  0  0  0
  -25.6389  -12.5282   20.7353 C   0  0  0  0  0  0  0  0  0  0  0  0
  -21.3812  -27.8724   21.1461 C   0  0  0  0  0  0  0  0  0  0  0  0
  -24.5302  -10.4623   20.8947 C   0  0  0  0  0  0  0  0  0  0  0  0
  -22.1803   -8.9811   20.6364 C   0  0  0  0  0  0  0  0  0  0  0  0
  -23.9997   -9.7977   22.0003 C   0  0  0  0  0  0  0  0  0  0  0  0
  -25.4594  -16.6606   19.8471 C   0  0  0  0  0  0  0  0  0  0  0  0
  -25.0568  -18.6104   18.9139 C   0  0  0  0  0  0  0  0  0  0  0  0
  -19.4920  -25.2130   24.3721 C   0  0  0  0  0  0  0  0  0  0  0  0
  -19.7690  -24.8851   23.1029 C   0  0  0  0  0  0  0  0  0  0  0  0
  -20.3666  -24.7519   25.4874 C   0  0  0  0  0  0  0  0  0  0  0  0
  -24.1098  -16.6678   17.6578 C   0  0  0  0  0  0  0  0  0  0  0  0
  -26.7675  -28.5315   21.2807 C   0  0  0  0  0  0  0  0  0  0  0  0
  -26.2751  -31.4276   22.6563 C   0  0  0  0  0  0  0  0  0  0  0  0
  -24.0548  -33.7292   23.8478 C   0  0  0  0  0  0  0  0  0  0  0  0
  -26.1281  -21.9883   23.7250 C   0  0  0  0  0  0  0  0  0  0  0  0
  -30.5615  -26.1528   18.8302 C   0  0  0  0  0  0  0  0  0  0  0  0
  -25.0764  -29.5518   19.7139 C   0  0  0  0  0  0  0  0  0  0  0  0
  -24.2868  -29.8785   22.5449 C   0  0  0  0  0  0  0  0  0  0  0  0
  -30.4613  -27.2772   19.8578 C   0  0  0  0  0  0  0  0  0  0  0  0
  -28.1987  -21.6644   20.8467 C   0  0  0  0  0  0  0  0  0  0  0  0
  -29.5496  -26.8676   21.0101 C   0  0  0  0  0  0  0  0  0  0  0  0
  -27.6701  -20.4030   20.1599 C   0  0  0  0  0  0  0  0  0  0  0  0
  -28.1614  -21.5395   22.3687 C   0  0  0  0  0  0  0  0  0  0  0  0
  -26.3299  -19.8967   22.2418 C   0  0  0  0  0  0  0  0  0  0  0  0
  -28.1247  -26.5917   20.5151 C   0  0  1  0  0  0  0  0  0  0  0  0
  -26.1068  -29.7969   20.8118 C   0  0  1  0  0  0  0  0  0  0  0  0
  -26.2873  -20.0001   20.7085 C   0  0  2  0  0  0  0  0  0  0  0  0
  -20.1163  -21.8278   25.3827 C   0  0  0  0  0  0  0  0  0  0  0  0
  -23.9530  -35.9831   24.9465 C   0  0  0  0  0  0  0  0  0  0  0  0
  -27.1057  -30.1693   25.3089 C   0  0  0  0  0  0  0  0  0  0  0  0
  -26.0921  -32.1366   26.4797 C   0  0  0  0  0  0  0  0  0  0  0  0
  -28.0081  -32.4686   24.9172 C   0  0  0  0  0  0  0  0  0  0  0  0
  -22.5387  -34.8914   21.5873 C   0  0  0  0  0  0  0  0  0  0  0  0
  -18.9320  -25.3270   21.9346 C   0  0  0  0  0  0  0  0  0  0  0  0
  -19.7385  -26.1641   20.9488 C   0  0  0  0  0  0  0  0  0  1  0  0
  -25.7287  -31.9030   23.9808 C   0  0  1  0  0  0  0  0  0  0  0  0
  -23.9406  -35.2268   23.6272 C   0  0  2  0  0  0  0  0  0  0  0  0
  -26.7180  -31.6534   25.1540 C   0  0  0  0  0  0  0  0  0  0  0  0
  -26.0398  -17.5470   20.6604 N   0  0  0  0  0  0  0  0  0  0  0  0
  -20.1995  -25.0983   26.7241 N   0  0  0  0  0  0  0  0  0  0  0  0
  -25.7777  -18.7235   20.0661 N   0  0  0  0  0  0  0  0  0  0  0  0
  -25.5308  -30.4411   21.9939 N   0  0  0  0  0  0  0  0  0  0  0  0
  -26.8196  -21.1596   22.8162 N   0  0  0  0  0  0  0  0  0  0  0  0
  -24.7063  -19.6947   18.1901 N   0  0  0  0  0  0  0  0  0  0  0  0
  -23.9724  -15.2732   17.6357 N   0  0  0  0  0  0  0  0  0  0  0  0
  -24.8482  -21.5424   24.0530 N   0  0  0  0  0  0  0  0  0  0  0  0
  -27.4211  -27.8347   20.2823 N   0  0  0  0  0  0  0  0  0  0  0  0
  -25.3652  -33.3035   23.7934 N   0  0  0  0  0  0  0  0  0  0  0  0
  -22.6736  -35.5499   22.9122 N   0  3  0  0  0  0  0  0  0  0  0  0
  -23.6156  -17.3482   16.7269 O   0  0  0  0  0  0  0  0  0  0  0  0
  -26.6912  -28.2116   22.4612 O   0  0  0  0  0  0  0  0  0  0  0  0
  -27.3200  -31.9187   22.2218 O   0  0  0  0  0  0  0  0  0  0  0  0
  -23.0796  -33.0097   24.0519 O   0  0  0  0  0  0  0  0  0  0  0  0
  -26.6235  -23.0320   24.1579 O   0  0  0  0  0  0  0  0  0  0  0  0
  -25.6961  -11.1987   21.0214 O   0  0  0  0  0  0  0  0  0  0  0  0
  -20.2101  -27.3453   21.5959 O   0  0  0  0  0  0  0  0  0  1  0  0
  -21.0513   -8.2711   20.5127 F   0  0  0  0  0  0  0  0  0  0  0  0
  -24.6137   -9.8680   23.1894 F   0  0  0  0  0  0  0  0  0  0  0  0
  1  2  1  0  0  0  0
  1  6  2  0  0  0  0
  2  7  2  0  0  0  0
  3 10  2  0  0  0  0
  3 18  1  0  0  0  0
  4 11  1  0  0  0  0
  4 18  2  0  0  0  0
  5  9  2  0  0  0  0
  5 19  1  0  0  0  0
  6 21  1  0  0  0  0
  7 23  1  0  0  0  0
  8 12  2  0  0  0  0
  8 22  1  0  0  0  0
  9 26  1  0  0  0  0
 10 27  1  0  0  0  0
 11 27  2  0  0  0  0
 12 28  1  0  0  0  0
 13 14  2  0  0  0  0
 13 29  1  0  0  0  0
 14 30  1  0  0  0  0
 15 24  1  0  0  0  0
 15 28  2  0  0  0  0
 16 25  1  0  0  0  0
 16 26  2  0  0  0  0
 17 30  2  0  0  0  0
 17 31  1  0  0  0  0
 18 32  1  0  0  0  0
 19 25  2  0  0  0  0
 19 36  1  0  0  0  0
 20 32  1  0  0  0  0
 20 33  2  0  0  0  0
 20 37  1  0  0  0  0
 21 23  2  0  0  0  0
 21 42  1  0  0  0  0
 22 24  2  0  0  0  0
 22 43  1  0  0  0  0
 23 51  1  0  0  0  0
 24 44  1  0  0  0  0
 25 54  1  0  0  0  0
 26 72  1  0  0  0  0
 27 81  1  0  0  0  0
 28 82  1  0  0  0  0
 29 31  2  0  0  0  0
 29 81  1  0  0  0  0
 30 83  1  0  0  0  0
 31 84  1  0  0  0  0
 32 65  2  0  0  0  0
 33 67  1  0  0  0  0
 33 70  1  0  0  0  0
 34 35  2  0  0  0  0
 34 36  1  0  0  0  0
 35 60  1  0  0  0  0
 36 66  2  0  0  0  0
 37 71  1  0  0  0  0
 37 76  2  0  0  0  0
 38 52  1  0  0  0  0
 38 73  1  0  0  0  0
 38 77  2  0  0  0  0
 39 62  1  0  0  0  0
 39 68  1  0  0  0  0
 39 78  2  0  0  0  0
 40 63  1  0  0  0  0
 40 74  1  0  0  0  0
 40 79  2  0  0  0  0
 41 69  1  0  0  0  0
 41 72  1  0  0  0  0
 41 80  2  0  0  0  0
 42 45  1  0  0  0  0
 43 52  1  0  0  0  0
 44 68  1  0  0  0  0
 45 47  1  0  0  0  0
 46 48  1  0  0  0  0
 46 49  1  0  0  0  0
 47 51  1  0  0  0  0
 48 53  1  0  0  0  0
 49 69  1  0  0  0  0
 50 53  1  0  0  0  0
 50 69  1  0  0  0  0
 51 73  1  0  0  0  0
 52 68  1  0  0  0  0
 53 67  1  0  0  0  0
 55 63  1  0  0  0  0
 56 64  1  0  0  0  0
 57 64  1  0  0  0  0
 58 64  1  0  0  0  0
 59 75  1  0  0  0  0
 60 61  1  0  0  0  0
 61 82  1  0  0  0  0
 62 64  1  0  0  0  0
 62 74  1  0  0  0  0
 63 75  1  0  0  0  0
 65 67  1  0  0  0  0
M  CHG  1  75   1
M  ISO  4  41 100  61 101  72 100  82 101
M  END
> <Batch ID>
0124

> <Smiles>
CNC(C)C(=O)NC(C(=O)N1Cc2cc([101O:1][101CH2:1]CC=CC(=N)c3ccc([100NH:0][100C:0](=O)N4CCCC(n5nc(-c6ccc(Oc7ccc(F)cc7F)cc6)c(C(N)=O)c5N)C4)cc3C)ccc2CC1C(=O)NC1CCCc2ccccc21)C(C)(C)C

> <Shape>
0.287

> <Color>
0.076

> <Negative vol penalty>
0.000

$$$$

  -OEChem-04052302063D

 82 90  0     1  0  0  0  0  0999 V2000
  -28.3802  -36.7812   19.9160 C   0  0  0  0  0  0  0  0  0  0  0  0
  -28.7093  -35.4467   19.7009 C   0  0  0  0  0  0  0  0  0  0  0  0
  -23.9117   -9.3123   20.3656 C   0  0  0  0  0  0  0  0  0  0  0  0
  -22.8701  -11.2558   21.3531 C   0  0  0  0  0  0  0  0  0  0  0  0
  -27.5214  -37.1269   20.9585 C   0  0  0  0  0  0  0  0  0  0  0  0
  -28.1806  -34.4572   20.5289 C   0  0  0  0  0  0  0  0  0  0  0  0
  -26.5932  -28.7668   18.9147 C   0  0  0  0  0  0  0  0  0  0  0  0
  -22.9585   -8.4937   20.9713 C   0  0  0  0  0  0  0  0  0  0  0  0
  -21.9169  -10.4371   21.9588 C   0  0  0  0  0  0  0  0  0  0  0  0
  -27.2499  -27.5422   19.0274 C   0  0  0  0  0  0  0  0  0  0  0  0
  -22.3846   -7.1849   24.0344 C   0  0  0  0  0  0  0  0  0  0  0  0
  -22.8338   -6.0223   24.6606 C   0  0  0  0  0  0  0  0  0  0  0  0
  -28.2046  -20.3500   18.4836 C   0  0  0  0  0  0  0  0  0  0  0  0
  -26.0577  -27.0983   21.0770 C   0  0  0  0  0  0  0  0  0  0  0  0
  -29.9149  -19.1480   20.3310 C   0  0  0  0  0  0  0  0  0  0  0  0
  -21.4639   -4.6946   23.1781 C   0  0  0  0  0  0  0  0  0  0  0  0
  -23.8675  -10.6934   20.5566 C   0  0  0  0  0  0  0  0  0  0  0  0
  -29.0662  -21.1350   19.2498 C   0  0  0  0  0  0  0  0  0  0  0  0
  -24.7724  -12.1421   18.6619 C   0  0  0  0  0  0  0  0  0  0  0  0
  -26.9742  -36.1402   21.7938 C   0  0  0  0  0  0  0  0  0  0  0  0
  -25.6703  -29.1720   19.8897 C   0  0  0  0  0  0  0  0  0  0  0  0
  -27.3147  -34.7901   21.5844 C   0  0  0  0  0  0  0  0  0  0  0  0
  -25.3888  -28.3275   20.9730 C   0  0  0  0  0  0  0  0  0  0  0  0
  -28.1981  -18.9640   18.6411 C   0  0  0  0  0  0  0  0  0  0  0  0
  -29.9213  -20.5340   20.1735 C   0  0  0  0  0  0  0  0  0  0  0  0
  -29.0533  -18.3631   19.5648 C   0  0  0  0  0  0  0  0  0  0  0  0
  -21.9611   -9.0561   21.7679 C   0  0  0  0  0  0  0  0  0  0  0  0
  -26.9844  -26.7090   20.1102 C   0  0  0  0  0  0  0  0  0  0  0  0
  -21.4750   -7.1024   22.9801 C   0  0  0  0  0  0  0  0  0  0  0  0
  -22.3735   -4.7771   24.2324 C   0  0  0  0  0  0  0  0  0  0  0  0
  -21.0147   -5.8573   22.5519 C   0  0  0  0  0  0  0  0  0  0  0  0
  -24.8522  -11.5395   19.9316 C   0  0  0  0  0  0  0  0  0  0  0  0
  -25.9502  -12.8377   18.5373 C   0  0  0  0  0  0  0  0  0  0  0  0
  -29.0498  -22.5952   19.0608 C   0  0  0  0  0  0  0  0  0  0  0  0
  -27.9780  -23.3854   19.2283 C   0  0  0  0  0  0  0  0  0  0  0  0
  -23.7271  -12.0789   17.6826 C   0  0  0  0  0  0  0  0  0  0  0  0
  -25.4892  -31.5969   21.9367 C   0  0  0  0  0  0  0  0  0  0  0  0
  -22.5524  -30.3587   22.5408 C   0  0  0  0  0  0  0  0  0  0  0  0
  -20.4887  -27.6410   22.4950 C   0  0  0  0  0  0  0  0  0  0  0  0
  -29.8535  -16.2194   20.6186 C   0  0  0  0  0  0  0  0  0  0  0  0
  -26.0879  -36.5667   22.9371 C   0  0  0  0  0  0  0  0  0  0  0  0
  -24.9505  -30.4841   19.7396 C   0  0  0  0  0  0  0  0  0  0  0  0
  -24.3916  -28.7070   22.0361 C   0  0  0  0  0  0  0  0  0  0  0  0
  -25.2739  -35.4227   23.5363 C   0  0  0  0  0  0  0  0  0  0  0  0
  -30.1422  -12.7517   21.3730 C   0  0  0  0  0  0  0  0  0  0  0  0
  -26.1586  -34.2016   23.7669 C   0  0  0  0  0  0  0  0  0  0  0  0
  -28.7851  -12.1768   20.9608 C   0  0  0  0  0  0  0  0  0  0  0  0
  -30.0062  -14.1466   21.9808 C   0  0  0  0  0  0  0  0  0  0  0  0
  -27.9110  -14.5382   20.7456 C   0  0  0  0  0  0  0  0  0  0  0  0
  -26.7418  -33.6856   22.4458 C   0  0  1  0  0  0  0  0  0  0  0  0
  -24.4112  -31.0243   21.0604 C   0  0  1  0  0  0  0  0  0  0  0  0
  -28.0036  -13.1610   20.0686 C   0  0  2  0  0  0  0  0  0  0  0  0
  -27.2638  -18.1481   17.8077 C   0  0  0  0  0  0  0  0  0  0  0  0
  -30.8576  -21.3442   21.0115 C   0  0  0  0  0  0  0  0  0  0  0  0
  -18.1563  -26.9286   23.0861 C   0  0  0  0  0  0  0  0  0  0  0  0
  -23.3188  -30.3083   25.4938 C   0  0  0  0  0  0  0  0  0  0  0  0
  -21.3988  -28.7520   25.8937 C   0  0  0  0  0  0  0  0  0  0  0  0
  -20.9766  -31.0563   25.0364 C   0  0  0  0  0  0  0  0  0  0  0  0
  -19.8726  -26.9243   19.6905 C   0  0  0  0  0  0  0  0  0  0  0  0
  -28.0066  -24.8644   19.0109 C   0  0  0  0  0  0  0  0  0  1  0  0
  -22.0023  -29.3306   23.4995 C   0  0  1  0  0  0  0  0  0  0  0  0
  -19.0673  -27.4640   21.9924 C   0  0  2  0  0  0  0  0  0  0  0  0
  -21.9444  -29.8552   24.9620 C   0  0  0  0  0  0  0  0  0  0  0  0
  -25.9907  -11.8269   20.5681 N   0  0  0  0  0  0  0  0  0  0  0  0
  -26.6372  -12.6177   19.6948 N   0  0  0  0  0  0  0  0  0  0  0  0
  -23.7184  -30.0027   21.8482 N   0  0  0  0  0  0  0  0  0  0  0  0
  -29.2589  -15.0252   21.0783 N   0  0  0  0  0  0  0  0  0  0  0  0
  -26.4548  -13.6099   17.5517 N   0  0  0  0  0  0  0  0  0  0  0  0
  -22.5855  -11.3191   17.9720 N   0  0  0  0  0  0  0  0  0  0  0  0
  -29.0608  -16.9570   19.7399 N   0  0  0  0  0  0  0  0  0  0  0  0
  -25.7448  -32.9362   21.7118 N   0  0  0  0  0  0  0  0  0  0  0  0
  -20.7103  -28.9199   22.9605 N   0  0  0  0  0  0  0  0  0  0  0  0
  -19.0377  -26.5104   20.8475 N   0  3  0  0  0  0  0  0  0  0  0  0
  -23.8103  -12.6651   16.5767 O   0  0  0  0  0  0  0  0  0  0  0  0
  -26.0466  -30.8774   22.7572 O   0  0  0  0  0  0  0  0  0  0  0  0
  -21.9652  -31.4351   22.4059 O   0  0  0  0  0  0  0  0  0  0  0  0
  -21.3184  -26.7344   22.4799 O   0  0  0  0  0  0  0  0  0  0  0  0
  -30.9933  -16.5487   20.9567 O   0  0  0  0  0  0  0  0  0  0  0  0
  -21.0307   -8.2576   22.3589 O   0  0  0  0  0  0  0  0  0  0  0  0
  -27.6244  -25.5134   20.2229 O   0  0  0  0  0  0  0  0  0  1  0  0
  -22.8061   -3.6606   24.8328 F   0  0  0  0  0  0  0  0  0  0  0  0
  -20.1418   -5.7716   21.5388 F   0  0  0  0  0  0  0  0  0  0  0  0
  1  2  1  0  0  0  0
  1  5  2  0  0  0  0
  2  6  2  0  0  0  0
  3  8  2  0  0  0  0
  3 17  1  0  0  0  0
  4  9  1  0  0  0  0
  4 17  2  0  0  0  0
  5 20  1  0  0  0  0
  6 22  1  0  0  0  0
  7 10  2  0  0  0  0
  7 21  1  0  0  0  0
  8 27  1  0  0  0  0
  9 27  2  0  0  0  0
 10 28  1  0  0  0  0
 11 12  2  0  0  0  0
 11 29  1  0  0  0  0
 12 30  1  0  0  0  0
 13 18  1  0  0  0  0
 13 24  2  0  0  0  0
 14 23  1  0  0  0  0
 14 28  2  0  0  0  0
 15 25  1  0  0  0  0
 15 26  2  0  0  0  0
 16 30  2  0  0  0  0
 16 31  1  0  0  0  0
 17 32  1  0  0  0  0
 18 25  2  0  0  0  0
 18 34  1  0  0  0  0
 19 32  1  0  0  0  0
 19 33  2  0  0  0  0
 19 36  1  0  0  0  0
 20 22  2  0  0  0  0
 20 41  1  0  0  0  0
 21 23  2  0  0  0  0
 21 42  1  0  0  0  0
 22 50  1  0  0  0  0
 23 43  1  0  0  0  0
 24 26  1  0  0  0  0
 24 53  1  0  0  0  0
 25 54  1  0  0  0  0
 26 70  1  0  0  0  0
 27 79  1  0  0  0  0
 28 80  1  0  0  0  0
 29 31  2  0  0  0  0
 29 79  1  0  0  0  0
 30 81  1  0  0  0  0
 31 82  1  0  0  0  0
 32 64  2  0  0  0  0
 33 65  1  0  0  0  0
 33 68  1  0  0  0  0
 34 35  2  0  0  0  0
 35 60  1  0  0  0  0
 36 69  1  0  0  0  0
 36 74  2  0  0  0  0
 37 51  1  0  0  0  0
 37 71  1  0  0  0  0
 37 75  2  0  0  0  0
 38 61  1  0  0  0  0
 38 66  1  0  0  0  0
 38 76  2  0  0  0  0
 39 62  1  0  0  0  0
 39 72  1  0  0  0  0
 39 77  2  0  0  0  0
 40 67  1  0  0  0  0
 40 70  1  0  0  0  0
 40 78  2  0  0  0  0
 41 44  1  0  0  0  0
 42 51  1  0  0  0  0
 43 66  1  0  0  0  0
 44 46  1  0  0  0  0
 45 47  1  0  0  0  0
 45 48  1  0  0  0  0
 46 50  1  0  0  0  0
 47 52  1  0  0  0  0
 48 67  1  0  0  0  0
 49 52  1  0  0  0  0
 49 67  1  0  0  0  0
 50 71  1  0  0  0  0
 51 66  1  0  0  0  0
 52 65  1  0  0  0  0
 55 62  1  0  0  0  0
 56 63  1  0  0  0  0
 57 63  1  0  0  0  0
 58 63  1  0  0  0  0
 59 73  1  0  0  0  0
 60 80  1  0  0  0  0
 61 63  1  0  0  0  0
 61 72  1  0  0  0  0
 62 73  1  0  0  0  0
 64 65  1  0  0  0  0
M  CHG  1  73   1
M  ISO  4  40 100  60 101  70 100  80 101
M  END
> <Batch ID>
0124

> <Smiles>
CNC(C)C(=O)NC(C(=O)N1Cc2cc([101O:1][101CH2:1]C=Cc3cc(C)c([100NH:0][100C:0](=O)N4CCCC(n5nc(-c6ccc(Oc7ccc(F)cc7F)cc6)c(C(N)=O)c5N)C4)cc3C)ccc2CC1C(=O)NC1CCCc2ccccc21)C(C)(C)C

> <Shape>
0.342

> <Color>
0.092

> <Negative vol penalty>
0.000

$$$$

  -OEChem-04052302063D

 84 92  0     1  0  0  0  0  0999 V2000
  -27.3051  -37.4903   23.1513 C   0  0  0  0  0  0  0  0  0  0  0  0
  -27.7448  -36.4397   22.3523 C   0  0  0  0  0  0  0  0  0  0  0  0
  -24.1868   -9.4103   22.3699 C   0  0  0  0  0  0  0  0  0  0  0  0
  -24.4199   -8.8962   20.0208 C   0  0  0  0  0  0  0  0  0  0  0  0
  -26.5982  -37.2247   24.3233 C   0  0  0  0  0  0  0  0  0  0  0  0
  -27.4786  -35.1227   22.7255 C   0  0  0  0  0  0  0  0  0  0  0  0
  -26.3083  -30.4053   18.9996 C   0  0  0  0  0  0  0  0  0  0  0  0
  -23.0928   -8.5487   22.4500 C   0  0  0  0  0  0  0  0  0  0  0  0
  -23.3259   -8.0344   20.1009 C   0  0  0  0  0  0  0  0  0  0  0  0
  -27.1108  -29.3765   18.5084 C   0  0  0  0  0  0  0  0  0  0  0  0
  -20.4624   -6.2086   23.3555 C   0  0  0  0  0  0  0  0  0  0  0  0
  -20.4040   -5.3338   24.4404 C   0  0  0  0  0  0  0  0  0  0  0  0
  -26.5860  -21.4372   21.9504 C   0  0  0  0  0  0  0  0  0  0  0  0
  -29.0444  -22.2614   20.9210 C   0  0  0  0  0  0  0  0  0  0  0  0
  -26.3360  -27.9343   20.2801 C   0  0  0  0  0  0  0  0  0  0  0  0
  -22.4971   -4.3419   23.7534 C   0  0  0  0  0  0  0  0  0  0  0  0
  -24.8503   -9.5841   21.1553 C   0  0  0  0  0  0  0  0  0  0  0  0
  -27.5734  -20.4946   21.6639 C   0  0  0  0  0  0  0  0  0  0  0  0
  -28.0569  -23.2040   21.2074 C   0  0  0  0  0  0  0  0  0  0  0  0
  -27.3346  -10.1507   21.2769 C   0  0  0  0  0  0  0  0  0  0  0  0
  -26.3149  -35.9041   24.7061 C   0  0  0  0  0  0  0  0  0  0  0  0
  -25.5206  -30.2094   20.1431 C   0  0  0  0  0  0  0  0  0  0  0  0
  -26.7684  -34.8392   23.9044 C   0  0  0  0  0  0  0  0  0  0  0  0
  -25.5224  -28.9614   20.7823 C   0  0  0  0  0  0  0  0  0  0  0  0
  -28.8027  -20.9067   21.1493 C   0  0  0  0  0  0  0  0  0  0  0  0
  -26.8277  -22.7919   21.7221 C   0  0  0  0  0  0  0  0  0  0  0  0
  -22.6624   -7.8607   21.3155 C   0  0  0  0  0  0  0  0  0  0  0  0
  -27.1269  -28.1417   19.1503 C   0  0  0  0  0  0  0  0  0  0  0  0
  -21.5382   -6.1499   22.4695 C   0  0  0  0  0  0  0  0  0  0  0  0
  -21.4213   -4.4005   24.6394 C   0  0  0  0  0  0  0  0  0  0  0  0
  -22.5555   -5.2166   22.6684 C   0  0  0  0  0  0  0  0  0  0  0  0
  -25.9800  -10.4745   21.0718 C   0  0  0  0  0  0  0  0  0  0  0  0
  -28.0037  -11.3345   21.0833 C   0  0  0  0  0  0  0  0  0  0  0  0
  -27.2909  -19.0871   21.9128 C   0  0  0  0  0  0  0  0  0  0  0  0
  -28.3426  -24.6264   20.9570 C   0  0  0  0  0  0  0  0  0  0  0  0
  -26.3098  -18.3720   21.3256 C   0  0  0  0  0  0  0  0  0  0  0  0
  -28.6329  -25.1575   19.7587 C   0  0  0  0  0  0  0  0  0  0  0  0
  -27.9344   -8.8924   21.6123 C   0  0  0  0  0  0  0  0  0  0  0  0
  -26.1564  -16.9459   21.6769 C   0  0  0  0  0  0  0  0  0  0  0  0
  -25.4060  -31.5155   23.0388 C   0  0  0  0  0  0  0  0  0  0  0  0
  -22.7729  -29.6468   23.3512 C   0  0  0  0  0  0  0  0  0  0  0  0
  -21.0563  -26.8700   22.3565 C   0  0  0  0  0  0  0  0  0  0  0  0
  -25.5885  -35.6651   26.0061 C   0  0  0  0  0  0  0  0  0  0  0  0
  -24.6400  -31.3209   20.6447 C   0  0  0  0  0  0  0  0  0  0  0  0
  -24.6795  -28.6936   22.0014 C   0  0  0  0  0  0  0  0  0  0  0  0
  -25.0226  -34.2534   26.1369 C   0  0  0  0  0  0  0  0  0  0  0  0
  -27.7193  -15.4637   18.7118 C   0  0  0  0  0  0  0  0  0  0  0  0
  -26.0676  -33.2195   25.7296 C   0  0  0  0  0  0  0  0  0  0  0  0
  -27.5250  -13.9756   18.9903 C   0  0  0  0  0  0  0  0  0  0  0  0
  -26.5552  -16.3009   19.2395 C   0  0  0  0  0  0  0  0  0  0  0  0
  -26.0732  -14.5883   20.9644 C   0  0  0  0  0  0  0  0  0  0  0  0
  -26.4778  -33.3979   24.2628 C   0  0  1  0  0  0  0  0  0  0  0  0
  -24.2700  -31.1718   22.1172 C   0  0  1  0  0  0  0  0  0  0  0  0
  -27.2551  -13.7320   20.4836 C   0  0  1  0  0  0  0  0  0  0  0  0
  -29.8839  -19.9246   20.8309 C   0  0  0  0  0  0  0  0  0  0  0  0
  -25.7470  -23.7744   22.0408 C   0  0  0  0  0  0  0  0  0  0  0  0
  -30.2820  -26.8368   18.9283 C   0  0  0  0  0  0  0  0  0  0  0  0
  -18.9525  -25.5833   22.8207 C   0  0  0  0  0  0  0  0  0  0  0  0
  -24.0215  -28.5303   25.9015 C   0  0  0  0  0  0  0  0  0  0  0  0
  -22.3866  -26.6374   25.7902 C   0  0  0  0  0  0  0  0  0  0  0  0
  -21.5656  -28.9784   26.0519 C   0  0  0  0  0  0  0  0  0  0  0  0
  -20.0677  -27.2648   19.5950 C   0  0  0  0  0  0  0  0  0  0  0  0
  -28.9092  -26.6189   19.5509 C   0  0  1  0  0  0  0  0  0  1  0  0
  -22.5120  -28.2382   23.8273 C   0  0  1  0  0  0  0  0  0  0  0  0
  -19.6009  -26.6684   21.9752 C   0  0  2  0  0  0  0  0  0  0  0  0
  -22.6389  -28.1014   25.3709 C   0  0  0  0  0  0  0  0  0  0  0  0
  -25.7977  -11.7631   20.7711 N   0  0  0  0  0  0  0  0  0  0  0  0
  -27.0465  -12.2594   20.7860 N   0  0  0  0  0  0  0  0  0  0  0  0
  -26.2788  -16.0075   20.6538 N   0  0  0  0  0  0  0  0  0  0  0  0
  -23.8401  -29.8140   22.4573 N   0  0  0  0  0  0  0  0  0  0  0  0
  -29.3116  -11.6641   21.1402 N   0  0  0  0  0  0  0  0  0  0  0  0
  -27.1012   -7.7772   21.7745 N   0  0  0  0  0  0  0  0  0  0  0  0
  -25.4651  -32.8519   23.3848 N   0  0  0  0  0  0  0  0  0  0  0  0
  -21.2041  -27.8647   23.2999 N   0  0  0  0  0  0  0  0  0  0  0  0
  -19.4905  -26.2760   20.5417 N   0  3  0  0  0  0  0  0  0  0  0  0
  -29.1709   -8.7644   21.7798 O   0  0  0  0  0  0  0  0  0  0  0  0
  -25.9240  -16.6726   22.8559 O   0  0  0  0  0  0  0  0  0  0  0  0
  -26.1712  -30.6331   23.4096 O   0  0  0  0  0  0  0  0  0  0  0  0
  -22.0518  -30.5640   23.7518 O   0  0  0  0  0  0  0  0  0  0  0  0
  -21.9704  -26.2085   21.8692 O   0  0  0  0  0  0  0  0  0  0  0  0
  -21.5952   -7.0196   21.3933 O   0  0  0  0  0  0  0  0  0  0  0  0
  -27.9098  -27.1360   18.6733 O   0  0  0  0  0  0  0  0  0  1  0  0
  -21.3658   -3.5616   25.6821 F   0  0  0  0  0  0  0  0  0  0  0  0
  -23.5921   -5.1563   21.8213 F   0  0  0  0  0  0  0  0  0  0  0  0
  1  2  1  0  0  0  0
  1  5  2  0  0  0  0
  2  6  2  0  0  0  0
  3  8  2  0  0  0  0
  3 17  1  0  0  0  0
  4  9  1  0  0  0  0
  4 17  2  0  0  0  0
  5 21  1  0  0  0  0
  6 23  1  0  0  0  0
  7 10  2  0  0  0  0
  7 22  1  0  0  0  0
  8 27  1  0  0  0  0
  9 27  2  0  0  0  0
 10 28  1  0  0  0  0
 11 12  2  0  0  0  0
 11 29  1  0  0  0  0
 12 30  1  0  0  0  0
 13 18  2  0  0  0  0
 13 26  1  0  0  0  0
 14 19  1  0  0  0  0
 14 25  2  0  0  0  0
 15 24  1  0  0  0  0
 15 28  2  0  0  0  0
 16 30  2  0  0  0  0
 16 31  1  0  0  0  0
 17 32  1  0  0  0  0
 18 25  1  0  0  0  0
 18 34  1  0  0  0  0
 19 26  2  0  0  0  0
 19 35  1  0  0  0  0
 20 32  1  0  0  0  0
 20 33  2  0  0  0  0
 20 38  1  0  0  0  0
 21 23  2  0  0  0  0
 21 43  1  0  0  0  0
 22 24  2  0  0  0  0
 22 44  1  0  0  0  0
 23 52  1  0  0  0  0
 24 45  1  0  0  0  0
 25 55  1  0  0  0  0
 26 56  1  0  0  0  0
 27 81  1  0  0  0  0
 28 82  1  0  0  0  0
 29 31  2  0  0  0  0
 29 81  1  0  0  0  0
 30 83  1  0  0  0  0
 31 84  1  0  0  0  0
 32 67  2  0  0  0  0
 33 68  1  0  0  0  0
 33 71  1  0  0  0  0
 34 36  2  0  0  0  0
 35 37  2  0  0  0  0
 36 39  1  0  0  0  0
 37 63  1  0  0  0  0
 38 72  1  0  0  0  0
 38 76  2  0  0  0  0
 39 69  1  0  0  0  0
 39 77  2  0  0  0  0
 40 53  1  0  0  0  0
 40 73  1  0  0  0  0
 40 78  2  0  0  0  0
 41 64  1  0  0  0  0
 41 70  1  0  0  0  0
 41 79  2  0  0  0  0
 42 65  1  0  0  0  0
 42 74  1  0  0  0  0
 42 80  2  0  0  0  0
 43 46  1  0  0  0  0
 44 53  1  0  0  0  0
 45 70  1  0  0  0  0
 46 48  1  0  0  0  0
 47 49  1  0  0  0  0
 47 50  1  0  0  0  0
 48 52  1  0  0  0  0
 49 54  1  0  0  0  0
 50 69  1  0  0  0  0
 51 54  1  0  0  0  0
 51 69  1  0  0  0  0
 52 73  1  0  0  0  0
 53 70  1  0  0  0  0
 54 68  1  0  0  0  0
 57 63  1  0  0  0  0
 58 65  1  0  0  0  0
 59 66  1  0  0  0  0
 60 66  1  0  0  0  0
 61 66  1  0  0  0  0
 62 75  1  0  0  0  0
 63 82  1  0  0  0  0
 64 66  1  0  0  0  0
 64 74  1  0  0  0  0
 65 75  1  0  0  0  0
 67 68  1  0  0  0  0
M  CHG  1  75   1
M  ISO  4  36 100  39 100  63 101  82 101
M  END
> <Batch ID>
0124

> <Smiles>
CNC(C)C(=O)NC(C(=O)N1Cc2cc([101O:1][101CH:1](C)C=Cc3cc(C)c(C=[100CH:0][100C:0](=O)N4CCCC(n5nc(-c6ccc(Oc7ccc(F)cc7F)cc6)c(C(N)=O)c5N)C4)cc3C)ccc2CC1C(=O)NC1CCCc2ccccc21)C(C)(C)C

> <Shape>
0.323

> <Color>
0.104

> <Negative vol penalty>
0.000

$$$$
