
  -OEChem-04052302093D

 82 90  0     1  0  0  0  0  0999 V2000
  -28.4400  -24.2204   16.9149 C   0  0  0  0  0  0  0  0  0  0  0  0
  -27.2730  -24.3525   17.6606 C   0  0  0  0  0  0  0  0  0  0  0  0
  -26.9654  -13.3066   20.1844 C   0  0  0  0  0  0  0  0  0  0  0  0
  -24.6311  -13.9169   20.3096 C   0  0  0  0  0  0  0  0  0  0  0  0
  -18.6476  -21.8514   19.4170 C   0  0  0  0  0  0  0  0  0  0  0  0
  -29.6088  -24.8552   17.3332 C   0  0  0  0  0  0  0  0  0  0  0  0
  -27.2743  -25.1186   18.8257 C   0  0  0  0  0  0  0  0  0  0  0  0
  -23.2399  -28.1617   19.1547 C   0  0  0  0  0  0  0  0  0  0  0  0
  -19.0596  -20.7573   18.6563 C   0  0  0  0  0  0  0  0  0  0  0  0
  -26.6956  -12.1308   20.8844 C   0  0  0  0  0  0  0  0  0  0  0  0
  -24.3612  -12.7410   21.0095 C   0  0  0  0  0  0  0  0  0  0  0  0
  -22.0346  -27.5809   19.5466 C   0  0  0  0  0  0  0  0  0  0  0  0
  -22.9951   -9.7268   22.5150 C   0  0  0  0  0  0  0  0  0  0  0  0
  -21.8766   -8.9860   22.1331 C   0  0  0  0  0  0  0  0  0  0  0  0
  -20.9425  -22.2868   20.0341 C   0  0  0  0  0  0  0  0  0  0  0  0
  -22.3747  -28.4025   21.7890 C   0  0  0  0  0  0  0  0  0  0  0  0
  -22.8071   -8.7225   19.9191 C   0  0  0  0  0  0  0  0  0  0  0  0
  -25.9332  -14.1998   19.8970 C   0  0  0  0  0  0  0  0  0  0  0  0
  -19.5890  -22.6162   20.1059 C   0  0  0  0  0  0  0  0  0  0  0  0
  -26.7524  -15.5293   17.8798 C   0  0  0  0  0  0  0  0  0  0  0  0
  -29.6220  -25.6373   18.4989 C   0  0  0  0  0  0  0  0  0  0  0  0
  -24.0283  -28.8591   20.0811 C   0  0  0  0  0  0  0  0  0  0  0  0
  -28.4447  -25.7633   19.2607 C   0  0  0  0  0  0  0  0  0  0  0  0
  -23.5884  -28.9935   21.4057 C   0  0  0  0  0  0  0  0  0  0  0  0
  -20.4131  -20.4278   18.5846 C   0  0  0  0  0  0  0  0  0  0  0  0
  -21.3546  -21.1926   19.2735 C   0  0  0  0  0  0  0  0  0  0  0  0
  -25.3935  -11.8479   21.2970 C   0  0  0  0  0  0  0  0  0  0  0  0
  -21.6032  -27.6988   20.8646 C   0  0  0  0  0  0  0  0  0  0  0  0
  -24.0196   -9.9655   21.5989 C   0  0  0  0  0  0  0  0  0  0  0  0
  -21.7826   -8.4839   20.8352 C   0  0  0  0  0  0  0  0  0  0  0  0
  -23.9256   -9.4633   20.3010 C   0  0  0  0  0  0  0  0  0  0  0  0
  -26.2115  -15.4149   19.1745 C   0  0  0  0  0  0  0  0  0  0  0  0
  -26.8192  -16.8824   17.6539 C   0  0  0  0  0  0  0  0  0  0  0  0
  -19.1525  -23.7712   20.9079 C   0  0  0  0  0  0  0  0  0  0  0  0
  -19.8639  -24.3416   21.8929 C   0  0  0  0  0  0  0  0  0  0  0  0
  -27.1581  -14.5040   16.9634 C   0  0  0  0  0  0  0  0  0  0  0  0
  -26.9583  -28.4936   21.2581 C   0  0  0  0  0  0  0  0  0  0  0  0
  -26.3272  -31.3465   22.6669 C   0  0  0  0  0  0  0  0  0  0  0  0
  -23.9947  -33.5645   23.8013 C   0  0  0  0  0  0  0  0  0  0  0  0
  -23.7840  -21.5413   19.8417 C   0  0  0  0  0  0  0  0  0  0  0  0
  -30.9213  -26.2657   18.9367 C   0  0  0  0  0  0  0  0  0  0  0  0
  -25.3130  -29.5027   19.6362 C   0  0  0  0  0  0  0  0  0  0  0  0
  -24.3881  -29.7493   22.4341 C   0  0  0  0  0  0  0  0  0  0  0  0
  -30.7448  -27.3653   19.9807 C   0  0  0  0  0  0  0  0  0  0  0  0
  -27.3075  -21.0460   19.9691 C   0  0  0  0  0  0  0  0  0  0  0  0
  -29.7933  -26.9081   21.0819 C   0  0  0  0  0  0  0  0  0  0  0  0
  -27.4760  -19.5574   19.6560 C   0  0  0  0  0  0  0  0  0  0  0  0
  -26.0605  -21.3109   20.8109 C   0  0  0  0  0  0  0  0  0  0  0  0
  -24.9829  -19.2684   19.9528 C   0  0  0  0  0  0  0  0  0  0  0  0
  -28.4001  -26.6060   20.5169 C   0  0  1  0  0  0  0  0  0  0  0  0
  -26.2859  -29.7511   20.7847 C   0  0  1  0  0  0  0  0  0  0  0  0
  -26.1900  -18.9596   19.0522 C   0  0  2  0  0  0  0  0  0  0  0  0
  -20.8257  -19.2496   17.7631 C   0  0  0  0  0  0  0  0  0  0  0  0
  -23.7832  -35.7913   24.9387 C   0  0  0  0  0  0  0  0  0  0  0  0
  -27.0705  -30.0545   25.3293 C   0  0  0  0  0  0  0  0  0  0  0  0
  -25.9529  -31.9699   26.4913 C   0  0  0  0  0  0  0  0  0  0  0  0
  -27.9279  -32.3840   25.0248 C   0  0  0  0  0  0  0  0  0  0  0  0
  -22.5516  -34.7344   21.4974 C   0  0  0  0  0  0  0  0  0  0  0  0
  -19.3735  -25.5146   22.6969 C   0  0  0  0  0  0  0  0  0  0  0  0
  -20.3291  -26.6985   22.6058 C   0  0  0  0  0  0  0  0  0  1  0  0
  -25.7090  -31.7797   23.9743 C   0  0  1  0  0  0  0  0  0  0  0  0
  -23.8505  -35.0629   23.6054 C   0  0  2  0  0  0  0  0  0  0  0  0
  -26.6507  -31.5311   25.1862 C   0  0  0  0  0  0  0  0  0  0  0  0
  -25.9532  -16.6009   19.7320 N   0  0  0  0  0  0  0  0  0  0  0  0
  -26.3336  -17.4733   18.7831 N   0  0  0  0  0  0  0  0  0  0  0  0
  -25.6401  -30.3553   21.9518 N   0  0  0  0  0  0  0  0  0  0  0  0
  -24.8813  -20.7193   20.1751 N   0  0  0  0  0  0  0  0  0  0  0  0
  -27.2456  -17.6125   16.6015 N   0  0  0  0  0  0  0  0  0  0  0  0
  -26.2113  -14.0028   16.0596 N   0  0  0  0  0  0  0  0  0  0  0  0
  -22.7339  -20.8738   19.2121 N   0  0  0  0  0  0  0  0  0  0  0  0
  -27.6747  -27.8351   20.2769 N   0  0  0  0  0  0  0  0  0  0  0  0
  -25.3171  -33.1739   23.7983 N   0  0  0  0  0  0  0  0  0  0  0  0
  -22.6089  -35.3682   22.8398 N   0  3  0  0  0  0  0  0  0  0  0  0
  -28.3212  -14.0342   16.9574 O   0  0  0  0  0  0  0  0  0  0  0  0
  -26.8375  -28.1471   22.4273 O   0  0  0  0  0  0  0  0  0  0  0  0
  -27.3771  -31.8734   22.2904 O   0  0  0  0  0  0  0  0  0  0  0  0
  -23.0308  -32.8159   23.9463 O   0  0  0  0  0  0  0  0  0  0  0  0
  -23.7876  -22.7534   20.0715 O   0  0  0  0  0  0  0  0  0  0  0  0
  -25.1297  -10.7004   21.9798 O   0  0  0  0  0  0  0  0  0  0  0  0
  -20.4274  -27.1323   21.2499 O   0  0  0  0  0  0  0  0  0  1  0  0
  -20.7092   -7.7712   20.4690 F   0  0  0  0  0  0  0  0  0  0  0  0
  -24.9071   -9.6883   19.4169 F   0  0  0  0  0  0  0  0  0  0  0  0
  1  2  1  0  0  0  0
  1  6  2  0  0  0  0
  2  7  2  0  0  0  0
  3 10  2  0  0  0  0
  3 18  1  0  0  0  0
  4 11  1  0  0  0  0
  4 18  2  0  0  0  0
  5  9  2  0  0  0  0
  5 19  1  0  0  0  0
  6 21  1  0  0  0  0
  7 23  1  0  0  0  0
  8 12  2  0  0  0  0
  8 22  1  0  0  0  0
  9 25  1  0  0  0  0
 10 27  1  0  0  0  0
 11 27  2  0  0  0  0
 12 28  1  0  0  0  0
 13 14  2  0  0  0  0
 13 29  1  0  0  0  0
 14 30  1  0  0  0  0
 15 19  2  0  0  0  0
 15 26  1  0  0  0  0
 16 24  1  0  0  0  0
 16 28  2  0  0  0  0
 17 30  2  0  0  0  0
 17 31  1  0  0  0  0
 18 32  1  0  0  0  0
 19 34  1  0  0  0  0
 20 32  1  0  0  0  0
 20 33  2  0  0  0  0
 20 36  1  0  0  0  0
 21 23  2  0  0  0  0
 21 41  1  0  0  0  0
 22 24  2  0  0  0  0
 22 42  1  0  0  0  0
 23 50  1  0  0  0  0
 24 43  1  0  0  0  0
 25 26  2  0  0  0  0
 25 53  1  0  0  0  0
 26 70  1  0  0  0  0
 27 79  1  0  0  0  0
 28 80  1  0  0  0  0
 29 31  2  0  0  0  0
 29 79  1  0  0  0  0
 30 81  1  0  0  0  0
 31 82  1  0  0  0  0
 32 64  2  0  0  0  0
 33 65  1  0  0  0  0
 33 68  1  0  0  0  0
 34 35  2  0  0  0  0
 35 59  1  0  0  0  0
 36 69  1  0  0  0  0
 36 74  2  0  0  0  0
 37 51  1  0  0  0  0
 37 71  1  0  0  0  0
 37 75  2  0  0  0  0
 38 61  1  0  0  0  0
 38 66  1  0  0  0  0
 38 76  2  0  0  0  0
 39 62  1  0  0  0  0
 39 72  1  0  0  0  0
 39 77  2  0  0  0  0
 40 67  1  0  0  0  0
 40 70  1  0  0  0  0
 40 78  2  0  0  0  0
 41 44  1  0  0  0  0
 42 51  1  0  0  0  0
 43 66  1  0  0  0  0
 44 46  1  0  0  0  0
 45 47  1  0  0  0  0
 45 48  1  0  0  0  0
 46 50  1  0  0  0  0
 47 52  1  0  0  0  0
 48 67  1  0  0  0  0
 49 52  1  0  0  0  0
 49 67  1  0  0  0  0
 50 71  1  0  0  0  0
 51 66  1  0  0  0  0
 52 65  1  0  0  0  0
 54 62  1  0  0  0  0
 55 63  1  0  0  0  0
 56 63  1  0  0  0  0
 57 63  1  0  0  0  0
 58 73  1  0  0  0  0
 59 60  1  0  0  0  0
 60 80  1  0  0  0  0
 61 63  1  0  0  0  0
 61 72  1  0  0  0  0
 62 73  1  0  0  0  0
 64 65  1  0  0  0  0
M  CHG  1  73   1
M  ISO  4  40 100  60 101  70 100  80 101
M  END
> <Batch ID>
0125

> <Smiles>
CNC(C)C(=O)NC(C(=O)N1Cc2cc([101O:1][101CH2:1]CC=Cc3ccc(C)c([100NH:0][100C:0](=O)N4CCCC(n5nc(-c6ccc(Oc7ccc(F)cc7F)cc6)c(C(N)=O)c5N)C4)c3)ccc2CC1C(=O)NC1CCCc2ccccc21)C(C)(C)C

> <Shape>
0.278

> <Color>
0.087

> <Negative vol penalty>
0.000

$$$$

  -OEChem-04052302093D

 83 91  0     1  0  0  0  0  0999 V2000
  -19.2810  -23.6300   23.6399 C   0  0  0  0  0  0  0  0  0  0  0  0
  -20.4844  -23.7420   22.9509 C   0  0  0  0  0  0  0  0  0  0  0  0
  -24.6950   -8.9195   21.3284 C   0  0  0  0  0  0  0  0  0  0  0  0
  -23.2676  -10.3472   20.0014 C   0  0  0  0  0  0  0  0  0  0  0  0
  -29.0631  -19.8670   15.9738 C   0  0  0  0  0  0  0  0  0  0  0  0
  -18.4779  -24.7545   23.8251 C   0  0  0  0  0  0  0  0  0  0  0  0
  -20.8849  -24.9785   22.4458 C   0  0  0  0  0  0  0  0  0  0  0  0
  -25.7676  -25.9617   23.3609 C   0  0  0  0  0  0  0  0  0  0  0  0
  -29.0329  -18.5225   15.6037 C   0  0  0  0  0  0  0  0  0  0  0  0
  -23.5996   -8.1143   21.6405 C   0  0  0  0  0  0  0  0  0  0  0  0
  -22.1722   -9.5421   20.3134 C   0  0  0  0  0  0  0  0  0  0  0  0
  -26.7074  -25.3325   22.5457 C   0  0  0  0  0  0  0  0  0  0  0  0
  -20.9657   -8.2038   23.7569 C   0  0  0  0  0  0  0  0  0  0  0  0
  -20.8115   -7.8071   25.0851 C   0  0  0  0  0  0  0  0  0  0  0  0
  -28.8439  -19.2332   18.2948 C   0  0  0  0  0  0  0  0  0  0  0  0
  -26.9258  -27.3538   21.2474 C   0  0  0  0  0  0  0  0  0  0  0  0
  -20.9565   -5.4917   24.4104 C   0  0  0  0  0  0  0  0  0  0  0  0
  -24.5290  -10.0360   20.5089 C   0  0  0  0  0  0  0  0  0  0  0  0
  -28.9686  -20.2224   17.3193 C   0  0  0  0  0  0  0  0  0  0  0  0
  -26.5353  -10.7272   19.0931 C   0  0  0  0  0  0  0  0  0  0  0  0
  -18.8733  -26.0073   23.3305 C   0  0  0  0  0  0  0  0  0  0  0  0
  -25.3911  -27.2906   23.1183 C   0  0  0  0  0  0  0  0  0  0  0  0
  -20.0856  -26.1206   22.6235 C   0  0  0  0  0  0  0  0  0  0  0  0
  -25.9829  -27.9985   22.0625 C   0  0  0  0  0  0  0  0  0  0  0  0
  -28.9082  -17.5333   16.5792 C   0  0  0  0  0  0  0  0  0  0  0  0
  -28.8137  -17.8886   17.9248 C   0  0  0  0  0  0  0  0  0  0  0  0
  -22.3382   -8.4256   21.1330 C   0  0  0  0  0  0  0  0  0  0  0  0
  -27.2846  -26.0276   21.4870 C   0  0  0  0  0  0  0  0  0  0  0  0
  -21.1153   -7.2445   22.7553 C   0  0  0  0  0  0  0  0  0  0  0  0
  -20.8069   -6.4511   25.4120 C   0  0  0  0  0  0  0  0  0  0  0  0
  -21.1107   -5.8885   23.0821 C   0  0  0  0  0  0  0  0  0  0  0  0
  -25.6601  -10.8684   20.1866 C   0  0  0  0  0  0  0  0  0  0  0  0
  -27.4320  -11.7578   19.2357 C   0  0  0  0  0  0  0  0  0  0  0  0
  -29.0012  -21.6432   17.7086 C   0  0  0  0  0  0  0  0  0  0  0  0
  -28.5481  -22.1234   18.8751 C   0  0  0  0  0  0  0  0  0  0  0  0
  -26.5375   -9.7519   18.0422 C   0  0  0  0  0  0  0  0  0  0  0  0
  -28.6181  -23.5843   19.1692 C   0  0  0  0  0  0  0  0  0  0  0  0
  -22.6698  -28.7485   22.3615 C   0  0  0  0  0  0  0  0  0  0  0  0
  -24.4487  -31.4311   22.7638 C   0  0  0  0  0  0  0  0  0  0  0  0
  -27.5374  -32.8822   22.7908 C   0  0  0  0  0  0  0  0  0  0  0  0
  -28.5838  -17.0992   20.3061 C   0  0  0  0  0  0  0  0  0  0  0  0
  -17.9492  -27.1850   23.5143 C   0  0  0  0  0  0  0  0  0  0  0  0
  -24.3956  -27.9635   24.0232 C   0  0  0  0  0  0  0  0  0  0  0  0
  -25.6280  -29.4332   21.7723 C   0  0  0  0  0  0  0  0  0  0  0  0
  -18.6246  -28.5326   23.2732 C   0  0  0  0  0  0  0  0  0  0  0  0
  -28.2202  -14.9267   23.1034 C   0  0  0  0  0  0  0  0  0  0  0  0
  -19.4481  -28.4949   21.9897 C   0  0  0  0  0  0  0  0  0  0  0  0
  -27.5937  -13.6656   22.5040 C   0  0  0  0  0  0  0  0  0  0  0  0
  -27.6869  -16.1952   22.4399 C   0  0  0  0  0  0  0  0  0  0  0  0
  -27.1608  -14.9578   20.3756 C   0  0  0  0  0  0  0  0  0  0  0  0
  -20.5662  -27.4495   22.0821 C   0  0  1  0  0  0  0  0  0  0  0  0
  -23.7060  -29.1572   23.3699 C   0  0  1  0  0  0  0  0  0  0  0  0
  -27.7152  -13.6516   20.9675 C   0  0  2  0  0  0  0  0  0  0  0  0
  -28.8773  -16.1010   16.1538 C   0  0  0  0  0  0  0  0  0  0  0  0
  -28.6700  -35.0982   23.1130 C   0  0  0  0  0  0  0  0  0  0  0  0
  -23.5587  -32.2889   19.9741 C   0  0  0  0  0  0  0  0  0  0  0  0
  -25.4163  -33.9674   19.9735 C   0  0  0  0  0  0  0  0  0  0  0  0
  -23.5937  -34.1273   21.6692 C   0  0  0  0  0  0  0  0  0  0  0  0
  -29.0657  -31.8927   25.1240 C   0  0  0  0  0  0  0  0  0  0  0  0
  -28.0753  -24.0045   20.5188 C   0  0  0  0  0  0  0  0  0  1  0  0
  -25.3135  -32.2847   21.8680 C   0  0  1  0  0  0  0  0  0  0  0  0
  -28.2027  -33.8166   23.7851 C   0  0  2  0  0  0  0  0  0  0  0  0
  -24.4760  -33.1394   20.8752 C   0  0  0  0  0  0  0  0  0  0  0  0
  -25.9727  -11.9066   20.9666 N   0  0  0  0  0  0  0  0  0  0  0  0
  -27.0544  -12.4272   20.3624 N   0  0  0  0  0  0  0  0  0  0  0  0
  -24.6449  -30.0453   22.6815 N   0  0  0  0  0  0  0  0  0  0  0  0
  -27.8389  -16.1123   20.9856 N   0  0  0  0  0  0  0  0  0  0  0  0
  -28.4989  -12.1475   18.5061 N   0  0  0  0  0  0  0  0  0  0  0  0
  -25.5448   -8.7625   18.0469 N   0  0  0  0  0  0  0  0  0  0  0  0
  -28.6871  -16.8980   18.9300 N   0  0  0  0  0  0  0  0  0  0  0  0
  -21.6647  -27.9534   22.8782 N   0  0  0  0  0  0  0  0  0  0  0  0
  -26.1714  -33.0657   22.7525 N   0  0  0  0  0  0  0  0  0  0  0  0
  -29.3839  -33.1547   24.4076 N   0  3  0  0  0  0  0  0  0  0  0  0
  -27.4041   -9.7477   17.1353 O   0  0  0  0  0  0  0  0  0  0  0  0
  -29.0856  -24.3893   18.3682 O   0  0  0  0  0  0  0  0  0  0  0  0
  -22.7737  -29.1277   21.2008 O   0  0  0  0  0  0  0  0  0  0  0  0
  -23.6342  -31.9743   23.5142 O   0  0  0  0  0  0  0  0  0  0  0  0
  -28.1670  -32.0732   22.1128 O   0  0  0  0  0  0  0  0  0  0  0  0
  -29.1156  -18.0378   20.9046 O   0  0  0  0  0  0  0  0  0  0  0  0
  -21.2691   -7.6400   21.4371 O   0  0  0  0  0  0  0  0  0  0  0  0
  -28.2017  -25.4156   20.6894 O   0  0  0  0  0  0  0  0  0  1  0  0
  -20.6603   -6.0703   26.6878 F   0  0  0  0  0  0  0  0  0  0  0  0
  -21.2552   -4.9623   22.1244 F   0  0  0  0  0  0  0  0  0  0  0  0
  1  2  1  0  0  0  0
  1  6  2  0  0  0  0
  2  7  2  0  0  0  0
  3 10  2  0  0  0  0
  3 18  1  0  0  0  0
  4 11  1  0  0  0  0
  4 18  2  0  0  0  0
  5  9  2  0  0  0  0
  5 19  1  0  0  0  0
  6 21  1  0  0  0  0
  7 23  1  0  0  0  0
  8 12  2  0  0  0  0
  8 22  1  0  0  0  0
  9 25  1  0  0  0  0
 10 27  1  0  0  0  0
 11 27  2  0  0  0  0
 12 28  1  0  0  0  0
 13 14  2  0  0  0  0
 13 29  1  0  0  0  0
 14 30  1  0  0  0  0
 15 19  2  0  0  0  0
 15 26  1  0  0  0  0
 16 24  1  0  0  0  0
 16 28  2  0  0  0  0
 17 30  2  0  0  0  0
 17 31  1  0  0  0  0
 18 32  1  0  0  0  0
 19 34  1  0  0  0  0
 20 32  1  0  0  0  0
 20 33  2  0  0  0  0
 20 36  1  0  0  0  0
 21 23  2  0  0  0  0
 21 42  1  0  0  0  0
 22 24  2  0  0  0  0
 22 43  1  0  0  0  0
 23 51  1  0  0  0  0
 24 44  1  0  0  0  0
 25 26  2  0  0  0  0
 25 54  1  0  0  0  0
 26 70  1  0  0  0  0
 27 80  1  0  0  0  0
 28 81  1  0  0  0  0
 29 31  2  0  0  0  0
 29 80  1  0  0  0  0
 30 82  1  0  0  0  0
 31 83  1  0  0  0  0
 32 64  2  0  0  0  0
 33 65  1  0  0  0  0
 33 68  1  0  0  0  0
 34 35  2  0  0  0  0
 35 37  1  0  0  0  0
 36 69  1  0  0  0  0
 36 74  2  0  0  0  0
 37 60  1  0  0  0  0
 37 75  2  0  0  0  0
 38 52  1  0  0  0  0
 38 71  1  0  0  0  0
 38 76  2  0  0  0  0
 39 61  1  0  0  0  0
 39 66  1  0  0  0  0
 39 77  2  0  0  0  0
 40 62  1  0  0  0  0
 40 72  1  0  0  0  0
 40 78  2  0  0  0  0
 41 67  1  0  0  0  0
 41 70  1  0  0  0  0
 41 79  2  0  0  0  0
 42 45  1  0  0  0  0
 43 52  1  0  0  0  0
 44 66  1  0  0  0  0
 45 47  1  0  0  0  0
 46 48  1  0  0  0  0
 46 49  1  0  0  0  0
 47 51  1  0  0  0  0
 48 53  1  0  0  0  0
 49 67  1  0  0  0  0
 50 53  1  0  0  0  0
 50 67  1  0  0  0  0
 51 71  1  0  0  0  0
 52 66  1  0  0  0  0
 53 65  1  0  0  0  0
 55 62  1  0  0  0  0
 56 63  1  0  0  0  0
 57 63  1  0  0  0  0
 58 63  1  0  0  0  0
 59 73  1  0  0  0  0
 60 81  1  0  0  0  0
 61 63  1  0  0  0  0
 61 72  1  0  0  0  0
 62 73  1  0  0  0  0
 64 65  1  0  0  0  0
M  CHG  1  73   1
M  ISO  4  41 100  60 101  70 100  81 101
M  END
> <Batch ID>
0125

> <Smiles>
CNC(C)C(=O)NC(C(=O)N1Cc2cc([101O:1][101CH2:1]C(=O)C=Cc3ccc(C)c([100NH:0][100C:0](=O)N4CCCC(n5nc(-c6ccc(Oc7ccc(F)cc7F)cc6)c(C(N)=O)c5N)C4)c3)ccc2CC1C(=O)NC1CCCc2ccccc21)C(C)(C)C

> <Shape>
0.273

> <Color>
0.087

> <Negative vol penalty>
0.000

$$$$

  -OEChem-04052302093D

 84 92  0     1  0  0  0  0  0999 V2000
  -27.2647  -32.9569   19.6365 C   0  0  0  0  0  0  0  0  0  0  0  0
  -28.0949  -31.9160   20.0399 C   0  0  0  0  0  0  0  0  0  0  0  0
  -23.0019   -9.8889   19.9507 C   0  0  0  0  0  0  0  0  0  0  0  0
  -23.7904   -9.8429   22.2340 C   0  0  0  0  0  0  0  0  0  0  0  0
  -25.8825  -32.8389   19.7765 C   0  0  0  0  0  0  0  0  0  0  0  0
  -27.5434  -30.7569   20.5845 C   0  0  0  0  0  0  0  0  0  0  0  0
  -29.6270  -26.5434   18.7003 C   0  0  0  0  0  0  0  0  0  0  0  0
  -22.2442   -8.7423   20.1893 C   0  0  0  0  0  0  0  0  0  0  0  0
  -23.0328   -8.6963   22.4725 C   0  0  0  0  0  0  0  0  0  0  0  0
  -30.8762  -26.1737   19.1970 C   0  0  0  0  0  0  0  0  0  0  0  0
  -23.2675   -5.3811   21.8515 C   0  0  0  0  0  0  0  0  0  0  0  0
  -23.8767   -4.3340   22.5429 C   0  0  0  0  0  0  0  0  0  0  0  0
  -30.3590  -18.8125   23.2223 C   0  0  0  0  0  0  0  0  0  0  0  0
  -29.8168  -24.5601   20.6437 C   0  0  0  0  0  0  0  0  0  0  0  0
  -22.1996   -4.5012   24.2739 C   0  0  0  0  0  0  0  0  0  0  0  0
  -32.3291  -18.3666   21.9668 C   0  0  0  0  0  0  0  0  0  0  0  0
  -23.7750  -10.4391   20.9731 C   0  0  0  0  0  0  0  0  0  0  0  0
  -31.6248  -19.2122   22.8086 C   0  0  0  0  0  0  0  0  0  0  0  0
  -24.1526  -12.9608   20.8944 C   0  0  0  0  0  0  0  0  0  0  0  0
  -25.3132  -31.6738   20.3142 C   0  0  0  0  0  0  0  0  0  0  0  0
  -28.4605  -25.9307   19.1803 C   0  0  0  0  0  0  0  0  0  0  0  0
  -26.1524  -30.6237   20.7330 C   0  0  0  0  0  0  0  0  0  0  0  0
  -28.5542  -24.9220   20.1497 C   0  0  0  0  0  0  0  0  0  0  0  0
  -29.8434  -17.5965   22.7877 C   0  0  0  0  0  0  0  0  0  0  0  0
  -22.2596   -8.1460   21.4502 C   0  0  0  0  0  0  0  0  0  0  0  0
  -30.9710  -25.1840   20.1709 C   0  0  0  0  0  0  0  0  0  0  0  0
  -22.1244   -5.9884   22.3714 C   0  0  0  0  0  0  0  0  0  0  0  0
  -23.3427   -3.8940   23.7540 C   0  0  0  0  0  0  0  0  0  0  0  0
  -21.5904   -5.5484   23.5825 C   0  0  0  0  0  0  0  0  0  0  0  0
  -24.5584  -11.6232   20.7271 C   0  0  0  0  0  0  0  0  0  0  0  0
  -30.6273  -16.8233   21.9466 C   0  0  0  0  0  0  0  0  0  0  0  0
  -25.2511  -13.7008   20.5308 C   0  0  0  0  0  0  0  0  0  0  0  0
  -32.1996  -20.4937   23.2509 C   0  0  0  0  0  0  0  0  0  0  0  0
  -33.2034  -21.1437   22.6414 C   0  0  0  0  0  0  0  0  0  0  0  0
  -22.8953  -13.4873   21.3388 C   0  0  0  0  0  0  0  0  0  0  0  0
  -25.8632  -26.9401   20.7097 C   0  0  0  0  0  0  0  0  0  0  0  0
  -24.8730  -23.8877   20.2357 C   0  0  0  0  0  0  0  0  0  0  0  0
  -25.7055  -20.6256   19.6764 C   0  0  0  0  0  0  0  0  0  0  0  0
  -30.7339  -14.6634   20.6544 C   0  0  0  0  0  0  0  0  0  0  0  0
  -23.8166  -31.6113   20.4895 C   0  0  0  0  0  0  0  0  0  0  0  0
  -27.1227  -26.3220   18.6150 C   0  0  0  0  0  0  0  0  0  0  0  0
  -27.3337  -24.2192   20.6835 C   0  0  0  0  0  0  0  0  0  0  0  0
  -23.2898  -30.1988   20.7296 C   0  0  0  0  0  0  0  0  0  0  0  0
  -29.5544  -12.3097   18.2573 C   0  0  0  0  0  0  0  0  0  0  0  0
  -24.1381  -29.4835   21.7763 C   0  0  0  0  0  0  0  0  0  0  0  0
  -28.1161  -12.0313   18.6999 C   0  0  0  0  0  0  0  0  0  0  0  0
  -30.4878  -12.5032   19.4511 C   0  0  0  0  0  0  0  0  0  0  0  0
  -28.6092  -13.2300   20.8695 C   0  0  0  0  0  0  0  0  0  0  0  0
  -25.5905  -29.3404   21.3054 C   0  0  1  0  0  0  0  0  0  0  0  0
  -25.9607  -25.9930   19.5473 C   0  0  1  0  0  0  0  0  0  0  0  0
  -27.6192  -13.0924   19.7013 C   0  0  2  0  0  0  0  0  0  0  0  0
  -27.4303  -17.3623   22.1483 C   0  0  0  0  0  0  0  0  0  0  0  0
  -24.6805  -18.3554   19.3717 C   0  0  0  0  0  0  0  0  0  0  0  0
  -24.3499  -23.7237   23.2373 C   0  0  0  0  0  0  0  0  0  0  0  0
  -24.2538  -21.2319   23.0139 C   0  0  0  0  0  0  0  0  0  0  0  0
  -22.5943  -22.6550   21.8125 C   0  0  0  0  0  0  0  0  0  0  0  0
  -26.8333  -20.3540   16.9537 C   0  0  0  0  0  0  0  0  0  0  0  0
  -28.4861  -17.1708   23.2343 C   0  0  0  0  0  0  0  0  0  0  0  0
  -33.7552  -22.4540   23.1276 C   0  0  0  0  0  0  0  0  0  0  0  0
  -33.6582  -23.5304   22.0482 C   0  0  0  0  0  0  0  0  0  0  0  0
  -32.2126  -23.8007   21.6544 C   0  0  0  0  0  0  0  0  0  1  0  0
  -24.9895  -22.5942   21.0054 C   0  0  1  0  0  0  0  0  0  0  0  0
  -25.1839  -19.6103   18.6756 C   0  0  2  0  0  0  0  0  0  0  0  0
  -24.0699  -22.5656   22.2588 C   0  0  0  0  0  0  0  0  0  0  0  0
  -31.8613  -17.1781   21.5236 N   0  0  0  0  0  0  0  0  0  0  0  0
  -25.8163  -11.5166   20.2910 N   0  0  0  0  0  0  0  0  0  0  0  0
  -26.2105  -12.7967   20.1811 N   0  0  0  0  0  0  0  0  0  0  0  0
  -26.0479  -24.6414   20.1039 N   0  0  0  0  0  0  0  0  0  0  0  0
  -29.9551  -13.5258   20.3541 N   0  0  0  0  0  0  0  0  0  0  0  0
  -25.4803  -15.0302   20.4792 N   0  0  0  0  0  0  0  0  0  0  0  0
  -21.8743  -12.5870   21.6725 N   0  0  0  0  0  0  0  0  0  0  0  0
  -30.1106  -15.5826   21.4976 N   0  0  0  0  0  0  0  0  0  0  0  0
  -25.7068  -28.2638   20.3453 N   0  0  0  0  0  0  0  0  0  0  0  0
  -24.7284  -21.5247   20.0482 N   0  0  0  0  0  0  0  0  0  0  0  0
  -26.2624  -19.2195   17.7243 N   0  3  0  0  0  0  0  0  0  0  0  0
  -22.6780  -14.7200   21.4214 O   0  0  0  0  0  0  0  0  0  0  0  0
  -25.9237  -26.5021   21.8526 O   0  0  0  0  0  0  0  0  0  0  0  0
  -23.7815  -24.2136   19.7625 O   0  0  0  0  0  0  0  0  0  0  0  0
  -26.8628  -20.6194   20.0900 O   0  0  0  0  0  0  0  0  0  0  0  0
  -31.8595  -14.8242   20.1755 O   0  0  0  0  0  0  0  0  0  0  0  0
  -21.5202   -7.0273   21.6834 O   0  0  0  0  0  0  0  0  0  0  0  0
  -32.1890  -24.8218   20.6578 O   0  0  0  0  0  0  0  0  0  1  0  0
  -23.9270   -2.8874   24.4171 F   0  0  0  0  0  0  0  0  0  0  0  0
  -20.4917   -6.1270   24.0863 F   0  0  0  0  0  0  0  0  0  0  0  0
  1  2  1  0  0  0  0
  1  5  2  0  0  0  0
  2  6  2  0  0  0  0
  3  8  2  0  0  0  0
  3 17  1  0  0  0  0
  4  9  1  0  0  0  0
  4 17  2  0  0  0  0
  5 20  1  0  0  0  0
  6 22  1  0  0  0  0
  7 10  2  0  0  0  0
  7 21  1  0  0  0  0
  8 25  1  0  0  0  0
  9 25  2  0  0  0  0
 10 26  1  0  0  0  0
 11 12  2  0  0  0  0
 11 27  1  0  0  0  0
 12 28  1  0  0  0  0
 13 18  2  0  0  0  0
 13 24  1  0  0  0  0
 14 23  1  0  0  0  0
 14 26  2  0  0  0  0
 15 28  2  0  0  0  0
 15 29  1  0  0  0  0
 16 18  1  0  0  0  0
 16 65  2  0  0  0  0
 17 30  1  0  0  0  0
 18 33  1  0  0  0  0
 19 30  1  0  0  0  0
 19 32  2  0  0  0  0
 19 35  1  0  0  0  0
 20 22  2  0  0  0  0
 20 40  1  0  0  0  0
 21 23  2  0  0  0  0
 21 41  1  0  0  0  0
 22 49  1  0  0  0  0
 23 42  1  0  0  0  0
 24 31  2  0  0  0  0
 24 58  1  0  0  0  0
 25 81  1  0  0  0  0
 26 82  1  0  0  0  0
 27 29  2  0  0  0  0
 27 81  1  0  0  0  0
 28 83  1  0  0  0  0
 29 84  1  0  0  0  0
 30 66  2  0  0  0  0
 31 65  1  0  0  0  0
 31 72  1  0  0  0  0
 32 67  1  0  0  0  0
 32 70  1  0  0  0  0
 33 34  2  0  0  0  0
 34 59  1  0  0  0  0
 35 71  1  0  0  0  0
 35 76  2  0  0  0  0
 36 50  1  0  0  0  0
 36 73  1  0  0  0  0
 36 77  2  0  0  0  0
 37 62  1  0  0  0  0
 37 68  1  0  0  0  0
 37 78  2  0  0  0  0
 38 63  1  0  0  0  0
 38 74  1  0  0  0  0
 38 79  2  0  0  0  0
 39 69  1  0  0  0  0
 39 72  1  0  0  0  0
 39 80  2  0  0  0  0
 40 43  1  0  0  0  0
 41 50  1  0  0  0  0
 42 68  1  0  0  0  0
 43 45  1  0  0  0  0
 44 46  1  0  0  0  0
 44 47  1  0  0  0  0
 45 49  1  0  0  0  0
 46 51  1  0  0  0  0
 47 69  1  0  0  0  0
 48 51  1  0  0  0  0
 48 69  1  0  0  0  0
 49 73  1  0  0  0  0
 50 68  1  0  0  0  0
 51 67  1  0  0  0  0
 52 58  1  0  0  0  0
 53 63  1  0  0  0  0
 54 64  1  0  0  0  0
 55 64  1  0  0  0  0
 56 64  1  0  0  0  0
 57 75  1  0  0  0  0
 59 60  1  0  0  0  0
 60 61  1  0  0  0  0
 61 82  1  0  0  0  0
 62 64  1  0  0  0  0
 62 74  1  0  0  0  0
 63 75  1  0  0  0  0
 66 67  1  0  0  0  0
M  CHG  1  75   1
M  ISO  4  39 100  61 101  72 100  82 101
M  END
> <Batch ID>
0125

> <Smiles>
CCc1cc(C=CCC[101CH2:1][101O:1]c2ccc3c(c2)CN(C(=O)C(NC(=O)C(C)NC)C(C)(C)C)C(C(=O)NC2CCCc4ccccc42)C3)cnc1[100NH:0][100C:0](=O)N1CCCC(n2nc(-c3ccc(Oc4ccc(F)cc4F)cc3)c(C(N)=O)c2N)C1

> <Shape>
0.285

> <Color>
0.219

> <Negative vol penalty>
0.000

$$$$

  -OEChem-04052302093D

 81 89  0     1  0  0  0  0  0999 V2000
  -28.6496  -37.1676   18.8730 C   0  0  0  0  0  0  0  0  0  0  0  0
  -28.8357  -35.8089   18.6390 C   0  0  0  0  0  0  0  0  0  0  0  0
  -24.3433   -9.3490   21.5608 C   0  0  0  0  0  0  0  0  0  0  0  0
  -24.7459  -10.7125   23.5142 C   0  0  0  0  0  0  0  0  0  0  0  0
  -29.1938  -20.6472   18.0936 C   0  0  0  0  0  0  0  0  0  0  0  0
  -28.2052  -37.6045   20.1202 C   0  0  0  0  0  0  0  0  0  0  0  0
  -28.5787  -34.8864   19.6526 C   0  0  0  0  0  0  0  0  0  0  0  0
  -26.3240  -29.2302   18.9974 C   0  0  0  0  0  0  0  0  0  0  0  0
  -29.2161  -19.2740   18.3375 C   0  0  0  0  0  0  0  0  0  0  0  0
  -24.0333   -8.2646   22.3815 C   0  0  0  0  0  0  0  0  0  0  0  0
  -24.4359   -9.6281   24.3350 C   0  0  0  0  0  0  0  0  0  0  0  0
  -26.9329  -27.9766   18.9561 C   0  0  0  0  0  0  0  0  0  0  0  0
  -21.4004   -7.2038   24.2188 C   0  0  0  0  0  0  0  0  0  0  0  0
  -20.2706   -6.4509   23.8989 C   0  0  0  0  0  0  0  0  0  0  0  0
  -27.7706  -20.9662   20.0198 C   0  0  0  0  0  0  0  0  0  0  0  0
  -26.4832  -27.6873   21.3084 C   0  0  0  0  0  0  0  0  0  0  0  0
  -21.6525   -4.4855   23.6443 C   0  0  0  0  0  0  0  0  0  0  0  0
  -24.6997  -10.5729   22.1272 C   0  0  0  0  0  0  0  0  0  0  0  0
  -28.4711  -21.4933   18.9348 C   0  0  0  0  0  0  0  0  0  0  0  0
  -24.1321  -12.6662   20.7842 C   0  0  0  0  0  0  0  0  0  0  0  0
  -27.9333  -36.6862   21.1466 C   0  0  0  0  0  0  0  0  0  0  0  0
  -25.7990  -29.7271   20.1990 C   0  0  0  0  0  0  0  0  0  0  0  0
  -28.1315  -35.3115   20.9151 C   0  0  0  0  0  0  0  0  0  0  0  0
  -25.8659  -28.9463   21.3617 C   0  0  0  0  0  0  0  0  0  0  0  0
  -27.7929  -19.5930   20.2636 C   0  0  0  0  0  0  0  0  0  0  0  0
  -28.5156  -18.7469   19.4224 C   0  0  0  0  0  0  0  0  0  0  0  0
  -24.0795   -8.4042   23.7686 C   0  0  0  0  0  0  0  0  0  0  0  0
  -27.0152  -27.2062   20.1123 C   0  0  0  0  0  0  0  0  0  0  0  0
  -22.6563   -6.5976   24.2513 C   0  0  0  0  0  0  0  0  0  0  0  0
  -20.3967   -5.0918   23.6117 C   0  0  0  0  0  0  0  0  0  0  0  0
  -22.7823   -5.2385   23.9641 C   0  0  0  0  0  0  0  0  0  0  0  0
  -25.0206  -11.6933   21.2799 C   0  0  0  0  0  0  0  0  0  0  0  0
  -24.9229  -13.5046   20.0370 C   0  0  0  0  0  0  0  0  0  0  0  0
  -28.4481  -22.9428   18.6769 C   0  0  0  0  0  0  0  0  0  0  0  0
  -27.5262  -23.7980   19.1459 C   0  0  0  0  0  0  0  0  0  0  0  0
  -22.7183  -12.8002   20.9815 C   0  0  0  0  0  0  0  0  0  0  0  0
  -26.4097  -32.2430   22.0432 C   0  0  0  0  0  0  0  0  0  0  0  0
  -23.8019  -31.1973   23.6643 C   0  0  0  0  0  0  0  0  0  0  0  0
  -21.7404  -28.5995   24.4695 C   0  0  0  0  0  0  0  0  0  0  0  0
  -29.5857  -16.4676   19.3430 C   0  0  0  0  0  0  0  0  0  0  0  0
  -27.5001  -37.2095   22.4930 C   0  0  0  0  0  0  0  0  0  0  0  0
  -25.1215  -31.0699   20.2211 C   0  0  0  0  0  0  0  0  0  0  0  0
  -25.2996  -29.4256   22.6725 C   0  0  0  0  0  0  0  0  0  0  0  0
  -26.8918  -36.1392   23.3956 C   0  0  0  0  0  0  0  0  0  0  0  0
  -29.7221  -13.0096   18.5060 C   0  0  0  0  0  0  0  0  0  0  0  0
  -27.7549  -34.8815   23.3888 C   0  0  0  0  0  0  0  0  0  0  0  0
  -28.4380  -12.4389   19.1122 C   0  0  0  0  0  0  0  0  0  0  0  0
  -30.3312  -14.0976   19.3886 C   0  0  0  0  0  0  0  0  0  0  0  0
  -28.1291  -14.6111   20.3664 C   0  0  0  0  0  0  0  0  0  0  0  0
  -27.8397  -34.2782   21.9816 C   0  0  1  0  0  0  0  0  0  0  0  0
  -25.0788  -31.6948   21.6121 C   0  0  1  0  0  0  0  0  0  0  0  0
  -27.4437  -13.5572   19.4815 C   0  0  2  0  0  0  0  0  0  0  0  0
  -27.0335  -19.0555   21.4330 C   0  0  0  0  0  0  0  0  0  0  0  0
  -19.7170  -28.0439   25.8459 C   0  0  0  0  0  0  0  0  0  0  0  0
  -25.5140  -31.2294   26.1897 C   0  0  0  0  0  0  0  0  0  0  0  0
  -23.7822  -29.8010   27.2981 C   0  0  0  0  0  0  0  0  0  0  0  0
  -23.1850  -32.0868   26.4974 C   0  0  0  0  0  0  0  0  0  0  0  0
  -20.1901  -27.8000   22.0786 C   0  0  0  0  0  0  0  0  0  0  0  0
  -27.5367  -25.2625   18.8450 C   0  0  0  0  0  0  0  0  0  1  0  0
  -23.5672  -30.2430   24.8103 C   0  0  1  0  0  0  0  0  0  0  0  0
  -20.2271  -28.4808   24.4815 C   0  0  2  0  0  0  0  0  0  0  0  0
  -24.0246  -30.8316   26.1748 C   0  0  0  0  0  0  0  0  0  0  0  0
  -26.2795  -11.8937   20.8811 N   0  0  0  0  0  0  0  0  0  0  0  0
  -26.1877  -13.0022   20.1268 N   0  0  0  0  0  0  0  0  0  0  0  0
  -24.6525  -30.7478   22.6444 N   0  0  0  0  0  0  0  0  0  0  0  0
  -29.3328  -15.1246   19.6939 N   0  0  0  0  0  0  0  0  0  0  0  0
  -24.6527  -14.6151   19.3185 N   0  0  0  0  0  0  0  0  0  0  0  0
  -22.0620  -11.8518   21.7778 N   0  0  0  0  0  0  0  0  0  0  0  0
  -28.5508  -17.3493   19.6532 N   0  0  0  0  0  0  0  0  0  0  0  0
  -26.6260  -33.5551   21.6677 N   0  0  0  0  0  0  0  0  0  0  0  0
  -22.1545  -29.8826   24.7584 N   0  0  0  0  0  0  0  0  0  0  0  0
  -19.7777  -27.4828   23.4701 N   0  3  0  0  0  0  0  0  0  0  0  0
  -22.0538  -13.7239   20.4535 O   0  0  0  0  0  0  0  0  0  0  0  0
  -27.1826  -31.5289   22.6713 O   0  0  0  0  0  0  0  0  0  0  0  0
  -23.2453  -32.2981   23.6703 O   0  0  0  0  0  0  0  0  0  0  0  0
  -22.4813  -27.6481   24.2315 O   0  0  0  0  0  0  0  0  0  0  0  0
  -30.6311  -16.8060   18.7822 O   0  0  0  0  0  0  0  0  0  0  0  0
  -23.7768   -7.3463   24.5698 O   0  0  0  0  0  0  0  0  0  0  0  0
  -27.6096  -25.9826   20.0748 O   0  0  0  0  0  0  0  0  0  1  0  0
  -19.3115   -4.3685   23.3061 F   0  0  0  0  0  0  0  0  0  0  0  0
  -23.9860   -4.6503   23.9950 F   0  0  0  0  0  0  0  0  0  0  0  0
  1  2  1  0  0  0  0
  1  6  2  0  0  0  0
  2  7  2  0  0  0  0
  3 10  2  0  0  0  0
  3 18  1  0  0  0  0
  4 11  1  0  0  0  0
  4 18  2  0  0  0  0
  5  9  2  0  0  0  0
  5 19  1  0  0  0  0
  6 21  1  0  0  0  0
  7 23  1  0  0  0  0
  8 12  2  0  0  0  0
  8 22  1  0  0  0  0
  9 26  1  0  0  0  0
 10 27  1  0  0  0  0
 11 27  2  0  0  0  0
 12 28  1  0  0  0  0
 13 14  2  0  0  0  0
 13 29  1  0  0  0  0
 14 30  1  0  0  0  0
 15 19  2  0  0  0  0
 15 25  1  0  0  0  0
 16 24  1  0  0  0  0
 16 28  2  0  0  0  0
 17 30  2  0  0  0  0
 17 31  1  0  0  0  0
 18 32  1  0  0  0  0
 19 34  1  0  0  0  0
 20 32  1  0  0  0  0
 20 33  2  0  0  0  0
 20 36  1  0  0  0  0
 21 23  2  0  0  0  0
 21 41  1  0  0  0  0
 22 24  2  0  0  0  0
 22 42  1  0  0  0  0
 23 50  1  0  0  0  0
 24 43  1  0  0  0  0
 25 26  2  0  0  0  0
 25 53  1  0  0  0  0
 26 69  1  0  0  0  0
 27 78  1  0  0  0  0
 28 79  1  0  0  0  0
 29 31  2  0  0  0  0
 29 78  1  0  0  0  0
 30 80  1  0  0  0  0
 31 81  1  0  0  0  0
 32 63  2  0  0  0  0
 33 64  1  0  0  0  0
 33 67  1  0  0  0  0
 34 35  2  0  0  0  0
 35 59  1  0  0  0  0
 36 68  1  0  0  0  0
 36 73  2  0  0  0  0
 37 51  1  0  0  0  0
 37 70  1  0  0  0  0
 37 74  2  0  0  0  0
 38 60  1  0  0  0  0
 38 65  1  0  0  0  0
 38 75  2  0  0  0  0
 39 61  1  0  0  0  0
 39 71  1  0  0  0  0
 39 76  2  0  0  0  0
 40 66  1  0  0  0  0
 40 69  1  0  0  0  0
 40 77  2  0  0  0  0
 41 44  1  0  0  0  0
 42 51  1  0  0  0  0
 43 65  1  0  0  0  0
 44 46  1  0  0  0  0
 45 47  1  0  0  0  0
 45 48  1  0  0  0  0
 46 50  1  0  0  0  0
 47 52  1  0  0  0  0
 48 66  1  0  0  0  0
 49 52  1  0  0  0  0
 49 66  1  0  0  0  0
 50 70  1  0  0  0  0
 51 65  1  0  0  0  0
 52 64  1  0  0  0  0
 54 61  1  0  0  0  0
 55 62  1  0  0  0  0
 56 62  1  0  0  0  0
 57 62  1  0  0  0  0
 58 72  1  0  0  0  0
 59 79  1  0  0  0  0
 60 62  1  0  0  0  0
 60 71  1  0  0  0  0
 61 72  1  0  0  0  0
 63 64  1  0  0  0  0
M  CHG  1  72   1
M  ISO  4  40 100  59 101  69 100  79 101
M  END
> <Batch ID>
0125

> <Smiles>
CNC(C)C(=O)NC(C(=O)N1Cc2cc([101O:1][101CH2:1]C=Cc3ccc([100NH:0][100C:0](=O)N4CCCC(n5nc(-c6ccc(Oc7ccc(F)cc7F)cc6)c(C(N)=O)c5N)C4)c(C)c3)ccc2CC1C(=O)NC1CCCc2ccccc21)C(C)(C)C

> <Shape>
0.304

> <Color>
0.137

> <Negative vol penalty>
0.000

$$$$

  -OEChem-04052302093D

 84 92  0     1  0  0  0  0  0999 V2000
  -15.9134  -26.2681   21.8921 C   0  0  0  0  0  0  0  0  0  0  0  0
  -16.6716  -25.1388   21.6003 C   0  0  0  0  0  0  0  0  0  0  0  0
  -29.3569  -23.5513   20.4535 C   0  0  0  0  0  0  0  0  0  0  0  0
  -29.7384  -22.8373   18.1771 C   0  0  0  0  0  0  0  0  0  0  0  0
  -16.5422  -27.4381   22.3159 C   0  0  0  0  0  0  0  0  0  0  0  0
  -18.0593  -25.1792   21.7311 C   0  0  0  0  0  0  0  0  0  0  0  0
  -19.9116  -21.0797   24.0565 C   0  0  0  0  0  0  0  0  0  0  0  0
  -29.9607  -24.7764   20.1704 C   0  0  0  0  0  0  0  0  0  0  0  0
  -30.3422  -24.0625   17.8941 C   0  0  0  0  0  0  0  0  0  0  0  0
  -20.0241  -19.9145   23.2993 C   0  0  0  0  0  0  0  0  0  0  0  0
  -33.0983  -25.9895   19.8418 C   0  0  0  0  0  0  0  0  0  0  0  0
  -34.0167  -26.4874   20.7660 C   0  0  0  0  0  0  0  0  0  0  0  0
  -22.3772  -20.3484   22.9924 C   0  0  0  0  0  0  0  0  0  0  0  0
  -25.0293  -13.6587   19.6646 C   0  0  0  0  0  0  0  0  0  0  0  0
  -26.3792  -11.9121   20.6464 C   0  0  0  0  0  0  0  0  0  0  0  0
  -24.1554  -12.3381   21.4893 C   0  0  0  0  0  0  0  0  0  0  0  0
  -32.6455  -28.4534   21.0694 C   0  0  0  0  0  0  0  0  0  0  0  0
  -29.2458  -22.5817   19.4569 C   0  0  0  0  0  0  0  0  0  0  0  0
  -27.2589  -20.9903   19.6221 C   0  0  0  0  0  0  0  0  0  0  0  0
  -17.9374  -27.4900   22.4612 C   0  0  0  0  0  0  0  0  0  0  0  0
  -21.0306  -21.8951   24.2786 C   0  0  0  0  0  0  0  0  0  0  0  0
  -18.7075  -26.3514   22.1559 C   0  0  0  0  0  0  0  0  0  0  0  0
  -22.2767  -21.5221   23.7549 C   0  0  0  0  0  0  0  0  0  0  0  0
  -26.2205  -12.9346   19.7110 C   0  0  0  0  0  0  0  0  0  0  0  0
  -23.9968  -13.3605   20.5538 C   0  0  0  0  0  0  0  0  0  0  0  0
  -30.4533  -25.0320   18.8907 C   0  0  0  0  0  0  0  0  0  0  0  0
  -21.2564  -19.5502   22.7647 C   0  0  0  0  0  0  0  0  0  0  0  0
  -31.9535  -26.7235   19.5313 C   0  0  0  0  0  0  0  0  0  0  0  0
  -33.7903  -27.7193   21.3798 C   0  0  0  0  0  0  0  0  0  0  0  0
  -25.3466  -11.6139   21.5356 C   0  0  0  0  0  0  0  0  0  0  0  0
  -31.7271  -27.9554   20.1451 C   0  0  0  0  0  0  0  0  0  0  0  0
  -28.6227  -21.3158   19.7488 C   0  0  0  0  0  0  0  0  0  0  0  0
  -27.1808  -19.6779   20.0198 C   0  0  0  0  0  0  0  0  0  0  0  0
  -22.3985  -16.2862   21.8004 C   0  0  0  0  0  0  0  0  0  0  0  0
  -22.9354  -15.6185   20.7678 C   0  0  0  0  0  0  0  0  0  0  0  0
  -26.1610  -21.8016   19.1841 C   0  0  0  0  0  0  0  0  0  0  0  0
  -21.8009  -24.8928   23.5546 C   0  0  0  0  0  0  0  0  0  0  0  0
  -24.4046  -24.2531   25.3803 C   0  0  0  0  0  0  0  0  0  0  0  0
  -26.5239  -21.9193   26.6877 C   0  0  0  0  0  0  0  0  0  0  0  0
  -29.1357  -14.4510   19.9634 C   0  0  0  0  0  0  0  0  0  0  0  0
  -18.5761  -28.7915   22.8769 C   0  0  0  0  0  0  0  0  0  0  0  0
  -20.8982  -23.1348   25.1200 C   0  0  0  0  0  0  0  0  0  0  0  0
  -23.5128  -22.3524   23.9813 C   0  0  0  0  0  0  0  0  0  0  0  0
  -20.0195  -28.6380   23.3496 C   0  0  0  0  0  0  0  0  0  0  0  0
  -30.5965  -16.7166   22.2892 C   0  0  0  0  0  0  0  0  0  0  0  0
  -20.8075  -27.7601   22.3825 C   0  0  0  0  0  0  0  0  0  0  0  0
  -30.1059  -18.0879   21.8215 C   0  0  0  0  0  0  0  0  0  0  0  0
  -30.8780  -15.7861   21.1116 C   0  0  0  0  0  0  0  0  0  0  0  0
  -29.2681  -17.0020   19.6961 C   0  0  0  0  0  0  0  0  0  0  0  0
  -20.2130  -26.3485   22.3094 C   0  0  1  0  0  0  0  0  0  0  0  0
  -21.9961  -24.1594   24.8513 C   0  0  1  0  0  0  0  0  0  0  0  0
  -28.9176  -17.9569   20.8500 C   0  0  2  0  0  0  0  0  0  0  0  0
  -21.9505  -13.9590   19.1785 C   0  0  0  0  0  0  0  0  0  0  0  0
  -28.5804  -21.7026   28.1094 C   0  0  0  0  0  0  0  0  0  0  0  0
  -26.1220  -25.1742   23.0325 C   0  0  0  0  0  0  0  0  0  0  0  0
  -28.0836  -24.0635   24.1218 C   0  0  0  0  0  0  0  0  0  0  0  0
  -26.9195  -25.9450   25.2740 C   0  0  0  0  0  0  0  0  0  0  0  0
  -25.0886  -20.3224   28.7244 C   0  0  0  0  0  0  0  0  0  0  0  0
  -27.3248  -13.2538   18.7607 C   0  0  0  0  0  0  0  0  0  0  0  0
  -22.6265  -17.7400   22.0560 C   0  0  0  0  0  0  0  0  0  1  0  0
  -22.6984  -14.1497   20.5037 C   0  0  1  0  0  0  0  0  0  0  0  0
  -25.7818  -23.6925   25.1193 C   0  0  1  0  0  0  0  0  0  0  0  0
  -27.0598  -21.7208   28.0941 C   0  0  2  0  0  0  0  0  0  0  0  0
  -26.7032  -24.7039   24.3808 C   0  0  0  0  0  0  0  0  0  0  0  0
  -29.3580  -20.2927   20.1924 N   0  0  0  0  0  0  0  0  0  0  0  0
  -28.4529  -19.3115   20.3480 N   0  0  0  0  0  0  0  0  0  0  0  0
  -23.3308  -23.5587   24.8054 N   0  0  0  0  0  0  0  0  0  0  0  0
  -29.7112  -15.7044   20.2297 N   0  0  0  0  0  0  0  0  0  0  0  0
  -26.1488  -18.8132   20.1173 N   0  0  0  0  0  0  0  0  0  0  0  0
  -26.4173  -23.1282   18.8118 N   0  0  0  0  0  0  0  0  0  0  0  0
  -20.6024  -25.5754   23.4692 N   0  0  0  0  0  0  0  0  0  0  0  0
  -26.2944  -23.2507   26.4118 N   0  0  0  0  0  0  0  0  0  0  0  0
  -28.0293  -14.4634   19.1229 N   0  0  0  0  0  0  0  0  0  0  0  0
  -26.5686  -20.4319   28.6584 N   0  3  0  0  0  0  0  0  0  0  0  0
  -24.9847  -21.3680   19.1403 O   0  0  0  0  0  0  0  0  0  0  0  0
  -22.6736  -24.8443   22.6957 O   0  0  0  0  0  0  0  0  0  0  0  0
  -24.2855  -25.2655   26.0749 O   0  0  0  0  0  0  0  0  0  0  0  0
  -26.3319  -20.9870   25.9102 O   0  0  0  0  0  0  0  0  0  0  0  0
  -29.5722  -13.3994   20.4436 O   0  0  0  0  0  0  0  0  0  0  0  0
  -31.0423  -26.2275   18.6141 O   0  0  0  0  0  0  0  0  0  0  0  0
  -21.3689  -18.4137   22.0247 O   0  0  0  0  0  0  0  0  0  1  0  0
  -34.6716  -28.1967   22.2685 F   0  0  0  0  0  0  0  0  0  0  0  0
  -25.4996  -10.6327   22.4344 F   0  0  0  0  0  0  0  0  0  0  0  0
  -30.6286  -28.6646   19.8518 F   0  0  0  0  0  0  0  0  0  0  0  0
  1  2  1  0  0  0  0
  1  5  2  0  0  0  0
  2  6  2  0  0  0  0
  3  8  2  0  0  0  0
  3 18  1  0  0  0  0
  4  9  1  0  0  0  0
  4 18  2  0  0  0  0
  5 20  1  0  0  0  0
  6 22  1  0  0  0  0
  7 10  2  0  0  0  0
  7 21  1  0  0  0  0
  8 26  1  0  0  0  0
  9 26  2  0  0  0  0
 10 27  1  0  0  0  0
 11 12  2  0  0  0  0
 11 28  1  0  0  0  0
 12 29  1  0  0  0  0
 13 23  1  0  0  0  0
 13 27  2  0  0  0  0
 14 24  1  0  0  0  0
 14 25  2  0  0  0  0
 15 24  2  0  0  0  0
 15 30  1  0  0  0  0
 16 25  1  0  0  0  0
 16 30  2  0  0  0  0
 17 29  2  0  0  0  0
 17 31  1  0  0  0  0
 18 32  1  0  0  0  0
 19 32  1  0  0  0  0
 19 33  2  0  0  0  0
 19 36  1  0  0  0  0
 20 22  2  0  0  0  0
 20 41  1  0  0  0  0
 21 23  2  0  0  0  0
 21 42  1  0  0  0  0
 22 50  1  0  0  0  0
 23 43  1  0  0  0  0
 24 59  1  0  0  0  0
 25 61  1  0  0  0  0
 26 80  1  0  0  0  0
 27 81  1  0  0  0  0
 28 31  2  0  0  0  0
 28 80  1  0  0  0  0
 29 82  1  0  0  0  0
 30 83  1  0  0  0  0
 31 84  1  0  0  0  0
 32 65  2  0  0  0  0
 33 66  1  0  0  0  0
 33 69  1  0  0  0  0
 34 35  2  0  0  0  0
 34 60  1  0  0  0  0
 35 61  1  0  0  0  0
 36 70  1  0  0  0  0
 36 75  2  0  0  0  0
 37 51  1  0  0  0  0
 37 71  1  0  0  0  0
 37 76  2  0  0  0  0
 38 62  1  0  0  0  0
 38 67  1  0  0  0  0
 38 77  2  0  0  0  0
 39 63  1  0  0  0  0
 39 72  1  0  0  0  0
 39 78  2  0  0  0  0
 40 68  1  0  0  0  0
 40 73  1  0  0  0  0
 40 79  2  0  0  0  0
 41 44  1  0  0  0  0
 42 51  1  0  0  0  0
 43 67  1  0  0  0  0
 44 46  1  0  0  0  0
 45 47  1  0  0  0  0
 45 48  1  0  0  0  0
 46 50  1  0  0  0  0
 47 52  1  0  0  0  0
 48 68  1  0  0  0  0
 49 52  1  0  0  0  0
 49 68  1  0  0  0  0
 50 71  1  0  0  0  0
 51 67  1  0  0  0  0
 52 66  1  0  0  0  0
 53 61  1  0  0  0  0
 54 63  1  0  0  0  0
 55 64  1  0  0  0  0
 56 64  1  0  0  0  0
 57 64  1  0  0  0  0
 58 74  1  0  0  0  0
 59 73  1  0  0  0  0
 60 81  1  0  0  0  0
 62 64  1  0  0  0  0
 62 72  1  0  0  0  0
 63 74  1  0  0  0  0
 65 66  1  0  0  0  0
M  CHG  1  74   1
M  ISO  4  40 100  60 101  73 100  81 101
M  END
> <Batch ID>
0125

> <Smiles>
CNC(C)C(=O)NC(C(=O)N1Cc2cc([101O:1][101CH2:1]C=CC(C)c3cc(F)cc(C[100NH:0][100C:0](=O)N4CCCC(n5nc(-c6ccc(Oc7ccc(F)cc7F)cc6)c(C(N)=O)c5N)C4)c3)ccc2CC1C(=O)NC1CCCc2ccccc21)C(C)(C)C

> <Shape>
0.223

> <Color>
0.060

> <Negative vol penalty>
0.000

$$$$

  -OEChem-04052302093D

 86 95  0     1  0  0  0  0  0999 V2000
  -28.6269  -24.3912   16.7037 C   0  0  0  0  0  0  0  0  0  0  0  0
  -27.4293  -24.5137   17.4009 C   0  0  0  0  0  0  0  0  0  0  0  0
  -27.7411  -13.1083   20.2573 C   0  0  0  0  0  0  0  0  0  0  0  0
  -27.7812  -14.3579   22.3247 C   0  0  0  0  0  0  0  0  0  0  0  0
  -29.7866  -24.9822   17.2034 C   0  0  0  0  0  0  0  0  0  0  0  0
  -27.3909  -25.2265   18.5987 C   0  0  0  0  0  0  0  0  0  0  0  0
  -23.4027  -28.3343   18.8831 C   0  0  0  0  0  0  0  0  0  0  0  0
  -29.0264  -12.6340   20.5190 C   0  0  0  0  0  0  0  0  0  0  0  0
  -29.0666  -13.8836   22.5864 C   0  0  0  0  0  0  0  0  0  0  0  0
  -22.1699  -27.7615   19.1929 C   0  0  0  0  0  0  0  0  0  0  0  0
  -30.4593  -10.2577   22.4511 C   0  0  0  0  0  0  0  0  0  0  0  0
  -30.7026   -8.8993   22.2486 C   0  0  0  0  0  0  0  0  0  0  0  0
  -18.1702  -21.1550   23.5618 C   0  0  0  0  0  0  0  0  0  0  0  0
  -19.7127  -21.2616   21.7055 C   0  0  0  0  0  0  0  0  0  0  0  0
  -22.4211  -28.4745   21.4837 C   0  0  0  0  0  0  0  0  0  0  0  0
  -19.3264  -19.1617   22.8359 C   0  0  0  0  0  0  0  0  0  0  0  0
  -32.3988   -9.4463   20.6174 C   0  0  0  0  0  0  0  0  0  0  0  0
  -27.1185  -13.9703   21.1602 C   0  0  0  0  0  0  0  0  0  0  0  0
  -18.8132  -21.8905   22.5663 C   0  0  0  0  0  0  0  0  0  0  0  0
  -24.5719  -13.8694   21.2717 C   0  0  0  0  0  0  0  0  0  0  0  0
  -29.7604  -25.7108   18.4030 C   0  0  0  0  0  0  0  0  0  0  0  0
  -24.1602  -28.9731   19.8754 C   0  0  0  0  0  0  0  0  0  0  0  0
  -28.5516  -25.8268   19.1156 C   0  0  0  0  0  0  0  0  0  0  0  0
  -23.6619  -29.0569   21.1834 C   0  0  0  0  0  0  0  0  0  0  0  0
  -18.4269  -19.7905   23.6967 C   0  0  0  0  0  0  0  0  0  0  0  0
  -19.9694  -19.8972   21.8403 C   0  0  0  0  0  0  0  0  0  0  0  0
  -29.6892  -13.0216   21.6836 C   0  0  0  0  0  0  0  0  0  0  0  0
  -21.6803  -27.8290   20.4939 C   0  0  0  0  0  0  0  0  0  0  0  0
  -31.1856  -11.2105   21.7367 C   0  0  0  0  0  0  0  0  0  0  0  0
  -31.6724   -8.4936   21.3318 C   0  0  0  0  0  0  0  0  0  0  0  0
  -32.1554  -10.8048   20.8199 C   0  0  0  0  0  0  0  0  0  0  0  0
  -25.7909  -14.4611   20.8901 C   0  0  0  0  0  0  0  0  0  0  0  0
  -23.6098  -14.7169   20.7791 C   0  0  0  0  0  0  0  0  0  0  0  0
  -17.2622  -23.6725   22.1681 C   0  0  0  0  0  0  0  0  0  0  0  0
  -18.5419  -23.3374   22.4232 C   0  0  0  0  0  0  0  0  0  0  0  0
  -19.5725  -24.3838   22.5527 C   0  0  0  0  0  0  0  0  0  0  0  0
  -19.3164  -25.6457   22.1332 C   0  0  0  0  0  0  0  0  0  0  0  0
  -24.3307  -12.6617   22.0058 C   0  0  0  0  0  0  0  0  0  0  0  0
  -27.0252  -28.4947   21.1662 C   0  0  0  0  0  0  0  0  0  0  0  0
  -26.3826  -31.2939   22.6741 C   0  0  0  0  0  0  0  0  0  0  0  0
  -24.0416  -33.5064   23.8017 C   0  0  0  0  0  0  0  0  0  0  0  0
  -21.6070  -19.8419   19.9268 C   0  0  0  0  0  0  0  0  0  0  0  0
  -31.0495  -26.2920   18.9277 C   0  0  0  0  0  0  0  0  0  0  0  0
  -25.4758  -29.6093   19.5192 C   0  0  0  0  0  0  0  0  0  0  0  0
  -24.4270  -29.7491   22.2806 C   0  0  0  0  0  0  0  0  0  0  0  0
  -16.8205  -25.0882   21.9750 C   0  0  0  0  0  0  0  0  0  0  0  0
  -17.9602  -26.0278   21.5773 C   0  0  0  0  0  0  0  0  0  0  0  0
  -30.8452  -27.3470   20.0119 C   0  0  0  0  0  0  0  0  0  0  0  0
  -23.9841  -18.6180   17.5755 C   0  0  0  0  0  0  0  0  0  0  0  0
  -29.8355  -26.8605   21.0466 C   0  0  0  0  0  0  0  0  0  0  0  0
  -24.5658  -17.3788   18.2596 C   0  0  0  0  0  0  0  0  0  0  0  0
  -23.6906  -19.7336   18.5770 C   0  0  0  0  0  0  0  0  0  0  0  0
  -23.4381  -18.0995   20.4034 C   0  0  0  0  0  0  0  0  0  0  0  0
  -28.4645  -26.6130   20.4057 C   0  0  1  0  0  0  0  0  0  0  0  0
  -26.3989  -29.7858   20.7209 C   0  0  1  0  0  0  0  0  0  0  0  0
  -23.6895  -16.9251   19.4436 C   0  0  2  0  0  0  0  0  0  0  0  0
  -17.7401  -19.0037   24.7614 C   0  0  0  0  0  0  0  0  0  0  0  0
  -20.8800  -23.9542   23.1705 C   0  0  0  0  0  0  0  0  0  0  0  0
  -23.8189  -35.6838   25.0291 C   0  0  0  0  0  0  0  0  0  0  0  0
  -26.9777  -29.8686   25.3055 C   0  0  0  0  0  0  0  0  0  0  0  0
  -25.8432  -31.7526   26.5021 C   0  0  0  0  0  0  0  0  0  0  0  0
  -27.8913  -32.1913   25.1473 C   0  0  0  0  0  0  0  0  0  0  0  0
  -22.7287  -34.8081   21.4907 C   0  0  0  0  0  0  0  0  0  0  0  0
  -20.3085  -26.7780   22.1279 C   0  0  0  0  0  0  0  0  0  1  0  0
  -25.7127  -31.6807   23.9705 C   0  0  1  0  0  0  0  0  0  0  0  0
  -23.9344  -35.0148   23.6683 C   0  0  2  0  0  0  0  0  0  0  0  0
  -26.5925  -31.3585   25.2113 C   0  0  0  0  0  0  0  0  0  0  0  0
  -25.6216  -15.5967   20.2076 N   0  0  0  0  0  0  0  0  0  0  0  0
  -24.2848  -15.7253   20.1564 N   0  0  0  0  0  0  0  0  0  0  0  0
  -25.7111  -30.3502   21.8839 N   0  0  0  0  0  0  0  0  0  0  0  0
  -22.8525  -19.2315   19.6681 N   0  0  0  0  0  0  0  0  0  0  0  0
  -22.2608  -14.6904   20.8221 N   0  0  0  0  0  0  0  0  0  0  0  0
  -25.4326  -11.9108   22.4374 N   0  0  0  0  0  0  0  0  0  0  0  0
  -20.8839  -19.2584   20.9666 N   0  0  0  0  0  0  0  0  0  0  0  0
  -27.7740  -27.8663   20.1895 N   0  0  0  0  0  0  0  0  0  0  0  0
  -25.3552  -33.0891   23.8409 N   0  0  0  0  0  0  0  0  0  0  0  0
  -22.7355  -35.3796   22.8619 N   0  3  0  0  0  0  0  0  0  0  0  0
  -23.1721  -12.2517   22.2570 O   0  0  0  0  0  0  0  0  0  0  0  0
  -26.8440  -28.0987   22.3117 O   0  0  0  0  0  0  0  0  0  0  0  0
  -27.4583  -31.8154   22.3702 O   0  0  0  0  0  0  0  0  0  0  0  0
  -23.0583  -32.7721   23.8684 O   0  0  0  0  0  0  0  0  0  0  0  0
  -21.1990  -20.7937   19.2563 O   0  0  0  0  0  0  0  0  0  0  0  0
  -30.9433  -12.5588   21.9394 O   0  0  0  0  0  0  0  0  0  0  0  0
  -20.4776  -27.2702   20.7991 O   0  0  0  0  0  0  0  0  0  1  0  0
  -31.9071   -7.1891   21.1386 F   0  0  0  0  0  0  0  0  0  0  0  0
  -32.8572  -11.7155   20.1315 F   0  0  0  0  0  0  0  0  0  0  0  0
  1  2  1  0  0  0  0
  1  5  2  0  0  0  0
  2  6  2  0  0  0  0
  3  8  2  0  0  0  0
  3 18  1  0  0  0  0
  4  9  1  0  0  0  0
  4 18  2  0  0  0  0
  5 21  1  0  0  0  0
  6 23  1  0  0  0  0
  7 10  2  0  0  0  0
  7 22  1  0  0  0  0
  8 27  1  0  0  0  0
  9 27  2  0  0  0  0
 10 28  1  0  0  0  0
 11 12  2  0  0  0  0
 11 29  1  0  0  0  0
 12 30  1  0  0  0  0
 13 19  1  0  0  0  0
 13 25  2  0  0  0  0
 14 19  2  0  0  0  0
 14 26  1  0  0  0  0
 15 24  1  0  0  0  0
 15 28  2  0  0  0  0
 16 25  1  0  0  0  0
 16 26  2  0  0  0  0
 17 30  2  0  0  0  0
 17 31  1  0  0  0  0
 18 32  1  0  0  0  0
 19 35  1  0  0  0  0
 20 32  1  0  0  0  0
 20 33  2  0  0  0  0
 20 38  1  0  0  0  0
 21 23  2  0  0  0  0
 21 43  1  0  0  0  0
 22 24  2  0  0  0  0
 22 44  1  0  0  0  0
 23 54  1  0  0  0  0
 24 45  1  0  0  0  0
 25 57  1  0  0  0  0
 26 74  1  0  0  0  0
 27 83  1  0  0  0  0
 28 84  1  0  0  0  0
 29 31  2  0  0  0  0
 29 83  1  0  0  0  0
 30 85  1  0  0  0  0
 31 86  1  0  0  0  0
 32 68  2  0  0  0  0
 33 69  1  0  0  0  0
 33 72  1  0  0  0  0
 34 35  2  0  0  0  0
 34 46  1  0  0  0  0
 35 36  1  0  0  0  0
 36 37  2  0  0  0  0
 36 58  1  0  0  0  0
 37 47  1  0  0  0  0
 37 64  1  0  0  0  0
 38 73  1  0  0  0  0
 38 78  2  0  0  0  0
 39 55  1  0  0  0  0
 39 75  1  0  0  0  0
 39 79  2  0  0  0  0
 40 65  1  0  0  0  0
 40 70  1  0  0  0  0
 40 80  2  0  0  0  0
 41 66  1  0  0  0  0
 41 76  1  0  0  0  0
 41 81  2  0  0  0  0
 42 71  1  0  0  0  0
 42 74  1  0  0  0  0
 42 82  2  0  0  0  0
 43 48  1  0  0  0  0
 44 55  1  0  0  0  0
 45 70  1  0  0  0  0
 46 47  1  0  0  0  0
 48 50  1  0  0  0  0
 49 51  1  0  0  0  0
 49 52  1  0  0  0  0
 50 54  1  0  0  0  0
 51 56  1  0  0  0  0
 52 71  1  0  0  0  0
 53 56  1  0  0  0  0
 53 71  1  0  0  0  0
 54 75  1  0  0  0  0
 55 70  1  0  0  0  0
 56 69  1  0  0  0  0
 59 66  1  0  0  0  0
 60 67  1  0  0  0  0
 61 67  1  0  0  0  0
 62 67  1  0  0  0  0
 63 77  1  0  0  0  0
 64 84  1  0  0  0  0
 65 67  1  0  0  0  0
 65 76  1  0  0  0  0
 66 77  1  0  0  0  0
 68 69  1  0  0  0  0
M  CHG  1  77   1
M  ISO  4  42 100  64 101  74 100  84 101
M  END
> <Batch ID>
0125

> <Smiles>
CNC(C)C(=O)NC(C(=O)N1Cc2cc([101O:1][101CH2:1]C3=C(C)C(c4cc(C)cc([100NH:0][100C:0](=O)N5CCCC(n6nc(-c7ccc(Oc8ccc(F)cc8F)cc7)c(C(N)=O)c6N)C5)c4)=CCC3)ccc2CC1C(=O)NC1CCCc2ccccc21)C(C)(C)C

> <Shape>
0.261

> <Color>
0.086

> <Negative vol penalty>
0.000

$$$$

  -OEChem-04052302093D

 82 90  0     1  0  0  0  0  0999 V2000
  -34.1814  -35.6614   17.1816 C   0  0  0  0  0  0  0  0  0  0  0  0
  -33.8776  -34.4143   17.7181 C   0  0  0  0  0  0  0  0  0  0  0  0
  -24.1490   -9.5325   22.2012 C   0  0  0  0  0  0  0  0  0  0  0  0
  -24.4548   -8.7451   19.9377 C   0  0  0  0  0  0  0  0  0  0  0  0
  -29.4274  -22.5896   20.6201 C   0  0  0  0  0  0  0  0  0  0  0  0
  -29.1926  -21.2677   20.9982 C   0  0  0  0  0  0  0  0  0  0  0  0
  -33.7405  -36.8198   17.8201 C   0  0  0  0  0  0  0  0  0  0  0  0
  -33.1336  -34.3249   18.8940 C   0  0  0  0  0  0  0  0  0  0  0  0
  -29.5043  -30.8027   18.6337 C   0  0  0  0  0  0  0  0  0  0  0  0
  -23.0710   -8.6616   22.3586 C   0  0  0  0  0  0  0  0  0  0  0  0
  -23.3768   -7.8741   20.0951 C   0  0  0  0  0  0  0  0  0  0  0  0
  -29.8950  -29.4733   18.7883 C   0  0  0  0  0  0  0  0  0  0  0  0
  -22.5966   -5.3685   22.9618 C   0  0  0  0  0  0  0  0  0  0  0  0
  -22.5293   -4.6269   24.1412 C   0  0  0  0  0  0  0  0  0  0  0  0
  -30.9700  -21.8301   18.9228 C   0  0  0  0  0  0  0  0  0  0  0  0
  -29.1603  -29.5309   21.0853 C   0  0  0  0  0  0  0  0  0  0  0  0
  -20.3987   -5.6423   24.6580 C   0  0  0  0  0  0  0  0  0  0  0  0
  -24.8409   -9.5744   20.9907 C   0  0  0  0  0  0  0  0  0  0  0  0
  -30.3160  -22.8708   19.5823 C   0  0  0  0  0  0  0  0  0  0  0  0
  -29.8465  -20.2270   20.3387 C   0  0  0  0  0  0  0  0  0  0  0  0
  -27.3092  -10.2091   21.1024 C   0  0  0  0  0  0  0  0  0  0  0  0
  -32.9825  -36.7443   18.9992 C   0  0  0  0  0  0  0  0  0  0  0  0
  -28.9478  -31.5106   19.7087 C   0  0  0  0  0  0  0  0  0  0  0  0
  -32.6833  -35.4834   19.5496 C   0  0  0  0  0  0  0  0  0  0  0  0
  -28.7610  -30.8684   20.9410 C   0  0  0  0  0  0  0  0  0  0  0  0
  -30.7352  -20.5082   19.3009 C   0  0  0  0  0  0  0  0  0  0  0  0
  -22.6849   -7.8323   21.3055 C   0  0  0  0  0  0  0  0  0  0  0  0
  -29.7256  -28.8381   20.0151 C   0  0  0  0  0  0  0  0  0  0  0  0
  -21.5651   -6.2471   22.6305 C   0  0  0  0  0  0  0  0  0  0  0  0
  -21.4303   -4.7638   24.9893 C   0  0  0  0  0  0  0  0  0  0  0  0
  -20.4662   -6.3840   23.4786 C   0  0  0  0  0  0  0  0  0  0  0  0
  -25.9543  -10.4743   20.8273 C   0  0  0  0  0  0  0  0  0  0  0  0
  -27.9592  -11.3762   20.7833 C   0  0  0  0  0  0  0  0  0  0  0  0
  -30.5639  -24.2667   19.1843 C   0  0  0  0  0  0  0  0  0  0  0  0
  -29.5801  -18.8569   20.7565 C   0  0  0  0  0  0  0  0  0  0  0  0
  -28.3772  -18.2483   20.7165 C   0  0  0  0  0  0  0  0  0  0  0  0
  -29.7549  -25.3034   19.4526 C   0  0  0  0  0  0  0  0  0  0  0  0
  -27.9252   -9.0145   21.6017 C   0  0  0  0  0  0  0  0  0  0  0  0
  -28.2700  -16.8462   21.1675 C   0  0  0  0  0  0  0  0  0  0  0  0
  -29.7768  -34.0963   21.3611 C   0  0  0  0  0  0  0  0  0  0  0  0
  -26.8758  -33.6638   22.7465 C   0  0  0  0  0  0  0  0  0  0  0  0
  -24.3346  -31.5294   23.5425 C   0  0  0  0  0  0  0  0  0  0  0  0
  -32.5684  -38.0252   19.6792 C   0  0  0  0  0  0  0  0  0  0  0  0
  -28.5070  -32.9360   19.5180 C   0  0  0  0  0  0  0  0  0  0  0  0
  -28.1497  -31.5780   22.1205 C   0  0  0  0  0  0  0  0  0  0  0  0
  -31.4660  -37.8346   20.7178 C   0  0  0  0  0  0  0  0  0  0  0  0
  -26.3586  -15.4922   18.3487 C   0  0  0  0  0  0  0  0  0  0  0  0
  -31.7816  -36.6452   21.6192 C   0  0  0  0  0  0  0  0  0  0  0  0
  -26.1565  -14.0475   18.7980 C   0  0  0  0  0  0  0  0  0  0  0  0
  -26.3512  -16.4639   19.5278 C   0  0  0  0  0  0  0  0  0  0  0  0
  -27.1275  -14.6661   21.0462 C   0  0  0  0  0  0  0  0  0  0  0  0
  -31.8574  -35.3447   20.8101 C   0  0  1  0  0  0  0  0  0  0  0  0
  -28.4251  -33.7162   20.8264 C   0  0  1  0  0  0  0  0  0  0  0  0
  -27.1785  -13.6661   19.8806 C   0  0  1  0  0  0  0  0  0  0  0  0
  -31.4543  -19.4184   18.5725 C   0  0  0  0  0  0  0  0  0  0  0  0
  -22.1143  -31.4586   24.7098 C   0  0  0  0  0  0  0  0  0  0  0  0
  -28.2961  -33.7198   25.4464 C   0  0  0  0  0  0  0  0  0  0  0  0
  -26.2429  -32.7163   26.4689 C   0  0  0  0  0  0  0  0  0  0  0  0
  -26.1249  -34.9594   25.3839 C   0  0  0  0  0  0  0  0  0  0  0  0
  -22.9300  -30.7109   21.0695 C   0  0  0  0  0  0  0  0  0  0  0  0
  -30.0426  -26.7038   19.0149 C   0  0  0  0  0  0  0  0  0  1  0  0
  -26.3659  -32.8964   23.9423 C   0  0  1  0  0  0  0  0  0  0  0  0
  -22.8300  -31.6503   23.3817 C   0  0  2  0  0  0  0  0  0  0  0  0
  -26.7708  -33.5600   25.2889 C   0  0  0  0  0  0  0  0  0  0  0  0
  -25.7540  -11.7128   20.3689 N   0  0  0  0  0  0  0  0  0  0  0  0
  -26.9917  -12.2362   20.3536 N   0  0  0  0  0  0  0  0  0  0  0  0
  -27.2943  -16.0458   20.5759 N   0  0  0  0  0  0  0  0  0  0  0  0
  -27.7405  -32.9726   21.8860 N   0  0  0  0  0  0  0  0  0  0  0  0
  -29.2582  -11.7405   20.8313 N   0  0  0  0  0  0  0  0  0  0  0  0
  -27.1106   -7.9078   21.8774 N   0  0  0  0  0  0  0  0  0  0  0  0
  -30.5280  -34.8674   20.4948 N   0  0  0  0  0  0  0  0  0  0  0  0
  -24.9259  -32.7570   23.7541 N   0  0  0  0  0  0  0  0  0  0  0  0
  -22.3273  -30.6245   22.4246 N   0  3  0  0  0  0  0  0  0  0  0  0
  -29.1592   -8.9364   21.8130 O   0  0  0  0  0  0  0  0  0  0  0  0
  -29.0489  -16.4702   22.0453 O   0  0  0  0  0  0  0  0  0  0  0  0
  -30.1128  -33.7193   22.4776 O   0  0  0  0  0  0  0  0  0  0  0  0
  -26.5144  -34.8312   22.5780 O   0  0  0  0  0  0  0  0  0  0  0  0
  -24.9259  -30.4533   23.4897 O   0  0  0  0  0  0  0  0  0  0  0  0
  -21.6331   -6.9821   21.4588 O   0  0  0  0  0  0  0  0  0  0  0  0
  -30.1067  -27.5407   20.1689 O   0  0  0  0  0  0  0  0  0  1  0  0
  -21.3650   -4.0504   26.1211 F   0  0  0  0  0  0  0  0  0  0  0  0
  -19.4715   -7.2255   23.1650 F   0  0  0  0  0  0  0  0  0  0  0  0
  1  2  1  0  0  0  0
  1  7  2  0  0  0  0
  2  8  2  0  0  0  0
  3 10  2  0  0  0  0
  3 18  1  0  0  0  0
  4 11  1  0  0  0  0
  4 18  2  0  0  0  0
  5  6  2  0  0  0  0
  5 19  1  0  0  0  0
  6 20  1  0  0  0  0
  7 22  1  0  0  0  0
  8 24  1  0  0  0  0
  9 12  2  0  0  0  0
  9 23  1  0  0  0  0
 10 27  1  0  0  0  0
 11 27  2  0  0  0  0
 12 28  1  0  0  0  0
 13 14  2  0  0  0  0
 13 29  1  0  0  0  0
 14 30  1  0  0  0  0
 15 19  2  0  0  0  0
 15 26  1  0  0  0  0
 16 25  1  0  0  0  0
 16 28  2  0  0  0  0
 17 30  2  0  0  0  0
 17 31  1  0  0  0  0
 18 32  1  0  0  0  0
 19 34  1  0  0  0  0
 20 26  2  0  0  0  0
 20 35  1  0  0  0  0
 21 32  1  0  0  0  0
 21 33  2  0  0  0  0
 21 38  1  0  0  0  0
 22 24  2  0  0  0  0
 22 43  1  0  0  0  0
 23 25  2  0  0  0  0
 23 44  1  0  0  0  0
 24 52  1  0  0  0  0
 25 45  1  0  0  0  0
 26 55  1  0  0  0  0
 27 79  1  0  0  0  0
 28 80  1  0  0  0  0
 29 31  2  0  0  0  0
 29 79  1  0  0  0  0
 30 81  1  0  0  0  0
 31 82  1  0  0  0  0
 32 65  2  0  0  0  0
 33 66  1  0  0  0  0
 33 69  1  0  0  0  0
 34 37  2  0  0  0  0
 35 36  2  0  0  0  0
 36 39  1  0  0  0  0
 37 61  1  0  0  0  0
 38 70  1  0  0  0  0
 38 74  2  0  0  0  0
 39 67  1  0  0  0  0
 39 75  2  0  0  0  0
 40 53  1  0  0  0  0
 40 71  1  0  0  0  0
 40 76  2  0  0  0  0
 41 62  1  0  0  0  0
 41 68  1  0  0  0  0
 41 77  2  0  0  0  0
 42 63  1  0  0  0  0
 42 72  1  0  0  0  0
 42 78  2  0  0  0  0
 43 46  1  0  0  0  0
 44 53  1  0  0  0  0
 45 68  1  0  0  0  0
 46 48  1  0  0  0  0
 47 49  1  0  0  0  0
 47 50  1  0  0  0  0
 48 52  1  0  0  0  0
 49 54  1  0  0  0  0
 50 67  1  0  0  0  0
 51 54  1  0  0  0  0
 51 67  1  0  0  0  0
 52 71  1  0  0  0  0
 53 68  1  0  0  0  0
 54 66  1  0  0  0  0
 56 63  1  0  0  0  0
 57 64  1  0  0  0  0
 58 64  1  0  0  0  0
 59 64  1  0  0  0  0
 60 73  1  0  0  0  0
 61 80  1  0  0  0  0
 62 64  1  0  0  0  0
 62 72  1  0  0  0  0
 63 73  1  0  0  0  0
 65 66  1  0  0  0  0
M  CHG  1  73   1
M  ISO  4  36 100  39 100  61 101  80 101
M  END
> <Batch ID>
0125

> <Smiles>
CNC(C)C(=O)NC(C(=O)N1Cc2cc([101O:1][101CH2:1]C=Cc3ccc(C=[100CH:0][100C:0](=O)N4CCCC(n5nc(-c6ccc(Oc7ccc(F)cc7F)cc6)c(C(N)=O)c5N)C4)c(C)c3)ccc2CC1C(=O)NC1CCCc2ccccc21)C(C)(C)C

> <Shape>
0.248

> <Color>
0.095

> <Negative vol penalty>
0.000

$$$$

  -OEChem-04052302093D

 80 88  0     1  0  0  0  0  0999 V2000
  -27.7758  -37.7617   18.3861 C   0  0  0  0  0  0  0  0  0  0  0  0
  -28.2305  -36.4478   18.3387 C   0  0  0  0  0  0  0  0  0  0  0  0
  -25.0909   -8.3257   18.6871 C   0  0  0  0  0  0  0  0  0  0  0  0
  -25.6468   -7.6310   20.9333 C   0  0  0  0  0  0  0  0  0  0  0  0
  -26.9255  -38.1672   19.4140 C   0  0  0  0  0  0  0  0  0  0  0  0
  -27.8360  -35.5388   19.3197 C   0  0  0  0  0  0  0  0  0  0  0  0
  -26.7760  -29.5526   18.5797 C   0  0  0  0  0  0  0  0  0  0  0  0
  -25.5785   -7.1161   18.1923 C   0  0  0  0  0  0  0  0  0  0  0  0
  -26.1344   -6.4214   20.4385 C   0  0  0  0  0  0  0  0  0  0  0  0
  -27.5574  -28.4243   18.8250 C   0  0  0  0  0  0  0  0  0  0  0  0
  -27.1948   -3.0023   19.8033 C   0  0  0  0  0  0  0  0  0  0  0  0
  -26.8308   -1.8334   20.4717 C   0  0  0  0  0  0  0  0  0  0  0  0
  -28.6697  -20.0226   20.4423 C   0  0  0  0  0  0  0  0  0  0  0  0
  -28.8868  -21.4275   20.3462 C   0  0  0  0  0  0  0  0  0  0  0  0
  -26.4932  -28.1618   20.9739 C   0  0  0  0  0  0  0  0  0  0  0  0
  -24.5028   -2.3073   20.0325 C   0  0  0  0  0  0  0  0  0  0  0  0
  -25.1251   -8.5831   20.0576 C   0  0  0  0  0  0  0  0  0  0  0  0
  -23.3060  -10.1140   20.9822 C   0  0  0  0  0  0  0  0  0  0  0  0
  -26.5127  -37.2603   20.4027 C   0  0  0  0  0  0  0  0  0  0  0  0
  -25.8535  -30.0011   19.5359 C   0  0  0  0  0  0  0  0  0  0  0  0
  -26.9805  -35.9329   20.3625 C   0  0  0  0  0  0  0  0  0  0  0  0
  -25.6995  -29.2946   20.7372 C   0  0  0  0  0  0  0  0  0  0  0  0
  -26.1002   -6.1640   19.0680 C   0  0  0  0  0  0  0  0  0  0  0  0
  -27.4181  -27.7304   20.0234 C   0  0  0  0  0  0  0  0  0  0  0  0
  -26.2128   -3.8237   19.2495 C   0  0  0  0  0  0  0  0  0  0  0  0
  -25.4848   -1.4859   20.5863 C   0  0  0  0  0  0  0  0  0  0  0  0
  -24.8668   -3.4762   19.3641 C   0  0  0  0  0  0  0  0  0  0  0  0
  -24.6221   -9.8326   20.5693 C   0  0  0  0  0  0  0  0  0  0  0  0
  -27.6824  -19.5917   19.5837 C   0  0  0  0  0  0  0  0  0  0  0  0
  -28.0572  -22.0169   19.4175 C   0  0  0  0  0  0  0  0  0  0  0  0
  -23.3445  -11.4280   21.3800 C   0  0  0  0  0  0  0  0  0  0  0  0
  -27.1900  -18.2828   19.3943 C   0  0  0  0  0  0  0  0  0  0  0  0
  -27.9743  -23.4346   19.0285 C   0  0  0  0  0  0  0  0  0  0  0  0
  -27.5889  -17.1456   20.0576 C   0  0  0  0  0  0  0  0  0  0  0  0
  -28.7108  -24.4259   19.5540 C   0  0  0  0  0  0  0  0  0  0  0  0
  -22.1519   -9.2635   21.0043 C   0  0  0  0  0  0  0  0  0  0  0  0
  -26.9665  -15.8419   19.7516 C   0  0  0  0  0  0  0  0  0  0  0  0
  -25.5029  -32.6617   21.2394 C   0  0  0  0  0  0  0  0  0  0  0  0
  -22.7315  -31.2463   22.1551 C   0  0  0  0  0  0  0  0  0  0  0  0
  -20.9542  -28.3649   22.5854 C   0  0  0  0  0  0  0  0  0  0  0  0
  -25.6305  -37.7570   21.5207 C   0  0  0  0  0  0  0  0  0  0  0  0
  -24.9992  -31.2043   19.2449 C   0  0  0  0  0  0  0  0  0  0  0  0
  -24.7089  -29.7231   21.7878 C   0  0  0  0  0  0  0  0  0  0  0  0
  -24.9597  -36.6364   22.3109 C   0  0  0  0  0  0  0  0  0  0  0  0
  -26.2903  -14.7226   23.1753 C   0  0  0  0  0  0  0  0  0  0  0  0
  -25.9717  -35.5500   22.6607 C   0  0  0  0  0  0  0  0  0  0  0  0
  -25.7045  -13.3363   22.9207 C   0  0  0  0  0  0  0  0  0  0  0  0
  -27.3693  -15.0835   22.1555 C   0  0  0  0  0  0  0  0  0  0  0  0
  -26.3292  -13.5772   20.4852 C   0  0  0  0  0  0  0  0  0  0  0  0
  -26.5550  -34.9111   21.3946 C   0  0  1  0  0  0  0  0  0  0  0  0
  -24.4570  -31.8712   20.5053 C   0  0  1  0  0  0  0  0  0  0  0  0
  -25.2085  -13.2127   21.4713 C   0  0  1  0  0  0  0  0  0  0  0  0
  -18.7296  -27.5235   23.3858 C   0  0  0  0  0  0  0  0  0  0  0  0
  -23.6078  -31.6855   25.0446 C   0  0  0  0  0  0  0  0  0  0  0  0
  -21.8719  -30.0251   25.7501 C   0  0  0  0  0  0  0  0  0  0  0  0
  -21.1864  -32.1348   24.6090 C   0  0  0  0  0  0  0  0  0  0  0  0
  -20.3106  -27.2049   19.9398 C   0  0  0  0  0  0  0  0  0  0  0  0
  -28.5810  -25.8554   19.1356 C   0  0  0  0  0  0  0  0  0  1  0  0
  -22.3244  -30.3157   23.2719 C   0  0  1  0  0  0  0  0  0  0  0  0
  -19.5404  -27.9840   22.1845 C   0  0  2  0  0  0  0  0  0  0  0  0
  -22.2678  -31.0331   24.6501 C   0  0  0  0  0  0  0  0  0  0  0  0
  -25.4371  -10.8835   20.6931 N   0  0  0  0  0  0  0  0  0  0  0  0
  -24.6311  -11.8380   21.1883 N   0  0  0  0  0  0  0  0  0  0  0  0
  -26.8898  -14.9013   20.7772 N   0  0  0  0  0  0  0  0  0  0  0  0
  -23.9011  -30.9093   21.4592 N   0  0  0  0  0  0  0  0  0  0  0  0
  -22.4029  -12.2613   21.8715 N   0  0  0  0  0  0  0  0  0  0  0  0
  -22.2879   -7.9410   20.5608 N   0  0  0  0  0  0  0  0  0  0  0  0
  -25.6128  -33.9741   20.8212 N   0  0  0  0  0  0  0  0  0  0  0  0
  -21.0618  -29.7118   22.8602 N   0  0  0  0  0  0  0  0  0  0  0  0
  -19.5655  -26.8804   21.1834 N   0  3  0  0  0  0  0  0  0  0  0  0
  -21.0294   -9.6693   21.3901 O   0  0  0  0  0  0  0  0  0  0  0  0
  -26.5562  -15.6632   18.6033 O   0  0  0  0  0  0  0  0  0  0  0  0
  -26.1605  -32.1213   22.1211 O   0  0  0  0  0  0  0  0  0  0  0  0
  -22.0334  -32.2320   21.9046 O   0  0  0  0  0  0  0  0  0  0  0  0
  -21.8705  -27.5485   22.6521 O   0  0  0  0  0  0  0  0  0  0  0  0
  -26.5759   -4.9835   18.5855 O   0  0  0  0  0  0  0  0  0  0  0  0
  -28.1801  -26.6292   20.2656 O   0  0  0  0  0  0  0  0  0  1  0  0
  -25.1354   -0.3626   21.2268 F   0  0  0  0  0  0  0  0  0  0  0  0
  -23.9190   -4.2608   18.8331 F   0  0  0  0  0  0  0  0  0  0  0  0
  -27.0219  -20.8782   18.6667 S   0  0  0  0  0  0  0  0  0  0  0  0
  1  2  1  0  0  0  0
  1  5  2  0  0  0  0
  2  6  2  0  0  0  0
  3  8  2  0  0  0  0
  3 17  1  0  0  0  0
  4  9  1  0  0  0  0
  4 17  2  0  0  0  0
  5 19  1  0  0  0  0
  6 21  1  0  0  0  0
  7 10  2  0  0  0  0
  7 20  1  0  0  0  0
  8 23  1  0  0  0  0
  9 23  2  0  0  0  0
 10 24  1  0  0  0  0
 11 12  2  0  0  0  0
 11 25  1  0  0  0  0
 12 26  1  0  0  0  0
 13 14  1  0  0  0  0
 13 29  2  0  0  0  0
 14 30  2  0  0  0  0
 15 22  1  0  0  0  0
 15 24  2  0  0  0  0
 16 26  2  0  0  0  0
 16 27  1  0  0  0  0
 17 28  1  0  0  0  0
 18 28  1  0  0  0  0
 18 31  2  0  0  0  0
 18 36  1  0  0  0  0
 19 21  2  0  0  0  0
 19 41  1  0  0  0  0
 20 22  2  0  0  0  0
 20 42  1  0  0  0  0
 21 50  1  0  0  0  0
 22 43  1  0  0  0  0
 23 76  1  0  0  0  0
 24 77  1  0  0  0  0
 25 27  2  0  0  0  0
 25 76  1  0  0  0  0
 26 78  1  0  0  0  0
 27 79  1  0  0  0  0
 28 62  2  0  0  0  0
 29 32  1  0  0  0  0
 29 80  1  0  0  0  0
 30 33  1  0  0  0  0
 30 80  1  0  0  0  0
 31 63  1  0  0  0  0
 31 66  1  0  0  0  0
 32 34  2  0  0  0  0
 33 35  2  0  0  0  0
 34 37  1  0  0  0  0
 35 58  1  0  0  0  0
 36 67  1  0  0  0  0
 36 71  2  0  0  0  0
 37 64  1  0  0  0  0
 37 72  2  0  0  0  0
 38 51  1  0  0  0  0
 38 68  1  0  0  0  0
 38 73  2  0  0  0  0
 39 59  1  0  0  0  0
 39 65  1  0  0  0  0
 39 74  2  0  0  0  0
 40 60  1  0  0  0  0
 40 69  1  0  0  0  0
 40 75  2  0  0  0  0
 41 44  1  0  0  0  0
 42 51  1  0  0  0  0
 43 65  1  0  0  0  0
 44 46  1  0  0  0  0
 45 47  1  0  0  0  0
 45 48  1  0  0  0  0
 46 50  1  0  0  0  0
 47 52  1  0  0  0  0
 48 64  1  0  0  0  0
 49 52  1  0  0  0  0
 49 64  1  0  0  0  0
 50 68  1  0  0  0  0
 51 65  1  0  0  0  0
 52 63  1  0  0  0  0
 53 60  1  0  0  0  0
 54 61  1  0  0  0  0
 55 61  1  0  0  0  0
 56 61  1  0  0  0  0
 57 70  1  0  0  0  0
 58 77  1  0  0  0  0
 59 61  1  0  0  0  0
 59 69  1  0  0  0  0
 60 70  1  0  0  0  0
 62 63  1  0  0  0  0
M  CHG  1  70   1
M  ISO  4  34 100  37 100  58 101  77 101
M  END
> <Batch ID>
0125

> <Smiles>
CNC(C)C(=O)NC(C(=O)N1Cc2cc([101O:1][101CH2:1]C=Cc3ccc(C=[100CH:0][100C:0](=O)N4CCCC(n5nc(-c6ccc(Oc7ccc(F)cc7F)cc6)c(C(N)=O)c5N)C4)s3)ccc2CC1C(=O)NC1CCCc2ccccc21)C(C)(C)C

> <Shape>
0.230

> <Color>
0.076

> <Negative vol penalty>
0.000

$$$$

  -OEChem-04052302093D

 82 90  0     1  0  0  0  0  0999 V2000
  -23.0902  -31.3659   29.5577 C   0  0  0  0  0  0  0  0  0  0  0  0
  -23.7279  -30.1888   29.1792 C   0  0  0  0  0  0  0  0  0  0  0  0
  -31.8630  -19.3278   19.7083 C   0  0  0  0  0  0  0  0  0  0  0  0
  -23.5654  -10.0101   22.2395 C   0  0  0  0  0  0  0  0  0  0  0  0
  -24.2679  -11.5101   23.9983 C   0  0  0  0  0  0  0  0  0  0  0  0
  -22.2636  -32.0314   28.6534 C   0  0  0  0  0  0  0  0  0  0  0  0
  -23.5384  -29.6759   27.8964 C   0  0  0  0  0  0  0  0  0  0  0  0
  -27.6578  -26.7056   24.4738 C   0  0  0  0  0  0  0  0  0  0  0  0
  -30.9475  -20.3724   19.8360 C   0  0  0  0  0  0  0  0  0  0  0  0
  -31.4095  -18.0159   19.5701 C   0  0  0  0  0  0  0  0  0  0  0  0
  -22.9945   -9.1634   23.1896 C   0  0  0  0  0  0  0  0  0  0  0  0
  -23.6969  -10.6634   24.9484 C   0  0  0  0  0  0  0  0  0  0  0  0
  -27.8774  -25.3494   24.2368 C   0  0  0  0  0  0  0  0  0  0  0  0
  -20.1660   -9.0417   25.0384 C   0  0  0  0  0  0  0  0  0  0  0  0
  -18.8907   -8.5409   24.7773 C   0  0  0  0  0  0  0  0  0  0  0  0
  -26.5725  -25.4978   22.2134 C   0  0  0  0  0  0  0  0  0  0  0  0
  -19.7580   -6.2875   24.8627 C   0  0  0  0  0  0  0  0  0  0  0  0
  -24.2022  -11.1834   22.6438 C   0  0  0  0  0  0  0  0  0  0  0  0
  -24.1707  -13.1310   20.9966 C   0  0  0  0  0  0  0  0  0  0  0  0
  -22.0715  -31.5315   27.3557 C   0  0  0  0  0  0  0  0  0  0  0  0
  -26.8834  -27.4669   23.5865 C   0  0  0  0  0  0  0  0  0  0  0  0
  -22.7074  -30.3346   26.9744 C   0  0  0  0  0  0  0  0  0  0  0  0
  -26.3466  -26.8641   22.4400 C   0  0  0  0  0  0  0  0  0  0  0  0
  -29.5785  -20.1051   19.8258 C   0  0  0  0  0  0  0  0  0  0  0  0
  -29.1250  -18.7933   19.6877 C   0  0  0  0  0  0  0  0  0  0  0  0
  -30.0405  -17.7487   19.5598 C   0  0  0  0  0  0  0  0  0  0  0  0
  -23.0602   -9.4900   24.5440 C   0  0  0  0  0  0  0  0  0  0  0  0
  -27.3324  -24.7446   23.1080 C   0  0  0  0  0  0  0  0  0  0  0  0
  -21.2375   -8.1655   25.2115 C   0  0  0  0  0  0  0  0  0  0  0  0
  -18.6866   -7.1638   24.6895 C   0  0  0  0  0  0  0  0  0  0  0  0
  -21.0334   -6.7884   25.1237 C   0  0  0  0  0  0  0  0  0  0  0  0
  -24.7927  -12.0582   21.6629 C   0  0  0  0  0  0  0  0  0  0  0  0
  -25.1479  -13.6379   20.1752 C   0  0  0  0  0  0  0  0  0  0  0  0
  -22.8297  -13.6253   21.1100 C   0  0  0  0  0  0  0  0  0  0  0  0
  -24.1621  -29.0940   23.8124 C   0  0  0  0  0  0  0  0  0  0  0  0
  -24.9041  -29.9967   20.7864 C   0  0  0  0  0  0  0  0  0  0  0  0
  -26.5798  -29.3231   17.8907 C   0  0  0  0  0  0  0  0  0  0  0  0
  -30.3956  -15.2703   19.2807 C   0  0  0  0  0  0  0  0  0  0  0  0
  -21.1313  -32.2605   26.4288 C   0  0  0  0  0  0  0  0  0  0  0  0
  -26.6780  -28.9348   23.8424 C   0  0  0  0  0  0  0  0  0  0  0  0
  -25.5249  -27.6419   21.4459 C   0  0  0  0  0  0  0  0  0  0  0  0
  -21.2798  -31.8516   24.9655 C   0  0  0  0  0  0  0  0  0  0  0  0
  -29.6987  -11.7950   18.9439 C   0  0  0  0  0  0  0  0  0  0  0  0
  -21.3346  -30.3325   24.8387 C   0  0  0  0  0  0  0  0  0  0  0  0
  -28.3090  -11.6419   19.5665 C   0  0  0  0  0  0  0  0  0  0  0  0
  -30.5448  -12.8241   19.6915 C   0  0  0  0  0  0  0  0  0  0  0  0
  -28.5235  -13.9851   20.4886 C   0  0  0  0  0  0  0  0  0  0  0  0
  -22.5465  -29.7600   25.5836 C   0  0  1  0  0  0  0  0  0  0  0  0
  -25.4449  -29.4967   23.1416 C   0  0  1  0  0  0  0  0  0  0  0  0
  -27.6116  -13.0065   19.7306 C   0  0  2  0  0  0  0  0  0  0  0  0
  -27.1308  -18.2433   18.2709 C   0  0  0  0  0  0  0  0  0  0  0  0
  -26.9627  -30.2257   15.5807 C   0  0  0  0  0  0  0  0  0  0  0  0
  -22.1323  -29.0314   19.9524 C   0  0  0  0  0  0  0  0  0  0  0  0
  -22.9129  -29.0647   17.5738 C   0  0  0  0  0  0  0  0  0  0  0  0
  -22.8509  -31.1803   18.8939 C   0  0  0  0  0  0  0  0  0  0  0  0
  -29.4898  -29.5976   18.3547 C   0  0  0  0  0  0  0  0  0  0  0  0
  -28.6108  -21.2530   19.9657 C   0  0  0  0  0  0  0  0  0  0  0  0
  -27.6552  -18.5115   19.6771 C   0  0  0  0  0  0  0  0  0  0  0  0
  -28.4876  -21.7840   21.3955 C   0  0  0  0  0  0  0  0  0  0  0  0
  -27.5732  -22.9980   21.5120 C   0  0  0  0  0  0  0  0  0  1  0  0
  -24.6212  -29.4501   19.4079 C   0  0  1  0  0  0  0  0  0  0  0  0
  -27.4666  -30.1899   17.0151 C   0  0  2  0  0  0  0  0  0  0  0  0
  -23.1431  -29.6662   18.9766 C   0  0  0  0  0  0  0  0  0  0  0  0
  -26.0663  -11.8923   21.2964 N   0  0  0  0  0  0  0  0  0  0  0  0
  -26.2526  -12.8676   20.3908 N   0  0  0  0  0  0  0  0  0  0  0  0
  -25.3470  -29.0727   21.7435 N   0  0  0  0  0  0  0  0  0  0  0  0
  -29.8219  -14.0927   19.8049 N   0  0  0  0  0  0  0  0  0  0  0  0
  -25.1614  -14.6628   19.2967 N   0  0  0  0  0  0  0  0  0  0  0  0
  -21.9559  -12.9880   22.0015 N   0  0  0  0  0  0  0  0  0  0  0  0
  -29.6021  -16.4088   19.4178 N   0  0  0  0  0  0  0  0  0  0  0  0
  -23.7542  -29.9577   24.8111 N   0  0  0  0  0  0  0  0  0  0  0  0
  -25.5996  -30.0638   18.5167 N   0  0  0  0  0  0  0  0  0  0  0  0
  -28.8614  -29.6652   17.0102 N   0  3  0  0  0  0  0  0  0  0  0  0
  -22.4136  -14.5928   20.4286 O   0  0  0  0  0  0  0  0  0  0  0  0
  -23.5844  -28.0760   23.4498 O   0  0  0  0  0  0  0  0  0  0  0  0
  -24.7451  -31.2004   21.0040 O   0  0  0  0  0  0  0  0  0  0  0  0
  -26.7382  -28.1097   18.0047 O   0  0  0  0  0  0  0  0  0  0  0  0
  -31.4971  -15.2639   18.7251 O   0  0  0  0  0  0  0  0  0  0  0  0
  -22.5029   -8.6642   25.4714 O   0  0  0  0  0  0  0  0  0  0  0  0
  -27.5447  -23.4209   22.8746 O   0  0  0  0  0  0  0  0  0  1  0  0
  -17.4615   -6.6830   24.4403 F   0  0  0  0  0  0  0  0  0  0  0  0
  -22.0586   -5.9416   25.2903 F   0  0  0  0  0  0  0  0  0  0  0  0
  1  2  1  0  0  0  0
  1  6  2  0  0  0  0
  2  7  2  0  0  0  0
  3  9  1  0  0  0  0
  3 10  2  0  0  0  0
  4 11  2  0  0  0  0
  4 18  1  0  0  0  0
  5 12  1  0  0  0  0
  5 18  2  0  0  0  0
  6 20  1  0  0  0  0
  7 22  1  0  0  0  0
  8 13  2  0  0  0  0
  8 21  1  0  0  0  0
  9 24  2  0  0  0  0
 10 26  1  0  0  0  0
 11 27  1  0  0  0  0
 12 27  2  0  0  0  0
 13 28  1  0  0  0  0
 14 15  2  0  0  0  0
 14 29  1  0  0  0  0
 15 30  1  0  0  0  0
 16 23  1  0  0  0  0
 16 28  2  0  0  0  0
 17 30  2  0  0  0  0
 17 31  1  0  0  0  0
 18 32  1  0  0  0  0
 19 32  1  0  0  0  0
 19 33  2  0  0  0  0
 19 34  1  0  0  0  0
 20 22  2  0  0  0  0
 20 39  1  0  0  0  0
 21 23  2  0  0  0  0
 21 40  1  0  0  0  0
 22 48  1  0  0  0  0
 23 41  1  0  0  0  0
 24 25  1  0  0  0  0
 24 57  1  0  0  0  0
 25 26  2  0  0  0  0
 25 58  1  0  0  0  0
 26 70  1  0  0  0  0
 27 79  1  0  0  0  0
 28 80  1  0  0  0  0
 29 31  2  0  0  0  0
 29 79  1  0  0  0  0
 30 81  1  0  0  0  0
 31 82  1  0  0  0  0
 32 64  2  0  0  0  0
 33 65  1  0  0  0  0
 33 68  1  0  0  0  0
 34 69  1  0  0  0  0
 34 74  2  0  0  0  0
 35 49  1  0  0  0  0
 35 71  1  0  0  0  0
 35 75  2  0  0  0  0
 36 61  1  0  0  0  0
 36 66  1  0  0  0  0
 36 76  2  0  0  0  0
 37 62  1  0  0  0  0
 37 72  1  0  0  0  0
 37 77  2  0  0  0  0
 38 67  1  0  0  0  0
 38 70  1  0  0  0  0
 38 78  2  0  0  0  0
 39 42  1  0  0  0  0
 40 49  1  0  0  0  0
 41 66  1  0  0  0  0
 42 44  1  0  0  0  0
 43 45  1  0  0  0  0
 43 46  1  0  0  0  0
 44 48  1  0  0  0  0
 45 50  1  0  0  0  0
 46 67  1  0  0  0  0
 47 50  1  0  0  0  0
 47 67  1  0  0  0  0
 48 71  1  0  0  0  0
 49 66  1  0  0  0  0
 50 65  1  0  0  0  0
 51 58  1  0  0  0  0
 52 62  1  0  0  0  0
 53 63  1  0  0  0  0
 54 63  1  0  0  0  0
 55 63  1  0  0  0  0
 56 73  1  0  0  0  0
 57 59  1  0  0  0  0
 59 60  1  0  0  0  0
 60 80  1  0  0  0  0
 61 63  1  0  0  0  0
 61 72  1  0  0  0  0
 62 73  1  0  0  0  0
 64 65  1  0  0  0  0
M  CHG  1  73   1
M  ISO  4  38 100  60 101  70 100  80 101
M  END
> <Batch ID>
0125

> <Smiles>
CCc1c(CC[101CH2:1][101O:1]c2ccc3c(c2)CN(C(=O)C(NC(=O)C(C)NC)C(C)(C)C)C(C(=O)NC2CCCc4ccccc42)C3)cccc1[100NH:0][100C:0](=O)N1CCCC(n2nc(-c3ccc(Oc4ccc(F)cc4F)cc3)c(C(N)=O)c2N)C1

> <Shape>
0.206

> <Color>
0.110

> <Negative vol penalty>
0.000

$$$$

  -OEChem-04052302093D

 84 92  0     1  0  0  0  0  0999 V2000
  -27.5914  -20.8645   28.4198 C   0  0  0  0  0  0  0  0  0  0  0  0
  -27.3142  -20.9005   27.0570 C   0  0  0  0  0  0  0  0  0  0  0  0
  -23.0453   -9.8774   20.5573 C   0  0  0  0  0  0  0  0  0  0  0  0
  -23.7718  -10.3520   22.8121 C   0  0  0  0  0  0  0  0  0  0  0  0
  -29.1253  -18.1730   18.5121 C   0  0  0  0  0  0  0  0  0  0  0  0
  -29.7998  -17.1812   19.2240 C   0  0  0  0  0  0  0  0  0  0  0  0
  -26.7064  -21.4476   29.3256 C   0  0  0  0  0  0  0  0  0  0  0  0
  -26.1512  -21.5188   26.5993 C   0  0  0  0  0  0  0  0  0  0  0  0
  -26.9807  -24.4847   22.5793 C   0  0  0  0  0  0  0  0  0  0  0  0
  -22.2894   -8.8033   21.0269 C   0  0  0  0  0  0  0  0  0  0  0  0
  -23.0158   -9.2779   23.2817 C   0  0  0  0  0  0  0  0  0  0  0  0
  -27.1244  -23.8562   21.3431 C   0  0  0  0  0  0  0  0  0  0  0  0
  -19.3145   -8.3344   22.5642 C   0  0  0  0  0  0  0  0  0  0  0  0
  -18.0145   -8.1951   22.0782 C   0  0  0  0  0  0  0  0  0  0  0  0
  -27.6667  -18.5384   20.4032 C   0  0  0  0  0  0  0  0  0  0  0  0
  -24.8359  -24.3995   20.8076 C   0  0  0  0  0  0  0  0  0  0  0  0
  -18.5790   -6.0195   21.1920 C   0  0  0  0  0  0  0  0  0  0  0  0
  -23.7866  -10.6517   21.4499 C   0  0  0  0  0  0  0  0  0  0  0  0
  -28.0587  -18.8517   19.1018 C   0  0  0  0  0  0  0  0  0  0  0  0
  -29.4078  -16.8678   20.5254 C   0  0  0  0  0  0  0  0  0  0  0  0
  -24.1489  -13.0969   20.8194 C   0  0  0  0  0  0  0  0  0  0  0  0
  -25.5367  -22.0818   28.8781 C   0  0  0  0  0  0  0  0  0  0  0  0
  -25.7582  -25.0668   22.9439 C   0  0  0  0  0  0  0  0  0  0  0  0
  -25.2490  -22.1098   27.5001 C   0  0  0  0  0  0  0  0  0  0  0  0
  -24.6800  -25.0370   22.0479 C   0  0  0  0  0  0  0  0  0  0  0  0
  -28.3412  -17.5464   21.1151 C   0  0  0  0  0  0  0  0  0  0  0  0
  -22.2746   -8.5036   22.3891 C   0  0  0  0  0  0  0  0  0  0  0  0
  -26.0511  -23.8110   20.4582 C   0  0  0  0  0  0  0  0  0  0  0  0
  -20.2468   -7.3163   22.3640 C   0  0  0  0  0  0  0  0  0  0  0  0
  -17.6467   -7.0376   21.3922 C   0  0  0  0  0  0  0  0  0  0  0  0
  -19.8790   -6.1588   21.6780 C   0  0  0  0  0  0  0  0  0  0  0  0
  -24.5682  -11.7609   20.9653 C   0  0  0  0  0  0  0  0  0  0  0  0
  -25.2517  -13.7511   20.3273 C   0  0  0  0  0  0  0  0  0  0  0  0
  -27.3476  -19.8987   18.3494 C   0  0  0  0  0  0  0  0  0  0  0  0
  -26.1135  -20.3473   18.6273 C   0  0  0  0  0  0  0  0  0  0  0  0
  -30.1300  -15.8280   21.2462 C   0  0  0  0  0  0  0  0  0  0  0  0
  -22.8763  -13.6931   21.1035 C   0  0  0  0  0  0  0  0  0  0  0  0
  -30.7616  -14.6944   20.5327 C   0  0  0  0  0  0  0  0  0  0  0  0
  -23.6405  -24.5709   25.2620 C   0  0  0  0  0  0  0  0  0  0  0  0
  -22.2494  -27.2285   24.0273 C   0  0  0  0  0  0  0  0  0  0  0  0
  -21.8052  -29.2833   21.3390 C   0  0  0  0  0  0  0  0  0  0  0  0
  -24.5867  -22.6568   29.8987 C   0  0  0  0  0  0  0  0  0  0  0  0
  -25.6274  -25.7644   24.2701 C   0  0  0  0  0  0  0  0  0  0  0  0
  -23.3526  -25.6647   22.3833 C   0  0  0  0  0  0  0  0  0  0  0  0
  -23.5632  -23.6202   29.3033 C   0  0  0  0  0  0  0  0  0  0  0  0
  -29.6118  -11.9682   18.5073 C   0  0  0  0  0  0  0  0  0  0  0  0
  -22.9448  -23.0288   28.0405 C   0  0  0  0  0  0  0  0  0  0  0  0
  -28.1748  -11.7565   18.9829 C   0  0  0  0  0  0  0  0  0  0  0  0
  -30.5198  -12.4066   19.6517 C   0  0  0  0  0  0  0  0  0  0  0  0
  -28.5987  -13.4200   20.8480 C   0  0  0  0  0  0  0  0  0  0  0  0
  -24.0101  -22.7929   26.9629 C   0  0  1  0  0  0  0  0  0  0  0  0
  -24.1826  -25.8744   24.7475 C   0  0  1  0  0  0  0  0  0  0  0  0
  -27.6459  -13.0033   19.7140 C   0  0  2  0  0  0  0  0  0  0  0  0
  -28.3769  -18.2737   23.5143 C   0  0  0  0  0  0  0  0  0  0  0  0
  -20.5816  -31.3540   20.6233 C   0  0  0  0  0  0  0  0  0  0  0  0
  -19.6626  -25.6241   23.8161 C   0  0  0  0  0  0  0  0  0  0  0  0
  -18.7826  -27.3796   22.2630 C   0  0  0  0  0  0  0  0  0  0  0  0
  -19.3692  -27.9764   24.6129 C   0  0  0  0  0  0  0  0  0  0  0  0
  -24.3302  -30.7203   20.7748 C   0  0  0  0  0  0  0  0  0  0  0  0
  -27.9019  -17.2304   22.5078 C   0  0  0  0  0  0  0  0  0  0  0  0
  -25.4182  -21.4117   17.8233 C   0  0  0  0  0  0  0  0  0  0  0  0
  -25.0202  -22.6013   18.6891 C   0  0  0  0  0  0  0  0  0  1  0  0
  -21.2188  -27.4968   22.9574 C   0  0  1  0  0  0  0  0  0  0  0  0
  -21.8707  -30.7939   21.2041 C   0  0  2  0  0  0  0  0  0  0  0  0
  -19.7826  -27.1056   23.4065 C   0  0  0  0  0  0  0  0  0  0  0  0
  -25.8382  -11.5758   20.5956 N   0  0  0  0  0  0  0  0  0  0  0  0
  -30.2698  -15.8236   22.5431 N   0  0  0  0  0  0  0  0  0  0  0  0
  -26.2265  -12.8041   20.2125 N   0  0  0  0  0  0  0  0  0  0  0  0
  -29.9707  -13.5693   20.3464 N   0  0  0  0  0  0  0  0  0  0  0  0
  -23.2725  -26.3294   23.6945 N   0  0  0  0  0  0  0  0  0  0  0  0
  -25.4730  -15.0383   19.9858 N   0  0  0  0  0  0  0  0  0  0  0  0
  -21.8528  -12.8770   21.6042 N   0  0  0  0  0  0  0  0  0  0  0  0
  -24.3591  -24.0395   26.3159 N   0  0  0  0  0  0  0  0  0  0  0  0
  -21.3683  -28.9007   22.5896 N   0  0  0  0  0  0  0  0  0  0  0  0
  -22.9977  -31.1858   20.3113 N   0  3  0  0  0  0  0  0  0  0  0  0
  -22.6484  -14.9103   20.9032 O   0  0  0  0  0  0  0  0  0  0  0  0
  -31.9208  -14.8721   20.1820 O   0  0  0  0  0  0  0  0  0  0  0  0
  -22.6433  -24.0840   24.7423 O   0  0  0  0  0  0  0  0  0  0  0  0
  -22.1544  -27.8011   25.1158 O   0  0  0  0  0  0  0  0  0  0  0  0
  -22.1075  -28.5191   20.4251 O   0  0  0  0  0  0  0  0  0  0  0  0
  -21.5368   -7.4558   22.8478 O   0  0  0  0  0  0  0  0  0  0  0  0
  -26.1884  -23.1975   19.2513 O   0  0  0  0  0  0  0  0  0  1  0  0
  -16.3978   -6.9033   20.9269 F   0  0  0  0  0  0  0  0  0  0  0  0
  -20.7699   -5.1768   21.4836 F   0  0  0  0  0  0  0  0  0  0  0  0
  1  2  1  0  0  0  0
  1  7  2  0  0  0  0
  2  8  2  0  0  0  0
  3 10  2  0  0  0  0
  3 18  1  0  0  0  0
  4 11  1  0  0  0  0
  4 18  2  0  0  0  0
  5  6  2  0  0  0  0
  5 19  1  0  0  0  0
  6 20  1  0  0  0  0
  7 22  1  0  0  0  0
  8 24  1  0  0  0  0
  9 12  2  0  0  0  0
  9 23  1  0  0  0  0
 10 27  1  0  0  0  0
 11 27  2  0  0  0  0
 12 28  1  0  0  0  0
 13 14  2  0  0  0  0
 13 29  1  0  0  0  0
 14 30  1  0  0  0  0
 15 19  2  0  0  0  0
 15 26  1  0  0  0  0
 16 25  1  0  0  0  0
 16 28  2  0  0  0  0
 17 30  2  0  0  0  0
 17 31  1  0  0  0  0
 18 32  1  0  0  0  0
 19 34  1  0  0  0  0
 20 26  2  0  0  0  0
 20 36  1  0  0  0  0
 21 32  1  0  0  0  0
 21 33  2  0  0  0  0
 21 37  1  0  0  0  0
 22 24  2  0  0  0  0
 22 42  1  0  0  0  0
 23 25  2  0  0  0  0
 23 43  1  0  0  0  0
 24 51  1  0  0  0  0
 25 44  1  0  0  0  0
 26 60  1  0  0  0  0
 27 81  1  0  0  0  0
 28 82  1  0  0  0  0
 29 31  2  0  0  0  0
 29 81  1  0  0  0  0
 30 83  1  0  0  0  0
 31 84  1  0  0  0  0
 32 66  2  0  0  0  0
 33 68  1  0  0  0  0
 33 71  1  0  0  0  0
 34 35  2  0  0  0  0
 35 61  1  0  0  0  0
 36 38  1  0  0  0  0
 36 67  2  0  0  0  0
 37 72  1  0  0  0  0
 37 76  2  0  0  0  0
 38 69  1  0  0  0  0
 38 77  2  0  0  0  0
 39 52  1  0  0  0  0
 39 73  1  0  0  0  0
 39 78  2  0  0  0  0
 40 63  1  0  0  0  0
 40 70  1  0  0  0  0
 40 79  2  0  0  0  0
 41 64  1  0  0  0  0
 41 74  1  0  0  0  0
 41 80  2  0  0  0  0
 42 45  1  0  0  0  0
 43 52  1  0  0  0  0
 44 70  1  0  0  0  0
 45 47  1  0  0  0  0
 46 48  1  0  0  0  0
 46 49  1  0  0  0  0
 47 51  1  0  0  0  0
 48 53  1  0  0  0  0
 49 69  1  0  0  0  0
 50 53  1  0  0  0  0
 50 69  1  0  0  0  0
 51 73  1  0  0  0  0
 52 70  1  0  0  0  0
 53 68  1  0  0  0  0
 54 60  1  0  0  0  0
 55 64  1  0  0  0  0
 56 65  1  0  0  0  0
 57 65  1  0  0  0  0
 58 65  1  0  0  0  0
 59 75  1  0  0  0  0
 61 62  1  0  0  0  0
 62 82  1  0  0  0  0
 63 65  1  0  0  0  0
 63 74  1  0  0  0  0
 64 75  1  0  0  0  0
 66 68  1  0  0  0  0
M  CHG  1  75   1
M  ISO  4  36 100  38 100  62 101  82 101
M  END
> <Batch ID>
0125

> <Smiles>
CCc1cc(C=CC[101CH2:1][101O:1]c2ccc3c(c2)CN(C(=O)C(NC(=O)C(C)NC)C(C)(C)C)C(C(=O)NC2CCCc4ccccc42)C3)ccc1[100C:0](=N)[100C:0](=O)N1CCCC(n2nc(-c3ccc(Oc4ccc(F)cc4F)cc3)c(C(N)=O)c2N)C1

> <Shape>
0.242

> <Color>
0.179

> <Negative vol penalty>
0.000

$$$$

  -OEChem-04052302093D

 83 91  0     1  0  0  0  0  0999 V2000
  -25.6018  -19.8906   16.5720 C   0  0  0  0  0  0  0  0  0  0  0  0
  -24.9965  -21.0209   17.1119 C   0  0  0  0  0  0  0  0  0  0  0  0
  -24.3813  -15.4728   19.2928 C   0  0  0  0  0  0  0  0  0  0  0  0
  -26.2191  -16.1461   20.7092 C   0  0  0  0  0  0  0  0  0  0  0  0
  -26.8494  -19.4792   17.0389 C   0  0  0  0  0  0  0  0  0  0  0  0
  -25.6381  -21.7399   18.1198 C   0  0  0  0  0  0  0  0  0  0  0  0
  -25.4765  -27.7992   18.9938 C   0  0  0  0  0  0  0  0  0  0  0  0
  -25.2606  -14.7302   18.5049 C   0  0  0  0  0  0  0  0  0  0  0  0
  -27.0984  -15.4035   19.9213 C   0  0  0  0  0  0  0  0  0  0  0  0
  -24.7247  -28.6039   19.8488 C   0  0  0  0  0  0  0  0  0  0  0  0
  -27.9818  -12.1621   19.5556 C   0  0  0  0  0  0  0  0  0  0  0  0
  -28.9184  -11.3622   20.2102 C   0  0  0  0  0  0  0  0  0  0  0  0
  -20.2941  -27.1879   22.6442 C   0  0  0  0  0  0  0  0  0  0  0  0
  -17.9382  -26.8637   22.2186 C   0  0  0  0  0  0  0  0  0  0  0  0
  -18.7713  -29.0577   22.7924 C   0  0  0  0  0  0  0  0  0  0  0  0
  -26.5424  -28.6067   21.4347 C   0  0  0  0  0  0  0  0  0  0  0  0
  -30.7085  -12.5920   19.1517 C   0  0  0  0  0  0  0  0  0  0  0  0
  -24.8605  -16.1808   20.3950 C   0  0  0  0  0  0  0  0  0  0  0  0
  -19.2311  -26.3485   22.3111 C   0  0  0  0  0  0  0  0  0  0  0  0
  -20.0642  -28.5425   22.8849 C   0  0  0  0  0  0  0  0  0  0  0  0
  -22.8396  -16.4688   21.9249 C   0  0  0  0  0  0  0  0  0  0  0  0
  -27.5110  -20.1990   18.0463 C   0  0  0  0  0  0  0  0  0  0  0  0
  -26.7649  -27.3826   19.3582 C   0  0  0  0  0  0  0  0  0  0  0  0
  -26.8951  -21.3369   18.6016 C   0  0  0  0  0  0  0  0  0  0  0  0
  -27.3095  -27.7989   20.5814 C   0  0  0  0  0  0  0  0  0  0  0  0
  -17.7083  -28.2183   22.4592 C   0  0  0  0  0  0  0  0  0  0  0  0
  -26.6192  -14.6955   18.8191 C   0  0  0  0  0  0  0  0  0  0  0  0
  -25.2565  -29.0053   21.0708 C   0  0  0  0  0  0  0  0  0  0  0  0
  -28.4085  -13.1770   18.6990 C   0  0  0  0  0  0  0  0  0  0  0  0
  -30.2817  -11.5772   20.0083 C   0  0  0  0  0  0  0  0  0  0  0  0
  -29.7719  -13.3920   18.4971 C   0  0  0  0  0  0  0  0  0  0  0  0
  -23.9528  -16.9486   21.2091 C   0  0  0  0  0  0  0  0  0  0  0  0
  -22.3138  -17.5842   22.5299 C   0  0  0  0  0  0  0  0  0  0  0  0
  -19.4708  -24.9360   22.0596 C   0  0  0  0  0  0  0  0  0  0  0  0
  -21.1863  -29.4287   23.2360 C   0  0  0  0  0  0  0  0  0  0  0  0
  -20.5521  -24.2399   22.4705 C   0  0  0  0  0  0  0  0  0  0  0  0
  -22.3701  -29.0221   23.7207 C   0  0  0  0  0  0  0  0  0  0  0  0
  -22.3268  -15.1343   22.0333 C   0  0  0  0  0  0  0  0  0  0  0  0
  -20.6461  -22.8029   22.1434 C   0  0  0  0  0  0  0  0  0  0  0  0
  -28.1488  -24.5690   19.8801 C   0  0  0  0  0  0  0  0  0  0  0  0
  -30.8313  -26.3747   20.1371 C   0  0  0  0  0  0  0  0  0  0  0  0
  -32.2205  -29.4223   20.7921 C   0  0  0  0  0  0  0  0  0  0  0  0
  -28.8371  -19.6885   18.5518 C   0  0  0  0  0  0  0  0  0  0  0  0
  -27.5733  -26.5368   18.4129 C   0  0  0  0  0  0  0  0  0  0  0  0
  -28.6958  -27.3956   21.0105 C   0  0  0  0  0  0  0  0  0  0  0  0
  -29.6190  -20.7206   19.3603 C   0  0  0  0  0  0  0  0  0  0  0  0
  -24.1578  -22.2505   23.0349 C   0  0  0  0  0  0  0  0  0  0  0  0
  -28.7091  -21.4033   20.3766 C   0  0  0  0  0  0  0  0  0  0  0  0
  -24.3318  -20.7843   22.6482 C   0  0  0  0  0  0  0  0  0  0  0  0
  -23.1924  -22.9777   22.1001 C   0  0  0  0  0  0  0  0  0  0  0  0
  -22.0375  -20.8447   21.5934 C   0  0  0  0  0  0  0  0  0  0  0  0
  -27.5706  -22.1574   19.6789 C   0  0  1  0  0  0  0  0  0  0  0  0
  -28.6762  -25.7475   19.1116 C   0  0  1  0  0  0  0  0  0  0  0  0
  -22.9683  -20.0820   22.5490 C   0  0  1  0  0  0  0  0  0  0  0  0
  -16.3261  -28.7695   22.3596 C   0  0  0  0  0  0  0  0  0  0  0  0
  -34.4407  -30.5796   20.9620 C   0  0  0  0  0  0  0  0  0  0  0  0
  -31.3084  -25.0564   22.8472 C   0  0  0  0  0  0  0  0  0  0  0  0
  -32.9395  -26.8824   23.3701 C   0  0  0  0  0  0  0  0  0  0  0  0
  -33.3633  -25.3455   21.4515 C   0  0  0  0  0  0  0  0  0  0  0  0
  -31.5391  -31.3007   18.6090 C   0  0  0  0  0  0  0  0  0  0  0  0
  -23.4867  -29.9645   24.0786 C   0  0  0  0  0  0  0  0  0  0  0  0
  -24.7618  -29.6454   23.3072 C   0  0  0  0  0  0  0  0  0  1  0  0
  -31.5379  -27.0849   21.2664 C   0  0  1  0  0  0  0  0  0  0  0  0
  -33.2727  -30.2295   20.0533 C   0  0  2  0  0  0  0  0  0  0  0  0
  -32.2604  -26.0985   22.2268 C   0  0  0  0  0  0  0  0  0  0  0  0
  -24.1248  -18.2661   21.3455 N   0  0  0  0  0  0  0  0  0  0  0  0
  -23.1126  -18.6237   22.1540 N   0  0  0  0  0  0  0  0  0  0  0  0
  -21.9171  -22.2560   21.9759 N   0  0  0  0  0  0  0  0  0  0  0  0
  -29.4444  -26.5630   20.0545 N   0  0  0  0  0  0  0  0  0  0  0  0
  -21.2505  -17.7672   23.3414 N   0  0  0  0  0  0  0  0  0  0  0  0
  -22.8042  -14.3170   23.0670 N   0  0  0  0  0  0  0  0  0  0  0  0
  -28.0522  -23.4091   19.1352 N   0  0  0  0  0  0  0  0  0  0  0  0
  -32.4197  -28.0660   20.6434 N   0  0  0  0  0  0  0  0  0  0  0  0
  -32.6840  -31.4967   19.5352 N   0  3  0  0  0  0  0  0  0  0  0  0
  -21.4827  -14.6746   21.2273 O   0  0  0  0  0  0  0  0  0  0  0  0
  -19.5916  -22.1746   22.0335 O   0  0  0  0  0  0  0  0  0  0  0  0
  -27.8529  -24.7018   21.0619 O   0  0  0  0  0  0  0  0  0  0  0  0
  -31.4868  -25.6843   19.3527 O   0  0  0  0  0  0  0  0  0  0  0  0
  -31.3149  -29.9428   21.4398 O   0  0  0  0  0  0  0  0  0  0  0  0
  -27.4774  -13.9708   18.0505 O   0  0  0  0  0  0  0  0  0  0  0  0
  -24.5246  -29.7902   21.9075 O   0  0  0  0  0  0  0  0  0  1  0  0
  -31.1811  -10.8099   20.6381 F   0  0  0  0  0  0  0  0  0  0  0  0
  -30.1879  -14.3662   17.6763 F   0  0  0  0  0  0  0  0  0  0  0  0
  1  2  1  0  0  0  0
  1  5  2  0  0  0  0
  2  6  2  0  0  0  0
  3  8  2  0  0  0  0
  3 18  1  0  0  0  0
  4  9  1  0  0  0  0
  4 18  2  0  0  0  0
  5 22  1  0  0  0  0
  6 24  1  0  0  0  0
  7 10  2  0  0  0  0
  7 23  1  0  0  0  0
  8 27  1  0  0  0  0
  9 27  2  0  0  0  0
 10 28  1  0  0  0  0
 11 12  2  0  0  0  0
 11 29  1  0  0  0  0
 12 30  1  0  0  0  0
 13 19  1  0  0  0  0
 13 20  2  0  0  0  0
 14 19  2  0  0  0  0
 14 26  1  0  0  0  0
 15 20  1  0  0  0  0
 15 26  2  0  0  0  0
 16 25  1  0  0  0  0
 16 28  2  0  0  0  0
 17 30  2  0  0  0  0
 17 31  1  0  0  0  0
 18 32  1  0  0  0  0
 19 34  1  0  0  0  0
 20 35  1  0  0  0  0
 21 32  1  0  0  0  0
 21 33  2  0  0  0  0
 21 38  1  0  0  0  0
 22 24  2  0  0  0  0
 22 43  1  0  0  0  0
 23 25  2  0  0  0  0
 23 44  1  0  0  0  0
 24 52  1  0  0  0  0
 25 45  1  0  0  0  0
 26 55  1  0  0  0  0
 27 80  1  0  0  0  0
 28 81  1  0  0  0  0
 29 31  2  0  0  0  0
 29 80  1  0  0  0  0
 30 82  1  0  0  0  0
 31 83  1  0  0  0  0
 32 66  2  0  0  0  0
 33 67  1  0  0  0  0
 33 70  1  0  0  0  0
 34 36  2  0  0  0  0
 35 37  2  0  0  0  0
 36 39  1  0  0  0  0
 37 61  1  0  0  0  0
 38 71  1  0  0  0  0
 38 75  2  0  0  0  0
 39 68  1  0  0  0  0
 39 76  2  0  0  0  0
 40 53  1  0  0  0  0
 40 72  1  0  0  0  0
 40 77  2  0  0  0  0
 41 63  1  0  0  0  0
 41 69  1  0  0  0  0
 41 78  2  0  0  0  0
 42 64  1  0  0  0  0
 42 73  1  0  0  0  0
 42 79  2  0  0  0  0
 43 46  1  0  0  0  0
 44 53  1  0  0  0  0
 45 69  1  0  0  0  0
 46 48  1  0  0  0  0
 47 49  1  0  0  0  0
 47 50  1  0  0  0  0
 48 52  1  0  0  0  0
 49 54  1  0  0  0  0
 50 68  1  0  0  0  0
 51 54  1  0  0  0  0
 51 68  1  0  0  0  0
 52 72  1  0  0  0  0
 53 69  1  0  0  0  0
 54 67  1  0  0  0  0
 56 64  1  0  0  0  0
 57 65  1  0  0  0  0
 58 65  1  0  0  0  0
 59 65  1  0  0  0  0
 60 74  1  0  0  0  0
 61 62  1  0  0  0  0
 62 81  1  0  0  0  0
 63 65  1  0  0  0  0
 63 73  1  0  0  0  0
 64 74  1  0  0  0  0
 66 67  1  0  0  0  0
M  CHG  1  74   1
M  ISO  4  36 100  39 100  62 101  81 101
M  END
> <Batch ID>
0125

> <Smiles>
CNC(C)C(=O)NC(C(=O)N1Cc2cc([101O:1][101CH2:1]CC=Cc3cc(C)cc(C=[100CH:0][100C:0](=O)N4CCCC(n5nc(-c6ccc(Oc7ccc(F)cc7F)cc6)c(C(N)=O)c5N)C4)c3)ccc2CC1C(=O)NC1CCCc2ccccc21)C(C)(C)C

> <Shape>
0.230

> <Color>
0.071

> <Negative vol penalty>
0.000

$$$$

  -OEChem-04052302093D

 84 92  0     1  0  0  0  0  0999 V2000
  -31.6643  -32.8133   17.4057 C   0  0  0  0  0  0  0  0  0  0  0  0
  -31.6804  -31.4575   17.7171 C   0  0  0  0  0  0  0  0  0  0  0  0
  -22.5749  -10.2340   20.0133 C   0  0  0  0  0  0  0  0  0  0  0  0
  -24.3944   -9.5723   21.4586 C   0  0  0  0  0  0  0  0  0  0  0  0
  -29.1310  -17.7547   18.9165 C   0  0  0  0  0  0  0  0  0  0  0  0
  -30.8064  -33.6741   18.0889 C   0  0  0  0  0  0  0  0  0  0  0  0
  -30.8393  -30.9619   18.7128 C   0  0  0  0  0  0  0  0  0  0  0  0
  -28.1022  -25.4846   18.8303 C   0  0  0  0  0  0  0  0  0  0  0  0
  -21.9462   -9.0106   20.2448 C   0  0  0  0  0  0  0  0  0  0  0  0
  -23.7657   -8.3489   21.6901 C   0  0  0  0  0  0  0  0  0  0  0  0
  -28.4116  -18.9091   19.2251 C   0  0  0  0  0  0  0  0  0  0  0  0
  -28.4248  -24.2884   19.4695 C   0  0  0  0  0  0  0  0  0  0  0  0
  -21.2337   -7.1725   23.5941 C   0  0  0  0  0  0  0  0  0  0  0  0
  -21.1808   -6.7114   24.9094 C   0  0  0  0  0  0  0  0  0  0  0  0
  -26.9431  -24.8652   21.2836 C   0  0  0  0  0  0  0  0  0  0  0  0
  -28.1785  -18.1535   21.5081 C   0  0  0  0  0  0  0  0  0  0  0  0
  -22.4123   -4.7349   24.2661 C   0  0  0  0  0  0  0  0  0  0  0  0
  -23.7991  -10.5149   20.6202 C   0  0  0  0  0  0  0  0  0  0  0  0
  -29.3741  -16.7996   19.9036 C   0  0  0  0  0  0  0  0  0  0  0  0
  -24.2953  -12.9668   21.1195 C   0  0  0  0  0  0  0  0  0  0  0  0
  -29.9474  -33.1873   19.0868 C   0  0  0  0  0  0  0  0  0  0  0  0
  -27.2045  -26.3867   19.4191 C   0  0  0  0  0  0  0  0  0  0  0  0
  -29.9700  -31.8173   19.4109 C   0  0  0  0  0  0  0  0  0  0  0  0
  -26.6088  -26.0711   20.6486 C   0  0  0  0  0  0  0  0  0  0  0  0
  -28.8979  -16.9990   21.1994 C   0  0  0  0  0  0  0  0  0  0  0  0
  -22.5415   -8.0681   21.0831 C   0  0  0  0  0  0  0  0  0  0  0  0
  -27.8475  -23.9798   20.6978 C   0  0  0  0  0  0  0  0  0  0  0  0
  -27.9353  -19.1086   20.5209 C   0  0  0  0  0  0  0  0  0  0  0  0
  -21.8758   -6.4147   22.6147 C   0  0  0  0  0  0  0  0  0  0  0  0
  -21.7701   -5.4926   25.2455 C   0  0  0  0  0  0  0  0  0  0  0  0
  -22.4652   -5.1960   22.9507 C   0  0  0  0  0  0  0  0  0  0  0  0
  -24.4494  -11.7782   20.3810 C   0  0  0  0  0  0  0  0  0  0  0  0
  -25.1210  -13.8689   20.4943 C   0  0  0  0  0  0  0  0  0  0  0  0
  -30.1273  -15.6031   19.5533 C   0  0  0  0  0  0  0  0  0  0  0  0
  -23.4789  -13.2318   22.2679 C   0  0  0  0  0  0  0  0  0  0  0  0
  -30.0804  -15.0373   18.1855 C   0  0  0  0  0  0  0  0  0  0  0  0
  -27.3953  -29.3838   20.4605 C   0  0  0  0  0  0  0  0  0  0  0  0
  -24.1976  -29.0312   20.8761 C   0  0  0  0  0  0  0  0  0  0  0  0
  -21.5526  -26.9282   21.3539 C   0  0  0  0  0  0  0  0  0  0  0  0
  -29.0716  -34.1641   19.8307 C   0  0  0  0  0  0  0  0  0  0  0  0
  -26.8464  -27.6606   18.7040 C   0  0  0  0  0  0  0  0  0  0  0  0
  -25.6235  -26.9963   21.3132 C   0  0  0  0  0  0  0  0  0  0  0  0
  -27.9431  -33.4970   20.6129 C   0  0  0  0  0  0  0  0  0  0  0  0
  -27.5555  -13.6098   16.0775 C   0  0  0  0  0  0  0  0  0  0  0  0
  -28.4733  -32.3047   21.4029 C   0  0  0  0  0  0  0  0  0  0  0  0
  -26.5290  -13.0692   17.0725 C   0  0  0  0  0  0  0  0  0  0  0  0
  -28.9760  -13.4890   16.6197 C   0  0  0  0  0  0  0  0  0  0  0  0
  -28.1435  -13.6016   18.9528 C   0  0  0  0  0  0  0  0  0  0  0  0
  -29.0547  -31.2377   20.4675 C   0  0  1  0  0  0  0  0  0  0  0  0
  -26.3132  -28.7414   19.6395 C   0  0  1  0  0  0  0  0  0  0  0  0
  -26.6947  -13.7321   18.4516 C   0  0  2  0  0  0  0  0  0  0  0  0
  -30.4870  -15.4270   24.3472 C   0  0  0  0  0  0  0  0  0  0  0  0
  -19.0665  -26.9359   21.6958 C   0  0  0  0  0  0  0  0  0  0  0  0
  -24.5999  -29.9321   23.7634 C   0  0  0  0  0  0  0  0  0  0  0  0
  -22.3271  -29.0238   24.2902 C   0  0  0  0  0  0  0  0  0  0  0  0
  -22.5748  -30.8836   22.6463 C   0  0  0  0  0  0  0  0  0  0  0  0
  -21.0920  -25.3558   18.8893 C   0  0  0  0  0  0  0  0  0  0  0  0
  -29.1451  -15.9927   22.2756 C   0  0  0  0  0  0  0  0  0  0  0  0
  -30.2599  -16.4367   23.2333 C   0  0  0  0  0  0  0  0  0  0  0  0
  -27.1564  -22.2307   22.1535 C   0  0  0  0  0  0  0  0  0  1  0  0
  -27.3297  -20.7243   22.1576 C   0  0  0  0  0  0  0  0  0  0  0  0
  -23.3120  -28.5529   22.0013 C   0  0  1  0  0  0  0  0  0  0  0  0
  -20.1947  -26.8483   20.6798 C   0  0  2  0  0  0  0  0  0  0  0  0
  -23.2235  -29.5813   23.1640 C   0  0  0  0  0  0  0  0  0  0  0  0
  -25.3055  -11.9101   19.3644 N   0  0  0  0  0  0  0  0  0  0  0  0
  -30.8819  -14.9602   20.4012 N   0  0  0  0  0  0  0  0  0  0  0  0
  -25.6968  -13.1922   19.4595 N   0  0  0  0  0  0  0  0  0  0  0  0
  -29.0895  -14.0960   17.9444 N   0  0  0  0  0  0  0  0  0  0  0  0
  -25.3106  -28.2326   20.5775 N   0  0  0  0  0  0  0  0  0  0  0  0
  -25.4035  -15.1670   20.7342 N   0  0  0  0  0  0  0  0  0  0  0  0
  -22.6915  -12.1925   22.7821 N   0  0  0  0  0  0  0  0  0  0  0  0
  -27.9921  -30.4716   19.8524 N   0  0  0  0  0  0  0  0  0  0  0  0
  -22.0262  -28.2225   21.3965 N   0  0  0  0  0  0  0  0  0  0  0  0
  -20.0598  -25.5631   19.9374 N   0  3  0  0  0  0  0  0  0  0  0  0
  -23.4359  -14.3613   22.8118 O   0  0  0  0  0  0  0  0  0  0  0  0
  -30.9261  -15.4629   17.4095 O   0  0  0  0  0  0  0  0  0  0  0  0
  -27.6674  -28.9274   21.5647 O   0  0  0  0  0  0  0  0  0  0  0  0
  -23.9083  -30.0713   20.2793 O   0  0  0  0  0  0  0  0  0  0  0  0
  -22.1332  -25.9417   21.8013 O   0  0  0  0  0  0  0  0  0  0  0  0
  -21.9282   -6.8743   21.3094 O   0  0  0  0  0  0  0  0  0  0  0  0
  -28.1611  -22.8132   21.3242 O   0  0  0  0  0  0  0  0  0  1  0  0
  -27.2262  -20.2411   20.8237 O   0  0  0  0  0  0  0  0  0  0  0  0
  -21.7206   -5.0507   26.5090 F   0  0  0  0  0  0  0  0  0  0  0  0
  -23.0846   -4.4642   22.0144 F   0  0  0  0  0  0  0  0  0  0  0  0
  1  2  1  0  0  0  0
  1  6  2  0  0  0  0
  2  7  2  0  0  0  0
  3  9  2  0  0  0  0
  3 18  1  0  0  0  0
  4 10  1  0  0  0  0
  4 18  2  0  0  0  0
  5 11  2  0  0  0  0
  5 19  1  0  0  0  0
  6 21  1  0  0  0  0
  7 23  1  0  0  0  0
  8 12  2  0  0  0  0
  8 22  1  0  0  0  0
  9 26  1  0  0  0  0
 10 26  2  0  0  0  0
 11 28  1  0  0  0  0
 12 27  1  0  0  0  0
 13 14  2  0  0  0  0
 13 29  1  0  0  0  0
 14 30  1  0  0  0  0
 15 24  1  0  0  0  0
 15 27  2  0  0  0  0
 16 25  1  0  0  0  0
 16 28  2  0  0  0  0
 17 30  2  0  0  0  0
 17 31  1  0  0  0  0
 18 32  1  0  0  0  0
 19 25  2  0  0  0  0
 19 34  1  0  0  0  0
 20 32  1  0  0  0  0
 20 33  2  0  0  0  0
 20 35  1  0  0  0  0
 21 23  2  0  0  0  0
 21 40  1  0  0  0  0
 22 24  2  0  0  0  0
 22 41  1  0  0  0  0
 23 49  1  0  0  0  0
 24 42  1  0  0  0  0
 25 58  1  0  0  0  0
 26 80  1  0  0  0  0
 27 81  1  0  0  0  0
 28 82  1  0  0  0  0
 29 31  2  0  0  0  0
 29 80  1  0  0  0  0
 30 83  1  0  0  0  0
 31 84  1  0  0  0  0
 32 65  2  0  0  0  0
 33 67  1  0  0  0  0
 33 70  1  0  0  0  0
 34 36  1  0  0  0  0
 34 66  2  0  0  0  0
 35 71  1  0  0  0  0
 35 75  2  0  0  0  0
 36 68  1  0  0  0  0
 36 76  2  0  0  0  0
 37 50  1  0  0  0  0
 37 72  1  0  0  0  0
 37 77  2  0  0  0  0
 38 62  1  0  0  0  0
 38 69  1  0  0  0  0
 38 78  2  0  0  0  0
 39 63  1  0  0  0  0
 39 73  1  0  0  0  0
 39 79  2  0  0  0  0
 40 43  1  0  0  0  0
 41 50  1  0  0  0  0
 42 69  1  0  0  0  0
 43 45  1  0  0  0  0
 44 46  1  0  0  0  0
 44 47  1  0  0  0  0
 45 49  1  0  0  0  0
 46 51  1  0  0  0  0
 47 68  1  0  0  0  0
 48 51  1  0  0  0  0
 48 68  1  0  0  0  0
 49 72  1  0  0  0  0
 50 69  1  0  0  0  0
 51 67  1  0  0  0  0
 52 59  1  0  0  0  0
 53 63  1  0  0  0  0
 54 64  1  0  0  0  0
 55 64  1  0  0  0  0
 56 64  1  0  0  0  0
 57 74  1  0  0  0  0
 58 59  1  0  0  0  0
 60 61  1  0  0  0  0
 60 81  1  0  0  0  0
 61 82  1  0  0  0  0
 62 64  1  0  0  0  0
 62 73  1  0  0  0  0
 63 74  1  0  0  0  0
 65 67  1  0  0  0  0
M  CHG  1  74   1
M  ISO  4  34 100  36 100  60 101  81 101
M  END
> <Batch ID>
0125

> <Smiles>
CCCc1cc(OC[101CH2:1][101O:1]c2ccc3c(c2)CN(C(=O)C(NC(=O)C(C)NC)C(C)(C)C)C(C(=O)NC2CCCc4ccccc42)C3)ccc1[100C:0](=N)[100C:0](=O)N1CCCC(n2nc(-c3ccc(Oc4ccc(F)cc4F)cc3)c(C(N)=O)c2N)C1

> <Shape>
0.299

> <Color>
0.119

> <Negative vol penalty>
0.000

$$$$

  -OEChem-04052302093D

 82 90  0     1  0  0  0  0  0999 V2000
  -26.6654  -35.1260   23.5564 C   0  0  0  0  0  0  0  0  0  0  0  0
  -27.0957  -33.8312   23.2850 C   0  0  0  0  0  0  0  0  0  0  0  0
  -26.5009  -13.1744   21.0145 C   0  0  0  0  0  0  0  0  0  0  0  0
  -24.4358  -13.3691   19.7758 C   0  0  0  0  0  0  0  0  0  0  0  0
  -25.3674  -35.3462   24.0155 C   0  0  0  0  0  0  0  0  0  0  0  0
  -26.2285  -32.7556   23.4735 C   0  0  0  0  0  0  0  0  0  0  0  0
  -26.3482  -29.4660   19.6253 C   0  0  0  0  0  0  0  0  0  0  0  0
  -26.1929  -11.8486   21.3195 C   0  0  0  0  0  0  0  0  0  0  0  0
  -24.1278  -12.0433   20.0807 C   0  0  0  0  0  0  0  0  0  0  0  0
  -27.4242  -28.5807   19.5776 C   0  0  0  0  0  0  0  0  0  0  0  0
  -24.2087  -10.1901   23.4958 C   0  0  0  0  0  0  0  0  0  0  0  0
  -24.4012   -9.7669   24.8109 C   0  0  0  0  0  0  0  0  0  0  0  0
  -26.4806  -22.3419   18.7473 C   0  0  0  0  0  0  0  0  0  0  0  0
  -25.3405  -22.0127   16.6429 C   0  0  0  0  0  0  0  0  0  0  0  0
  -26.0361  -26.8517   20.5277 C   0  0  0  0  0  0  0  0  0  0  0  0
  -27.7045  -22.5104   16.6711 C   0  0  0  0  0  0  0  0  0  0  0  0
  -25.9712   -8.0984   24.0440 C   0  0  0  0  0  0  0  0  0  0  0  0
  -25.6223  -13.9347   20.2426 C   0  0  0  0  0  0  0  0  0  0  0  0
  -25.3126  -22.0663   18.0365 C   0  0  0  0  0  0  0  0  0  0  0  0
  -26.6541  -15.7762   18.8103 C   0  0  0  0  0  0  0  0  0  0  0  0
  -24.4808  -34.2737   24.2005 C   0  0  0  0  0  0  0  0  0  0  0  0
  -25.1090  -29.0532   20.1355 C   0  0  0  0  0  0  0  0  0  0  0  0
  -24.9179  -32.9616   23.9367 C   0  0  0  0  0  0  0  0  0  0  0  0
  -24.9452  -27.7329   20.5783 C   0  0  0  0  0  0  0  0  0  0  0  0
  -27.6766  -22.5640   18.0646 C   0  0  0  0  0  0  0  0  0  0  0  0
  -25.0064  -11.2830   20.8526 C   0  0  0  0  0  0  0  0  0  0  0  0
  -27.2691  -27.2742   20.0315 C   0  0  0  0  0  0  0  0  0  0  0  0
  -24.8973   -9.5674   22.4548 C   0  0  0  0  0  0  0  0  0  0  0  0
  -25.2825   -8.7210   25.0850 C   0  0  0  0  0  0  0  0  0  0  0  0
  -26.5364  -22.2348   15.9602 C   0  0  0  0  0  0  0  0  0  0  0  0
  -25.7786   -8.5216   22.7289 C   0  0  0  0  0  0  0  0  0  0  0  0
  -25.9396  -15.3044   19.9277 C   0  0  0  0  0  0  0  0  0  0  0  0
  -26.6843  -17.1397   18.9727 C   0  0  0  0  0  0  0  0  0  0  0  0
  -24.0653  -21.8351   18.7478 C   0  0  0  0  0  0  0  0  0  0  0  0
  -27.2382  -15.0471   17.7227 C   0  0  0  0  0  0  0  0  0  0  0  0
  -24.0004  -21.8848   20.2265 C   0  0  0  0  0  0  0  0  0  0  0  0
  -23.2861  -29.9340   22.5860 C   0  0  0  0  0  0  0  0  0  0  0  0
  -21.1855  -27.8401   21.2725 C   0  0  0  0  0  0  0  0  0  0  0  0
  -20.6740  -25.1015   19.3014 C   0  0  0  0  0  0  0  0  0  0  0  0
  -23.1025  -34.5567   24.7436 C   0  0  0  0  0  0  0  0  0  0  0  0
  -23.9506  -30.0125   20.1553 C   0  0  0  0  0  0  0  0  0  0  0  0
  -23.6297  -27.2343   21.1163 C   0  0  0  0  0  0  0  0  0  0  0  0
  -22.1257  -33.3981   24.5597 C   0  0  0  0  0  0  0  0  0  0  0  0
  -25.4465  -20.0239   22.9288 C   0  0  0  0  0  0  0  0  0  0  0  0
  -22.7747  -32.0816   24.9752 C   0  0  0  0  0  0  0  0  0  0  0  0
  -25.7259  -18.6564   22.3061 C   0  0  0  0  0  0  0  0  0  0  0  0
  -24.1822  -20.6523   22.3517 C   0  0  0  0  0  0  0  0  0  0  0  0
  -24.4723  -19.3991   20.2318 C   0  0  0  0  0  0  0  0  0  0  0  0
  -23.9987  -31.7712   24.1052 C   0  0  1  0  0  0  0  0  0  0  0  0
  -22.8780  -29.6331   21.1716 C   0  0  1  0  0  0  0  0  0  0  0  0
  -25.7570  -18.7453   20.7699 C   0  0  2  0  0  0  0  0  0  0  0  0
  -18.8521  -23.6025   18.4463 C   0  0  0  0  0  0  0  0  0  0  0  0
  -21.0246  -26.4833   24.0007 C   0  0  0  0  0  0  0  0  0  0  0  0
  -19.9860  -24.5020   22.8765 C   0  0  0  0  0  0  0  0  0  0  0  0
  -18.8325  -26.7130   22.8189 C   0  0  0  0  0  0  0  0  0  0  0  0
  -21.2657  -25.7951   16.4858 C   0  0  0  0  0  0  0  0  0  0  0  0
  -28.9396  -22.8615   18.8326 C   0  0  0  0  0  0  0  0  0  0  0  0
  -29.1684  -24.3528   19.0879 C   0  0  0  0  0  0  0  0  0  0  0  0
  -28.0113  -25.0249   19.8178 C   0  0  0  0  0  0  0  0  0  1  0  0
  -20.9120  -26.3632   21.4241 C   0  0  1  0  0  0  0  0  0  0  0  0
  -19.6913  -24.8413   18.1740 C   0  0  2  0  0  0  0  0  0  0  0  0
  -20.2142  -26.0250   22.7718 C   0  0  0  0  0  0  0  0  0  0  0  0
  -25.5445  -16.2883   20.7401 N   0  0  0  0  0  0  0  0  0  0  0  0
  -22.9356  -21.5743   18.1474 N   0  0  0  0  0  0  0  0  0  0  0  0
  -26.0125  -17.3919   20.1326 N   0  0  0  0  0  0  0  0  0  0  0  0
  -24.2290  -20.6882   20.8914 N   0  0  0  0  0  0  0  0  0  0  0  0
  -22.5289  -28.2119   21.1211 N   0  0  0  0  0  0  0  0  0  0  0  0
  -27.2198  -18.1356   18.2352 N   0  0  0  0  0  0  0  0  0  0  0  0
  -27.1143  -13.6511   17.7111 N   0  0  0  0  0  0  0  0  0  0  0  0
  -23.5856  -31.2636   22.8144 N   0  0  0  0  0  0  0  0  0  0  0  0
  -20.1545  -25.9650   20.2426 N   0  0  0  0  0  0  0  0  0  0  0  0
  -20.4185  -24.6431   16.8884 N   0  3  0  0  0  0  0  0  0  0  0  0
  -27.8660  -15.6154   16.7972 O   0  0  0  0  0  0  0  0  0  0  0  0
  -23.7502  -22.9826   20.7068 O   0  0  0  0  0  0  0  0  0  0  0  0
  -23.3250  -29.0274   23.4095 O   0  0  0  0  0  0  0  0  0  0  0  0
  -20.2414  -28.6340   21.2807 O   0  0  0  0  0  0  0  0  0  0  0  0
  -21.7893  -24.5871   19.3449 O   0  0  0  0  0  0  0  0  0  0  0  0
  -24.7057   -9.9893   21.1498 O   0  0  0  0  0  0  0  0  0  0  0  0
  -28.3179  -26.4083   19.9867 O   0  0  0  0  0  0  0  0  0  1  0  0
  -25.4685   -8.3157   26.3480 F   0  0  0  0  0  0  0  0  0  0  0  0
  -26.5633  -22.1832   14.6219 F   0  0  0  0  0  0  0  0  0  0  0  0
  -26.4440   -7.9203   21.7331 F   0  0  0  0  0  0  0  0  0  0  0  0
  1  2  1  0  0  0  0
  1  5  2  0  0  0  0
  2  6  2  0  0  0  0
  3  8  2  0  0  0  0
  3 18  1  0  0  0  0
  4  9  1  0  0  0  0
  4 18  2  0  0  0  0
  5 21  1  0  0  0  0
  6 23  1  0  0  0  0
  7 10  2  0  0  0  0
  7 22  1  0  0  0  0
  8 26  1  0  0  0  0
  9 26  2  0  0  0  0
 10 27  1  0  0  0  0
 11 12  2  0  0  0  0
 11 28  1  0  0  0  0
 12 29  1  0  0  0  0
 13 19  1  0  0  0  0
 13 25  2  0  0  0  0
 14 19  2  0  0  0  0
 14 30  1  0  0  0  0
 15 24  1  0  0  0  0
 15 27  2  0  0  0  0
 16 25  1  0  0  0  0
 16 30  2  0  0  0  0
 17 29  2  0  0  0  0
 17 31  1  0  0  0  0
 18 32  1  0  0  0  0
 19 34  1  0  0  0  0
 20 32  1  0  0  0  0
 20 33  2  0  0  0  0
 20 35  1  0  0  0  0
 21 23  2  0  0  0  0
 21 40  1  0  0  0  0
 22 24  2  0  0  0  0
 22 41  1  0  0  0  0
 23 49  1  0  0  0  0
 24 42  1  0  0  0  0
 25 57  1  0  0  0  0
 26 78  1  0  0  0  0
 27 79  1  0  0  0  0
 28 31  2  0  0  0  0
 28 78  1  0  0  0  0
 29 80  1  0  0  0  0
 30 81  1  0  0  0  0
 31 82  1  0  0  0  0
 32 63  2  0  0  0  0
 33 65  1  0  0  0  0
 33 68  1  0  0  0  0
 34 36  1  0  0  0  0
 34 64  2  0  0  0  0
 35 69  1  0  0  0  0
 35 73  2  0  0  0  0
 36 66  1  0  0  0  0
 36 74  2  0  0  0  0
 37 50  1  0  0  0  0
 37 70  1  0  0  0  0
 37 75  2  0  0  0  0
 38 60  1  0  0  0  0
 38 67  1  0  0  0  0
 38 76  2  0  0  0  0
 39 61  1  0  0  0  0
 39 71  1  0  0  0  0
 39 77  2  0  0  0  0
 40 43  1  0  0  0  0
 41 50  1  0  0  0  0
 42 67  1  0  0  0  0
 43 45  1  0  0  0  0
 44 46  1  0  0  0  0
 44 47  1  0  0  0  0
 45 49  1  0  0  0  0
 46 51  1  0  0  0  0
 47 66  1  0  0  0  0
 48 51  1  0  0  0  0
 48 66  1  0  0  0  0
 49 70  1  0  0  0  0
 50 67  1  0  0  0  0
 51 65  1  0  0  0  0
 52 61  1  0  0  0  0
 53 62  1  0  0  0  0
 54 62  1  0  0  0  0
 55 62  1  0  0  0  0
 56 72  1  0  0  0  0
 57 58  1  0  0  0  0
 58 59  1  0  0  0  0
 59 79  1  0  0  0  0
 60 62  1  0  0  0  0
 60 71  1  0  0  0  0
 61 72  1  0  0  0  0
 63 65  1  0  0  0  0
M  CHG  1  72   1
M  ISO  4  34 100  36 100  59 101  79 101
M  END
> <Batch ID>
0125

> <Smiles>
CNC(C)C(=O)NC(C(=O)N1Cc2cc([101O:1][101CH2:1]CCc3cc(F)cc([100C:0](=N)[100C:0](=O)N4CCCC(n5nc(-c6ccc(Oc7ccc(F)cc7F)cc6)c(C(N)=O)c5N)C4)c3)ccc2CC1C(=O)NC1CCCc2ccccc21)C(C)(C)C

> <Shape>
0.213

> <Color>
0.081

> <Negative vol penalty>
0.000

$$$$

  -OEChem-04052302093D

 86 94  0     1  0  0  0  0  0999 V2000
  -18.0590  -31.5031   26.5257 C   0  0  0  0  0  0  0  0  0  0  0  0
  -19.0167  -30.5085   26.6956 C   0  0  0  0  0  0  0  0  0  0  0  0
  -28.9820  -17.8092   19.2769 C   0  0  0  0  0  0  0  0  0  0  0  0
  -22.8074  -10.1158   20.0975 C   0  0  0  0  0  0  0  0  0  0  0  0
  -23.6677  -10.0548   22.3543 C   0  0  0  0  0  0  0  0  0  0  0  0
  -28.5153  -18.7549   20.1898 C   0  0  0  0  0  0  0  0  0  0  0  0
  -29.6072  -16.6487   19.7329 C   0  0  0  0  0  0  0  0  0  0  0  0
  -17.2197  -31.4783   25.4126 C   0  0  0  0  0  0  0  0  0  0  0  0
  -19.1350  -29.4877   25.7530 C   0  0  0  0  0  0  0  0  0  0  0  0
  -24.2869  -26.6880   23.9852 C   0  0  0  0  0  0  0  0  0  0  0  0
  -21.9783   -9.0314   20.3843 C   0  0  0  0  0  0  0  0  0  0  0  0
  -22.8386   -8.9704   22.6411 C   0  0  0  0  0  0  0  0  0  0  0  0
  -24.8701  -25.4766   24.3540 C   0  0  0  0  0  0  0  0  0  0  0  0
  -22.8147   -5.6362   22.0814 C   0  0  0  0  0  0  0  0  0  0  0  0
  -23.3706   -4.5607   22.7741 C   0  0  0  0  0  0  0  0  0  0  0  0
  -23.8515  -24.4117   22.4441 C   0  0  0  0  0  0  0  0  0  0  0  0
  -21.7695   -4.8799   24.5549 C   0  0  0  0  0  0  0  0  0  0  0  0
  -23.6521  -10.6275   21.0826 C   0  0  0  0  0  0  0  0  0  0  0  0
  -28.6740  -18.5401   21.5589 C   0  0  0  0  0  0  0  0  0  0  0  0
  -29.7658  -16.4339   21.1020 C   0  0  0  0  0  0  0  0  0  0  0  0
  -24.2060  -13.1135   20.9395 C   0  0  0  0  0  0  0  0  0  0  0  0
  -17.3342  -30.4621   24.4509 C   0  0  0  0  0  0  0  0  0  0  0  0
  -23.4714  -26.7682   22.8472 C   0  0  0  0  0  0  0  0  0  0  0  0
  -18.2956  -29.4485   24.6267 C   0  0  0  0  0  0  0  0  0  0  0  0
  -23.2612  -25.6259   22.0616 C   0  0  0  0  0  0  0  0  0  0  0  0
  -21.9938   -8.4587   21.6561 C   0  0  0  0  0  0  0  0  0  0  0  0
  -24.6501  -24.3375   23.5850 C   0  0  0  0  0  0  0  0  0  0  0  0
  -21.7361   -6.3336   22.6256 C   0  0  0  0  0  0  0  0  0  0  0  0
  -29.2992  -17.3796   22.0150 C   0  0  0  0  0  0  0  0  0  0  0  0
  -22.8480   -4.1825   24.0108 C   0  0  0  0  0  0  0  0  0  0  0  0
  -21.2135   -5.9555   23.8623 C   0  0  0  0  0  0  0  0  0  0  0  0
  -24.5092  -11.7473   20.7868 C   0  0  0  0  0  0  0  0  0  0  0  0
  -25.3416  -13.7657   20.5251 C   0  0  0  0  0  0  0  0  0  0  0  0
  -28.1736  -19.5568   22.5010 C   0  0  0  0  0  0  0  0  0  0  0  0
  -27.1377  -20.3726   22.2609 C   0  0  0  0  0  0  0  0  0  0  0  0
  -30.4212  -15.2137   21.5530 C   0  0  0  0  0  0  0  0  0  0  0  0
  -23.0053  -13.7374   21.4136 C   0  0  0  0  0  0  0  0  0  0  0  0
  -26.7152  -21.3773   23.2796 C   0  0  0  0  0  0  0  0  0  0  0  0
  -30.9178  -14.2055   20.5885 C   0  0  0  0  0  0  0  0  0  0  0  0
  -20.4234  -27.4992   22.3190 C   0  0  0  0  0  0  0  0  0  0  0  0
  -21.3110  -27.2635   19.2079 C   0  0  0  0  0  0  0  0  0  0  0  0
  -23.4726  -25.9776   16.9012 C   0  0  0  0  0  0  0  0  0  0  0  0
  -16.3731  -30.4509   23.2887 C   0  0  0  0  0  0  0  0  0  0  0  0
  -22.8713  -28.0884   22.4480 C   0  0  0  0  0  0  0  0  0  0  0  0
  -22.4103  -25.6635   20.8194 C   0  0  0  0  0  0  0  0  0  0  0  0
  -16.8132  -29.5431   22.1430 C   0  0  0  0  0  0  0  0  0  0  0  0
  -29.4432  -12.0570   18.1255 C   0  0  0  0  0  0  0  0  0  0  0  0
  -17.2646  -28.1881   22.6788 C   0  0  0  0  0  0  0  0  0  0  0  0
  -28.0144  -11.8664   18.6332 C   0  0  0  0  0  0  0  0  0  0  0  0
  -30.4343  -12.1759   19.2787 C   0  0  0  0  0  0  0  0  0  0  0  0
  -28.6642  -13.0694   20.7676 C   0  0  0  0  0  0  0  0  0  0  0  0
  -18.4712  -28.3384   23.6133 C   0  0  1  0  0  0  0  0  0  0  0  0
  -21.6413  -27.9408   21.5577 C   0  0  1  0  0  0  0  0  0  0  0  0
  -27.6309  -12.9731   19.6316 C   0  0  2  0  0  0  0  0  0  0  0  0
  -28.7786  -16.3180   25.4863 C   0  0  0  0  0  0  0  0  0  0  0  0
  -23.9205  -25.9309   14.4325 C   0  0  0  0  0  0  0  0  0  0  0  0
  -19.0077  -25.2984   18.8296 C   0  0  0  0  0  0  0  0  0  0  0  0
  -20.0645  -24.5820   16.6760 C   0  0  0  0  0  0  0  0  0  0  0  0
  -19.2972  -26.9381   16.9636 C   0  0  0  0  0  0  0  0  0  0  0  0
  -26.1315  -27.2318   17.2424 C   0  0  0  0  0  0  0  0  0  0  0  0
  -25.5329  -22.2405   22.8928 C   0  0  0  0  0  0  0  0  0  1  0  0
  -28.4114  -16.4716   24.0257 C   0  0  0  0  0  0  0  0  0  0  0  0
  -21.3609  -26.1480   18.1919 C   0  0  1  0  0  0  0  0  0  0  0  0
  -24.2215  -26.6263   15.7510 C   0  0  2  0  0  0  0  0  0  0  0  0
  -19.9471  -25.7402   17.6897 C   0  0  0  0  0  0  0  0  0  0  0  0
  -25.7408  -11.5424   20.3123 N   0  0  0  0  0  0  0  0  0  0  0  0
  -30.6146  -14.9299   22.8114 N   0  0  0  0  0  0  0  0  0  0  0  0
  -26.2215  -12.7885   20.1631 N   0  0  0  0  0  0  0  0  0  0  0  0
  -30.0217  -13.2097   20.2259 N   0  0  0  0  0  0  0  0  0  0  0  0
  -21.8403  -26.9763   20.4740 N   0  0  0  0  0  0  0  0  0  0  0  0
  -25.6632  -15.0739   20.4386 N   0  0  0  0  0  0  0  0  0  0  0  0
  -21.9346  -12.9192   21.7989 N   0  0  0  0  0  0  0  0  0  0  0  0
  -19.6822  -28.5392   22.8467 N   0  0  0  0  0  0  0  0  0  0  0  0
  -22.2633  -26.5966   17.1371 N   0  0  0  0  0  0  0  0  0  0  0  0
  -25.6912  -26.5651   15.9899 N   0  3  0  0  0  0  0  0  0  0  0  0
  -22.8796  -14.9838   21.4778 O   0  0  0  0  0  0  0  0  0  0  0  0
  -27.2897  -21.4935   24.3587 O   0  0  0  0  0  0  0  0  0  0  0  0
  -32.0725  -14.3592   20.2125 O   0  0  0  0  0  0  0  0  0  0  0  0
  -20.1739  -26.3036   22.4188 O   0  0  0  0  0  0  0  0  0  0  0  0
  -20.8269  -28.3519   18.8876 O   0  0  0  0  0  0  0  0  0  0  0  0
  -23.9144  -25.0154   17.5254 O   0  0  0  0  0  0  0  0  0  0  0  0
  -21.1848   -7.4007   21.9363 O   0  0  0  0  0  0  0  0  0  0  0  0
  -25.2176  -23.1536   23.9431 O   0  0  0  0  0  0  0  0  0  1  0  0
  -29.4599  -17.1637   23.3539 O   0  0  0  0  0  0  0  0  0  0  0  0
  -23.3810   -3.1487   24.6751 F   0  0  0  0  0  0  0  0  0  0  0  0
  -20.1767   -6.6209   24.3895 F   0  0  0  0  0  0  0  0  0  0  0  0
  1  2  1  0  0  0  0
  1  8  2  0  0  0  0
  2  9  2  0  0  0  0
  3  6  1  0  0  0  0
  3  7  2  0  0  0  0
  4 11  2  0  0  0  0
  4 18  1  0  0  0  0
  5 12  1  0  0  0  0
  5 18  2  0  0  0  0
  6 19  2  0  0  0  0
  7 20  1  0  0  0  0
  8 22  1  0  0  0  0
  9 24  1  0  0  0  0
 10 13  2  0  0  0  0
 10 23  1  0  0  0  0
 11 26  1  0  0  0  0
 12 26  2  0  0  0  0
 13 27  1  0  0  0  0
 14 15  2  0  0  0  0
 14 28  1  0  0  0  0
 15 30  1  0  0  0  0
 16 25  1  0  0  0  0
 16 27  2  0  0  0  0
 17 30  2  0  0  0  0
 17 31  1  0  0  0  0
 18 32  1  0  0  0  0
 19 29  1  0  0  0  0
 19 34  1  0  0  0  0
 20 29  2  0  0  0  0
 20 36  1  0  0  0  0
 21 32  1  0  0  0  0
 21 33  2  0  0  0  0
 21 37  1  0  0  0  0
 22 24  2  0  0  0  0
 22 43  1  0  0  0  0
 23 25  2  0  0  0  0
 23 44  1  0  0  0  0
 24 52  1  0  0  0  0
 25 45  1  0  0  0  0
 26 82  1  0  0  0  0
 27 83  1  0  0  0  0
 28 31  2  0  0  0  0
 28 82  1  0  0  0  0
 29 84  1  0  0  0  0
 30 85  1  0  0  0  0
 31 86  1  0  0  0  0
 32 66  2  0  0  0  0
 33 68  1  0  0  0  0
 33 71  1  0  0  0  0
 34 35  2  0  0  0  0
 35 38  1  0  0  0  0
 36 39  1  0  0  0  0
 36 67  2  0  0  0  0
 37 72  1  0  0  0  0
 37 76  2  0  0  0  0
 38 61  1  0  0  0  0
 38 77  2  0  0  0  0
 39 69  1  0  0  0  0
 39 78  2  0  0  0  0
 40 53  1  0  0  0  0
 40 73  1  0  0  0  0
 40 79  2  0  0  0  0
 41 63  1  0  0  0  0
 41 70  1  0  0  0  0
 41 80  2  0  0  0  0
 42 64  1  0  0  0  0
 42 74  1  0  0  0  0
 42 81  2  0  0  0  0
 43 46  1  0  0  0  0
 44 53  1  0  0  0  0
 45 70  1  0  0  0  0
 46 48  1  0  0  0  0
 47 49  1  0  0  0  0
 47 50  1  0  0  0  0
 48 52  1  0  0  0  0
 49 54  1  0  0  0  0
 50 69  1  0  0  0  0
 51 54  1  0  0  0  0
 51 69  1  0  0  0  0
 52 73  1  0  0  0  0
 53 70  1  0  0  0  0
 54 68  1  0  0  0  0
 55 62  1  0  0  0  0
 56 64  1  0  0  0  0
 57 65  1  0  0  0  0
 58 65  1  0  0  0  0
 59 65  1  0  0  0  0
 60 75  1  0  0  0  0
 61 83  1  0  0  0  0
 62 84  1  0  0  0  0
 63 65  1  0  0  0  0
 63 74  1  0  0  0  0
 64 75  1  0  0  0  0
 66 68  1  0  0  0  0
M  CHG  1  75   1
M  ISO  4  36 100  39 100  61 101  83 101
M  END
> <Batch ID>
0125

> <Smiles>
CCOc1c(C=CC(=O)[101CH2:1][101O:1]c2ccc3c(c2)CN(C(=O)C(NC(=O)C(C)NC)C(C)(C)C)C(C(=O)NC2CCCc4ccccc42)C3)cccc1[100C:0](=N)[100C:0](=O)N1CCCC(n2nc(-c3ccc(Oc4ccc(F)cc4F)cc3)c(C(N)=O)c2N)C1

> <Shape>
0.283

> <Color>
0.199

> <Negative vol penalty>
0.000

$$$$

  -OEChem-04052302093D

 85 93  0     1  0  0  0  0  0999 V2000
  -30.9266  -32.8630   24.1523 C   0  0  0  0  0  0  0  0  0  0  0  0
  -30.1689  -31.8003   23.6707 C   0  0  0  0  0  0  0  0  0  0  0  0
  -24.8233   -8.9997   21.1272 C   0  0  0  0  0  0  0  0  0  0  0  0
  -23.0927  -10.4299   20.2345 C   0  0  0  0  0  0  0  0  0  0  0  0
  -30.3835  -33.7335   25.0963 C   0  0  0  0  0  0  0  0  0  0  0  0
  -28.8678  -31.6069   24.1336 C   0  0  0  0  0  0  0  0  0  0  0  0
  -25.6074  -30.5861   20.3956 C   0  0  0  0  0  0  0  0  0  0  0  0
  -23.8700   -8.0206   21.4067 C   0  0  0  0  0  0  0  0  0  0  0  0
  -22.1394   -9.4507   20.5139 C   0  0  0  0  0  0  0  0  0  0  0  0
  -25.6106  -29.2890   19.8844 C   0  0  0  0  0  0  0  0  0  0  0  0
  -21.5325   -7.4244   23.7742 C   0  0  0  0  0  0  0  0  0  0  0  0
  -21.5922   -6.7995   25.0198 C   0  0  0  0  0  0  0  0  0  0  0  0
  -23.6715  -28.7644   21.2200 C   0  0  0  0  0  0  0  0  0  0  0  0
  -28.9735  -19.5044   16.8224 C   0  0  0  0  0  0  0  0  0  0  0  0
  -28.0396  -20.0613   19.3915 C   0  0  0  0  0  0  0  0  0  0  0  0
  -21.8998   -4.6635   23.9335 C   0  0  0  0  0  0  0  0  0  0  0  0
  -24.4346  -10.2044   20.5412 C   0  0  0  0  0  0  0  0  0  0  0  0
  -26.1580  -11.3694   19.0645 C   0  0  0  0  0  0  0  0  0  0  0  0
  -29.0717  -33.5564   25.5638 C   0  0  0  0  0  0  0  0  0  0  0  0
  -24.6412  -30.9795   21.3326 C   0  0  0  0  0  0  0  0  0  0  0  0
  -28.3071  -32.4751   25.0857 C   0  0  0  0  0  0  0  0  0  0  0  0
  -23.6567  -30.0678   21.7396 C   0  0  0  0  0  0  0  0  0  0  0  0
  -28.5209  -18.4687   17.6396 C   0  0  0  0  0  0  0  0  0  0  0  0
  -28.9593  -20.8186   17.2897 C   0  0  0  0  0  0  0  0  0  0  0  0
  -28.0539  -18.7471   18.9242 C   0  0  0  0  0  0  0  0  0  0  0  0
  -22.5280   -8.2461   21.1000 C   0  0  0  0  0  0  0  0  0  0  0  0
  -24.6443  -28.3771   20.2988 C   0  0  0  0  0  0  0  0  0  0  0  0
  -21.6563   -6.6688   22.6082 C   0  0  0  0  0  0  0  0  0  0  0  0
  -28.4923  -21.0970   18.5743 C   0  0  0  0  0  0  0  0  0  0  0  0
  -21.7759   -5.4191   25.0995 C   0  0  0  0  0  0  0  0  0  0  0  0
  -21.8400   -5.2884   22.6879 C   0  0  0  0  0  0  0  0  0  0  0  0
  -25.4189  -11.2165   20.2528 C   0  0  0  0  0  0  0  0  0  0  0  0
  -26.9488  -12.4692   19.2911 C   0  0  0  0  0  0  0  0  0  0  0  0
  -26.1319  -10.5872   17.8631 C   0  0  0  0  0  0  0  0  0  0  0  0
  -24.7193  -31.9967   24.3431 C   0  0  0  0  0  0  0  0  0  0  0  0
  -21.5420  -32.4425   23.8650 C   0  0  0  0  0  0  0  0  0  0  0  0
  -18.7283  -31.6041   22.1252 C   0  0  0  0  0  0  0  0  0  0  0  0
  -27.6430  -17.6671   21.1628 C   0  0  0  0  0  0  0  0  0  0  0  0
  -28.5443  -34.4955   26.6196 C   0  0  0  0  0  0  0  0  0  0  0  0
  -24.6352  -32.3902   21.8543 C   0  0  0  0  0  0  0  0  0  0  0  0
  -22.5852  -30.4464   22.7280 C   0  0  0  0  0  0  0  0  0  0  0  0
  -27.0272  -34.4413   26.7801 C   0  0  0  0  0  0  0  0  0  0  0  0
  -27.8752  -15.0384   23.5530 C   0  0  0  0  0  0  0  0  0  0  0  0
  -26.5482  -32.9944   26.8414 C   0  0  0  0  0  0  0  0  0  0  0  0
  -27.3176  -13.8223   22.8097 C   0  0  0  0  0  0  0  0  0  0  0  0
  -27.1278  -16.3192   23.1858 C   0  0  0  0  0  0  0  0  0  0  0  0
  -26.4804  -15.3784   21.0029 C   0  0  0  0  0  0  0  0  0  0  0  0
  -26.8834  -32.2469   25.5451 C   0  0  1  0  0  0  0  0  0  0  0  0
  -23.9145  -32.5297   23.1917 C   0  0  1  0  0  0  0  0  0  0  0  0
  -27.2435  -14.0752   21.2911 C   0  0  2  0  0  0  0  0  0  0  0  0
  -29.4473  -21.9156   16.4021 C   0  0  0  0  0  0  0  0  0  0  0  0
  -29.7086  -16.2609   17.6811 C   0  0  0  0  0  0  0  0  0  0  0  0
  -16.2742  -32.1095   21.9865 C   0  0  0  0  0  0  0  0  0  0  0  0
  -21.0573  -30.7634   26.3661 C   0  0  0  0  0  0  0  0  0  0  0  0
  -18.6724  -30.5085   25.6481 C   0  0  0  0  0  0  0  0  0  0  0  0
  -19.5843  -32.7738   26.1576 C   0  0  0  0  0  0  0  0  0  0  0  0
  -18.9685  -32.5806   19.3418 C   0  0  0  0  0  0  0  0  0  0  0  0
  -28.5473  -17.0705   17.1129 C   0  0  0  0  0  0  0  0  0  0  0  0
  -25.8806  -25.0461   19.5906 C   0  0  0  0  0  0  0  0  0  0  0  0
  -27.2193  -24.4164   19.2215 C   0  0  0  0  0  0  0  0  0  0  0  0
  -25.9083  -26.5601   19.4287 C   0  0  0  0  0  0  0  0  0  1  0  0
  -27.2059  -22.9079   19.4239 C   0  0  0  0  0  0  0  0  0  0  0  0
  -20.3052  -31.5949   24.0403 C   0  0  1  0  0  0  0  0  0  0  0  0
  -17.6600  -32.4575   21.4658 C   0  0  2  0  0  0  0  0  0  0  0  0
  -19.9260  -31.4021   25.5358 C   0  0  0  0  0  0  0  0  0  0  0  0
  -25.7140  -12.1448   21.1667 N   0  0  0  0  0  0  0  0  0  0  0  0
  -26.6473  -12.8916   20.5524 N   0  0  0  0  0  0  0  0  0  0  0  0
  -22.6254  -31.8355   23.2141 N   0  0  0  0  0  0  0  0  0  0  0  0
  -27.1017  -16.4951   21.7321 N   0  0  0  0  0  0  0  0  0  0  0  0
  -27.8658  -13.1065   18.5326 N   0  0  0  0  0  0  0  0  0  0  0  0
  -25.2607   -9.4913   17.7982 N   0  0  0  0  0  0  0  0  0  0  0  0
  -27.5916  -17.7083   19.7698 N   0  0  0  0  0  0  0  0  0  0  0  0
  -25.9499  -32.6056   24.4990 N   0  0  0  0  0  0  0  0  0  0  0  0
  -19.2627  -32.2226   23.2357 N   0  0  0  0  0  0  0  0  0  0  0  0
  -17.6722  -32.2535   19.9896 N   0  3  0  0  0  0  0  0  0  0  0  0
  -26.8715  -10.8425   16.8826 O   0  0  0  0  0  0  0  0  0  0  0  0
  -24.2573  -31.1004   25.0395 O   0  0  0  0  0  0  0  0  0  0  0  0
  -21.5442  -33.6029   24.2835 O   0  0  0  0  0  0  0  0  0  0  0  0
  -19.0534  -30.4977   21.7001 O   0  0  0  0  0  0  0  0  0  0  0  0
  -28.1420  -18.5557   21.8581 O   0  0  0  0  0  0  0  0  0  0  0  0
  -21.5976   -7.2908   21.3723 O   0  0  0  0  0  0  0  0  0  0  0  0
  -24.6456  -27.1102   19.8019 O   0  0  0  0  0  0  0  0  0  1  0  0
  -28.4720  -22.3826   19.0496 O   0  0  0  0  0  0  0  0  0  0  0  0
  -21.8348   -4.8194   26.2957 F   0  0  0  0  0  0  0  0  0  0  0  0
  -21.9608   -4.5574   21.5712 F   0  0  0  0  0  0  0  0  0  0  0  0
  1  2  1  0  0  0  0
  1  5  2  0  0  0  0
  2  6  2  0  0  0  0
  3  8  2  0  0  0  0
  3 17  1  0  0  0  0
  4  9  1  0  0  0  0
  4 17  2  0  0  0  0
  5 19  1  0  0  0  0
  6 21  1  0  0  0  0
  7 10  2  0  0  0  0
  7 20  1  0  0  0  0
  8 26  1  0  0  0  0
  9 26  2  0  0  0  0
 10 27  1  0  0  0  0
 11 12  2  0  0  0  0
 11 28  1  0  0  0  0
 12 30  1  0  0  0  0
 13 22  1  0  0  0  0
 13 27  2  0  0  0  0
 14 23  1  0  0  0  0
 14 24  2  0  0  0  0
 15 25  1  0  0  0  0
 15 29  2  0  0  0  0
 16 30  2  0  0  0  0
 16 31  1  0  0  0  0
 17 32  1  0  0  0  0
 18 32  1  0  0  0  0
 18 33  2  0  0  0  0
 18 34  1  0  0  0  0
 19 21  2  0  0  0  0
 19 39  1  0  0  0  0
 20 22  2  0  0  0  0
 20 40  1  0  0  0  0
 21 48  1  0  0  0  0
 22 41  1  0  0  0  0
 23 25  2  0  0  0  0
 23 58  1  0  0  0  0
 24 29  1  0  0  0  0
 24 51  1  0  0  0  0
 25 72  1  0  0  0  0
 26 81  1  0  0  0  0
 27 82  1  0  0  0  0
 28 31  2  0  0  0  0
 28 81  1  0  0  0  0
 29 83  1  0  0  0  0
 30 84  1  0  0  0  0
 31 85  1  0  0  0  0
 32 66  2  0  0  0  0
 33 67  1  0  0  0  0
 33 70  1  0  0  0  0
 34 71  1  0  0  0  0
 34 76  2  0  0  0  0
 35 49  1  0  0  0  0
 35 73  1  0  0  0  0
 35 77  2  0  0  0  0
 36 63  1  0  0  0  0
 36 68  1  0  0  0  0
 36 78  2  0  0  0  0
 37 64  1  0  0  0  0
 37 74  1  0  0  0  0
 37 79  2  0  0  0  0
 38 69  1  0  0  0  0
 38 72  1  0  0  0  0
 38 80  2  0  0  0  0
 39 42  1  0  0  0  0
 40 49  1  0  0  0  0
 41 68  1  0  0  0  0
 42 44  1  0  0  0  0
 43 45  1  0  0  0  0
 43 46  1  0  0  0  0
 44 48  1  0  0  0  0
 45 50  1  0  0  0  0
 46 69  1  0  0  0  0
 47 50  1  0  0  0  0
 47 69  1  0  0  0  0
 48 73  1  0  0  0  0
 49 68  1  0  0  0  0
 50 67  1  0  0  0  0
 52 58  1  0  0  0  0
 53 64  1  0  0  0  0
 54 65  1  0  0  0  0
 55 65  1  0  0  0  0
 56 65  1  0  0  0  0
 57 75  1  0  0  0  0
 59 60  1  0  0  0  0
 59 61  1  0  0  0  0
 60 62  1  0  0  0  0
 61 82  1  0  0  0  0
 62 83  1  0  0  0  0
 63 65  1  0  0  0  0
 63 74  1  0  0  0  0
 64 75  1  0  0  0  0
 66 67  1  0  0  0  0
M  CHG  1  75   1
M  ISO  4  38 100  61 101  72 100  82 101
M  END
> <Batch ID>
0125

> <Smiles>
CCc1cc(C)c(OCCC[101CH2:1][101O:1]c2ccc3c(c2)CN(C(=O)C(NC(=O)C(C)NC)C(C)(C)C)C(C(=O)NC2CCCc4ccccc42)C3)cc1[100NH:0][100C:0](=O)N1CCCC(n2nc(-c3ccc(Oc4ccc(F)cc4F)cc3)c(C(N)=O)c2N)C1

> <Shape>
0.275

> <Color>
0.085

> <Negative vol penalty>
0.000

$$$$

  -OEChem-04052302093D

 82 90  0     1  0  0  0  0  0999 V2000
  -16.5381  -30.6320   23.8342 C   0  0  0  0  0  0  0  0  0  0  0  0
  -17.8528  -31.0660   23.6977 C   0  0  0  0  0  0  0  0  0  0  0  0
  -25.4897  -16.2872   21.5405 C   0  0  0  0  0  0  0  0  0  0  0  0
  -25.4106  -16.1917   19.1277 C   0  0  0  0  0  0  0  0  0  0  0  0
  -16.2552  -29.2671   23.8634 C   0  0  0  0  0  0  0  0  0  0  0  0
  -18.8856  -30.1351   23.5913 C   0  0  0  0  0  0  0  0  0  0  0  0
  -24.0042  -30.6785   20.2732 C   0  0  0  0  0  0  0  0  0  0  0  0
  -24.2344  -15.6826   21.6056 C   0  0  0  0  0  0  0  0  0  0  0  0
  -24.1553  -15.5870   19.1928 C   0  0  0  0  0  0  0  0  0  0  0  0
  -25.3044  -31.0534   20.6090 C   0  0  0  0  0  0  0  0  0  0  0  0
  -21.2093  -13.8361   22.4149 C   0  0  0  0  0  0  0  0  0  0  0  0
  -21.0335  -12.8044   23.3370 C   0  0  0  0  0  0  0  0  0  0  0  0
  -32.2636  -26.6798   23.2460 C   0  0  0  0  0  0  0  0  0  0  0  0
  -30.9105  -27.2121   21.3166 C   0  0  0  0  0  0  0  0  0  0  0  0
  -25.9112  -28.7292   20.8301 C   0  0  0  0  0  0  0  0  0  0  0  0
  -32.4248  -28.8623   22.2224 C   0  0  0  0  0  0  0  0  0  0  0  0
  -22.7760  -11.5339   22.2477 C   0  0  0  0  0  0  0  0  0  0  0  0
  -26.0778  -16.5418   20.3016 C   0  0  0  0  0  0  0  0  0  0  0  0
  -31.3078  -26.3072   22.3010 C   0  0  0  0  0  0  0  0  0  0  0  0
  -28.6274  -16.5256   20.2178 C   0  0  0  0  0  0  0  0  0  0  0  0
  -17.2840  -28.3190   23.7477 C   0  0  0  0  0  0  0  0  0  0  0  0
  -23.6444  -29.3240   20.2238 C   0  0  0  0  0  0  0  0  0  0  0  0
  -18.6163  -28.7562   23.6203 C   0  0  0  0  0  0  0  0  0  0  0  0
  -24.6065  -28.3396   20.4909 C   0  0  0  0  0  0  0  0  0  0  0  0
  -32.8221  -27.9574   23.2068 C   0  0  0  0  0  0  0  0  0  0  0  0
  -31.4690  -28.4897   21.2773 C   0  0  0  0  0  0  0  0  0  0  0  0
  -23.5672  -15.3324   20.4318 C   0  0  0  0  0  0  0  0  0  0  0  0
  -26.2573  -30.0789   20.8904 C   0  0  0  0  0  0  0  0  0  0  0  0
  -22.1684  -13.7167   21.4091 C   0  0  0  0  0  0  0  0  0  0  0  0
  -21.8168  -11.6533   23.2534 C   0  0  0  0  0  0  0  0  0  0  0  0
  -22.9518  -12.5656   21.3256 C   0  0  0  0  0  0  0  0  0  0  0  0
  -27.3742  -17.1669   20.2337 C   0  0  0  0  0  0  0  0  0  0  0  0
  -29.5373  -17.5520   20.1465 C   0  0  0  0  0  0  0  0  0  0  0  0
  -30.7255  -24.9749   22.3425 C   0  0  0  0  0  0  0  0  0  0  0  0
  -29.5603  -24.6111   21.7656 C   0  0  0  0  0  0  0  0  0  0  0  0
  -28.9408  -15.1273   20.2633 C   0  0  0  0  0  0  0  0  0  0  0  0
  -29.1058  -23.2115   21.8889 C   0  0  0  0  0  0  0  0  0  0  0  0
  -21.5687  -27.4961   21.7903 C   0  0  0  0  0  0  0  0  0  0  0  0
  -22.5056  -25.2603   19.6350 C   0  0  0  0  0  0  0  0  0  0  0  0
  -24.8995  -24.1426   17.4748 C   0  0  0  0  0  0  0  0  0  0  0  0
  -16.9343  -26.8544   23.8320 C   0  0  0  0  0  0  0  0  0  0  0  0
  -22.2447  -28.9353   19.8338 C   0  0  0  0  0  0  0  0  0  0  0  0
  -24.2762  -26.8713   20.4319 C   0  0  0  0  0  0  0  0  0  0  0  0
  -18.0463  -25.9332   23.3368 C   0  0  0  0  0  0  0  0  0  0  0  0
  -30.0407  -22.0194   18.5518 C   0  0  0  0  0  0  0  0  0  0  0  0
  -19.3902  -26.3569   23.9208 C   0  0  0  0  0  0  0  0  0  0  0  0
  -29.5264  -20.5831   18.5982 C   0  0  0  0  0  0  0  0  0  0  0  0
  -29.1498  -22.9718   19.3479 C   0  0  0  0  0  0  0  0  0  0  0  0
  -28.4179  -21.1072   20.8066 C   0  0  0  0  0  0  0  0  0  0  0  0
  -19.7613  -27.7771   23.4772 C   0  0  1  0  0  0  0  0  0  0  0  0
  -21.8554  -27.5412   20.3161 C   0  0  1  0  0  0  0  0  0  0  0  0
  -29.3252  -20.1237   20.0510 C   0  0  1  0  0  0  0  0  0  0  0  0
  -33.8439  -28.3562   24.2174 C   0  0  0  0  0  0  0  0  0  0  0  0
  -25.3958  -22.2670   15.8831 C   0  0  0  0  0  0  0  0  0  0  0  0
  -23.1167  -23.4235   21.9936 C   0  0  0  0  0  0  0  0  0  0  0  0
  -24.4614  -21.9922   20.4408 C   0  0  0  0  0  0  0  0  0  0  0  0
  -22.0163  -22.2962   20.0513 C   0  0  0  0  0  0  0  0  0  0  0  0
  -25.0822  -25.9914   15.1709 C   0  0  0  0  0  0  0  0  0  0  0  0
  -31.0395  -29.4679   20.2133 C   0  0  0  0  0  0  0  0  0  0  0  0
  -29.8480  -30.3374   20.6209 C   0  0  0  0  0  0  0  0  0  0  0  0
  -28.5732  -29.5384   20.8656 C   0  0  0  0  0  0  0  0  0  1  0  0
  -23.5940  -24.2154   19.5830 C   0  0  1  0  0  0  0  0  0  0  0  0
  -24.8143  -23.6638   16.0367 C   0  0  2  0  0  0  0  0  0  0  0  0
  -23.3031  -23.0095   20.5203 C   0  0  0  0  0  0  0  0  0  0  0  0
  -27.4751  -18.4975   20.1772 N   0  0  0  0  0  0  0  0  0  0  0  0
  -28.8026  -18.7008   20.1252 N   0  0  0  0  0  0  0  0  0  0  0  0
  -28.9246  -22.4811   20.7158 N   0  0  0  0  0  0  0  0  0  0  0  0
  -22.8925  -26.5418   20.0520 N   0  0  0  0  0  0  0  0  0  0  0  0
  -30.8863  -17.5747   20.1007 N   0  0  0  0  0  0  0  0  0  0  0  0
  -27.8853  -14.2080   20.3350 N   0  0  0  0  0  0  0  0  0  0  0  0
  -20.2539  -27.7691   22.1164 N   0  0  0  0  0  0  0  0  0  0  0  0
  -23.7482  -23.8563   18.1775 N   0  0  0  0  0  0  0  0  0  0  0  0
  -25.5642  -24.5865   15.1383 N   0  3  0  0  0  0  0  0  0  0  0  0
  -30.1224  -14.7062   20.2576 O   0  0  0  0  0  0  0  0  0  0  0  0
  -28.9094  -22.7754   23.0247 O   0  0  0  0  0  0  0  0  0  0  0  0
  -22.4730  -27.2317   22.5739 O   0  0  0  0  0  0  0  0  0  0  0  0
  -21.3560  -24.9526   19.3105 O   0  0  0  0  0  0  0  0  0  0  0  0
  -25.8899  -24.7102   17.9302 O   0  0  0  0  0  0  0  0  0  0  0  0
  -22.3424  -14.7422   20.4949 O   0  0  0  0  0  0  0  0  0  0  0  0
  -27.5269  -30.4421   21.2191 O   0  0  0  0  0  0  0  0  0  1  0  0
  -21.6489  -10.6633   24.1399 F   0  0  0  0  0  0  0  0  0  0  0  0
  -23.8756  -12.4456   20.3623 F   0  0  0  0  0  0  0  0  0  0  0  0
  1  2  1  0  0  0  0
  1  5  2  0  0  0  0
  2  6  2  0  0  0  0
  3  8  2  0  0  0  0
  3 18  1  0  0  0  0
  4  9  1  0  0  0  0
  4 18  2  0  0  0  0
  5 21  1  0  0  0  0
  6 23  1  0  0  0  0
  7 10  2  0  0  0  0
  7 22  1  0  0  0  0
  8 27  1  0  0  0  0
  9 27  2  0  0  0  0
 10 28  1  0  0  0  0
 11 12  2  0  0  0  0
 11 29  1  0  0  0  0
 12 30  1  0  0  0  0
 13 19  2  0  0  0  0
 13 25  1  0  0  0  0
 14 19  1  0  0  0  0
 14 26  2  0  0  0  0
 15 24  1  0  0  0  0
 15 28  2  0  0  0  0
 16 25  2  0  0  0  0
 16 26  1  0  0  0  0
 17 30  2  0  0  0  0
 17 31  1  0  0  0  0
 18 32  1  0  0  0  0
 19 34  1  0  0  0  0
 20 32  1  0  0  0  0
 20 33  2  0  0  0  0
 20 36  1  0  0  0  0
 21 23  2  0  0  0  0
 21 41  1  0  0  0  0
 22 24  2  0  0  0  0
 22 42  1  0  0  0  0
 23 50  1  0  0  0  0
 24 43  1  0  0  0  0
 25 53  1  0  0  0  0
 26 59  1  0  0  0  0
 27 79  1  0  0  0  0
 28 80  1  0  0  0  0
 29 31  2  0  0  0  0
 29 79  1  0  0  0  0
 30 81  1  0  0  0  0
 31 82  1  0  0  0  0
 32 65  2  0  0  0  0
 33 66  1  0  0  0  0
 33 69  1  0  0  0  0
 34 35  2  0  0  0  0
 35 37  1  0  0  0  0
 36 70  1  0  0  0  0
 36 74  2  0  0  0  0
 37 67  1  0  0  0  0
 37 75  2  0  0  0  0
 38 51  1  0  0  0  0
 38 71  1  0  0  0  0
 38 76  2  0  0  0  0
 39 62  1  0  0  0  0
 39 68  1  0  0  0  0
 39 77  2  0  0  0  0
 40 63  1  0  0  0  0
 40 72  1  0  0  0  0
 40 78  2  0  0  0  0
 41 44  1  0  0  0  0
 42 51  1  0  0  0  0
 43 68  1  0  0  0  0
 44 46  1  0  0  0  0
 45 47  1  0  0  0  0
 45 48  1  0  0  0  0
 46 50  1  0  0  0  0
 47 52  1  0  0  0  0
 48 67  1  0  0  0  0
 49 52  1  0  0  0  0
 49 67  1  0  0  0  0
 50 71  1  0  0  0  0
 51 68  1  0  0  0  0
 52 66  1  0  0  0  0
 54 63  1  0  0  0  0
 55 64  1  0  0  0  0
 56 64  1  0  0  0  0
 57 64  1  0  0  0  0
 58 73  1  0  0  0  0
 59 60  1  0  0  0  0
 60 61  1  0  0  0  0
 61 80  1  0  0  0  0
 62 64  1  0  0  0  0
 62 72  1  0  0  0  0
 63 73  1  0  0  0  0
 65 66  1  0  0  0  0
M  CHG  1  73   1
M  ISO  4  35 100  37 100  61 101  80 101
M  END
> <Batch ID>
0125

> <Smiles>
CNC(C)C(=O)NC(C(=O)N1Cc2cc([101O:1][101CH2:1]CCc3cc(C)cc(C=[100CH:0][100C:0](=O)N4CCCC(n5nc(-c6ccc(Oc7ccc(F)cc7F)cc6)c(C(N)=O)c5N)C4)c3)ccc2CC1C(=O)NC1CCCc2ccccc21)C(C)(C)C

> <Shape>
0.250

> <Color>
0.068

> <Negative vol penalty>
0.000

$$$$

  -OEChem-04052302093D

 84 92  0     1  0  0  0  0  0999 V2000
  -21.4596  -27.4947   14.4051 C   0  0  0  0  0  0  0  0  0  0  0  0
  -21.3961  -27.7787   15.7655 C   0  0  0  0  0  0  0  0  0  0  0  0
  -23.3694  -13.8610   21.0607 C   0  0  0  0  0  0  0  0  0  0  0  0
  -25.5377  -13.9738   20.0010 C   0  0  0  0  0  0  0  0  0  0  0  0
  -22.4661  -26.6644   13.9138 C   0  0  0  0  0  0  0  0  0  0  0  0
  -22.3384  -27.2315   16.6356 C   0  0  0  0  0  0  0  0  0  0  0  0
  -24.1228  -30.6210   19.9481 C   0  0  0  0  0  0  0  0  0  0  0  0
  -23.2412  -12.5321   20.6568 C   0  0  0  0  0  0  0  0  0  0  0  0
  -25.4095  -12.6449   19.5971 C   0  0  0  0  0  0  0  0  0  0  0  0
  -23.3108  -30.9356   21.0369 C   0  0  0  0  0  0  0  0  0  0  0  0
  -22.5000   -9.0007   20.2149 C   0  0  0  0  0  0  0  0  0  0  0  0
  -22.0319   -8.0802   21.1525 C   0  0  0  0  0  0  0  0  0  0  0  0
  -24.6061  -29.4475   22.4251 C   0  0  0  0  0  0  0  0  0  0  0  0
  -19.1156  -26.5858   21.4254 C   0  0  0  0  0  0  0  0  0  0  0  0
  -20.9641  -27.5401   22.6539 C   0  0  0  0  0  0  0  0  0  0  0  0
  -23.9106   -8.5846   22.5855 C   0  0  0  0  0  0  0  0  0  0  0  0
  -24.5177  -14.5819   20.7327 C   0  0  0  0  0  0  0  0  0  0  0  0
  -25.2128  -16.4284   22.3497 C   0  0  0  0  0  0  0  0  0  0  0  0
  -23.4270  -26.1145   14.7769 C   0  0  0  0  0  0  0  0  0  0  0  0
  -25.1775  -29.7074   20.0873 C   0  0  0  0  0  0  0  0  0  0  0  0
  -23.3579  -26.3919   16.1555 C   0  0  0  0  0  0  0  0  0  0  0  0
  -25.4315  -29.1249   21.3372 C   0  0  0  0  0  0  0  0  0  0  0  0
  -20.4887  -26.7208   21.6299 C   0  0  0  0  0  0  0  0  0  0  0  0
  -18.2178  -27.2701   22.2448 C   0  0  0  0  0  0  0  0  0  0  0  0
  -20.0663  -28.2243   23.4733 C   0  0  0  0  0  0  0  0  0  0  0  0
  -18.6932  -28.0893   23.2688 C   0  0  0  0  0  0  0  0  0  0  0  0
  -24.2612  -11.9240   19.9250 C   0  0  0  0  0  0  0  0  0  0  0  0
  -23.5506  -30.3467   22.2750 C   0  0  0  0  0  0  0  0  0  0  0  0
  -23.6735   -9.7131   20.4625 C   0  0  0  0  0  0  0  0  0  0  0  0
  -22.7372   -7.8722   22.3378 C   0  0  0  0  0  0  0  0  0  0  0  0
  -24.3787   -9.5051   21.6478 C   0  0  0  0  0  0  0  0  0  0  0  0
  -24.6505  -15.9549   21.1492 C   0  0  0  0  0  0  0  0  0  0  0  0
  -25.1015  -17.7948   22.2655 C   0  0  0  0  0  0  0  0  0  0  0  0
  -21.6183  -23.4920   20.5878 C   0  0  0  0  0  0  0  0  0  0  0  0
  -21.8052  -24.6221   21.2799 C   0  0  0  0  0  0  0  0  0  0  0  0
  -25.7847  -15.6985   23.4433 C   0  0  0  0  0  0  0  0  0  0  0  0
  -22.0092  -22.2079   21.2034 C   0  0  0  0  0  0  0  0  0  0  0  0
  -25.8852  -26.8861   18.8054 C   0  0  0  0  0  0  0  0  0  0  0  0
  -28.6574  -27.2741   20.4445 C   0  0  0  0  0  0  0  0  0  0  0  0
  -30.2998  -28.7371   23.0539 C   0  0  0  0  0  0  0  0  0  0  0  0
  -24.4681  -25.1844   14.2060 C   0  0  0  0  0  0  0  0  0  0  0  0
  -26.0608  -29.3989   18.9095 C   0  0  0  0  0  0  0  0  0  0  0  0
  -26.5637  -28.1534   21.5440 C   0  0  0  0  0  0  0  0  0  0  0  0
  -25.6507  -24.9464   15.1414 C   0  0  0  0  0  0  0  0  0  0  0  0
  -23.8734  -20.7788   18.3901 C   0  0  0  0  0  0  0  0  0  0  0  0
  -25.1616  -24.6506   16.5557 C   0  0  0  0  0  0  0  0  0  0  0  0
  -24.2456  -19.4086   18.9503 C   0  0  0  0  0  0  0  0  0  0  0  0
  -22.5087  -21.2496   18.8907 C   0  0  0  0  0  0  0  0  0  0  0  0
  -22.7578  -19.8751   20.9375 C   0  0  0  0  0  0  0  0  0  0  0  0
  -24.3766  -25.8373   17.1275 C   0  0  1  0  0  0  0  0  0  0  0  0
  -26.7876  -28.0641   19.0411 C   0  0  1  0  0  0  0  0  0  0  0  0
  -24.1480  -19.4027   20.4841 C   0  0  1  0  0  0  0  0  0  0  0  0
  -16.7522  -27.1075   22.0055 C   0  0  0  0  0  0  0  0  0  0  0  0
  -17.7303  -28.8225   24.1475 C   0  0  0  0  0  0  0  0  0  0  0  0
  -32.5502  -28.8326   24.1602 C   0  0  0  0  0  0  0  0  0  0  0  0
  -28.1590  -24.5334   21.6895 C   0  0  0  0  0  0  0  0  0  0  0  0
  -29.8653  -25.0928   23.4341 C   0  0  0  0  0  0  0  0  0  0  0  0
  -30.5335  -24.9653   21.0341 C   0  0  0  0  0  0  0  0  0  0  0  0
  -30.5540  -31.6420   22.5482 C   0  0  0  0  0  0  0  0  0  0  0  0
  -21.4486  -25.9898   20.7534 C   0  0  0  0  0  0  0  0  0  0  0  0
  -20.6059  -29.1034   24.5732 C   0  0  0  0  0  0  0  0  0  0  0  0
  -20.5418  -30.5986   24.2539 C   0  0  0  0  0  0  0  0  0  0  0  0
  -21.4032  -30.9990   23.0618 C   0  0  0  0  0  0  0  0  0  1  0  0
  -29.1388  -26.9179   21.8303 C   0  0  1  0  0  0  0  0  0  0  0  0
  -31.6307  -29.4636   23.1262 C   0  0  2  0  0  0  0  0  0  0  0  0
  -29.4016  -25.3941   21.9929 C   0  0  0  0  0  0  0  0  0  0  0  0
  -24.2142  -16.9403   20.3602 N   0  0  0  0  0  0  0  0  0  0  0  0
  -24.5023  -18.0468   21.0665 N   0  0  0  0  0  0  0  0  0  0  0  0
  -22.4197  -21.1795   20.3570 N   0  0  0  0  0  0  0  0  0  0  0  0
  -27.3953  -27.8791   20.3605 N   0  0  0  0  0  0  0  0  0  0  0  0
  -25.4586  -18.7933   23.1009 N   0  0  0  0  0  0  0  0  0  0  0  0
  -25.8195  -14.2995   23.3672 N   0  0  0  0  0  0  0  0  0  0  0  0
  -25.2817  -26.8796   17.5623 N   0  0  0  0  0  0  0  0  0  0  0  0
  -30.3055  -27.7560   22.0850 N   0  0  0  0  0  0  0  0  0  0  0  0
  -31.4214  -30.8927   23.4933 N   0  3  0  0  0  0  0  0  0  0  0  0
  -26.2362  -16.2692   24.4650 O   0  0  0  0  0  0  0  0  0  0  0  0
  -21.9436  -22.1225   22.4310 O   0  0  0  0  0  0  0  0  0  0  0  0
  -25.7477  -26.0446   19.6855 O   0  0  0  0  0  0  0  0  0  0  0  0
  -29.3777  -27.0312   19.4730 O   0  0  0  0  0  0  0  0  0  0  0  0
  -29.3513  -29.0098   23.7863 O   0  0  0  0  0  0  0  0  0  0  0  0
  -24.1365  -10.6272   19.5309 O   0  0  0  0  0  0  0  0  0  0  0  0
  -22.7592  -30.6515   23.3392 O   0  0  0  0  0  0  0  0  0  1  0  0
  -22.2867   -6.9893   23.2388 F   0  0  0  0  0  0  0  0  0  0  0  0
  -25.5060  -10.1874   21.8918 F   0  0  0  0  0  0  0  0  0  0  0  0
  1  2  1  0  0  0  0
  1  5  2  0  0  0  0
  2  6  2  0  0  0  0
  3  8  2  0  0  0  0
  3 17  1  0  0  0  0
  4  9  1  0  0  0  0
  4 17  2  0  0  0  0
  5 19  1  0  0  0  0
  6 21  1  0  0  0  0
  7 10  2  0  0  0  0
  7 20  1  0  0  0  0
  8 27  1  0  0  0  0
  9 27  2  0  0  0  0
 10 28  1  0  0  0  0
 11 12  2  0  0  0  0
 11 29  1  0  0  0  0
 12 30  1  0  0  0  0
 13 22  1  0  0  0  0
 13 28  2  0  0  0  0
 14 23  1  0  0  0  0
 14 24  2  0  0  0  0
 15 23  2  0  0  0  0
 15 25  1  0  0  0  0
 16 30  2  0  0  0  0
 16 31  1  0  0  0  0
 17 32  1  0  0  0  0
 18 32  1  0  0  0  0
 18 33  2  0  0  0  0
 18 36  1  0  0  0  0
 19 21  2  0  0  0  0
 19 41  1  0  0  0  0
 20 22  2  0  0  0  0
 20 42  1  0  0  0  0
 21 50  1  0  0  0  0
 22 43  1  0  0  0  0
 23 60  1  0  0  0  0
 24 26  1  0  0  0  0
 24 53  1  0  0  0  0
 25 26  2  0  0  0  0
 25 61  1  0  0  0  0
 26 54  1  0  0  0  0
 27 81  1  0  0  0  0
 28 82  1  0  0  0  0
 29 31  2  0  0  0  0
 29 81  1  0  0  0  0
 30 83  1  0  0  0  0
 31 84  1  0  0  0  0
 32 67  2  0  0  0  0
 33 68  1  0  0  0  0
 33 71  1  0  0  0  0
 34 35  2  0  0  0  0
 34 37  1  0  0  0  0
 35 60  1  0  0  0  0
 36 72  1  0  0  0  0
 36 76  2  0  0  0  0
 37 69  1  0  0  0  0
 37 77  2  0  0  0  0
 38 51  1  0  0  0  0
 38 73  1  0  0  0  0
 38 78  2  0  0  0  0
 39 64  1  0  0  0  0
 39 70  1  0  0  0  0
 39 79  2  0  0  0  0
 40 65  1  0  0  0  0
 40 74  1  0  0  0  0
 40 80  2  0  0  0  0
 41 44  1  0  0  0  0
 42 51  1  0  0  0  0
 43 70  1  0  0  0  0
 44 46  1  0  0  0  0
 45 47  1  0  0  0  0
 45 48  1  0  0  0  0
 46 50  1  0  0  0  0
 47 52  1  0  0  0  0
 48 69  1  0  0  0  0
 49 52  1  0  0  0  0
 49 69  1  0  0  0  0
 50 73  1  0  0  0  0
 51 70  1  0  0  0  0
 52 68  1  0  0  0  0
 55 65  1  0  0  0  0
 56 66  1  0  0  0  0
 57 66  1  0  0  0  0
 58 66  1  0  0  0  0
 59 75  1  0  0  0  0
 61 62  1  0  0  0  0
 62 63  1  0  0  0  0
 63 82  1  0  0  0  0
 64 66  1  0  0  0  0
 64 74  1  0  0  0  0
 65 75  1  0  0  0  0
 67 68  1  0  0  0  0
M  CHG  1  75   1
M  ISO  4  34 100  37 100  63 101  82 101
M  END
> <Batch ID>
0125

> <Smiles>
CNC(C)C(=O)NC(C(=O)N1Cc2cc([101O:1][101CH2:1]CCc3cc(CC=[100CH:0][100C:0](=O)N4CCCC(n5nc(-c6ccc(Oc7ccc(F)cc7F)cc6)c(C(N)=O)c5N)C4)cc(C)c3C)ccc2CC1C(=O)NC1CCCc2ccccc21)C(C)(C)C

> <Shape>
0.222

> <Color>
0.080

> <Negative vol penalty>
0.000

$$$$

  -OEChem-04052302093D

 84 92  0     1  0  0  0  0  0999 V2000
  -24.0794  -21.1771   37.6355 C   0  0  0  0  0  0  0  0  0  0  0  0
  -24.4238  -20.7920   36.3438 C   0  0  0  0  0  0  0  0  0  0  0  0
  -23.0735   -9.8699   19.9416 C   0  0  0  0  0  0  0  0  0  0  0  0
  -23.8315   -9.8780   22.2356 C   0  0  0  0  0  0  0  0  0  0  0  0
  -25.0743  -21.3690   38.5932 C   0  0  0  0  0  0  0  0  0  0  0  0
  -25.7637  -20.5996   36.0087 C   0  0  0  0  0  0  0  0  0  0  0  0
  -28.0238  -16.4597   32.1024 C   0  0  0  0  0  0  0  0  0  0  0  0
  -22.3284   -8.7177   20.1919 C   0  0  0  0  0  0  0  0  0  0  0  0
  -23.0864   -8.7258   22.4859 C   0  0  0  0  0  0  0  0  0  0  0  0
  -28.4175  -16.5464   30.7678 C   0  0  0  0  0  0  0  0  0  0  0  0
  -19.9407   -5.9795   20.3205 C   0  0  0  0  0  0  0  0  0  0  0  0
  -18.6353   -5.9323   19.8311 C   0  0  0  0  0  0  0  0  0  0  0  0
  -30.7036  -16.8648   31.4691 C   0  0  0  0  0  0  0  0  0  0  0  0
  -31.8953  -18.3431   24.1890 C   0  0  0  0  0  0  0  0  0  0  0  0
  -32.0663  -16.5889   22.5366 C   0  0  0  0  0  0  0  0  0  0  0  0
  -18.0708   -7.8767   21.1494 C   0  0  0  0  0  0  0  0  0  0  0  0
  -23.8251  -10.4501   20.9635 C   0  0  0  0  0  0  0  0  0  0  0  0
  -24.1693  -12.9749   20.8417 C   0  0  0  0  0  0  0  0  0  0  0  0
  -26.4263  -21.1695   38.2723 C   0  0  0  0  0  0  0  0  0  0  0  0
  -28.9671  -16.5861   33.1324 C   0  0  0  0  0  0  0  0  0  0  0  0
  -26.7778  -20.7903   36.9627 C   0  0  0  0  0  0  0  0  0  0  0  0
  -30.3197  -16.7768   32.8159 C   0  0  0  0  0  0  0  0  0  0  0  0
  -30.5079  -18.3430   24.0456 C   0  0  0  0  0  0  0  0  0  0  0  0
  -29.8996  -17.4658   23.1478 C   0  0  0  0  0  0  0  0  0  0  0  0
  -30.6788  -16.5887   22.3932 C   0  0  0  0  0  0  0  0  0  0  0  0
  -22.3348   -8.1456   21.4640 C   0  0  0  0  0  0  0  0  0  0  0  0
  -29.7571  -16.7519   30.4510 C   0  0  0  0  0  0  0  0  0  0  0  0
  -20.3111   -6.9753   21.2243 C   0  0  0  0  0  0  0  0  0  0  0  0
  -17.7004   -6.8809   20.2455 C   0  0  0  0  0  0  0  0  0  0  0  0
  -32.6746  -17.4661   23.4344 C   0  0  0  0  0  0  0  0  0  0  0  0
  -19.3762   -7.9239   21.6387 C   0  0  0  0  0  0  0  0  0  0  0  0
  -24.5955  -11.6401   20.7054 C   0  0  0  0  0  0  0  0  0  0  0  0
  -25.2624  -13.7231   20.4788 C   0  0  0  0  0  0  0  0  0  0  0  0
  -22.8989  -13.4921   21.2592 C   0  0  0  0  0  0  0  0  0  0  0  0
  -29.4057  -18.6201   35.5353 C   0  0  0  0  0  0  0  0  0  0  0  0
  -31.7581  -16.5413   36.3520 C   0  0  0  0  0  0  0  0  0  0  0  0
  -33.9588  -14.1249   35.3697 C   0  0  0  0  0  0  0  0  0  0  0  0
  -30.7294  -14.7640   20.6571 C   0  0  0  0  0  0  0  0  0  0  0  0
  -27.4699  -21.4350   39.3283 C   0  0  0  0  0  0  0  0  0  0  0  0
  -28.5302  -16.4635   34.5665 C   0  0  0  0  0  0  0  0  0  0  0  0
  -31.3745  -16.8986   33.8841 C   0  0  0  0  0  0  0  0  0  0  0  0
  -28.8382  -20.8467   38.9939 C   0  0  0  0  0  0  0  0  0  0  0  0
  -29.6147  -12.3493   18.2898 C   0  0  0  0  0  0  0  0  0  0  0  0
  -29.2186  -21.1660   37.5516 C   0  0  0  0  0  0  0  0  0  0  0  0
  -28.1745  -12.0593   18.7184 C   0  0  0  0  0  0  0  0  0  0  0  0
  -30.5291  -12.5782   19.4920 C   0  0  0  0  0  0  0  0  0  0  0  0
  -28.6217  -13.3055   20.8712 C   0  0  0  0  0  0  0  0  0  0  0  0
  -28.2183  -20.5477   36.5675 C   0  0  1  0  0  0  0  0  0  0  0  0
  -29.4993  -17.1205   35.5445 C   0  0  1  0  0  0  0  0  0  0  0  0
  -27.6496  -13.1321   19.6927 C   0  0  2  0  0  0  0  0  0  0  0  0
  -27.9621  -18.1850   21.7282 C   0  0  0  0  0  0  0  0  0  0  0  0
  -35.7788  -12.6408   36.2542 C   0  0  0  0  0  0  0  0  0  0  0  0
  -33.6707  -18.9182   36.3978 C   0  0  0  0  0  0  0  0  0  0  0  0
  -35.5771  -17.2964   36.3378 C   0  0  0  0  0  0  0  0  0  0  0  0
  -33.9920  -17.2846   38.2639 C   0  0  0  0  0  0  0  0  0  0  0  0
  -32.4664  -11.6719   34.6526 C   0  0  0  0  0  0  0  0  0  0  0  0
  -29.6892  -19.3001   24.8749 C   0  0  0  0  0  0  0  0  0  0  0  0
  -28.4105  -17.4689   22.9971 C   0  0  0  0  0  0  0  0  0  0  0  0
  -28.9738  -18.6385   26.0580 C   0  0  0  0  0  0  0  0  0  0  0  0
  -29.9388  -18.0413   27.0831 C   0  0  0  0  0  0  0  0  0  0  0  0
  -29.1929  -17.3591   28.2219 C   0  0  0  0  0  0  0  0  0  1  0  0
  -33.2247  -16.4031   36.0220 C   0  0  1  0  0  0  0  0  0  0  0  0
  -34.2922  -12.7663   35.9592 C   0  0  2  0  0  0  0  0  0  0  0  0
  -34.0962  -17.4752   36.7351 C   0  0  0  0  0  0  0  0  0  0  0  0
  -25.8606  -11.5428   20.2882 N   0  0  0  0  0  0  0  0  0  0  0  0
  -26.2387  -12.8260   20.1592 N   0  0  0  0  0  0  0  0  0  0  0  0
  -30.8967  -16.7783   35.2714 N   0  0  0  0  0  0  0  0  0  0  0  0
  -29.9703  -13.6102   20.3681 N   0  0  0  0  0  0  0  0  0  0  0  0
  -25.4741  -15.0543   20.4049 N   0  0  0  0  0  0  0  0  0  0  0  0
  -21.8859  -12.5841   21.5964 N   0  0  0  0  0  0  0  0  0  0  0  0
  -30.0822  -15.6902   21.4742 N   0  0  0  0  0  0  0  0  0  0  0  0
  -28.4698  -19.1307   36.4145 N   0  0  0  0  0  0  0  0  0  0  0  0
  -33.5877  -15.0273   36.3441 N   0  0  0  0  0  0  0  0  0  0  0  0
  -33.9079  -11.6821   35.0117 N   0  3  0  0  0  0  0  0  0  0  0  0
  -22.6637  -14.7230   21.3154 O   0  0  0  0  0  0  0  0  0  0  0  0
  -30.1299  -19.2661   34.7871 O   0  0  0  0  0  0  0  0  0  0  0  0
  -31.3895  -16.4355   37.5244 O   0  0  0  0  0  0  0  0  0  0  0  0
  -34.0248  -14.3630   34.1658 O   0  0  0  0  0  0  0  0  0  0  0  0
  -31.8590  -14.9313   20.1903 O   0  0  0  0  0  0  0  0  0  0  0  0
  -21.6076   -7.0213   21.7086 O   0  0  0  0  0  0  0  0  0  0  0  0
  -30.1440  -16.8376   29.1491 O   0  0  0  0  0  0  0  0  0  1  0  0
  -16.4474   -6.8364   19.7744 F   0  0  0  0  0  0  0  0  0  0  0  0
  -34.0071  -17.4676   23.5703 F   0  0  0  0  0  0  0  0  0  0  0  0
  -19.7265   -8.8836   22.5059 F   0  0  0  0  0  0  0  0  0  0  0  0
  1  2  1  0  0  0  0
  1  5  2  0  0  0  0
  2  6  2  0  0  0  0
  3  8  2  0  0  0  0
  3 17  1  0  0  0  0
  4  9  1  0  0  0  0
  4 17  2  0  0  0  0
  5 19  1  0  0  0  0
  6 21  1  0  0  0  0
  7 10  2  0  0  0  0
  7 20  1  0  0  0  0
  8 26  1  0  0  0  0
  9 26  2  0  0  0  0
 10 27  1  0  0  0  0
 11 12  2  0  0  0  0
 11 28  1  0  0  0  0
 12 29  1  0  0  0  0
 13 22  1  0  0  0  0
 13 27  2  0  0  0  0
 14 23  2  0  0  0  0
 14 30  1  0  0  0  0
 15 25  1  0  0  0  0
 15 30  2  0  0  0  0
 16 29  2  0  0  0  0
 16 31  1  0  0  0  0
 17 32  1  0  0  0  0
 18 32  1  0  0  0  0
 18 33  2  0  0  0  0
 18 34  1  0  0  0  0
 19 21  2  0  0  0  0
 19 39  1  0  0  0  0
 20 22  2  0  0  0  0
 20 40  1  0  0  0  0
 21 48  1  0  0  0  0
 22 41  1  0  0  0  0
 23 24  1  0  0  0  0
 23 57  1  0  0  0  0
 24 25  2  0  0  0  0
 24 58  1  0  0  0  0
 25 71  1  0  0  0  0
 26 80  1  0  0  0  0
 27 81  1  0  0  0  0
 28 31  2  0  0  0  0
 28 80  1  0  0  0  0
 29 82  1  0  0  0  0
 30 83  1  0  0  0  0
 31 84  1  0  0  0  0
 32 65  2  0  0  0  0
 33 66  1  0  0  0  0
 33 69  1  0  0  0  0
 34 70  1  0  0  0  0
 34 75  2  0  0  0  0
 35 49  1  0  0  0  0
 35 72  1  0  0  0  0
 35 76  2  0  0  0  0
 36 62  1  0  0  0  0
 36 67  1  0  0  0  0
 36 77  2  0  0  0  0
 37 63  1  0  0  0  0
 37 73  1  0  0  0  0
 37 78  2  0  0  0  0
 38 68  1  0  0  0  0
 38 71  1  0  0  0  0
 38 79  2  0  0  0  0
 39 42  1  0  0  0  0
 40 49  1  0  0  0  0
 41 67  1  0  0  0  0
 42 44  1  0  0  0  0
 43 45  1  0  0  0  0
 43 46  1  0  0  0  0
 44 48  1  0  0  0  0
 45 50  1  0  0  0  0
 46 68  1  0  0  0  0
 47 50  1  0  0  0  0
 47 68  1  0  0  0  0
 48 72  1  0  0  0  0
 49 67  1  0  0  0  0
 50 66  1  0  0  0  0
 51 58  1  0  0  0  0
 52 63  1  0  0  0  0
 53 64  1  0  0  0  0
 54 64  1  0  0  0  0
 55 64  1  0  0  0  0
 56 74  1  0  0  0  0
 57 59  1  0  0  0  0
 59 60  1  0  0  0  0
 60 61  1  0  0  0  0
 61 81  1  0  0  0  0
 62 64  1  0  0  0  0
 62 73  1  0  0  0  0
 63 74  1  0  0  0  0
 65 66  1  0  0  0  0
M  CHG  1  74   1
M  ISO  4  38 100  61 101  71 100  81 101
M  END
> <Batch ID>
0125

> <Smiles>
CCc1c(CCC[101CH2:1][101O:1]c2ccc3c(c2)CN(C(=O)C(NC(=O)C(C)NC)C(C)(C)C)C(C(=O)NC2CCCc4ccccc42)C3)cc(F)cc1[100NH:0][100C:0](=O)N1CCCC(n2nc(-c3ccc(Oc4ccc(F)cc4F)cc3)c(C(N)=O)c2N)C1

> <Shape>
0.150

> <Color>
0.196

> <Negative vol penalty>
0.000

$$$$

  -OEChem-04052302093D

 83 91  0     1  0  0  0  0  0999 V2000
  -29.8872  -24.3457   18.4374 C   0  0  0  0  0  0  0  0  0  0  0  0
  -28.7370  -25.0752   18.1585 C   0  0  0  0  0  0  0  0  0  0  0  0
  -27.5837  -16.0734   22.1078 C   0  0  0  0  0  0  0  0  0  0  0  0
  -25.7877  -16.6956   20.6164 C   0  0  0  0  0  0  0  0  0  0  0  0
  -30.4128  -24.3467   19.7277 C   0  0  0  0  0  0  0  0  0  0  0  0
  -28.1188  -25.8155   19.1669 C   0  0  0  0  0  0  0  0  0  0  0  0
  -22.9473  -29.0373   19.1129 C   0  0  0  0  0  0  0  0  0  0  0  0
  -27.4921  -14.7531   21.6673 C   0  0  0  0  0  0  0  0  0  0  0  0
  -25.6961  -15.3753   20.1758 C   0  0  0  0  0  0  0  0  0  0  0  0
  -21.5990  -28.8240   19.3961 C   0  0  0  0  0  0  0  0  0  0  0  0
  -28.4880  -12.9463   18.9884 C   0  0  0  0  0  0  0  0  0  0  0  0
  -29.6759  -12.2782   18.6915 C   0  0  0  0  0  0  0  0  0  0  0  0
  -21.9270  -29.7279   21.6085 C   0  0  0  0  0  0  0  0  0  0  0  0
  -20.6556  -25.2861   21.3532 C   0  0  0  0  0  0  0  0  0  0  0  0
  -20.6910  -24.5793   24.0517 C   0  0  0  0  0  0  0  0  0  0  0  0
  -29.1642  -10.6210   20.3734 C   0  0  0  0  0  0  0  0  0  0  0  0
  -26.7314  -17.0446   21.5824 C   0  0  0  0  0  0  0  0  0  0  0  0
  -27.6275  -19.4316   21.4978 C   0  0  0  0  0  0  0  0  0  0  0  0
  -29.7931  -25.0776   20.7547 C   0  0  0  0  0  0  0  0  0  0  0  0
  -23.7995  -29.5884   20.0807 C   0  0  0  0  0  0  0  0  0  0  0  0
  -28.6477  -25.8484   20.4699 C   0  0  0  0  0  0  0  0  0  0  0  0
  -23.2852  -29.9496   21.3341 C   0  0  0  0  0  0  0  0  0  0  0  0
  -21.7311  -24.5645   21.8711 C   0  0  0  0  0  0  0  0  0  0  0  0
  -19.5978  -25.6543   22.1846 C   0  0  0  0  0  0  0  0  0  0  0  0
  -21.7488  -24.2111   23.2204 C   0  0  0  0  0  0  0  0  0  0  0  0
  -26.5484  -14.4041   20.7013 C   0  0  0  0  0  0  0  0  0  0  0  0
  -21.0893  -29.1666   20.6451 C   0  0  0  0  0  0  0  0  0  0  0  0
  -27.6383  -12.4518   19.9779 C   0  0  0  0  0  0  0  0  0  0  0  0
  -30.0140  -11.1155   19.3839 C   0  0  0  0  0  0  0  0  0  0  0  0
  -19.6155  -25.3009   23.5338 C   0  0  0  0  0  0  0  0  0  0  0  0
  -27.9764  -11.2892   20.6704 C   0  0  0  0  0  0  0  0  0  0  0  0
  -26.8251  -18.4085   22.0375 C   0  0  0  0  0  0  0  0  0  0  0  0
  -27.3573  -20.5283   22.2793 C   0  0  0  0  0  0  0  0  0  0  0  0
  -28.5357  -19.3940   20.3890 C   0  0  0  0  0  0  0  0  0  0  0  0
  -26.3991  -28.5876   21.6117 C   0  0  0  0  0  0  0  0  0  0  0  0
  -26.4157  -31.6212   22.7603 C   0  0  0  0  0  0  0  0  0  0  0  0
  -24.6582  -34.4574   23.4770 C   0  0  0  0  0  0  0  0  0  0  0  0
  -22.9882  -23.0572   25.0856 C   0  0  0  0  0  0  0  0  0  0  0  0
  -30.4091  -25.0497   22.1313 C   0  0  0  0  0  0  0  0  0  0  0  0
  -25.2457  -29.8369   19.7502 C   0  0  0  0  0  0  0  0  0  0  0  0
  -24.1538  -30.5630   22.4008 C   0  0  0  0  0  0  0  0  0  0  0  0
  -29.4437  -25.4981   23.2237 C   0  0  0  0  0  0  0  0  0  0  0  0
  -25.4901  -21.2030   26.8116 C   0  0  0  0  0  0  0  0  0  0  0  0
  -28.7839  -26.8105   22.8276 C   0  0  0  0  0  0  0  0  0  0  0  0
  -26.1690  -20.3927   25.7049 C   0  0  0  0  0  0  0  0  0  0  0  0
  -23.9868  -21.3373   26.5753 C   0  0  0  0  0  0  0  0  0  0  0  0
  -24.2888  -21.0461   24.1477 C   0  0  0  0  0  0  0  0  0  0  0  0
  -27.9409  -26.6365   21.5579 C   0  0  1  0  0  0  0  0  0  0  0  0
  -26.1340  -29.9283   20.9871 C   0  0  1  0  0  0  0  0  0  0  0  0
  -25.8140  -20.9388   24.3080 C   0  0  2  0  0  0  0  0  0  0  0  0
  -24.0775  -25.0699   21.1460 C   0  0  0  0  0  0  0  0  0  0  0  0
  -24.9371  -36.7563   24.4438 C   0  0  0  0  0  0  0  0  0  0  0  0
  -26.5284  -30.4253   25.5651 C   0  0  0  0  0  0  0  0  0  0  0  0
  -25.8530  -32.6601   26.4696 C   0  0  0  0  0  0  0  0  0  0  0  0
  -27.9991  -32.4186   25.2211 C   0  0  0  0  0  0  0  0  0  0  0  0
  -23.8073  -35.7482   20.9533 C   0  0  0  0  0  0  0  0  0  0  0  0
  -22.8507  -24.1833   20.9575 C   0  0  0  0  0  0  0  0  0  0  0  0
  -18.4364  -26.4341   21.6218 C   0  0  0  0  0  0  0  0  0  0  0  0
  -18.2081  -27.7817   22.3099 C   0  0  0  0  0  0  0  0  0  0  0  0
  -19.4332  -28.6883   22.2836 C   0  0  0  0  0  0  0  0  0  1  0  0
  -25.8117  -32.3144   23.9576 C   0  0  1  0  0  0  0  0  0  0  0  0
  -24.9370  -35.9187   23.1745 C   0  0  2  0  0  0  0  0  0  0  0  0
  -26.5318  -31.9413   25.2841 C   0  0  0  0  0  0  0  0  0  0  0  0
  -26.0997  -18.8187   23.0814 N   0  0  0  0  0  0  0  0  0  0  0  0
  -26.4453  -20.1116   23.2038 N   0  0  0  0  0  0  0  0  0  0  0  0
  -25.5624  -30.7804   22.0318 N   0  0  0  0  0  0  0  0  0  0  0  0
  -23.7268  -21.8642   25.2339 N   0  0  0  0  0  0  0  0  0  0  0  0
  -27.8133  -21.7987   22.2590 N   0  0  0  0  0  0  0  0  0  0  0  0
  -28.6941  -18.1862   19.6957 N   0  0  0  0  0  0  0  0  0  0  0  0
  -22.8324  -23.4786   23.7654 N   0  0  0  0  0  0  0  0  0  0  0  0
  -27.5050  -27.9369   21.0988 N   0  0  0  0  0  0  0  0  0  0  0  0
  -25.8231  -33.7409   23.6523 N   0  0  0  0  0  0  0  0  0  0  0  0
  -23.9010  -36.4635   22.2520 N   0  3  0  0  0  0  0  0  0  0  0  0
  -29.1999  -20.3972   20.0342 O   0  0  0  0  0  0  0  0  0  0  0  0
  -25.6563  -28.1749   22.4946 O   0  0  0  0  0  0  0  0  0  0  0  0
  -27.5992  -31.8241   22.4774 O   0  0  0  0  0  0  0  0  0  0  0  0
  -23.5207  -33.9984   23.5540 O   0  0  0  0  0  0  0  0  0  0  0  0
  -22.5511  -23.6753   26.0597 O   0  0  0  0  0  0  0  0  0  0  0  0
  -26.4589  -13.1159   20.2710 O   0  0  0  0  0  0  0  0  0  0  0  0
  -19.7737  -28.9589   20.9244 O   0  0  0  0  0  0  0  0  0  1  0  0
  -31.1540  -10.4732   19.0976 F   0  0  0  0  0  0  0  0  0  0  0  0
  -18.6036  -25.6503   24.3403 F   0  0  0  0  0  0  0  0  0  0  0  0
  -27.1634  -10.8087   21.6212 F   0  0  0  0  0  0  0  0  0  0  0  0
  1  2  1  0  0  0  0
  1  5  2  0  0  0  0
  2  6  2  0  0  0  0
  3  8  2  0  0  0  0
  3 17  1  0  0  0  0
  4  9  1  0  0  0  0
  4 17  2  0  0  0  0
  5 19  1  0  0  0  0
  6 21  1  0  0  0  0
  7 10  2  0  0  0  0
  7 20  1  0  0  0  0
  8 26  1  0  0  0  0
  9 26  2  0  0  0  0
 10 27  1  0  0  0  0
 11 12  2  0  0  0  0
 11 28  1  0  0  0  0
 12 29  1  0  0  0  0
 13 22  1  0  0  0  0
 13 27  2  0  0  0  0
 14 23  1  0  0  0  0
 14 24  2  0  0  0  0
 15 25  1  0  0  0  0
 15 30  2  0  0  0  0
 16 29  2  0  0  0  0
 16 31  1  0  0  0  0
 17 32  1  0  0  0  0
 18 32  1  0  0  0  0
 18 33  2  0  0  0  0
 18 34  1  0  0  0  0
 19 21  2  0  0  0  0
 19 39  1  0  0  0  0
 20 22  2  0  0  0  0
 20 40  1  0  0  0  0
 21 48  1  0  0  0  0
 22 41  1  0  0  0  0
 23 25  2  0  0  0  0
 23 57  1  0  0  0  0
 24 30  1  0  0  0  0
 24 58  1  0  0  0  0
 25 70  1  0  0  0  0
 26 79  1  0  0  0  0
 27 80  1  0  0  0  0
 28 31  2  0  0  0  0
 28 79  1  0  0  0  0
 29 81  1  0  0  0  0
 30 82  1  0  0  0  0
 31 83  1  0  0  0  0
 32 64  2  0  0  0  0
 33 65  1  0  0  0  0
 33 68  1  0  0  0  0
 34 69  1  0  0  0  0
 34 74  2  0  0  0  0
 35 49  1  0  0  0  0
 35 71  1  0  0  0  0
 35 75  2  0  0  0  0
 36 61  1  0  0  0  0
 36 66  1  0  0  0  0
 36 76  2  0  0  0  0
 37 62  1  0  0  0  0
 37 72  1  0  0  0  0
 37 77  2  0  0  0  0
 38 67  1  0  0  0  0
 38 70  1  0  0  0  0
 38 78  2  0  0  0  0
 39 42  1  0  0  0  0
 40 49  1  0  0  0  0
 41 66  1  0  0  0  0
 42 44  1  0  0  0  0
 43 45  1  0  0  0  0
 43 46  1  0  0  0  0
 44 48  1  0  0  0  0
 45 50  1  0  0  0  0
 46 67  1  0  0  0  0
 47 50  1  0  0  0  0
 47 67  1  0  0  0  0
 48 71  1  0  0  0  0
 49 66  1  0  0  0  0
 50 65  1  0  0  0  0
 51 57  1  0  0  0  0
 52 62  1  0  0  0  0
 53 63  1  0  0  0  0
 54 63  1  0  0  0  0
 55 63  1  0  0  0  0
 56 73  1  0  0  0  0
 58 59  1  0  0  0  0
 59 60  1  0  0  0  0
 60 80  1  0  0  0  0
 61 63  1  0  0  0  0
 61 72  1  0  0  0  0
 62 73  1  0  0  0  0
 64 65  1  0  0  0  0
M  CHG  1  73   1
M  ISO  4  38 100  60 101  70 100  80 101
M  END
> <Batch ID>
0125

> <Smiles>
CCc1cc(CC[101CH2:1][101O:1]c2ccc3c(c2)CN(C(=O)C(NC(=O)C(C)NC)C(C)(C)C)C(C(=O)NC2CCCc4ccccc42)C3)c(F)cc1[100NH:0][100C:0](=O)N1CCCC(n2nc(-c3ccc(Oc4ccc(F)cc4F)cc3)c(C(N)=O)c2N)C1

> <Shape>
0.300

> <Color>
0.076

> <Negative vol penalty>
0.000

$$$$

  -OEChem-04052302093D

 84 92  0     1  0  0  0  0  0999 V2000
  -21.0728  -29.5288   27.9891 C   0  0  0  0  0  0  0  0  0  0  0  0
  -22.0470  -28.7749   27.3427 C   0  0  0  0  0  0  0  0  0  0  0  0
  -23.2988   -9.6668   19.9969 C   0  0  0  0  0  0  0  0  0  0  0  0
  -23.7833   -9.9886   22.3418 C   0  0  0  0  0  0  0  0  0  0  0  0
  -28.5826  -18.9105   19.5765 C   0  0  0  0  0  0  0  0  0  0  0  0
  -28.8043  -17.6373   20.1011 C   0  0  0  0  0  0  0  0  0  0  0  0
  -20.2151  -30.3404   27.2477 C   0  0  0  0  0  0  0  0  0  0  0  0
  -22.1634  -28.8312   25.9543 C   0  0  0  0  0  0  0  0  0  0  0  0
  -27.3230  -28.4704   22.6749 C   0  0  0  0  0  0  0  0  0  0  0  0
  -22.6174   -8.4879   20.2994 C   0  0  0  0  0  0  0  0  0  0  0  0
  -23.1018   -8.8097   22.6444 C   0  0  0  0  0  0  0  0  0  0  0  0
  -27.9291  -27.4163   21.9929 C   0  0  0  0  0  0  0  0  0  0  0  0
  -23.6986   -5.4842   22.5166 C   0  0  0  0  0  0  0  0  0  0  0  0
  -24.2996   -4.5999   23.4124 C   0  0  0  0  0  0  0  0  0  0  0  0
  -29.6557  -19.8923   21.5056 C   0  0  0  0  0  0  0  0  0  0  0  0
  -26.8930  -28.1543   19.9433 C   0  0  0  0  0  0  0  0  0  0  0  0
  -22.4026   -4.8109   24.8935 C   0  0  0  0  0  0  0  0  0  0  0  0
  -23.8818  -10.4171   21.0181 C   0  0  0  0  0  0  0  0  0  0  0  0
  -29.0084  -20.0380   20.2787 C   0  0  0  0  0  0  0  0  0  0  0  0
  -29.4516  -17.4915   21.3281 C   0  0  0  0  0  0  0  0  0  0  0  0
  -24.0492  -12.9342   20.6391 C   0  0  0  0  0  0  0  0  0  0  0  0
  -20.3273  -30.4141   25.8504 C   0  0  0  0  0  0  0  0  0  0  0  0
  -26.4871  -29.3696   21.9971 C   0  0  0  0  0  0  0  0  0  0  0  0
  -21.3056  -29.6435   25.1934 C   0  0  0  0  0  0  0  0  0  0  0  0
  -26.2795  -29.2205   20.6184 C   0  0  0  0  0  0  0  0  0  0  0  0
  -29.8773  -18.6190   22.0304 C   0  0  0  0  0  0  0  0  0  0  0  0
  -22.5189   -8.0594   21.6231 C   0  0  0  0  0  0  0  0  0  0  0  0
  -27.7119  -27.2564   20.6275 C   0  0  0  0  0  0  0  0  0  0  0  0
  -22.4496   -6.0320   22.8094 C   0  0  0  0  0  0  0  0  0  0  0  0
  -23.6516   -4.2632   24.6008 C   0  0  0  0  0  0  0  0  0  0  0  0
  -21.8016   -5.6953   23.9978 C   0  0  0  0  0  0  0  0  0  0  0  0
  -24.5863  -11.6347   20.7062 C   0  0  0  0  0  0  0  0  0  0  0  0
  -25.1184  -13.7311   20.3097 C   0  0  0  0  0  0  0  0  0  0  0  0
  -28.7739  -21.3827   19.7232 C   0  0  0  0  0  0  0  0  0  0  0  0
  -28.7803  -22.5145   20.4412 C   0  0  0  0  0  0  0  0  0  0  0  0
  -29.6706  -16.1501   21.8525 C   0  0  0  0  0  0  0  0  0  0  0  0
  -22.7041  -13.3812   20.8552 C   0  0  0  0  0  0  0  0  0  0  0  0
  -28.5212  -23.8281   19.7833 C   0  0  0  0  0  0  0  0  0  0  0  0
  -30.4699  -15.1527   21.1045 C   0  0  0  0  0  0  0  0  0  0  0  0
  -23.4207  -30.1789   22.2114 C   0  0  0  0  0  0  0  0  0  0  0  0
  -24.2584  -32.4103   20.0111 C   0  0  0  0  0  0  0  0  0  0  0  0
  -26.3981  -33.3764   17.5342 C   0  0  0  0  0  0  0  0  0  0  0  0
  -19.3468  -31.2692   25.0875 C   0  0  0  0  0  0  0  0  0  0  0  0
  -25.8620  -30.5171   22.7419 C   0  0  0  0  0  0  0  0  0  0  0  0
  -25.4071  -30.1705   19.8406 C   0  0  0  0  0  0  0  0  0  0  0  0
  -19.7800  -31.5603   23.6529 C   0  0  0  0  0  0  0  0  0  0  0  0
  -29.7715  -12.5384   18.7519 C   0  0  0  0  0  0  0  0  0  0  0  0
  -20.2592  -30.2831   22.9704 C   0  0  0  0  0  0  0  0  0  0  0  0
  -28.3283  -12.1511   19.0725 C   0  0  0  0  0  0  0  0  0  0  0  0
  -30.5324  -12.9470   20.0091 C   0  0  0  0  0  0  0  0  0  0  0  0
  -28.4264  -13.6607   21.1065 C   0  0  0  0  0  0  0  0  0  0  0  0
  -21.4793  -29.6970   23.6910 C   0  0  1  0  0  0  0  0  0  0  0  0
  -24.6192  -31.0710   22.0521 C   0  0  1  0  0  0  0  0  0  0  0  0
  -27.6181  -13.2685   19.8574 C   0  0  2  0  0  0  0  0  0  0  0  0
  -30.5737  -18.4903   23.3461 C   0  0  0  0  0  0  0  0  0  0  0  0
  -26.8045  -35.2326   15.8951 C   0  0  0  0  0  0  0  0  0  0  0  0
  -21.9765  -31.3713   18.2723 C   0  0  0  0  0  0  0  0  0  0  0  0
  -23.0064  -32.5665   16.3283 C   0  0  0  0  0  0  0  0  0  0  0  0
  -22.2114  -33.8609   18.3070 C   0  0  0  0  0  0  0  0  0  0  0  0
  -29.0447  -33.9899   18.7081 C   0  0  0  0  0  0  0  0  0  0  0  0
  -28.5550  -25.0337   20.6987 C   0  0  0  0  0  0  0  0  0  1  0  0
  -24.3065  -32.4594   18.5030 C   0  0  1  0  0  0  0  0  0  0  0  0
  -27.1182  -34.6884   17.2801 C   0  0  2  0  0  0  0  0  0  0  0  0
  -22.8901  -32.5453   17.8674 C   0  0  0  0  0  0  0  0  0  0  0  0
  -25.8949  -11.6033   20.4407 N   0  0  0  0  0  0  0  0  0  0  0  0
  -29.1901  -15.7426   22.9946 N   0  0  0  0  0  0  0  0  0  0  0  0
  -26.1891  -12.8929   20.2034 N   0  0  0  0  0  0  0  0  0  0  0  0
  -29.8137  -13.9827   20.7487 N   0  0  0  0  0  0  0  0  0  0  0  0
  -24.8132  -31.2730   20.6148 N   0  0  0  0  0  0  0  0  0  0  0  0
  -25.2376  -15.0598   20.1035 N   0  0  0  0  0  0  0  0  0  0  0  0
  -21.7292  -12.4303   21.1863 N   0  0  0  0  0  0  0  0  0  0  0  0
  -22.6741  -30.4366   23.3452 N   0  0  0  0  0  0  0  0  0  0  0  0
  -25.1845  -33.5724   18.1586 N   0  0  0  0  0  0  0  0  0  0  0  0
  -28.5925  -34.4995   17.3880 N   0  3  0  0  0  0  0  0  0  0  0  0
  -22.3732  -14.5858   20.7414 O   0  0  0  0  0  0  0  0  0  0  0  0
  -28.2963  -23.9218   18.5796 O   0  0  0  0  0  0  0  0  0  0  0  0
  -31.6307  -15.4688   20.8791 O   0  0  0  0  0  0  0  0  0  0  0  0
  -23.1896  -29.3211   21.3672 O   0  0  0  0  0  0  0  0  0  0  0  0
  -23.7538  -33.3499   20.6309 O   0  0  0  0  0  0  0  0  0  0  0  0
  -26.8638  -32.2868   17.2077 O   0  0  0  0  0  0  0  0  0  0  0  0
  -21.8539   -6.9092   21.9187 O   0  0  0  0  0  0  0  0  0  0  0  0
  -28.3018  -26.2279   19.9596 O   0  0  0  0  0  0  0  0  0  1  0  0
  -24.2282   -3.4128   25.4602 F   0  0  0  0  0  0  0  0  0  0  0  0
  -20.6010   -6.2173   24.2839 F   0  0  0  0  0  0  0  0  0  0  0  0
  1  2  1  0  0  0  0
  1  7  2  0  0  0  0
  2  8  2  0  0  0  0
  3 10  2  0  0  0  0
  3 18  1  0  0  0  0
  4 11  1  0  0  0  0
  4 18  2  0  0  0  0
  5  6  2  0  0  0  0
  5 19  1  0  0  0  0
  6 20  1  0  0  0  0
  7 22  1  0  0  0  0
  8 24  1  0  0  0  0
  9 12  2  0  0  0  0
  9 23  1  0  0  0  0
 10 27  1  0  0  0  0
 11 27  2  0  0  0  0
 12 28  1  0  0  0  0
 13 14  2  0  0  0  0
 13 29  1  0  0  0  0
 14 30  1  0  0  0  0
 15 19  2  0  0  0  0
 15 26  1  0  0  0  0
 16 25  1  0  0  0  0
 16 28  2  0  0  0  0
 17 30  2  0  0  0  0
 17 31  1  0  0  0  0
 18 32  1  0  0  0  0
 19 34  1  0  0  0  0
 20 26  2  0  0  0  0
 20 36  1  0  0  0  0
 21 32  1  0  0  0  0
 21 33  2  0  0  0  0
 21 37  1  0  0  0  0
 22 24  2  0  0  0  0
 22 43  1  0  0  0  0
 23 25  2  0  0  0  0
 23 44  1  0  0  0  0
 24 52  1  0  0  0  0
 25 45  1  0  0  0  0
 26 55  1  0  0  0  0
 27 81  1  0  0  0  0
 28 82  1  0  0  0  0
 29 31  2  0  0  0  0
 29 81  1  0  0  0  0
 30 83  1  0  0  0  0
 31 84  1  0  0  0  0
 32 65  2  0  0  0  0
 33 67  1  0  0  0  0
 33 70  1  0  0  0  0
 34 35  2  0  0  0  0
 35 38  1  0  0  0  0
 36 39  1  0  0  0  0
 36 66  2  0  0  0  0
 37 71  1  0  0  0  0
 37 75  2  0  0  0  0
 38 61  1  0  0  0  0
 38 76  2  0  0  0  0
 39 68  1  0  0  0  0
 39 77  2  0  0  0  0
 40 53  1  0  0  0  0
 40 72  1  0  0  0  0
 40 78  2  0  0  0  0
 41 62  1  0  0  0  0
 41 69  1  0  0  0  0
 41 79  2  0  0  0  0
 42 63  1  0  0  0  0
 42 73  1  0  0  0  0
 42 80  2  0  0  0  0
 43 46  1  0  0  0  0
 44 53  1  0  0  0  0
 45 69  1  0  0  0  0
 46 48  1  0  0  0  0
 47 49  1  0  0  0  0
 47 50  1  0  0  0  0
 48 52  1  0  0  0  0
 49 54  1  0  0  0  0
 50 68  1  0  0  0  0
 51 54  1  0  0  0  0
 51 68  1  0  0  0  0
 52 72  1  0  0  0  0
 53 69  1  0  0  0  0
 54 67  1  0  0  0  0
 56 63  1  0  0  0  0
 57 64  1  0  0  0  0
 58 64  1  0  0  0  0
 59 64  1  0  0  0  0
 60 74  1  0  0  0  0
 61 82  1  0  0  0  0
 62 64  1  0  0  0  0
 62 73  1  0  0  0  0
 63 74  1  0  0  0  0
 65 67  1  0  0  0  0
M  CHG  1  74   1
M  ISO  4  36 100  39 100  61 101  82 101
M  END
> <Batch ID>
0125

> <Smiles>
CNC(C)C(=O)NC(C(=O)N1Cc2cc([101O:1][101CH2:1]C(=O)C=Cc3ccc([100C:0](=N)[100C:0](=O)N4CCCC(n5nc(-c6ccc(Oc7ccc(F)cc7F)cc6)c(C(N)=O)c5N)C4)c(C)c3)ccc2CC1C(=O)NC1CCCc2ccccc21)C(C)(C)C

> <Shape>
0.326

> <Color>
0.206

> <Negative vol penalty>
0.000

$$$$

  -OEChem-04052302093D

 84 92  0     1  0  0  0  0  0999 V2000
  -20.3089  -24.4512   23.4439 C   0  0  0  0  0  0  0  0  0  0  0  0
  -21.4403  -24.9187   22.7832 C   0  0  0  0  0  0  0  0  0  0  0  0
  -24.2473  -15.0708   25.9738 C   0  0  0  0  0  0  0  0  0  0  0  0
  -22.1126  -15.5078   24.9301 C   0  0  0  0  0  0  0  0  0  0  0  0
  -19.1790  -25.2614   23.5477 C   0  0  0  0  0  0  0  0  0  0  0  0
  -21.4422  -26.1965   22.2248 C   0  0  0  0  0  0  0  0  0  0  0  0
  -25.7034  -28.7453   23.2200 C   0  0  0  0  0  0  0  0  0  0  0  0
  -23.6005  -14.7797   27.1749 C   0  0  0  0  0  0  0  0  0  0  0  0
  -21.4658  -15.2166   26.1311 C   0  0  0  0  0  0  0  0  0  0  0  0
  -26.8299  -28.4217   22.4651 C   0  0  0  0  0  0  0  0  0  0  0  0
  -20.5583  -12.4618   27.8654 C   0  0  0  0  0  0  0  0  0  0  0  0
  -19.4296  -11.6442   27.8102 C   0  0  0  0  0  0  0  0  0  0  0  0
  -30.2702  -23.0229   18.2415 C   0  0  0  0  0  0  0  0  0  0  0  0
  -31.8286  -23.9013   16.6176 C   0  0  0  0  0  0  0  0  0  0  0  0
  -31.6792  -21.5177   16.9821 C   0  0  0  0  0  0  0  0  0  0  0  0
  -26.4406  -30.3498   21.0686 C   0  0  0  0  0  0  0  0  0  0  0  0
  -18.0978  -13.4182   28.7676 C   0  0  0  0  0  0  0  0  0  0  0  0
  -23.5034  -15.4349   24.8514 C   0  0  0  0  0  0  0  0  0  0  0  0
  -30.8395  -24.1103   17.5787 C   0  0  0  0  0  0  0  0  0  0  0  0
  -30.6901  -21.7266   17.9432 C   0  0  0  0  0  0  0  0  0  0  0  0
  -24.4917  -14.8357   22.5773 C   0  0  0  0  0  0  0  0  0  0  0  0
  -19.1703  -26.5534   22.9988 C   0  0  0  0  0  0  0  0  0  0  0  0
  -24.9294  -29.8694   22.8976 C   0  0  0  0  0  0  0  0  0  0  0  0
  -20.3106  -27.0243   22.3202 C   0  0  0  0  0  0  0  0  0  0  0  0
  -25.3062  -30.6870   21.8226 C   0  0  0  0  0  0  0  0  0  0  0  0
  -32.2484  -22.6050   16.3193 C   0  0  0  0  0  0  0  0  0  0  0  0
  -22.2097  -14.8526   27.2535 C   0  0  0  0  0  0  0  0  0  0  0  0
  -27.1971  -29.2223   21.3874 C   0  0  0  0  0  0  0  0  0  0  0  0
  -20.4568  -13.7576   28.3718 C   0  0  0  0  0  0  0  0  0  0  0  0
  -18.1993  -12.1224   28.2613 C   0  0  0  0  0  0  0  0  0  0  0  0
  -19.2266  -14.2358   28.8228 C   0  0  0  0  0  0  0  0  0  0  0  0
  -24.1710  -15.7363   23.6107 C   0  0  0  0  0  0  0  0  0  0  0  0
  -25.1133  -15.6096   21.6280 C   0  0  0  0  0  0  0  0  0  0  0  0
  -30.3956  -25.4797   17.8934 C   0  0  0  0  0  0  0  0  0  0  0  0
  -30.0962  -20.5926   18.6339 C   0  0  0  0  0  0  0  0  0  0  0  0
  -29.7624  -25.8346   19.0202 C   0  0  0  0  0  0  0  0  0  0  0  0
  -29.4376  -20.6499   19.8110 C   0  0  0  0  0  0  0  0  0  0  0  0
  -24.2493  -13.4257   22.4838 C   0  0  0  0  0  0  0  0  0  0  0  0
  -29.3451  -27.2501   19.2388 C   0  0  0  0  0  0  0  0  0  0  0  0
  -28.8805  -19.4071   20.3818 C   0  0  0  0  0  0  0  0  0  0  0  0
  -21.9186  -30.3347   21.9910 C   0  0  0  0  0  0  0  0  0  0  0  0
  -22.7189  -33.4630   22.2999 C   0  0  0  0  0  0  0  0  0  0  0  0
  -25.1709  -35.8364   22.3349 C   0  0  0  0  0  0  0  0  0  0  0  0
  -17.9090  -27.3747   23.0951 C   0  0  0  0  0  0  0  0  0  0  0  0
  -23.7324  -30.2200   23.7382 C   0  0  0  0  0  0  0  0  0  0  0  0
  -24.5206  -31.9161   21.4477 C   0  0  0  0  0  0  0  0  0  0  0  0
  -18.1236  -28.8573   22.8018 C   0  0  0  0  0  0  0  0  0  0  0  0
  -25.5174  -20.6174   21.1922 C   0  0  0  0  0  0  0  0  0  0  0  0
  -18.9696  -29.0359   21.5451 C   0  0  0  0  0  0  0  0  0  0  0  0
  -24.9129  -19.3826   21.8553 C   0  0  0  0  0  0  0  0  0  0  0  0
  -27.0111  -20.7502   21.4853 C   0  0  0  0  0  0  0  0  0  0  0  0
  -27.1935  -18.2984   21.7951 C   0  0  0  0  0  0  0  0  0  0  0  0
  -20.3599  -28.4139   21.7230 C   0  0  1  0  0  0  0  0  0  0  0  0
  -22.7235  -31.0980   23.0045 C   0  0  1  0  0  0  0  0  0  0  0  0
  -25.7013  -18.1194   21.4748 C   0  0  1  0  0  0  0  0  0  0  0  0
  -33.3054  -22.3813   15.2912 C   0  0  0  0  0  0  0  0  0  0  0  0
  -25.5139  -38.3111   22.5708 C   0  0  0  0  0  0  0  0  0  0  0  0
  -21.7205  -33.8711   19.4457 C   0  0  0  0  0  0  0  0  0  0  0  0
  -22.9361  -36.0594   19.4075 C   0  0  0  0  0  0  0  0  0  0  0  0
  -21.0883  -35.6895   21.0420 C   0  0  0  0  0  0  0  0  0  0  0  0
  -26.8350  -35.4920   24.7579 C   0  0  0  0  0  0  0  0  0  0  0  0
  -28.6385  -27.5267   20.5490 C   0  0  0  0  0  0  0  0  0  1  0  0
  -23.3000  -34.5133   21.3844 C   0  0  1  0  0  0  0  0  0  0  0  0
  -25.4562  -36.9759   23.2965 C   0  0  2  0  0  0  0  0  0  0  0  0
  -22.2751  -35.0092   20.3255 C   0  0  0  0  0  0  0  0  0  0  0  0
  -24.5571  -16.9867   23.3432 N   0  0  0  0  0  0  0  0  0  0  0  0
  -25.1270  -16.8773   22.1310 N   0  0  0  0  0  0  0  0  0  0  0  0
  -27.7343  -19.5096   21.1680 N   0  0  0  0  0  0  0  0  0  0  0  0
  -23.3547  -32.2134   22.2961 N   0  0  0  0  0  0  0  0  0  0  0  0
  -25.6442  -15.3226   20.4204 N   0  0  0  0  0  0  0  0  0  0  0  0
  -23.5988  -12.7875   23.5487 N   0  0  0  0  0  0  0  0  0  0  0  0
  -21.2022  -29.2787   22.5212 N   0  0  0  0  0  0  0  0  0  0  0  0
  -23.8216  -35.5657   22.2498 N   0  0  0  0  0  0  0  0  0  0  0  0
  -26.7599  -36.7585   23.9850 N   0  3  0  0  0  0  0  0  0  0  0  0
  -24.6138  -12.7487   21.4927 O   0  0  0  0  0  0  0  0  0  0  0  0
  -29.5621  -28.1296   18.4096 O   0  0  0  0  0  0  0  0  0  0  0  0
  -29.4678  -18.3531   20.1312 O   0  0  0  0  0  0  0  0  0  0  0  0
  -21.9444  -30.6792   20.8152 O   0  0  0  0  0  0  0  0  0  0  0  0
  -21.7414  -33.7433   22.9982 O   0  0  0  0  0  0  0  0  0  0  0  0
  -26.0562  -35.2480   21.7180 O   0  0  0  0  0  0  0  0  0  0  0  0
  -21.5782  -14.5683   28.4252 O   0  0  0  0  0  0  0  0  0  0  0  0
  -28.2959  -28.9083   20.6485 O   0  0  0  0  0  0  0  0  0  1  0  0
  -17.1151  -11.3377   28.2068 F   0  0  0  0  0  0  0  0  0  0  0  0
  -19.1226  -15.4801   29.3092 F   0  0  0  0  0  0  0  0  0  0  0  0
  1  2  1  0  0  0  0
  1  5  2  0  0  0  0
  2  6  2  0  0  0  0
  3  8  2  0  0  0  0
  3 18  1  0  0  0  0
  4  9  1  0  0  0  0
  4 18  2  0  0  0  0
  5 22  1  0  0  0  0
  6 24  1  0  0  0  0
  7 10  2  0  0  0  0
  7 23  1  0  0  0  0
  8 27  1  0  0  0  0
  9 27  2  0  0  0  0
 10 28  1  0  0  0  0
 11 12  2  0  0  0  0
 11 29  1  0  0  0  0
 12 30  1  0  0  0  0
 13 19  2  0  0  0  0
 13 20  1  0  0  0  0
 14 19  1  0  0  0  0
 14 26  2  0  0  0  0
 15 20  2  0  0  0  0
 15 26  1  0  0  0  0
 16 25  1  0  0  0  0
 16 28  2  0  0  0  0
 17 30  2  0  0  0  0
 17 31  1  0  0  0  0
 18 32  1  0  0  0  0
 19 34  1  0  0  0  0
 20 35  1  0  0  0  0
 21 32  1  0  0  0  0
 21 33  2  0  0  0  0
 21 38  1  0  0  0  0
 22 24  2  0  0  0  0
 22 44  1  0  0  0  0
 23 25  2  0  0  0  0
 23 45  1  0  0  0  0
 24 53  1  0  0  0  0
 25 46  1  0  0  0  0
 26 56  1  0  0  0  0
 27 81  1  0  0  0  0
 28 82  1  0  0  0  0
 29 31  2  0  0  0  0
 29 81  1  0  0  0  0
 30 83  1  0  0  0  0
 31 84  1  0  0  0  0
 32 66  2  0  0  0  0
 33 67  1  0  0  0  0
 33 70  1  0  0  0  0
 34 36  2  0  0  0  0
 35 37  2  0  0  0  0
 36 39  1  0  0  0  0
 37 40  1  0  0  0  0
 38 71  1  0  0  0  0
 38 75  2  0  0  0  0
 39 62  1  0  0  0  0
 39 76  2  0  0  0  0
 40 68  1  0  0  0  0
 40 77  2  0  0  0  0
 41 54  1  0  0  0  0
 41 72  1  0  0  0  0
 41 78  2  0  0  0  0
 42 63  1  0  0  0  0
 42 69  1  0  0  0  0
 42 79  2  0  0  0  0
 43 64  1  0  0  0  0
 43 73  1  0  0  0  0
 43 80  2  0  0  0  0
 44 47  1  0  0  0  0
 45 54  1  0  0  0  0
 46 69  1  0  0  0  0
 47 49  1  0  0  0  0
 48 50  1  0  0  0  0
 48 51  1  0  0  0  0
 49 53  1  0  0  0  0
 50 55  1  0  0  0  0
 51 68  1  0  0  0  0
 52 55  1  0  0  0  0
 52 68  1  0  0  0  0
 53 72  1  0  0  0  0
 54 69  1  0  0  0  0
 55 67  1  0  0  0  0
 57 64  1  0  0  0  0
 58 65  1  0  0  0  0
 59 65  1  0  0  0  0
 60 65  1  0  0  0  0
 61 74  1  0  0  0  0
 62 82  1  0  0  0  0
 63 65  1  0  0  0  0
 63 73  1  0  0  0  0
 64 74  1  0  0  0  0
 66 67  1  0  0  0  0
M  CHG  1  74   1
M  ISO  4  37 100  40 100  62 101  82 101
M  END
> <Batch ID>
0125

> <Smiles>
CNC(C)C(=O)NC(C(=O)N1Cc2cc([101O:1][101CH2:1]C(=O)C=Cc3cc(C)cc(C=[100CH:0][100C:0](=O)N4CCCC(n5nc(-c6ccc(Oc7ccc(F)cc7F)cc6)c(C(N)=O)c5N)C4)c3)ccc2CC1C(=O)NC1CCCc2ccccc21)C(C)(C)C

> <Shape>
0.218

> <Color>
0.120

> <Negative vol penalty>
0.000

$$$$

  -OEChem-04052302093D

 84 93  0     1  0  0  0  0  0999 V2000
  -18.2888  -25.5084   22.4924 C   0  0  0  0  0  0  0  0  0  0  0  0
  -19.6771  -25.4210   22.4713 C   0  0  0  0  0  0  0  0  0  0  0  0
  -24.0300   -9.5099   21.5915 C   0  0  0  0  0  0  0  0  0  0  0  0
  -24.5505  -10.7335   23.6086 C   0  0  0  0  0  0  0  0  0  0  0  0
  -17.6623  -26.7118   22.1711 C   0  0  0  0  0  0  0  0  0  0  0  0
  -20.4397  -26.5368   22.1279 C   0  0  0  0  0  0  0  0  0  0  0  0
  -31.0452  -20.1369   20.9642 C   0  0  0  0  0  0  0  0  0  0  0  0
  -24.3874  -27.2202   25.2252 C   0  0  0  0  0  0  0  0  0  0  0  0
  -30.7590  -18.8259   20.5769 C   0  0  0  0  0  0  0  0  0  0  0  0
  -23.5817   -8.4351   22.3591 C   0  0  0  0  0  0  0  0  0  0  0  0
  -24.1022   -9.6586   24.3763 C   0  0  0  0  0  0  0  0  0  0  0  0
  -25.5016  -26.4062   25.0257 C   0  0  0  0  0  0  0  0  0  0  0  0
  -20.8101   -7.6100   24.1114 C   0  0  0  0  0  0  0  0  0  0  0  0
  -19.6073   -7.0074   23.7431 C   0  0  0  0  0  0  0  0  0  0  0  0
  -28.3681  -19.2314   20.7938 C   0  0  0  0  0  0  0  0  0  0  0  0
  -26.5933  -28.2015   23.8406 C   0  0  0  0  0  0  0  0  0  0  0  0
  -20.7579   -4.9076   23.4208 C   0  0  0  0  0  0  0  0  0  0  0  0
  -24.5145  -10.6591   22.2162 C   0  0  0  0  0  0  0  0  0  0  0  0
  -24.2173  -12.8591   20.9595 C   0  0  0  0  0  0  0  0  0  0  0  0
  -18.4179  -27.8455   21.8329 C   0  0  0  0  0  0  0  0  0  0  0  0
  -24.3634  -28.5295   24.7236 C   0  0  0  0  0  0  0  0  0  0  0  0
  -29.9859  -20.9760   21.2607 C   0  0  0  0  0  0  0  0  0  0  0  0
  -19.8226  -27.7561   21.8004 C   0  0  0  0  0  0  0  0  0  0  0  0
  -28.6616  -20.5281   21.1763 C   0  0  0  0  0  0  0  0  0  0  0  0
  -25.4786  -29.0309   24.0373 C   0  0  0  0  0  0  0  0  0  0  0  0
  -29.4308  -18.3765   20.4925 C   0  0  0  0  0  0  0  0  0  0  0  0
  -23.6178   -8.5094   23.7516 C   0  0  0  0  0  0  0  0  0  0  0  0
  -26.6036  -26.8959   24.3308 C   0  0  0  0  0  0  0  0  0  0  0  0
  -21.9869   -6.8614   24.1343 C   0  0  0  0  0  0  0  0  0  0  0  0
  -19.5811   -5.6562   23.3979 C   0  0  0  0  0  0  0  0  0  0  0  0
  -21.9608   -5.5102   23.7891 C   0  0  0  0  0  0  0  0  0  0  0  0
  -24.9783  -11.7696   21.4238 C   0  0  0  0  0  0  0  0  0  0  0  0
  -25.1133  -13.6310   20.2611 C   0  0  0  0  0  0  0  0  0  0  0  0
  -22.8249  -13.1477   21.1432 C   0  0  0  0  0  0  0  0  0  0  0  0
  -22.5643  -30.0934   22.6210 C   0  0  0  0  0  0  0  0  0  0  0  0
  -28.1041  -23.9831   22.2488 C   0  0  0  0  0  0  0  0  0  0  0  0
  -24.2988  -32.6453   23.6219 C   0  0  0  0  0  0  0  0  0  0  0  0
  -27.1752  -33.8188   25.0347 C   0  0  0  0  0  0  0  0  0  0  0  0
  -30.0988  -16.0598   19.7627 C   0  0  0  0  0  0  0  0  0  0  0  0
  -17.6944  -29.1114   21.4471 C   0  0  0  0  0  0  0  0  0  0  0  0
  -23.1645  -29.4037   24.9705 C   0  0  0  0  0  0  0  0  0  0  0  0
  -30.0247  -22.4044   21.6933 C   0  0  0  0  0  0  0  0  0  0  0  0
  -27.7186  -21.6240   21.5454 C   0  0  0  0  0  0  0  0  0  0  0  0
  -25.5109  -30.4361   23.4963 C   0  0  0  0  0  0  0  0  0  0  0  0
  -18.5864  -30.3502   21.4581 C   0  0  0  0  0  0  0  0  0  0  0  0
  -29.8513  -12.6478   18.7755 C   0  0  0  0  0  0  0  0  0  0  0  0
  -19.9054  -30.0647   20.7471 C   0  0  0  0  0  0  0  0  0  0  0  0
  -28.4988  -12.2048   19.3383 C   0  0  0  0  0  0  0  0  0  0  0  0
  -30.5652  -13.6195   19.7136 C   0  0  0  0  0  0  0  0  0  0  0  0
  -28.4190  -14.3431   20.6830 C   0  0  0  0  0  0  0  0  0  0  0  0
  -20.6851  -28.9513   21.4570 C   0  0  1  0  0  0  0  0  0  0  0  0
  -23.0441  -30.5491   23.9700 C   0  0  1  0  0  0  0  0  0  0  0  0
  -27.6334  -13.4142   19.7430 C   0  0  2  0  0  0  0  0  0  0  0  0
  -28.3201  -35.9540   25.6885 C   0  0  0  0  0  0  0  0  0  0  0  0
  -24.9702  -33.1790   20.6937 C   0  0  0  0  0  0  0  0  0  0  0  0
  -26.8221  -34.6775   21.4638 C   0  0  0  0  0  0  0  0  0  0  0  0
  -24.4568  -35.2257   22.0361 C   0  0  0  0  0  0  0  0  0  0  0  0
  -27.2563  -33.0375   27.8881 C   0  0  0  0  0  0  0  0  0  0  0  0
  -29.1383  -25.0426   22.5327 C   0  0  0  0  0  0  0  0  0  0  0  0
  -28.4584  -26.3338   22.9526 C   0  0  0  0  0  0  0  0  0  1  0  0
  -25.5960  -33.2896   23.1961 C   0  0  1  0  0  0  0  0  0  0  0  0
  -27.4138  -34.8226   26.1482 C   0  0  2  0  0  0  0  0  0  0  0  0
  -25.4602  -34.0658   21.8558 C   0  0  0  0  0  0  0  0  0  0  0  0
  -26.2591  -11.8393   21.0516 N   0  0  0  0  0  0  0  0  0  0  0  0
  -26.3099  -12.9819   20.3459 N   0  0  0  0  0  0  0  0  0  0  0  0
  -28.6038  -22.7536   21.8546 N   0  0  0  0  0  0  0  0  0  0  0  0
  -24.3122  -31.2499   23.7579 N   0  0  0  0  0  0  0  0  0  0  0  0
  -29.6862  -14.7415   20.0503 N   0  0  0  0  0  0  0  0  0  0  0  0
  -24.9865  -14.7947   19.5887 N   0  0  0  0  0  0  0  0  0  0  0  0
  -22.0488  -12.2490   21.8877 N   0  0  0  0  0  0  0  0  0  0  0  0
  -29.1669  -17.0416   20.0974 N   0  0  0  0  0  0  0  0  0  0  0  0
  -21.3333  -29.4660   22.6441 N   0  0  0  0  0  0  0  0  0  0  0  0
  -26.0323  -34.1104   24.3205 N   0  0  0  0  0  0  0  0  0  0  0  0
  -28.0512  -34.1560   27.3188 N   0  3  0  0  0  0  0  0  0  0  0  0
  -22.2814  -14.1638   20.6475 O   0  0  0  0  0  0  0  0  0  0  0  0
  -23.2587  -30.2973   21.6322 O   0  0  0  0  0  0  0  0  0  0  0  0
  -26.9037  -24.2319   22.3710 O   0  0  0  0  0  0  0  0  0  0  0  0
  -23.3120  -33.3547   23.8332 O   0  0  0  0  0  0  0  0  0  0  0  0
  -27.9293  -32.8729   24.8177 O   0  0  0  0  0  0  0  0  0  0  0  0
  -31.1866  -16.2980   19.2317 O   0  0  0  0  0  0  0  0  0  0  0  0
  -23.1802   -7.4609   24.5010 O   0  0  0  0  0  0  0  0  0  0  0  0
  -27.6922  -26.1033   24.1341 O   0  0  0  0  0  0  0  0  0  1  0  0
  -18.4257   -5.0774   23.0457 F   0  0  0  0  0  0  0  0  0  0  0  0
  -23.0878   -4.7856   23.8104 F   0  0  0  0  0  0  0  0  0  0  0  0
  1  2  1  0  0  0  0
  1  5  2  0  0  0  0
  2  6  2  0  0  0  0
  3 10  2  0  0  0  0
  3 18  1  0  0  0  0
  4 11  1  0  0  0  0
  4 18  2  0  0  0  0
  5 20  1  0  0  0  0
  6 23  1  0  0  0  0
  7  9  2  0  0  0  0
  7 22  1  0  0  0  0
  8 12  2  0  0  0  0
  8 21  1  0  0  0  0
  9 26  1  0  0  0  0
 10 27  1  0  0  0  0
 11 27  2  0  0  0  0
 12 28  1  0  0  0  0
 13 14  2  0  0  0  0
 13 29  1  0  0  0  0
 14 30  1  0  0  0  0
 15 24  1  0  0  0  0
 15 26  2  0  0  0  0
 16 25  1  0  0  0  0
 16 28  2  0  0  0  0
 17 30  2  0  0  0  0
 17 31  1  0  0  0  0
 18 32  1  0  0  0  0
 19 32  1  0  0  0  0
 19 33  2  0  0  0  0
 19 34  1  0  0  0  0
 20 23  2  0  0  0  0
 20 40  1  0  0  0  0
 21 25  2  0  0  0  0
 21 41  1  0  0  0  0
 22 24  2  0  0  0  0
 22 42  1  0  0  0  0
 23 51  1  0  0  0  0
 24 43  1  0  0  0  0
 25 44  1  0  0  0  0
 26 71  1  0  0  0  0
 27 81  1  0  0  0  0
 28 82  1  0  0  0  0
 29 31  2  0  0  0  0
 29 81  1  0  0  0  0
 30 83  1  0  0  0  0
 31 84  1  0  0  0  0
 32 64  2  0  0  0  0
 33 65  1  0  0  0  0
 33 69  1  0  0  0  0
 34 70  1  0  0  0  0
 34 75  2  0  0  0  0
 35 52  1  0  0  0  0
 35 72  1  0  0  0  0
 35 76  2  0  0  0  0
 36 59  1  0  0  0  0
 36 66  1  0  0  0  0
 36 77  2  0  0  0  0
 37 61  1  0  0  0  0
 37 67  1  0  0  0  0
 37 78  2  0  0  0  0
 38 62  1  0  0  0  0
 38 73  1  0  0  0  0
 38 79  2  0  0  0  0
 39 68  1  0  0  0  0
 39 71  1  0  0  0  0
 39 80  2  0  0  0  0
 40 45  1  0  0  0  0
 41 52  1  0  0  0  0
 42 66  1  0  0  0  0
 43 66  1  0  0  0  0
 44 67  1  0  0  0  0
 45 47  1  0  0  0  0
 46 48  1  0  0  0  0
 46 49  1  0  0  0  0
 47 51  1  0  0  0  0
 48 53  1  0  0  0  0
 49 68  1  0  0  0  0
 50 53  1  0  0  0  0
 50 68  1  0  0  0  0
 51 72  1  0  0  0  0
 52 67  1  0  0  0  0
 53 65  1  0  0  0  0
 54 62  1  0  0  0  0
 55 63  1  0  0  0  0
 56 63  1  0  0  0  0
 57 63  1  0  0  0  0
 58 74  1  0  0  0  0
 59 60  1  0  0  0  0
 60 82  1  0  0  0  0
 61 63  1  0  0  0  0
 61 73  1  0  0  0  0
 62 74  1  0  0  0  0
 64 65  1  0  0  0  0
M  CHG  1  74   1
M  ISO  4  39 100  60 101  71 100  82 101
M  END
> <Batch ID>
0125

> <Smiles>
CNC(C)C(=O)NC(C(=O)N1Cc2cc([101O:1][101CH2:1]CC(=O)N3Cc4ccc([100NH:0][100C:0](=O)N5CCCC(n6nc(-c7ccc(Oc8ccc(F)cc8F)cc7)c(C(N)=O)c6N)C5)cc4C3)ccc2CC1C(=O)NC1CCCc2ccccc21)C(C)(C)C

> <Shape>
0.314

> <Color>
0.143

> <Negative vol penalty>
0.000

$$$$

  -OEChem-04052302093D

 81 89  0     1  0  0  0  0  0999 V2000
  -15.2715  -23.9271   22.3514 C   0  0  0  0  0  0  0  0  0  0  0  0
  -16.4433  -23.2695   22.7118 C   0  0  0  0  0  0  0  0  0  0  0  0
  -23.0735   -9.8692   19.9412 C   0  0  0  0  0  0  0  0  0  0  0  0
  -23.8378   -9.8752   22.2331 C   0  0  0  0  0  0  0  0  0  0  0  0
  -14.4058  -23.3486   21.4242 C   0  0  0  0  0  0  0  0  0  0  0  0
  -16.7495  -22.0324   22.1460 C   0  0  0  0  0  0  0  0  0  0  0  0
  -21.5874  -21.7084   20.6849 C   0  0  0  0  0  0  0  0  0  0  0  0
  -22.3305   -8.7156   20.1920 C   0  0  0  0  0  0  0  0  0  0  0  0
  -23.0948   -8.7216   22.4840 C   0  0  0  0  0  0  0  0  0  0  0  0
  -22.5388  -21.4813   21.6785 C   0  0  0  0  0  0  0  0  0  0  0  0
  -19.8681   -7.9223   23.0923 C   0  0  0  0  0  0  0  0  0  0  0  0
  -19.1134   -7.8815   24.2646 C   0  0  0  0  0  0  0  0  0  0  0  0
  -28.9366  -19.0767   24.2045 C   0  0  0  0  0  0  0  0  0  0  0  0
  -30.0912  -18.2891   23.9813 C   0  0  0  0  0  0  0  0  0  0  0  0
  -22.5893  -19.1431   21.0873 C   0  0  0  0  0  0  0  0  0  0  0  0
  -20.3570   -5.9441   24.9976 C   0  0  0  0  0  0  0  0  0  0  0  0
  -23.8272  -10.4490   20.9618 C   0  0  0  0  0  0  0  0  0  0  0  0
  -24.1678  -12.9743   20.8425 C   0  0  0  0  0  0  0  0  0  0  0  0
  -14.7063  -22.1083   20.8395 C   0  0  0  0  0  0  0  0  0  0  0  0
  -21.1211  -20.6508   19.8910 C   0  0  0  0  0  0  0  0  0  0  0  0
  -15.8863  -21.4361   21.2111 C   0  0  0  0  0  0  0  0  0  0  0  0
  -21.6339  -19.3599   20.0826 C   0  0  0  0  0  0  0  0  0  0  0  0
  -22.3411   -8.1419   21.4634 C   0  0  0  0  0  0  0  0  0  0  0  0
  -23.0377  -20.1980   21.8817 C   0  0  0  0  0  0  0  0  0  0  0  0
  -20.8672   -6.9740   22.8725 C   0  0  0  0  0  0  0  0  0  0  0  0
  -19.3579   -6.8924   25.2173 C   0  0  0  0  0  0  0  0  0  0  0  0
  -21.1116   -5.9849   23.8252 C   0  0  0  0  0  0  0  0  0  0  0  0
  -24.5953  -11.6403   20.7032 C   0  0  0  0  0  0  0  0  0  0  0  0
  -28.1862  -18.9887   23.0551 C   0  0  0  0  0  0  0  0  0  0  0  0
  -29.9639  -17.7758   22.7115 C   0  0  0  0  0  0  0  0  0  0  0  0
  -25.2590  -13.7244   20.4775 C   0  0  0  0  0  0  0  0  0  0  0  0
  -22.8979  -13.4894   21.2641 C   0  0  0  0  0  0  0  0  0  0  0  0
  -26.8737  -19.5940   22.6810 C   0  0  0  0  0  0  0  0  0  0  0  0
  -18.2914  -19.2844   19.4114 C   0  0  0  0  0  0  0  0  0  0  0  0
  -19.9106  -17.6326   17.1372 C   0  0  0  0  0  0  0  0  0  0  0  0
  -22.9018  -16.4604   15.9859 C   0  0  0  0  0  0  0  0  0  0  0  0
  -30.7427  -14.7454   20.6558 C   0  0  0  0  0  0  0  0  0  0  0  0
  -13.7165  -21.5005   19.8774 C   0  0  0  0  0  0  0  0  0  0  0  0
  -20.1144  -20.9171   18.8056 C   0  0  0  0  0  0  0  0  0  0  0  0
  -21.1809  -18.1940   19.2435 C   0  0  0  0  0  0  0  0  0  0  0  0
  -14.2983  -20.3619   19.0434 C   0  0  0  0  0  0  0  0  0  0  0  0
  -29.6014  -12.3618   18.2699 C   0  0  0  0  0  0  0  0  0  0  0  0
  -15.0818  -19.3980   19.9287 C   0  0  0  0  0  0  0  0  0  0  0  0
  -28.1649  -12.0673   18.7055 C   0  0  0  0  0  0  0  0  0  0  0  0
  -30.5207  -12.5823   19.4692 C   0  0  0  0  0  0  0  0  0  0  0  0
  -28.6214  -13.3119   20.8598 C   0  0  0  0  0  0  0  0  0  0  0  0
  -16.2655  -20.1043   20.6006 C   0  0  1  0  0  0  0  0  0  0  0  0
  -19.3312  -19.6728   18.3986 C   0  0  1  0  0  0  0  0  0  0  0  0
  -27.6450  -13.1376   19.6840 C   0  0  2  0  0  0  0  0  0  0  0  0
  -23.9030  -15.1106   14.1222 C   0  0  0  0  0  0  0  0  0  0  0  0
  -18.8815  -15.0732   18.4412 C   0  0  0  0  0  0  0  0  0  0  0  0
  -20.6294  -13.8068   17.1727 C   0  0  0  0  0  0  0  0  0  0  0  0
  -18.8546  -15.0536   15.9406 C   0  0  0  0  0  0  0  0  0  0  0  0
  -24.5616  -18.7349   15.0746 C   0  0  0  0  0  0  0  0  0  0  0  0
  -30.8101  -16.8953   21.8937 C   0  0  0  0  0  0  0  0  0  0  0  0
  -26.1647  -20.4845   23.6931 C   0  0  0  0  0  0  0  0  0  0  0  0
  -24.8517  -21.0477   23.1637 C   0  0  0  0  0  0  0  0  0  1  0  0
  -20.6917  -16.3411   17.1065 C   0  0  1  0  0  0  0  0  0  0  0  0
  -23.5382  -16.5047   14.6084 C   0  0  2  0  0  0  0  0  0  0  0  0
  -19.7716  -15.0901   17.1825 C   0  0  0  0  0  0  0  0  0  0  0  0
  -25.8594  -11.5451   20.2824 N   0  0  0  0  0  0  0  0  0  0  0  0
  -26.2355  -12.8289   20.1541 N   0  0  0  0  0  0  0  0  0  0  0  0
  -20.1906  -18.5041   18.1992 N   0  0  0  0  0  0  0  0  0  0  0  0
  -29.9715  -13.6101   20.3567 N   0  0  0  0  0  0  0  0  0  0  0  0
  -25.4687  -15.0560   20.4048 N   0  0  0  0  0  0  0  0  0  0  0  0
  -21.8870  -12.5797   21.6029 N   0  0  0  0  0  0  0  0  0  0  0  0
  -17.3548  -20.2689   19.6621 N   0  0  0  0  0  0  0  0  0  0  0  0
  -21.5264  -16.3972   15.9113 N   0  0  0  0  0  0  0  0  0  0  0  0
  -30.1448  -15.6736   21.4995 N   0  0  0  0  0  0  0  0  0  0  0  0
  -24.7775  -17.3318   14.6367 N   0  3  0  0  0  0  0  0  0  0  0  0
  -22.6613  -14.7199   21.3226 O   0  0  0  0  0  0  0  0  0  0  0  0
  -26.4008  -19.3597   21.5712 O   0  0  0  0  0  0  0  0  0  0  0  0
  -18.3349  -18.1732   19.9262 O   0  0  0  0  0  0  0  0  0  0  0  0
  -19.0877  -17.8629   16.2476 O   0  0  0  0  0  0  0  0  0  0  0  0
  -23.5592  -16.4762   17.0242 O   0  0  0  0  0  0  0  0  0  0  0  0
  -31.8777  -14.9216   20.2000 O   0  0  0  0  0  0  0  0  0  0  0  0
  -28.8053  -18.1974   22.1402 O   0  0  0  0  0  0  0  0  0  0  0  0
  -21.6161   -7.0164   21.7085 O   0  0  0  0  0  0  0  0  0  0  0  0
  -23.9659  -19.9734   22.8513 O   0  0  0  0  0  0  0  0  0  1  0  0
  -18.6341   -6.8542   26.3438 F   0  0  0  0  0  0  0  0  0  0  0  0
  -22.0709   -5.0719   23.6203 F   0  0  0  0  0  0  0  0  0  0  0  0
  1  2  1  0  0  0  0
  1  5  2  0  0  0  0
  2  6  2  0  0  0  0
  3  8  2  0  0  0  0
  3 17  1  0  0  0  0
  4  9  1  0  0  0  0
  4 17  2  0  0  0  0
  5 19  1  0  0  0  0
  6 21  1  0  0  0  0
  7 10  2  0  0  0  0
  7 20  1  0  0  0  0
  8 23  1  0  0  0  0
  9 23  2  0  0  0  0
 10 24  1  0  0  0  0
 11 12  2  0  0  0  0
 11 25  1  0  0  0  0
 12 26  1  0  0  0  0
 13 14  1  0  0  0  0
 13 29  2  0  0  0  0
 14 30  2  0  0  0  0
 15 22  1  0  0  0  0
 15 24  2  0  0  0  0
 16 26  2  0  0  0  0
 16 27  1  0  0  0  0
 17 28  1  0  0  0  0
 18 28  1  0  0  0  0
 18 31  2  0  0  0  0
 18 32  1  0  0  0  0
 19 21  2  0  0  0  0
 19 38  1  0  0  0  0
 20 22  2  0  0  0  0
 20 39  1  0  0  0  0
 21 47  1  0  0  0  0
 22 40  1  0  0  0  0
 23 78  1  0  0  0  0
 24 79  1  0  0  0  0
 25 27  2  0  0  0  0
 25 78  1  0  0  0  0
 26 80  1  0  0  0  0
 27 81  1  0  0  0  0
 28 61  2  0  0  0  0
 29 33  1  0  0  0  0
 29 77  1  0  0  0  0
 30 55  1  0  0  0  0
 30 77  1  0  0  0  0
 31 62  1  0  0  0  0
 31 65  1  0  0  0  0
 32 66  1  0  0  0  0
 32 71  2  0  0  0  0
 33 56  1  0  0  0  0
 33 72  2  0  0  0  0
 34 48  1  0  0  0  0
 34 67  1  0  0  0  0
 34 73  2  0  0  0  0
 35 58  1  0  0  0  0
 35 63  1  0  0  0  0
 35 74  2  0  0  0  0
 36 59  1  0  0  0  0
 36 68  1  0  0  0  0
 36 75  2  0  0  0  0
 37 64  1  0  0  0  0
 37 69  1  0  0  0  0
 37 76  2  0  0  0  0
 38 41  1  0  0  0  0
 39 48  1  0  0  0  0
 40 63  1  0  0  0  0
 41 43  1  0  0  0  0
 42 44  1  0  0  0  0
 42 45  1  0  0  0  0
 43 47  1  0  0  0  0
 44 49  1  0  0  0  0
 45 64  1  0  0  0  0
 46 49  1  0  0  0  0
 46 64  1  0  0  0  0
 47 67  1  0  0  0  0
 48 63  1  0  0  0  0
 49 62  1  0  0  0  0
 50 59  1  0  0  0  0
 51 60  1  0  0  0  0
 52 60  1  0  0  0  0
 53 60  1  0  0  0  0
 54 70  1  0  0  0  0
 55 69  1  0  0  0  0
 56 57  1  0  0  0  0
 57 79  1  0  0  0  0
 58 60  1  0  0  0  0
 58 68  1  0  0  0  0
 59 70  1  0  0  0  0
 61 62  1  0  0  0  0
M  CHG  1  70   1
M  ISO  4  37 100  57 101  69 100  79 101
M  END
> <Batch ID>
0125

> <Smiles>
CNC(C)C(=O)NC(C(=O)N1Cc2cc([101O:1][101CH2:1]CC(=O)c3ccc(C[100NH:0][100C:0](=O)N4CCCC(n5nc(-c6ccc(Oc7ccc(F)cc7F)cc6)c(C(N)=O)c5N)C4)o3)ccc2CC1C(=O)NC1CCCc2ccccc21)C(C)(C)C

> <Shape>
0.170

> <Color>
0.191

> <Negative vol penalty>
0.000

$$$$

  -OEChem-04052302093D

 82 90  0     1  0  0  0  0  0999 V2000
  -25.4772  -37.4082   23.1202 C   0  0  0  0  0  0  0  0  0  0  0  0
  -26.3166  -36.3609   22.7542 C   0  0  0  0  0  0  0  0  0  0  0  0
  -24.5565  -11.5309   24.0621 C   0  0  0  0  0  0  0  0  0  0  0  0
  -23.8506  -13.8236   23.7750 C   0  0  0  0  0  0  0  0  0  0  0  0
  -28.3161  -20.4127   19.2541 C   0  0  0  0  0  0  0  0  0  0  0  0
  -30.6877  -20.0051   19.0380 C   0  0  0  0  0  0  0  0  0  0  0  0
  -24.2600  -37.1389   23.7446 C   0  0  0  0  0  0  0  0  0  0  0  0
  -25.9398  -35.0436   23.0136 C   0  0  0  0  0  0  0  0  0  0  0  0
  -27.1384  -30.1251   19.5672 C   0  0  0  0  0  0  0  0  0  0  0  0
  -28.0736  -19.0411   19.1803 C   0  0  0  0  0  0  0  0  0  0  0  0
  -30.4452  -18.6334   18.9642 C   0  0  0  0  0  0  0  0  0  0  0  0
  -24.1300  -11.5659   25.3897 C   0  0  0  0  0  0  0  0  0  0  0  0
  -23.4241  -13.8586   25.1026 C   0  0  0  0  0  0  0  0  0  0  0  0
  -28.1163  -29.1351   19.6534 C   0  0  0  0  0  0  0  0  0  0  0  0
  -21.2057  -11.3485   27.0732 C   0  0  0  0  0  0  0  0  0  0  0  0
  -20.4695  -10.2624   27.5463 C   0  0  0  0  0  0  0  0  0  0  0  0
  -26.5618  -27.7100   20.8247 C   0  0  0  0  0  0  0  0  0  0  0  0
  -22.1576   -9.8492   29.2246 C   0  0  0  0  0  0  0  0  0  0  0  0
  -24.4168  -12.6599   23.2548 C   0  0  0  0  0  0  0  0  0  0  0  0
  -29.6232  -20.8947   19.1828 C   0  0  0  0  0  0  0  0  0  0  0  0
  -24.1012  -12.2508   20.7566 C   0  0  0  0  0  0  0  0  0  0  0  0
  -23.8637  -35.8172   24.0030 C   0  0  0  0  0  0  0  0  0  0  0  0
  -25.8661  -29.9188   20.1196 C   0  0  0  0  0  0  0  0  0  0  0  0
  -24.7168  -34.7564   23.6433 C   0  0  0  0  0  0  0  0  0  0  0  0
  -25.5687  -28.6980   20.7419 C   0  0  0  0  0  0  0  0  0  0  0  0
  -29.1381  -18.1515   19.0354 C   0  0  0  0  0  0  0  0  0  0  0  0
  -23.5638  -12.7296   25.9100 C   0  0  0  0  0  0  0  0  0  0  0  0
  -27.8290  -27.9285   20.2847 C   0  0  0  0  0  0  0  0  0  0  0  0
  -22.4179  -11.6849   27.6757 C   0  0  0  0  0  0  0  0  0  0  0  0
  -20.9454   -9.5127   28.6220 C   0  0  0  0  0  0  0  0  0  0  0  0
  -22.8938  -10.9353   28.7514 C   0  0  0  0  0  0  0  0  0  0  0  0
  -24.8577  -12.6246   21.8835 C   0  0  0  0  0  0  0  0  0  0  0  0
  -24.9685  -12.3864   19.7003 C   0  0  0  0  0  0  0  0  0  0  0  0
  -29.8804  -22.3436   19.2617 C   0  0  0  0  0  0  0  0  0  0  0  0
  -29.0257  -23.2417   19.7709 C   0  0  0  0  0  0  0  0  0  0  0  0
  -22.7364  -11.8196   20.6723 C   0  0  0  0  0  0  0  0  0  0  0  0
  -29.3783  -24.6911   19.7954 C   0  0  0  0  0  0  0  0  0  0  0  0
  -24.1598  -31.3194   22.4067 C   0  0  0  0  0  0  0  0  0  0  0  0
  -21.8449  -29.2912   21.3820 C   0  0  0  0  0  0  0  0  0  0  0  0
  -21.0394  -26.3710   19.8102 C   0  0  0  0  0  0  0  0  0  0  0  0
  -29.8348  -15.7402   18.8189 C   0  0  0  0  0  0  0  0  0  0  0  0
  -22.5603  -35.5778   24.7230 C   0  0  0  0  0  0  0  0  0  0  0  0
  -24.8139  -30.9864   19.9948 C   0  0  0  0  0  0  0  0  0  0  0  0
  -24.2119  -28.4191   21.3332 C   0  0  0  0  0  0  0  0  0  0  0  0
  -22.0655  -34.1371   24.6240 C   0  0  0  0  0  0  0  0  0  0  0  0
  -29.6338  -12.1901   18.6366 C   0  0  0  0  0  0  0  0  0  0  0  0
  -23.2023  -33.1613   24.9112 C   0  0  0  0  0  0  0  0  0  0  0  0
  -28.3144  -11.8650   19.3407 C   0  0  0  0  0  0  0  0  0  0  0  0
  -30.3582  -13.3594   19.3012 C   0  0  0  0  0  0  0  0  0  0  0  0
  -28.2326  -14.2505   20.1714 C   0  0  0  0  0  0  0  0  0  0  0  0
  -24.3320  -33.3130   23.8854 C   0  0  1  0  0  0  0  0  0  0  0  0
  -23.7139  -30.8669   21.0450 C   0  0  1  0  0  0  0  0  0  0  0  0
  -27.4354  -13.1213   19.4983 C   0  0  2  0  0  0  0  0  0  0  0  0
  -19.0664  -24.9640   19.1582 C   0  0  0  0  0  0  0  0  0  0  0  0
  -21.5605  -28.3550   24.2721 C   0  0  0  0  0  0  0  0  0  0  0  0
  -20.3148  -26.3540   23.4280 C   0  0  0  0  0  0  0  0  0  0  0  0
  -19.3970  -28.6427   23.0510 C   0  0  0  0  0  0  0  0  0  0  0  0
  -21.6828  -26.5972   16.9303 C   0  0  0  0  0  0  0  0  0  0  0  0
  -28.3320  -25.6067   20.3950 C   0  0  0  0  0  0  0  0  0  1  0  0
  -21.4203  -27.8866   21.7369 C   0  0  1  0  0  0  0  0  0  0  0  0
  -20.0281  -26.0584   18.7221 C   0  0  2  0  0  0  0  0  0  0  0  0
  -20.6994  -27.8153   23.1127 C   0  0  0  0  0  0  0  0  0  0  0  0
  -26.1094  -12.9715   21.5722 N   0  0  0  0  0  0  0  0  0  0  0  0
  -26.1461  -12.8162   20.2378 N   0  0  0  0  0  0  0  0  0  0  0  0
  -23.2187  -29.4966   21.1914 N   0  0  0  0  0  0  0  0  0  0  0  0
  -29.4653  -14.5149   19.4129 N   0  0  0  0  0  0  0  0  0  0  0  0
  -24.8312  -12.1788   18.3735 N   0  0  0  0  0  0  0  0  0  0  0  0
  -21.9877  -11.7363   21.8542 N   0  0  0  0  0  0  0  0  0  0  0  0
  -28.8923  -16.7579   18.9625 N   0  0  0  0  0  0  0  0  0  0  0  0
  -23.9737  -32.6686   22.6400 N   0  0  0  0  0  0  0  0  0  0  0  0
  -20.6183  -27.4072   20.6165 N   0  0  0  0  0  0  0  0  0  0  0  0
  -20.7229  -25.6073   17.4833 N   0  3  0  0  0  0  0  0  0  0  0  0
  -22.2016  -11.5013   19.5831 O   0  0  0  0  0  0  0  0  0  0  0  0
  -30.4467  -25.1100   19.3580 O   0  0  0  0  0  0  0  0  0  0  0  0
  -24.6359  -30.5045   23.1883 O   0  0  0  0  0  0  0  0  0  0  0  0
  -20.9885  -30.1720   21.2707 O   0  0  0  0  0  0  0  0  0  0  0  0
  -22.0955  -25.7548   19.9349 O   0  0  0  0  0  0  0  0  0  0  0  0
  -30.8960  -15.8689   18.2030 O   0  0  0  0  0  0  0  0  0  0  0  0
  -23.1473  -12.7640   27.2053 O   0  0  0  0  0  0  0  0  0  0  0  0
  -28.7818  -26.9607   20.3708 O   0  0  0  0  0  0  0  0  0  1  0  0
  -20.2375   -8.4707   29.0773 F   0  0  0  0  0  0  0  0  0  0  0  0
  -24.0571  -11.2544   29.3351 F   0  0  0  0  0  0  0  0  0  0  0  0
  1  2  1  0  0  0  0
  1  7  2  0  0  0  0
  2  8  2  0  0  0  0
  3 12  2  0  0  0  0
  3 19  1  0  0  0  0
  4 13  1  0  0  0  0
  4 19  2  0  0  0  0
  5 10  2  0  0  0  0
  5 20  1  0  0  0  0
  6 11  1  0  0  0  0
  6 20  2  0  0  0  0
  7 22  1  0  0  0  0
  8 24  1  0  0  0  0
  9 14  2  0  0  0  0
  9 23  1  0  0  0  0
 10 26  1  0  0  0  0
 11 26  2  0  0  0  0
 12 27  1  0  0  0  0
 13 27  2  0  0  0  0
 14 28  1  0  0  0  0
 15 16  2  0  0  0  0
 15 29  1  0  0  0  0
 16 30  1  0  0  0  0
 17 25  1  0  0  0  0
 17 28  2  0  0  0  0
 18 30  2  0  0  0  0
 18 31  1  0  0  0  0
 19 32  1  0  0  0  0
 20 34  1  0  0  0  0
 21 32  1  0  0  0  0
 21 33  2  0  0  0  0
 21 36  1  0  0  0  0
 22 24  2  0  0  0  0
 22 42  1  0  0  0  0
 23 25  2  0  0  0  0
 23 43  1  0  0  0  0
 24 51  1  0  0  0  0
 25 44  1  0  0  0  0
 26 69  1  0  0  0  0
 27 79  1  0  0  0  0
 28 80  1  0  0  0  0
 29 31  2  0  0  0  0
 29 79  1  0  0  0  0
 30 81  1  0  0  0  0
 31 82  1  0  0  0  0
 32 63  2  0  0  0  0
 33 64  1  0  0  0  0
 33 67  1  0  0  0  0
 34 35  2  0  0  0  0
 35 37  1  0  0  0  0
 36 68  1  0  0  0  0
 36 73  2  0  0  0  0
 37 59  1  0  0  0  0
 37 74  2  0  0  0  0
 38 52  1  0  0  0  0
 38 70  1  0  0  0  0
 38 75  2  0  0  0  0
 39 60  1  0  0  0  0
 39 65  1  0  0  0  0
 39 76  2  0  0  0  0
 40 61  1  0  0  0  0
 40 71  1  0  0  0  0
 40 77  2  0  0  0  0
 41 66  1  0  0  0  0
 41 69  1  0  0  0  0
 41 78  2  0  0  0  0
 42 45  1  0  0  0  0
 43 52  1  0  0  0  0
 44 65  1  0  0  0  0
 45 47  1  0  0  0  0
 46 48  1  0  0  0  0
 46 49  1  0  0  0  0
 47 51  1  0  0  0  0
 48 53  1  0  0  0  0
 49 66  1  0  0  0  0
 50 53  1  0  0  0  0
 50 66  1  0  0  0  0
 51 70  1  0  0  0  0
 52 65  1  0  0  0  0
 53 64  1  0  0  0  0
 54 61  1  0  0  0  0
 55 62  1  0  0  0  0
 56 62  1  0  0  0  0
 57 62  1  0  0  0  0
 58 72  1  0  0  0  0
 59 80  1  0  0  0  0
 60 62  1  0  0  0  0
 60 71  1  0  0  0  0
 61 72  1  0  0  0  0
 63 64  1  0  0  0  0
M  CHG  1  72   1
M  ISO  4  41 100  59 101  69 100  80 101
M  END
> <Batch ID>
0125

> <Smiles>
CNC(C)C(=O)NC(C(=O)N1Cc2cc([101O:1][101CH2:1]C(=O)C=Cc3ccc([100NH:0][100C:0](=O)N4CCCC(n5nc(-c6ccc(Oc7ccc(F)cc7F)cc6)c(C(N)=O)c5N)C4)cc3)ccc2CC1C(=O)NC1CCCc2ccccc21)C(C)(C)C

> <Shape>
0.295

> <Color>
0.097

> <Negative vol penalty>
0.000

$$$$

  -OEChem-04052302093D

 86 94  0     1  0  0  0  0  0999 V2000
  -29.5570  -18.7839   18.3261 C   0  0  0  0  0  0  0  0  0  0  0  0
  -28.8895  -19.8577   17.7459 C   0  0  0  0  0  0  0  0  0  0  0  0
  -24.0250  -14.8018   19.8157 C   0  0  0  0  0  0  0  0  0  0  0  0
  -23.4018  -13.8451   21.9449 C   0  0  0  0  0  0  0  0  0  0  0  0
  -29.6638  -18.6983   19.7136 C   0  0  0  0  0  0  0  0  0  0  0  0
  -28.3274  -20.8462   18.5530 C   0  0  0  0  0  0  0  0  0  0  0  0
  -26.9594  -27.8774   18.6345 C   0  0  0  0  0  0  0  0  0  0  0  0
  -25.0265  -13.8410   19.6770 C   0  0  0  0  0  0  0  0  0  0  0  0
  -24.4033  -12.8842   21.8062 C   0  0  0  0  0  0  0  0  0  0  0  0
  -25.9082  -28.7677   18.8490 C   0  0  0  0  0  0  0  0  0  0  0  0
  -28.1483  -13.3091   20.8585 C   0  0  0  0  0  0  0  0  0  0  0  0
  -29.4035  -13.7397   20.4289 C   0  0  0  0  0  0  0  0  0  0  0  0
  -20.3089  -26.6076   22.4815 C   0  0  0  0  0  0  0  0  0  0  0  0
  -17.9118  -26.3141   22.4142 C   0  0  0  0  0  0  0  0  0  0  0  0
  -18.8525  -28.3938   23.2063 C   0  0  0  0  0  0  0  0  0  0  0  0
  -26.2235  -28.5567   21.2313 C   0  0  0  0  0  0  0  0  0  0  0  0
  -29.2402  -12.2922   18.5014 C   0  0  0  0  0  0  0  0  0  0  0  0
  -23.2127  -14.8040   20.9497 C   0  0  0  0  0  0  0  0  0  0  0  0
  -19.1963  -25.8165   22.1951 C   0  0  0  0  0  0  0  0  0  0  0  0
  -20.1370  -27.8962   22.9871 C   0  0  0  0  0  0  0  0  0  0  0  0
  -20.8424  -15.7015   20.6602 C   0  0  0  0  0  0  0  0  0  0  0  0
  -29.1111  -19.6912   20.5378 C   0  0  0  0  0  0  0  0  0  0  0  0
  -27.6446  -27.3107   19.7188 C   0  0  0  0  0  0  0  0  0  0  0  0
  -28.4257  -20.7731   19.9529 C   0  0  0  0  0  0  0  0  0  0  0  0
  -27.2848  -27.6615   21.0278 C   0  0  0  0  0  0  0  0  0  0  0  0
  -25.2156  -12.8821   20.6723 C   0  0  0  0  0  0  0  0  0  0  0  0
  -25.5382  -29.1053   20.1476 C   0  0  0  0  0  0  0  0  0  0  0  0
  -27.4391  -12.3700   20.1097 C   0  0  0  0  0  0  0  0  0  0  0  0
  -29.9495  -13.2313   19.2503 C   0  0  0  0  0  0  0  0  0  0  0  0
  -17.7399  -27.6028   22.9198 C   0  0  0  0  0  0  0  0  0  0  0  0
  -27.9850  -11.8616   18.9311 C   0  0  0  0  0  0  0  0  0  0  0  0
  -22.1783  -15.7967   21.0938 C   0  0  0  0  0  0  0  0  0  0  0  0
  -20.2749  -16.8958   21.0317 C   0  0  0  0  0  0  0  0  0  0  0  0
  -22.2137  -28.3063   24.1970 C   0  0  0  0  0  0  0  0  0  0  0  0
  -19.3755  -24.4729   21.6679 C   0  0  0  0  0  0  0  0  0  0  0  0
  -20.5042  -23.7382   21.7631 C   0  0  0  0  0  0  0  0  0  0  0  0
  -21.3175  -28.7362   23.2914 C   0  0  0  0  0  0  0  0  0  0  0  0
  -20.1741  -14.6293   19.9823 C   0  0  0  0  0  0  0  0  0  0  0  0
  -20.5267  -22.3803   21.1832 C   0  0  0  0  0  0  0  0  0  0  0  0
  -28.0791  -24.3531   20.7994 C   0  0  0  0  0  0  0  0  0  0  0  0
  -30.0796  -25.8263   22.8850 C   0  0  0  0  0  0  0  0  0  0  0  0
  -30.9648  -28.6876   24.5210 C   0  0  0  0  0  0  0  0  0  0  0  0
  -29.2110  -19.5311   22.0342 C   0  0  0  0  0  0  0  0  0  0  0  0
  -28.7938  -26.3726   19.4701 C   0  0  0  0  0  0  0  0  0  0  0  0
  -28.0018  -27.0965   22.2258 C   0  0  0  0  0  0  0  0  0  0  0  0
  -28.9124  -20.8143   22.8053 C   0  0  0  0  0  0  0  0  0  0  0  0
  -21.9835  -20.5788   24.0229 C   0  0  0  0  0  0  0  0  0  0  0  0
  -27.6512  -21.4806   22.2649 C   0  0  0  0  0  0  0  0  0  0  0  0
  -22.0957  -19.1686   23.4497 C   0  0  0  0  0  0  0  0  0  0  0  0
  -22.2110  -21.6492   22.9565 C   0  0  0  0  0  0  0  0  0  0  0  0
  -21.4378  -20.0906   21.1920 C   0  0  0  0  0  0  0  0  0  0  0  0
  -27.8242  -21.8781   20.7940 C   0  0  1  0  0  0  0  0  0  0  0  0
  -29.0864  -25.4587   20.6561 C   0  0  1  0  0  0  0  0  0  0  0  0
  -21.1659  -18.9981   22.2379 C   0  0  1  0  0  0  0  0  0  0  0  0
  -32.6179  -29.5720   26.1890 C   0  0  0  0  0  0  0  0  0  0  0  0
  -28.5327  -24.4659   25.1359 C   0  0  0  0  0  0  0  0  0  0  0  0
  -29.5742  -26.0852   26.7363 C   0  0  0  0  0  0  0  0  0  0  0  0
  -31.0134  -24.5049   25.4502 C   0  0  0  0  0  0  0  0  0  0  0  0
  -21.6867  -29.3271   20.2271 C   0  0  0  0  0  0  0  0  0  0  0  0
  -22.2211  -31.6765   20.8662 C   0  0  0  0  0  0  0  0  0  0  0  0
  -32.0633  -30.6295   22.5765 C   0  0  0  0  0  0  0  0  0  0  0  0
  -21.4444  -30.1092   22.6580 C   0  0  0  0  0  0  0  0  0  0  0  0
  -23.7552  -29.8042   21.5576 C   0  0  0  0  0  0  0  0  0  1  0  0
  -29.9293  -26.4493   24.2519 C   0  0  1  0  0  0  0  0  0  0  0  0
  -32.3110  -29.3619   24.7144 C   0  0  2  0  0  0  0  0  0  0  0  0
  -29.7474  -25.3856   25.3713 C   0  0  0  0  0  0  0  0  0  0  0  0
  -22.2792  -30.2072   21.3424 C   0  0  0  0  0  0  0  0  0  0  0  0
  -22.4438  -16.9597   21.6946 N   0  0  0  0  0  0  0  0  0  0  0  0
  -21.2669  -17.6063   21.6412 N   0  0  0  0  0  0  0  0  0  0  0  0
  -21.3521  -21.4308   21.7829 N   0  0  0  0  0  0  0  0  0  0  0  0
  -29.1145  -26.1786   21.9310 N   0  0  0  0  0  0  0  0  0  0  0  0
  -19.0292  -17.3972   20.8932 N   0  0  0  0  0  0  0  0  0  0  0  0
  -20.9054  -13.4736   19.6762 N   0  0  0  0  0  0  0  0  0  0  0  0
  -28.6158  -23.0848   20.6863 N   0  0  0  0  0  0  0  0  0  0  0  0
  -31.0879  -27.3169   24.4346 N   0  0  0  0  0  0  0  0  0  0  0  0
  -32.3274  -30.6893   24.0372 N   0  3  0  0  0  0  0  0  0  0  0  0
  -18.9685  -14.7008   19.6431 O   0  0  0  0  0  0  0  0  0  0  0  0
  -19.8158  -22.1706   20.1986 O   0  0  0  0  0  0  0  0  0  0  0  0
  -26.9022  -24.6302   20.9993 O   0  0  0  0  0  0  0  0  0  0  0  0
  -31.0228  -25.0610   22.6697 O   0  0  0  0  0  0  0  0  0  0  0  0
  -29.9092  -29.3137   24.4570 O   0  0  0  0  0  0  0  0  0  0  0  0
  -26.1926  -11.9441   20.5372 O   0  0  0  0  0  0  0  0  0  0  0  0
  -24.5120  -29.9735   20.3598 O   0  0  0  0  0  0  0  0  0  1  0  0
  -31.1542  -13.6461   18.8370 F   0  0  0  0  0  0  0  0  0  0  0  0
  -16.5062  -28.0803   23.1304 F   0  0  0  0  0  0  0  0  0  0  0  0
  -27.3079  -10.9601   18.2068 F   0  0  0  0  0  0  0  0  0  0  0  0
  1  2  1  0  0  0  0
  1  5  2  0  0  0  0
  2  6  2  0  0  0  0
  3  8  2  0  0  0  0
  3 18  1  0  0  0  0
  4  9  1  0  0  0  0
  4 18  2  0  0  0  0
  5 22  1  0  0  0  0
  6 24  1  0  0  0  0
  7 10  2  0  0  0  0
  7 23  1  0  0  0  0
  8 26  1  0  0  0  0
  9 26  2  0  0  0  0
 10 27  1  0  0  0  0
 11 12  2  0  0  0  0
 11 28  1  0  0  0  0
 12 29  1  0  0  0  0
 13 19  1  0  0  0  0
 13 20  2  0  0  0  0
 14 19  2  0  0  0  0
 14 30  1  0  0  0  0
 15 20  1  0  0  0  0
 15 30  2  0  0  0  0
 16 25  1  0  0  0  0
 16 27  2  0  0  0  0
 17 29  2  0  0  0  0
 17 31  1  0  0  0  0
 18 32  1  0  0  0  0
 19 35  1  0  0  0  0
 20 37  1  0  0  0  0
 21 32  1  0  0  0  0
 21 33  2  0  0  0  0
 21 38  1  0  0  0  0
 22 24  2  0  0  0  0
 22 43  1  0  0  0  0
 23 25  2  0  0  0  0
 23 44  1  0  0  0  0
 24 52  1  0  0  0  0
 25 45  1  0  0  0  0
 26 82  1  0  0  0  0
 27 83  1  0  0  0  0
 28 31  2  0  0  0  0
 28 82  1  0  0  0  0
 29 84  1  0  0  0  0
 30 85  1  0  0  0  0
 31 86  1  0  0  0  0
 32 68  2  0  0  0  0
 33 69  1  0  0  0  0
 33 72  1  0  0  0  0
 34 37  2  0  0  0  0
 35 36  2  0  0  0  0
 36 39  1  0  0  0  0
 37 62  1  0  0  0  0
 38 73  1  0  0  0  0
 38 77  2  0  0  0  0
 39 70  1  0  0  0  0
 39 78  2  0  0  0  0
 40 53  1  0  0  0  0
 40 74  1  0  0  0  0
 40 79  2  0  0  0  0
 41 64  1  0  0  0  0
 41 71  1  0  0  0  0
 41 80  2  0  0  0  0
 42 65  1  0  0  0  0
 42 75  1  0  0  0  0
 42 81  2  0  0  0  0
 43 46  1  0  0  0  0
 44 53  1  0  0  0  0
 45 71  1  0  0  0  0
 46 48  1  0  0  0  0
 47 49  1  0  0  0  0
 47 50  1  0  0  0  0
 48 52  1  0  0  0  0
 49 54  1  0  0  0  0
 50 70  1  0  0  0  0
 51 54  1  0  0  0  0
 51 70  1  0  0  0  0
 52 74  1  0  0  0  0
 53 71  1  0  0  0  0
 54 69  1  0  0  0  0
 55 65  1  0  0  0  0
 56 66  1  0  0  0  0
 57 66  1  0  0  0  0
 58 66  1  0  0  0  0
 59 67  1  0  0  0  0
 60 67  1  0  0  0  0
 61 76  1  0  0  0  0
 62 67  1  0  0  0  0
 63 67  1  0  0  0  0
 63 83  1  0  0  0  0
 64 66  1  0  0  0  0
 64 75  1  0  0  0  0
 65 76  1  0  0  0  0
 68 69  1  0  0  0  0
M  CHG  1  76   1
M  ISO  4  36 100  39 100  63 101  83 101
M  END
> <Batch ID>
0125

> <Smiles>
C=C(CC(C)(C)[101CH2:1][101O:1]c1ccc2c(c1)CN(C(=O)C(NC(=O)C(C)NC)C(C)(C)C)C(C(=O)NC1CCCc3ccccc31)C2)c1cc(F)cc(C=[100CH:0][100C:0](=O)N2CCCC(n3nc(-c4ccc(Oc5ccc(F)cc5F)cc4)c(C(N)=O)c3N)C2)c1

> <Shape>
0.255

> <Color>
0.062

> <Negative vol penalty>
0.000

$$$$

  -OEChem-04052302093D

 83 91  0     1  0  0  0  0  0999 V2000
  -28.6275  -35.8889   21.7805 C   0  0  0  0  0  0  0  0  0  0  0  0
  -28.8091  -34.5101   21.7454 C   0  0  0  0  0  0  0  0  0  0  0  0
  -23.4708   -6.9138   23.4801 C   0  0  0  0  0  0  0  0  0  0  0  0
  -21.1608   -7.4378   23.0042 C   0  0  0  0  0  0  0  0  0  0  0  0
  -27.6654  -19.8552   20.2292 C   0  0  0  0  0  0  0  0  0  0  0  0
  -28.9901  -19.4139   18.2576 C   0  0  0  0  0  0  0  0  0  0  0  0
  -27.3225  -18.5051   20.3011 C   0  0  0  0  0  0  0  0  0  0  0  0
  -28.6473  -18.0638   18.3294 C   0  0  0  0  0  0  0  0  0  0  0  0
  -27.4920  -36.4262   22.3853 C   0  0  0  0  0  0  0  0  0  0  0  0
  -27.8556  -33.6677   22.3161 C   0  0  0  0  0  0  0  0  0  0  0  0
  -26.7389  -29.7118   19.3583 C   0  0  0  0  0  0  0  0  0  0  0  0
  -23.0626   -5.9713   24.4239 C   0  0  0  0  0  0  0  0  0  0  0  0
  -20.7526   -6.4952   23.9479 C   0  0  0  0  0  0  0  0  0  0  0  0
  -27.6488  -28.6557   19.3371 C   0  0  0  0  0  0  0  0  0  0  0  0
  -21.8748   -2.8056   24.4300 C   0  0  0  0  0  0  0  0  0  0  0  0
  -22.5067   -1.5622   24.4196 C   0  0  0  0  0  0  0  0  0  0  0  0
  -26.2516  -27.4291   20.8743 C   0  0  0  0  0  0  0  0  0  0  0  0
  -23.2559   -1.9239   26.6878 C   0  0  0  0  0  0  0  0  0  0  0  0
  -22.5199   -7.6471   22.7703 C   0  0  0  0  0  0  0  0  0  0  0  0
  -28.4991  -20.3097   19.2074 C   0  0  0  0  0  0  0  0  0  0  0  0
  -27.8135  -17.6094   19.3512 C   0  0  0  0  0  0  0  0  0  0  0  0
  -23.1744   -8.4057   20.4243 C   0  0  0  0  0  0  0  0  0  0  0  0
  -26.5194  -35.5896   22.9552 C   0  0  0  0  0  0  0  0  0  0  0  0
  -25.5820  -29.6389   20.1474 C   0  0  0  0  0  0  0  0  0  0  0  0
  -26.7067  -34.1943   22.9303 C   0  0  0  0  0  0  0  0  0  0  0  0
  -25.3274  -28.4846   20.9017 C   0  0  0  0  0  0  0  0  0  0  0  0
  -21.7036   -5.7620   24.6577 C   0  0  0  0  0  0  0  0  0  0  0  0
  -27.4067  -27.5153   20.0974 C   0  0  0  0  0  0  0  0  0  0  0  0
  -21.9335   -3.6083   25.5693 C   0  0  0  0  0  0  0  0  0  0  0  0
  -23.1973   -1.1213   25.5485 C   0  0  0  0  0  0  0  0  0  0  0  0
  -22.6240   -3.1674   26.6982 C   0  0  0  0  0  0  0  0  0  0  0  0
  -22.9409   -8.6213   21.7958 C   0  0  0  0  0  0  0  0  0  0  0  0
  -23.5516   -9.6355   19.9428 C   0  0  0  0  0  0  0  0  0  0  0  0
  -28.8606  -21.7362   19.1310 C   0  0  0  0  0  0  0  0  0  0  0  0
  -27.4564  -16.2017   19.4263 C   0  0  0  0  0  0  0  0  0  0  0  0
  -28.1771  -22.7272   19.7202 C   0  0  0  0  0  0  0  0  0  0  0  0
  -26.9983  -15.5672   20.5267 C   0  0  0  0  0  0  0  0  0  0  0  0
  -23.0603   -7.2016   19.6545 C   0  0  0  0  0  0  0  0  0  0  0  0
  -28.6220  -24.1435   19.5731 C   0  0  0  0  0  0  0  0  0  0  0  0
  -26.6684  -14.1304   20.4406 C   0  0  0  0  0  0  0  0  0  0  0  0
  -24.4298  -31.3033   22.5981 C   0  0  0  0  0  0  0  0  0  0  0  0
  -21.8364  -29.4034   22.1655 C   0  0  0  0  0  0  0  0  0  0  0  0
  -20.5615  -26.4654   20.9867 C   0  0  0  0  0  0  0  0  0  0  0  0
  -25.3317  -36.2185   23.6395 C   0  0  0  0  0  0  0  0  0  0  0  0
  -24.5971  -30.7757   20.1385 C   0  0  0  0  0  0  0  0  0  0  0  0
  -24.0902  -28.3484   21.7498 C   0  0  0  0  0  0  0  0  0  0  0  0
  -24.1856  -35.2418   23.8903 C   0  0  0  0  0  0  0  0  0  0  0  0
  -23.3819  -14.2089   22.0607 C   0  0  0  0  0  0  0  0  0  0  0  0
  -24.7141  -33.9394   24.4828 C   0  0  0  0  0  0  0  0  0  0  0  0
  -23.0197  -12.7262   22.0623 C   0  0  0  0  0  0  0  0  0  0  0  0
  -24.8829  -14.4311   22.2400 C   0  0  0  0  0  0  0  0  0  0  0  0
  -25.3550  -12.2089   21.2505 C   0  0  0  0  0  0  0  0  0  0  0  0
  -25.6827  -33.2468   23.5167 C   0  0  1  0  0  0  0  0  0  0  0  0
  -23.7080  -30.8056   21.3779 C   0  0  1  0  0  0  0  0  0  0  0  0
  -23.8555  -11.9606   21.0243 C   0  0  1  0  0  0  0  0  0  0  0  0
  -18.4137  -25.1796   20.8113 C   0  0  0  0  0  0  0  0  0  0  0  0
  -22.0382  -28.6680   25.1199 C   0  0  0  0  0  0  0  0  0  0  0  0
  -20.5284  -26.7228   24.6672 C   0  0  0  0  0  0  0  0  0  0  0  0
  -19.7077  -29.0492   24.2966 C   0  0  0  0  0  0  0  0  0  0  0  0
  -20.6671  -26.4669   18.0290 C   0  0  0  0  0  0  0  0  0  0  0  0
  -27.7687  -25.1723   20.2846 C   0  0  0  0  0  0  0  0  0  1  0  0
  -21.3950  -28.0601   22.6945 C   0  0  1  0  0  0  0  0  0  0  0  0
  -19.3460  -26.1675   20.1275 C   0  0  2  0  0  0  0  0  0  0  0  0
  -20.9417  -28.1281   24.1802 C   0  0  0  0  0  0  0  0  0  0  0  0
  -23.1523   -9.8883   22.1619 N   0  0  0  0  0  0  0  0  0  0  0  0
  -23.5227  -10.4799   21.0135 N   0  0  0  0  0  0  0  0  0  0  0  0
  -25.6628  -13.6432   21.2738 N   0  0  0  0  0  0  0  0  0  0  0  0
  -23.1605  -29.4894   21.7127 N   0  0  0  0  0  0  0  0  0  0  0  0
  -23.9021  -10.0661   18.7123 N   0  0  0  0  0  0  0  0  0  0  0  0
  -22.6604   -6.0271   20.3064 N   0  0  0  0  0  0  0  0  0  0  0  0
  -24.9520  -32.5755   22.4632 N   0  0  0  0  0  0  0  0  0  0  0  0
  -20.3676  -27.5780   21.7777 N   0  0  0  0  0  0  0  0  0  0  0  0
  -19.7653  -25.5899   18.8193 N   0  3  0  0  0  0  0  0  0  0  0  0
  -23.3217   -7.1645   18.4282 O   0  0  0  0  0  0  0  0  0  0  0  0
  -29.6144  -24.4509   18.9184 O   0  0  0  0  0  0  0  0  0  0  0  0
  -27.3075  -13.4472   19.6385 O   0  0  0  0  0  0  0  0  0  0  0  0
  -24.5059  -30.5867   23.5893 O   0  0  0  0  0  0  0  0  0  0  0  0
  -21.0337  -30.3399   22.1480 O   0  0  0  0  0  0  0  0  0  0  0  0
  -21.5797  -25.7776   20.9615 O   0  0  0  0  0  0  0  0  0  0  0  0
  -21.3049   -4.8421   25.5784 O   0  0  0  0  0  0  0  0  0  0  0  0
  -28.2935  -26.4833   20.0791 O   0  0  0  0  0  0  0  0  0  1  0  0
  -23.8028    0.0735   25.5389 F   0  0  0  0  0  0  0  0  0  0  0  0
  -22.6828   -3.9336   27.7961 F   0  0  0  0  0  0  0  0  0  0  0  0
  1  2  1  0  0  0  0
  1  9  2  0  0  0  0
  2 10  2  0  0  0  0
  3 12  2  0  0  0  0
  3 19  1  0  0  0  0
  4 13  1  0  0  0  0
  4 19  2  0  0  0  0
  5  7  2  0  0  0  0
  5 20  1  0  0  0  0
  6  8  1  0  0  0  0
  6 20  2  0  0  0  0
  7 21  1  0  0  0  0
  8 21  2  0  0  0  0
  9 23  1  0  0  0  0
 10 25  1  0  0  0  0
 11 14  2  0  0  0  0
 11 24  1  0  0  0  0
 12 27  1  0  0  0  0
 13 27  2  0  0  0  0
 14 28  1  0  0  0  0
 15 16  2  0  0  0  0
 15 29  1  0  0  0  0
 16 30  1  0  0  0  0
 17 26  1  0  0  0  0
 17 28  2  0  0  0  0
 18 30  2  0  0  0  0
 18 31  1  0  0  0  0
 19 32  1  0  0  0  0
 20 34  1  0  0  0  0
 21 35  1  0  0  0  0
 22 32  1  0  0  0  0
 22 33  2  0  0  0  0
 22 38  1  0  0  0  0
 23 25  2  0  0  0  0
 23 44  1  0  0  0  0
 24 26  2  0  0  0  0
 24 45  1  0  0  0  0
 25 53  1  0  0  0  0
 26 46  1  0  0  0  0
 27 80  1  0  0  0  0
 28 81  1  0  0  0  0
 29 31  2  0  0  0  0
 29 80  1  0  0  0  0
 30 82  1  0  0  0  0
 31 83  1  0  0  0  0
 32 65  2  0  0  0  0
 33 66  1  0  0  0  0
 33 69  1  0  0  0  0
 34 36  2  0  0  0  0
 35 37  2  0  0  0  0
 36 39  1  0  0  0  0
 37 40  1  0  0  0  0
 38 70  1  0  0  0  0
 38 74  2  0  0  0  0
 39 61  1  0  0  0  0
 39 75  2  0  0  0  0
 40 67  1  0  0  0  0
 40 76  2  0  0  0  0
 41 54  1  0  0  0  0
 41 71  1  0  0  0  0
 41 77  2  0  0  0  0
 42 62  1  0  0  0  0
 42 68  1  0  0  0  0
 42 78  2  0  0  0  0
 43 63  1  0  0  0  0
 43 72  1  0  0  0  0
 43 79  2  0  0  0  0
 44 47  1  0  0  0  0
 45 54  1  0  0  0  0
 46 68  1  0  0  0  0
 47 49  1  0  0  0  0
 48 50  1  0  0  0  0
 48 51  1  0  0  0  0
 49 53  1  0  0  0  0
 50 55  1  0  0  0  0
 51 67  1  0  0  0  0
 52 55  1  0  0  0  0
 52 67  1  0  0  0  0
 53 71  1  0  0  0  0
 54 68  1  0  0  0  0
 55 66  1  0  0  0  0
 56 63  1  0  0  0  0
 57 64  1  0  0  0  0
 58 64  1  0  0  0  0
 59 64  1  0  0  0  0
 60 73  1  0  0  0  0
 61 81  1  0  0  0  0
 62 64  1  0  0  0  0
 62 72  1  0  0  0  0
 63 73  1  0  0  0  0
 65 66  1  0  0  0  0
M  CHG  1  73   1
M  ISO  4  37 100  40 100  61 101  81 101
M  END
> <Batch ID>
0125

> <Smiles>
CNC(C)C(=O)NC(C(=O)N1Cc2cc([101O:1][101CH2:1]C(=O)C=Cc3ccc(C=[100CH:0][100C:0](=O)N4CCCC(n5nc(-c6ccc(Oc7ccc(F)cc7F)cc6)c(C(N)=O)c5N)C4)cc3)ccc2CC1C(=O)NC1CCCc2ccccc21)C(C)(C)C

> <Shape>
0.335

> <Color>
0.074

> <Negative vol penalty>
0.000

$$$$

  -OEChem-04052302093D

 84 92  0     1  0  0  0  0  0999 V2000
  -28.4120  -11.9681   18.3525 C   0  0  0  0  0  0  0  0  0  0  0  0
  -28.2579  -13.2817   17.9210 C   0  0  0  0  0  0  0  0  0  0  0  0
  -31.4479  -17.9006   21.5561 C   0  0  0  0  0  0  0  0  0  0  0  0
  -30.5663  -18.2232   19.3299 C   0  0  0  0  0  0  0  0  0  0  0  0
  -23.3176  -29.0997   20.2669 C   0  0  0  0  0  0  0  0  0  0  0  0
  -27.5285  -11.4356   19.2905 C   0  0  0  0  0  0  0  0  0  0  0  0
  -27.2195  -14.0631   18.4263 C   0  0  0  0  0  0  0  0  0  0  0  0
  -27.3438  -20.0866   19.5255 C   0  0  0  0  0  0  0  0  0  0  0  0
  -23.0947  -30.1911   21.1063 C   0  0  0  0  0  0  0  0  0  0  0  0
  -31.3790  -16.5183   21.3831 C   0  0  0  0  0  0  0  0  0  0  0  0
  -30.4974  -16.8408   19.1569 C   0  0  0  0  0  0  0  0  0  0  0  0
  -26.8903  -21.1832   18.7936 C   0  0  0  0  0  0  0  0  0  0  0  0
  -29.0094  -14.1103   21.4880 C   0  0  0  0  0  0  0  0  0  0  0  0
  -28.4830  -13.3525   22.5340 C   0  0  0  0  0  0  0  0  0  0  0  0
  -24.8410  -21.1774   20.0662 C   0  0  0  0  0  0  0  0  0  0  0  0
  -25.4176  -30.1553   21.7696 C   0  0  0  0  0  0  0  0  0  0  0  0
  -30.5686  -12.1454   22.7088 C   0  0  0  0  0  0  0  0  0  0  0  0
  -31.0415  -18.7531   20.5295 C   0  0  0  0  0  0  0  0  0  0  0  0
  -24.5904  -28.5360   20.1789 C   0  0  0  0  0  0  0  0  0  0  0  0
  -32.1967  -21.0238   20.4001 C   0  0  0  0  0  0  0  0  0  0  0  0
  -26.4846  -12.2140   19.8149 C   0  0  0  0  0  0  0  0  0  0  0  0
  -26.5434  -19.5194   20.5276 C   0  0  0  0  0  0  0  0  0  0  0  0
  -26.3204  -13.5401   19.3712 C   0  0  0  0  0  0  0  0  0  0  0  0
  -25.2877  -20.0753   20.8111 C   0  0  0  0  0  0  0  0  0  0  0  0
  -24.1447  -30.7190   21.8577 C   0  0  0  0  0  0  0  0  0  0  0  0
  -25.6404  -29.0638   20.9302 C   0  0  0  0  0  0  0  0  0  0  0  0
  -30.9038  -15.9884   20.1835 C   0  0  0  0  0  0  0  0  0  0  0  0
  -25.6375  -21.7270   19.0620 C   0  0  0  0  0  0  0  0  0  0  0  0
  -30.3153  -13.8857   21.0523 C   0  0  0  0  0  0  0  0  0  0  0  0
  -29.2626  -12.3700   23.1444 C   0  0  0  0  0  0  0  0  0  0  0  0
  -31.0949  -12.9033   21.6628 C   0  0  0  0  0  0  0  0  0  0  0  0
  -31.1119  -20.1812   20.7078 C   0  0  0  0  0  0  0  0  0  0  0  0
  -31.7664  -22.2799   20.7516 C   0  0  0  0  0  0  0  0  0  0  0  0
  -24.7933  -27.3835   19.2832 C   0  0  0  0  0  0  0  0  0  0  0  0
  -24.1684  -26.2043   19.4068 C   0  0  0  0  0  0  0  0  0  0  0  0
  -33.4789  -20.7002   19.8459 C   0  0  0  0  0  0  0  0  0  0  0  0
  -24.4522  -25.0948   18.4508 C   0  0  0  0  0  0  0  0  0  0  0  0
  -25.2110  -16.6708   20.9901 C   0  0  0  0  0  0  0  0  0  0  0  0
  -24.4115  -17.9446   23.8642 C   0  0  0  0  0  0  0  0  0  0  0  0
  -23.8192  -20.7398   25.7305 C   0  0  0  0  0  0  0  0  0  0  0  0
  -27.9342  -26.1860   20.6883 C   0  0  0  0  0  0  0  0  0  0  0  0
  -25.5261  -11.5798   20.7915 C   0  0  0  0  0  0  0  0  0  0  0  0
  -27.0581  -18.3534   21.3262 C   0  0  0  0  0  0  0  0  0  0  0  0
  -24.3983  -19.5161   21.8904 C   0  0  0  0  0  0  0  0  0  0  0  0
  -24.6783  -12.5921   21.5575 C   0  0  0  0  0  0  0  0  0  0  0  0
  -27.6905  -23.7561   23.3592 C   0  0  0  0  0  0  0  0  0  0  0  0
  -24.1038  -13.6363   20.6054 C   0  0  0  0  0  0  0  0  0  0  0  0
  -28.6567  -22.6736   22.8747 C   0  0  0  0  0  0  0  0  0  0  0  0
  -26.9199  -24.3708   22.1946 C   0  0  0  0  0  0  0  0  0  0  0  0
  -28.7461  -23.8452   20.6254 C   0  0  0  0  0  0  0  0  0  0  0  0
  -25.2213  -14.4272   19.9146 C   0  0  1  0  0  0  0  0  0  0  0  0
  -25.9455  -17.5358   21.9749 C   0  0  1  0  0  0  0  0  0  0  0  0
  -29.5719  -23.2005   21.7535 C   0  0  2  0  0  0  0  0  0  0  0  0
  -23.9073  -31.8869   22.7540 C   0  0  0  0  0  0  0  0  0  0  0  0
  -23.3387  -22.1179   27.7719 C   0  0  0  0  0  0  0  0  0  0  0  0
  -21.5224  -17.1681   23.2640 C   0  0  0  0  0  0  0  0  0  0  0  0
  -20.7993  -18.7184   25.0921 C   0  0  0  0  0  0  0  0  0  0  0  0
  -22.2450  -16.7560   25.6225 C   0  0  0  0  0  0  0  0  0  0  0  0
  -26.6951  -20.9816   26.3862 C   0  0  0  0  0  0  0  0  0  0  0  0
  -27.0172  -28.4852   20.8613 C   0  0  0  0  0  0  0  0  0  0  0  0
  -24.3053  -23.6964   19.0125 C   0  0  0  0  0  0  0  0  0  1  0  0
  -23.2377  -18.7312   24.3957 C   0  0  1  0  0  0  0  0  0  0  0  0
  -24.3095  -21.1553   27.1058 C   0  0  2  0  0  0  0  0  0  0  0  0
  -21.9668  -17.8530   24.5718 C   0  0  0  0  0  0  0  0  0  0  0  0
  -30.0707  -20.8458   21.2160 N   0  0  0  0  0  0  0  0  0  0  0  0
  -30.4994  -22.1194   21.2303 N   0  0  0  0  0  0  0  0  0  0  0  0
  -24.9436  -18.3718   22.6393 N   0  0  0  0  0  0  0  0  0  0  0  0
  -27.8493  -24.8695   21.1711 N   0  0  0  0  0  0  0  0  0  0  0  0
  -32.3519  -23.4949   20.6950 N   0  0  0  0  0  0  0  0  0  0  0  0
  -33.7567  -19.3604   19.5425 N   0  0  0  0  0  0  0  0  0  0  0  0
  -25.7694  -15.4190   20.8147 N   0  0  0  0  0  0  0  0  0  0  0  0
  -23.6972  -19.3705   25.6239 N   0  0  0  0  0  0  0  0  0  0  0  0
  -27.0453  -27.0932   21.2519 N   0  0  0  0  0  0  0  0  0  0  0  0
  -25.6375  -21.8237   27.0022 N   0  3  0  0  0  0  0  0  0  0  0  0
  -34.3583  -21.5710   19.6415 O   0  0  0  0  0  0  0  0  0  0  0  0
  -24.7823  -25.3051   17.2868 O   0  0  0  0  0  0  0  0  0  0  0  0
  -24.2109  -17.1063   20.4317 O   0  0  0  0  0  0  0  0  0  0  0  0
  -24.8450  -16.9909   24.5154 O   0  0  0  0  0  0  0  0  0  0  0  0
  -23.5660  -21.5493   24.8410 O   0  0  0  0  0  0  0  0  0  0  0  0
  -28.7463  -26.5292   19.8224 O   0  0  0  0  0  0  0  0  0  0  0  0
  -30.8367  -14.6395   20.0142 O   0  0  0  0  0  0  0  0  0  0  0  0
  -25.1922  -22.7969   18.3487 O   0  0  0  0  0  0  0  0  0  1  0  0
  -28.7575  -11.6434   24.1499 F   0  0  0  0  0  0  0  0  0  0  0  0
  -32.3506  -12.6837   21.2494 F   0  0  0  0  0  0  0  0  0  0  0  0
  1  2  1  0  0  0  0
  1  6  2  0  0  0  0
  2  7  2  0  0  0  0
  3 10  2  0  0  0  0
  3 18  1  0  0  0  0
  4 11  1  0  0  0  0
  4 18  2  0  0  0  0
  5  9  2  0  0  0  0
  5 19  1  0  0  0  0
  6 21  1  0  0  0  0
  7 23  1  0  0  0  0
  8 12  2  0  0  0  0
  8 22  1  0  0  0  0
  9 25  1  0  0  0  0
 10 27  1  0  0  0  0
 11 27  2  0  0  0  0
 12 28  1  0  0  0  0
 13 14  2  0  0  0  0
 13 29  1  0  0  0  0
 14 30  1  0  0  0  0
 15 24  1  0  0  0  0
 15 28  2  0  0  0  0
 16 25  2  0  0  0  0
 16 26  1  0  0  0  0
 17 30  2  0  0  0  0
 17 31  1  0  0  0  0
 18 32  1  0  0  0  0
 19 26  2  0  0  0  0
 19 34  1  0  0  0  0
 20 32  1  0  0  0  0
 20 33  2  0  0  0  0
 20 36  1  0  0  0  0
 21 23  2  0  0  0  0
 21 42  1  0  0  0  0
 22 24  2  0  0  0  0
 22 43  1  0  0  0  0
 23 51  1  0  0  0  0
 24 44  1  0  0  0  0
 25 54  1  0  0  0  0
 26 60  1  0  0  0  0
 27 81  1  0  0  0  0
 28 82  1  0  0  0  0
 29 31  2  0  0  0  0
 29 81  1  0  0  0  0
 30 83  1  0  0  0  0
 31 84  1  0  0  0  0
 32 65  2  0  0  0  0
 33 66  1  0  0  0  0
 33 69  1  0  0  0  0
 34 35  2  0  0  0  0
 35 37  1  0  0  0  0
 36 70  1  0  0  0  0
 36 75  2  0  0  0  0
 37 61  1  0  0  0  0
 37 76  2  0  0  0  0
 38 52  1  0  0  0  0
 38 71  1  0  0  0  0
 38 77  2  0  0  0  0
 39 62  1  0  0  0  0
 39 67  1  0  0  0  0
 39 78  2  0  0  0  0
 40 63  1  0  0  0  0
 40 72  1  0  0  0  0
 40 79  2  0  0  0  0
 41 68  1  0  0  0  0
 41 73  1  0  0  0  0
 41 80  2  0  0  0  0
 42 45  1  0  0  0  0
 43 52  1  0  0  0  0
 44 67  1  0  0  0  0
 45 47  1  0  0  0  0
 46 48  1  0  0  0  0
 46 49  1  0  0  0  0
 47 51  1  0  0  0  0
 48 53  1  0  0  0  0
 49 68  1  0  0  0  0
 50 53  1  0  0  0  0
 50 68  1  0  0  0  0
 51 71  1  0  0  0  0
 52 67  1  0  0  0  0
 53 66  1  0  0  0  0
 55 63  1  0  0  0  0
 56 64  1  0  0  0  0
 57 64  1  0  0  0  0
 58 64  1  0  0  0  0
 59 74  1  0  0  0  0
 60 73  1  0  0  0  0
 61 82  1  0  0  0  0
 62 64  1  0  0  0  0
 62 72  1  0  0  0  0
 63 74  1  0  0  0  0
 65 66  1  0  0  0  0
M  CHG  1  74   1
M  ISO  4  41 100  61 101  73 100  82 101
M  END
> <Batch ID>
0125

> <Smiles>
CNC(C)C(=O)NC(C(=O)N1Cc2cc([101O:1][101CH2:1]C(=O)C=Cc3ccc(C)cc3C[100NH:0][100C:0](=O)N3CCCC(n4nc(-c5ccc(Oc6ccc(F)cc6F)cc5)c(C(N)=O)c4N)C3)ccc2CC1C(=O)NC1CCCc2ccccc21)C(C)(C)C

> <Shape>
0.198

> <Color>
0.069

> <Negative vol penalty>
0.000

$$$$

  -OEChem-04052302093D

 84 92  0     1  0  0  0  0  0999 V2000
  -17.7360  -25.7402   22.4938 C   0  0  0  0  0  0  0  0  0  0  0  0
  -19.0527  -25.3709   22.2381 C   0  0  0  0  0  0  0  0  0  0  0  0
  -24.9707  -11.0564   23.2926 C   0  0  0  0  0  0  0  0  0  0  0  0
  -24.1853   -9.9122   21.3150 C   0  0  0  0  0  0  0  0  0  0  0  0
  -31.2087  -22.2789   15.6803 C   0  0  0  0  0  0  0  0  0  0  0  0
  -17.3424  -27.0684   22.3355 C   0  0  0  0  0  0  0  0  0  0  0  0
  -19.9763  -26.3295   21.8228 C   0  0  0  0  0  0  0  0  0  0  0  0
  -25.9384  -26.5396   23.2068 C   0  0  0  0  0  0  0  0  0  0  0  0
  -31.3762  -21.0408   15.0602 C   0  0  0  0  0  0  0  0  0  0  0  0
  -23.9519  -10.4649   24.0395 C   0  0  0  0  0  0  0  0  0  0  0  0
  -23.1665   -9.3206   22.0619 C   0  0  0  0  0  0  0  0  0  0  0  0
  -27.0777  -26.1393   22.5101 C   0  0  0  0  0  0  0  0  0  0  0  0
  -22.8401   -6.7455   24.2258 C   0  0  0  0  0  0  0  0  0  0  0  0
  -22.6094   -5.3826   24.0391 C   0  0  0  0  0  0  0  0  0  0  0  0
  -30.5796  -21.1669   17.7308 C   0  0  0  0  0  0  0  0  0  0  0  0
  -27.3710  -28.3946   21.7058 C   0  0  0  0  0  0  0  0  0  0  0  0
  -20.3482   -5.8618   23.3357 C   0  0  0  0  0  0  0  0  0  0  0  0
  -25.0873  -10.7801   21.9304 C   0  0  0  0  0  0  0  0  0  0  0  0
  -30.8104  -22.3420   17.0156 C   0  0  0  0  0  0  0  0  0  0  0  0
  -30.7471  -19.9287   17.1107 C   0  0  0  0  0  0  0  0  0  0  0  0
  -27.4342  -10.8860   20.9360 C   0  0  0  0  0  0  0  0  0  0  0  0
  -18.2640  -28.0455   21.9273 C   0  0  0  0  0  0  0  0  0  0  0  0
  -25.4999  -27.8703   23.1493 C   0  0  0  0  0  0  0  0  0  0  0  0
  -19.5944  -27.6717   21.6575 C   0  0  0  0  0  0  0  0  0  0  0  0
  -26.2273  -28.8098   22.4047 C   0  0  0  0  0  0  0  0  0  0  0  0
  -31.1454  -19.8657   15.7754 C   0  0  0  0  0  0  0  0  0  0  0  0
  -23.0499   -9.5970   23.4242 C   0  0  0  0  0  0  0  0  0  0  0  0
  -27.7926  -27.0661   21.7571 C   0  0  0  0  0  0  0  0  0  0  0  0
  -21.8249   -7.6666   23.9676 C   0  0  0  0  0  0  0  0  0  0  0  0
  -21.3635   -4.9408   23.5941 C   0  0  0  0  0  0  0  0  0  0  0  0
  -20.5790   -7.2247   23.5225 C   0  0  0  0  0  0  0  0  0  0  0  0
  -26.1392  -11.3913   21.1582 C   0  0  0  0  0  0  0  0  0  0  0  0
  -28.0411  -11.8320   20.1466 C   0  0  0  0  0  0  0  0  0  0  0  0
  -30.6337  -23.6507   17.6695 C   0  0  0  0  0  0  0  0  0  0  0  0
  -30.4981  -18.7188   17.8836 C   0  0  0  0  0  0  0  0  0  0  0  0
  -29.9110  -23.8555   18.7795 C   0  0  0  0  0  0  0  0  0  0  0  0
  -29.3199  -18.3800   18.4454 C   0  0  0  0  0  0  0  0  0  0  0  0
  -28.0348   -9.6701   21.4014 C   0  0  0  0  0  0  0  0  0  0  0  0
  -29.7866  -25.2249   19.3582 C   0  0  0  0  0  0  0  0  0  0  0  0
  -29.2234  -17.1101   19.1929 C   0  0  0  0  0  0  0  0  0  0  0  0
  -22.8685  -29.3223   22.1142 C   0  0  0  0  0  0  0  0  0  0  0  0
  -24.2768  -31.9442   23.4043 C   0  0  0  0  0  0  0  0  0  0  0  0
  -27.1503  -33.5037   24.3829 C   0  0  0  0  0  0  0  0  0  0  0  0
  -17.7806  -29.4596   21.7245 C   0  0  0  0  0  0  0  0  0  0  0  0
  -24.2841  -28.2920   23.9282 C   0  0  0  0  0  0  0  0  0  0  0  0
  -25.8099  -30.2548   22.3269 C   0  0  0  0  0  0  0  0  0  0  0  0
  -18.9099  -30.4835   21.6423 C   0  0  0  0  0  0  0  0  0  0  0  0
  -26.1389  -15.8103   17.7001 C   0  0  0  0  0  0  0  0  0  0  0  0
  -20.0113  -29.9898   20.7096 C   0  0  0  0  0  0  0  0  0  0  0  0
  -25.9509  -14.5191   18.4921 C   0  0  0  0  0  0  0  0  0  0  0  0
  -26.7605  -16.9172   18.5505 C   0  0  0  0  0  0  0  0  0  0  0  0
  -27.8521  -15.2270   19.9969 C   0  0  0  0  0  0  0  0  0  0  0  0
  -20.6315  -28.6871   21.2292 C   0  0  1  0  0  0  0  0  0  0  0  0
  -23.6362  -29.5612   23.3835 C   0  0  1  0  0  0  0  0  0  0  0  0
  -27.2715  -14.0854   19.1477 C   0  0  1  0  0  0  0  0  0  0  0  0
  -31.3338  -18.5567   15.0782 C   0  0  0  0  0  0  0  0  0  0  0  0
  -27.9873  -35.6557   25.3657 C   0  0  0  0  0  0  0  0  0  0  0  0
  -23.8989  -33.3201   20.7073 C   0  0  0  0  0  0  0  0  0  0  0  0
  -25.5572  -35.0487   21.4353 C   0  0  0  0  0  0  0  0  0  0  0  0
  -23.4209  -34.7652   22.6916 C   0  0  0  0  0  0  0  0  0  0  0  0
  -28.2553  -32.1246   26.7570 C   0  0  0  0  0  0  0  0  0  0  0  0
  -28.9445  -25.3288   20.6123 C   0  0  0  0  0  0  0  0  0  1  0  0
  -25.2245  -33.0058   22.9005 C   0  0  1  0  0  0  0  0  0  0  0  0
  -27.5115  -34.2414   25.6595 C   0  0  2  0  0  0  0  0  0  0  0  0
  -24.5324  -34.0074   21.9333 C   0  0  0  0  0  0  0  0  0  0  0  0
  -25.9346  -12.5671   20.5586 N   0  0  0  0  0  0  0  0  0  0  0  0
  -27.1091  -12.8086   19.9518 N   0  0  0  0  0  0  0  0  0  0  0  0
  -27.9908  -16.4599   19.2137 N   0  0  0  0  0  0  0  0  0  0  0  0
  -24.6109  -30.6168   23.1008 N   0  0  0  0  0  0  0  0  0  0  0  0
  -29.2758  -11.9155   19.6071 N   0  0  0  0  0  0  0  0  0  0  0  0
  -27.2702   -8.8114   22.2029 N   0  0  0  0  0  0  0  0  0  0  0  0
  -21.5495  -28.9619   22.3138 N   0  0  0  0  0  0  0  0  0  0  0  0
  -25.8097  -33.6258   24.0843 N   0  0  0  0  0  0  0  0  0  0  0  0
  -28.5965  -33.5216   26.3845 N   0  3  0  0  0  0  0  0  0  0  0  0
  -29.2199   -9.3624   21.1287 O   0  0  0  0  0  0  0  0  0  0  0  0
  -30.3321  -26.2003   18.8492 O   0  0  0  0  0  0  0  0  0  0  0  0
  -30.2406  -16.7044   19.7582 O   0  0  0  0  0  0  0  0  0  0  0  0
  -23.4308  -29.4565   21.0337 O   0  0  0  0  0  0  0  0  0  0  0  0
  -23.2806  -32.2799   24.0498 O   0  0  0  0  0  0  0  0  0  0  0  0
  -27.9756  -32.8844   23.7152 O   0  0  0  0  0  0  0  0  0  0  0  0
  -22.0558   -9.0194   24.1527 O   0  0  0  0  0  0  0  0  0  0  0  0
  -28.9046  -26.6779   21.0756 O   0  0  0  0  0  0  0  0  0  1  0  0
  -21.1425   -3.6321   23.4133 F   0  0  0  0  0  0  0  0  0  0  0  0
  -19.6002   -8.1049   23.2716 F   0  0  0  0  0  0  0  0  0  0  0  0
  1  2  1  0  0  0  0
  1  6  2  0  0  0  0
  2  7  2  0  0  0  0
  3 10  2  0  0  0  0
  3 18  1  0  0  0  0
  4 11  1  0  0  0  0
  4 18  2  0  0  0  0
  5  9  2  0  0  0  0
  5 19  1  0  0  0  0
  6 22  1  0  0  0  0
  7 24  1  0  0  0  0
  8 12  2  0  0  0  0
  8 23  1  0  0  0  0
  9 26  1  0  0  0  0
 10 27  1  0  0  0  0
 11 27  2  0  0  0  0
 12 28  1  0  0  0  0
 13 14  2  0  0  0  0
 13 29  1  0  0  0  0
 14 30  1  0  0  0  0
 15 19  2  0  0  0  0
 15 20  1  0  0  0  0
 16 25  1  0  0  0  0
 16 28  2  0  0  0  0
 17 30  2  0  0  0  0
 17 31  1  0  0  0  0
 18 32  1  0  0  0  0
 19 34  1  0  0  0  0
 20 26  2  0  0  0  0
 20 35  1  0  0  0  0
 21 32  1  0  0  0  0
 21 33  2  0  0  0  0
 21 38  1  0  0  0  0
 22 24  2  0  0  0  0
 22 44  1  0  0  0  0
 23 25  2  0  0  0  0
 23 45  1  0  0  0  0
 24 53  1  0  0  0  0
 25 46  1  0  0  0  0
 26 56  1  0  0  0  0
 27 81  1  0  0  0  0
 28 82  1  0  0  0  0
 29 31  2  0  0  0  0
 29 81  1  0  0  0  0
 30 83  1  0  0  0  0
 31 84  1  0  0  0  0
 32 66  2  0  0  0  0
 33 67  1  0  0  0  0
 33 70  1  0  0  0  0
 34 36  2  0  0  0  0
 35 37  2  0  0  0  0
 36 39  1  0  0  0  0
 37 40  1  0  0  0  0
 38 71  1  0  0  0  0
 38 75  2  0  0  0  0
 39 62  1  0  0  0  0
 39 76  2  0  0  0  0
 40 68  1  0  0  0  0
 40 77  2  0  0  0  0
 41 54  1  0  0  0  0
 41 72  1  0  0  0  0
 41 78  2  0  0  0  0
 42 63  1  0  0  0  0
 42 69  1  0  0  0  0
 42 79  2  0  0  0  0
 43 64  1  0  0  0  0
 43 73  1  0  0  0  0
 43 80  2  0  0  0  0
 44 47  1  0  0  0  0
 45 54  1  0  0  0  0
 46 69  1  0  0  0  0
 47 49  1  0  0  0  0
 48 50  1  0  0  0  0
 48 51  1  0  0  0  0
 49 53  1  0  0  0  0
 50 55  1  0  0  0  0
 51 68  1  0  0  0  0
 52 55  1  0  0  0  0
 52 68  1  0  0  0  0
 53 72  1  0  0  0  0
 54 69  1  0  0  0  0
 55 67  1  0  0  0  0
 57 64  1  0  0  0  0
 58 65  1  0  0  0  0
 59 65  1  0  0  0  0
 60 65  1  0  0  0  0
 61 74  1  0  0  0  0
 62 82  1  0  0  0  0
 63 65  1  0  0  0  0
 63 73  1  0  0  0  0
 64 74  1  0  0  0  0
 66 67  1  0  0  0  0
M  CHG  1  74   1
M  ISO  4  37 100  40 100  62 101  82 101
M  END
> <Batch ID>
0125

> <Smiles>
CNC(C)C(=O)NC(C(=O)N1Cc2cc([101O:1][101CH2:1]C(=O)C=Cc3ccc(C)c(C=[100CH:0][100C:0](=O)N4CCCC(n5nc(-c6ccc(Oc7ccc(F)cc7F)cc6)c(C(N)=O)c5N)C4)c3)ccc2CC1C(=O)NC1CCCc2ccccc21)C(C)(C)C

> <Shape>
0.290

> <Color>
0.091

> <Negative vol penalty>
0.000

$$$$

  -OEChem-04052302093D

 82 90  0     1  0  0  0  0  0999 V2000
  -27.1858  -35.1311   24.2752 C   0  0  0  0  0  0  0  0  0  0  0  0
  -27.8893  -33.9495   24.0646 C   0  0  0  0  0  0  0  0  0  0  0  0
  -29.3296  -18.0589   16.2753 C   0  0  0  0  0  0  0  0  0  0  0  0
  -22.5063  -15.7562   21.7505 C   0  0  0  0  0  0  0  0  0  0  0  0
  -22.8979  -16.1177   19.3940 C   0  0  0  0  0  0  0  0  0  0  0  0
  -29.4970  -19.1376   17.1436 C   0  0  0  0  0  0  0  0  0  0  0  0
  -29.5885  -16.7614   16.7169 C   0  0  0  0  0  0  0  0  0  0  0  0
  -25.7916  -35.1226   24.2639 C   0  0  0  0  0  0  0  0  0  0  0  0
  -27.1988  -32.7583   23.8437 C   0  0  0  0  0  0  0  0  0  0  0  0
  -28.8969  -28.1411   20.1963 C   0  0  0  0  0  0  0  0  0  0  0  0
  -21.5296  -16.7519   21.7410 C   0  0  0  0  0  0  0  0  0  0  0  0
  -21.9212  -17.1134   19.3845 C   0  0  0  0  0  0  0  0  0  0  0  0
  -29.5262  -26.9241   20.4549 C   0  0  0  0  0  0  0  0  0  0  0  0
  -21.6627  -20.3584   20.2978 C   0  0  0  0  0  0  0  0  0  0  0  0
  -21.9583  -21.5499   19.6355 C   0  0  0  0  0  0  0  0  0  0  0  0
  -30.1824  -17.6212   18.8951 C   0  0  0  0  0  0  0  0  0  0  0  0
  -27.3753  -25.8345   20.5288 C   0  0  0  0  0  0  0  0  0  0  0  0
  -20.0816  -21.1933   18.1563 C   0  0  0  0  0  0  0  0  0  0  0  0
  -23.1905  -15.4391   20.5770 C   0  0  0  0  0  0  0  0  0  0  0  0
  -29.9234  -18.9188   18.4535 C   0  0  0  0  0  0  0  0  0  0  0  0
  -30.0149  -16.5425   18.0268 C   0  0  0  0  0  0  0  0  0  0  0  0
  -24.0156  -13.0364   20.3447 C   0  0  0  0  0  0  0  0  0  0  0  0
  -25.0839  -33.9324   24.0331 C   0  0  0  0  0  0  0  0  0  0  0  0
  -27.4991  -28.2159   20.1127 C   0  0  0  0  0  0  0  0  0  0  0  0
  -25.7939  -32.7336   23.8306 C   0  0  0  0  0  0  0  0  0  0  0  0
  -26.7308  -27.0531   20.2665 C   0  0  0  0  0  0  0  0  0  0  0  0
  -21.2370  -17.4306   20.5580 C   0  0  0  0  0  0  0  0  0  0  0  0
  -28.7652  -25.7711   20.6240 C   0  0  0  0  0  0  0  0  0  0  0  0
  -20.5765  -19.5844   19.8893 C   0  0  0  0  0  0  0  0  0  0  0  0
  -21.1678  -21.9673   18.5648 C   0  0  0  0  0  0  0  0  0  0  0  0
  -19.7860  -20.0018   18.8185 C   0  0  0  0  0  0  0  0  0  0  0  0
  -24.1999  -14.4109   20.5864 C   0  0  0  0  0  0  0  0  0  0  0  0
  -25.2714  -12.4944   20.4693 C   0  0  0  0  0  0  0  0  0  0  0  0
  -30.0997  -20.0589   19.3697 C   0  0  0  0  0  0  0  0  0  0  0  0
  -29.5406  -21.2688   19.2097 C   0  0  0  0  0  0  0  0  0  0  0  0
  -29.7404  -22.3528   20.1455 C   0  0  0  0  0  0  0  0  0  0  0  0
  -29.1863  -23.5591   19.9912 C   0  0  0  0  0  0  0  0  0  1  0  0
  -30.2847  -15.1890   18.4859 C   0  0  0  0  0  0  0  0  0  0  0  0
  -22.8164  -12.3141   20.0351 C   0  0  0  0  0  0  0  0  0  0  0  0
  -30.7387  -14.9204   19.8697 C   0  0  0  0  0  0  0  0  0  0  0  0
  -25.2330  -29.7385   21.7406 C   0  0  0  0  0  0  0  0  0  0  0  0
  -23.3054  -28.5329   19.4269 C   0  0  0  0  0  0  0  0  0  0  0  0
  -22.7761  -26.1380   17.0539 C   0  0  0  0  0  0  0  0  0  0  0  0
  -23.5766  -33.9640   24.0772 C   0  0  0  0  0  0  0  0  0  0  0  0
  -26.8370  -29.5314   19.8067 C   0  0  0  0  0  0  0  0  0  0  0  0
  -25.2282  -27.0763   20.1662 C   0  0  0  0  0  0  0  0  0  0  0  0
  -22.9233  -32.7283   23.4635 C   0  0  0  0  0  0  0  0  0  0  0  0
  -29.4402  -13.1510   22.7051 C   0  0  0  0  0  0  0  0  0  0  0  0
  -23.6024  -31.4592   23.9684 C   0  0  0  0  0  0  0  0  0  0  0  0
  -27.9290  -13.1829   22.4794 C   0  0  0  0  0  0  0  0  0  0  0  0
  -30.1073  -14.4258   22.1989 C   0  0  0  0  0  0  0  0  0  0  0  0
  -28.3021  -14.7629   20.5327 C   0  0  0  0  0  0  0  0  0  0  0  0
  -25.0809  -31.4259   23.5629 C   0  0  1  0  0  0  0  0  0  0  0  0
  -25.3792  -29.5847   20.2531 C   0  0  1  0  0  0  0  0  0  0  0  0
  -27.5969  -13.4800   21.0063 C   0  0  2  0  0  0  0  0  0  0  0  0
  -21.0923  -25.3921   15.3493 C   0  0  0  0  0  0  0  0  0  0  0  0
  -21.5709  -27.3710   21.6521 C   0  0  0  0  0  0  0  0  0  0  0  0
  -20.4979  -25.8864   19.9454 C   0  0  0  0  0  0  0  0  0  0  0  0
  -20.2940  -28.3645   19.7451 C   0  0  0  0  0  0  0  0  0  0  0  0
  -24.6871  -26.5241   14.8273 C   0  0  0  0  0  0  0  0  0  0  0  0
  -22.5137  -27.2596   19.2511 C   0  0  1  0  0  0  0  0  0  0  0  0
  -22.3313  -26.2358   15.6058 C   0  0  2  0  0  0  0  0  0  0  0  0
  -21.2473  -27.2200   20.1523 C   0  0  0  0  0  0  0  0  0  0  0  0
  -25.4726  -14.7228   20.8452 N   0  0  0  0  0  0  0  0  0  0  0  0
  -30.1471  -14.1347   17.7282 N   0  0  0  0  0  0  0  0  0  0  0  0
  -26.0994  -13.5366   20.7669 N   0  0  0  0  0  0  0  0  0  0  0  0
  -29.7425  -14.6976   20.8100 N   0  0  0  0  0  0  0  0  0  0  0  0
  -24.6271  -28.3876   19.8717 N   0  0  0  0  0  0  0  0  0  0  0  0
  -25.7372  -11.2327   20.3525 N   0  0  0  0  0  0  0  0  0  0  0  0
  -21.6123  -13.0256   19.9449 N   0  0  0  0  0  0  0  0  0  0  0  0
  -25.2150  -31.0514   22.1714 N   0  0  0  0  0  0  0  0  0  0  0  0
  -22.2350  -27.1460   17.8236 N   0  0  0  0  0  0  0  0  0  0  0  0
  -23.4159  -25.7661   14.6980 N   0  3  0  0  0  0  0  0  0  0  0  0
  -22.8100  -11.0719   19.8602 O   0  0  0  0  0  0  0  0  0  0  0  0
  -31.9513  -14.9242   20.0370 O   0  0  0  0  0  0  0  0  0  0  0  0
  -25.1416  -28.7401   22.4452 O   0  0  0  0  0  0  0  0  0  0  0  0
  -22.7731  -29.6161   19.1719 O   0  0  0  0  0  0  0  0  0  0  0  0
  -23.5254  -25.2535   17.4624 O   0  0  0  0  0  0  0  0  0  0  0  0
  -20.2839  -18.4021   20.5483 O   0  0  0  0  0  0  0  0  0  0  0  0
  -29.3769  -24.5821   20.8771 O   0  0  0  0  0  0  0  0  0  1  0  0
  -21.4509  -23.1123   17.9299 F   0  0  0  0  0  0  0  0  0  0  0  0
  -18.7406  -19.2630   18.4223 F   0  0  0  0  0  0  0  0  0  0  0  0
  1  2  1  0  0  0  0
  1  8  2  0  0  0  0
  2  9  2  0  0  0  0
  3  6  2  0  0  0  0
  3  7  1  0  0  0  0
  4 11  2  0  0  0  0
  4 19  1  0  0  0  0
  5 12  1  0  0  0  0
  5 19  2  0  0  0  0
  6 20  1  0  0  0  0
  7 21  2  0  0  0  0
  8 23  1  0  0  0  0
  9 25  1  0  0  0  0
 10 13  2  0  0  0  0
 10 24  1  0  0  0  0
 11 27  1  0  0  0  0
 12 27  2  0  0  0  0
 13 28  1  0  0  0  0
 14 15  2  0  0  0  0
 14 29  1  0  0  0  0
 15 30  1  0  0  0  0
 16 20  2  0  0  0  0
 16 21  1  0  0  0  0
 17 26  1  0  0  0  0
 17 28  2  0  0  0  0
 18 30  2  0  0  0  0
 18 31  1  0  0  0  0
 19 32  1  0  0  0  0
 20 34  1  0  0  0  0
 21 38  1  0  0  0  0
 22 32  1  0  0  0  0
 22 33  2  0  0  0  0
 22 39  1  0  0  0  0
 23 25  2  0  0  0  0
 23 44  1  0  0  0  0
 24 26  2  0  0  0  0
 24 45  1  0  0  0  0
 25 53  1  0  0  0  0
 26 46  1  0  0  0  0
 27 79  1  0  0  0  0
 28 80  1  0  0  0  0
 29 31  2  0  0  0  0
 29 79  1  0  0  0  0
 30 81  1  0  0  0  0
 31 82  1  0  0  0  0
 32 64  2  0  0  0  0
 33 66  1  0  0  0  0
 33 69  1  0  0  0  0
 34 35  2  0  0  0  0
 35 36  1  0  0  0  0
 36 37  2  0  0  0  0
 37 80  1  0  0  0  0
 38 40  1  0  0  0  0
 38 65  2  0  0  0  0
 39 70  1  0  0  0  0
 39 74  2  0  0  0  0
 40 67  1  0  0  0  0
 40 75  2  0  0  0  0
 41 54  1  0  0  0  0
 41 71  1  0  0  0  0
 41 76  2  0  0  0  0
 42 61  1  0  0  0  0
 42 68  1  0  0  0  0
 42 77  2  0  0  0  0
 43 62  1  0  0  0  0
 43 72  1  0  0  0  0
 43 78  2  0  0  0  0
 44 47  1  0  0  0  0
 45 54  1  0  0  0  0
 46 68  1  0  0  0  0
 47 49  1  0  0  0  0
 48 50  1  0  0  0  0
 48 51  1  0  0  0  0
 49 53  1  0  0  0  0
 50 55  1  0  0  0  0
 51 67  1  0  0  0  0
 52 55  1  0  0  0  0
 52 67  1  0  0  0  0
 53 71  1  0  0  0  0
 54 68  1  0  0  0  0
 55 66  1  0  0  0  0
 56 62  1  0  0  0  0
 57 63  1  0  0  0  0
 58 63  1  0  0  0  0
 59 63  1  0  0  0  0
 60 73  1  0  0  0  0
 61 63  1  0  0  0  0
 61 72  1  0  0  0  0
 62 73  1  0  0  0  0
 64 66  1  0  0  0  0
M  CHG  1  73   1
M  ISO  4  37 101  38 100  40 100  80 101
M  END
> <Batch ID>
0125

> <Smiles>
CNC(C)C(=O)NC(C(=O)N1Cc2cc([101O:1][101CH:1]=CC=Cc3cccc([100C:0](=N)[100C:0](=O)N4CCCC(n5nc(-c6ccc(Oc7ccc(F)cc7F)cc6)c(C(N)=O)c5N)C4)c3)ccc2CC1C(=O)NC1CCCc2ccccc21)C(C)(C)C

> <Shape>
0.250

> <Color>
0.073

> <Negative vol penalty>
0.000

$$$$

  -OEChem-04052302093D

 83 91  0     1  0  0  0  0  0999 V2000
  -27.6262  -23.3320   18.0828 C   0  0  0  0  0  0  0  0  0  0  0  0
  -26.4234  -23.8027   18.5996 C   0  0  0  0  0  0  0  0  0  0  0  0
  -18.5362  -24.3134   26.4138 C   0  0  0  0  0  0  0  0  0  0  0  0
  -27.5172  -16.9113   22.5159 C   0  0  0  0  0  0  0  0  0  0  0  0
  -25.3541  -17.2458   21.4932 C   0  0  0  0  0  0  0  0  0  0  0  0
  -18.1537  -24.7247   25.1370 C   0  0  0  0  0  0  0  0  0  0  0  0
  -28.8333  -23.7312   18.6551 C   0  0  0  0  0  0  0  0  0  0  0  0
  -26.4270  -24.6721   19.6898 C   0  0  0  0  0  0  0  0  0  0  0  0
  -23.2358  -28.5577   19.0867 C   0  0  0  0  0  0  0  0  0  0  0  0
  -19.8127  -23.7925   26.6256 C   0  0  0  0  0  0  0  0  0  0  0  0
  -27.5695  -15.6229   21.9840 C   0  0  0  0  0  0  0  0  0  0  0  0
  -25.4064  -15.9574   20.9612 C   0  0  0  0  0  0  0  0  0  0  0  0
  -21.8808  -28.3078   19.2996 C   0  0  0  0  0  0  0  0  0  0  0  0
  -28.2568  -14.1855   19.0017 C   0  0  0  0  0  0  0  0  0  0  0  0
  -29.4499  -13.7787   18.4045 C   0  0  0  0  0  0  0  0  0  0  0  0
  -22.0552  -29.2733   21.5033 C   0  0  0  0  0  0  0  0  0  0  0  0
  -29.6294  -11.9695   19.9957 C   0  0  0  0  0  0  0  0  0  0  0  0
  -26.4094  -17.7227   22.2706 C   0  0  0  0  0  0  0  0  0  0  0  0
  -19.0477  -24.6149   24.0720 C   0  0  0  0  0  0  0  0  0  0  0  0
  -26.8203  -20.2400   22.2228 C   0  0  0  0  0  0  0  0  0  0  0  0
  -28.8520  -24.6135   19.7468 C   0  0  0  0  0  0  0  0  0  0  0  0
  -24.0145  -29.1584   20.0863 C   0  0  0  0  0  0  0  0  0  0  0  0
  -27.6354  -25.0824   20.2782 C   0  0  0  0  0  0  0  0  0  0  0  0
  -23.4193  -29.5321   21.2997 C   0  0  0  0  0  0  0  0  0  0  0  0
  -20.3242  -24.0940   24.2837 C   0  0  0  0  0  0  0  0  0  0  0  0
  -20.7067  -23.6828   25.5605 C   0  0  0  0  0  0  0  0  0  0  0  0
  -26.5141  -15.1460   21.2066 C   0  0  0  0  0  0  0  0  0  0  0  0
  -21.2910  -28.6629   20.5091 C   0  0  0  0  0  0  0  0  0  0  0  0
  -27.7500  -13.4843   20.0959 C   0  0  0  0  0  0  0  0  0  0  0  0
  -30.1362  -12.6707   18.9015 C   0  0  0  0  0  0  0  0  0  0  0  0
  -28.4363  -12.3763   20.5929 C   0  0  0  0  0  0  0  0  0  0  0  0
  -26.3546  -19.0535   22.8204 C   0  0  0  0  0  0  0  0  0  0  0  0
  -26.5369  -21.2211   23.1412 C   0  0  0  0  0  0  0  0  0  0  0  0
  -18.6102  -25.0586   22.7379 C   0  0  0  0  0  0  0  0  0  0  0  0
  -18.7388  -26.3052   22.2572 C   0  0  0  0  0  0  0  0  0  0  0  0
  -27.4526  -20.4375   20.9512 C   0  0  0  0  0  0  0  0  0  0  0  0
  -26.5530  -28.2780   21.7846 C   0  0  0  0  0  0  0  0  0  0  0  0
  -26.4111  -31.3366   22.8557 C   0  0  0  0  0  0  0  0  0  0  0  0
  -24.5292  -34.1307   23.4016 C   0  0  0  0  0  0  0  0  0  0  0  0
  -22.5145  -22.6996   27.0135 C   0  0  0  0  0  0  0  0  0  0  0  0
  -30.1796  -24.9794   20.3618 C   0  0  0  0  0  0  0  0  0  0  0  0
  -25.4687  -29.4455   19.8309 C   0  0  0  0  0  0  0  0  0  0  0  0
  -24.2068  -30.1980   22.3973 C   0  0  0  0  0  0  0  0  0  0  0  0
  -30.1111  -26.1983   21.2782 C   0  0  0  0  0  0  0  0  0  0  0  0
  -25.6278  -21.2846   28.0047 C   0  0  0  0  0  0  0  0  0  0  0  0
  -28.9190  -26.0890   22.2236 C   0  0  0  0  0  0  0  0  0  0  0  0
  -26.1796  -20.6805   26.7113 C   0  0  0  0  0  0  0  0  0  0  0  0
  -24.1105  -21.1342   28.0986 C   0  0  0  0  0  0  0  0  0  0  0  0
  -23.9156  -21.0324   25.6449 C   0  0  0  0  0  0  0  0  0  0  0  0
  -27.5990  -26.0462   21.4443 C   0  0  1  0  0  0  0  0  0  0  0  0
  -26.2824  -29.5944   21.1127 C   0  0  1  0  0  0  0  0  0  0  0  0
  -25.4323  -21.2175   25.4749 C   0  0  2  0  0  0  0  0  0  0  0  0
  -22.3487  -25.0686   23.1711 C   0  0  0  0  0  0  0  0  0  0  0  0
  -24.6820  -36.4594   24.3243 C   0  0  0  0  0  0  0  0  0  0  0  0
  -26.4018  -30.2109   25.6916 C   0  0  0  0  0  0  0  0  0  0  0  0
  -25.6078  -32.4433   26.5005 C   0  0  0  0  0  0  0  0  0  0  0  0
  -27.8274  -32.2419   25.3801 C   0  0  0  0  0  0  0  0  0  0  0  0
  -23.7830  -35.3341   20.8027 C   0  0  0  0  0  0  0  0  0  0  0  0
  -21.2898  -23.9731   23.1443 C   0  0  0  0  0  0  0  0  0  0  0  0
  -18.2657  -26.7190   20.8906 C   0  0  0  0  0  0  0  0  0  0  0  0
  -19.4011  -27.2935   20.0517 C   0  0  0  0  0  0  0  0  0  1  0  0
  -25.7192  -32.0377   23.9996 C   0  0  1  0  0  0  0  0  0  0  0  0
  -24.7795  -35.5927   23.0784 C   0  0  2  0  0  0  0  0  0  0  0  0
  -26.3744  -31.7192   25.3732 C   0  0  0  0  0  0  0  0  0  0  0  0
  -25.8163  -19.2598   24.0252 N   0  0  0  0  0  0  0  0  0  0  0  0
  -25.9421  -20.5873   24.1922 N   0  0  0  0  0  0  0  0  0  0  0  0
  -25.6266  -30.4519   22.1021 N   0  0  0  0  0  0  0  0  0  0  0  0
  -23.4698  -21.6681   26.8947 N   0  0  0  0  0  0  0  0  0  0  0  0
  -26.7410  -22.5556   23.1442 N   0  0  0  0  0  0  0  0  0  0  0  0
  -27.6682  -19.3212   20.1317 N   0  0  0  0  0  0  0  0  0  0  0  0
  -21.9975  -23.1494   25.7990 N   0  0  0  0  0  0  0  0  0  0  0  0
  -27.2346  -27.3725   20.9941 N   0  0  0  0  0  0  0  0  0  0  0  0
  -25.7039  -33.4564   23.6596 N   0  0  0  0  0  0  0  0  0  0  0  0
  -23.7810  -36.0822   22.0862 N   0  3  0  0  0  0  0  0  0  0  0  0
  -27.8303  -21.5681   20.5606 O   0  0  0  0  0  0  0  0  0  0  0  0
  -26.1729  -28.0977   22.9356 O   0  0  0  0  0  0  0  0  0  0  0  0
  -27.6018  -31.5708   22.6342 O   0  0  0  0  0  0  0  0  0  0  0  0
  -23.4039  -33.6373   23.4266 O   0  0  0  0  0  0  0  0  0  0  0  0
  -22.1998  -23.1695   28.1100 O   0  0  0  0  0  0  0  0  0  0  0  0
  -26.5650  -13.8890   20.6871 O   0  0  0  0  0  0  0  0  0  0  0  0
  -19.9688  -28.4195   20.7198 O   0  0  0  0  0  0  0  0  0  1  0  0
  -31.2812  -12.2792   18.3270 F   0  0  0  0  0  0  0  0  0  0  0  0
  -27.9537  -11.6980   21.6430 F   0  0  0  0  0  0  0  0  0  0  0  0
  1  2  1  0  0  0  0
  1  7  2  0  0  0  0
  2  8  2  0  0  0  0
  3  6  1  0  0  0  0
  3 10  2  0  0  0  0
  4 11  2  0  0  0  0
  4 18  1  0  0  0  0
  5 12  1  0  0  0  0
  5 18  2  0  0  0  0
  6 19  2  0  0  0  0
  7 21  1  0  0  0  0
  8 23  1  0  0  0  0
  9 13  2  0  0  0  0
  9 22  1  0  0  0  0
 10 26  1  0  0  0  0
 11 27  1  0  0  0  0
 12 27  2  0  0  0  0
 13 28  1  0  0  0  0
 14 15  2  0  0  0  0
 14 29  1  0  0  0  0
 15 30  1  0  0  0  0
 16 24  1  0  0  0  0
 16 28  2  0  0  0  0
 17 30  2  0  0  0  0
 17 31  1  0  0  0  0
 18 32  1  0  0  0  0
 19 25  1  0  0  0  0
 19 34  1  0  0  0  0
 20 32  1  0  0  0  0
 20 33  2  0  0  0  0
 20 36  1  0  0  0  0
 21 23  2  0  0  0  0
 21 41  1  0  0  0  0
 22 24  2  0  0  0  0
 22 42  1  0  0  0  0
 23 50  1  0  0  0  0
 24 43  1  0  0  0  0
 25 26  2  0  0  0  0
 25 59  1  0  0  0  0
 26 71  1  0  0  0  0
 27 80  1  0  0  0  0
 28 81  1  0  0  0  0
 29 31  2  0  0  0  0
 29 80  1  0  0  0  0
 30 82  1  0  0  0  0
 31 83  1  0  0  0  0
 32 65  2  0  0  0  0
 33 66  1  0  0  0  0
 33 69  1  0  0  0  0
 34 35  2  0  0  0  0
 35 60  1  0  0  0  0
 36 70  1  0  0  0  0
 36 75  2  0  0  0  0
 37 51  1  0  0  0  0
 37 72  1  0  0  0  0
 37 76  2  0  0  0  0
 38 62  1  0  0  0  0
 38 67  1  0  0  0  0
 38 77  2  0  0  0  0
 39 63  1  0  0  0  0
 39 73  1  0  0  0  0
 39 78  2  0  0  0  0
 40 68  1  0  0  0  0
 40 71  1  0  0  0  0
 40 79  2  0  0  0  0
 41 44  1  0  0  0  0
 42 51  1  0  0  0  0
 43 67  1  0  0  0  0
 44 46  1  0  0  0  0
 45 47  1  0  0  0  0
 45 48  1  0  0  0  0
 46 50  1  0  0  0  0
 47 52  1  0  0  0  0
 48 68  1  0  0  0  0
 49 52  1  0  0  0  0
 49 68  1  0  0  0  0
 50 72  1  0  0  0  0
 51 67  1  0  0  0  0
 52 66  1  0  0  0  0
 53 59  1  0  0  0  0
 54 63  1  0  0  0  0
 55 64  1  0  0  0  0
 56 64  1  0  0  0  0
 57 64  1  0  0  0  0
 58 74  1  0  0  0  0
 60 61  1  0  0  0  0
 61 81  1  0  0  0  0
 62 64  1  0  0  0  0
 62 73  1  0  0  0  0
 63 74  1  0  0  0  0
 65 66  1  0  0  0  0
M  CHG  1  74   1
M  ISO  4  40 100  61 101  71 100  81 101
M  END
> <Batch ID>
0125

> <Smiles>
CCc1c(C=CC[101CH2:1][101O:1]c2ccc3c(c2)CN(C(=O)C(NC(=O)C(C)NC)C(C)(C)C)C(C(=O)NC2CCCc4ccccc42)C3)cccc1[100NH:0][100C:0](=O)N1CCCC(n2nc(-c3ccc(Oc4ccc(F)cc4F)cc3)c(C(N)=O)c2N)C1

> <Shape>
0.257

> <Color>
0.064

> <Negative vol penalty>
0.000

$$$$

  -OEChem-04052302093D

 85 93  0     1  0  0  0  0  0999 V2000
  -15.0490  -26.9828   24.9522 C   0  0  0  0  0  0  0  0  0  0  0  0
  -16.0072  -26.1277   24.4174 C   0  0  0  0  0  0  0  0  0  0  0  0
  -22.7096  -10.3220   20.1646 C   0  0  0  0  0  0  0  0  0  0  0  0
  -23.7223  -10.0225   22.3376 C   0  0  0  0  0  0  0  0  0  0  0  0
  -29.7496  -18.0787   19.6750 C   0  0  0  0  0  0  0  0  0  0  0  0
  -30.3326  -16.8491   19.9814 C   0  0  0  0  0  0  0  0  0  0  0  0
  -15.1487  -28.3576   24.7429 C   0  0  0  0  0  0  0  0  0  0  0  0
  -17.0653  -26.6469   23.6722 C   0  0  0  0  0  0  0  0  0  0  0  0
  -22.8107  -24.5362   23.4701 C   0  0  0  0  0  0  0  0  0  0  0  0
  -21.8494   -9.2537   20.4183 C   0  0  0  0  0  0  0  0  0  0  0  0
  -22.8620   -8.9543   22.5913 C   0  0  0  0  0  0  0  0  0  0  0  0
  -23.4775  -23.7167   22.5604 C   0  0  0  0  0  0  0  0  0  0  0  0
  -22.6316   -5.6874   21.7514 C   0  0  0  0  0  0  0  0  0  0  0  0
  -23.1802   -4.5312   22.3060 C   0  0  0  0  0  0  0  0  0  0  0  0
  -28.5608  -18.0391   21.7780 C   0  0  0  0  0  0  0  0  0  0  0  0
  -24.3495  -25.6715   21.4479 C   0  0  0  0  0  0  0  0  0  0  0  0
  -21.7262   -4.7604   24.2219 C   0  0  0  0  0  0  0  0  0  0  0  0
  -23.6462  -10.7064   21.1243 C   0  0  0  0  0  0  0  0  0  0  0  0
  -28.8637  -18.6737   20.5734 C   0  0  0  0  0  0  0  0  0  0  0  0
  -30.0297  -16.2145   21.1861 C   0  0  0  0  0  0  0  0  0  0  0  0
  -24.3127  -13.1686   21.1539 C   0  0  0  0  0  0  0  0  0  0  0  0
  -16.2138  -28.8948   24.0029 C   0  0  0  0  0  0  0  0  0  0  0  0
  -22.8997  -25.9320   23.3688 C   0  0  0  0  0  0  0  0  0  0  0  0
  -17.1786  -28.0301   23.4517 C   0  0  0  0  0  0  0  0  0  0  0  0
  -23.6850  -26.5064   22.3591 C   0  0  0  0  0  0  0  0  0  0  0  0
  -29.1438  -16.8095   22.0844 C   0  0  0  0  0  0  0  0  0  0  0  0
  -21.9255   -8.5699   21.6316 C   0  0  0  0  0  0  0  0  0  0  0  0
  -24.2447  -24.2844   21.5473 C   0  0  0  0  0  0  0  0  0  0  0  0
  -21.6303   -6.3802   22.4320 C   0  0  0  0  0  0  0  0  0  0  0  0
  -22.7275   -4.0676   23.5413 C   0  0  0  0  0  0  0  0  0  0  0  0
  -21.1776   -5.9167   23.6672 C   0  0  0  0  0  0  0  0  0  0  0  0
  -24.5355  -11.8095   20.8626 C   0  0  0  0  0  0  0  0  0  0  0  0
  -25.4476  -13.8047   20.7136 C   0  0  0  0  0  0  0  0  0  0  0  0
  -28.2486  -19.9729   20.2486 C   0  0  0  0  0  0  0  0  0  0  0  0
  -27.1323  -20.4496   20.8168 C   0  0  0  0  0  0  0  0  0  0  0  0
  -30.6531  -14.9313   21.4810 C   0  0  0  0  0  0  0  0  0  0  0  0
  -23.1811  -13.7997   21.7678 C   0  0  0  0  0  0  0  0  0  0  0  0
  -26.5843  -21.7761   20.4095 C   0  0  0  0  0  0  0  0  0  0  0  0
  -31.0295  -13.9923   20.3994 C   0  0  0  0  0  0  0  0  0  0  0  0
  -20.8185  -28.2819   22.8683 C   0  0  0  0  0  0  0  0  0  0  0  0
  -23.3979  -30.1633   23.4423 C   0  0  0  0  0  0  0  0  0  0  0  0
  -26.7946  -30.4926   23.4721 C   0  0  0  0  0  0  0  0  0  0  0  0
  -16.2534  -30.3834   23.7634 C   0  0  0  0  0  0  0  0  0  0  0  0
  -22.1960  -26.8018   24.3742 C   0  0  0  0  0  0  0  0  0  0  0  0
  -23.8294  -27.9991   22.2194 C   0  0  0  0  0  0  0  0  0  0  0  0
  -17.6107  -30.8863   23.2785 C   0  0  0  0  0  0  0  0  0  0  0  0
  -29.2796  -12.1384   17.8779 C   0  0  0  0  0  0  0  0  0  0  0  0
  -18.1434  -29.9931   22.1627 C   0  0  0  0  0  0  0  0  0  0  0  0
  -27.8821  -11.9662   18.4723 C   0  0  0  0  0  0  0  0  0  0  0  0
  -30.3539  -12.1105   18.9602 C   0  0  0  0  0  0  0  0  0  0  0  0
  -28.7399  -12.9446   20.6477 C   0  0  0  0  0  0  0  0  0  0  0  0
  -18.3546  -28.5575   22.6586 C   0  0  1  0  0  0  0  0  0  0  0  0
  -21.9409  -28.2171   23.8652 C   0  0  1  0  0  0  0  0  0  0  0  0
  -27.6258  -12.9953   19.5877 C   0  0  2  0  0  0  0  0  0  0  0  0
  -29.5304  -16.7882   24.5616 C   0  0  0  0  0  0  0  0  0  0  0  0
  -28.6080  -32.1600   23.9506 C   0  0  0  0  0  0  0  0  0  0  0  0
  -22.8219  -31.5486   20.7854 C   0  0  0  0  0  0  0  0  0  0  0  0
  -25.1349  -32.5038   20.8616 C   0  0  0  0  0  0  0  0  0  0  0  0
  -23.4872  -33.0872   22.6413 C   0  0  0  0  0  0  0  0  0  0  0  0
  -27.9235  -28.8180   25.6354 C   0  0  0  0  0  0  0  0  0  0  0  0
  -28.8032  -16.1510   23.3817 C   0  0  0  0  0  0  0  0  0  0  0  0
  -25.3195  -22.2058   21.1225 C   0  0  0  0  0  0  0  0  0  1  0  0
  -24.4908  -30.7671   22.5937 C   0  0  1  0  0  0  0  0  0  0  0  0
  -27.7439  -31.0455   24.5198 C   0  0  2  0  0  0  0  0  0  0  0  0
  -23.9796  -31.9486   21.7217 C   0  0  0  0  0  0  0  0  0  0  0  0
  -25.7188  -11.5938   20.2819 N   0  0  0  0  0  0  0  0  0  0  0  0
  -30.9199  -14.5286   22.6926 N   0  0  0  0  0  0  0  0  0  0  0  0
  -26.2498  -12.8260   20.2048 N   0  0  0  0  0  0  0  0  0  0  0  0
  -30.0613  -13.0730   20.0205 N   0  0  0  0  0  0  0  0  0  0  0  0
  -23.1171  -28.8073   23.2229 N   0  0  0  0  0  0  0  0  0  0  0  0
  -25.8276  -15.1000   20.7158 N   0  0  0  0  0  0  0  0  0  0  0  0
  -22.1003  -12.9982   22.1601 N   0  0  0  0  0  0  0  0  0  0  0  0
  -19.5720  -28.4651   23.4357 N   0  0  0  0  0  0  0  0  0  0  0  0
  -25.5690  -31.1233   23.5097 N   0  0  0  0  0  0  0  0  0  0  0  0
  -28.6402  -29.9682   25.0267 N   0  3  0  0  0  0  0  0  0  0  0  0
  -23.1228  -15.0398   21.9476 O   0  0  0  0  0  0  0  0  0  0  0  0
  -27.1254  -22.4704   19.5533 O   0  0  0  0  0  0  0  0  0  0  0  0
  -32.1612  -14.1281   19.9532 O   0  0  0  0  0  0  0  0  0  0  0  0
  -21.0654  -28.1752   21.6727 O   0  0  0  0  0  0  0  0  0  0  0  0
  -22.8198  -30.8670   24.2742 O   0  0  0  0  0  0  0  0  0  0  0  0
  -27.1101  -29.5939   22.6954 O   0  0  0  0  0  0  0  0  0  0  0  0
  -21.0861   -7.5276   21.8796 O   0  0  0  0  0  0  0  0  0  0  0  0
  -24.8960  -23.4868   20.6576 O   0  0  0  0  0  0  0  0  0  1  0  0
  -23.2533   -2.9564   24.0731 F   0  0  0  0  0  0  0  0  0  0  0  0
  -20.2151   -6.5773   24.3252 F   0  0  0  0  0  0  0  0  0  0  0  0
  1  2  1  0  0  0  0
  1  7  2  0  0  0  0
  2  8  2  0  0  0  0
  3 10  2  0  0  0  0
  3 18  1  0  0  0  0
  4 11  1  0  0  0  0
  4 18  2  0  0  0  0
  5  6  2  0  0  0  0
  5 19  1  0  0  0  0
  6 20  1  0  0  0  0
  7 22  1  0  0  0  0
  8 24  1  0  0  0  0
  9 12  2  0  0  0  0
  9 23  1  0  0  0  0
 10 27  1  0  0  0  0
 11 27  2  0  0  0  0
 12 28  1  0  0  0  0
 13 14  2  0  0  0  0
 13 29  1  0  0  0  0
 14 30  1  0  0  0  0
 15 19  2  0  0  0  0
 15 26  1  0  0  0  0
 16 25  1  0  0  0  0
 16 28  2  0  0  0  0
 17 30  2  0  0  0  0
 17 31  1  0  0  0  0
 18 32  1  0  0  0  0
 19 34  1  0  0  0  0
 20 26  2  0  0  0  0
 20 36  1  0  0  0  0
 21 32  1  0  0  0  0
 21 33  2  0  0  0  0
 21 37  1  0  0  0  0
 22 24  2  0  0  0  0
 22 43  1  0  0  0  0
 23 25  2  0  0  0  0
 23 44  1  0  0  0  0
 24 52  1  0  0  0  0
 25 45  1  0  0  0  0
 26 61  1  0  0  0  0
 27 82  1  0  0  0  0
 28 83  1  0  0  0  0
 29 31  2  0  0  0  0
 29 82  1  0  0  0  0
 30 84  1  0  0  0  0
 31 85  1  0  0  0  0
 32 66  2  0  0  0  0
 33 68  1  0  0  0  0
 33 71  1  0  0  0  0
 34 35  2  0  0  0  0
 35 38  1  0  0  0  0
 36 39  1  0  0  0  0
 36 67  2  0  0  0  0
 37 72  1  0  0  0  0
 37 76  2  0  0  0  0
 38 62  1  0  0  0  0
 38 77  2  0  0  0  0
 39 69  1  0  0  0  0
 39 78  2  0  0  0  0
 40 53  1  0  0  0  0
 40 73  1  0  0  0  0
 40 79  2  0  0  0  0
 41 63  1  0  0  0  0
 41 70  1  0  0  0  0
 41 80  2  0  0  0  0
 42 64  1  0  0  0  0
 42 74  1  0  0  0  0
 42 81  2  0  0  0  0
 43 46  1  0  0  0  0
 44 53  1  0  0  0  0
 45 70  1  0  0  0  0
 46 48  1  0  0  0  0
 47 49  1  0  0  0  0
 47 50  1  0  0  0  0
 48 52  1  0  0  0  0
 49 54  1  0  0  0  0
 50 69  1  0  0  0  0
 51 54  1  0  0  0  0
 51 69  1  0  0  0  0
 52 73  1  0  0  0  0
 53 70  1  0  0  0  0
 54 68  1  0  0  0  0
 55 61  1  0  0  0  0
 56 64  1  0  0  0  0
 57 65  1  0  0  0  0
 58 65  1  0  0  0  0
 59 65  1  0  0  0  0
 60 75  1  0  0  0  0
 62 83  1  0  0  0  0
 63 65  1  0  0  0  0
 63 74  1  0  0  0  0
 64 75  1  0  0  0  0
 66 68  1  0  0  0  0
M  CHG  1  75   1
M  ISO  4  36 100  39 100  62 101  83 101
M  END
> <Batch ID>
0125

> <Smiles>
CCc1cc(C=CC(=O)[101CH2:1][101O:1]c2ccc3c(c2)CN(C(=O)C(NC(=O)C(C)NC)C(C)(C)C)C(C(=O)NC2CCCc4ccccc42)C3)ccc1[100C:0](=N)[100C:0](=O)N1CCCC(n2nc(-c3ccc(Oc4ccc(F)cc4F)cc3)c(C(N)=O)c2N)C1

> <Shape>
0.365

> <Color>
0.171

> <Negative vol penalty>
0.000

$$$$

  -OEChem-04052302093D

 85 94  0     1  0  0  0  0  0999 V2000
  -18.7950  -33.4402   21.0011 C   0  0  0  0  0  0  0  0  0  0  0  0
  -20.0911  -33.1567   20.5825 C   0  0  0  0  0  0  0  0  0  0  0  0
  -28.7774  -17.7231   19.9639 C   0  0  0  0  0  0  0  0  0  0  0  0
  -31.0178  -17.9917   20.8271 C   0  0  0  0  0  0  0  0  0  0  0  0
  -18.2833  -32.8278   22.1443 C   0  0  0  0  0  0  0  0  0  0  0  0
  -20.8767  -32.2615   21.3077 C   0  0  0  0  0  0  0  0  0  0  0  0
  -25.0212  -28.3489   19.0670 C   0  0  0  0  0  0  0  0  0  0  0  0
  -28.7882  -16.3836   20.3525 C   0  0  0  0  0  0  0  0  0  0  0  0
  -31.0287  -16.6521   21.2157 C   0  0  0  0  0  0  0  0  0  0  0  0
  -26.4099  -28.4121   18.9617 C   0  0  0  0  0  0  0  0  0  0  0  0
  -30.0602  -13.4687   19.2078 C   0  0  0  0  0  0  0  0  0  0  0  0
  -29.5828  -12.5266   18.2968 C   0  0  0  0  0  0  0  0  0  0  0  0
  -26.6165  -27.1693   21.0188 C   0  0  0  0  0  0  0  0  0  0  0  0
  -36.1875  -26.0837   19.0110 C   0  0  0  0  0  0  0  0  0  0  0  0
  -35.0975  -27.3220   20.7761 C   0  0  0  0  0  0  0  0  0  0  0  0
  -33.8665  -26.7160   18.7875 C   0  0  0  0  0  0  0  0  0  0  0  0
  -27.8851  -11.8562   19.8797 C   0  0  0  0  0  0  0  0  0  0  0  0
  -29.8922  -18.5272   20.2011 C   0  0  0  0  0  0  0  0  0  0  0  0
  -29.4557  -21.0145   20.5626 C   0  0  0  0  0  0  0  0  0  0  0  0
  -19.0596  -31.9173   22.8784 C   0  0  0  0  0  0  0  0  0  0  0  0
  -24.4186  -27.7038   20.1566 C   0  0  0  0  0  0  0  0  0  0  0  0
  -20.3753  -31.6374   22.4626 C   0  0  0  0  0  0  0  0  0  0  0  0
  -25.2199  -27.0971   21.1344 C   0  0  0  0  0  0  0  0  0  0  0  0
  -36.2346  -26.6985   20.2622 C   0  0  0  0  0  0  0  0  0  0  0  0
  -35.0035  -26.0925   18.2737 C   0  0  0  0  0  0  0  0  0  0  0  0
  -33.9134  -27.3307   20.0388 C   0  0  0  0  0  0  0  0  0  0  0  0
  -29.9138  -15.8480   20.9784 C   0  0  0  0  0  0  0  0  0  0  0  0
  -27.2079  -27.8248   19.9391 C   0  0  0  0  0  0  0  0  0  0  0  0
  -29.4501  -13.6046   20.4548 C   0  0  0  0  0  0  0  0  0  0  0  0
  -28.4952  -11.7203   18.6327 C   0  0  0  0  0  0  0  0  0  0  0  0
  -28.3625  -12.7983   20.7907 C   0  0  0  0  0  0  0  0  0  0  0  0
  -29.8818  -19.9109   19.7995 C   0  0  0  0  0  0  0  0  0  0  0  0
  -29.6449  -22.0961   19.7375 C   0  0  0  0  0  0  0  0  0  0  0  0
  -30.5882  -28.6172   20.8506 C   0  0  0  0  0  0  0  0  0  0  0  0
  -29.2561  -28.4998   20.8446 C   0  0  0  0  0  0  0  0  0  1  0  0
  -28.9355  -21.0580   21.8980 C   0  0  0  0  0  0  0  0  0  0  0  0
  -22.4986  -28.6139   22.5206 C   0  0  0  0  0  0  0  0  0  0  0  0
  -22.4453  -25.4379   23.1781 C   0  0  0  0  0  0  0  0  0  0  0  0
  -23.9814  -22.4008   22.9258 C   0  0  0  0  0  0  0  0  0  0  0  0
  -33.3043  -24.0520   15.7005 C   0  0  0  0  0  0  0  0  0  0  0  0
  -18.4798  -31.3163   24.1343 C   0  0  0  0  0  0  0  0  0  0  0  0
  -22.9192  -27.6211   20.2417 C   0  0  0  0  0  0  0  0  0  0  0  0
  -24.6223  -26.3749   22.3132 C   0  0  0  0  0  0  0  0  0  0  0  0
  -31.3887  -29.2794   21.9270 C   0  0  0  0  0  0  0  0  0  0  0  0
  -31.5102  -28.0022   19.8411 C   0  0  0  0  0  0  0  0  0  0  0  0
  -19.2459  -30.0945   24.6348 C   0  0  0  0  0  0  0  0  0  0  0  0
  -30.1151  -22.7136   14.8549 C   0  0  0  0  0  0  0  0  0  0  0  0
  -20.7469  -30.3661   24.6286 C   0  0  0  0  0  0  0  0  0  0  0  0
  -29.6903  -21.9570   16.1147 C   0  0  0  0  0  0  0  0  0  0  0  0
  -32.7051  -28.5082   21.8944 C   0  0  0  0  0  0  0  0  0  0  0  0
  -31.6182  -22.6017   14.6094 C   0  0  0  0  0  0  0  0  0  0  0  0
  -32.0386  -22.2417   17.0109 C   0  0  0  0  0  0  0  0  0  0  0  0
  -21.2497  -30.6530   23.2086 C   0  0  1  0  0  0  0  0  0  0  0  0
  -22.4135  -27.3842   21.6614 C   0  0  1  0  0  0  0  0  0  0  0  0
  -30.5396  -22.3719   17.3311 C   0  0  2  0  0  0  0  0  0  0  0  0
  -37.5006  -26.6892   21.0505 C   0  0  0  0  0  0  0  0  0  0  0  0
  -23.7148  -19.9969   23.5946 C   0  0  0  0  0  0  0  0  0  0  0  0
  -23.2760  -26.1413   26.0285 C   0  0  0  0  0  0  0  0  0  0  0  0
  -23.9075  -23.7417   26.3624 C   0  0  0  0  0  0  0  0  0  0  0  0
  -21.5406  -24.3485   25.8600 C   0  0  0  0  0  0  0  0  0  0  0  0
  -23.9215  -21.5025   20.1065 C   0  0  0  0  0  0  0  0  0  0  0  0
  -34.9534  -25.4352   16.9359 C   0  0  0  0  0  0  0  0  0  0  0  0
  -23.2764  -24.5081   24.0288 C   0  0  1  0  0  0  0  0  0  0  0  0
  -23.4556  -21.0370   22.5159 C   0  0  2  0  0  0  0  0  0  0  0  0
  -23.0117  -24.7001   25.5489 C   0  0  0  0  0  0  0  0  0  0  0  0
  -30.3093  -20.2594   18.5830 N   0  0  0  0  0  0  0  0  0  0  0  0
  -30.1526  -21.5942   18.5754 N   0  0  0  0  0  0  0  0  0  0  0  0
  -32.7876  -27.9480   20.5476 N   0  0  3  0  0  0  0  0  0  0  0  0
  -23.1514  -26.3267   22.3552 N   0  0  0  0  0  0  0  0  0  0  0  0
  -32.3663  -23.0112   15.8004 N   0  0  0  0  0  0  0  0  0  0  0  0
  -29.4246  -23.4180   19.8999 N   0  0  0  0  0  0  0  0  0  0  0  0
  -28.8068  -19.8544   22.6044 N   0  0  0  0  0  0  0  0  0  0  0  0
  -21.3789  -29.4214   22.4597 N   0  0  0  0  0  0  0  0  0  0  0  0
  -23.0083  -23.1595   23.5413 N   0  0  0  0  0  0  0  0  0  0  0  0
  -33.9647  -24.3817   16.8777 N   0  0  0  0  0  0  0  0  0  0  0  0
  -24.1147  -20.5843   21.2583 N   0  3  0  0  0  0  0  0  0  0  0  0
  -28.5796  -22.1305   22.4425 O   0  0  0  0  0  0  0  0  0  0  0  0
  -23.5049  -28.8145   23.1905 O   0  0  0  0  0  0  0  0  0  0  0  0
  -21.2148  -25.3729   23.2360 O   0  0  0  0  0  0  0  0  0  0  0  0
  -25.1405  -22.7561   22.7238 O   0  0  0  0  0  0  0  0  0  0  0  0
  -33.5321  -24.6471   14.6418 O   0  0  0  0  0  0  0  0  0  0  0  0
  -29.9247  -14.5410   21.3579 O   0  0  0  0  0  0  0  0  0  0  0  0
  -28.5636  -27.8856   19.8391 O   0  0  0  0  0  0  0  0  0  1  0  0
  -28.0359  -10.8166   17.7571 F   0  0  0  0  0  0  0  0  0  0  0  0
  -27.7715  -12.9251   21.9868 F   0  0  0  0  0  0  0  0  0  0  0  0
  1  2  1  0  0  0  0
  1  5  2  0  0  0  0
  2  6  2  0  0  0  0
  3  8  2  0  0  0  0
  3 18  1  0  0  0  0
  4  9  1  0  0  0  0
  4 18  2  0  0  0  0
  5 20  1  0  0  0  0
  6 22  1  0  0  0  0
  7 10  2  0  0  0  0
  7 21  1  0  0  0  0
  8 27  1  0  0  0  0
  9 27  2  0  0  0  0
 10 28  1  0  0  0  0
 11 12  2  0  0  0  0
 11 29  1  0  0  0  0
 12 30  1  0  0  0  0
 13 23  1  0  0  0  0
 13 28  2  0  0  0  0
 14 24  1  0  0  0  0
 14 25  2  0  0  0  0
 15 24  2  0  0  0  0
 15 26  1  0  0  0  0
 16 25  1  0  0  0  0
 16 26  2  0  0  0  0
 17 30  2  0  0  0  0
 17 31  1  0  0  0  0
 18 32  1  0  0  0  0
 19 32  1  0  0  0  0
 19 33  2  0  0  0  0
 19 36  1  0  0  0  0
 20 22  2  0  0  0  0
 20 41  1  0  0  0  0
 21 23  2  0  0  0  0
 21 42  1  0  0  0  0
 22 53  1  0  0  0  0
 23 43  1  0  0  0  0
 24 56  1  0  0  0  0
 25 62  1  0  0  0  0
 26 68  1  0  0  0  0
 27 82  1  0  0  0  0
 28 83  1  0  0  0  0
 29 31  2  0  0  0  0
 29 82  1  0  0  0  0
 30 84  1  0  0  0  0
 31 85  1  0  0  0  0
 32 66  2  0  0  0  0
 33 67  1  0  0  0  0
 33 71  1  0  0  0  0
 34 35  2  0  0  0  0
 34 44  1  0  0  0  0
 34 45  1  0  0  0  0
 35 83  1  0  0  0  0
 36 72  1  0  0  0  0
 36 77  2  0  0  0  0
 37 54  1  0  0  0  0
 37 73  1  0  0  0  0
 37 78  2  0  0  0  0
 38 63  1  0  0  0  0
 38 69  1  0  0  0  0
 38 79  2  0  0  0  0
 39 64  1  0  0  0  0
 39 74  1  0  0  0  0
 39 80  2  0  0  0  0
 40 70  1  0  0  0  0
 40 75  1  0  0  0  0
 40 81  2  0  0  0  0
 41 46  1  0  0  0  0
 42 54  1  0  0  0  0
 43 69  1  0  0  0  0
 44 50  1  0  0  0  0
 45 68  1  0  0  0  0
 46 48  1  0  0  0  0
 47 49  1  0  0  0  0
 47 51  1  0  0  0  0
 48 53  1  0  0  0  0
 49 55  1  0  0  0  0
 50 68  1  0  0  0  0
 51 70  1  0  0  0  0
 52 55  1  0  0  0  0
 52 70  1  0  0  0  0
 53 73  1  0  0  0  0
 54 69  1  0  0  0  0
 55 67  1  0  0  0  0
 57 64  1  0  0  0  0
 58 65  1  0  0  0  0
 59 65  1  0  0  0  0
 60 65  1  0  0  0  0
 61 76  1  0  0  0  0
 62 75  1  0  0  0  0
 63 65  1  0  0  0  0
 63 74  1  0  0  0  0
 64 76  1  0  0  0  0
 66 67  1  0  0  0  0
M  CHG  1  76   1
M  ISO  4  35 101  40 100  75 100  83 101
M  END
> <Batch ID>
0125

> <Smiles>
CNC(C)C(=O)NC(C(=O)N1Cc2cc([101O:1][101CH:1]=C3CCN(c4cc(C)cc(C[100NH:0][100C:0](=O)N5CCCC(n6nc(-c7ccc(Oc8ccc(F)cc8F)cc7)c(C(N)=O)c6N)C5)c4)C3)ccc2CC1C(=O)NC1CCCc2ccccc21)C(C)(C)C

> <Shape>
0.200

> <Color>
0.084

> <Negative vol penalty>
0.000

$$$$

  -OEChem-04052302093D

 83 91  0     1  0  0  0  0  0999 V2000
  -36.9886  -32.2162   27.3658 C   0  0  0  0  0  0  0  0  0  0  0  0
  -36.7949  -30.8923   26.9849 C   0  0  0  0  0  0  0  0  0  0  0  0
  -23.0240   -9.9118   19.9157 C   0  0  0  0  0  0  0  0  0  0  0  0
  -23.8232   -9.8230   22.1939 C   0  0  0  0  0  0  0  0  0  0  0  0
  -35.9011  -33.0856   27.4389 C   0  0  0  0  0  0  0  0  0  0  0  0
  -35.5133  -30.4367   26.6779 C   0  0  0  0  0  0  0  0  0  0  0  0
  -34.0012  -26.2704   22.4515 C   0  0  0  0  0  0  0  0  0  0  0  0
  -30.6655  -18.0798   24.1752 C   0  0  0  0  0  0  0  0  0  0  0  0
  -30.0435  -17.2417   23.2499 C   0  0  0  0  0  0  0  0  0  0  0  0
  -22.2598   -8.7665   20.1391 C   0  0  0  0  0  0  0  0  0  0  0  0
  -23.0590   -8.6777   22.4174 C   0  0  0  0  0  0  0  0  0  0  0  0
  -33.7177  -24.9081   22.5368 C   0  0  0  0  0  0  0  0  0  0  0  0
  -19.8253   -7.9273   23.0500 C   0  0  0  0  0  0  0  0  0  0  0  0
  -19.0879   -7.8626   24.2322 C   0  0  0  0  0  0  0  0  0  0  0  0
  -31.3598  -25.4104   22.6227 C   0  0  0  0  0  0  0  0  0  0  0  0
  -32.1980  -16.3670   22.5939 C   0  0  0  0  0  0  0  0  0  0  0  0
  -20.2998   -5.8751   24.8792 C   0  0  0  0  0  0  0  0  0  0  0  0
  -23.8057  -10.4400   20.9431 C   0  0  0  0  0  0  0  0  0  0  0  0
  -24.1998  -12.9601   20.9039 C   0  0  0  0  0  0  0  0  0  0  0  0
  -34.6068  -32.6429   27.1233 C   0  0  0  0  0  0  0  0  0  0  0  0
  -32.9650  -27.2152   22.4622 C   0  0  0  0  0  0  0  0  0  0  0  0
  -34.4072  -31.3006   26.7481 C   0  0  0  0  0  0  0  0  0  0  0  0
  -31.6327  -26.7840   22.5349 C   0  0  0  0  0  0  0  0  0  0  0  0
  -32.0538  -18.0617   24.3098 C   0  0  0  0  0  0  0  0  0  0  0  0
  -32.8200  -17.2052   23.5192 C   0  0  0  0  0  0  0  0  0  0  0  0
  -30.8097  -16.3852   22.4593 C   0  0  0  0  0  0  0  0  0  0  0  0
  -22.2773   -8.1495   21.3900 C   0  0  0  0  0  0  0  0  0  0  0  0
  -32.3969  -24.4780   22.6253 C   0  0  0  0  0  0  0  0  0  0  0  0
  -20.7998   -6.9659   22.7823 C   0  0  0  0  0  0  0  0  0  0  0  0
  -19.3252   -6.8365   25.1469 C   0  0  0  0  0  0  0  0  0  0  0  0
  -21.0371   -5.9398   23.6969 C   0  0  0  0  0  0  0  0  0  0  0  0
  -24.5958  -11.6228   20.7127 C   0  0  0  0  0  0  0  0  0  0  0  0
  -25.3015  -13.6987   20.5470 C   0  0  0  0  0  0  0  0  0  0  0  0
  -22.9482  -13.4876   21.3630 C   0  0  0  0  0  0  0  0  0  0  0  0
  -32.1299  -29.6070   24.3820 C   0  0  0  0  0  0  0  0  0  0  0  0
  -29.9236  -30.1742   22.0727 C   0  0  0  0  0  0  0  0  0  0  0  0
  -28.0549  -28.9571   19.4894 C   0  0  0  0  0  0  0  0  0  0  0  0
  -30.7912  -14.6228   20.6594 C   0  0  0  0  0  0  0  0  0  0  0  0
  -33.4557  -33.6073   27.2625 C   0  0  0  0  0  0  0  0  0  0  0  0
  -33.2862  -28.6797   22.3426 C   0  0  0  0  0  0  0  0  0  0  0  0
  -30.4830  -27.7569   22.5297 C   0  0  0  0  0  0  0  0  0  0  0  0
  -32.1832  -33.1426   26.5588 C   0  0  0  0  0  0  0  0  0  0  0  0
  -29.5843  -12.3167   18.2299 C   0  0  0  0  0  0  0  0  0  0  0  0
  -31.9001  -31.6784   26.8797 C   0  0  0  0  0  0  0  0  0  0  0  0
  -28.1463  -12.0406   18.6749 C   0  0  0  0  0  0  0  0  0  0  0  0
  -30.5247  -12.4843   19.4220 C   0  0  0  0  0  0  0  0  0  0  0  0
  -28.6579  -13.2001   20.8614 C   0  0  0  0  0  0  0  0  0  0  0  0
  -33.0357  -30.7753   26.3834 C   0  0  1  0  0  0  0  0  0  0  0  0
  -32.1784  -29.5803   22.8805 C   0  0  1  0  0  0  0  0  0  0  0  0
  -27.6614  -13.0884   19.6960 C   0  0  2  0  0  0  0  0  0  0  0  0
  -34.7897  -15.9499   24.4307 C   0  0  0  0  0  0  0  0  0  0  0  0
  -26.3144  -29.6499   17.8197 C   0  0  0  0  0  0  0  0  0  0  0  0
  -27.7974  -30.0947   24.2597 C   0  0  0  0  0  0  0  0  0  0  0  0
  -26.0658  -29.8366   22.4699 C   0  0  0  0  0  0  0  0  0  0  0  0
  -27.4728  -31.8947   22.5541 C   0  0  0  0  0  0  0  0  0  0  0  0
  -29.8295  -28.3296   17.2055 C   0  0  0  0  0  0  0  0  0  0  0  0
  -32.7034  -18.9775   25.3164 C   0  0  0  0  0  0  0  0  0  0  0  0
  -34.3075  -17.1671   23.6474 C   0  0  0  0  0  0  0  0  0  0  0  0
  -33.3736  -20.2068   24.6928 C   0  0  0  0  0  0  0  0  0  0  0  0
  -32.3848  -21.1315   23.9815 C   0  0  0  0  0  0  0  0  0  0  0  0
  -33.0911  -22.3190   23.3415 C   0  0  0  0  0  0  0  0  0  1  0  0
  -28.5106  -29.7135   21.8077 C   0  0  1  0  0  0  0  0  0  0  0  0
  -27.8023  -29.4898   18.0905 C   0  0  2  0  0  0  0  0  0  0  0  0
  -27.4832  -30.3664   22.7749 C   0  0  0  0  0  0  0  0  0  0  0  0
  -25.8509  -11.5150   20.2687 N   0  0  0  0  0  0  0  0  0  0  0  0
  -26.2531  -12.7941   20.1778 N   0  0  0  0  0  0  0  0  0  0  0  0
  -30.8486  -29.1786   22.4174 N   0  0  0  0  0  0  0  0  0  0  0  0
  -30.0033  -13.4955   20.3443 N   0  0  0  0  0  0  0  0  0  0  0  0
  -25.5393  -15.0272   20.5161 N   0  0  0  0  0  0  0  0  0  0  0  0
  -21.9229  -12.5886   21.6869 N   0  0  0  0  0  0  0  0  0  0  0  0
  -30.1781  -15.5322   21.5206 N   0  0  0  0  0  0  0  0  0  0  0  0
  -32.9338  -30.5747   24.9538 N   0  0  0  0  0  0  0  0  0  0  0  0
  -28.2534  -29.9769   20.3961 N   0  0  0  0  0  0  0  0  0  0  0  0
  -28.3680  -28.5601   17.0723 N   0  3  0  0  0  0  0  0  0  0  0  0
  -22.7396  -14.7201   21.4669 O   0  0  0  0  0  0  0  0  0  0  0  0
  -31.4149  -28.8097   24.9777 O   0  0  0  0  0  0  0  0  0  0  0  0
  -30.1981  -31.3725   21.9705 O   0  0  0  0  0  0  0  0  0  0  0  0
  -28.0707  -27.7566   19.7523 O   0  0  0  0  0  0  0  0  0  0  0  0
  -31.9154  -14.7840   20.1776 O   0  0  0  0  0  0  0  0  0  0  0  0
  -21.5316   -7.0320   21.6085 O   0  0  0  0  0  0  0  0  0  0  0  0
  -32.1174  -23.1488   22.7093 O   0  0  0  0  0  0  0  0  0  1  0  0
  -18.6181   -6.7753   26.2828 F   0  0  0  0  0  0  0  0  0  0  0  0
  -21.9728   -5.0140   23.4458 F   0  0  0  0  0  0  0  0  0  0  0  0
  1  2  1  0  0  0  0
  1  5  2  0  0  0  0
  2  6  2  0  0  0  0
  3 10  2  0  0  0  0
  3 18  1  0  0  0  0
  4 11  1  0  0  0  0
  4 18  2  0  0  0  0
  5 20  1  0  0  0  0
  6 22  1  0  0  0  0
  7 12  2  0  0  0  0
  7 21  1  0  0  0  0
  8  9  2  0  0  0  0
  8 24  1  0  0  0  0
  9 26  1  0  0  0  0
 10 27  1  0  0  0  0
 11 27  2  0  0  0  0
 12 28  1  0  0  0  0
 13 14  2  0  0  0  0
 13 29  1  0  0  0  0
 14 30  1  0  0  0  0
 15 23  1  0  0  0  0
 15 28  2  0  0  0  0
 16 25  1  0  0  0  0
 16 26  2  0  0  0  0
 17 30  2  0  0  0  0
 17 31  1  0  0  0  0
 18 32  1  0  0  0  0
 19 32  1  0  0  0  0
 19 33  2  0  0  0  0
 19 34  1  0  0  0  0
 20 22  2  0  0  0  0
 20 39  1  0  0  0  0
 21 23  2  0  0  0  0
 21 40  1  0  0  0  0
 22 48  1  0  0  0  0
 23 41  1  0  0  0  0
 24 25  2  0  0  0  0
 24 57  1  0  0  0  0
 25 58  1  0  0  0  0
 26 71  1  0  0  0  0
 27 80  1  0  0  0  0
 28 81  1  0  0  0  0
 29 31  2  0  0  0  0
 29 80  1  0  0  0  0
 30 82  1  0  0  0  0
 31 83  1  0  0  0  0
 32 65  2  0  0  0  0
 33 66  1  0  0  0  0
 33 69  1  0  0  0  0
 34 70  1  0  0  0  0
 34 75  2  0  0  0  0
 35 49  1  0  0  0  0
 35 72  1  0  0  0  0
 35 76  2  0  0  0  0
 36 62  1  0  0  0  0
 36 67  1  0  0  0  0
 36 77  2  0  0  0  0
 37 63  1  0  0  0  0
 37 73  1  0  0  0  0
 37 78  2  0  0  0  0
 38 68  1  0  0  0  0
 38 71  1  0  0  0  0
 38 79  2  0  0  0  0
 39 42  1  0  0  0  0
 40 49  1  0  0  0  0
 41 67  1  0  0  0  0
 42 44  1  0  0  0  0
 43 45  1  0  0  0  0
 43 46  1  0  0  0  0
 44 48  1  0  0  0  0
 45 50  1  0  0  0  0
 46 68  1  0  0  0  0
 47 50  1  0  0  0  0
 47 68  1  0  0  0  0
 48 72  1  0  0  0  0
 49 67  1  0  0  0  0
 50 66  1  0  0  0  0
 51 58  1  0  0  0  0
 52 63  1  0  0  0  0
 53 64  1  0  0  0  0
 54 64  1  0  0  0  0
 55 64  1  0  0  0  0
 56 74  1  0  0  0  0
 57 59  1  0  0  0  0
 59 60  1  0  0  0  0
 60 61  1  0  0  0  0
 61 81  1  0  0  0  0
 62 64  1  0  0  0  0
 62 73  1  0  0  0  0
 63 74  1  0  0  0  0
 65 66  1  0  0  0  0
M  CHG  1  74   1
M  ISO  4  38 100  61 101  71 100  81 101
M  END
> <Batch ID>
0125

> <Smiles>
CCc1cc([100NH:0][100C:0](=O)N2CCCC(n3nc(-c4ccc(Oc5ccc(F)cc5F)cc4)c(C(N)=O)c3N)C2)ccc1CCC[101CH2:1][101O:1]c1ccc2c(c1)CN(C(=O)C(NC(=O)C(C)NC)C(C)(C)C)C(C(=O)NC1CCCc3ccccc31)C2

> <Shape>
0.207

> <Color>
0.201

> <Negative vol penalty>
0.000

$$$$

  -OEChem-04052302093D

 82 90  0     1  0  0  0  0  0999 V2000
  -30.7696  -33.8427   20.0158 C   0  0  0  0  0  0  0  0  0  0  0  0
  -31.5920  -32.7813   20.3799 C   0  0  0  0  0  0  0  0  0  0  0  0
  -22.9851   -9.9144   19.9935 C   0  0  0  0  0  0  0  0  0  0  0  0
  -23.7493   -9.9489   22.2852 C   0  0  0  0  0  0  0  0  0  0  0  0
  -32.6494  -17.6722   23.5951 C   0  0  0  0  0  0  0  0  0  0  0  0
  -29.3918  -33.7538   20.2094 C   0  0  0  0  0  0  0  0  0  0  0  0
  -31.0370  -31.6307   20.9389 C   0  0  0  0  0  0  0  0  0  0  0  0
  -32.9603  -25.8675   20.1694 C   0  0  0  0  0  0  0  0  0  0  0  0
  -31.7347  -16.6772   23.2503 C   0  0  0  0  0  0  0  0  0  0  0  0
  -22.2195   -8.7807   20.2658 C   0  0  0  0  0  0  0  0  0  0  0  0
  -22.9836   -8.8152   22.5576 C   0  0  0  0  0  0  0  0  0  0  0  0
  -33.7555  -25.0316   20.9521 C   0  0  0  0  0  0  0  0  0  0  0  0
  -23.2091   -5.4785   22.0613 C   0  0  0  0  0  0  0  0  0  0  0  0
  -23.8060   -4.4549   22.7971 C   0  0  0  0  0  0  0  0  0  0  0  0
  -32.3714  -18.6824   21.4181 C   0  0  0  0  0  0  0  0  0  0  0  0
  -31.7708  -24.0491   21.9085 C   0  0  0  0  0  0  0  0  0  0  0  0
  -22.1115   -4.6929   24.5028 C   0  0  0  0  0  0  0  0  0  0  0  0
  -23.7500  -10.4985   21.0031 C   0  0  0  0  0  0  0  0  0  0  0  0
  -32.9677  -18.6748   22.6791 C   0  0  0  0  0  0  0  0  0  0  0  0
  -24.1405  -13.0139   20.8359 C   0  0  0  0  0  0  0  0  0  0  0  0
  -28.8186  -32.5977   20.7622 C   0  0  0  0  0  0  0  0  0  0  0  0
  -31.5621  -25.8079   20.2584 C   0  0  0  0  0  0  0  0  0  0  0  0
  -29.6503  -31.5267   21.1413 C   0  0  0  0  0  0  0  0  0  0  0  0
  -30.9601  -24.8835   21.1239 C   0  0  0  0  0  0  0  0  0  0  0  0
  -31.1383  -16.6848   21.9893 C   0  0  0  0  0  0  0  0  0  0  0  0
  -31.4567  -17.6874   21.0732 C   0  0  0  0  0  0  0  0  0  0  0  0
  -22.2187   -8.2311   21.5479 C   0  0  0  0  0  0  0  0  0  0  0  0
  -33.1609  -24.1242   21.8240 C   0  0  0  0  0  0  0  0  0  0  0  0
  -22.0635   -6.1094   22.5462 C   0  0  0  0  0  0  0  0  0  0  0  0
  -23.2572   -4.0621   24.0179 C   0  0  0  0  0  0  0  0  0  0  0  0
  -21.5146   -5.7166   23.7669 C   0  0  0  0  0  0  0  0  0  0  0  0
  -24.5416  -11.6693   20.7223 C   0  0  0  0  0  0  0  0  0  0  0  0
  -25.2463  -13.7352   20.4572 C   0  0  0  0  0  0  0  0  0  0  0  0
  -33.9329  -19.7253   23.0435 C   0  0  0  0  0  0  0  0  0  0  0  0
  -34.6013  -20.4969   22.1720 C   0  0  0  0  0  0  0  0  0  0  0  0
  -22.8810  -13.5619   21.2472 C   0  0  0  0  0  0  0  0  0  0  0  0
  -29.2795  -27.8506   21.1074 C   0  0  0  0  0  0  0  0  0  0  0  0
  -30.7688  -14.5859   20.7165 C   0  0  0  0  0  0  0  0  0  0  0  0
  -27.3171  -25.4659   20.1150 C   0  0  0  0  0  0  0  0  0  0  0  0
  -26.8782  -22.1347   19.5176 C   0  0  0  0  0  0  0  0  0  0  0  0
  -27.3289  -32.5666   20.9960 C   0  0  0  0  0  0  0  0  0  0  0  0
  -30.7181  -26.6978   19.3877 C   0  0  0  0  0  0  0  0  0  0  0  0
  -29.4632  -24.7660   21.2419 C   0  0  0  0  0  0  0  0  0  0  0  0
  -26.7811  -31.1642   21.2482 C   0  0  0  0  0  0  0  0  0  0  0  0
  -29.5550  -12.2668   18.2694 C   0  0  0  0  0  0  0  0  0  0  0  0
  -27.6539  -30.4235   22.2563 C   0  0  0  0  0  0  0  0  0  0  0  0
  -28.1197  -11.9920   18.7161 C   0  0  0  0  0  0  0  0  0  0  0  0
  -30.4816  -12.4736   19.4635 C   0  0  0  0  0  0  0  0  0  0  0  0
  -28.5955  -13.2709   20.8523 C   0  0  0  0  0  0  0  0  0  0  0  0
  -29.0832  -30.2521   21.7278 C   0  0  1  0  0  0  0  0  0  0  0  0
  -29.3105  -26.9095   19.9365 C   0  0  1  0  0  0  0  0  0  0  0  0
  -27.6204  -13.0864   19.6760 C   0  0  2  0  0  0  0  0  0  0  0  0
  -30.8307  -17.7162   19.7176 C   0  0  0  0  0  0  0  0  0  0  0  0
  -25.1543  -20.4819   18.7469 C   0  0  0  0  0  0  0  0  0  0  0  0
  -25.9445  -25.6331   22.8350 C   0  0  0  0  0  0  0  0  0  0  0  0
  -24.9152  -23.3976   22.3751 C   0  0  0  0  0  0  0  0  0  0  0  0
  -24.3899  -25.3382   20.8983 C   0  0  0  0  0  0  0  0  0  0  0  0
  -28.5209  -21.3307   17.1907 C   0  0  0  0  0  0  0  0  0  0  0  0
  -30.1619  -15.6093   21.6431 C   0  0  0  0  0  0  0  0  0  0  0  0
  -35.5896  -21.5519   22.5880 C   0  0  0  0  0  0  0  0  0  0  0  0
  -35.2025  -22.9269   22.0565 C   0  0  0  0  0  0  0  0  0  1  0  0
  -26.6762  -24.2664   20.7703 C   0  0  1  0  0  0  0  0  0  0  0  0
  -26.2976  -21.3927   18.3273 C   0  0  2  0  0  0  0  0  0  0  0  0
  -25.5097  -24.6621   21.7191 C   0  0  0  0  0  0  0  0  0  0  0  0
  -25.8035  -11.5412   20.3039 N   0  0  0  0  0  0  0  0  0  0  0  0
  -26.2050  -12.8146   20.1513 N   0  0  0  0  0  0  0  0  0  0  0  0
  -28.6809  -25.6621   20.3744 N   0  0  0  0  0  0  0  0  0  0  0  0
  -29.9611  -13.5051   20.3627 N   0  0  0  0  0  0  0  0  0  0  0  0
  -25.4823  -15.0608   20.3593 N   0  0  0  0  0  0  0  0  0  0  0  0
  -21.8523  -12.6789   21.6027 N   0  0  0  0  0  0  0  0  0  0  0  0
  -29.1381  -29.1798   20.7574 N   0  0  0  0  0  0  0  0  0  0  0  0
  -26.2876  -23.3689   19.6877 N   0  0  0  0  0  0  0  0  0  0  0  0
  -27.3466  -20.5597   17.6741 N   0  3  0  0  0  0  0  0  0  0  0  0
  -22.6688  -14.7977   21.2821 O   0  0  0  0  0  0  0  0  0  0  0  0
  -29.3752  -27.4036   22.2444 O   0  0  0  0  0  0  0  0  0  0  0  0
  -31.9254  -14.7458   20.3178 O   0  0  0  0  0  0  0  0  0  0  0  0
  -26.6345  -26.1977   19.3937 O   0  0  0  0  0  0  0  0  0  0  0  0
  -27.7643  -21.6646   20.2278 O   0  0  0  0  0  0  0  0  0  0  0  0
  -21.4716   -7.1250   21.8141 O   0  0  0  0  0  0  0  0  0  0  0  0
  -33.9347  -23.3077   22.5896 O   0  0  0  0  0  0  0  0  0  1  0  0
  -23.8296   -3.0780   24.7236 F   0  0  0  0  0  0  0  0  0  0  0  0
  -20.4134   -6.3182   24.2373 F   0  0  0  0  0  0  0  0  0  0  0  0
  1  2  1  0  0  0  0
  1  6  2  0  0  0  0
  2  7  2  0  0  0  0
  3 10  2  0  0  0  0
  3 18  1  0  0  0  0
  4 11  1  0  0  0  0
  4 18  2  0  0  0  0
  5  9  2  0  0  0  0
  5 19  1  0  0  0  0
  6 21  1  0  0  0  0
  7 23  1  0  0  0  0
  8 12  2  0  0  0  0
  8 22  1  0  0  0  0
  9 25  1  0  0  0  0
 10 27  1  0  0  0  0
 11 27  2  0  0  0  0
 12 28  1  0  0  0  0
 13 14  2  0  0  0  0
 13 29  1  0  0  0  0
 14 30  1  0  0  0  0
 15 19  2  0  0  0  0
 15 26  1  0  0  0  0
 16 24  1  0  0  0  0
 16 28  2  0  0  0  0
 17 30  2  0  0  0  0
 17 31  1  0  0  0  0
 18 32  1  0  0  0  0
 19 34  1  0  0  0  0
 20 32  1  0  0  0  0
 20 33  2  0  0  0  0
 20 36  1  0  0  0  0
 21 23  2  0  0  0  0
 21 41  1  0  0  0  0
 22 24  2  0  0  0  0
 22 42  1  0  0  0  0
 23 50  1  0  0  0  0
 24 43  1  0  0  0  0
 25 26  2  0  0  0  0
 25 59  1  0  0  0  0
 26 53  1  0  0  0  0
 27 79  1  0  0  0  0
 28 80  1  0  0  0  0
 29 31  2  0  0  0  0
 29 79  1  0  0  0  0
 30 81  1  0  0  0  0
 31 82  1  0  0  0  0
 32 65  2  0  0  0  0
 33 66  1  0  0  0  0
 33 69  1  0  0  0  0
 34 35  2  0  0  0  0
 35 60  1  0  0  0  0
 36 70  1  0  0  0  0
 36 74  2  0  0  0  0
 37 51  1  0  0  0  0
 37 71  1  0  0  0  0
 37 75  2  0  0  0  0
 38 59  1  0  0  0  0
 38 68  1  0  0  0  0
 38 76  2  0  0  0  0
 39 62  1  0  0  0  0
 39 67  1  0  0  0  0
 39 77  2  0  0  0  0
 40 63  1  0  0  0  0
 40 72  1  0  0  0  0
 40 78  2  0  0  0  0
 41 44  1  0  0  0  0
 42 51  1  0  0  0  0
 43 67  1  0  0  0  0
 44 46  1  0  0  0  0
 45 47  1  0  0  0  0
 45 48  1  0  0  0  0
 46 50  1  0  0  0  0
 47 52  1  0  0  0  0
 48 68  1  0  0  0  0
 49 52  1  0  0  0  0
 49 68  1  0  0  0  0
 50 71  1  0  0  0  0
 51 67  1  0  0  0  0
 52 66  1  0  0  0  0
 54 63  1  0  0  0  0
 55 64  1  0  0  0  0
 56 64  1  0  0  0  0
 57 64  1  0  0  0  0
 58 73  1  0  0  0  0
 60 61  1  0  0  0  0
 61 80  1  0  0  0  0
 62 64  1  0  0  0  0
 62 72  1  0  0  0  0
 63 73  1  0  0  0  0
 65 66  1  0  0  0  0
M  CHG  1  73   1
M  ISO  4  38 100  59 100  61 101  80 101
M  END
> <Batch ID>
0125

> <Smiles>
CNC(C)C(=O)NC(C(=O)N1Cc2cc([101O:1][101CH2:1]CC=Cc3ccc([100CH2:0][100C:0](=O)N4CCCC(n5nc(-c6ccc(Oc7ccc(F)cc7F)cc6)c(C(N)=O)c5N)C4)c(C)c3)ccc2CC1C(=O)NC1CCCc2ccccc21)C(C)(C)C

> <Shape>
0.260

> <Color>
0.210

> <Negative vol penalty>
0.000

$$$$

  -OEChem-04052302093D

 87 96  0     1  0  0  0  0  0999 V2000
  -32.0358  -34.2306   21.1062 C   0  0  0  0  0  0  0  0  0  0  0  0
  -31.5649  -32.9229   21.0458 C   0  0  0  0  0  0  0  0  0  0  0  0
  -23.3824   -9.6317   21.6869 C   0  0  0  0  0  0  0  0  0  0  0  0
  -24.0517  -10.7957   23.6955 C   0  0  0  0  0  0  0  0  0  0  0  0
  -31.4566  -35.1387   21.9915 C   0  0  0  0  0  0  0  0  0  0  0  0
  -30.5152  -32.5223   21.8715 C   0  0  0  0  0  0  0  0  0  0  0  0
  -27.0349  -29.7940   19.4039 C   0  0  0  0  0  0  0  0  0  0  0  0
  -22.7311   -8.6711   22.4606 C   0  0  0  0  0  0  0  0  0  0  0  0
  -23.4002   -9.8352   24.4692 C   0  0  0  0  0  0  0  0  0  0  0  0
  -27.3365  -28.4566   19.1505 C   0  0  0  0  0  0  0  0  0  0  0  0
  -19.8090   -8.3866   24.1380 C   0  0  0  0  0  0  0  0  0  0  0  0
  -18.5302   -7.9943   23.7428 C   0  0  0  0  0  0  0  0  0  0  0  0
  -31.2326  -19.9055   21.3301 C   0  0  0  0  0  0  0  0  0  0  0  0
  -29.3853  -18.4273   20.8408 C   0  0  0  0  0  0  0  0  0  0  0  0
  -25.9796  -27.8001   21.0339 C   0  0  0  0  0  0  0  0  0  0  0  0
  -31.6548  -17.6092   20.7087 C   0  0  0  0  0  0  0  0  0  0  0  0
  -19.3037   -5.7184   23.4993 C   0  0  0  0  0  0  0  0  0  0  0  0
  -24.0428  -10.6940   22.3044 C   0  0  0  0  0  0  0  0  0  0  0  0
  -29.8604  -19.6855   21.2110 C   0  0  0  0  0  0  0  0  0  0  0  0
  -24.1716  -12.8799   20.9957 C   0  0  0  0  0  0  0  0  0  0  0  0
  -30.3928  -34.7516   22.8217 C   0  0  0  0  0  0  0  0  0  0  0  0
  -26.2108  -30.1458   20.4826 C   0  0  0  0  0  0  0  0  0  0  0  0
  -29.9220  -33.4256   22.7698 C   0  0  0  0  0  0  0  0  0  0  0  0
  -25.6670  -29.1425   21.2973 C   0  0  0  0  0  0  0  0  0  0  0  0
  -32.1298  -18.8673   21.0789 C   0  0  0  0  0  0  0  0  0  0  0  0
  -30.2825  -17.3892   20.5896 C   0  0  0  0  0  0  0  0  0  0  0  0
  -22.7399   -8.7729   23.8517 C   0  0  0  0  0  0  0  0  0  0  0  0
  -26.8112  -27.4596   19.9673 C   0  0  0  0  0  0  0  0  0  0  0  0
  -20.8353   -7.4449   24.2137 C   0  0  0  0  0  0  0  0  0  0  0  0
  -18.2775   -6.6602   23.4235 C   0  0  0  0  0  0  0  0  0  0  0  0
  -20.5826   -6.1108   23.8944 C   0  0  0  0  0  0  0  0  0  0  0  0
  -24.7164  -11.6862   21.5057 C   0  0  0  0  0  0  0  0  0  0  0  0
  -25.2086  -13.4658   20.3116 C   0  0  0  0  0  0  0  0  0  0  0  0
  -28.9129  -20.7811   21.4755 C   0  0  0  0  0  0  0  0  0  0  0  0
  -29.2173  -22.0884   21.4622 C   0  0  0  0  0  0  0  0  0  0  0  0
  -22.8467  -13.4117   21.1284 C   0  0  0  0  0  0  0  0  0  0  0  0
  -26.5908  -31.8675   23.1274 C   0  0  0  0  0  0  0  0  0  0  0  0
  -23.4068  -31.3439   23.4591 C   0  0  0  0  0  0  0  0  0  0  0  0
  -20.6985  -29.4004   22.7275 C   0  0  0  0  0  0  0  0  0  0  0  0
  -30.5548  -14.9739   19.9275 C   0  0  0  0  0  0  0  0  0  0  0  0
  -29.8300  -35.7556   23.7963 C   0  0  0  0  0  0  0  0  0  0  0  0
  -25.8734  -31.5912   20.7264 C   0  0  0  0  0  0  0  0  0  0  0  0
  -24.7607  -29.4662   22.4558 C   0  0  0  0  0  0  0  0  0  0  0  0
  -28.4737  -35.3535   24.3699 C   0  0  0  0  0  0  0  0  0  0  0  0
  -29.7413  -11.6339   19.0000 C   0  0  0  0  0  0  0  0  0  0  0  0
  -28.4938  -33.8949   24.8157 C   0  0  0  0  0  0  0  0  0  0  0  0
  -34.4289  -20.0279   18.8775 C   0  0  0  0  0  0  0  0  0  0  0  0
  -35.6561  -19.5935   19.6293 C   0  0  0  0  0  0  0  0  0  0  0  0
  -28.3167  -11.4480   19.5273 C   0  0  0  0  0  0  0  0  0  0  0  0
  -30.5874  -12.4892   19.9416 C   0  0  0  0  0  0  0  0  0  0  0  0
  -28.5746  -13.6004   20.8264 C   0  0  0  0  0  0  0  0  0  0  0  0
  -28.7687  -32.9599   23.6317 C   0  0  1  0  0  0  0  0  0  0  0  0
  -25.4393  -31.8695   22.1622 C   0  0  1  0  0  0  0  0  0  0  0  0
  -34.3425  -18.9035   19.8721 C   0  0  0  0  0  0  0  0  0  0  0  0
  -27.6654  -12.7997   19.8799 C   0  0  2  0  0  0  0  0  0  0  0  0
  -34.2412  -18.2290   22.2990 C   0  0  0  0  0  0  0  0  0  0  0  0
  -18.2368  -29.2040   23.1731 C   0  0  0  0  0  0  0  0  0  0  0  0
  -24.0005  -30.2767   26.2553 C   0  0  0  0  0  0  0  0  0  0  0  0
  -21.7199  -29.2437   26.2695 C   0  0  0  0  0  0  0  0  0  0  0  0
  -21.9643  -31.7205   26.1003 C   0  0  0  0  0  0  0  0  0  0  0  0
  -20.0387  -29.6783   19.8559 C   0  0  0  0  0  0  0  0  0  0  0  0
  -28.2140  -23.1733   21.7343 C   0  0  0  0  0  0  0  0  0  0  0  0
  -28.1198  -24.1473   20.5613 C   0  0  0  0  0  0  0  0  0  0  0  0
  -27.1354  -25.2734   20.8455 C   0  0  0  0  0  0  0  0  0  1  0  0
  -33.5972  -19.1022   21.2055 C   0  0  2  0  0  0  0  0  0  0  0  0
  -22.5610  -30.2774   24.1120 C   0  0  1  0  0  0  0  0  0  0  0  0
  -19.3049  -29.7563   22.2421 C   0  0  2  0  0  0  0  0  0  0  0  0
  -22.5800  -30.3733   25.6637 C   0  0  0  0  0  0  0  0  0  0  0  0
  -25.9997  -11.5220   21.1739 N   0  0  0  0  0  0  0  0  0  0  0  0
  -26.2700  -12.6202   20.4479 N   0  0  0  0  0  0  0  0  0  0  0  0
  -24.4655  -30.8944   22.6573 N   0  0  0  0  0  0  0  0  0  0  0  0
  -29.9095  -13.7555   20.2275 N   0  0  0  0  0  0  0  0  0  0  0  0
  -25.3069  -14.6166   19.6128 N   0  0  0  0  0  0  0  0  0  0  0  0
  -21.9043  -12.6811   21.8649 N   0  0  0  0  0  0  0  0  0  0  0  0
  -29.8001  -16.1114   20.2125 N   0  0  0  0  0  0  0  0  0  0  0  0
  -27.5741  -32.7923   22.8321 N   0  0  0  0  0  0  0  0  0  0  0  0
  -21.2315  -30.3930   23.5224 N   0  0  0  0  0  0  0  0  0  0  0  0
  -19.0735  -29.2002   20.8790 N   0  3  0  0  0  0  0  0  0  0  0  0
  -22.5041  -14.4943   20.5955 O   0  0  0  0  0  0  0  0  0  0  0  0
  -26.5868  -31.0857   24.0712 O   0  0  0  0  0  0  0  0  0  0  0  0
  -23.1336  -32.5319   23.6477 O   0  0  0  0  0  0  0  0  0  0  0  0
  -21.2569  -28.3456   22.4342 O   0  0  0  0  0  0  0  0  0  0  0  0
  -31.6821  -15.0052   19.4276 O   0  0  0  0  0  0  0  0  0  0  0  0
  -22.1042   -7.8359   24.6070 O   0  0  0  0  0  0  0  0  0  0  0  0
  -27.1045  -26.1535   19.7226 O   0  0  0  0  0  0  0  0  0  1  0  0
  -17.0490   -6.2833   23.0455 F   0  0  0  0  0  0  0  0  0  0  0  0
  -21.5641   -5.2013   23.9664 F   0  0  0  0  0  0  0  0  0  0  0  0
  1  2  1  0  0  0  0
  1  5  2  0  0  0  0
  2  6  2  0  0  0  0
  3  8  2  0  0  0  0
  3 18  1  0  0  0  0
  4  9  1  0  0  0  0
  4 18  2  0  0  0  0
  5 21  1  0  0  0  0
  6 23  1  0  0  0  0
  7 10  2  0  0  0  0
  7 22  1  0  0  0  0
  8 27  1  0  0  0  0
  9 27  2  0  0  0  0
 10 28  1  0  0  0  0
 11 12  2  0  0  0  0
 11 29  1  0  0  0  0
 12 30  1  0  0  0  0
 13 19  2  0  0  0  0
 13 25  1  0  0  0  0
 14 19  1  0  0  0  0
 14 26  2  0  0  0  0
 15 24  1  0  0  0  0
 15 28  2  0  0  0  0
 16 25  2  0  0  0  0
 16 26  1  0  0  0  0
 17 30  2  0  0  0  0
 17 31  1  0  0  0  0
 18 32  1  0  0  0  0
 19 34  1  0  0  0  0
 20 32  1  0  0  0  0
 20 33  2  0  0  0  0
 20 36  1  0  0  0  0
 21 23  2  0  0  0  0
 21 41  1  0  0  0  0
 22 24  2  0  0  0  0
 22 42  1  0  0  0  0
 23 52  1  0  0  0  0
 24 43  1  0  0  0  0
 25 65  1  0  0  0  0
 26 75  1  0  0  0  0
 27 84  1  0  0  0  0
 28 85  1  0  0  0  0
 29 31  2  0  0  0  0
 29 84  1  0  0  0  0
 30 86  1  0  0  0  0
 31 87  1  0  0  0  0
 32 69  2  0  0  0  0
 33 70  1  0  0  0  0
 33 73  1  0  0  0  0
 34 35  2  0  0  0  0
 35 62  1  0  0  0  0
 36 74  1  0  0  0  0
 36 79  2  0  0  0  0
 37 53  1  0  0  0  0
 37 76  1  0  0  0  0
 37 80  2  0  0  0  0
 38 66  1  0  0  0  0
 38 71  1  0  0  0  0
 38 81  2  0  0  0  0
 39 67  1  0  0  0  0
 39 77  1  0  0  0  0
 39 82  2  0  0  0  0
 40 72  1  0  0  0  0
 40 75  1  0  0  0  0
 40 83  2  0  0  0  0
 41 44  1  0  0  0  0
 42 53  1  0  0  0  0
 43 71  1  0  0  0  0
 44 46  1  0  0  0  0
 45 49  1  0  0  0  0
 45 50  1  0  0  0  0
 46 52  1  0  0  0  0
 47 48  1  0  0  0  0
 47 54  1  0  0  0  0
 48 54  1  0  0  0  0
 49 55  1  0  0  0  0
 50 72  1  0  0  0  0
 51 55  1  0  0  0  0
 51 72  1  0  0  0  0
 52 76  1  0  0  0  0
 53 71  1  0  0  0  0
 54 65  1  0  0  0  0
 55 70  1  0  0  0  0
 56 65  1  0  0  0  0
 57 67  1  0  0  0  0
 58 68  1  0  0  0  0
 59 68  1  0  0  0  0
 60 68  1  0  0  0  0
 61 78  1  0  0  0  0
 62 63  1  0  0  0  0
 63 64  1  0  0  0  0
 64 85  1  0  0  0  0
 66 68  1  0  0  0  0
 66 77  1  0  0  0  0
 67 78  1  0  0  0  0
 69 70  1  0  0  0  0
M  CHG  1  78   1
M  ISO  4  40 100  64 101  75 100  85 101
M  END
> <Batch ID>
0125

> <Smiles>
CNC(C)C(=O)NC(C(=O)N1Cc2cc([101O:1][101CH2:1]CCC=Cc3cc([100NH:0][100C:0](=O)N4CCCC(n5nc(-c6ccc(Oc7ccc(F)cc7F)cc6)c(C(N)=O)c5N)C4)cc(C(C)C4CC4)c3)ccc2CC1C(=O)NC1CCCc2ccccc21)C(C)(C)C

> <Shape>
0.288

> <Color>
0.162

> <Negative vol penalty>
0.000

$$$$

  -OEChem-04052302093D

 86 95  0     1  0  0  0  0  0999 V2000
  -28.6238  -24.3371   16.7316 C   0  0  0  0  0  0  0  0  0  0  0  0
  -27.4256  -24.4650   17.4268 C   0  0  0  0  0  0  0  0  0  0  0  0
  -27.7503  -13.1416   20.2332 C   0  0  0  0  0  0  0  0  0  0  0  0
  -27.7904  -14.3799   22.3073 C   0  0  0  0  0  0  0  0  0  0  0  0
  -18.1515  -21.1531   23.5918 C   0  0  0  0  0  0  0  0  0  0  0  0
  -29.7842  -24.9278   17.2301 C   0  0  0  0  0  0  0  0  0  0  0  0
  -27.3874  -25.1829   18.6217 C   0  0  0  0  0  0  0  0  0  0  0  0
  -23.4054  -28.3002   18.8885 C   0  0  0  0  0  0  0  0  0  0  0  0
  -18.4029  -19.7885   23.7336 C   0  0  0  0  0  0  0  0  0  0  0  0
  -29.0389  -12.6727   20.4882 C   0  0  0  0  0  0  0  0  0  0  0  0
  -29.0791  -13.9109   22.5624 C   0  0  0  0  0  0  0  0  0  0  0  0
  -22.1711  -27.7313   19.1993 C   0  0  0  0  0  0  0  0  0  0  0  0
  -32.4581  -11.4366   20.4201 C   0  0  0  0  0  0  0  0  0  0  0  0
  -33.3775  -11.4593   19.3714 C   0  0  0  0  0  0  0  0  0  0  0  0
  -19.6964  -21.2450   21.7366 C   0  0  0  0  0  0  0  0  0  0  0  0
  -22.4211  -28.4533   21.4874 C   0  0  0  0  0  0  0  0  0  0  0  0
  -33.1262  -13.8563   19.2029 C   0  0  0  0  0  0  0  0  0  0  0  0
  -27.1260  -13.9953   21.1427 C   0  0  0  0  0  0  0  0  0  0  0  0
  -18.7983  -21.8814   22.5932 C   0  0  0  0  0  0  0  0  0  0  0  0
  -24.5804  -13.8802   21.2617 C   0  0  0  0  0  0  0  0  0  0  0  0
  -29.7582  -25.6614   18.4266 C   0  0  0  0  0  0  0  0  0  0  0  0
  -24.1631  -28.9415   19.8790 C   0  0  0  0  0  0  0  0  0  0  0  0
  -28.5488  -25.7829   19.1373 C   0  0  0  0  0  0  0  0  0  0  0  0
  -23.6635  -29.0318   21.1861 C   0  0  0  0  0  0  0  0  0  0  0  0
  -19.3011  -19.1521   22.8770 C   0  0  0  0  0  0  0  0  0  0  0  0
  -19.9479  -19.8803   21.8784 C   0  0  0  0  0  0  0  0  0  0  0  0
  -29.7033  -13.0573   21.6527 C   0  0  0  0  0  0  0  0  0  0  0  0
  -21.6801  -27.8052   20.4995 C   0  0  0  0  0  0  0  0  0  0  0  0
  -31.8727  -12.6238   20.8602 C   0  0  0  0  0  0  0  0  0  0  0  0
  -33.7116  -12.6691   18.7628 C   0  0  0  0  0  0  0  0  0  0  0  0
  -32.2068  -13.8336   20.2516 C   0  0  0  0  0  0  0  0  0  0  0  0
  -25.7951  -14.4805   20.8796 C   0  0  0  0  0  0  0  0  0  0  0  0
  -23.6123  -14.7254   20.7769 C   0  0  0  0  0  0  0  0  0  0  0  0
  -17.2514  -23.6649   22.1858 C   0  0  0  0  0  0  0  0  0  0  0  0
  -18.5301  -23.3282   22.4438 C   0  0  0  0  0  0  0  0  0  0  0  0
  -19.5627  -24.3730   22.5702 C   0  0  0  0  0  0  0  0  0  0  0  0
  -19.3097  -25.6337   22.1451 C   0  0  0  0  0  0  0  0  0  0  0  0
  -24.3479  -12.6672   21.9899 C   0  0  0  0  0  0  0  0  0  0  0  0
  -27.0257  -28.4625   21.1751 C   0  0  0  0  0  0  0  0  0  0  0  0
  -26.3871  -31.2693   22.6706 C   0  0  0  0  0  0  0  0  0  0  0  0
  -24.0495  -33.4914   23.7863 C   0  0  0  0  0  0  0  0  0  0  0  0
  -21.5797  -19.8443   19.9595 C   0  0  0  0  0  0  0  0  0  0  0  0
  -31.0478  -26.2421   18.9503 C   0  0  0  0  0  0  0  0  0  0  0  0
  -25.4804  -29.5735   19.5217 C   0  0  0  0  0  0  0  0  0  0  0  0
  -24.4288  -29.7270   22.2813 C   0  0  0  0  0  0  0  0  0  0  0  0
  -16.8129  -25.0808   21.9863 C   0  0  0  0  0  0  0  0  0  0  0  0
  -17.9550  -26.0163   21.5861 C   0  0  0  0  0  0  0  0  0  0  0  0
  -30.8445  -27.3020   20.0299 C   0  0  0  0  0  0  0  0  0  0  0  0
  -23.9557  -18.6461   17.5939 C   0  0  0  0  0  0  0  0  0  0  0  0
  -29.8326  -26.8220   21.0655 C   0  0  0  0  0  0  0  0  0  0  0  0
  -24.5461  -17.4062   18.2692 C   0  0  0  0  0  0  0  0  0  0  0  0
  -23.6595  -19.7545   18.6026 C   0  0  0  0  0  0  0  0  0  0  0  0
  -23.4215  -18.1091   20.4205 C   0  0  0  0  0  0  0  0  0  0  0  0
  -28.4619  -26.5746   20.4241 C   0  0  1  0  0  0  0  0  0  0  0  0
  -26.4025  -29.7531   20.7237 C   0  0  1  0  0  0  0  0  0  0  0  0
  -23.6760  -16.9413   19.4535 C   0  0  2  0  0  0  0  0  0  0  0  0
  -19.5521  -17.6895   23.0529 C   0  0  0  0  0  0  0  0  0  0  0  0
  -20.8687  -23.9433   23.1912 C   0  0  0  0  0  0  0  0  0  0  0  0
  -23.8301  -35.6744   25.0044 C   0  0  0  0  0  0  0  0  0  0  0  0
  -26.9763  -29.8538   25.3086 C   0  0  0  0  0  0  0  0  0  0  0  0
  -25.8444  -31.7451   26.4960 C   0  0  0  0  0  0  0  0  0  0  0  0
  -27.8950  -32.1739   25.1417 C   0  0  0  0  0  0  0  0  0  0  0  0
  -22.7419  -34.7862   21.4684 C   0  0  0  0  0  0  0  0  0  0  0  0
  -20.3043  -26.7639   22.1362 C   0  0  0  0  0  0  0  0  0  1  0  0
  -25.7166  -31.6629   23.9646 C   0  0  1  0  0  0  0  0  0  0  0  0
  -23.9457  -34.9994   23.6465 C   0  0  2  0  0  0  0  0  0  0  0  0
  -26.5943  -31.3440   25.2077 C   0  0  0  0  0  0  0  0  0  0  0  0
  -25.6175  -15.6189   20.2040 N   0  0  0  0  0  0  0  0  0  0  0  0
  -24.2799  -15.7407   20.1577 N   0  0  0  0  0  0  0  0  0  0  0  0
  -25.7146  -30.3237   21.8836 N   0  0  0  0  0  0  0  0  0  0  0  0
  -22.8276  -19.2420   19.6934 N   0  0  0  0  0  0  0  0  0  0  0  0
  -22.2636  -14.6915   20.8241 N   0  0  0  0  0  0  0  0  0  0  0  0
  -25.4552  -11.9198   22.4138 N   0  0  0  0  0  0  0  0  0  0  0  0
  -20.8630  -19.2512   20.9983 N   0  0  0  0  0  0  0  0  0  0  0  0
  -27.7742  -27.8285   20.2019 N   0  0  0  0  0  0  0  0  0  0  0  0
  -25.3622  -33.0715   23.8287 N   0  0  0  0  0  0  0  0  0  0  0  0
  -22.7484  -35.3634   22.8372 N   0  3  0  0  0  0  0  0  0  0  0  0
  -23.1923  -12.2497   22.2425 O   0  0  0  0  0  0  0  0  0  0  0  0
  -26.8423  -28.0717   22.3220 O   0  0  0  0  0  0  0  0  0  0  0  0
  -27.4644  -31.7873   22.3657 O   0  0  0  0  0  0  0  0  0  0  0  0
  -23.0646  -32.7594   23.8549 O   0  0  0  0  0  0  0  0  0  0  0  0
  -21.1646  -20.7976   19.2956 O   0  0  0  0  0  0  0  0  0  0  0  0
  -30.9607  -12.5997   21.9020 O   0  0  0  0  0  0  0  0  0  0  0  0
  -20.4759  -27.2501   20.8056 O   0  0  0  0  0  0  0  0  0  1  0  0
  -34.5956  -12.6909   17.7567 F   0  0  0  0  0  0  0  0  0  0  0  0
  -31.6485  -14.9775   20.6708 F   0  0  0  0  0  0  0  0  0  0  0  0
  1  2  1  0  0  0  0
  1  6  2  0  0  0  0
  2  7  2  0  0  0  0
  3 10  2  0  0  0  0
  3 18  1  0  0  0  0
  4 11  1  0  0  0  0
  4 18  2  0  0  0  0
  5  9  2  0  0  0  0
  5 19  1  0  0  0  0
  6 21  1  0  0  0  0
  7 23  1  0  0  0  0
  8 12  2  0  0  0  0
  8 22  1  0  0  0  0
  9 25  1  0  0  0  0
 10 27  1  0  0  0  0
 11 27  2  0  0  0  0
 12 28  1  0  0  0  0
 13 14  2  0  0  0  0
 13 29  1  0  0  0  0
 14 30  1  0  0  0  0
 15 19  2  0  0  0  0
 15 26  1  0  0  0  0
 16 24  1  0  0  0  0
 16 28  2  0  0  0  0
 17 30  2  0  0  0  0
 17 31  1  0  0  0  0
 18 32  1  0  0  0  0
 19 35  1  0  0  0  0
 20 32  1  0  0  0  0
 20 33  2  0  0  0  0
 20 38  1  0  0  0  0
 21 23  2  0  0  0  0
 21 43  1  0  0  0  0
 22 24  2  0  0  0  0
 22 44  1  0  0  0  0
 23 54  1  0  0  0  0
 24 45  1  0  0  0  0
 25 26  2  0  0  0  0
 25 57  1  0  0  0  0
 26 74  1  0  0  0  0
 27 83  1  0  0  0  0
 28 84  1  0  0  0  0
 29 31  2  0  0  0  0
 29 83  1  0  0  0  0
 30 85  1  0  0  0  0
 31 86  1  0  0  0  0
 32 68  2  0  0  0  0
 33 69  1  0  0  0  0
 33 72  1  0  0  0  0
 34 35  2  0  0  0  0
 34 46  1  0  0  0  0
 35 36  1  0  0  0  0
 36 37  2  0  0  0  0
 36 58  1  0  0  0  0
 37 47  1  0  0  0  0
 37 64  1  0  0  0  0
 38 73  1  0  0  0  0
 38 78  2  0  0  0  0
 39 55  1  0  0  0  0
 39 75  1  0  0  0  0
 39 79  2  0  0  0  0
 40 65  1  0  0  0  0
 40 70  1  0  0  0  0
 40 80  2  0  0  0  0
 41 66  1  0  0  0  0
 41 76  1  0  0  0  0
 41 81  2  0  0  0  0
 42 71  1  0  0  0  0
 42 74  1  0  0  0  0
 42 82  2  0  0  0  0
 43 48  1  0  0  0  0
 44 55  1  0  0  0  0
 45 70  1  0  0  0  0
 46 47  1  0  0  0  0
 48 50  1  0  0  0  0
 49 51  1  0  0  0  0
 49 52  1  0  0  0  0
 50 54  1  0  0  0  0
 51 56  1  0  0  0  0
 52 71  1  0  0  0  0
 53 56  1  0  0  0  0
 53 71  1  0  0  0  0
 54 75  1  0  0  0  0
 55 70  1  0  0  0  0
 56 69  1  0  0  0  0
 59 66  1  0  0  0  0
 60 67  1  0  0  0  0
 61 67  1  0  0  0  0
 62 67  1  0  0  0  0
 63 77  1  0  0  0  0
 64 84  1  0  0  0  0
 65 67  1  0  0  0  0
 65 76  1  0  0  0  0
 66 77  1  0  0  0  0
 68 69  1  0  0  0  0
M  CHG  1  77   1
M  ISO  4  42 100  64 101  74 100  84 101
M  END
> <Batch ID>
0125

> <Smiles>
CNC(C)C(=O)NC(C(=O)N1Cc2cc([101O:1][101CH2:1]C3=C(C)C(c4ccc(C)c([100NH:0][100C:0](=O)N5CCCC(n6nc(-c7ccc(Oc8ccc(F)cc8F)cc7)c(C(N)=O)c6N)C5)c4)=CCC3)ccc2CC1C(=O)NC1CCCc2ccccc21)C(C)(C)C

> <Shape>
0.273

> <Color>
0.085

> <Negative vol penalty>
0.000

$$$$

  -OEChem-04052302093D

 86 95  0     1  0  0  0  0  0999 V2000
  -28.0605  -37.7790   23.4497 C   0  0  0  0  0  0  0  0  0  0  0  0
  -28.5634  -36.6157   22.8760 C   0  0  0  0  0  0  0  0  0  0  0  0
  -24.3334  -12.8045   21.4547 C   0  0  0  0  0  0  0  0  0  0  0  0
  -26.3845  -13.0286   20.1978 C   0  0  0  0  0  0  0  0  0  0  0  0
  -27.0327  -37.7038   24.3889 C   0  0  0  0  0  0  0  0  0  0  0  0
  -28.0396  -35.3763   23.2420 C   0  0  0  0  0  0  0  0  0  0  0  0
  -28.3627  -24.3361   17.8672 C   0  0  0  0  0  0  0  0  0  0  0  0
  -27.3373  -30.4691   19.6459 C   0  0  0  0  0  0  0  0  0  0  0  0
  -27.3519  -23.3950   18.0626 C   0  0  0  0  0  0  0  0  0  0  0  0
  -24.3494  -11.4271   21.2353 C   0  0  0  0  0  0  0  0  0  0  0  0
  -26.4005  -11.6511   19.9784 C   0  0  0  0  0  0  0  0  0  0  0  0
  -28.1052  -29.3190   19.4679 C   0  0  0  0  0  0  0  0  0  0  0  0
  -25.9429   -8.7229   22.4925 C   0  0  0  0  0  0  0  0  0  0  0  0
  -25.6724   -7.8903   23.5784 C   0  0  0  0  0  0  0  0  0  0  0  0
  -29.5276  -23.4875   19.8062 C   0  0  0  0  0  0  0  0  0  0  0  0
  -26.6988  -28.1445   21.0369 C   0  0  0  0  0  0  0  0  0  0  0  0
  -23.7735   -6.9713   22.4009 C   0  0  0  0  0  0  0  0  0  0  0  0
  -25.3510  -13.6053   20.9359 C   0  0  0  0  0  0  0  0  0  0  0  0
  -25.9178  -15.7250   22.2370 C   0  0  0  0  0  0  0  0  0  0  0  0
  -29.4506  -24.3823   18.7390 C   0  0  0  0  0  0  0  0  0  0  0  0
  -26.4895  -36.4635   24.7594 C   0  0  0  0  0  0  0  0  0  0  0  0
  -26.2493  -30.4685   20.5305 C   0  0  0  0  0  0  0  0  0  0  0  0
  -27.0046  -35.2843   24.1880 C   0  0  0  0  0  0  0  0  0  0  0  0
  -25.9172  -29.2950   21.2224 C   0  0  0  0  0  0  0  0  0  0  0  0
  -28.5167  -22.5464   20.0017 C   0  0  0  0  0  0  0  0  0  0  0  0
  -27.4288  -22.5002   19.1298 C   0  0  0  0  0  0  0  0  0  0  0  0
  -25.3829  -10.8504   20.4972 C   0  0  0  0  0  0  0  0  0  0  0  0
  -27.7877  -28.1573   20.1656 C   0  0  0  0  0  0  0  0  0  0  0  0
  -25.1287   -8.6797   21.3607 C   0  0  0  0  0  0  0  0  0  0  0  0
  -24.5877   -7.0145   23.5326 C   0  0  0  0  0  0  0  0  0  0  0  0
  -24.0440   -7.8040   21.3149 C   0  0  0  0  0  0  0  0  0  0  0  0
  -25.3347  -15.0282   21.1617 C   0  0  0  0  0  0  0  0  0  0  0  0
  -25.6240  -17.0440   21.9911 C   0  0  0  0  0  0  0  0  0  0  0  0
  -30.7947  -26.3510   19.6848 C   0  0  0  0  0  0  0  0  0  0  0  0
  -28.1401  -22.2960   23.5221 C   0  0  0  0  0  0  0  0  0  0  0  0
  -29.8663  -27.0935   20.3008 C   0  0  0  0  0  0  0  0  0  1  0  0
  -27.7135  -21.9661   22.2978 C   0  0  0  0  0  0  0  0  0  0  0  0
  -26.6588  -15.2248   23.3579 C   0  0  0  0  0  0  0  0  0  0  0  0
  -25.5170  -32.0536   23.1866 C   0  0  0  0  0  0  0  0  0  0  0  0
  -22.6823  -30.5106   22.8613 C   0  0  0  0  0  0  0  0  0  0  0  0
  -20.9620  -27.8460   21.6015 C   0  0  0  0  0  0  0  0  0  0  0  0
  -25.2507  -21.3872   18.5270 C   0  0  0  0  0  0  0  0  0  0  0  0
  -25.4117  -36.4290   25.8139 C   0  0  0  0  0  0  0  0  0  0  0  0
  -25.4147  -31.7096   20.6912 C   0  0  0  0  0  0  0  0  0  0  0  0
  -24.7467  -29.2365   22.1684 C   0  0  0  0  0  0  0  0  0  0  0  0
  -32.2617  -26.4053   20.0105 C   0  0  0  0  0  0  0  0  0  0  0  0
  -24.6561  -35.1038   25.8694 C   0  0  0  0  0  0  0  0  0  0  0  0
  -32.9087  -25.8299   18.7581 C   0  0  0  0  0  0  0  0  0  0  0  0
  -22.4850  -19.1470   18.6227 C   0  0  0  0  0  0  0  0  0  0  0  0
  -31.9236  -24.7617   18.3014 C   0  0  0  0  0  0  0  0  0  0  0  0
  -25.6316  -33.9314   25.8404 C   0  0  0  0  0  0  0  0  0  0  0  0
  -23.0278  -17.9330   19.3802 C   0  0  0  0  0  0  0  0  0  0  0  0
  -23.5455  -19.7712   17.7174 C   0  0  0  0  0  0  0  0  0  0  0  0
  -25.3539  -18.8915   19.1403 C   0  0  0  0  0  0  0  0  0  0  0  0
  -30.5451  -25.4040   18.5284 C   0  0  1  0  0  0  0  0  0  0  0  0
  -26.4456  -33.9230   24.5409 C   0  0  1  0  0  0  0  0  0  0  0  0
  -24.6413  -31.7434   22.0057 C   0  0  1  0  0  0  0  0  0  0  0  0
  -24.3410  -18.2679   20.1144 C   0  0  2  0  0  0  0  0  0  0  0  0
  -18.6648  -26.8381   21.5339 C   0  0  0  0  0  0  0  0  0  0  0  0
  -23.0345  -29.5215   25.7262 C   0  0  0  0  0  0  0  0  0  0  0  0
  -21.2641  -27.8088   25.2786 C   0  0  0  0  0  0  0  0  0  0  0  0
  -20.7090  -30.2373   25.1481 C   0  0  0  0  0  0  0  0  0  0  0  0
  -20.8229  -28.0729   18.6540 C   0  0  0  0  0  0  0  0  0  0  0  0
  -28.6238  -21.6022   21.1551 C   0  0  0  0  0  0  0  0  0  0  0  0
  -22.1236  -29.1899   23.3332 C   0  0  1  0  0  0  0  0  0  0  0  0
  -19.6523  -27.7621   20.8384 C   0  0  2  0  0  0  0  0  0  0  0  0
  -21.8061  -29.1907   24.8553 C   0  0  0  0  0  0  0  0  0  0  0  0
  -24.7171  -15.8376   20.2971 N   0  0  0  0  0  0  0  0  0  0  0  0
  -24.9103  -17.0565   20.8289 N   0  0  0  0  0  0  0  0  0  0  0  0
  -23.9651  -30.4775   22.2964 N   0  0  0  0  0  0  0  0  0  0  0  0
  -24.7594  -20.0654   18.4821 N   0  0  0  0  0  0  0  0  0  0  0  0
  -25.9090  -18.1827   22.6578 N   0  0  0  0  0  0  0  0  0  0  0  0
  -26.8693  -13.8427   23.4565 N   0  0  0  0  0  0  0  0  0  0  0  0
  -26.3919  -21.5518   19.3114 N   0  0  0  0  0  0  0  0  0  0  0  0
  -25.6497  -33.4038   23.4494 N   0  0  0  0  0  0  0  0  0  0  0  0
  -20.9726  -28.9064   22.4828 N   0  0  0  0  0  0  0  0  0  0  0  0
  -19.8880  -27.2465   19.4602 N   0  3  0  0  0  0  0  0  0  0  0  0
  -27.1064  -15.9795   24.2543 O   0  0  0  0  0  0  0  0  0  0  0  0
  -26.0328  -31.1360   23.8139 O   0  0  0  0  0  0  0  0  0  0  0  0
  -22.0025  -31.5328   22.9827 O   0  0  0  0  0  0  0  0  0  0  0  0
  -21.8820  -27.0482   21.4353 O   0  0  0  0  0  0  0  0  0  0  0  0
  -24.6842  -22.3106   17.9367 O   0  0  0  0  0  0  0  0  0  0  0  0
  -25.3990   -9.5064   20.2831 O   0  0  0  0  0  0  0  0  0  0  0  0
  -28.5359  -27.0336   19.9941 O   0  0  0  0  0  0  0  0  0  1  0  0
  -24.3290   -6.2140   24.5749 F   0  0  0  0  0  0  0  0  0  0  0  0
  -23.2589   -7.7572   20.2299 F   0  0  0  0  0  0  0  0  0  0  0  0
  1  2  1  0  0  0  0
  1  5  2  0  0  0  0
  2  6  2  0  0  0  0
  3 10  2  0  0  0  0
  3 18  1  0  0  0  0
  4 11  1  0  0  0  0
  4 18  2  0  0  0  0
  5 21  1  0  0  0  0
  6 23  1  0  0  0  0
  7  9  2  0  0  0  0
  7 20  1  0  0  0  0
  8 12  2  0  0  0  0
  8 22  1  0  0  0  0
  9 26  1  0  0  0  0
 10 27  1  0  0  0  0
 11 27  2  0  0  0  0
 12 28  1  0  0  0  0
 13 14  2  0  0  0  0
 13 29  1  0  0  0  0
 14 30  1  0  0  0  0
 15 20  2  0  0  0  0
 15 25  1  0  0  0  0
 16 24  1  0  0  0  0
 16 28  2  0  0  0  0
 17 30  2  0  0  0  0
 17 31  1  0  0  0  0
 18 32  1  0  0  0  0
 19 32  1  0  0  0  0
 19 33  2  0  0  0  0
 19 38  1  0  0  0  0
 20 55  1  0  0  0  0
 21 23  2  0  0  0  0
 21 43  1  0  0  0  0
 22 24  2  0  0  0  0
 22 44  1  0  0  0  0
 23 56  1  0  0  0  0
 24 45  1  0  0  0  0
 25 26  2  0  0  0  0
 25 64  1  0  0  0  0
 26 74  1  0  0  0  0
 27 83  1  0  0  0  0
 28 84  1  0  0  0  0
 29 31  2  0  0  0  0
 29 83  1  0  0  0  0
 30 85  1  0  0  0  0
 31 86  1  0  0  0  0
 32 68  2  0  0  0  0
 33 69  1  0  0  0  0
 33 72  1  0  0  0  0
 34 36  2  0  0  0  0
 34 46  1  0  0  0  0
 34 55  1  0  0  0  0
 35 37  2  0  0  0  0
 36 84  1  0  0  0  0
 37 64  1  0  0  0  0
 38 73  1  0  0  0  0
 38 78  2  0  0  0  0
 39 57  1  0  0  0  0
 39 75  1  0  0  0  0
 39 79  2  0  0  0  0
 40 65  1  0  0  0  0
 40 70  1  0  0  0  0
 40 80  2  0  0  0  0
 41 66  1  0  0  0  0
 41 76  1  0  0  0  0
 41 81  2  0  0  0  0
 42 71  1  0  0  0  0
 42 74  1  0  0  0  0
 42 82  2  0  0  0  0
 43 47  1  0  0  0  0
 44 57  1  0  0  0  0
 45 70  1  0  0  0  0
 46 48  1  0  0  0  0
 47 51  1  0  0  0  0
 48 50  1  0  0  0  0
 49 52  1  0  0  0  0
 49 53  1  0  0  0  0
 50 55  1  0  0  0  0
 51 56  1  0  0  0  0
 52 58  1  0  0  0  0
 53 71  1  0  0  0  0
 54 58  1  0  0  0  0
 54 71  1  0  0  0  0
 56 75  1  0  0  0  0
 57 70  1  0  0  0  0
 58 69  1  0  0  0  0
 59 66  1  0  0  0  0
 60 67  1  0  0  0  0
 61 67  1  0  0  0  0
 62 67  1  0  0  0  0
 63 77  1  0  0  0  0
 65 67  1  0  0  0  0
 65 76  1  0  0  0  0
 66 77  1  0  0  0  0
 68 69  1  0  0  0  0
M  CHG  1  77   1
M  ISO  4  36 101  42 100  74 100  84 101
M  END
> <Batch ID>
0125

> <Smiles>
C=CCc1cc(C2CCCC2=[101CH:1][101O:1]c2ccc3c(c2)CN(C(=O)C(NC(=O)C(C)NC)C(C)(C)C)C(C(=O)NC2CCCc4ccccc42)C3)ccc1[100NH:0][100C:0](=O)N1CCCC(n2nc(-c3ccc(Oc4ccc(F)cc4F)cc3)c(C(N)=O)c2N)C1

> <Shape>
0.291

> <Color>
0.077

> <Negative vol penalty>
0.000

$$$$

  -OEChem-04052302093D

 85 94  0     1  0  0  0  0  0999 V2000
  -29.1414  -35.3742   26.4110 C   0  0  0  0  0  0  0  0  0  0  0  0
  -29.0521  -34.1076   25.8427 C   0  0  0  0  0  0  0  0  0  0  0  0
  -24.0713   -9.5733   21.9139 C   0  0  0  0  0  0  0  0  0  0  0  0
  -23.7233   -8.9810   19.5977 C   0  0  0  0  0  0  0  0  0  0  0  0
  -27.9812  -36.0958   26.6887 C   0  0  0  0  0  0  0  0  0  0  0  0
  -27.8023  -33.5613   25.5528 C   0  0  0  0  0  0  0  0  0  0  0  0
  -27.6418  -31.3974   20.9771 C   0  0  0  0  0  0  0  0  0  0  0  0
  -23.0419   -8.7102   22.2893 C   0  0  0  0  0  0  0  0  0  0  0  0
  -22.6938   -8.1179   19.9730 C   0  0  0  0  0  0  0  0  0  0  0  0
  -28.2158  -30.1332   20.8502 C   0  0  0  0  0  0  0  0  0  0  0  0
  -22.6168   -5.3857   22.7360 C   0  0  0  0  0  0  0  0  0  0  0  0
  -22.8406   -4.5454   23.8266 C   0  0  0  0  0  0  0  0  0  0  0  0
  -29.0705  -21.2820   20.3112 C   0  0  0  0  0  0  0  0  0  0  0  0
  -26.0261  -29.1312   20.9931 C   0  0  0  0  0  0  0  0  0  0  0  0
  -20.9709   -5.5477   24.9826 C   0  0  0  0  0  0  0  0  0  0  0  0
  -30.2138  -21.9966   17.9388 C   0  0  0  0  0  0  0  0  0  0  0  0
  -24.4121   -9.7087   20.5681 C   0  0  0  0  0  0  0  0  0  0  0  0
  -29.4772  -20.2914   19.4242 C   0  0  0  0  0  0  0  0  0  0  0  0
  -26.8422  -10.2894   20.0535 C   0  0  0  0  0  0  0  0  0  0  0  0
  -26.7169  -35.5621   26.3932 C   0  0  0  0  0  0  0  0  0  0  0  0
  -26.2543  -31.5376   21.1242 C   0  0  0  0  0  0  0  0  0  0  0  0
  -26.6240  -34.2758   25.8282 C   0  0  0  0  0  0  0  0  0  0  0  0
  -25.4367  -30.3984   21.1192 C   0  0  0  0  0  0  0  0  0  0  0  0
  -30.0606  -20.6471   18.2133 C   0  0  0  0  0  0  0  0  0  0  0  0
  -22.3531   -7.9825   21.3189 C   0  0  0  0  0  0  0  0  0  0  0  0
  -27.4082  -28.9997   20.8610 C   0  0  0  0  0  0  0  0  0  0  0  0
  -21.5701   -6.3071   22.7687 C   0  0  0  0  0  0  0  0  0  0  0  0
  -22.0177   -4.6264   24.9499 C   0  0  0  0  0  0  0  0  0  0  0  0
  -20.7471   -6.3881   23.8920 C   0  0  0  0  0  0  0  0  0  0  0  0
  -25.4750  -10.6005   20.1796 C   0  0  0  0  0  0  0  0  0  0  0  0
  -29.2682  -22.6031   19.9429 C   0  0  0  0  0  0  0  0  0  0  0  0
  -27.4280  -11.4688   19.6631 C   0  0  0  0  0  0  0  0  0  0  0  0
  -28.2816  -25.6308   21.7403 C   0  0  0  0  0  0  0  0  0  0  0  0
  -29.2789  -18.8953   19.7888 C   0  0  0  0  0  0  0  0  0  0  0  0
  -27.7801  -26.8704   21.7546 C   0  0  0  0  0  0  0  0  0  1  0  0
  -28.0865  -18.3125   20.0298 C   0  0  0  0  0  0  0  0  0  0  0  0
  -27.5218   -9.0457   20.2699 C   0  0  0  0  0  0  0  0  0  0  0  0
  -28.0491  -16.8785   20.3803 C   0  0  0  0  0  0  0  0  0  0  0  0
  -24.3444  -32.7045   23.3813 C   0  0  0  0  0  0  0  0  0  0  0  0
  -22.0378  -32.1515   21.1686 C   0  0  0  0  0  0  0  0  0  0  0  0
  -21.0230  -30.4108   18.4142 C   0  0  0  0  0  0  0  0  0  0  0  0
  -25.4894  -36.3601   26.7551 C   0  0  0  0  0  0  0  0  0  0  0  0
  -25.6480  -32.9098   21.2332 C   0  0  0  0  0  0  0  0  0  0  0  0
  -23.9398  -30.4961   21.2540 C   0  0  0  0  0  0  0  0  0  0  0  0
  -28.1050  -24.6187   22.8276 C   0  0  0  0  0  0  0  0  0  0  0  0
  -29.0030  -25.0084   20.5829 C   0  0  0  0  0  0  0  0  0  0  0  0
  -24.2174  -35.8643   26.0722 C   0  0  0  0  0  0  0  0  0  0  0  0
  -25.3955  -15.8077   18.0904 C   0  0  0  0  0  0  0  0  0  0  0  0
  -24.1106  -34.3465   26.1798 C   0  0  0  0  0  0  0  0  0  0  0  0
  -25.2646  -14.3330   18.4617 C   0  0  0  0  0  0  0  0  0  0  0  0
  -28.1293  -23.2957   22.0673 C   0  0  0  0  0  0  0  0  0  0  0  0
  -25.7454  -16.6730   19.3001 C   0  0  0  0  0  0  0  0  0  0  0  0
  -26.8302  -14.7369   20.4023 C   0  0  0  0  0  0  0  0  0  0  0  0
  -25.2874  -33.6595   25.4764 C   0  0  1  0  0  0  0  0  0  0  0  0
  -24.2730  -32.9048   21.8939 C   0  0  1  0  0  0  0  0  0  0  0  0
  -26.5248  -13.8415   19.1914 C   0  0  1  0  0  0  0  0  0  0  0  0
  -30.5184  -19.6355   17.2186 C   0  0  0  0  0  0  0  0  0  0  0  0
  -19.0728  -30.1506   16.8564 C   0  0  0  0  0  0  0  0  0  0  0  0
  -20.5515  -30.5524   23.3003 C   0  0  0  0  0  0  0  0  0  0  0  0
  -19.1539  -29.5549   21.4782 C   0  0  0  0  0  0  0  0  0  0  0  0
  -19.0947  -32.0148   21.8884 C   0  0  0  0  0  0  0  0  0  0  0  0
  -22.6302  -31.2513   16.0755 C   0  0  0  0  0  0  0  0  0  0  0  0
  -21.1439  -30.9846   20.8247 C   0  0  1  0  0  0  0  0  0  0  0  0
  -20.3903  -30.8661   17.1115 C   0  0  2  0  0  0  0  0  0  0  0  0
  -20.0144  -30.7744   21.8723 C   0  0  0  0  0  0  0  0  0  0  0  0
  -29.8312  -22.9873   18.7754 N   0  0  0  0  0  0  0  0  0  0  0  0
  -25.2081  -11.8774   19.8927 N   0  0  0  0  0  0  0  0  0  0  0  0
  -26.4156  -12.3791   19.5825 N   0  0  0  0  0  0  0  0  0  0  0  0
  -28.8596  -23.5764   20.8335 N   0  0  3  0  0  0  0  0  0  0  0  0
  -26.9188  -16.1493   20.0152 N   0  0  0  0  0  0  0  0  0  0  0  0
  -23.3951  -31.8594   21.3640 N   0  0  0  0  0  0  0  0  0  0  0  0
  -28.7053  -11.8055   19.3843 N   0  0  0  0  0  0  0  0  0  0  0  0
  -26.7684   -7.9331   20.6684 N   0  0  0  0  0  0  0  0  0  0  0  0
  -25.0903  -33.6614   24.0427 N   0  0  0  0  0  0  0  0  0  0  0  0
  -20.6637  -31.2241   19.4681 N   0  0  0  0  0  0  0  0  0  0  0  0
  -21.3044  -30.5898   15.9674 N   0  3  0  0  0  0  0  0  0  0  0  0
  -28.7629   -8.9286   20.1304 O   0  0  0  0  0  0  0  0  0  0  0  0
  -29.0203  -16.4143   20.9803 O   0  0  0  0  0  0  0  0  0  0  0  0
  -23.7645  -31.7530   23.8914 O   0  0  0  0  0  0  0  0  0  0  0  0
  -21.5509  -33.2817   21.2536 O   0  0  0  0  0  0  0  0  0  0  0  0
  -21.7590  -29.4295   18.4900 O   0  0  0  0  0  0  0  0  0  0  0  0
  -21.3487   -7.1401   21.6849 O   0  0  0  0  0  0  0  0  0  0  0  0
  -27.9660  -27.7645   20.7379 O   0  0  0  0  0  0  0  0  0  1  0  0
  -22.2318   -3.8183   25.9965 F   0  0  0  0  0  0  0  0  0  0  0  0
  -19.7392   -7.2704   23.9288 F   0  0  0  0  0  0  0  0  0  0  0  0
  1  2  1  0  0  0  0
  1  5  2  0  0  0  0
  2  6  2  0  0  0  0
  3  8  2  0  0  0  0
  3 17  1  0  0  0  0
  4  9  1  0  0  0  0
  4 17  2  0  0  0  0
  5 20  1  0  0  0  0
  6 22  1  0  0  0  0
  7 10  2  0  0  0  0
  7 21  1  0  0  0  0
  8 25  1  0  0  0  0
  9 25  2  0  0  0  0
 10 26  1  0  0  0  0
 11 12  2  0  0  0  0
 11 27  1  0  0  0  0
 12 28  1  0  0  0  0
 13 18  2  0  0  0  0
 13 31  1  0  0  0  0
 14 23  1  0  0  0  0
 14 26  2  0  0  0  0
 15 28  2  0  0  0  0
 15 29  1  0  0  0  0
 16 24  2  0  0  0  0
 16 66  1  0  0  0  0
 17 30  1  0  0  0  0
 18 24  1  0  0  0  0
 18 34  1  0  0  0  0
 19 30  1  0  0  0  0
 19 32  2  0  0  0  0
 19 37  1  0  0  0  0
 20 22  2  0  0  0  0
 20 42  1  0  0  0  0
 21 23  2  0  0  0  0
 21 43  1  0  0  0  0
 22 54  1  0  0  0  0
 23 44  1  0  0  0  0
 24 57  1  0  0  0  0
 25 82  1  0  0  0  0
 26 83  1  0  0  0  0
 27 29  2  0  0  0  0
 27 82  1  0  0  0  0
 28 84  1  0  0  0  0
 29 85  1  0  0  0  0
 30 67  2  0  0  0  0
 31 66  2  0  0  0  0
 31 69  1  0  0  0  0
 32 68  1  0  0  0  0
 32 72  1  0  0  0  0
 33 35  2  0  0  0  0
 33 45  1  0  0  0  0
 33 46  1  0  0  0  0
 34 36  2  0  0  0  0
 35 83  1  0  0  0  0
 36 38  1  0  0  0  0
 37 73  1  0  0  0  0
 37 77  2  0  0  0  0
 38 70  1  0  0  0  0
 38 78  2  0  0  0  0
 39 55  1  0  0  0  0
 39 74  1  0  0  0  0
 39 79  2  0  0  0  0
 40 63  1  0  0  0  0
 40 71  1  0  0  0  0
 40 80  2  0  0  0  0
 41 64  1  0  0  0  0
 41 75  1  0  0  0  0
 41 81  2  0  0  0  0
 42 47  1  0  0  0  0
 43 55  1  0  0  0  0
 44 71  1  0  0  0  0
 45 51  1  0  0  0  0
 46 69  1  0  0  0  0
 47 49  1  0  0  0  0
 48 50  1  0  0  0  0
 48 52  1  0  0  0  0
 49 54  1  0  0  0  0
 50 56  1  0  0  0  0
 51 69  1  0  0  0  0
 52 70  1  0  0  0  0
 53 56  1  0  0  0  0
 53 70  1  0  0  0  0
 54 74  1  0  0  0  0
 55 71  1  0  0  0  0
 56 68  1  0  0  0  0
 58 64  1  0  0  0  0
 59 65  1  0  0  0  0
 60 65  1  0  0  0  0
 61 65  1  0  0  0  0
 62 76  1  0  0  0  0
 63 65  1  0  0  0  0
 63 75  1  0  0  0  0
 64 76  1  0  0  0  0
 67 68  1  0  0  0  0
M  CHG  1  76   1
M  ISO  4  35 101  36 100  38 100  83 101
M  END
> <Batch ID>
0125

> <Smiles>
CNC(C)C(=O)NC(C(=O)N1Cc2cc([101O:1][101CH:1]=C3CCN(c4cc(C=[100CH:0][100C:0](=O)N5CCCC(n6nc(-c7ccc(Oc8ccc(F)cc8F)cc7)c(C(N)=O)c6N)C5)c(C)cn4)C3)ccc2CC1C(=O)NC1CCCc2ccccc21)C(C)(C)C

> <Shape>
0.275

> <Color>
0.103

> <Negative vol penalty>
0.000

$$$$

  -OEChem-04052302093D

 85 93  0     1  0  0  0  0  0999 V2000
  -20.4692  -24.5214   23.8908 C   0  0  0  0  0  0  0  0  0  0  0  0
  -21.6641  -24.9573   23.3272 C   0  0  0  0  0  0  0  0  0  0  0  0
  -26.0641  -10.4790   20.3161 C   0  0  0  0  0  0  0  0  0  0  0  0
  -25.5939  -10.7084   22.6747 C   0  0  0  0  0  0  0  0  0  0  0  0
  -32.5262  -21.3012   19.1510 C   0  0  0  0  0  0  0  0  0  0  0  0
  -33.4494  -22.3451   19.2107 C   0  0  0  0  0  0  0  0  0  0  0  0
  -19.3208  -25.3042   23.7792 C   0  0  0  0  0  0  0  0  0  0  0  0
  -21.7111  -26.1757   22.6508 C   0  0  0  0  0  0  0  0  0  0  0  0
  -25.7735  -28.9322   23.8930 C   0  0  0  0  0  0  0  0  0  0  0  0
  -26.0242   -9.0906   20.4431 C   0  0  0  0  0  0  0  0  0  0  0  0
  -25.5540   -9.3199   22.8018 C   0  0  0  0  0  0  0  0  0  0  0  0
  -26.9891  -28.5717   23.3133 C   0  0  0  0  0  0  0  0  0  0  0  0
  -23.3713   -6.8228   22.1530 C   0  0  0  0  0  0  0  0  0  0  0  0
  -22.3253   -6.2711   22.8927 C   0  0  0  0  0  0  0  0  0  0  0  0
  -30.7162  -22.8919   19.3261 C   0  0  0  0  0  0  0  0  0  0  0  0
  -26.7383  -30.3461   21.6984 C   0  0  0  0  0  0  0  0  0  0  0  0
  -23.9216   -5.2880   24.4167 C   0  0  0  0  0  0  0  0  0  0  0  0
  -25.8490  -11.2880   21.4319 C   0  0  0  0  0  0  0  0  0  0  0  0
  -31.1595  -21.5746   19.2086 C   0  0  0  0  0  0  0  0  0  0  0  0
  -33.0060  -23.6624   19.3282 C   0  0  0  0  0  0  0  0  0  0  0  0
  -31.6394  -23.9358   19.3858 C   0  0  0  0  0  0  0  0  0  0  0  0
  -24.8152  -13.5805   21.0038 C   0  0  0  0  0  0  0  0  0  0  0  0
  -19.3560  -26.5374   23.1094 C   0  0  0  0  0  0  0  0  0  0  0  0
  -25.0246  -29.9972   23.3722 C   0  0  0  0  0  0  0  0  0  0  0  0
  -20.5618  -26.9751   22.5289 C   0  0  0  0  0  0  0  0  0  0  0  0
  -25.5147  -30.7197   22.2749 C   0  0  0  0  0  0  0  0  0  0  0  0
  -25.7691   -8.5110   21.6859 C   0  0  0  0  0  0  0  0  0  0  0  0
  -27.4703  -29.2768   22.2140 C   0  0  0  0  0  0  0  0  0  0  0  0
  -24.6925   -6.6071   22.5452 C   0  0  0  0  0  0  0  0  0  0  0  0
  -22.6005   -5.5037   24.0245 C   0  0  0  0  0  0  0  0  0  0  0  0
  -24.9676   -5.8397   23.6770 C   0  0  0  0  0  0  0  0  0  0  0  0
  -25.8907  -12.7223   21.3014 C   0  0  0  0  0  0  0  0  0  0  0  0
  -25.3708  -14.8365   20.9933 C   0  0  0  0  0  0  0  0  0  0  0  0
  -30.1986  -20.4845   19.1449 C   0  0  0  0  0  0  0  0  0  0  0  0
  -31.1362  -25.3153   19.5098 C   0  0  0  0  0  0  0  0  0  0  0  0
  -34.0030  -24.7251   19.3869 C   0  0  0  0  0  0  0  0  0  0  0  0
  -30.4662  -19.1881   19.4100 C   0  0  0  0  0  0  0  0  0  0  0  0
  -30.3644  -25.7567   20.5127 C   0  0  0  0  0  0  0  0  0  0  0  0
  -23.4370  -13.2700   20.7588 C   0  0  0  0  0  0  0  0  0  0  0  0
  -29.8985  -27.1736   20.5404 C   0  0  0  0  0  0  0  0  0  0  0  0
  -29.3764  -18.1964   19.3106 C   0  0  0  0  0  0  0  0  0  0  0  0
  -22.1386  -30.2853   22.0716 C   0  0  0  0  0  0  0  0  0  0  0  0
  -22.8395  -33.4510   22.1662 C   0  0  0  0  0  0  0  0  0  0  0  0
  -25.2264  -35.8883   22.2611 C   0  0  0  0  0  0  0  0  0  0  0  0
  -18.0779  -27.3265   22.9737 C   0  0  0  0  0  0  0  0  0  0  0  0
  -23.7282  -30.3906   24.0256 C   0  0  0  0  0  0  0  0  0  0  0  0
  -24.7588  -31.8840   21.6905 C   0  0  0  0  0  0  0  0  0  0  0  0
  -18.3002  -28.7802   22.5645 C   0  0  0  0  0  0  0  0  0  0  0  0
  -29.9038  -16.4586   22.4939 C   0  0  0  0  0  0  0  0  0  0  0  0
  -19.2894  -28.8635   21.4063 C   0  0  0  0  0  0  0  0  0  0  0  0
  -28.8393  -15.3677   22.4128 C   0  0  0  0  0  0  0  0  0  0  0  0
  -30.4922  -16.7864   21.1224 C   0  0  0  0  0  0  0  0  0  0  0  0
  -28.3989  -16.0486   20.0206 C   0  0  0  0  0  0  0  0  0  0  0  0
  -20.6586  -28.3025   21.8088 C   0  0  1  0  0  0  0  0  0  0  0  0
  -22.8005  -31.1648   23.0943 C   0  0  1  0  0  0  0  0  0  0  0  0
  -27.7598  -15.7361   21.3827 C   0  0  1  0  0  0  0  0  0  0  0  0
  -25.4940  -38.3833   22.2930 C   0  0  0  0  0  0  0  0  0  0  0  0
  -22.1885  -33.5565   19.1871 C   0  0  0  0  0  0  0  0  0  0  0  0
  -23.3606  -35.7662   19.0803 C   0  0  0  0  0  0  0  0  0  0  0  0
  -21.3347  -35.4989   20.5109 C   0  0  0  0  0  0  0  0  0  0  0  0
  -26.5893  -35.8249   24.8874 C   0  0  0  0  0  0  0  0  0  0  0  0
  -29.0330  -27.5524   21.7236 C   0  0  0  0  0  0  0  0  0  1  0  0
  -23.5088  -34.4263   21.2282 C   0  0  1  0  0  0  0  0  0  0  0  0
  -25.3723  -37.1219   23.1337 C   0  0  2  0  0  0  0  0  0  0  0  0
  -22.6117  -34.7889   20.0112 C   0  0  0  0  0  0  0  0  0  0  0  0
  -27.0426  -13.3778   21.4678 N   0  0  0  0  0  0  0  0  0  0  0  0
  -35.2812  -24.5063   19.3353 N   0  0  0  0  0  0  0  0  0  0  0  0
  -26.6940  -14.6611   21.2740 N   0  0  0  0  0  0  0  0  0  0  0  0
  -29.4375  -17.0780   20.1399 N   0  0  0  0  0  0  0  0  0  0  0  0
  -23.4932  -32.2260   22.3606 N   0  0  0  0  0  0  0  0  0  0  0  0
  -24.8519  -16.0628   20.7713 N   0  0  0  0  0  0  0  0  0  0  0  0
  -23.0354  -11.9282   20.8085 N   0  0  0  0  0  0  0  0  0  0  0  0
  -21.3820  -29.2637   22.6133 N   0  0  0  0  0  0  0  0  0  0  0  0
  -23.9025  -35.5711   22.0424 N   0  0  0  0  0  0  0  0  0  0  0  0
  -26.5862  -37.0095   23.9908 N   0  3  0  0  0  0  0  0  0  0  0  0
  -22.5902  -14.1547   20.4873 O   0  0  0  0  0  0  0  0  0  0  0  0
  -30.1990  -27.9764   19.6610 O   0  0  0  0  0  0  0  0  0  0  0  0
  -28.4797  -18.4169   18.4945 O   0  0  0  0  0  0  0  0  0  0  0  0
  -22.3011  -30.5171   20.8793 O   0  0  0  0  0  0  0  0  0  0  0  0
  -21.7795  -33.7674   22.7120 O   0  0  0  0  0  0  0  0  0  0  0  0
  -26.1905  -35.2704   21.8147 O   0  0  0  0  0  0  0  0  0  0  0  0
  -25.7298   -7.1562   21.8102 O   0  0  0  0  0  0  0  0  0  0  0  0
  -28.6562  -28.9266   21.6458 O   0  0  0  0  0  0  0  0  0  1  0  0
  -21.5958   -4.9752   24.7356 F   0  0  0  0  0  0  0  0  0  0  0  0
  -26.2347   -5.6300   24.0593 F   0  0  0  0  0  0  0  0  0  0  0  0
  1  2  1  0  0  0  0
  1  7  2  0  0  0  0
  2  8  2  0  0  0  0
  3 10  2  0  0  0  0
  3 18  1  0  0  0  0
  4 11  1  0  0  0  0
  4 18  2  0  0  0  0
  5  6  2  0  0  0  0
  5 19  1  0  0  0  0
  6 20  1  0  0  0  0
  7 23  1  0  0  0  0
  8 25  1  0  0  0  0
  9 12  2  0  0  0  0
  9 24  1  0  0  0  0
 10 27  1  0  0  0  0
 11 27  2  0  0  0  0
 12 28  1  0  0  0  0
 13 14  2  0  0  0  0
 13 29  1  0  0  0  0
 14 30  1  0  0  0  0
 15 19  2  0  0  0  0
 15 21  1  0  0  0  0
 16 26  1  0  0  0  0
 16 28  2  0  0  0  0
 17 30  2  0  0  0  0
 17 31  1  0  0  0  0
 18 32  1  0  0  0  0
 19 34  1  0  0  0  0
 20 21  2  0  0  0  0
 20 36  1  0  0  0  0
 21 35  1  0  0  0  0
 22 32  1  0  0  0  0
 22 33  2  0  0  0  0
 22 39  1  0  0  0  0
 23 25  2  0  0  0  0
 23 45  1  0  0  0  0
 24 26  2  0  0  0  0
 24 46  1  0  0  0  0
 25 54  1  0  0  0  0
 26 47  1  0  0  0  0
 27 82  1  0  0  0  0
 28 83  1  0  0  0  0
 29 31  2  0  0  0  0
 29 82  1  0  0  0  0
 30 84  1  0  0  0  0
 31 85  1  0  0  0  0
 32 66  2  0  0  0  0
 33 68  1  0  0  0  0
 33 71  1  0  0  0  0
 34 37  2  0  0  0  0
 35 38  2  0  0  0  0
 36 67  2  0  0  0  0
 37 41  1  0  0  0  0
 38 40  1  0  0  0  0
 39 72  1  0  0  0  0
 39 76  2  0  0  0  0
 40 62  1  0  0  0  0
 40 77  2  0  0  0  0
 41 69  1  0  0  0  0
 41 78  2  0  0  0  0
 42 55  1  0  0  0  0
 42 73  1  0  0  0  0
 42 79  2  0  0  0  0
 43 63  1  0  0  0  0
 43 70  1  0  0  0  0
 43 80  2  0  0  0  0
 44 64  1  0  0  0  0
 44 74  1  0  0  0  0
 44 81  2  0  0  0  0
 45 48  1  0  0  0  0
 46 55  1  0  0  0  0
 47 70  1  0  0  0  0
 48 50  1  0  0  0  0
 49 51  1  0  0  0  0
 49 52  1  0  0  0  0
 50 54  1  0  0  0  0
 51 56  1  0  0  0  0
 52 69  1  0  0  0  0
 53 56  1  0  0  0  0
 53 69  1  0  0  0  0
 54 73  1  0  0  0  0
 55 70  1  0  0  0  0
 56 68  1  0  0  0  0
 57 64  1  0  0  0  0
 58 65  1  0  0  0  0
 59 65  1  0  0  0  0
 60 65  1  0  0  0  0
 61 75  1  0  0  0  0
 62 83  1  0  0  0  0
 63 65  1  0  0  0  0
 63 74  1  0  0  0  0
 64 75  1  0  0  0  0
 66 68  1  0  0  0  0
M  CHG  1  75   1
M  ISO  4  37 100  41 100  62 101  83 101
M  END
> <Batch ID>
0125

> <Smiles>
CNC(C)C(=O)NC(C(=O)N1Cc2cc([101O:1][101CH2:1]C(=O)C=Cc3cc(C=[100CH:0][100C:0](=O)N4CCCC(n5nc(-c6ccc(Oc7ccc(F)cc7F)cc6)c(C(N)=O)c5N)C4)ccc3C=N)ccc2CC1C(=O)NC1CCCc2ccccc21)C(C)(C)C

> <Shape>
0.301

> <Color>
0.114

> <Negative vol penalty>
0.000

$$$$

  -OEChem-04052302093D

 84 92  0     1  0  0  0  0  0999 V2000
  -26.0009  -29.0079   19.0559 C   0  0  0  0  0  0  0  0  0  0  0  0
  -26.0794  -27.6308   18.8743 C   0  0  0  0  0  0  0  0  0  0  0  0
  -30.5897  -21.3165   19.6606 C   0  0  0  0  0  0  0  0  0  0  0  0
  -28.2157  -20.9521   19.9225 C   0  0  0  0  0  0  0  0  0  0  0  0
  -26.2409  -29.5587   20.3141 C   0  0  0  0  0  0  0  0  0  0  0  0
  -26.3991  -26.8038   19.9505 C   0  0  0  0  0  0  0  0  0  0  0  0
  -24.2810  -21.1560   21.0097 C   0  0  0  0  0  0  0  0  0  0  0  0
  -25.5860  -10.5978   20.9722 C   0  0  0  0  0  0  0  0  0  0  0  0
  -26.5919  -11.3564   20.3736 C   0  0  0  0  0  0  0  0  0  0  0  0
  -30.3321  -22.5108   18.9876 C   0  0  0  0  0  0  0  0  0  0  0  0
  -27.9581  -22.1464   19.2496 C   0  0  0  0  0  0  0  0  0  0  0  0
  -24.8184  -19.8923   20.7691 C   0  0  0  0  0  0  0  0  0  0  0  0
  -29.4768  -25.6839   19.7832 C   0  0  0  0  0  0  0  0  0  0  0  0
  -30.2312  -26.8027   20.1363 C   0  0  0  0  0  0  0  0  0  0  0  0
  -25.6359  -19.8147   23.0373 C   0  0  0  0  0  0  0  0  0  0  0  0
  -31.0617  -26.9571   17.8728 C   0  0  0  0  0  0  0  0  0  0  0  0
  -29.5315  -20.5371   20.1280 C   0  0  0  0  0  0  0  0  0  0  0  0
  -29.9763  -19.1290   22.2082 C   0  0  0  0  0  0  0  0  0  0  0  0
  -26.5542  -28.7372   21.4084 C   0  0  0  0  0  0  0  0  0  0  0  0
  -24.4267  -21.7643   22.2648 C   0  0  0  0  0  0  0  0  0  0  0  0
  -26.6449  -27.3443   21.2242 C   0  0  0  0  0  0  0  0  0  0  0  0
  -25.0972  -21.0851   23.2921 C   0  0  0  0  0  0  0  0  0  0  0  0
  -24.3515  -11.1797   21.2604 C   0  0  0  0  0  0  0  0  0  0  0  0
  -24.1229  -12.5203   20.9500 C   0  0  0  0  0  0  0  0  0  0  0  0
  -25.1288  -13.2789   20.3514 C   0  0  0  0  0  0  0  0  0  0  0  0
  -26.3633  -12.6969   20.0632 C   0  0  0  0  0  0  0  0  0  0  0  0
  -29.0164  -22.9258   18.7821 C   0  0  0  0  0  0  0  0  0  0  0  0
  -25.4985  -19.2226   21.7821 C   0  0  0  0  0  0  0  0  0  0  0  0
  -29.5149  -25.2016   18.4749 C   0  0  0  0  0  0  0  0  0  0  0  0
  -31.0237  -27.4393   19.1812 C   0  0  0  0  0  0  0  0  0  0  0  0
  -30.3073  -25.8382   17.5197 C   0  0  0  0  0  0  0  0  0  0  0  0
  -29.7969  -19.3030   20.8228 C   0  0  0  0  0  0  0  0  0  0  0  0
  -30.1988  -17.7821   22.3591 C   0  0  0  0  0  0  0  0  0  0  0  0
  -20.4185  -12.6845   20.5941 C   0  0  0  0  0  0  0  0  0  0  0  0
  -21.7203  -12.7368   20.2906 C   0  0  0  0  0  0  0  0  0  0  0  0
  -29.9444  -20.0982   23.2643 C   0  0  0  0  0  0  0  0  0  0  0  0
  -25.8213  -24.4172   23.3234 C   0  0  0  0  0  0  0  0  0  0  0  0
  -24.4305  -23.5643   26.1271 C   0  0  0  0  0  0  0  0  0  0  0  0
  -23.1374  -21.0849   28.0834 C   0  0  0  0  0  0  0  0  0  0  0  0
  -28.6753  -13.0037   19.1109 C   0  0  0  0  0  0  0  0  0  0  0  0
  -26.8519  -29.3824   22.7387 C   0  0  0  0  0  0  0  0  0  0  0  0
  -23.8181  -23.1165   22.5163 C   0  0  0  0  0  0  0  0  0  0  0  0
  -25.2634  -21.6859   24.6632 C   0  0  0  0  0  0  0  0  0  0  0  0
  -26.8169  -28.4053   23.9111 C   0  0  0  0  0  0  0  0  0  0  0  0
  -31.9708  -13.9947   20.0245 C   0  0  0  0  0  0  0  0  0  0  0  0
  -27.5908  -27.1356   23.5710 C   0  0  0  0  0  0  0  0  0  0  0  0
  -31.8026  -15.4508   20.4648 C   0  0  0  0  0  0  0  0  0  0  0  0
  -31.0604  -13.6494   18.8474 C   0  0  0  0  0  0  0  0  0  0  0  0
  -29.4719  -15.4201   19.4880 C   0  0  0  0  0  0  0  0  0  0  0  0
  -26.9646  -26.4121   22.3727 C   0  0  1  0  0  0  0  0  0  0  0  0
  -24.4718  -23.8594   23.6775 C   0  0  1  0  0  0  0  0  0  0  0  0
  -30.3213  -15.7970   20.7128 C   0  0  2  0  0  0  0  0  0  0  0  0
  -23.2917  -10.3450   21.9015 C   0  0  0  0  0  0  0  0  0  0  0  0
  -22.1115  -20.6881   30.3390 C   0  0  0  0  0  0  0  0  0  0  0  0
  -27.1874  -23.7807   27.4164 C   0  0  0  0  0  0  0  0  0  0  0  0
  -26.3001  -22.4860   29.3669 C   0  0  0  0  0  0  0  0  0  0  0  0
  -25.3161  -24.7055   28.7939 C   0  0  0  0  0  0  0  0  0  0  0  0
  -20.6091  -20.1125   26.8911 C   0  0  0  0  0  0  0  0  0  0  0  0
  -22.7978  -13.1416   21.2602 C   0  0  0  0  0  0  0  0  0  0  0  0
  -24.8795  -14.7278   20.0166 C   0  0  0  0  0  0  0  0  0  0  0  0
  -25.5419  -15.7072   20.9881 C   0  0  0  0  0  0  0  0  0  0  0  0
  -25.3561  -17.1677   20.5934 C   0  0  0  0  0  0  0  0  0  1  0  0
  -24.8375  -22.7166   27.3081 C   0  0  1  0  0  0  0  0  0  0  0  0
  -21.8444  -20.9964   28.8739 C   0  0  2  0  0  0  0  0  0  0  0  0
  -25.9090  -23.4114   28.1950 C   0  0  0  0  0  0  0  0  0  0  0  0
  -29.8970  -18.1582   20.1421 N   0  0  0  0  0  0  0  0  0  0  0  0
  -30.1418  -17.2520   21.1038 N   0  0  0  0  0  0  0  0  0  0  0  0
  -24.6560  -23.0128   24.8580 N   0  0  0  0  0  0  0  0  0  0  0  0
  -29.6726  -14.0008   19.1561 N   0  0  0  0  0  0  0  0  0  0  0  0
  -30.4359  -17.0114   23.4418 N   0  0  0  0  0  0  0  0  0  0  0  0
  -29.7030  -21.4387   22.9339 N   0  0  0  0  0  0  0  0  0  0  0  0
  -27.3993  -13.4485   19.4552 N   0  0  0  0  0  0  0  0  0  0  0  0
  -25.7804  -25.6879   22.7820 N   0  0  0  0  0  0  0  0  0  0  0  0
  -23.6054  -22.3799   28.0129 N   0  0  0  0  0  0  0  0  0  0  0  0
  -20.9707  -19.9239   28.3197 N   0  3  0  0  0  0  0  0  0  0  0  0
  -30.1411  -19.7873   24.4635 O   0  0  0  0  0  0  0  0  0  0  0  0
  -26.8254  -23.7452   23.5278 O   0  0  0  0  0  0  0  0  0  0  0  0
  -23.9242  -24.6719   26.3236 O   0  0  0  0  0  0  0  0  0  0  0  0
  -23.6800  -20.1027   27.5819 O   0  0  0  0  0  0  0  0  0  0  0  0
  -28.9390  -11.8350   18.8166 O   0  0  0  0  0  0  0  0  0  0  0  0
  -28.7646  -24.0913   18.1257 O   0  0  0  0  0  0  0  0  0  0  0  0
  -26.0245  -17.9893   21.5497 O   0  0  0  0  0  0  0  0  0  1  0  0
  -31.7469  -28.5146   19.5200 F   0  0  0  0  0  0  0  0  0  0  0  0
  -30.3470  -25.3803   16.2609 F   0  0  0  0  0  0  0  0  0  0  0  0
  1  2  1  0  0  0  0
  1  5  2  0  0  0  0
  2  6  2  0  0  0  0
  3 10  2  0  0  0  0
  3 17  1  0  0  0  0
  4 11  1  0  0  0  0
  4 17  2  0  0  0  0
  5 19  1  0  0  0  0
  6 21  1  0  0  0  0
  7 12  2  0  0  0  0
  7 20  1  0  0  0  0
  8  9  1  0  0  0  0
  8 23  2  0  0  0  0
  9 26  2  0  0  0  0
 10 27  1  0  0  0  0
 11 27  2  0  0  0  0
 12 28  1  0  0  0  0
 13 14  2  0  0  0  0
 13 29  1  0  0  0  0
 14 30  1  0  0  0  0
 15 22  1  0  0  0  0
 15 28  2  0  0  0  0
 16 30  2  0  0  0  0
 16 31  1  0  0  0  0
 17 32  1  0  0  0  0
 18 32  1  0  0  0  0
 18 33  2  0  0  0  0
 18 36  1  0  0  0  0
 19 21  2  0  0  0  0
 19 41  1  0  0  0  0
 20 22  2  0  0  0  0
 20 42  1  0  0  0  0
 21 50  1  0  0  0  0
 22 43  1  0  0  0  0
 23 24  1  0  0  0  0
 23 53  1  0  0  0  0
 24 25  2  0  0  0  0
 24 59  1  0  0  0  0
 25 26  1  0  0  0  0
 25 60  1  0  0  0  0
 26 72  1  0  0  0  0
 27 81  1  0  0  0  0
 28 82  1  0  0  0  0
 29 31  2  0  0  0  0
 29 81  1  0  0  0  0
 30 83  1  0  0  0  0
 31 84  1  0  0  0  0
 32 66  2  0  0  0  0
 33 67  1  0  0  0  0
 33 70  1  0  0  0  0
 34 35  2  0  0  0  0
 35 59  1  0  0  0  0
 36 71  1  0  0  0  0
 36 76  2  0  0  0  0
 37 51  1  0  0  0  0
 37 73  1  0  0  0  0
 37 77  2  0  0  0  0
 38 63  1  0  0  0  0
 38 68  1  0  0  0  0
 38 78  2  0  0  0  0
 39 64  1  0  0  0  0
 39 74  1  0  0  0  0
 39 79  2  0  0  0  0
 40 69  1  0  0  0  0
 40 72  1  0  0  0  0
 40 80  2  0  0  0  0
 41 44  1  0  0  0  0
 42 51  1  0  0  0  0
 43 68  1  0  0  0  0
 44 46  1  0  0  0  0
 45 47  1  0  0  0  0
 45 48  1  0  0  0  0
 46 50  1  0  0  0  0
 47 52  1  0  0  0  0
 48 69  1  0  0  0  0
 49 52  1  0  0  0  0
 49 69  1  0  0  0  0
 50 73  1  0  0  0  0
 51 68  1  0  0  0  0
 52 67  1  0  0  0  0
 54 64  1  0  0  0  0
 55 65  1  0  0  0  0
 56 65  1  0  0  0  0
 57 65  1  0  0  0  0
 58 75  1  0  0  0  0
 60 61  1  0  0  0  0
 61 62  1  0  0  0  0
 62 82  1  0  0  0  0
 63 65  1  0  0  0  0
 63 74  1  0  0  0  0
 64 75  1  0  0  0  0
 66 67  1  0  0  0  0
M  CHG  1  75   1
M  ISO  4  40 100  62 101  72 100  82 101
M  END
> <Batch ID>
0125

> <Smiles>
C=CCc1c(C)ccc([100NH:0][100C:0](=O)N2CCCC(n3nc(-c4ccc(Oc5ccc(F)cc5F)cc4)c(C(N)=O)c3N)C2)c1CC[101CH2:1][101O:1]c1ccc2c(c1)CN(C(=O)C(NC(=O)C(C)NC)C(C)(C)C)C(C(=O)NC1CCCc3ccccc31)C2

> <Shape>
0.230

> <Color>
0.044

> <Negative vol penalty>
0.000

$$$$

  -OEChem-04052302093D

 85 94  0     1  0  0  0  0  0999 V2000
  -17.9091  -28.4740   22.0461 C   0  0  0  0  0  0  0  0  0  0  0  0
  -19.0174  -27.7484   21.6210 C   0  0  0  0  0  0  0  0  0  0  0  0
  -23.1478   -9.7758   21.4142 C   0  0  0  0  0  0  0  0  0  0  0  0
  -23.8618  -10.6688   23.5426 C   0  0  0  0  0  0  0  0  0  0  0  0
  -17.9887  -29.2547   23.1985 C   0  0  0  0  0  0  0  0  0  0  0  0
  -20.2063  -27.8040   22.3476 C   0  0  0  0  0  0  0  0  0  0  0  0
  -24.2415  -23.2689   23.1571 C   0  0  0  0  0  0  0  0  0  0  0  0
  -22.4354   -8.7741   22.0735 C   0  0  0  0  0  0  0  0  0  0  0  0
  -23.1494   -9.6670   24.2019 C   0  0  0  0  0  0  0  0  0  0  0  0
  -25.4467  -22.9621   22.5270 C   0  0  0  0  0  0  0  0  0  0  0  0
  -23.1050   -5.8292   23.5913 C   0  0  0  0  0  0  0  0  0  0  0  0
  -23.2224   -4.5261   23.1077 C   0  0  0  0  0  0  0  0  0  0  0  0
  -31.8640  -17.3259   21.3636 C   0  0  0  0  0  0  0  0  0  0  0  0
  -29.6467  -18.2515   21.5765 C   0  0  0  0  0  0  0  0  0  0  0  0
  -26.6475  -24.0994   24.2830 C   0  0  0  0  0  0  0  0  0  0  0  0
  -20.8412   -4.4616   22.7039 C   0  0  0  0  0  0  0  0  0  0  0  0
  -23.8610  -10.7232   22.1488 C   0  0  0  0  0  0  0  0  0  0  0  0
  -32.4027  -18.5042   21.8792 C   0  0  0  0  0  0  0  0  0  0  0  0
  -24.1263  -13.0302   21.0928 C   0  0  0  0  0  0  0  0  0  0  0  0
  -19.1762  -29.3123   23.9449 C   0  0  0  0  0  0  0  0  0  0  0  0
  -24.2297  -24.0039   24.3513 C   0  0  0  0  0  0  0  0  0  0  0  0
  -20.3022  -28.5873   23.5103 C   0  0  0  0  0  0  0  0  0  0  0  0
  -30.1769  -19.4464   22.0868 C   0  0  0  0  0  0  0  0  0  0  0  0
  -25.4410  -24.4120   24.9277 C   0  0  0  0  0  0  0  0  0  0  0  0
  -31.5678  -19.5671   22.2567 C   0  0  0  0  0  0  0  0  0  0  0  0
  -30.4863  -17.1987   21.2146 C   0  0  0  0  0  0  0  0  0  0  0  0
  -22.4362   -8.7197   23.4673 C   0  0  0  0  0  0  0  0  0  0  0  0
  -26.6498  -23.3799   23.0884 C   0  0  0  0  0  0  0  0  0  0  0  0
  -21.8557   -6.4485   23.6313 C   0  0  0  0  0  0  0  0  0  0  0  0
  -22.0905   -3.8423   22.6640 C   0  0  0  0  0  0  0  0  0  0  0  0
  -20.7239   -5.7647   23.1875 C   0  0  0  0  0  0  0  0  0  0  0  0
  -24.5976  -11.7579   21.4683 C   0  0  0  0  0  0  0  0  0  0  0  0
  -25.2015  -13.6281   20.4822 C   0  0  0  0  0  0  0  0  0  0  0  0
  -33.8565  -18.5748   21.9918 C   0  0  0  0  0  0  0  0  0  0  0  0
  -34.6284  -17.7603   22.7408 C   0  0  0  0  0  0  0  0  0  0  0  0
  -22.8324  -13.6189   21.2794 C   0  0  0  0  0  0  0  0  0  0  0  0
  -23.0404  -26.8131   25.2445 C   0  0  0  0  0  0  0  0  0  0  0  0
  -24.0486  -25.8675   28.1791 C   0  0  0  0  0  0  0  0  0  0  0  0
  -26.1554  -23.9242   30.0316 C   0  0  0  0  0  0  0  0  0  0  0  0
  -30.6280  -14.8604   20.2879 C   0  0  0  0  0  0  0  0  0  0  0  0
  -19.2287  -30.2074   25.1576 C   0  0  0  0  0  0  0  0  0  0  0  0
  -22.9227  -24.3036   25.0327 C   0  0  0  0  0  0  0  0  0  0  0  0
  -29.2323  -20.5491   22.4979 C   0  0  0  0  0  0  0  0  0  0  0  0
  -32.1908  -20.8368   22.7784 C   0  0  0  0  0  0  0  0  0  0  0  0
  -25.4836  -25.1861   26.2191 C   0  0  0  0  0  0  0  0  0  0  0  0
  -20.4112  -29.9169   26.0784 C   0  0  0  0  0  0  0  0  0  0  0  0
  -31.1964  -21.7485   23.4961 C   0  0  0  0  0  0  0  0  0  0  0  0
  -29.6361  -11.6966   18.9904 C   0  0  0  0  0  0  0  0  0  0  0  0
  -21.6961  -29.7752   25.2686 C   0  0  0  0  0  0  0  0  0  0  0  0
  -28.1981  -11.5352   19.4885 C   0  0  0  0  0  0  0  0  0  0  0  0
  -30.5199  -12.3919   20.0245 C   0  0  0  0  0  0  0  0  0  0  0  0
  -28.5645  -13.5113   21.0208 C   0  0  0  0  0  0  0  0  0  0  0  0
  -21.6020  -28.6024   24.2852 C   0  0  1  0  0  0  0  0  0  0  0  0
  -23.0009  -25.5007   25.9752 C   0  0  1  0  0  0  0  0  0  0  0  0
  -29.9209  -21.9120   22.6646 C   0  0  2  0  0  0  0  0  0  0  0  0
  -27.6209  -12.8743   19.9875 C   0  0  2  0  0  0  0  0  0  0  0  0
  -36.1154  -17.8756   22.8332 C   0  0  0  0  0  0  0  0  0  0  0  0
  -26.7709  -23.3958   32.4063 C   0  0  0  0  0  0  0  0  0  0  0  0
  -25.5659  -28.5078   28.3708 C   0  0  0  0  0  0  0  0  0  0  0  0
  -26.8813  -27.5342   30.2654 C   0  0  0  0  0  0  0  0  0  0  0  0
  -24.4115  -27.8127   30.4776 C   0  0  0  0  0  0  0  0  0  0  0  0
  -25.3976  -21.0806   29.7175 C   0  0  0  0  0  0  0  0  0  0  0  0
  -28.9723  -22.9189   23.3112 C   0  0  0  0  0  0  0  0  0  1  0  0
  -25.3298  -26.0065   28.9655 C   0  0  1  0  0  0  0  0  0  0  0  0
  -25.9022  -23.0122   31.2185 C   0  0  2  0  0  0  0  0  0  0  0  0
  -25.5465  -27.4524   29.4944 C   0  0  0  0  0  0  0  0  0  0  0  0
  -25.8728  -11.5583   21.1248 N   0  0  0  0  0  0  0  0  0  0  0  0
  -26.2120  -12.7131   20.5270 N   0  0  0  0  0  0  0  0  0  0  0  0
  -24.1790  -25.4601   26.8439 N   0  0  0  0  0  0  0  0  0  0  0  0
  -29.9119  -13.6553   20.4476 N   0  0  0  0  0  0  0  0  0  0  0  0
  -25.3718  -14.8420   19.9166 N   0  0  0  0  0  0  0  0  0  0  0  0
  -21.8429  -12.8662   21.9264 N   0  0  0  0  0  0  0  0  0  0  0  0
  -29.9362  -16.0006   20.6955 N   0  0  0  0  0  0  0  0  0  0  0  0
  -21.7937  -27.3459   24.9773 N   0  0  0  0  0  0  0  0  0  0  0  0
  -25.2800  -24.9893   30.0100 N   0  0  0  0  0  0  0  0  0  0  0  0
  -26.1987  -21.5972   30.8569 N   0  3  0  0  0  0  0  0  0  0  0  0
  -22.5569  -14.7720   20.8696 O   0  0  0  0  0  0  0  0  0  0  0  0
  -24.1218  -27.3065   24.9466 O   0  0  0  0  0  0  0  0  0  0  0  0
  -22.9714  -26.1046   28.7313 O   0  0  0  0  0  0  0  0  0  0  0  0
  -27.0435  -23.7148   29.2082 O   0  0  0  0  0  0  0  0  0  0  0  0
  -31.7603  -14.8826   19.7986 O   0  0  0  0  0  0  0  0  0  0  0  0
  -21.7410   -7.7424   24.1109 O   0  0  0  0  0  0  0  0  0  0  0  0
  -27.8276  -23.0824   22.4750 O   0  0  0  0  0  0  0  0  0  1  0  0
  -22.2035   -2.5916   22.1982 F   0  0  0  0  0  0  0  0  0  0  0  0
  -19.5212   -6.3548   23.2224 F   0  0  0  0  0  0  0  0  0  0  0  0
  1  2  1  0  0  0  0
  1  5  2  0  0  0  0
  2  6  2  0  0  0  0
  3  8  2  0  0  0  0
  3 17  1  0  0  0  0
  4  9  1  0  0  0  0
  4 17  2  0  0  0  0
  5 20  1  0  0  0  0
  6 22  1  0  0  0  0
  7 10  2  0  0  0  0
  7 21  1  0  0  0  0
  8 27  1  0  0  0  0
  9 27  2  0  0  0  0
 10 28  1  0  0  0  0
 11 12  2  0  0  0  0
 11 29  1  0  0  0  0
 12 30  1  0  0  0  0
 13 18  1  0  0  0  0
 13 26  2  0  0  0  0
 14 23  2  0  0  0  0
 14 26  1  0  0  0  0
 15 24  1  0  0  0  0
 15 28  2  0  0  0  0
 16 30  2  0  0  0  0
 16 31  1  0  0  0  0
 17 32  1  0  0  0  0
 18 25  2  0  0  0  0
 18 34  1  0  0  0  0
 19 32  1  0  0  0  0
 19 33  2  0  0  0  0
 19 36  1  0  0  0  0
 20 22  2  0  0  0  0
 20 41  1  0  0  0  0
 21 24  2  0  0  0  0
 21 42  1  0  0  0  0
 22 53  1  0  0  0  0
 23 25  1  0  0  0  0
 23 43  1  0  0  0  0
 24 45  1  0  0  0  0
 25 44  1  0  0  0  0
 26 73  1  0  0  0  0
 27 82  1  0  0  0  0
 28 83  1  0  0  0  0
 29 31  2  0  0  0  0
 29 82  1  0  0  0  0
 30 84  1  0  0  0  0
 31 85  1  0  0  0  0
 32 67  2  0  0  0  0
 33 68  1  0  0  0  0
 33 71  1  0  0  0  0
 34 35  2  0  0  0  0
 35 57  1  0  0  0  0
 36 72  1  0  0  0  0
 36 77  2  0  0  0  0
 37 54  1  0  0  0  0
 37 74  1  0  0  0  0
 37 78  2  0  0  0  0
 38 64  1  0  0  0  0
 38 69  1  0  0  0  0
 38 79  2  0  0  0  0
 39 65  1  0  0  0  0
 39 75  1  0  0  0  0
 39 80  2  0  0  0  0
 40 70  1  0  0  0  0
 40 73  1  0  0  0  0
 40 81  2  0  0  0  0
 41 46  1  0  0  0  0
 42 54  1  0  0  0  0
 43 55  1  0  0  0  0
 44 47  1  0  0  0  0
 45 69  1  0  0  0  0
 46 49  1  0  0  0  0
 47 55  1  0  0  0  0
 48 50  1  0  0  0  0
 48 51  1  0  0  0  0
 49 53  1  0  0  0  0
 50 56  1  0  0  0  0
 51 70  1  0  0  0  0
 52 56  1  0  0  0  0
 52 70  1  0  0  0  0
 53 74  1  0  0  0  0
 54 69  1  0  0  0  0
 55 63  1  0  0  0  0
 56 68  1  0  0  0  0
 58 65  1  0  0  0  0
 59 66  1  0  0  0  0
 60 66  1  0  0  0  0
 61 66  1  0  0  0  0
 62 76  1  0  0  0  0
 63 83  1  0  0  0  0
 64 66  1  0  0  0  0
 64 75  1  0  0  0  0
 65 76  1  0  0  0  0
 67 68  1  0  0  0  0
M  CHG  1  76   1
M  ISO  4  40 100  63 101  73 100  83 101
M  END
> <Batch ID>
0125

> <Smiles>
CC=Cc1cc([100NH:0][100C:0](=O)N2CCCC(n3nc(-c4ccc(Oc5ccc(F)cc5F)cc4)c(C(N)=O)c3N)C2)cc2c1CCC([101CH2:1][101O:1]c1ccc3c(c1)CN(C(=O)C(NC(=O)C(C)NC)C(C)(C)C)C(C(=O)NC1CCCc4ccccc41)C3)C2

> <Shape>
0.211

> <Color>
0.163

> <Negative vol penalty>
0.000

$$$$

  -OEChem-04052302093D

 84 92  0     1  0  0  0  0  0999 V2000
  -32.8270  -25.2571   15.5943 C   0  0  0  0  0  0  0  0  0  0  0  0
  -33.4268  -25.8655   14.7500 C   0  0  0  0  0  0  0  0  0  0  0  0
  -17.7175  -25.2164   20.9042 C   0  0  0  0  0  0  0  0  0  0  0  0
  -18.8629  -25.5525   20.1898 C   0  0  0  0  0  0  0  0  0  0  0  0
  -32.3566  -23.1645   16.7457 C   0  0  0  0  0  0  0  0  0  0  0  0
  -25.7292  -14.4055   21.4998 C   0  0  0  0  0  0  0  0  0  0  0  0
  -25.4000  -15.1402   19.2219 C   0  0  0  0  0  0  0  0  0  0  0  0
  -17.5048  -25.7557   22.1721 C   0  0  0  0  0  0  0  0  0  0  0  0
  -19.7958  -26.4292   20.7426 C   0  0  0  0  0  0  0  0  0  0  0  0
  -24.5622  -24.8297   20.1355 C   0  0  0  0  0  0  0  0  0  0  0  0
  -31.6739  -22.4346   17.7187 C   0  0  0  0  0  0  0  0  0  0  0  0
  -24.7100  -13.4661   21.3442 C   0  0  0  0  0  0  0  0  0  0  0  0
  -24.3808  -14.2007   19.0662 C   0  0  0  0  0  0  0  0  0  0  0  0
  -25.1414  -25.0158   18.8811 C   0  0  0  0  0  0  0  0  0  0  0  0
  -24.3287  -10.4140   19.9397 C   0  0  0  0  0  0  0  0  0  0  0  0
  -24.5591   -9.1229   20.4147 C   0  0  0  0  0  0  0  0  0  0  0  0
  -26.2931  -26.9671   19.7090 C   0  0  0  0  0  0  0  0  0  0  0  0
  -30.5043  -24.4360   18.3994 C   0  0  0  0  0  0  0  0  0  0  0  0
  -22.6704   -9.3347   21.9064 C   0  0  0  0  0  0  0  0  0  0  0  0
  -32.1132  -24.5302   16.5995 C   0  0  0  0  0  0  0  0  0  0  0  0
  -26.0742  -15.2426   20.4387 C   0  0  0  0  0  0  0  0  0  0  0  0
  -28.4984  -16.0308   20.3417 C   0  0  0  0  0  0  0  0  0  0  0  0
  -18.4403  -26.6318   22.7448 C   0  0  0  0  0  0  0  0  0  0  0  0
  -24.8360  -25.7187   21.1849 C   0  0  0  0  0  0  0  0  0  0  0  0
  -19.5948  -26.9818   22.0189 C   0  0  0  0  0  0  0  0  0  0  0  0
  -25.7181  -26.7886   20.9765 C   0  0  0  0  0  0  0  0  0  0  0  0
  -31.1870  -25.1659   17.4264 C   0  0  0  0  0  0  0  0  0  0  0  0
  -30.7478  -23.0703   18.5456 C   0  0  0  0  0  0  0  0  0  0  0  0
  -24.0358  -13.3636   20.1273 C   0  0  0  0  0  0  0  0  0  0  0  0
  -26.0047  -26.0863   18.6668 C   0  0  0  0  0  0  0  0  0  0  0  0
  -23.2692  -11.1655   20.4481 C   0  0  0  0  0  0  0  0  0  0  0  0
  -23.7299   -8.5832   21.3980 C   0  0  0  0  0  0  0  0  0  0  0  0
  -22.4400  -10.6258   21.4314 C   0  0  0  0  0  0  0  0  0  0  0  0
  -27.1265  -16.2136   20.5991 C   0  0  0  0  0  0  0  0  0  0  0  0
  -29.0697  -17.2415   20.6487 C   0  0  0  0  0  0  0  0  0  0  0  0
  -29.1941  -14.8703   19.8674 C   0  0  0  0  0  0  0  0  0  0  0  0
  -23.0956  -27.7046   22.9543 C   0  0  0  0  0  0  0  0  0  0  0  0
  -25.8818  -28.0843   24.5713 C   0  0  0  0  0  0  0  0  0  0  0  0
  -29.2902  -27.9123   24.5508 C   0  0  0  0  0  0  0  0  0  0  0  0
  -29.1035  -22.8053   20.4357 C   0  0  0  0  0  0  0  0  0  0  0  0
  -18.1439  -27.2265   24.0987 C   0  0  0  0  0  0  0  0  0  0  0  0
  -24.2242  -25.4887   22.5396 C   0  0  0  0  0  0  0  0  0  0  0  0
  -26.0606  -27.7596   22.0757 C   0  0  0  0  0  0  0  0  0  0  0  0
  -19.3635  -27.8547   24.7683 C   0  0  0  0  0  0  0  0  0  0  0  0
  -27.1437  -21.2924   22.9944 C   0  0  0  0  0  0  0  0  0  0  0  0
  -20.1219  -28.7338   23.7790 C   0  0  0  0  0  0  0  0  0  0  0  0
  -27.0774  -19.8212   22.5782 C   0  0  0  0  0  0  0  0  0  0  0  0
  -27.0996  -22.2262   21.7862 C   0  0  0  0  0  0  0  0  0  0  0  0
  -28.0293  -20.4708   20.3290 C   0  0  0  0  0  0  0  0  0  0  0  0
  -20.6421  -27.9099   22.5949 C   0  0  1  0  0  0  0  0  0  0  0  0
  -24.1711  -26.7517   23.3935 C   0  0  1  0  0  0  0  0  0  0  0  0
  -28.1361  -19.4900   21.5081 C   0  0  2  0  0  0  0  0  0  0  0  0
  -34.1573  -26.6051   13.7219 C   0  0  0  0  0  0  0  0  0  0  0  0
  -31.2920  -28.3205   26.0080 C   0  0  0  0  0  0  0  0  0  0  0  0
  -25.5676  -31.0908   24.1566 C   0  0  0  0  0  0  0  0  0  0  0  0
  -27.9827  -31.3562   24.7609 C   0  0  0  0  0  0  0  0  0  0  0  0
  -26.3759  -30.4301   26.4292 C   0  0  0  0  0  0  0  0  0  0  0  0
  -30.1284  -25.0784   24.3921 C   0  0  0  0  0  0  0  0  0  0  0  0
  -30.8985  -26.6404   17.2977 C   0  0  0  0  0  0  0  0  0  0  0  0
  -30.0113  -26.9955   16.0994 C   0  0  0  0  0  0  0  0  0  0  0  0
  -28.6129  -26.3826   16.1874 C   0  0  0  0  0  0  0  0  0  0  0  0
  -27.8571  -26.8878   17.4090 C   0  0  0  0  0  0  0  0  0  1  0  0
  -27.0679  -29.0109   24.4546 C   0  0  1  0  0  0  0  0  0  0  0  0
  -30.2736  -27.2972   25.5300 C   0  0  2  0  0  0  0  0  0  0  0  0
  -26.7408  -30.4550   24.9289 C   0  0  0  0  0  0  0  0  0  0  0  0
  -26.8434  -17.4436   21.0362 N   0  0  0  0  0  0  0  0  0  0  0  0
  -28.0453  -18.0445   21.0559 N   0  0  0  0  0  0  0  0  0  0  0  0
  -25.4322  -27.4960   23.3807 N   0  0  0  0  0  0  0  0  0  0  0  0
  -28.1330  -21.8549   20.8171 N   0  0  0  0  0  0  0  0  0  0  0  0
  -30.3435  -17.6868   20.6075 N   0  0  0  0  0  0  0  0  0  0  0  0
  -28.4543  -13.7102   19.6009 N   0  0  0  0  0  0  0  0  0  0  0  0
  -30.0542  -22.3286   19.5338 N   0  0  0  0  0  0  0  0  0  0  0  0
  -21.8232  -27.1660   22.9769 N   0  0  0  0  0  0  0  0  0  0  0  0
  -28.1572  -28.3738   25.1868 N   0  0  0  0  0  0  0  0  0  0  0  0
  -31.0064  -26.1692   24.8884 N   0  3  0  0  0  0  0  0  0  0  0  0
  -30.4374  -14.8573   19.7009 O   0  0  0  0  0  0  0  0  0  0  0  0
  -23.3975  -28.8445   22.6210 O   0  0  0  0  0  0  0  0  0  0  0  0
  -25.3775  -27.8842   25.6791 O   0  0  0  0  0  0  0  0  0  0  0  0
  -29.5071  -27.9802   23.3429 O   0  0  0  0  0  0  0  0  0  0  0  0
  -29.1082  -23.9493   20.8976 O   0  0  0  0  0  0  0  0  0  0  0  0
  -23.0414  -12.4469   19.9750 O   0  0  0  0  0  0  0  0  0  0  0  0
  -26.5709  -26.2706   17.4432 O   0  0  0  0  0  0  0  0  0  1  0  0
  -23.9503   -7.3428   21.8529 F   0  0  0  0  0  0  0  0  0  0  0  0
  -21.4199  -11.3425   21.9228 F   0  0  0  0  0  0  0  0  0  0  0  0
  1  2  3  0  0  0  0
  1 20  1  0  0  0  0
  2 53  1  0  0  0  0
  3  4  1  0  0  0  0
  3  8  2  0  0  0  0
  4  9  2  0  0  0  0
  5 11  2  0  0  0  0
  5 20  1  0  0  0  0
  6 12  2  0  0  0  0
  6 21  1  0  0  0  0
  7 13  1  0  0  0  0
  7 21  2  0  0  0  0
  8 23  1  0  0  0  0
  9 25  1  0  0  0  0
 10 14  2  0  0  0  0
 10 24  1  0  0  0  0
 11 28  1  0  0  0  0
 12 29  1  0  0  0  0
 13 29  2  0  0  0  0
 14 30  1  0  0  0  0
 15 16  2  0  0  0  0
 15 31  1  0  0  0  0
 16 32  1  0  0  0  0
 17 26  1  0  0  0  0
 17 30  2  0  0  0  0
 18 27  1  0  0  0  0
 18 28  2  0  0  0  0
 19 32  2  0  0  0  0
 19 33  1  0  0  0  0
 20 27  2  0  0  0  0
 21 34  1  0  0  0  0
 22 34  1  0  0  0  0
 22 35  2  0  0  0  0
 22 36  1  0  0  0  0
 23 25  2  0  0  0  0
 23 41  1  0  0  0  0
 24 26  2  0  0  0  0
 24 42  1  0  0  0  0
 25 50  1  0  0  0  0
 26 43  1  0  0  0  0
 27 59  1  0  0  0  0
 28 72  1  0  0  0  0
 29 81  1  0  0  0  0
 30 82  1  0  0  0  0
 31 33  2  0  0  0  0
 31 81  1  0  0  0  0
 32 83  1  0  0  0  0
 33 84  1  0  0  0  0
 34 66  2  0  0  0  0
 35 67  1  0  0  0  0
 35 70  1  0  0  0  0
 36 71  1  0  0  0  0
 36 76  2  0  0  0  0
 37 51  1  0  0  0  0
 37 73  1  0  0  0  0
 37 77  2  0  0  0  0
 38 63  1  0  0  0  0
 38 68  1  0  0  0  0
 38 78  2  0  0  0  0
 39 64  1  0  0  0  0
 39 74  1  0  0  0  0
 39 79  2  0  0  0  0
 40 69  1  0  0  0  0
 40 72  1  0  0  0  0
 40 80  2  0  0  0  0
 41 44  1  0  0  0  0
 42 51  1  0  0  0  0
 43 68  1  0  0  0  0
 44 46  1  0  0  0  0
 45 47  1  0  0  0  0
 45 48  1  0  0  0  0
 46 50  1  0  0  0  0
 47 52  1  0  0  0  0
 48 69  1  0  0  0  0
 49 52  1  0  0  0  0
 49 69  1  0  0  0  0
 50 73  1  0  0  0  0
 51 68  1  0  0  0  0
 52 67  1  0  0  0  0
 54 64  1  0  0  0  0
 55 65  1  0  0  0  0
 56 65  1  0  0  0  0
 57 65  1  0  0  0  0
 58 75  1  0  0  0  0
 59 60  1  0  0  0  0
 60 61  1  0  0  0  0
 61 62  1  0  0  0  0
 62 82  1  0  0  0  0
 63 65  1  0  0  0  0
 63 74  1  0  0  0  0
 64 75  1  0  0  0  0
 66 67  1  0  0  0  0
M  CHG  1  75   1
M  ISO  4  40 100  62 101  72 100  82 101
M  END
> <Batch ID>
0125

> <Smiles>
CC#Cc1ccc([100NH:0][100C:0](=O)N2CCCC(n3nc(-c4ccc(Oc5ccc(F)cc5F)cc4)c(C(N)=O)c3N)C2)cc1CCC[101CH2:1][101O:1]c1ccc2c(c1)CN(C(=O)C(NC(=O)C(C)NC)C(C)(C)C)C(C(=O)NC1CCCc3ccccc31)C2

> <Shape>
0.265

> <Color>
0.063

> <Negative vol penalty>
0.000

$$$$

  -OEChem-04052302093D

 83 91  0     1  0  0  0  0  0999 V2000
  -31.8035  -34.1400   22.5370 C   0  0  0  0  0  0  0  0  0  0  0  0
  -31.4779  -32.9499   21.8942 C   0  0  0  0  0  0  0  0  0  0  0  0
  -24.2556   -8.8346   20.3701 C   0  0  0  0  0  0  0  0  0  0  0  0
  -22.8651  -10.7338   20.9143 C   0  0  0  0  0  0  0  0  0  0  0  0
  -31.1106  -34.5232   23.6847 C   0  0  0  0  0  0  0  0  0  0  0  0
  -30.4600  -32.1418   22.3993 C   0  0  0  0  0  0  0  0  0  0  0  0
  -26.5313  -28.7236   19.1764 C   0  0  0  0  0  0  0  0  0  0  0  0
  -29.0976  -20.5997   19.9014 C   0  0  0  0  0  0  0  0  0  0  0  0
  -29.1922  -19.2453   20.2214 C   0  0  0  0  0  0  0  0  0  0  0  0
  -23.2870   -7.9763   20.8903 C   0  0  0  0  0  0  0  0  0  0  0  0
  -21.8964   -9.8755   21.4345 C   0  0  0  0  0  0  0  0  0  0  0  0
  -26.5105  -27.3661   18.8591 C   0  0  0  0  0  0  0  0  0  0  0  0
  -22.2681   -6.9254   23.9369 C   0  0  0  0  0  0  0  0  0  0  0  0
  -22.6985   -5.8918   24.7687 C   0  0  0  0  0  0  0  0  0  0  0  0
  -25.0472  -26.9569   20.7328 C   0  0  0  0  0  0  0  0  0  0  0  0
  -27.7596  -20.0492   17.9665 C   0  0  0  0  0  0  0  0  0  0  0  0
  -21.7684   -4.2716   23.2367 C   0  0  0  0  0  0  0  0  0  0  0  0
  -24.0448  -10.2134   20.3821 C   0  0  0  0  0  0  0  0  0  0  0  0
  -25.1515  -11.5587   18.5186 C   0  0  0  0  0  0  0  0  0  0  0  0
  -30.0772  -33.7241   24.1986 C   0  0  0  0  0  0  0  0  0  0  0  0
  -25.8178  -29.2070   20.2826 C   0  0  0  0  0  0  0  0  0  0  0  0
  -29.7536  -32.5140   23.5557 C   0  0  0  0  0  0  0  0  0  0  0  0
  -25.0585  -28.3213   21.0604 C   0  0  0  0  0  0  0  0  0  0  0  0
  -28.3812  -21.0016   18.7740 C   0  0  0  0  0  0  0  0  0  0  0  0
  -27.8543  -18.6948   18.2864 C   0  0  0  0  0  0  0  0  0  0  0  0
  -28.5706  -18.2929   19.4139 C   0  0  0  0  0  0  0  0  0  0  0  0
  -22.1073   -8.4967   21.4224 C   0  0  0  0  0  0  0  0  0  0  0  0
  -25.7707  -26.4821   19.6390 C   0  0  0  0  0  0  0  0  0  0  0  0
  -21.5878   -6.6322   22.7550 C   0  0  0  0  0  0  0  0  0  0  0  0
  -22.4487   -4.5649   24.4186 C   0  0  0  0  0  0  0  0  0  0  0  0
  -21.3379   -5.3053   22.4049 C   0  0  0  0  0  0  0  0  0  0  0  0
  -25.0453  -11.1005   19.8455 C   0  0  0  0  0  0  0  0  0  0  0  0
  -26.2598  -12.3699   18.5232 C   0  0  0  0  0  0  0  0  0  0  0  0
  -24.3224  -11.2764   17.3834 C   0  0  0  0  0  0  0  0  0  0  0  0
  -26.6032  -30.6665   22.9949 C   0  0  0  0  0  0  0  0  0  0  0  0
  -27.0844  -23.1529   19.0573 C   0  0  0  0  0  0  0  0  0  0  0  0
  -23.3867  -30.8855   23.3534 C   0  0  0  0  0  0  0  0  0  0  0  0
  -20.2954  -29.6643   22.5792 C   0  0  0  0  0  0  0  0  0  0  0  0
  -29.3561  -16.3736   20.8442 C   0  0  0  0  0  0  0  0  0  0  0  0
  -29.3885  -34.1564   25.4688 C   0  0  0  0  0  0  0  0  0  0  0  0
  -25.8290  -30.6782   20.5957 C   0  0  0  0  0  0  0  0  0  0  0  0
  -24.2589  -28.7929   22.2464 C   0  0  0  0  0  0  0  0  0  0  0  0
  -28.0715  -33.4286   25.7256 C   0  0  0  0  0  0  0  0  0  0  0  0
  -29.8247  -13.0566   22.0505 C   0  0  0  0  0  0  0  0  0  0  0  0
  -28.2393  -31.9282   25.5075 C   0  0  0  0  0  0  0  0  0  0  0  0
  -28.6318  -12.2897   21.4752 C   0  0  0  0  0  0  0  0  0  0  0  0
  -29.4435  -14.4805   22.4515 C   0  0  0  0  0  0  0  0  0  0  0  0
  -27.5939  -14.5002   20.8244 C   0  0  0  0  0  0  0  0  0  0  0  0
  -28.6390  -31.6226   24.0589 C   0  0  1  0  0  0  0  0  0  0  0  0
  -25.4792  -30.9824   22.0491 C   0  0  1  0  0  0  0  0  0  0  0  0
  -27.9442  -13.0817   20.3458 C   0  0  2  0  0  0  0  0  0  0  0  0
  -28.1675  -16.9755   16.4885 C   0  0  0  0  0  0  0  0  0  0  0  0
  -17.8582  -30.0271   23.0546 C   0  0  0  0  0  0  0  0  0  0  0  0
  -23.7284  -29.5793   26.0897 C   0  0  0  0  0  0  0  0  0  0  0  0
  -21.2696  -29.1077   26.0942 C   0  0  0  0  0  0  0  0  0  0  0  0
  -22.0856  -31.4641   26.0312 C   0  0  0  0  0  0  0  0  0  0  0  0
  -19.7045  -30.2228   19.7335 C   0  0  0  0  0  0  0  0  0  0  0  0
  -28.2812  -22.4637   18.4274 C   0  0  0  0  0  0  0  0  0  0  0  0
  -27.1809  -17.6961   17.4018 C   0  0  0  0  0  0  0  0  0  0  0  0
  -26.9103  -24.6168   18.7021 C   0  0  0  0  0  0  0  0  0  1  0  0
  -22.3182  -30.0165   23.9716 C   0  0  1  0  0  0  0  0  0  0  0  0
  -19.0213  -30.3579   22.1322 C   0  0  2  0  0  0  0  0  0  0  0  0
  -22.3670  -30.0324   25.5255 C   0  0  0  0  0  0  0  0  0  0  0  0
  -26.0093  -11.5806   20.6355 N   0  0  0  0  0  0  0  0  0  0  0  0
  -26.7319  -12.3489   19.8026 N   0  0  0  0  0  0  0  0  0  0  0  0
  -24.3069  -30.2395   22.5157 N   0  0  0  0  0  0  0  0  0  0  0  0
  -28.8013  -15.1711   21.3310 N   0  0  0  0  0  0  0  0  0  0  0  0
  -26.8669  -13.0920   17.5575 N   0  0  0  0  0  0  0  0  0  0  0  0
  -23.2242  -10.4225   17.5541 N   0  0  0  0  0  0  0  0  0  0  0  0
  -28.6785  -16.9220   19.7557 N   0  0  0  0  0  0  0  0  0  0  0  0
  -27.4870  -31.7111   23.1874 N   0  0  0  0  0  0  0  0  0  0  0  0
  -21.0497  -30.4667   23.4089 N   0  0  0  0  0  0  0  0  0  0  0  0
  -18.6593  -29.9358   20.7496 N   0  3  0  0  0  0  0  0  0  0  0  0
  -24.5582  -11.7538   16.2477 O   0  0  0  0  0  0  0  0  0  0  0  0
  -26.6632  -29.5576   23.5130 O   0  0  0  0  0  0  0  0  0  0  0  0
  -26.3009  -22.5734   19.8082 O   0  0  0  0  0  0  0  0  0  0  0  0
  -23.3999  -32.0943   23.5989 O   0  0  0  0  0  0  0  0  0  0  0  0
  -20.5901  -28.5232   22.2305 O   0  0  0  0  0  0  0  0  0  0  0  0
  -30.3742  -16.8652   21.3379 O   0  0  0  0  0  0  0  0  0  0  0  0
  -21.1618   -7.6595   21.9299 O   0  0  0  0  0  0  0  0  0  0  0  0
  -25.7492  -25.1565   19.3320 O   0  0  0  0  0  0  0  0  0  1  0  0
  -22.8634   -3.5723   25.2167 F   0  0  0  0  0  0  0  0  0  0  0  0
  -20.6858   -5.0174   21.2702 F   0  0  0  0  0  0  0  0  0  0  0  0
  1  2  1  0  0  0  0
  1  5  2  0  0  0  0
  2  6  2  0  0  0  0
  3 10  2  0  0  0  0
  3 18  1  0  0  0  0
  4 11  1  0  0  0  0
  4 18  2  0  0  0  0
  5 20  1  0  0  0  0
  6 22  1  0  0  0  0
  7 12  2  0  0  0  0
  7 21  1  0  0  0  0
  8  9  2  0  0  0  0
  8 24  1  0  0  0  0
  9 26  1  0  0  0  0
 10 27  1  0  0  0  0
 11 27  2  0  0  0  0
 12 28  1  0  0  0  0
 13 14  2  0  0  0  0
 13 29  1  0  0  0  0
 14 30  1  0  0  0  0
 15 23  1  0  0  0  0
 15 28  2  0  0  0  0
 16 24  2  0  0  0  0
 16 25  1  0  0  0  0
 17 30  2  0  0  0  0
 17 31  1  0  0  0  0
 18 32  1  0  0  0  0
 19 32  1  0  0  0  0
 19 33  2  0  0  0  0
 19 34  1  0  0  0  0
 20 22  2  0  0  0  0
 20 40  1  0  0  0  0
 21 23  2  0  0  0  0
 21 41  1  0  0  0  0
 22 49  1  0  0  0  0
 23 42  1  0  0  0  0
 24 58  1  0  0  0  0
 25 26  2  0  0  0  0
 25 59  1  0  0  0  0
 26 70  1  0  0  0  0
 27 80  1  0  0  0  0
 28 81  1  0  0  0  0
 29 31  2  0  0  0  0
 29 80  1  0  0  0  0
 30 82  1  0  0  0  0
 31 83  1  0  0  0  0
 32 64  2  0  0  0  0
 33 65  1  0  0  0  0
 33 68  1  0  0  0  0
 34 69  1  0  0  0  0
 34 74  2  0  0  0  0
 35 50  1  0  0  0  0
 35 71  1  0  0  0  0
 35 75  2  0  0  0  0
 36 58  1  0  0  0  0
 36 60  1  0  0  0  0
 36 76  2  0  0  0  0
 37 61  1  0  0  0  0
 37 66  1  0  0  0  0
 37 77  2  0  0  0  0
 38 62  1  0  0  0  0
 38 72  1  0  0  0  0
 38 78  2  0  0  0  0
 39 67  1  0  0  0  0
 39 70  1  0  0  0  0
 39 79  2  0  0  0  0
 40 43  1  0  0  0  0
 41 50  1  0  0  0  0
 42 66  1  0  0  0  0
 43 45  1  0  0  0  0
 44 46  1  0  0  0  0
 44 47  1  0  0  0  0
 45 49  1  0  0  0  0
 46 51  1  0  0  0  0
 47 67  1  0  0  0  0
 48 51  1  0  0  0  0
 48 67  1  0  0  0  0
 49 71  1  0  0  0  0
 50 66  1  0  0  0  0
 51 65  1  0  0  0  0
 52 59  1  0  0  0  0
 53 62  1  0  0  0  0
 54 63  1  0  0  0  0
 55 63  1  0  0  0  0
 56 63  1  0  0  0  0
 57 73  1  0  0  0  0
 60 81  1  0  0  0  0
 61 63  1  0  0  0  0
 61 72  1  0  0  0  0
 62 73  1  0  0  0  0
 64 65  1  0  0  0  0
M  CHG  1  73   1
M  ISO  4  39 100  60 101  70 100  81 101
M  END
> <Batch ID>
0125

> <Smiles>
CCc1cc(CC(=O)[101CH2:1][101O:1]c2ccc3c(c2)CN(C(=O)C(NC(=O)C(C)NC)C(C)(C)C)C(C(=O)NC2CCCc4ccccc42)C3)ccc1[100NH:0][100C:0](=O)N1CCCC(n2nc(-c3ccc(Oc4ccc(F)cc4F)cc3)c(C(N)=O)c2N)C1

> <Shape>
0.288

> <Color>
0.110

> <Negative vol penalty>
0.000

$$$$

  -OEChem-04052302093D

 84 92  0     1  0  0  0  0  0999 V2000
  -30.1770  -35.9041   21.7002 C   0  0  0  0  0  0  0  0  0  0  0  0
  -30.1558  -34.5164   21.6031 C   0  0  0  0  0  0  0  0  0  0  0  0
  -26.0669  -11.2062   20.9282 C   0  0  0  0  0  0  0  0  0  0  0  0
  -25.9141  -11.6312   18.5548 C   0  0  0  0  0  0  0  0  0  0  0  0
  -28.8862  -20.4526   14.2902 C   0  0  0  0  0  0  0  0  0  0  0  0
  -29.2040  -36.5643   22.4495 C   0  0  0  0  0  0  0  0  0  0  0  0
  -29.1621  -33.7881   22.2562 C   0  0  0  0  0  0  0  0  0  0  0  0
  -27.1714  -30.1636   19.3330 C   0  0  0  0  0  0  0  0  0  0  0  0
  -28.9370  -19.0709   14.1060 C   0  0  0  0  0  0  0  0  0  0  0  0
  -24.7695  -10.6940   20.9200 C   0  0  0  0  0  0  0  0  0  0  0  0
  -24.6167  -11.1190   18.5466 C   0  0  0  0  0  0  0  0  0  0  0  0
  -27.9140  -28.9943   19.1741 C   0  0  0  0  0  0  0  0  0  0  0  0
  -23.2354   -7.8103   20.0463 C   0  0  0  0  0  0  0  0  0  0  0  0
  -23.0041   -6.6198   20.7355 C   0  0  0  0  0  0  0  0  0  0  0  0
  -29.5237  -20.1678   16.6031 C   0  0  0  0  0  0  0  0  0  0  0  0
  -26.5373  -27.9026   20.8270 C   0  0  0  0  0  0  0  0  0  0  0  0
  -21.3985   -7.7478   22.1450 C   0  0  0  0  0  0  0  0  0  0  0  0
  -26.6392  -11.6749   19.7456 C   0  0  0  0  0  0  0  0  0  0  0  0
  -29.1796  -21.0011   15.5387 C   0  0  0  0  0  0  0  0  0  0  0  0
  -29.1760  -11.4924   19.5487 C   0  0  0  0  0  0  0  0  0  0  0  0
  -28.1923  -35.8443   23.1041 C   0  0  0  0  0  0  0  0  0  0  0  0
  -26.1114  -30.2145   20.2496 C   0  0  0  0  0  0  0  0  0  0  0  0
  -28.1754  -34.4391   23.0160 C   0  0  0  0  0  0  0  0  0  0  0  0
  -25.7812  -29.0729   20.9938 C   0  0  0  0  0  0  0  0  0  0  0  0
  -29.2811  -18.2376   15.1704 C   0  0  0  0  0  0  0  0  0  0  0  0
  -29.5745  -18.7860   16.4189 C   0  0  0  0  0  0  0  0  0  0  0  0
  -24.0444  -10.6504   19.7293 C   0  0  0  0  0  0  0  0  0  0  0  0
  -27.5988  -27.8645   19.9232 C   0  0  0  0  0  0  0  0  0  0  0  0
  -22.5483   -8.9695   20.4065 C   0  0  0  0  0  0  0  0  0  0  0  0
  -22.0857   -6.5886   21.7848 C   0  0  0  0  0  0  0  0  0  0  0  0
  -21.6299   -8.9383   21.4559 C   0  0  0  0  0  0  0  0  0  0  0  0
  -27.9791  -12.2046   19.7535 C   0  0  0  0  0  0  0  0  0  0  0  0
  -30.1629  -12.4418   19.6544 C   0  0  0  0  0  0  0  0  0  0  0  0
  -29.1260  -22.4598   15.7313 C   0  0  0  0  0  0  0  0  0  0  0  0
  -29.7310  -23.1325   16.7229 C   0  0  0  0  0  0  0  0  0  0  0  0
  -29.3777  -10.0974   19.2864 C   0  0  0  0  0  0  0  0  0  0  0  0
  -25.4883  -31.9074   22.8667 C   0  0  0  0  0  0  0  0  0  0  0  0
  -29.0275  -24.9951   18.2230 C   0  0  0  0  0  0  0  0  0  0  0  0
  -22.6194  -30.4046   22.6842 C   0  0  0  0  0  0  0  0  0  0  0  0
  -20.8165  -27.7273   21.5758 C   0  0  0  0  0  0  0  0  0  0  0  0
  -30.2444  -18.3566   18.8091 C   0  0  0  0  0  0  0  0  0  0  0  0
  -27.1898  -36.5987   23.9412 C   0  0  0  0  0  0  0  0  0  0  0  0
  -25.3031  -31.4752   20.3898 C   0  0  0  0  0  0  0  0  0  0  0  0
  -24.6397  -29.0695   21.9764 C   0  0  0  0  0  0  0  0  0  0  0  0
  -25.9519  -35.7786   24.2952 C   0  0  0  0  0  0  0  0  0  0  0  0
  -31.1276  -16.6190   21.7887 C   0  0  0  0  0  0  0  0  0  0  0  0
  -26.3528  -34.3900   24.7828 C   0  0  0  0  0  0  0  0  0  0  0  0
  -30.5346  -15.2231   21.5837 C   0  0  0  0  0  0  0  0  0  0  0  0
  -30.2277  -17.7083   21.2080 C   0  0  0  0  0  0  0  0  0  0  0  0
  -29.2524  -16.1186   19.5985 C   0  0  0  0  0  0  0  0  0  0  0  0
  -27.0993  -33.6157   23.6897 C   0  0  1  0  0  0  0  0  0  0  0  0
  -24.5714  -31.5704   21.7250 C   0  0  1  0  0  0  0  0  0  0  0  0
  -30.1544  -14.9833   20.1094 C   0  0  2  0  0  0  0  0  0  0  0  0
  -29.3264  -16.7611   14.9446 C   0  0  0  0  0  0  0  0  0  0  0  0
  -18.5018  -26.7589   21.6148 C   0  0  0  0  0  0  0  0  0  0  0  0
  -23.0434  -29.5136   25.5715 C   0  0  0  0  0  0  0  0  0  0  0  0
  -21.2316  -27.8177   25.2409 C   0  0  0  0  0  0  0  0  0  0  0  0
  -20.7135  -30.2494   25.0383 C   0  0  0  0  0  0  0  0  0  0  0  0
  -20.5902  -27.8500   18.6275 C   0  0  0  0  0  0  0  0  0  0  0  0
  -29.6423  -24.6195   16.8821 C   0  0  0  0  0  0  0  0  0  0  0  0
  -28.8955  -26.4831   18.4857 C   0  0  0  0  0  0  0  0  0  1  0  0
  -22.0535  -29.1120   23.2210 C   0  0  1  0  0  0  0  0  0  0  0  0
  -19.4827  -27.6394   20.8563 C   0  0  2  0  0  0  0  0  0  0  0  0
  -21.7833  -29.1735   24.7509 C   0  0  0  0  0  0  0  0  0  0  0  0
  -28.1845  -13.5060   19.9728 N   0  0  0  0  0  0  0  0  0  0  0  0
  -29.5220  -13.6191   19.9066 N   0  0  0  0  0  0  0  0  0  0  0  0
  -23.8834  -30.3282   22.0823 N   0  0  0  0  0  0  0  0  0  0  0  0
  -29.9128  -17.4166   19.8078 N   0  0  0  0  0  0  0  0  0  0  0  0
  -31.5076  -12.3762   19.5553 N   0  0  0  0  0  0  0  0  0  0  0  0
  -28.2545   -9.2626   19.2100 N   0  0  0  0  0  0  0  0  0  0  0  0
  -29.9267  -17.9558   17.5118 N   0  0  0  0  0  0  0  0  0  0  0  0
  -26.1676  -33.1004   22.7095 N   0  0  0  0  0  0  0  0  0  0  0  0
  -20.8722  -28.8185   22.4169 N   0  0  0  0  0  0  0  0  0  0  0  0
  -19.6669  -27.0702   19.4914 N   0  3  0  0  0  0  0  0  0  0  0  0
  -30.5212   -9.6027   19.1408 O   0  0  0  0  0  0  0  0  0  0  0  0
  -25.5721  -31.1424   23.8204 O   0  0  0  0  0  0  0  0  0  0  0  0
  -28.6447  -24.1596   19.0411 O   0  0  0  0  0  0  0  0  0  0  0  0
  -21.9609  -31.4425   22.7886 O   0  0  0  0  0  0  0  0  0  0  0  0
  -21.7174  -26.9077   21.4111 O   0  0  0  0  0  0  0  0  0  0  0  0
  -30.7961  -19.4258   19.0818 O   0  0  0  0  0  0  0  0  0  0  0  0
  -22.7785  -10.1504   19.7208 O   0  0  0  0  0  0  0  0  0  0  0  0
  -28.3224  -26.7221   19.7705 O   0  0  0  0  0  0  0  0  0  1  0  0
  -21.8625   -5.4450   22.4455 F   0  0  0  0  0  0  0  0  0  0  0  0
  -20.9659  -10.0485   21.8057 F   0  0  0  0  0  0  0  0  0  0  0  0
  1  2  1  0  0  0  0
  1  6  2  0  0  0  0
  2  7  2  0  0  0  0
  3 10  2  0  0  0  0
  3 18  1  0  0  0  0
  4 11  1  0  0  0  0
  4 18  2  0  0  0  0
  5  9  2  0  0  0  0
  5 19  1  0  0  0  0
  6 21  1  0  0  0  0
  7 23  1  0  0  0  0
  8 12  2  0  0  0  0
  8 22  1  0  0  0  0
  9 25  1  0  0  0  0
 10 27  1  0  0  0  0
 11 27  2  0  0  0  0
 12 28  1  0  0  0  0
 13 14  2  0  0  0  0
 13 29  1  0  0  0  0
 14 30  1  0  0  0  0
 15 19  2  0  0  0  0
 15 26  1  0  0  0  0
 16 24  1  0  0  0  0
 16 28  2  0  0  0  0
 17 30  2  0  0  0  0
 17 31  1  0  0  0  0
 18 32  1  0  0  0  0
 19 34  1  0  0  0  0
 20 32  1  0  0  0  0
 20 33  2  0  0  0  0
 20 36  1  0  0  0  0
 21 23  2  0  0  0  0
 21 42  1  0  0  0  0
 22 24  2  0  0  0  0
 22 43  1  0  0  0  0
 23 51  1  0  0  0  0
 24 44  1  0  0  0  0
 25 26  2  0  0  0  0
 25 54  1  0  0  0  0
 26 71  1  0  0  0  0
 27 81  1  0  0  0  0
 28 82  1  0  0  0  0
 29 31  2  0  0  0  0
 29 81  1  0  0  0  0
 30 83  1  0  0  0  0
 31 84  1  0  0  0  0
 32 65  2  0  0  0  0
 33 66  1  0  0  0  0
 33 69  1  0  0  0  0
 34 35  2  0  0  0  0
 35 60  1  0  0  0  0
 36 70  1  0  0  0  0
 36 75  2  0  0  0  0
 37 52  1  0  0  0  0
 37 72  1  0  0  0  0
 37 76  2  0  0  0  0
 38 60  1  0  0  0  0
 38 61  1  0  0  0  0
 38 77  2  0  0  0  0
 39 62  1  0  0  0  0
 39 67  1  0  0  0  0
 39 78  2  0  0  0  0
 40 63  1  0  0  0  0
 40 73  1  0  0  0  0
 40 79  2  0  0  0  0
 41 68  1  0  0  0  0
 41 71  1  0  0  0  0
 41 80  2  0  0  0  0
 42 45  1  0  0  0  0
 43 52  1  0  0  0  0
 44 67  1  0  0  0  0
 45 47  1  0  0  0  0
 46 48  1  0  0  0  0
 46 49  1  0  0  0  0
 47 51  1  0  0  0  0
 48 53  1  0  0  0  0
 49 68  1  0  0  0  0
 50 53  1  0  0  0  0
 50 68  1  0  0  0  0
 51 72  1  0  0  0  0
 52 67  1  0  0  0  0
 53 66  1  0  0  0  0
 55 63  1  0  0  0  0
 56 64  1  0  0  0  0
 57 64  1  0  0  0  0
 58 64  1  0  0  0  0
 59 74  1  0  0  0  0
 61 82  1  0  0  0  0
 62 64  1  0  0  0  0
 62 73  1  0  0  0  0
 63 74  1  0  0  0  0
 65 66  1  0  0  0  0
M  CHG  1  74   1
M  ISO  4  41 100  61 101  71 100  82 101
M  END
> <Batch ID>
0125

> <Smiles>
CNC(C)C(=O)NC(C(=O)N1Cc2cc([101O:1][101CH2:1]C(=O)CC=Cc3ccc(C)c([100NH:0][100C:0](=O)N4CCCC(n5nc(-c6ccc(Oc7ccc(F)cc7F)cc6)c(C(N)=O)c5N)C4)c3)ccc2CC1C(=O)NC1CCCc2ccccc21)C(C)(C)C

> <Shape>
0.318

> <Color>
0.079

> <Negative vol penalty>
0.000

$$$$

  -OEChem-04052302093D

 85 93  0     1  0  0  0  0  0999 V2000
  -21.9830  -35.8665   15.2329 C   0  0  0  0  0  0  0  0  0  0  0  0
  -23.2358  -35.4980   15.7126 C   0  0  0  0  0  0  0  0  0  0  0  0
  -23.0149   -9.9279   19.9466 C   0  0  0  0  0  0  0  0  0  0  0  0
  -23.8640   -9.8543   22.2073 C   0  0  0  0  0  0  0  0  0  0  0  0
  -29.0172  -17.5210   22.1569 C   0  0  0  0  0  0  0  0  0  0  0  0
  -20.8817  -35.8624   16.0878 C   0  0  0  0  0  0  0  0  0  0  0  0
  -23.3882  -35.1263   17.0479 C   0  0  0  0  0  0  0  0  0  0  0  0
  -25.9482  -28.6303   18.8199 C   0  0  0  0  0  0  0  0  0  0  0  0
  -22.2570   -8.7834   20.1940 C   0  0  0  0  0  0  0  0  0  0  0  0
  -23.1060   -8.7098   22.4547 C   0  0  0  0  0  0  0  0  0  0  0  0
  -28.3167  -18.6593   21.7583 C   0  0  0  0  0  0  0  0  0  0  0  0
  -26.6282  -27.4864   19.2386 C   0  0  0  0  0  0  0  0  0  0  0  0
  -19.8876   -7.9606   23.1627 C   0  0  0  0  0  0  0  0  0  0  0  0
  -19.1764   -7.9027   24.3612 C   0  0  0  0  0  0  0  0  0  0  0  0
  -29.3604  -16.9214   19.8418 C   0  0  0  0  0  0  0  0  0  0  0  0
  -26.2595  -28.0997   21.5485 C   0  0  0  0  0  0  0  0  0  0  0  0
  -20.4041   -5.9204   24.9940 C   0  0  0  0  0  0  0  0  0  0  0  0
  -23.8185  -10.4634   20.9533 C   0  0  0  0  0  0  0  0  0  0  0  0
  -29.5392  -16.6520   21.1987 C   0  0  0  0  0  0  0  0  0  0  0  0
  -24.2091  -12.9835   20.8896 C   0  0  0  0  0  0  0  0  0  0  0  0
  -21.0188  -35.4811   17.4319 C   0  0  0  0  0  0  0  0  0  0  0  0
  -25.4074  -29.5064   19.7651 C   0  0  0  0  0  0  0  0  0  0  0  0
  -22.2879  -35.1184   17.9219 C   0  0  0  0  0  0  0  0  0  0  0  0
  -25.5667  -29.2407   21.1350 C   0  0  0  0  0  0  0  0  0  0  0  0
  -28.6598  -18.0597   19.4431 C   0  0  0  0  0  0  0  0  0  0  0  0
  -22.3025   -8.1744   21.4480 C   0  0  0  0  0  0  0  0  0  0  0  0
  -26.7836  -27.2219   20.5995 C   0  0  0  0  0  0  0  0  0  0  0  0
  -28.1379  -18.9287   20.4014 C   0  0  0  0  0  0  0  0  0  0  0  0
  -20.8571   -6.9983   22.8798 C   0  0  0  0  0  0  0  0  0  0  0  0
  -19.4347   -6.8826   25.2769 C   0  0  0  0  0  0  0  0  0  0  0  0
  -21.1153   -5.9783   23.7954 C   0  0  0  0  0  0  0  0  0  0  0  0
  -24.6021  -11.6453   20.6982 C   0  0  0  0  0  0  0  0  0  0  0  0
  -25.3020  -13.7208   20.5041 C   0  0  0  0  0  0  0  0  0  0  0  0
  -30.2695  -15.4654   21.6154 C   0  0  0  0  0  0  0  0  0  0  0  0
  -22.9673  -13.5128   21.3728 C   0  0  0  0  0  0  0  0  0  0  0  0
  -30.8368  -14.5218   20.6249 C   0  0  0  0  0  0  0  0  0  0  0  0
  -23.4727  -32.6557   20.4088 C   0  0  0  0  0  0  0  0  0  0  0  0
  -22.5032  -30.5814   22.4503 C   0  0  0  0  0  0  0  0  0  0  0  0
  -21.4180  -27.8921   24.2468 C   0  0  0  0  0  0  0  0  0  0  0  0
  -19.8082  -35.5378   18.3296 C   0  0  0  0  0  0  0  0  0  0  0  0
  -24.7207  -30.7824   19.3601 C   0  0  0  0  0  0  0  0  0  0  0  0
  -24.9982  -30.2291   22.1162 C   0  0  0  0  0  0  0  0  0  0  0  0
  -19.9836  -34.7707   19.6378 C   0  0  0  0  0  0  0  0  0  0  0  0
  -29.5210  -12.3579   18.0867 C   0  0  0  0  0  0  0  0  0  0  0  0
  -21.3305  -35.1001   20.2733 C   0  0  0  0  0  0  0  0  0  0  0  0
  -28.1046  -12.0589   18.5771 C   0  0  0  0  0  0  0  0  0  0  0  0
  -30.4952  -12.5059   19.2508 C   0  0  0  0  0  0  0  0  0  0  0  0
  -28.6615  -13.2359   20.7519 C   0  0  0  0  0  0  0  0  0  0  0  0
  -22.4887  -34.6851   19.3579 C   0  0  1  0  0  0  0  0  0  0  0  0
  -23.5552  -31.1622   20.2910 C   0  0  1  0  0  0  0  0  0  0  0  0
  -27.6436  -13.1071   19.6053 C   0  0  2  0  0  0  0  0  0  0  0  0
  -27.0709  -17.9851   17.5050 C   0  0  0  0  0  0  0  0  0  0  0  0
  -19.7602  -27.2441   26.0157 C   0  0  0  0  0  0  0  0  0  0  0  0
  -24.2679  -31.8780   24.5737 C   0  0  0  0  0  0  0  0  0  0  0  0
  -23.1449  -30.4367   26.2854 C   0  0  0  0  0  0  0  0  0  0  0  0
  -21.8105  -32.0948   24.9844 C   0  0  0  0  0  0  0  0  0  0  0  0
  -20.0563  -25.9870   22.4369 C   0  0  0  0  0  0  0  0  0  0  0  0
  -28.4766  -18.3320   17.9866 C   0  0  0  0  0  0  0  0  0  0  0  0
  -27.4467  -23.6866   20.9657 C   0  0  0  0  0  0  0  0  0  0  0  0
  -27.3984  -22.4442   20.0831 C   0  0  0  0  0  0  0  0  0  0  0  0
  -27.3772  -24.9648   20.1406 C   0  0  0  0  0  0  0  0  0  1  0  0
  -27.5110  -21.1671   20.9036 C   0  0  0  0  0  0  0  0  0  0  0  0
  -22.6510  -30.0052   23.8358 C   0  0  1  0  0  0  0  0  0  0  0  0
  -20.0228  -27.3612   24.5224 C   0  0  2  0  0  0  0  0  0  0  0  0
  -22.9816  -31.0920   24.8974 C   0  0  0  0  0  0  0  0  0  0  0  0
  -25.8473  -11.5359   20.2275 N   0  0  0  0  0  0  0  0  0  0  0  0
  -30.4757  -15.1532   22.8664 N   0  0  0  0  0  0  0  0  0  0  0  0
  -26.2462  -12.8147   20.1198 N   0  0  0  0  0  0  0  0  0  0  0  0
  -30.0101  -13.4811   20.2254 N   0  0  0  0  0  0  0  0  0  0  0  0
  -23.6650  -30.6664   21.6734 N   0  0  0  0  0  0  0  0  0  0  0  0
  -25.5377  -15.0492   20.4596 N   0  0  0  0  0  0  0  0  0  0  0  0
  -21.9502  -12.6150   21.7247 N   0  0  0  0  0  0  0  0  0  0  0  0
  -22.7030  -33.2557   19.4305 N   0  0  0  0  0  0  0  0  0  0  0  0
  -21.4234  -29.2634   24.1024 N   0  0  0  0  0  0  0  0  0  0  0  0
  -19.8502  -26.0145   23.9079 N   0  3  0  0  0  0  0  0  0  0  0  0
  -22.7598  -14.7458   21.4734 O   0  0  0  0  0  0  0  0  0  0  0  0
  -31.9812  -14.7620   20.2630 O   0  0  0  0  0  0  0  0  0  0  0  0
  -24.0623  -33.2233   21.3209 O   0  0  0  0  0  0  0  0  0  0  0  0
  -21.3902  -30.9520   22.0667 O   0  0  0  0  0  0  0  0  0  0  0  0
  -22.4050  -27.1636   24.1710 O   0  0  0  0  0  0  0  0  0  0  0  0
  -21.5629   -7.0577   21.6898 O   0  0  0  0  0  0  0  0  0  0  0  0
  -27.4446  -26.1010   21.0013 O   0  0  0  0  0  0  0  0  0  1  0  0
  -27.4447  -20.0505   20.0273 O   0  0  0  0  0  0  0  0  0  0  0  0
  -18.7527   -6.8280   26.4284 F   0  0  0  0  0  0  0  0  0  0  0  0
  -22.0463   -5.0517   23.5297 F   0  0  0  0  0  0  0  0  0  0  0  0
  1  2  1  0  0  0  0
  1  6  2  0  0  0  0
  2  7  2  0  0  0  0
  3  9  2  0  0  0  0
  3 18  1  0  0  0  0
  4 10  1  0  0  0  0
  4 18  2  0  0  0  0
  5 11  2  0  0  0  0
  5 19  1  0  0  0  0
  6 21  1  0  0  0  0
  7 23  1  0  0  0  0
  8 12  2  0  0  0  0
  8 22  1  0  0  0  0
  9 26  1  0  0  0  0
 10 26  2  0  0  0  0
 11 28  1  0  0  0  0
 12 27  1  0  0  0  0
 13 14  2  0  0  0  0
 13 29  1  0  0  0  0
 14 30  1  0  0  0  0
 15 19  2  0  0  0  0
 15 25  1  0  0  0  0
 16 24  1  0  0  0  0
 16 27  2  0  0  0  0
 17 30  2  0  0  0  0
 17 31  1  0  0  0  0
 18 32  1  0  0  0  0
 19 34  1  0  0  0  0
 20 32  1  0  0  0  0
 20 33  2  0  0  0  0
 20 35  1  0  0  0  0
 21 23  2  0  0  0  0
 21 40  1  0  0  0  0
 22 24  2  0  0  0  0
 22 41  1  0  0  0  0
 23 49  1  0  0  0  0
 24 42  1  0  0  0  0
 25 28  2  0  0  0  0
 25 58  1  0  0  0  0
 26 81  1  0  0  0  0
 27 82  1  0  0  0  0
 28 83  1  0  0  0  0
 29 31  2  0  0  0  0
 29 81  1  0  0  0  0
 30 84  1  0  0  0  0
 31 85  1  0  0  0  0
 32 66  2  0  0  0  0
 33 68  1  0  0  0  0
 33 71  1  0  0  0  0
 34 36  1  0  0  0  0
 34 67  2  0  0  0  0
 35 72  1  0  0  0  0
 35 76  2  0  0  0  0
 36 69  1  0  0  0  0
 36 77  2  0  0  0  0
 37 50  1  0  0  0  0
 37 73  1  0  0  0  0
 37 78  2  0  0  0  0
 38 63  1  0  0  0  0
 38 70  1  0  0  0  0
 38 79  2  0  0  0  0
 39 64  1  0  0  0  0
 39 74  1  0  0  0  0
 39 80  2  0  0  0  0
 40 43  1  0  0  0  0
 41 50  1  0  0  0  0
 42 70  1  0  0  0  0
 43 45  1  0  0  0  0
 44 46  1  0  0  0  0
 44 47  1  0  0  0  0
 45 49  1  0  0  0  0
 46 51  1  0  0  0  0
 47 69  1  0  0  0  0
 48 51  1  0  0  0  0
 48 69  1  0  0  0  0
 49 73  1  0  0  0  0
 50 70  1  0  0  0  0
 51 68  1  0  0  0  0
 52 58  1  0  0  0  0
 53 64  1  0  0  0  0
 54 65  1  0  0  0  0
 55 65  1  0  0  0  0
 56 65  1  0  0  0  0
 57 75  1  0  0  0  0
 59 60  1  0  0  0  0
 59 61  1  0  0  0  0
 60 62  1  0  0  0  0
 61 82  1  0  0  0  0
 62 83  1  0  0  0  0
 63 65  1  0  0  0  0
 63 74  1  0  0  0  0
 64 75  1  0  0  0  0
 66 68  1  0  0  0  0
M  CHG  1  75   1
M  ISO  4  34 100  36 100  61 101  82 101
M  END
> <Batch ID>
0125

> <Smiles>
CCc1cc([100C:0](=N)[100C:0](=O)N2CCCC(n3nc(-c4ccc(Oc5ccc(F)cc5F)cc4)c(C(N)=O)c3N)C2)ccc1OCCC[101CH2:1][101O:1]c1ccc2c(c1)CN(C(=O)C(NC(=O)C(C)NC)C(C)(C)C)C(C(=O)NC1CCCc3ccccc31)C2

> <Shape>
0.330

> <Color>
0.237

> <Negative vol penalty>
0.000

$$$$

  -OEChem-04052302093D

 81 89  0     1  0  0  0  0  0999 V2000
  -27.2680  -30.4055   26.5201 C   0  0  0  0  0  0  0  0  0  0  0  0
  -27.6562  -29.0961   26.2557 C   0  0  0  0  0  0  0  0  0  0  0  0
  -23.0575   -9.8752   19.9575 C   0  0  0  0  0  0  0  0  0  0  0  0
  -23.8661   -9.8747   22.2342 C   0  0  0  0  0  0  0  0  0  0  0  0
  -28.1305  -17.8093   22.5191 C   0  0  0  0  0  0  0  0  0  0  0  0
  -27.4059  -30.9261   27.8061 C   0  0  0  0  0  0  0  0  0  0  0  0
  -28.1837  -28.3067   27.2770 C   0  0  0  0  0  0  0  0  0  0  0  0
  -26.2385  -23.6313   27.3206 C   0  0  0  0  0  0  0  0  0  0  0  0
  -27.5462  -18.7996   23.3088 C   0  0  0  0  0  0  0  0  0  0  0  0
  -22.3198   -8.7207   20.2192 C   0  0  0  0  0  0  0  0  0  0  0  0
  -23.1283   -8.7202   22.4959 C   0  0  0  0  0  0  0  0  0  0  0  0
  -26.7299  -22.7284   26.3788 C   0  0  0  0  0  0  0  0  0  0  0  0
  -19.9141   -7.9182   23.1642 C   0  0  0  0  0  0  0  0  0  0  0  0
  -19.1823   -7.8737   24.3508 C   0  0  0  0  0  0  0  0  0  0  0  0
  -28.1527  -21.7531   28.0651 C   0  0  0  0  0  0  0  0  0  0  0  0
  -29.5943  -20.0781   23.2209 C   0  0  0  0  0  0  0  0  0  0  0  0
  -20.4402   -5.9345   25.0539 C   0  0  0  0  0  0  0  0  0  0  0  0
  -23.8307  -10.4522   20.9650 C   0  0  0  0  0  0  0  0  0  0  0  0
  -29.4467  -17.9534   22.0804 C   0  0  0  0  0  0  0  0  0  0  0  0
  -24.1685  -12.9779   20.8466 C   0  0  0  0  0  0  0  0  0  0  0  0
  -27.9264  -30.1397   28.8459 C   0  0  0  0  0  0  0  0  0  0  0  0
  -26.7093  -23.6090   28.6413 C   0  0  0  0  0  0  0  0  0  0  0  0
  -28.3300  -28.8177   28.5778 C   0  0  0  0  0  0  0  0  0  0  0  0
  -27.6638  -22.6551   29.0224 C   0  0  0  0  0  0  0  0  0  0  0  0
  -28.2781  -19.9340   23.6596 C   0  0  0  0  0  0  0  0  0  0  0  0
  -30.1786  -19.0878   22.4312 C   0  0  0  0  0  0  0  0  0  0  0  0
  -22.3551   -8.1432   21.4884 C   0  0  0  0  0  0  0  0  0  0  0  0
  -27.6893  -21.7910   26.7502 C   0  0  0  0  0  0  0  0  0  0  0  0
  -20.9090   -6.9708   22.9224 C   0  0  0  0  0  0  0  0  0  0  0  0
  -19.4453   -6.8819   25.2956 C   0  0  0  0  0  0  0  0  0  0  0  0
  -21.1720   -5.9790   23.8672 C   0  0  0  0  0  0  0  0  0  0  0  0
  -24.5935  -11.6444   20.6952 C   0  0  0  0  0  0  0  0  0  0  0  0
  -25.2523  -13.7294   20.4628 C   0  0  0  0  0  0  0  0  0  0  0  0
  -30.0286  -16.9015   21.2572 C   0  0  0  0  0  0  0  0  0  0  0  0
  -30.1597  -15.6090   21.6196 C   0  0  0  0  0  0  0  0  0  0  0  0
  -22.9069  -13.4915   21.2943 C   0  0  0  0  0  0  0  0  0  0  0  0
  -30.7654  -14.6542   20.6632 C   0  0  0  0  0  0  0  0  0  0  0  0
  -28.2528  -25.6677   30.5077 C   0  0  0  0  0  0  0  0  0  0  0  0
  -27.7340  -23.4040   32.7724 C   0  0  0  0  0  0  0  0  0  0  0  0
  -27.1271  -20.1272   33.5078 C   0  0  0  0  0  0  0  0  0  0  0  0
  -28.1005  -30.7613   30.2090 C   0  0  0  0  0  0  0  0  0  0  0  0
  -26.1495  -24.5723   29.6518 C   0  0  0  0  0  0  0  0  0  0  0  0
  -28.1870  -22.5763   30.4325 C   0  0  0  0  0  0  0  0  0  0  0  0
  -28.3198  -29.7390   31.3212 C   0  0  0  0  0  0  0  0  0  0  0  0
  -29.5435  -12.4008   18.1560 C   0  0  0  0  0  0  0  0  0  0  0  0
  -29.3561  -28.7030   30.8973 C   0  0  0  0  0  0  0  0  0  0  0  0
  -28.1251  -12.0829   18.6281 C   0  0  0  0  0  0  0  0  0  0  0  0
  -30.4927  -12.5984   19.3335 C   0  0  0  0  0  0  0  0  0  0  0  0
  -28.6162  -13.3245   20.7828 C   0  0  0  0  0  0  0  0  0  0  0  0
  -28.8835  -27.9222   29.6650 C   0  0  1  0  0  0  0  0  0  0  0  0
  -27.0766  -24.7947   30.8428 C   0  0  1  0  0  0  0  0  0  0  0  0
  -27.6227  -13.1455   19.6216 C   0  0  2  0  0  0  0  0  0  0  0  0
  -32.5720  -18.4300   22.7853 C   0  0  0  0  0  0  0  0  0  0  0  0
  -26.7891  -18.5740   35.4497 C   0  0  0  0  0  0  0  0  0  0  0  0
  -30.7327  -23.4566   33.3334 C   0  0  0  0  0  0  0  0  0  0  0  0
  -30.4729  -21.2832   34.5487 C   0  0  0  0  0  0  0  0  0  0  0  0
  -29.2921  -23.3201   35.3731 C   0  0  0  0  0  0  0  0  0  0  0  0
  -24.4010  -19.4084   32.6077 C   0  0  0  0  0  0  0  0  0  0  0  0
  -31.5913  -19.2755   21.9795 C   0  0  0  0  0  0  0  0  0  0  0  0
  -27.6495  -21.0003   24.5077 C   0  0  0  0  0  0  0  0  0  1  0  0
  -28.4847  -22.1889   33.2611 C   0  0  1  0  0  0  0  0  0  0  0  0
  -26.1115  -19.4724   34.4267 C   0  0  2  0  0  0  0  0  0  0  0  0
  -29.7374  -22.5647   34.1019 C   0  0  0  0  0  0  0  0  0  0  0  0
  -25.8492  -11.5509   20.2497 N   0  0  0  0  0  0  0  0  0  0  0  0
  -26.2226  -12.8351   20.1179 N   0  0  0  0  0  0  0  0  0  0  0  0
  -29.9687  -13.5862   20.2747 N   0  0  0  0  0  0  0  0  0  0  0  0
  -27.6134  -23.5438   31.3825 N   0  0  0  0  0  0  0  0  0  0  0  0
  -25.4603  -15.0612   20.3900 N   0  0  0  0  0  0  0  0  0  0  0  0
  -21.9029  -12.5805   21.6498 N   0  0  0  0  0  0  0  0  0  0  0  0
  -27.9077  -26.9227   30.0435 N   0  0  0  0  0  0  0  0  0  0  0  0
  -27.5119  -21.3670   33.9728 N   0  0  0  0  0  0  0  0  0  0  0  0
  -25.1548  -18.6468   33.6367 N   0  3  0  0  0  0  0  0  0  0  0  0
  -22.6713  -14.7217   21.3610 O   0  0  0  0  0  0  0  0  0  0  0  0
  -31.9109  -14.9106   20.3161 O   0  0  0  0  0  0  0  0  0  0  0  0
  -29.3891  -25.2352   30.6603 O   0  0  0  0  0  0  0  0  0  0  0  0
  -27.2654  -24.1961   33.5938 O   0  0  0  0  0  0  0  0  0  0  0  0
  -27.5408  -19.5908   32.4823 O   0  0  0  0  0  0  0  0  0  0  0  0
  -21.6352   -7.0168   21.7442 O   0  0  0  0  0  0  0  0  0  0  0  0
  -28.1711  -20.9090   25.8328 O   0  0  0  0  0  0  0  0  0  1  0  0
  -18.7435   -6.8402   26.4358 F   0  0  0  0  0  0  0  0  0  0  0  0
  -22.1273   -5.0668   23.6410 F   0  0  0  0  0  0  0  0  0  0  0  0
  1  2  1  0  0  0  0
  1  6  2  0  0  0  0
  2  7  2  0  0  0  0
  3 10  2  0  0  0  0
  3 18  1  0  0  0  0
  4 11  1  0  0  0  0
  4 18  2  0  0  0  0
  5  9  2  0  0  0  0
  5 19  1  0  0  0  0
  6 21  1  0  0  0  0
  7 23  1  0  0  0  0
  8 12  2  0  0  0  0
  8 22  1  0  0  0  0
  9 25  1  0  0  0  0
 10 27  1  0  0  0  0
 11 27  2  0  0  0  0
 12 28  1  0  0  0  0
 13 14  2  0  0  0  0
 13 29  1  0  0  0  0
 14 30  1  0  0  0  0
 15 24  1  0  0  0  0
 15 28  2  0  0  0  0
 16 25  2  0  0  0  0
 16 26  1  0  0  0  0
 17 30  2  0  0  0  0
 17 31  1  0  0  0  0
 18 32  1  0  0  0  0
 19 26  2  0  0  0  0
 19 34  1  0  0  0  0
 20 32  1  0  0  0  0
 20 33  2  0  0  0  0
 20 36  1  0  0  0  0
 21 23  2  0  0  0  0
 21 41  1  0  0  0  0
 22 24  2  0  0  0  0
 22 42  1  0  0  0  0
 23 50  1  0  0  0  0
 24 43  1  0  0  0  0
 25 60  1  0  0  0  0
 26 59  1  0  0  0  0
 27 78  1  0  0  0  0
 28 79  1  0  0  0  0
 29 31  2  0  0  0  0
 29 78  1  0  0  0  0
 30 80  1  0  0  0  0
 31 81  1  0  0  0  0
 32 64  2  0  0  0  0
 33 65  1  0  0  0  0
 33 68  1  0  0  0  0
 34 35  2  0  0  0  0
 35 37  1  0  0  0  0
 36 69  1  0  0  0  0
 36 73  2  0  0  0  0
 37 66  1  0  0  0  0
 37 74  2  0  0  0  0
 38 51  1  0  0  0  0
 38 70  1  0  0  0  0
 38 75  2  0  0  0  0
 39 61  1  0  0  0  0
 39 67  1  0  0  0  0
 39 76  2  0  0  0  0
 40 62  1  0  0  0  0
 40 71  1  0  0  0  0
 40 77  2  0  0  0  0
 41 44  1  0  0  0  0
 42 51  1  0  0  0  0
 43 67  1  0  0  0  0
 44 46  1  0  0  0  0
 45 47  1  0  0  0  0
 45 48  1  0  0  0  0
 46 50  1  0  0  0  0
 47 52  1  0  0  0  0
 48 66  1  0  0  0  0
 49 52  1  0  0  0  0
 49 66  1  0  0  0  0
 50 70  1  0  0  0  0
 51 67  1  0  0  0  0
 52 65  1  0  0  0  0
 53 59  1  0  0  0  0
 54 62  1  0  0  0  0
 55 63  1  0  0  0  0
 56 63  1  0  0  0  0
 57 63  1  0  0  0  0
 58 72  1  0  0  0  0
 60 79  1  0  0  0  0
 61 63  1  0  0  0  0
 61 71  1  0  0  0  0
 62 72  1  0  0  0  0
 64 65  1  0  0  0  0
M  CHG  1  72   1
M  ISO  4  35 100  37 100  60 101  79 101
M  END
> <Batch ID>
0125

> <Smiles>
CCc1cc([101CH2:1][101O:1]c2ccc3c(c2)CN(C(=O)C(NC(=O)C(C)NC)C(C)(C)C)C(C(=O)NC2CCCc4ccccc42)C3)ccc1C=[100CH:0][100C:0](=O)N1CCCC(n2nc(-c3ccc(Oc4ccc(F)cc4F)cc3)c(C(N)=O)c2N)C1

> <Shape>
0.182

> <Color>
0.197

> <Negative vol penalty>
0.000

$$$$

  -OEChem-04052302093D

 84 92  0     1  0  0  0  0  0999 V2000
  -28.3437  -36.3557   22.8231 C   0  0  0  0  0  0  0  0  0  0  0  0
  -28.6168  -34.9953   22.7229 C   0  0  0  0  0  0  0  0  0  0  0  0
  -24.0476   -9.7938   22.2611 C   0  0  0  0  0  0  0  0  0  0  0  0
  -24.6320  -11.4297   23.9403 C   0  0  0  0  0  0  0  0  0  0  0  0
  -30.7039  -20.1463   19.0051 C   0  0  0  0  0  0  0  0  0  0  0  0
  -27.0902  -36.7837   23.2582 C   0  0  0  0  0  0  0  0  0  0  0  0
  -27.6368  -34.0620   23.0589 C   0  0  0  0  0  0  0  0  0  0  0  0
  -27.2925  -30.3050   19.6808 C   0  0  0  0  0  0  0  0  0  0  0  0
  -30.4426  -18.7787   18.9216 C   0  0  0  0  0  0  0  0  0  0  0  0
  -23.6689   -8.9005   23.2632 C   0  0  0  0  0  0  0  0  0  0  0  0
  -24.2533  -10.5363   24.9424 C   0  0  0  0  0  0  0  0  0  0  0  0
  -28.2588  -29.3020   19.7433 C   0  0  0  0  0  0  0  0  0  0  0  0
  -21.0123   -8.4213   25.2993 C   0  0  0  0  0  0  0  0  0  0  0  0
  -19.8105   -7.7330   25.1338 C   0  0  0  0  0  0  0  0  0  0  0  0
  -28.3414  -20.5821   19.2613 C   0  0  0  0  0  0  0  0  0  0  0  0
  -26.7037  -27.8857   20.9246 C   0  0  0  0  0  0  0  0  0  0  0  0
  -21.0035   -5.6332   25.2034 C   0  0  0  0  0  0  0  0  0  0  0  0
  -24.5292  -11.0584   22.5997 C   0  0  0  0  0  0  0  0  0  0  0  0
  -29.6533  -21.0480   19.1750 C   0  0  0  0  0  0  0  0  0  0  0  0
  -24.1071  -12.9329   20.9217 C   0  0  0  0  0  0  0  0  0  0  0  0
  -26.0911  -35.8552   23.5904 C   0  0  0  0  0  0  0  0  0  0  0  0
  -26.0260  -30.1096   20.2502 C   0  0  0  0  0  0  0  0  0  0  0  0
  -26.3691  -34.4779   23.5001 C   0  0  0  0  0  0  0  0  0  0  0  0
  -25.7222  -28.8869   20.8657 C   0  0  0  0  0  0  0  0  0  0  0  0
  -28.0800  -19.2145   19.1777 C   0  0  0  0  0  0  0  0  0  0  0  0
  -29.1306  -18.3128   19.0079 C   0  0  0  0  0  0  0  0  0  0  0  0
  -23.7717   -9.2717   24.6038 C   0  0  0  0  0  0  0  0  0  0  0  0
  -27.9655  -28.0932   20.3678 C   0  0  0  0  0  0  0  0  0  0  0  0
  -22.2098   -7.7156   25.4168 C   0  0  0  0  0  0  0  0  0  0  0  0
  -19.8060   -6.3389   25.0859 C   0  0  0  0  0  0  0  0  0  0  0  0
  -22.2053   -6.3216   25.3689 C   0  0  0  0  0  0  0  0  0  0  0  0
  -24.9211  -11.9815   21.5650 C   0  0  0  0  0  0  0  0  0  0  0  0
  -24.9450  -13.5530   20.0272 C   0  0  0  0  0  0  0  0  0  0  0  0
  -29.9301  -22.4927   19.2632 C   0  0  0  0  0  0  0  0  0  0  0  0
  -29.0946  -23.3967   19.7933 C   0  0  0  0  0  0  0  0  0  0  0  0
  -22.7179  -13.2298   21.1153 C   0  0  0  0  0  0  0  0  0  0  0  0
  -29.4660  -24.8412   19.8258 C   0  0  0  0  0  0  0  0  0  0  0  0
  -24.3716  -31.5102   22.5752 C   0  0  0  0  0  0  0  0  0  0  0  0
  -22.0162  -29.5210   21.5666 C   0  0  0  0  0  0  0  0  0  0  0  0
  -21.1503  -26.6260   19.9804 C   0  0  0  0  0  0  0  0  0  0  0  0
  -29.8280  -15.9055   18.7525 C   0  0  0  0  0  0  0  0  0  0  0  0
  -24.7668  -36.3654   24.1011 C   0  0  0  0  0  0  0  0  0  0  0  0
  -24.9857  -31.1915   20.1509 C   0  0  0  0  0  0  0  0  0  0  0  0
  -24.3708  -28.6197   21.4746 C   0  0  0  0  0  0  0  0  0  0  0  0
  -23.6600  -35.3143   24.0798 C   0  0  0  0  0  0  0  0  0  0  0  0
  -29.6299  -12.3576   18.5289 C   0  0  0  0  0  0  0  0  0  0  0  0
  -24.1633  -33.9972   24.6617 C   0  0  0  0  0  0  0  0  0  0  0  0
  -28.3202  -12.0217   19.2460 C   0  0  0  0  0  0  0  0  0  0  0  0
  -30.3611  -13.5198   19.1985 C   0  0  0  0  0  0  0  0  0  0  0  0
  -28.2458  -14.3965   20.1072 C   0  0  0  0  0  0  0  0  0  0  0  0
  -25.3238  -33.4351   23.8317 C   0  0  1  0  0  0  0  0  0  0  0  0
  -23.8999  -31.0761   21.2163 C   0  0  1  0  0  0  0  0  0  0  0  0
  -27.4415  -13.2745   19.4306 C   0  0  2  0  0  0  0  0  0  0  0  0
  -26.0879  -18.3682   17.9121 C   0  0  0  0  0  0  0  0  0  0  0  0
  -19.1501  -25.2502   19.3451 C   0  0  0  0  0  0  0  0  0  0  0  0
  -21.7627  -28.5615   24.4519 C   0  0  0  0  0  0  0  0  0  0  0  0
  -20.4792  -26.5844   23.6083 C   0  0  0  0  0  0  0  0  0  0  0  0
  -19.5852  -28.8879   23.2660 C   0  0  0  0  0  0  0  0  0  0  0  0
  -21.7538  -26.8709   17.0934 C   0  0  0  0  0  0  0  0  0  0  0  0
  -26.6652  -18.7432   19.2733 C   0  0  0  0  0  0  0  0  0  0  0  0
  -28.4405  -25.7643   20.4493 C   0  0  0  0  0  0  0  0  0  1  0  0
  -21.5790  -28.1187   21.9150 C   0  0  1  0  0  0  0  0  0  0  0  0
  -20.1191  -26.3364   18.9047 C   0  0  2  0  0  0  0  0  0  0  0  0
  -20.8777  -28.0436   23.3006 C   0  0  0  0  0  0  0  0  0  0  0  0
  -26.1795  -11.9923   21.1172 N   0  0  0  0  0  0  0  0  0  0  0  0
  -26.1624  -12.9581   20.1829 N   0  0  0  0  0  0  0  0  0  0  0  0
  -23.3895  -29.7109   21.3574 N   0  0  0  0  0  0  0  0  0  0  0  0
  -29.4681  -14.6724   19.3361 N   0  0  0  0  0  0  0  0  0  0  0  0
  -24.7518  -14.5435   19.1306 N   0  0  0  0  0  0  0  0  0  0  0  0
  -22.0057  -12.4978   22.0752 N   0  0  0  0  0  0  0  0  0  0  0  0
  -28.8859  -16.9198   18.9209 N   0  0  0  0  0  0  0  0  0  0  0  0
  -24.8263  -32.8142   22.6228 N   0  0  0  0  0  0  0  0  0  0  0  0
  -20.7544  -27.6599   20.8023 N   0  0  0  0  0  0  0  0  0  0  0  0
  -20.7897  -25.8881   17.6516 N   0  3  0  0  0  0  0  0  0  0  0  0
  -22.1216  -14.1067   20.4452 O   0  0  0  0  0  0  0  0  0  0  0  0
  -30.5330  -25.2507   19.3764 O   0  0  0  0  0  0  0  0  0  0  0  0
  -24.3251  -30.7210   23.5115 O   0  0  0  0  0  0  0  0  0  0  0  0
  -21.1695  -30.4135   21.4762 O   0  0  0  0  0  0  0  0  0  0  0  0
  -22.2002  -25.9955   20.0837 O   0  0  0  0  0  0  0  0  0  0  0  0
  -30.8809  -16.0436   18.1245 O   0  0  0  0  0  0  0  0  0  0  0  0
  -23.4020   -8.4004   25.5818 O   0  0  0  0  0  0  0  0  0  0  0  0
  -28.9071  -27.1128   20.4308 O   0  0  0  0  0  0  0  0  0  1  0  0
  -18.6516   -5.6780   24.9285 F   0  0  0  0  0  0  0  0  0  0  0  0
  -23.3524   -5.6381   25.4824 F   0  0  0  0  0  0  0  0  0  0  0  0
  1  2  1  0  0  0  0
  1  6  2  0  0  0  0
  2  7  2  0  0  0  0
  3 10  2  0  0  0  0
  3 18  1  0  0  0  0
  4 11  1  0  0  0  0
  4 18  2  0  0  0  0
  5  9  2  0  0  0  0
  5 19  1  0  0  0  0
  6 21  1  0  0  0  0
  7 23  1  0  0  0  0
  8 12  2  0  0  0  0
  8 22  1  0  0  0  0
  9 26  1  0  0  0  0
 10 27  1  0  0  0  0
 11 27  2  0  0  0  0
 12 28  1  0  0  0  0
 13 14  2  0  0  0  0
 13 29  1  0  0  0  0
 14 30  1  0  0  0  0
 15 19  2  0  0  0  0
 15 25  1  0  0  0  0
 16 24  1  0  0  0  0
 16 28  2  0  0  0  0
 17 30  2  0  0  0  0
 17 31  1  0  0  0  0
 18 32  1  0  0  0  0
 19 34  1  0  0  0  0
 20 32  1  0  0  0  0
 20 33  2  0  0  0  0
 20 36  1  0  0  0  0
 21 23  2  0  0  0  0
 21 42  1  0  0  0  0
 22 24  2  0  0  0  0
 22 43  1  0  0  0  0
 23 51  1  0  0  0  0
 24 44  1  0  0  0  0
 25 26  2  0  0  0  0
 25 60  1  0  0  0  0
 26 71  1  0  0  0  0
 27 81  1  0  0  0  0
 28 82  1  0  0  0  0
 29 31  2  0  0  0  0
 29 81  1  0  0  0  0
 30 83  1  0  0  0  0
 31 84  1  0  0  0  0
 32 65  2  0  0  0  0
 33 66  1  0  0  0  0
 33 69  1  0  0  0  0
 34 35  2  0  0  0  0
 35 37  1  0  0  0  0
 36 70  1  0  0  0  0
 36 75  2  0  0  0  0
 37 61  1  0  0  0  0
 37 76  2  0  0  0  0
 38 52  1  0  0  0  0
 38 72  1  0  0  0  0
 38 77  2  0  0  0  0
 39 62  1  0  0  0  0
 39 67  1  0  0  0  0
 39 78  2  0  0  0  0
 40 63  1  0  0  0  0
 40 73  1  0  0  0  0
 40 79  2  0  0  0  0
 41 68  1  0  0  0  0
 41 71  1  0  0  0  0
 41 80  2  0  0  0  0
 42 45  1  0  0  0  0
 43 52  1  0  0  0  0
 44 67  1  0  0  0  0
 45 47  1  0  0  0  0
 46 48  1  0  0  0  0
 46 49  1  0  0  0  0
 47 51  1  0  0  0  0
 48 53  1  0  0  0  0
 49 68  1  0  0  0  0
 50 53  1  0  0  0  0
 50 68  1  0  0  0  0
 51 72  1  0  0  0  0
 52 67  1  0  0  0  0
 53 66  1  0  0  0  0
 54 60  1  0  0  0  0
 55 63  1  0  0  0  0
 56 64  1  0  0  0  0
 57 64  1  0  0  0  0
 58 64  1  0  0  0  0
 59 74  1  0  0  0  0
 61 82  1  0  0  0  0
 62 64  1  0  0  0  0
 62 73  1  0  0  0  0
 63 74  1  0  0  0  0
 65 66  1  0  0  0  0
M  CHG  1  74   1
M  ISO  4  41 100  61 101  71 100  82 101
M  END
> <Batch ID>
0125

> <Smiles>
CCc1cc(C=CC(=O)[101CH2:1][101O:1]c2ccc3c(c2)CN(C(=O)C(NC(=O)C(C)NC)C(C)(C)C)C(C(=O)NC2CCCc4ccccc42)C3)ccc1[100NH:0][100C:0](=O)N1CCCC(n2nc(-c3ccc(Oc4ccc(F)cc4F)cc3)c(C(N)=O)c2N)C1

> <Shape>
0.348

> <Color>
0.138

> <Negative vol penalty>
0.000

$$$$

  -OEChem-04052302093D

 85 93  0     1  0  0  0  0  0999 V2000
  -35.6241  -32.2159   24.7171 C   0  0  0  0  0  0  0  0  0  0  0  0
  -34.6538  -31.3013   24.3204 C   0  0  0  0  0  0  0  0  0  0  0  0
  -23.4685   -9.4222   20.5729 C   0  0  0  0  0  0  0  0  0  0  0  0
  -24.0462  -10.0588   22.8308 C   0  0  0  0  0  0  0  0  0  0  0  0
  -35.2442  -33.4291   25.2897 C   0  0  0  0  0  0  0  0  0  0  0  0
  -33.3030  -31.5988   24.4972 C   0  0  0  0  0  0  0  0  0  0  0  0
  -30.5153  -30.4674   20.4237 C   0  0  0  0  0  0  0  0  0  0  0  0
  -22.8604   -8.2633   21.0552 C   0  0  0  0  0  0  0  0  0  0  0  0
  -23.4380   -8.8999   23.3131 C   0  0  0  0  0  0  0  0  0  0  0  0
  -30.1870  -29.1264   20.2292 C   0  0  0  0  0  0  0  0  0  0  0  0
  -19.9362   -7.4107   22.5231 C   0  0  0  0  0  0  0  0  0  0  0  0
  -18.6861   -7.0712   22.0058 C   0  0  0  0  0  0  0  0  0  0  0  0
  -27.9976  -29.5342   21.1562 C   0  0  0  0  0  0  0  0  0  0  0  0
  -29.2420  -19.9663   21.8921 C   0  0  0  0  0  0  0  0  0  0  0  0
  -31.0958  -18.2175   20.7575 C   0  0  0  0  0  0  0  0  0  0  0  0
  -19.5861   -4.9769   21.2054 C   0  0  0  0  0  0  0  0  0  0  0  0
  -24.0615  -10.3200   21.4607 C   0  0  0  0  0  0  0  0  0  0  0  0
  -24.0880  -12.7736   20.7630 C   0  0  0  0  0  0  0  0  0  0  0  0
  -33.8878  -33.7458   25.4647 C   0  0  0  0  0  0  0  0  0  0  0  0
  -29.5894  -31.3509   20.9969 C   0  0  0  0  0  0  0  0  0  0  0  0
  -32.9046  -32.8168   25.0739 C   0  0  0  0  0  0  0  0  0  0  0  0
  -28.3157  -30.8864   21.3545 C   0  0  0  0  0  0  0  0  0  0  0  0
  -28.9212  -18.6185   21.7307 C   0  0  0  0  0  0  0  0  0  0  0  0
  -29.8481  -17.7441   21.1634 C   0  0  0  0  0  0  0  0  0  0  0  0
  -22.8451   -8.0021   22.4253 C   0  0  0  0  0  0  0  0  0  0  0  0
  -28.9291  -28.6589   20.5982 C   0  0  0  0  0  0  0  0  0  0  0  0
  -21.0113   -6.5333   22.3815 C   0  0  0  0  0  0  0  0  0  0  0  0
  -30.4897  -20.4398   21.4862 C   0  0  0  0  0  0  0  0  0  0  0  0
  -18.5110   -5.8543   21.3470 C   0  0  0  0  0  0  0  0  0  0  0  0
  -31.4166  -19.5653   20.9189 C   0  0  0  0  0  0  0  0  0  0  0  0
  -20.8362   -5.3164   21.7227 C   0  0  0  0  0  0  0  0  0  0  0  0
  -24.6904  -11.5170   20.9630 C   0  0  0  0  0  0  0  0  0  0  0  0
  -25.1005  -13.5669   20.2812 C   0  0  0  0  0  0  0  0  0  0  0  0
  -22.7344  -13.1868   20.9924 C   0  0  0  0  0  0  0  0  0  0  0  0
  -29.5134  -33.1178   23.6380 C   0  0  0  0  0  0  0  0  0  0  0  0
  -26.7579  -34.2367   22.3429 C   0  0  0  0  0  0  0  0  0  0  0  0
  -24.1327  -33.7190   20.2246 C   0  0  0  0  0  0  0  0  0  0  0  0
  -30.3608  -15.3851   20.4431 C   0  0  0  0  0  0  0  0  0  0  0  0
  -33.5269  -35.0495   26.1316 C   0  0  0  0  0  0  0  0  0  0  0  0
  -29.9495  -32.8003   21.1753 C   0  0  0  0  0  0  0  0  0  0  0  0
  -27.2786  -31.7988   21.9551 C   0  0  0  0  0  0  0  0  0  0  0  0
  -32.0656  -35.4473   25.9406 C   0  0  0  0  0  0  0  0  0  0  0  0
  -29.7437  -12.3627   18.6651 C   0  0  0  0  0  0  0  0  0  0  0  0
  -31.1491  -34.2578   26.2085 C   0  0  0  0  0  0  0  0  0  0  0  0
  -28.3245  -11.9766   19.0880 C   0  0  0  0  0  0  0  0  0  0  0  0
  -30.5291  -12.9861   19.8176 C   0  0  0  0  0  0  0  0  0  0  0  0
  -28.4469  -13.7298   20.9041 C   0  0  0  0  0  0  0  0  0  0  0  0
  -31.4286  -33.1137   25.2264 C   0  0  1  0  0  0  0  0  0  0  0  0
  -29.1101  -33.4977   22.2414 C   0  0  1  0  0  0  0  0  0  0  0  0
  -27.5956  -13.1573   19.7591 C   0  0  2  0  0  0  0  0  0  0  0  0
  -26.6227  -17.9300   21.0030 C   0  0  0  0  0  0  0  0  0  0  0  0
  -22.0193  -34.7969   19.4066 C   0  0  0  0  0  0  0  0  0  0  0  0
  -25.3801  -33.5235   24.9703 C   0  0  0  0  0  0  0  0  0  0  0  0
  -23.1810  -33.7184   23.7894 C   0  0  0  0  0  0  0  0  0  0  0  0
  -24.6726  -35.7087   23.9810 C   0  0  0  0  0  0  0  0  0  0  0  0
  -25.1032  -33.7698   17.4291 C   0  0  0  0  0  0  0  0  0  0  0  0
  -27.5772  -18.1392   22.1744 C   0  0  0  0  0  0  0  0  0  0  0  0
  -29.1400  -25.0602   20.9583 C   0  0  0  0  0  0  0  0  0  0  0  0
  -30.2503  -24.0204   21.0623 C   0  0  0  0  0  0  0  0  0  0  0  0
  -29.6715  -26.4029   20.4748 C   0  0  0  0  0  0  0  0  0  1  0  0
  -29.7277  -22.6903   21.5864 C   0  0  0  0  0  0  0  0  0  0  0  0
  -25.3047  -33.8329   22.4081 C   0  0  1  0  0  0  0  0  0  0  0  0
  -23.5075  -34.6030   19.1606 C   0  0  2  0  0  0  0  0  0  0  0  0
  -24.6546  -34.1780   23.7777 C   0  0  0  0  0  0  0  0  0  0  0  0
  -25.9851  -11.5078   20.6349 N   0  0  0  0  0  0  0  0  0  0  0  0
  -26.2046  -12.7683   20.2238 N   0  0  0  0  0  0  0  0  0  0  0  0
  -27.6807  -33.2060   22.1154 N   0  0  0  0  0  0  0  0  0  0  0  0
  -29.7792  -14.1003   20.4016 N   0  0  0  0  0  0  0  0  0  0  0  0
  -25.1450  -14.8627   19.9053 N   0  0  0  0  0  0  0  0  0  0  0  0
  -21.8236  -12.2450   21.4901 N   0  0  0  0  0  0  0  0  0  0  0  0
  -29.5413  -16.3715   20.9909 N   0  0  0  0  0  0  0  0  0  0  0  0
  -30.8331  -33.3968   23.9381 N   0  0  0  0  0  0  0  0  0  0  0  0
  -24.6547  -34.4610   21.2629 N   0  0  0  0  0  0  0  0  0  0  0  0
  -23.6855  -33.9949   17.8117 N   0  3  0  0  0  0  0  0  0  0  0  0
  -22.3402  -14.3521   20.7472 O   0  0  0  0  0  0  0  0  0  0  0  0
  -28.6880  -32.6107   24.3885 O   0  0  0  0  0  0  0  0  0  0  0  0
  -27.0623  -35.4241   22.4813 O   0  0  0  0  0  0  0  0  0  0  0  0
  -24.1525  -32.4928   20.1445 O   0  0  0  0  0  0  0  0  0  0  0  0
  -31.4913  -15.6004   19.9987 O   0  0  0  0  0  0  0  0  0  0  0  0
  -22.2515   -6.8715   22.8963 O   0  0  0  0  0  0  0  0  0  0  0  0
  -28.6063  -27.3504   20.4101 O   0  0  0  0  0  0  0  0  0  1  0  0
  -30.8040  -21.7645   21.6453 O   0  0  0  0  0  0  0  0  0  0  0  0
  -17.3101   -5.5277   20.8516 F   0  0  0  0  0  0  0  0  0  0  0  0
  -32.6170  -20.0142   20.5270 F   0  0  0  0  0  0  0  0  0  0  0  0
  -21.8650   -4.4689   21.5846 F   0  0  0  0  0  0  0  0  0  0  0  0
  1  2  1  0  0  0  0
  1  5  2  0  0  0  0
  2  6  2  0  0  0  0
  3  8  2  0  0  0  0
  3 17  1  0  0  0  0
  4  9  1  0  0  0  0
  4 17  2  0  0  0  0
  5 19  1  0  0  0  0
  6 21  1  0  0  0  0
  7 10  2  0  0  0  0
  7 20  1  0  0  0  0
  8 25  1  0  0  0  0
  9 25  2  0  0  0  0
 10 26  1  0  0  0  0
 11 12  2  0  0  0  0
 11 27  1  0  0  0  0
 12 29  1  0  0  0  0
 13 22  1  0  0  0  0
 13 26  2  0  0  0  0
 14 23  1  0  0  0  0
 14 28  2  0  0  0  0
 15 24  1  0  0  0  0
 15 30  2  0  0  0  0
 16 29  2  0  0  0  0
 16 31  1  0  0  0  0
 17 32  1  0  0  0  0
 18 32  1  0  0  0  0
 18 33  2  0  0  0  0
 18 34  1  0  0  0  0
 19 21  2  0  0  0  0
 19 39  1  0  0  0  0
 20 22  2  0  0  0  0
 20 40  1  0  0  0  0
 21 48  1  0  0  0  0
 22 41  1  0  0  0  0
 23 24  2  0  0  0  0
 23 57  1  0  0  0  0
 24 71  1  0  0  0  0
 25 80  1  0  0  0  0
 26 81  1  0  0  0  0
 27 31  2  0  0  0  0
 27 80  1  0  0  0  0
 28 30  1  0  0  0  0
 28 82  1  0  0  0  0
 29 83  1  0  0  0  0
 30 84  1  0  0  0  0
 31 85  1  0  0  0  0
 32 65  2  0  0  0  0
 33 66  1  0  0  0  0
 33 69  1  0  0  0  0
 34 70  1  0  0  0  0
 34 75  2  0  0  0  0
 35 49  1  0  0  0  0
 35 72  1  0  0  0  0
 35 76  2  0  0  0  0
 36 62  1  0  0  0  0
 36 67  1  0  0  0  0
 36 77  2  0  0  0  0
 37 63  1  0  0  0  0
 37 73  1  0  0  0  0
 37 78  2  0  0  0  0
 38 68  1  0  0  0  0
 38 71  1  0  0  0  0
 38 79  2  0  0  0  0
 39 42  1  0  0  0  0
 40 49  1  0  0  0  0
 41 67  1  0  0  0  0
 42 44  1  0  0  0  0
 43 45  1  0  0  0  0
 43 46  1  0  0  0  0
 44 48  1  0  0  0  0
 45 50  1  0  0  0  0
 46 68  1  0  0  0  0
 47 50  1  0  0  0  0
 47 68  1  0  0  0  0
 48 72  1  0  0  0  0
 49 67  1  0  0  0  0
 50 66  1  0  0  0  0
 51 57  1  0  0  0  0
 52 63  1  0  0  0  0
 53 64  1  0  0  0  0
 54 64  1  0  0  0  0
 55 64  1  0  0  0  0
 56 74  1  0  0  0  0
 58 59  1  0  0  0  0
 58 60  1  0  0  0  0
 59 61  1  0  0  0  0
 60 81  1  0  0  0  0
 61 82  1  0  0  0  0
 62 64  1  0  0  0  0
 62 73  1  0  0  0  0
 63 74  1  0  0  0  0
 65 66  1  0  0  0  0
M  CHG  1  74   1
M  ISO  4  38 100  60 101  71 100  81 101
M  END
> <Batch ID>
0125

> <Smiles>
CCc1cc(OCCC[101CH2:1][101O:1]c2ccc3c(c2)CN(C(=O)C(NC(=O)C(C)NC)C(C)(C)C)C(C(=O)NC2CCCc4ccccc42)C3)c(F)cc1[100NH:0][100C:0](=O)N1CCCC(n2nc(-c3ccc(Oc4ccc(F)cc4F)cc3)c(C(N)=O)c2N)C1

> <Shape>
0.247

> <Color>
0.161

> <Negative vol penalty>
0.000

$$$$

  -OEChem-04052302093D

 84 92  0     1  0  0  0  0  0999 V2000
  -20.7654  -22.2991   20.7926 C   0  0  0  0  0  0  0  0  0  0  0  0
  -22.0142  -21.7458   21.0569 C   0  0  0  0  0  0  0  0  0  0  0  0
  -23.2160   -9.8021   19.9458 C   0  0  0  0  0  0  0  0  0  0  0  0
  -23.6113  -10.0152   22.3197 C   0  0  0  0  0  0  0  0  0  0  0  0
  -30.5143  -16.5350   25.2629 C   0  0  0  0  0  0  0  0  0  0  0  0
  -19.9892  -21.7983   19.7483 C   0  0  0  0  0  0  0  0  0  0  0  0
  -22.4871  -20.6906   20.2776 C   0  0  0  0  0  0  0  0  0  0  0  0
  -27.3293  -21.2933   18.9231 C   0  0  0  0  0  0  0  0  0  0  0  0
  -30.5002  -15.1767   24.9458 C   0  0  0  0  0  0  0  0  0  0  0  0
  -22.4699   -8.6458   20.1738 C   0  0  0  0  0  0  0  0  0  0  0  0
  -22.8651   -8.8589   22.5477 C   0  0  0  0  0  0  0  0  0  0  0  0
  -28.2992  -21.0092   19.8835 C   0  0  0  0  0  0  0  0  0  0  0  0
  -21.3667   -5.7636   23.7240 C   0  0  0  0  0  0  0  0  0  0  0  0
  -21.8857   -4.8218   24.6123 C   0  0  0  0  0  0  0  0  0  0  0  0
  -28.6678  -18.8538   18.8647 C   0  0  0  0  0  0  0  0  0  0  0  0
  -32.6329  -15.4139   23.8355 C   0  0  0  0  0  0  0  0  0  0  0  0
  -23.8366   -4.5733   23.2089 C   0  0  0  0  0  0  0  0  0  0  0  0
  -23.7867  -10.4867   21.0187 C   0  0  0  0  0  0  0  0  0  0  0  0
  -31.5876  -17.3327   24.8663 C   0  0  0  0  0  0  0  0  0  0  0  0
  -24.0831  -13.0056   20.7442 C   0  0  0  0  0  0  0  0  0  0  0  0
  -20.4569  -20.7427   18.9497 C   0  0  0  0  0  0  0  0  0  0  0  0
  -27.0131  -20.3539   17.9312 C   0  0  0  0  0  0  0  0  0  0  0  0
  -21.7158  -20.1743   19.2225 C   0  0  0  0  0  0  0  0  0  0  0  0
  -27.6954  -19.1295   17.8914 C   0  0  0  0  0  0  0  0  0  0  0  0
  -31.5595  -14.6162   24.2321 C   0  0  0  0  0  0  0  0  0  0  0  0
  -32.6469  -16.7722   24.1526 C   0  0  0  0  0  0  0  0  0  0  0  0
  -22.2944   -8.1742   21.4747 C   0  0  0  0  0  0  0  0  0  0  0  0
  -28.9666  -19.7881   19.8561 C   0  0  0  0  0  0  0  0  0  0  0  0
  -22.0825   -6.1103   22.5781 C   0  0  0  0  0  0  0  0  0  0  0  0
  -23.1207   -4.2266   24.3548 C   0  0  0  0  0  0  0  0  0  0  0  0
  -23.3175   -5.5151   22.3206 C   0  0  0  0  0  0  0  0  0  0  0  0
  -24.5580  -11.6809   20.7838 C   0  0  0  0  0  0  0  0  0  0  0  0
  -25.2003  -13.7634   20.4910 C   0  0  0  0  0  0  0  0  0  0  0  0
  -30.9450  -19.7015   24.2311 C   0  0  0  0  0  0  0  0  0  0  0  0
  -30.4008  -19.2306   23.1010 C   0  0  0  0  0  0  0  0  0  0  0  0
  -31.5765  -18.7800   25.2184 C   0  0  0  0  0  0  0  0  0  0  0  0
  -22.7513  -13.5062   20.9205 C   0  0  0  0  0  0  0  0  0  0  0  0
  -24.3962  -18.7417   17.1210 C   0  0  0  0  0  0  0  0  0  0  0  0
  -26.2319  -17.7818   14.6248 C   0  0  0  0  0  0  0  0  0  0  0  0
  -29.3582  -17.2562   13.3611 C   0  0  0  0  0  0  0  0  0  0  0  0
  -31.0386  -12.8775   21.4812 C   0  0  0  0  0  0  0  0  0  0  0  0
  -19.5618  -20.2036   17.8621 C   0  0  0  0  0  0  0  0  0  0  0  0
  -25.9834  -20.6864   16.8864 C   0  0  0  0  0  0  0  0  0  0  0  0
  -27.4073  -18.0952   16.8352 C   0  0  0  0  0  0  0  0  0  0  0  0
  -20.2952  -19.3318   16.8461 C   0  0  0  0  0  0  0  0  0  0  0  0
  -29.4737  -13.5353   18.3515 C   0  0  0  0  0  0  0  0  0  0  0  0
  -21.1990  -18.3293   17.5567 C   0  0  0  0  0  0  0  0  0  0  0  0
  -27.9935  -13.2542   18.6164 C   0  0  0  0  0  0  0  0  0  0  0  0
  -30.3770  -12.5686   19.1141 C   0  0  0  0  0  0  0  0  0  0  0  0
  -28.6435  -12.2171   20.8302 C   0  0  0  0  0  0  0  0  0  0  0  0
  -22.2738  -19.0450   18.3837 C   0  0  1  0  0  0  0  0  0  0  0  0
  -25.3772  -19.4498   16.2301 C   0  0  1  0  0  0  0  0  0  0  0  0
  -27.6942  -13.2021   20.1267 C   0  0  2  0  0  0  0  0  0  0  0  0
  -33.8092  -17.6032   23.7162 C   0  0  0  0  0  0  0  0  0  0  0  0
  -30.5393  -16.4303   11.3068 C   0  0  0  0  0  0  0  0  0  0  0  0
  -25.5543  -14.9078   15.3937 C   0  0  0  0  0  0  0  0  0  0  0  0
  -27.4620  -14.1485   13.9610 C   0  0  0  0  0  0  0  0  0  0  0  0
  -25.5389  -15.3611   12.9342 C   0  0  0  0  0  0  0  0  0  0  0  0
  -30.6979  -19.8618   12.9426 C   0  0  0  0  0  0  0  0  0  0  0  0
  -31.5449  -13.1636   23.8939 C   0  0  0  0  0  0  0  0  0  0  0  0
  -29.7521  -20.1062   22.0782 C   0  0  0  0  0  0  0  0  0  1  0  0
  -27.1808  -16.6347   14.3745 C   0  0  1  0  0  0  0  0  0  0  0  0
  -29.9874  -17.6456   12.0356 C   0  0  2  0  0  0  0  0  0  0  0  0
  -26.4383  -15.2815   14.1870 C   0  0  0  0  0  0  0  0  0  0  0  0
  -25.8743  -11.5985   20.5725 N   0  0  0  0  0  0  0  0  0  0  0  0
  -32.0528  -19.1627   26.3603 N   0  0  0  0  0  0  0  0  0  0  0  0
  -26.2360  -12.8809   20.3976 N   0  0  0  0  0  0  0  0  0  0  0  0
  -26.3877  -18.4646   15.8395 N   0  0  0  0  0  0  0  0  0  0  0  0
  -30.0426  -12.5680   20.5403 N   0  0  0  0  0  0  0  0  0  0  0  0
  -25.3879  -15.0918   20.3412 N   0  0  0  0  0  0  0  0  0  0  0  0
  -21.7211  -12.5902   21.1735 N   0  0  0  0  0  0  0  0  0  0  0  0
  -23.3340  -19.5278   17.5251 N   0  0  0  0  0  0  0  0  0  0  0  0
  -28.0043  -17.0271   13.2359 N   0  0  0  0  0  0  0  0  0  0  0  0
  -30.6359  -12.8604   22.8110 N   0  0  0  0  0  0  0  0  0  0  0  0
  -31.1033  -18.6088   12.2551 N   0  3  0  0  0  0  0  0  0  0  0  0
  -22.4799  -14.7283   20.8394 O   0  0  0  0  0  0  0  0  0  0  0  0
  -24.5879  -17.5685   17.4186 O   0  0  0  0  0  0  0  0  0  0  0  0
  -25.3884  -18.0663   13.7709 O   0  0  0  0  0  0  0  0  0  0  0  0
  -30.0039  -17.1610   14.4025 O   0  0  0  0  0  0  0  0  0  0  0  0
  -32.1992  -13.1541   21.1597 O   0  0  0  0  0  0  0  0  0  0  0  0
  -21.5662   -7.0461   21.6976 O   0  0  0  0  0  0  0  0  0  0  0  0
  -29.9132  -19.5080   20.7927 O   0  0  0  0  0  0  0  0  0  1  0  0
  -23.6197   -3.3233   25.2087 F   0  0  0  0  0  0  0  0  0  0  0  0
  -24.0104   -5.8450   21.2220 F   0  0  0  0  0  0  0  0  0  0  0  0
  1  2  1  0  0  0  0
  1  6  2  0  0  0  0
  2  7  2  0  0  0  0
  3 10  2  0  0  0  0
  3 18  1  0  0  0  0
  4 11  1  0  0  0  0
  4 18  2  0  0  0  0
  5  9  2  0  0  0  0
  5 19  1  0  0  0  0
  6 21  1  0  0  0  0
  7 23  1  0  0  0  0
  8 12  2  0  0  0  0
  8 22  1  0  0  0  0
  9 25  1  0  0  0  0
 10 27  1  0  0  0  0
 11 27  2  0  0  0  0
 12 28  1  0  0  0  0
 13 14  2  0  0  0  0
 13 29  1  0  0  0  0
 14 30  1  0  0  0  0
 15 24  1  0  0  0  0
 15 28  2  0  0  0  0
 16 25  2  0  0  0  0
 16 26  1  0  0  0  0
 17 30  2  0  0  0  0
 17 31  1  0  0  0  0
 18 32  1  0  0  0  0
 19 26  2  0  0  0  0
 19 36  1  0  0  0  0
 20 32  1  0  0  0  0
 20 33  2  0  0  0  0
 20 37  1  0  0  0  0
 21 23  2  0  0  0  0
 21 42  1  0  0  0  0
 22 24  2  0  0  0  0
 22 43  1  0  0  0  0
 23 51  1  0  0  0  0
 24 44  1  0  0  0  0
 25 60  1  0  0  0  0
 26 54  1  0  0  0  0
 27 81  1  0  0  0  0
 28 82  1  0  0  0  0
 29 31  2  0  0  0  0
 29 81  1  0  0  0  0
 30 83  1  0  0  0  0
 31 84  1  0  0  0  0
 32 65  2  0  0  0  0
 33 67  1  0  0  0  0
 33 70  1  0  0  0  0
 34 35  2  0  0  0  0
 34 36  1  0  0  0  0
 35 61  1  0  0  0  0
 36 66  2  0  0  0  0
 37 71  1  0  0  0  0
 37 76  2  0  0  0  0
 38 52  1  0  0  0  0
 38 72  1  0  0  0  0
 38 77  2  0  0  0  0
 39 62  1  0  0  0  0
 39 68  1  0  0  0  0
 39 78  2  0  0  0  0
 40 63  1  0  0  0  0
 40 73  1  0  0  0  0
 40 79  2  0  0  0  0
 41 69  1  0  0  0  0
 41 74  1  0  0  0  0
 41 80  2  0  0  0  0
 42 45  1  0  0  0  0
 43 52  1  0  0  0  0
 44 68  1  0  0  0  0
 45 47  1  0  0  0  0
 46 48  1  0  0  0  0
 46 49  1  0  0  0  0
 47 51  1  0  0  0  0
 48 53  1  0  0  0  0
 49 69  1  0  0  0  0
 50 53  1  0  0  0  0
 50 69  1  0  0  0  0
 51 72  1  0  0  0  0
 52 68  1  0  0  0  0
 53 67  1  0  0  0  0
 55 63  1  0  0  0  0
 56 64  1  0  0  0  0
 57 64  1  0  0  0  0
 58 64  1  0  0  0  0
 59 75  1  0  0  0  0
 60 74  1  0  0  0  0
 61 82  1  0  0  0  0
 62 64  1  0  0  0  0
 62 73  1  0  0  0  0
 63 75  1  0  0  0  0
 65 67  1  0  0  0  0
M  CHG  1  75   1
M  ISO  4  41 100  61 101  74 100  82 101
M  END
> <Batch ID>
0125

> <Smiles>
CNC(C)C(=O)NC(C(=O)N1Cc2cc([101O:1][101CH2:1]C=CC(=N)c3ccc(C[100NH:0][100C:0](=O)N4CCCC(n5nc(-c6ccc(Oc7ccc(F)cc7F)cc6)c(C(N)=O)c5N)C4)cc3C)ccc2CC1C(=O)NC1CCCc2ccccc21)C(C)(C)C

> <Shape>
0.176

> <Color>
0.185

> <Negative vol penalty>
0.000

$$$$

  -OEChem-04052302093D

 83 91  0     1  0  0  0  0  0999 V2000
  -30.3588  -25.1376   17.5565 C   0  0  0  0  0  0  0  0  0  0  0  0
  -28.9722  -25.1238   17.6686 C   0  0  0  0  0  0  0  0  0  0  0  0
  -25.5340  -15.5803   18.1496 C   0  0  0  0  0  0  0  0  0  0  0  0
  -23.4764  -15.1836   19.3521 C   0  0  0  0  0  0  0  0  0  0  0  0
  -31.1349  -25.6708   18.5847 C   0  0  0  0  0  0  0  0  0  0  0  0
  -28.3610  -25.6422   18.8097 C   0  0  0  0  0  0  0  0  0  0  0  0
  -23.0046  -28.5973   19.0966 C   0  0  0  0  0  0  0  0  0  0  0  0
  -26.1239  -14.4976   18.8018 C   0  0  0  0  0  0  0  0  0  0  0  0
  -24.0663  -14.1009   20.0043 C   0  0  0  0  0  0  0  0  0  0  0  0
  -21.7193  -28.1784   19.4379 C   0  0  0  0  0  0  0  0  0  0  0  0
  -27.4906  -13.8555   21.8258 C   0  0  0  0  0  0  0  0  0  0  0  0
  -28.7784  -14.0286   22.3328 C   0  0  0  0  0  0  0  0  0  0  0  0
  -22.0675  -28.9663   21.6912 C   0  0  0  0  0  0  0  0  0  0  0  0
  -18.1158  -22.6422   23.8321 C   0  0  0  0  0  0  0  0  0  0  0  0
  -18.7954  -21.3156   21.9308 C   0  0  0  0  0  0  0  0  0  0  0  0
  -19.9002  -23.4130   22.3972 C   0  0  0  0  0  0  0  0  0  0  0  0
  -29.5739  -12.2334   20.9250 C   0  0  0  0  0  0  0  0  0  0  0  0
  -24.2103  -15.9233   18.4248 C   0  0  0  0  0  0  0  0  0  0  0  0
  -22.8934  -17.0193   16.5347 C   0  0  0  0  0  0  0  0  0  0  0  0
  -30.5325  -26.2048   19.7347 C   0  0  0  0  0  0  0  0  0  0  0  0
  -23.8363  -29.1949   20.0544 C   0  0  0  0  0  0  0  0  0  0  0  0
  -29.1298  -26.1818   19.8549 C   0  0  0  0  0  0  0  0  0  0  0  0
  -23.3620  -29.3941   21.3588 C   0  0  0  0  0  0  0  0  0  0  0  0
  -17.9741  -21.5010   23.0428 C   0  0  0  0  0  0  0  0  0  0  0  0
  -19.0789  -23.5983   23.5092 C   0  0  0  0  0  0  0  0  0  0  0  0
  -19.7585  -22.2716   21.6079 C   0  0  0  0  0  0  0  0  0  0  0  0
  -25.3901  -13.7579   19.7292 C   0  0  0  0  0  0  0  0  0  0  0  0
  -21.2517  -28.3603   20.7361 C   0  0  0  0  0  0  0  0  0  0  0  0
  -27.2443  -12.8713   20.8685 C   0  0  0  0  0  0  0  0  0  0  0  0
  -29.8201  -13.2176   21.8823 C   0  0  0  0  0  0  0  0  0  0  0  0
  -28.2860  -12.0603   20.4181 C   0  0  0  0  0  0  0  0  0  0  0  0
  -23.6005  -17.0420   17.7518 C   0  0  0  0  0  0  0  0  0  0  0  0
  -22.5208  -18.3253   16.3297 C   0  0  0  0  0  0  0  0  0  0  0  0
  -22.5995  -15.9163   15.6671 C   0  0  0  0  0  0  0  0  0  0  0  0
  -26.6432  -28.4660   21.3557 C   0  0  0  0  0  0  0  0  0  0  0  0
  -18.6852  -26.5069   22.5071 C   0  0  0  0  0  0  0  0  0  0  0  0
  -26.3244  -31.3865   22.7310 C   0  0  0  0  0  0  0  0  0  0  0  0
  -24.2499  -33.8930   23.7608 C   0  0  0  0  0  0  0  0  0  0  0  0
  -21.5977  -22.9342   20.0190 C   0  0  0  0  0  0  0  0  0  0  0  0
  -31.4149  -26.7273   20.8406 C   0  0  0  0  0  0  0  0  0  0  0  0
  -25.2104  -29.6655   19.6634 C   0  0  0  0  0  0  0  0  0  0  0  0
  -24.2080  -30.0490   22.4189 C   0  0  0  0  0  0  0  0  0  0  0  0
  -30.6733  -27.5974   21.8520 C   0  0  0  0  0  0  0  0  0  0  0  0
  -23.8956  -22.8084   17.3022 C   0  0  0  0  0  0  0  0  0  0  0  0
  -29.3642  -26.9343   22.2683 C   0  0  0  0  0  0  0  0  0  0  0  0
  -24.0117  -21.3138   16.9945 C   0  0  0  0  0  0  0  0  0  0  0  0
  -23.7595  -23.0699   18.8012 C   0  0  0  0  0  0  0  0  0  0  0  0
  -22.7997  -20.8294   19.1586 C   0  0  0  0  0  0  0  0  0  0  0  0
  -28.4287  -26.7574   21.0662 C   0  0  1  0  0  0  0  0  0  0  0  0
  -26.1580  -29.7957   20.8518 C   0  0  1  0  0  0  0  0  0  0  0  0
  -22.8736  -20.5122   17.6561 C   0  0  2  0  0  0  0  0  0  0  0  0
  -16.9442  -20.4789   23.3880 C   0  0  0  0  0  0  0  0  0  0  0  0
  -24.2780  -36.1369   24.8839 C   0  0  0  0  0  0  0  0  0  0  0  0
  -26.7836  -30.0295   25.4250 C   0  0  0  0  0  0  0  0  0  0  0  0
  -25.8729  -32.0807   26.5348 C   0  0  0  0  0  0  0  0  0  0  0  0
  -27.9445  -32.2279   25.1529 C   0  0  0  0  0  0  0  0  0  0  0  0
  -23.0667  -35.2211   21.3954 C   0  0  0  0  0  0  0  0  0  0  0  0
  -19.2323  -24.8336   24.3638 C   0  0  0  0  0  0  0  0  0  0  0  0
  -18.3588  -26.0030   23.9055 C   0  0  0  0  0  0  0  0  0  0  0  0
  -19.7879  -27.5441   22.4234 C   0  0  0  0  0  0  0  0  0  1  0  0
  -25.7126  -31.9048   24.0100 C   0  0  1  0  0  0  0  0  0  0  0  0
  -24.3074  -35.3961   23.5561 C   0  0  2  0  0  0  0  0  0  0  0  0
  -26.5629  -31.5466   25.2615 C   0  0  0  0  0  0  0  0  0  0  0  0
  -23.6743  -18.2654   18.2826 N   0  0  0  0  0  0  0  0  0  0  0  0
  -23.0087  -19.0237   17.3948 N   0  0  0  0  0  0  0  0  0  0  0  0
  -25.5466  -30.4861   21.9892 N   0  0  0  0  0  0  0  0  0  0  0  0
  -22.6592  -22.2803   19.3585 N   0  0  0  0  0  0  0  0  0  0  0  0
  -21.8268  -18.9329   15.3441 N   0  0  0  0  0  0  0  0  0  0  0  0
  -23.0572  -14.6418   16.0283 N   0  0  0  0  0  0  0  0  0  0  0  0
  -20.5929  -22.0833   20.4783 N   0  0  0  0  0  0  0  0  0  0  0  0
  -27.7907  -28.0130   20.7332 N   0  0  0  0  0  0  0  0  0  0  0  0
  -25.5103  -33.3364   23.8149 N   0  0  0  0  0  0  0  0  0  0  0  0
  -23.1484  -35.8521   22.7378 N   0  3  0  0  0  0  0  0  0  0  0  0
  -21.9645  -16.0595   14.5949 O   0  0  0  0  0  0  0  0  0  0  0  0
  -26.0233  -27.8940   22.2447 O   0  0  0  0  0  0  0  0  0  0  0  0
  -18.1216  -26.0804   21.5005 O   0  0  0  0  0  0  0  0  0  0  0  0
  -27.4481  -31.7719   22.3986 O   0  0  0  0  0  0  0  0  0  0  0  0
  -23.1928  -33.2751   23.8661 O   0  0  0  0  0  0  0  0  0  0  0  0
  -21.5679  -24.1614   20.1424 O   0  0  0  0  0  0  0  0  0  0  0  0
  -25.9653  -12.7012   20.3656 O   0  0  0  0  0  0  0  0  0  0  0  0
  -19.9978  -27.9518   21.0721 O   0  0  0  0  0  0  0  0  0  1  0  0
  -31.0571  -13.3850   22.3681 F   0  0  0  0  0  0  0  0  0  0  0  0
  -28.0558  -11.1139   19.4977 F   0  0  0  0  0  0  0  0  0  0  0  0
  1  2  1  0  0  0  0
  1  5  2  0  0  0  0
  2  6  2  0  0  0  0
  3  8  2  0  0  0  0
  3 18  1  0  0  0  0
  4  9  1  0  0  0  0
  4 18  2  0  0  0  0
  5 20  1  0  0  0  0
  6 22  1  0  0  0  0
  7 10  2  0  0  0  0
  7 21  1  0  0  0  0
  8 27  1  0  0  0  0
  9 27  2  0  0  0  0
 10 28  1  0  0  0  0
 11 12  2  0  0  0  0
 11 29  1  0  0  0  0
 12 30  1  0  0  0  0
 13 23  1  0  0  0  0
 13 28  2  0  0  0  0
 14 24  2  0  0  0  0
 14 25  1  0  0  0  0
 15 24  1  0  0  0  0
 15 26  2  0  0  0  0
 16 25  2  0  0  0  0
 16 26  1  0  0  0  0
 17 30  2  0  0  0  0
 17 31  1  0  0  0  0
 18 32  1  0  0  0  0
 19 32  1  0  0  0  0
 19 33  2  0  0  0  0
 19 34  1  0  0  0  0
 20 22  2  0  0  0  0
 20 40  1  0  0  0  0
 21 23  2  0  0  0  0
 21 41  1  0  0  0  0
 22 49  1  0  0  0  0
 23 42  1  0  0  0  0
 24 52  1  0  0  0  0
 25 58  1  0  0  0  0
 26 70  1  0  0  0  0
 27 80  1  0  0  0  0
 28 81  1  0  0  0  0
 29 31  2  0  0  0  0
 29 80  1  0  0  0  0
 30 82  1  0  0  0  0
 31 83  1  0  0  0  0
 32 64  2  0  0  0  0
 33 65  1  0  0  0  0
 33 68  1  0  0  0  0
 34 69  1  0  0  0  0
 34 74  2  0  0  0  0
 35 50  1  0  0  0  0
 35 71  1  0  0  0  0
 35 75  2  0  0  0  0
 36 59  1  0  0  0  0
 36 60  1  0  0  0  0
 36 76  2  0  0  0  0
 37 61  1  0  0  0  0
 37 66  1  0  0  0  0
 37 77  2  0  0  0  0
 38 62  1  0  0  0  0
 38 72  1  0  0  0  0
 38 78  2  0  0  0  0
 39 67  1  0  0  0  0
 39 70  1  0  0  0  0
 39 79  2  0  0  0  0
 40 43  1  0  0  0  0
 41 50  1  0  0  0  0
 42 66  1  0  0  0  0
 43 45  1  0  0  0  0
 44 46  1  0  0  0  0
 44 47  1  0  0  0  0
 45 49  1  0  0  0  0
 46 51  1  0  0  0  0
 47 67  1  0  0  0  0
 48 51  1  0  0  0  0
 48 67  1  0  0  0  0
 49 71  1  0  0  0  0
 50 66  1  0  0  0  0
 51 65  1  0  0  0  0
 53 62  1  0  0  0  0
 54 63  1  0  0  0  0
 55 63  1  0  0  0  0
 56 63  1  0  0  0  0
 57 73  1  0  0  0  0
 58 59  1  0  0  0  0
 60 81  1  0  0  0  0
 61 63  1  0  0  0  0
 61 72  1  0  0  0  0
 62 73  1  0  0  0  0
 64 65  1  0  0  0  0
M  CHG  1  73   1
M  ISO  4  39 100  60 101  70 100  81 101
M  END
> <Batch ID>
0125

> <Smiles>
CNC(C)C(=O)NC(C(=O)N1Cc2cc([101O:1][101CH2:1]C(=O)CCc3cc(C)cc([100NH:0][100C:0](=O)N4CCCC(n5nc(-c6ccc(Oc7ccc(F)cc7F)cc6)c(C(N)=O)c5N)C4)c3)ccc2CC1C(=O)NC1CCCc2ccccc21)C(C)(C)C

> <Shape>
0.260

> <Color>
0.059

> <Negative vol penalty>
0.000

$$$$

  -OEChem-04052302093D

 82 90  0     1  0  0  0  0  0999 V2000
  -46.0837  -15.6192   30.1179 C   0  0  0  0  0  0  0  0  0  0  0  0
  -44.7413  -15.2548   30.1392 C   0  0  0  0  0  0  0  0  0  0  0  0
  -23.2886   -9.7999   19.9128 C   0  0  0  0  0  0  0  0  0  0  0  0
  -23.7408   -9.9398   22.2820 C   0  0  0  0  0  0  0  0  0  0  0  0
  -33.6038  -11.9601   24.7702 C   0  0  0  0  0  0  0  0  0  0  0  0
  -46.4814  -16.7715   29.4410 C   0  0  0  0  0  0  0  0  0  0  0  0
  -43.7955  -16.0431   29.4845 C   0  0  0  0  0  0  0  0  0  0  0  0
  -40.5094  -13.2945   26.7843 C   0  0  0  0  0  0  0  0  0  0  0  0
  -32.8144  -12.2773   23.6649 C   0  0  0  0  0  0  0  0  0  0  0  0
  -22.5629   -8.6270   20.1205 C   0  0  0  0  0  0  0  0  0  0  0  0
  -23.0150   -8.7669   22.4897 C   0  0  0  0  0  0  0  0  0  0  0  0
  -39.4846  -12.6590   27.4841 C   0  0  0  0  0  0  0  0  0  0  0  0
  -19.7685   -7.8544   22.7088 C   0  0  0  0  0  0  0  0  0  0  0  0
  -18.8668   -7.8319   23.7727 C   0  0  0  0  0  0  0  0  0  0  0  0
  -31.6980  -12.2743   26.2215 C   0  0  0  0  0  0  0  0  0  0  0  0
  -37.9654  -14.4215   26.8480 C   0  0  0  0  0  0  0  0  0  0  0  0
  -20.0740   -5.9848   24.7567 C   0  0  0  0  0  0  0  0  0  0  0  0
  -23.8776  -10.4563   20.9935 C   0  0  0  0  0  0  0  0  0  0  0  0
  -33.0456  -11.9586   26.0485 C   0  0  0  0  0  0  0  0  0  0  0  0
  -24.1359  -12.9865   20.7958 C   0  0  0  0  0  0  0  0  0  0  0  0
  -45.5414  -17.5690   28.7695 C   0  0  0  0  0  0  0  0  0  0  0  0
  -40.2722  -14.5059   26.1190 C   0  0  0  0  0  0  0  0  0  0  0  0
  -44.1809  -17.2078   28.7991 C   0  0  0  0  0  0  0  0  0  0  0  0
  -38.9882  -15.0690   26.1382 C   0  0  0  0  0  0  0  0  0  0  0  0
  -30.9086  -12.5916   25.1162 C   0  0  0  0  0  0  0  0  0  0  0  0
  -31.4668  -12.5931   23.8378 C   0  0  0  0  0  0  0  0  0  0  0  0
  -22.4260   -8.1105   21.4090 C   0  0  0  0  0  0  0  0  0  0  0  0
  -38.2131  -13.2240   27.5185 C   0  0  0  0  0  0  0  0  0  0  0  0
  -20.8229   -6.9420   22.6687 C   0  0  0  0  0  0  0  0  0  0  0  0
  -19.0196   -6.8971   24.7967 C   0  0  0  0  0  0  0  0  0  0  0  0
  -20.9756   -6.0073   23.6927 C   0  0  0  0  0  0  0  0  0  0  0  0
  -24.6280  -11.6676   20.7795 C   0  0  0  0  0  0  0  0  0  0  0  0
  -25.2369  -13.7669   20.5404 C   0  0  0  0  0  0  0  0  0  0  0  0
  -33.8795  -11.6236   27.2149 C   0  0  0  0  0  0  0  0  0  0  0  0
  -35.0404  -10.9515   27.1677 C   0  0  0  0  0  0  0  0  0  0  0  0
  -22.8028  -13.4635   21.0216 C   0  0  0  0  0  0  0  0  0  0  0  0
  -41.4022  -17.4656   26.3772 C   0  0  0  0  0  0  0  0  0  0  0  0
  -39.6128  -17.9639   23.7179 C   0  0  0  0  0  0  0  0  0  0  0  0
  -36.9646  -17.0115   21.7874 C   0  0  0  0  0  0  0  0  0  0  0  0
  -31.0980  -12.9547   21.3722 C   0  0  0  0  0  0  0  0  0  0  0  0
  -46.0125  -18.8310   28.0913 C   0  0  0  0  0  0  0  0  0  0  0  0
  -41.3815  -15.1651   25.3462 C   0  0  0  0  0  0  0  0  0  0  0  0
  -38.6766  -16.3576   25.4234 C   0  0  0  0  0  0  0  0  0  0  0  0
  -44.9985  -19.4086   27.1072 C   0  0  0  0  0  0  0  0  0  0  0  0
  -29.4624  -13.6597   18.2892 C   0  0  0  0  0  0  0  0  0  0  0  0
  -43.6067  -19.4381   27.7306 C   0  0  0  0  0  0  0  0  0  0  0  0
  -27.9913  -13.3547   18.5812 C   0  0  0  0  0  0  0  0  0  0  0  0
  -30.3964  -12.6846   19.0037 C   0  0  0  0  0  0  0  0  0  0  0  0
  -28.7045  -12.2551   20.7421 C   0  0  0  0  0  0  0  0  0  0  0  0
  -43.1285  -18.0236   28.0800 C   0  0  1  0  0  0  0  0  0  0  0  0
  -41.1561  -16.6589   25.1338 C   0  0  1  0  0  0  0  0  0  0  0  0
  -27.7273  -13.2509   20.0962 C   0  0  2  0  0  0  0  0  0  0  0  0
  -29.4680  -12.9258   25.3306 C   0  0  0  0  0  0  0  0  0  0  0  0
  -35.7275  -17.6343   19.6948 C   0  0  0  0  0  0  0  0  0  0  0  0
  -38.2989  -20.2912   25.1902 C   0  0  0  0  0  0  0  0  0  0  0  0
  -36.4757  -20.2561   23.4747 C   0  0  0  0  0  0  0  0  0  0  0  0
  -38.8240  -20.7404   22.7866 C   0  0  0  0  0  0  0  0  0  0  0  0
  -37.5621  -14.4048   20.5198 C   0  0  0  0  0  0  0  0  0  0  0  0
  -35.8554  -10.6191   28.3875 C   0  0  0  0  0  0  0  0  0  0  0  0
  -37.2681  -11.1831   28.2916 C   0  0  0  0  0  0  0  0  0  1  0  0
  -38.1879  -18.3856   23.4517 C   0  0  1  0  0  0  0  0  0  0  0  0
  -36.8385  -16.7845   20.2917 C   0  0  2  0  0  0  0  0  0  0  0  0
  -37.9527  -19.8950   23.7410 C   0  0  0  0  0  0  0  0  0  0  0  0
  -25.9394  -11.6096   20.5331 N   0  0  0  0  0  0  0  0  0  0  0  0
  -26.2807  -12.9018   20.3921 N   0  0  0  0  0  0  0  0  0  0  0  0
  -39.7961  -16.9673   24.6869 N   0  0  0  0  0  0  0  0  0  0  0  0
  -30.0905  -12.6420   20.4353 N   0  0  0  0  0  0  0  0  0  0  0  0
  -25.4042  -15.1020   20.4304 N   0  0  0  0  0  0  0  0  0  0  0  0
  -21.7907  -12.5260   21.2693 N   0  0  0  0  0  0  0  0  0  0  0  0
  -30.6817  -12.9124   22.7024 N   0  0  0  0  0  0  0  0  0  0  0  0
  -42.6786  -17.3339   26.8899 N   0  0  0  0  0  0  0  0  0  0  0  0
  -37.8940  -17.9873   22.0793 N   0  0  0  0  0  0  0  0  0  0  0  0
  -36.5385  -15.3524   20.0086 N   0  3  0  0  0  0  0  0  0  0  0  0
  -22.5144  -14.6838   20.9880 O   0  0  0  0  0  0  0  0  0  0  0  0
  -40.5012  -18.1576   26.8367 O   0  0  0  0  0  0  0  0  0  0  0  0
  -40.5288  -18.4940   23.0843 O   0  0  0  0  0  0  0  0  0  0  0  0
  -36.3020  -16.3883   22.6139 O   0  0  0  0  0  0  0  0  0  0  0  0
  -32.2385  -13.2656   21.0192 O   0  0  0  0  0  0  0  0  0  0  0  0
  -21.7177   -6.9661   21.6121 O   0  0  0  0  0  0  0  0  0  0  0  0
  -37.2112  -12.6061   28.2014 O   0  0  0  0  0  0  0  0  0  1  0  0
  -18.1545   -6.8767   25.8192 F   0  0  0  0  0  0  0  0  0  0  0  0
  -21.9873   -5.1290   23.6603 F   0  0  0  0  0  0  0  0  0  0  0  0
  1  2  1  0  0  0  0
  1  6  2  0  0  0  0
  2  7  2  0  0  0  0
  3 10  2  0  0  0  0
  3 18  1  0  0  0  0
  4 11  1  0  0  0  0
  4 18  2  0  0  0  0
  5  9  2  0  0  0  0
  5 19  1  0  0  0  0
  6 21  1  0  0  0  0
  7 23  1  0  0  0  0
  8 12  2  0  0  0  0
  8 22  1  0  0  0  0
  9 26  1  0  0  0  0
 10 27  1  0  0  0  0
 11 27  2  0  0  0  0
 12 28  1  0  0  0  0
 13 14  2  0  0  0  0
 13 29  1  0  0  0  0
 14 30  1  0  0  0  0
 15 19  2  0  0  0  0
 15 25  1  0  0  0  0
 16 24  1  0  0  0  0
 16 28  2  0  0  0  0
 17 30  2  0  0  0  0
 17 31  1  0  0  0  0
 18 32  1  0  0  0  0
 19 34  1  0  0  0  0
 20 32  1  0  0  0  0
 20 33  2  0  0  0  0
 20 36  1  0  0  0  0
 21 23  2  0  0  0  0
 21 41  1  0  0  0  0
 22 24  2  0  0  0  0
 22 42  1  0  0  0  0
 23 50  1  0  0  0  0
 24 43  1  0  0  0  0
 25 26  2  0  0  0  0
 25 53  1  0  0  0  0
 26 70  1  0  0  0  0
 27 79  1  0  0  0  0
 28 80  1  0  0  0  0
 29 31  2  0  0  0  0
 29 79  1  0  0  0  0
 30 81  1  0  0  0  0
 31 82  1  0  0  0  0
 32 64  2  0  0  0  0
 33 65  1  0  0  0  0
 33 68  1  0  0  0  0
 34 35  2  0  0  0  0
 35 59  1  0  0  0  0
 36 69  1  0  0  0  0
 36 74  2  0  0  0  0
 37 51  1  0  0  0  0
 37 71  1  0  0  0  0
 37 75  2  0  0  0  0
 38 61  1  0  0  0  0
 38 66  1  0  0  0  0
 38 76  2  0  0  0  0
 39 62  1  0  0  0  0
 39 72  1  0  0  0  0
 39 77  2  0  0  0  0
 40 67  1  0  0  0  0
 40 70  1  0  0  0  0
 40 78  2  0  0  0  0
 41 44  1  0  0  0  0
 42 51  1  0  0  0  0
 43 66  1  0  0  0  0
 44 46  1  0  0  0  0
 45 47  1  0  0  0  0
 45 48  1  0  0  0  0
 46 50  1  0  0  0  0
 47 52  1  0  0  0  0
 48 67  1  0  0  0  0
 49 52  1  0  0  0  0
 49 67  1  0  0  0  0
 50 71  1  0  0  0  0
 51 66  1  0  0  0  0
 52 65  1  0  0  0  0
 54 62  1  0  0  0  0
 55 63  1  0  0  0  0
 56 63  1  0  0  0  0
 57 63  1  0  0  0  0
 58 73  1  0  0  0  0
 59 60  1  0  0  0  0
 60 80  1  0  0  0  0
 61 63  1  0  0  0  0
 61 72  1  0  0  0  0
 62 73  1  0  0  0  0
 64 65  1  0  0  0  0
M  CHG  1  73   1
M  ISO  4  40 100  60 101  70 100  80 101
M  END
> <Batch ID>
0125

> <Smiles>
CNC(C)C(=O)NC(C(=O)N1Cc2cc([101O:1][101CH2:1]CC=Cc3ccc([100NH:0][100C:0](=O)N4CCCC(n5nc(-c6ccc(Oc7ccc(F)cc7F)cc6)c(C(N)=O)c5N)C4)c(C)c3)ccc2CC1C(=O)NC1CCCc2ccccc21)C(C)(C)C

> <Shape>
0.134

> <Color>
0.182

> <Negative vol penalty>
0.000

$$$$

  -OEChem-04052302093D

 82 90  0     1  0  0  0  0  0999 V2000
  -16.5381  -30.6320   23.8342 C   0  0  0  0  0  0  0  0  0  0  0  0
  -17.8528  -31.0660   23.6977 C   0  0  0  0  0  0  0  0  0  0  0  0
  -25.4897  -16.2872   21.5405 C   0  0  0  0  0  0  0  0  0  0  0  0
  -25.4106  -16.1917   19.1277 C   0  0  0  0  0  0  0  0  0  0  0  0
  -16.2552  -29.2671   23.8634 C   0  0  0  0  0  0  0  0  0  0  0  0
  -18.8856  -30.1351   23.5913 C   0  0  0  0  0  0  0  0  0  0  0  0
  -24.0042  -30.6785   20.2732 C   0  0  0  0  0  0  0  0  0  0  0  0
  -24.2344  -15.6826   21.6056 C   0  0  0  0  0  0  0  0  0  0  0  0
  -24.1553  -15.5870   19.1928 C   0  0  0  0  0  0  0  0  0  0  0  0
  -25.3044  -31.0534   20.6090 C   0  0  0  0  0  0  0  0  0  0  0  0
  -21.2093  -13.8361   22.4149 C   0  0  0  0  0  0  0  0  0  0  0  0
  -21.0335  -12.8044   23.3370 C   0  0  0  0  0  0  0  0  0  0  0  0
  -32.2636  -26.6798   23.2460 C   0  0  0  0  0  0  0  0  0  0  0  0
  -30.9105  -27.2121   21.3166 C   0  0  0  0  0  0  0  0  0  0  0  0
  -25.9112  -28.7292   20.8301 C   0  0  0  0  0  0  0  0  0  0  0  0
  -32.4248  -28.8623   22.2224 C   0  0  0  0  0  0  0  0  0  0  0  0
  -22.7760  -11.5339   22.2477 C   0  0  0  0  0  0  0  0  0  0  0  0
  -26.0778  -16.5418   20.3016 C   0  0  0  0  0  0  0  0  0  0  0  0
  -31.3078  -26.3072   22.3010 C   0  0  0  0  0  0  0  0  0  0  0  0
  -28.6274  -16.5256   20.2178 C   0  0  0  0  0  0  0  0  0  0  0  0
  -17.2840  -28.3190   23.7477 C   0  0  0  0  0  0  0  0  0  0  0  0
  -23.6444  -29.3240   20.2238 C   0  0  0  0  0  0  0  0  0  0  0  0
  -18.6163  -28.7562   23.6203 C   0  0  0  0  0  0  0  0  0  0  0  0
  -24.6065  -28.3396   20.4909 C   0  0  0  0  0  0  0  0  0  0  0  0
  -32.8221  -27.9574   23.2068 C   0  0  0  0  0  0  0  0  0  0  0  0
  -31.4690  -28.4897   21.2773 C   0  0  0  0  0  0  0  0  0  0  0  0
  -23.5672  -15.3324   20.4318 C   0  0  0  0  0  0  0  0  0  0  0  0
  -26.2573  -30.0789   20.8904 C   0  0  0  0  0  0  0  0  0  0  0  0
  -22.1684  -13.7167   21.4091 C   0  0  0  0  0  0  0  0  0  0  0  0
  -21.8168  -11.6533   23.2534 C   0  0  0  0  0  0  0  0  0  0  0  0
  -22.9518  -12.5656   21.3256 C   0  0  0  0  0  0  0  0  0  0  0  0
  -27.3742  -17.1669   20.2337 C   0  0  0  0  0  0  0  0  0  0  0  0
  -29.5373  -17.5520   20.1465 C   0  0  0  0  0  0  0  0  0  0  0  0
  -30.7255  -24.9749   22.3425 C   0  0  0  0  0  0  0  0  0  0  0  0
  -29.5603  -24.6111   21.7656 C   0  0  0  0  0  0  0  0  0  0  0  0
  -28.9408  -15.1273   20.2633 C   0  0  0  0  0  0  0  0  0  0  0  0
  -29.1058  -23.2115   21.8889 C   0  0  0  0  0  0  0  0  0  0  0  0
  -21.5687  -27.4961   21.7903 C   0  0  0  0  0  0  0  0  0  0  0  0
  -22.5056  -25.2603   19.6350 C   0  0  0  0  0  0  0  0  0  0  0  0
  -24.8995  -24.1426   17.4748 C   0  0  0  0  0  0  0  0  0  0  0  0
  -16.9343  -26.8544   23.8320 C   0  0  0  0  0  0  0  0  0  0  0  0
  -22.2447  -28.9353   19.8338 C   0  0  0  0  0  0  0  0  0  0  0  0
  -24.2762  -26.8713   20.4319 C   0  0  0  0  0  0  0  0  0  0  0  0
  -18.0463  -25.9332   23.3368 C   0  0  0  0  0  0  0  0  0  0  0  0
  -30.0407  -22.0194   18.5518 C   0  0  0  0  0  0  0  0  0  0  0  0
  -19.3902  -26.3569   23.9208 C   0  0  0  0  0  0  0  0  0  0  0  0
  -29.5264  -20.5831   18.5982 C   0  0  0  0  0  0  0  0  0  0  0  0
  -29.1498  -22.9718   19.3479 C   0  0  0  0  0  0  0  0  0  0  0  0
  -28.4179  -21.1072   20.8066 C   0  0  0  0  0  0  0  0  0  0  0  0
  -19.7613  -27.7771   23.4772 C   0  0  1  0  0  0  0  0  0  0  0  0
  -21.8554  -27.5412   20.3161 C   0  0  1  0  0  0  0  0  0  0  0  0
  -29.3252  -20.1237   20.0510 C   0  0  1  0  0  0  0  0  0  0  0  0
  -33.8439  -28.3562   24.2174 C   0  0  0  0  0  0  0  0  0  0  0  0
  -25.3958  -22.2670   15.8831 C   0  0  0  0  0  0  0  0  0  0  0  0
  -23.1167  -23.4235   21.9936 C   0  0  0  0  0  0  0  0  0  0  0  0
  -24.4614  -21.9922   20.4408 C   0  0  0  0  0  0  0  0  0  0  0  0
  -22.0163  -22.2962   20.0513 C   0  0  0  0  0  0  0  0  0  0  0  0
  -25.0822  -25.9914   15.1709 C   0  0  0  0  0  0  0  0  0  0  0  0
  -31.0395  -29.4679   20.2133 C   0  0  0  0  0  0  0  0  0  0  0  0
  -29.8480  -30.3374   20.6209 C   0  0  0  0  0  0  0  0  0  0  0  0
  -28.5732  -29.5384   20.8656 C   0  0  0  0  0  0  0  0  0  1  0  0
  -23.5940  -24.2154   19.5830 C   0  0  1  0  0  0  0  0  0  0  0  0
  -24.8143  -23.6638   16.0367 C   0  0  2  0  0  0  0  0  0  0  0  0
  -23.3031  -23.0095   20.5203 C   0  0  0  0  0  0  0  0  0  0  0  0
  -27.4751  -18.4975   20.1772 N   0  0  0  0  0  0  0  0  0  0  0  0
  -28.8026  -18.7008   20.1252 N   0  0  0  0  0  0  0  0  0  0  0  0
  -28.9246  -22.4811   20.7158 N   0  0  0  0  0  0  0  0  0  0  0  0
  -22.8925  -26.5418   20.0520 N   0  0  0  0  0  0  0  0  0  0  0  0
  -30.8863  -17.5747   20.1007 N   0  0  0  0  0  0  0  0  0  0  0  0
  -27.8853  -14.2080   20.3350 N   0  0  0  0  0  0  0  0  0  0  0  0
  -20.2539  -27.7691   22.1164 N   0  0  0  0  0  0  0  0  0  0  0  0
  -23.7482  -23.8563   18.1775 N   0  0  0  0  0  0  0  0  0  0  0  0
  -25.5642  -24.5865   15.1383 N   0  3  0  0  0  0  0  0  0  0  0  0
  -30.1224  -14.7062   20.2576 O   0  0  0  0  0  0  0  0  0  0  0  0
  -28.9094  -22.7754   23.0247 O   0  0  0  0  0  0  0  0  0  0  0  0
  -22.4730  -27.2317   22.5739 O   0  0  0  0  0  0  0  0  0  0  0  0
  -21.3560  -24.9526   19.3105 O   0  0  0  0  0  0  0  0  0  0  0  0
  -25.8899  -24.7102   17.9302 O   0  0  0  0  0  0  0  0  0  0  0  0
  -22.3424  -14.7422   20.4949 O   0  0  0  0  0  0  0  0  0  0  0  0
  -27.5269  -30.4421   21.2191 O   0  0  0  0  0  0  0  0  0  1  0  0
  -21.6489  -10.6633   24.1399 F   0  0  0  0  0  0  0  0  0  0  0  0
  -23.8756  -12.4456   20.3623 F   0  0  0  0  0  0  0  0  0  0  0  0
  1  2  1  0  0  0  0
  1  5  2  0  0  0  0
  2  6  2  0  0  0  0
  3  8  2  0  0  0  0
  3 18  1  0  0  0  0
  4  9  1  0  0  0  0
  4 18  2  0  0  0  0
  5 21  1  0  0  0  0
  6 23  1  0  0  0  0
  7 10  2  0  0  0  0
  7 22  1  0  0  0  0
  8 27  1  0  0  0  0
  9 27  2  0  0  0  0
 10 28  1  0  0  0  0
 11 12  2  0  0  0  0
 11 29  1  0  0  0  0
 12 30  1  0  0  0  0
 13 19  2  0  0  0  0
 13 25  1  0  0  0  0
 14 19  1  0  0  0  0
 14 26  2  0  0  0  0
 15 24  1  0  0  0  0
 15 28  2  0  0  0  0
 16 25  2  0  0  0  0
 16 26  1  0  0  0  0
 17 30  2  0  0  0  0
 17 31  1  0  0  0  0
 18 32  1  0  0  0  0
 19 34  1  0  0  0  0
 20 32  1  0  0  0  0
 20 33  2  0  0  0  0
 20 36  1  0  0  0  0
 21 23  2  0  0  0  0
 21 41  1  0  0  0  0
 22 24  2  0  0  0  0
 22 42  1  0  0  0  0
 23 50  1  0  0  0  0
 24 43  1  0  0  0  0
 25 53  1  0  0  0  0
 26 59  1  0  0  0  0
 27 79  1  0  0  0  0
 28 80  1  0  0  0  0
 29 31  2  0  0  0  0
 29 79  1  0  0  0  0
 30 81  1  0  0  0  0
 31 82  1  0  0  0  0
 32 65  2  0  0  0  0
 33 66  1  0  0  0  0
 33 69  1  0  0  0  0
 34 35  2  0  0  0  0
 35 37  1  0  0  0  0
 36 70  1  0  0  0  0
 36 74  2  0  0  0  0
 37 67  1  0  0  0  0
 37 75  2  0  0  0  0
 38 51  1  0  0  0  0
 38 71  1  0  0  0  0
 38 76  2  0  0  0  0
 39 62  1  0  0  0  0
 39 68  1  0  0  0  0
 39 77  2  0  0  0  0
 40 63  1  0  0  0  0
 40 72  1  0  0  0  0
 40 78  2  0  0  0  0
 41 44  1  0  0  0  0
 42 51  1  0  0  0  0
 43 68  1  0  0  0  0
 44 46  1  0  0  0  0
 45 47  1  0  0  0  0
 45 48  1  0  0  0  0
 46 50  1  0  0  0  0
 47 52  1  0  0  0  0
 48 67  1  0  0  0  0
 49 52  1  0  0  0  0
 49 67  1  0  0  0  0
 50 71  1  0  0  0  0
 51 68  1  0  0  0  0
 52 66  1  0  0  0  0
 54 63  1  0  0  0  0
 55 64  1  0  0  0  0
 56 64  1  0  0  0  0
 57 64  1  0  0  0  0
 58 73  1  0  0  0  0
 59 60  1  0  0  0  0
 60 61  1  0  0  0  0
 61 80  1  0  0  0  0
 62 64  1  0  0  0  0
 62 72  1  0  0  0  0
 63 73  1  0  0  0  0
 65 66  1  0  0  0  0
M  CHG  1  73   1
M  ISO  4  35 100  37 100  61 101  80 101
M  END
> <Batch ID>
0125

> <Smiles>
CNC(C)C(=O)NC(C(=O)N1Cc2cc([101O:1][101CH2:1]CCc3cc(C)cc(C=[100CH:0][100C:0](=O)N4CCCC(n5nc(-c6ccc(Oc7ccc(F)cc7F)cc6)c(C(N)=O)c5N)C4)c3)ccc2CC1C(=O)NC1CCCc2ccccc21)C(C)(C)C

> <Shape>
0.250

> <Color>
0.068

> <Negative vol penalty>
0.000

$$$$

  -OEChem-04052302093D

 87 96  0     1  0  0  0  0  0999 V2000
  -29.8079  -35.1586   19.9657 C   0  0  0  0  0  0  0  0  0  0  0  0
  -28.7679  -34.2935   19.6407 C   0  0  0  0  0  0  0  0  0  0  0  0
  -25.5179  -12.7946   21.7641 C   0  0  0  0  0  0  0  0  0  0  0  0
  -26.1861  -12.9837   19.4501 C   0  0  0  0  0  0  0  0  0  0  0  0
  -31.1230  -34.8121   19.6588 C   0  0  0  0  0  0  0  0  0  0  0  0
  -29.0426  -33.0818   19.0076 C   0  0  0  0  0  0  0  0  0  0  0  0
  -26.4822  -29.2090   21.0300 C   0  0  0  0  0  0  0  0  0  0  0  0
  -25.1996  -11.4516   21.5625 C   0  0  0  0  0  0  0  0  0  0  0  0
  -25.8679  -11.6407   19.2484 C   0  0  0  0  0  0  0  0  0  0  0  0
  -25.1393  -29.0804   20.6780 C   0  0  0  0  0  0  0  0  0  0  0  0
  -22.6627   -9.6681   20.2179 C   0  0  0  0  0  0  0  0  0  0  0  0
  -21.4573   -9.2026   20.7431 C   0  0  0  0  0  0  0  0  0  0  0  0
  -19.8792  -23.4967   21.3857 C   0  0  0  0  0  0  0  0  0  0  0  0
  -17.7659  -24.5841   21.8196 C   0  0  0  0  0  0  0  0  0  0  0  0
  -18.1531  -22.3357   22.6144 C   0  0  0  0  0  0  0  0  0  0  0  0
  -25.7285  -27.3737   19.0782 C   0  0  0  0  0  0  0  0  0  0  0  0
  -22.6634   -7.6014   22.0917 C   0  0  0  0  0  0  0  0  0  0  0  0
  -26.0111  -13.5607   20.7079 C   0  0  0  0  0  0  0  0  0  0  0  0
  -19.0457  -24.6086   21.2654 C   0  0  0  0  0  0  0  0  0  0  0  0
  -19.4329  -22.3602   22.0602 C   0  0  0  0  0  0  0  0  0  0  0  0
  -27.5808  -15.4771   21.3169 C   0  0  0  0  0  0  0  0  0  0  0  0
  -31.4148  -33.5913   19.0303 C   0  0  0  0  0  0  0  0  0  0  0  0
  -27.4612  -28.4274   20.4001 C   0  0  0  0  0  0  0  0  0  0  0  0
  -30.3628  -32.7193   18.6908 C   0  0  0  0  0  0  0  0  0  0  0  0
  -27.0828  -27.4925   19.4259 C   0  0  0  0  0  0  0  0  0  0  0  0
  -17.3196  -23.4476   22.4941 C   0  0  0  0  0  0  0  0  0  0  0  0
  -25.3746  -10.8746   20.3046 C   0  0  0  0  0  0  0  0  0  0  0  0
  -24.7626  -28.1647   19.6999 C   0  0  0  0  0  0  0  0  0  0  0  0
  -23.8685   -9.1003   20.6294 C   0  0  0  0  0  0  0  0  0  0  0  0
  -21.4577   -8.1693   21.6800 C   0  0  0  0  0  0  0  0  0  0  0  0
  -23.8688   -8.0669   21.5663 C   0  0  0  0  0  0  0  0  0  0  0  0
  -26.3395  -14.9482   20.9154 C   0  0  0  0  0  0  0  0  0  0  0  0
  -27.3755  -16.8342   21.3676 C   0  0  0  0  0  0  0  0  0  0  0  0
  -18.7947  -26.1817   19.4759 C   0  0  0  0  0  0  0  0  0  0  0  0
  -19.5190  -25.8139   20.5508 C   0  0  0  0  0  0  0  0  0  0  0  0
  -20.6976  -26.6009   20.9573 C   0  0  0  0  0  0  0  0  0  0  0  0
  -21.2349  -27.5085   20.1078 C   0  0  0  0  0  0  0  0  0  0  0  0
  -20.3022  -21.2008   22.1862 C   0  0  0  0  0  0  0  0  0  0  0  0
  -21.6454  -21.2107   22.0510 C   0  0  0  0  0  0  0  0  0  0  0  0
  -28.8096  -14.8021   21.6170 C   0  0  0  0  0  0  0  0  0  0  0  0
  -22.3920  -19.9477   22.2186 C   0  0  0  0  0  0  0  0  0  0  0  0
  -30.0039  -29.0431   18.5947 C   0  0  0  0  0  0  0  0  0  0  0  0
  -30.4923  -25.8486   18.8767 C   0  0  0  0  0  0  0  0  0  0  0  0
  -29.1712  -22.7558   19.4564 C   0  0  0  0  0  0  0  0  0  0  0  0
  -32.8477  -33.2815   18.6759 C   0  0  0  0  0  0  0  0  0  0  0  0
  -28.9023  -28.5592   20.8102 C   0  0  0  0  0  0  0  0  0  0  0  0
  -28.0928  -26.6152   18.7341 C   0  0  0  0  0  0  0  0  0  0  0  0
  -19.1470  -27.3634   18.6298 C   0  0  0  0  0  0  0  0  0  0  0  0
  -20.6139  -27.7790   18.7531 C   0  0  0  0  0  0  0  0  0  0  0  0
  -33.0884  -31.8115   18.3422 C   0  0  0  0  0  0  0  0  0  0  0  0
  -24.7426  -20.3082   19.4300 C   0  0  0  0  0  0  0  0  0  0  0  0
  -32.0146  -31.2978   17.3883 C   0  0  0  0  0  0  0  0  0  0  0  0
  -25.5013  -18.9863   19.5126 C   0  0  0  0  0  0  0  0  0  0  0  0
  -23.2771  -20.1525   19.8330 C   0  0  0  0  0  0  0  0  0  0  0  0
  -23.8501  -18.2083   21.2586 C   0  0  0  0  0  0  0  0  0  0  0  0
  -30.6227  -31.3849   18.0260 C   0  0  1  0  0  0  0  0  0  0  0  0
  -29.8751  -28.0771   19.7384 C   0  0  1  0  0  0  0  0  0  0  0  0
  -25.3381  -18.3511   20.9026 C   0  0  1  0  0  0  0  0  0  0  0  0
  -15.9515  -23.4214   23.0875 C   0  0  0  0  0  0  0  0  0  0  0  0
  -21.2316  -26.3288   22.3417 C   0  0  0  0  0  0  0  0  0  0  0  0
  -29.8111  -20.3327   19.5841 C   0  0  0  0  0  0  0  0  0  0  0  0
  -30.6338  -25.7280   15.8312 C   0  0  0  0  0  0  0  0  0  0  0  0
  -30.3172  -23.2492   15.9842 C   0  0  0  0  0  0  0  0  0  0  0  0
  -32.3259  -24.3140   17.0109 C   0  0  0  0  0  0  0  0  0  0  0  0
  -28.3304  -22.5632   22.2875 C   0  0  0  0  0  0  0  0  0  0  0  0
  -22.4842  -28.3078   20.3665 C   0  0  0  0  0  0  0  0  0  1  0  0
  -30.0646  -24.6288   18.0969 C   0  0  1  0  0  0  0  0  0  0  0  0
  -29.6175  -21.6238   20.3641 C   0  0  2  0  0  0  0  0  0  0  0  0
  -30.8163  -24.4977   16.7423 C   0  0  0  0  0  0  0  0  0  0  0  0
  -25.4141  -15.8923   20.7248 N   0  0  0  0  0  0  0  0  0  0  0  0
  -26.0743  -17.0281   21.0078 N   0  0  0  0  0  0  0  0  0  0  0  0
  -23.1456  -19.4898   21.1392 N   0  0  0  0  0  0  0  0  0  0  0  0
  -29.4901  -26.7857   19.1653 N   0  0  0  0  0  0  0  0  0  0  0  0
  -28.1828  -17.8687   21.6846 N   0  0  0  0  0  0  0  0  0  0  0  0
  -28.8466  -13.4048   21.5143 N   0  0  0  0  0  0  0  0  0  0  0  0
  -30.4298  -30.3035   18.9681 N   0  0  0  0  0  0  0  0  0  0  0  0
  -30.2417  -23.4898   18.9912 N   0  0  0  0  0  0  0  0  0  0  0  0
  -28.6025  -21.3823   21.4283 N   0  3  0  0  0  0  0  0  0  0  0  0
  -29.8394  -15.4184   21.9818 O   0  0  0  0  0  0  0  0  0  0  0  0
  -22.2988  -19.3718   23.3041 O   0  0  0  0  0  0  0  0  0  0  0  0
  -29.7381  -28.6719   17.4575 O   0  0  0  0  0  0  0  0  0  0  0  0
  -31.6706  -25.9623   19.2233 O   0  0  0  0  0  0  0  0  0  0  0  0
  -27.9911  -22.9655   19.1842 O   0  0  0  0  0  0  0  0  0  0  0  0
  -25.0644   -9.5641   20.1076 O   0  0  0  0  0  0  0  0  0  0  0  0
  -23.4527  -28.0375   19.3538 O   0  0  0  0  0  0  0  0  0  1  0  0
  -20.3002   -7.7233   22.1855 F   0  0  0  0  0  0  0  0  0  0  0  0
  -25.0241   -7.5182   21.9665 F   0  0  0  0  0  0  0  0  0  0  0  0
  1  2  1  0  0  0  0
  1  5  2  0  0  0  0
  2  6  2  0  0  0  0
  3  8  2  0  0  0  0
  3 18  1  0  0  0  0
  4  9  1  0  0  0  0
  4 18  2  0  0  0  0
  5 22  1  0  0  0  0
  6 24  1  0  0  0  0
  7 10  2  0  0  0  0
  7 23  1  0  0  0  0
  8 27  1  0  0  0  0
  9 27  2  0  0  0  0
 10 28  1  0  0  0  0
 11 12  2  0  0  0  0
 11 29  1  0  0  0  0
 12 30  1  0  0  0  0
 13 19  2  0  0  0  0
 13 20  1  0  0  0  0
 14 19  1  0  0  0  0
 14 26  2  0  0  0  0
 15 20  2  0  0  0  0
 15 26  1  0  0  0  0
 16 25  1  0  0  0  0
 16 28  2  0  0  0  0
 17 30  2  0  0  0  0
 17 31  1  0  0  0  0
 18 32  1  0  0  0  0
 19 35  1  0  0  0  0
 20 38  1  0  0  0  0
 21 32  1  0  0  0  0
 21 33  2  0  0  0  0
 21 40  1  0  0  0  0
 22 24  2  0  0  0  0
 22 45  1  0  0  0  0
 23 25  2  0  0  0  0
 23 46  1  0  0  0  0
 24 56  1  0  0  0  0
 25 47  1  0  0  0  0
 26 59  1  0  0  0  0
 27 84  1  0  0  0  0
 28 85  1  0  0  0  0
 29 31  2  0  0  0  0
 29 84  1  0  0  0  0
 30 86  1  0  0  0  0
 31 87  1  0  0  0  0
 32 70  2  0  0  0  0
 33 71  1  0  0  0  0
 33 74  1  0  0  0  0
 34 35  2  0  0  0  0
 34 48  1  0  0  0  0
 35 36  1  0  0  0  0
 36 37  2  0  0  0  0
 36 60  1  0  0  0  0
 37 49  1  0  0  0  0
 37 66  1  0  0  0  0
 38 39  2  0  0  0  0
 39 41  1  0  0  0  0
 40 75  1  0  0  0  0
 40 79  2  0  0  0  0
 41 72  1  0  0  0  0
 41 80  2  0  0  0  0
 42 57  1  0  0  0  0
 42 76  1  0  0  0  0
 42 81  2  0  0  0  0
 43 67  1  0  0  0  0
 43 73  1  0  0  0  0
 43 82  2  0  0  0  0
 44 68  1  0  0  0  0
 44 77  1  0  0  0  0
 44 83  2  0  0  0  0
 45 50  1  0  0  0  0
 46 57  1  0  0  0  0
 47 73  1  0  0  0  0
 48 49  1  0  0  0  0
 50 52  1  0  0  0  0
 51 53  1  0  0  0  0
 51 54  1  0  0  0  0
 52 56  1  0  0  0  0
 53 58  1  0  0  0  0
 54 72  1  0  0  0  0
 55 58  1  0  0  0  0
 55 72  1  0  0  0  0
 56 76  1  0  0  0  0
 57 73  1  0  0  0  0
 58 71  1  0  0  0  0
 61 68  1  0  0  0  0
 62 69  1  0  0  0  0
 63 69  1  0  0  0  0
 64 69  1  0  0  0  0
 65 78  1  0  0  0  0
 66 85  1  0  0  0  0
 67 69  1  0  0  0  0
 67 77  1  0  0  0  0
 68 78  1  0  0  0  0
 70 71  1  0  0  0  0
M  CHG  1  78   1
M  ISO  4  39 100  41 100  66 101  85 101
M  END
> <Batch ID>
0125

> <Smiles>
CNC(C)C(=O)NC(C(=O)N1Cc2cc([101O:1][101CH2:1]C3=C(C)C(c4cc(C)cc(C=[100CH:0][100C:0](=O)N5CCCC(n6nc(-c7ccc(Oc8ccc(F)cc8F)cc7)c(C(N)=O)c6N)C5)c4)=CCC3)ccc2CC1C(=O)NC1CCCc2ccccc21)C(C)(C)C

> <Shape>
0.231

> <Color>
0.067

> <Negative vol penalty>
0.000

$$$$

  -OEChem-04052302093D

 83 91  0     1  0  0  0  0  0999 V2000
  -31.6308  -12.1878   21.8797 C   0  0  0  0  0  0  0  0  0  0  0  0
  -31.2574  -13.4897   22.1974 C   0  0  0  0  0  0  0  0  0  0  0  0
  -27.1779  -25.4663   17.3778 C   0  0  0  0  0  0  0  0  0  0  0  0
  -28.4488  -26.3744   19.2210 C   0  0  0  0  0  0  0  0  0  0  0  0
  -31.8931  -23.4878   25.9860 C   0  0  0  0  0  0  0  0  0  0  0  0
  -30.9039  -11.4665   20.9335 C   0  0  0  0  0  0  0  0  0  0  0  0
  -30.1574  -14.0716   21.5681 C   0  0  0  0  0  0  0  0  0  0  0  0
  -27.1405  -16.5290   24.8092 C   0  0  0  0  0  0  0  0  0  0  0  0
  -33.2762  -23.6052   25.8487 C   0  0  0  0  0  0  0  0  0  0  0  0
  -26.3295  -26.5727   17.4177 C   0  0  0  0  0  0  0  0  0  0  0  0
  -27.6004  -27.4808   19.2608 C   0  0  0  0  0  0  0  0  0  0  0  0
  -27.5556  -17.7904   25.2340 C   0  0  0  0  0  0  0  0  0  0  0  0
  -24.5175  -28.2152   20.4387 C   0  0  0  0  0  0  0  0  0  0  0  0
  -24.0622  -28.6381   21.6874 C   0  0  0  0  0  0  0  0  0  0  0  0
  -26.0591  -18.8124   23.6417 C   0  0  0  0  0  0  0  0  0  0  0  0
  -33.3577  -21.4267   24.8072 C   0  0  0  0  0  0  0  0  0  0  0  0
  -25.0970  -30.7927   21.3351 C   0  0  0  0  0  0  0  0  0  0  0  0
  -28.2375  -25.3671   18.2795 C   0  0  0  0  0  0  0  0  0  0  0  0
  -31.2423  -22.3398   25.5340 C   0  0  0  0  0  0  0  0  0  0  0  0
  -30.2982  -24.0869   17.4905 C   0  0  0  0  0  0  0  0  0  0  0  0
  -29.7887  -12.0364   20.2994 C   0  0  0  0  0  0  0  0  0  0  0  0
  -26.1880  -16.3996   23.7882 C   0  0  0  0  0  0  0  0  0  0  0  0
  -29.4157  -13.3577   20.6116 C   0  0  0  0  0  0  0  0  0  0  0  0
  -25.6318  -17.5483   23.2076 C   0  0  0  0  0  0  0  0  0  0  0  0
  -34.0085  -22.5746   25.2593 C   0  0  0  0  0  0  0  0  0  0  0  0
  -31.9745  -21.3093   24.9445 C   0  0  0  0  0  0  0  0  0  0  0  0
  -26.5408  -27.5800   18.3592 C   0  0  0  0  0  0  0  0  0  0  0  0
  -27.0170  -18.9323   24.6483 C   0  0  0  0  0  0  0  0  0  0  0  0
  -25.2626  -29.0810   19.6381 C   0  0  0  0  0  0  0  0  0  0  0  0
  -24.3519  -29.9268   22.1356 C   0  0  0  0  0  0  0  0  0  0  0  0
  -25.5523  -30.3698   20.0863 C   0  0  0  0  0  0  0  0  0  0  0  0
  -29.1139  -24.2241   18.2392 C   0  0  0  0  0  0  0  0  0  0  0  0
  -30.7544  -22.8282   17.7971 C   0  0  0  0  0  0  0  0  0  0  0  0
  -29.7816  -22.2463   25.6937 C   0  0  0  0  0  0  0  0  0  0  0  0
  -28.8771  -22.6809   24.8023 C   0  0  0  0  0  0  0  0  0  0  0  0
  -30.9295  -25.0143   16.5977 C   0  0  0  0  0  0  0  0  0  0  0  0
  -26.1774  -15.1167   20.8799 C   0  0  0  0  0  0  0  0  0  0  0  0
  -23.0184  -15.8447   20.9947 C   0  0  0  0  0  0  0  0  0  0  0  0
  -20.5364  -17.7744   22.3223 C   0  0  0  0  0  0  0  0  0  0  0  0
  -29.9664  -19.2464   22.5301 C   0  0  0  0  0  0  0  0  0  0  0  0
  -29.0625  -11.2343   19.2487 C   0  0  0  0  0  0  0  0  0  0  0  0
  -25.7312  -15.0320   23.3598 C   0  0  0  0  0  0  0  0  0  0  0  0
  -24.5913  -17.4637   22.1219 C   0  0  0  0  0  0  0  0  0  0  0  0
  -27.6844  -11.7915   18.9015 C   0  0  0  0  0  0  0  0  0  0  0  0
  -29.2008  -18.5047   19.1330 C   0  0  0  0  0  0  0  0  0  0  0  0
  -27.7562  -13.3006   18.6910 C   0  0  0  0  0  0  0  0  0  0  0  0
  -29.1986  -19.8740   18.4512 C   0  0  0  0  0  0  0  0  0  0  0  0
  -28.6361  -18.5789   20.5499 C   0  0  0  0  0  0  0  0  0  0  0  0
  -29.2748  -20.9517   20.7384 C   0  0  0  0  0  0  0  0  0  0  0  0
  -28.2136  -14.0147   19.9687 C   0  0  1  0  0  0  0  0  0  0  0  0
  -25.1339  -15.0141   21.9561 C   0  0  1  0  0  0  0  0  0  0  0  0
  -29.8871  -20.9378   19.3273 C   0  0  2  0  0  0  0  0  0  0  0  0
  -35.4870  -22.7004   25.1107 C   0  0  0  0  0  0  0  0  0  0  0  0
  -18.0605  -18.1629   22.1927 C   0  0  0  0  0  0  0  0  0  0  0  0
  -23.3913  -17.3238   18.3521 C   0  0  0  0  0  0  0  0  0  0  0  0
  -21.1958  -18.4571   18.7568 C   0  0  0  0  0  0  0  0  0  0  0  0
  -21.2897  -15.9769   18.5062 C   0  0  0  0  0  0  0  0  0  0  0  0
  -20.1586  -17.0640   25.1703 C   0  0  0  0  0  0  0  0  0  0  0  0
  -31.3107  -20.0648   24.4491 C   0  0  0  0  0  0  0  0  0  0  0  0
  -27.3911  -22.5767   25.0117 C   0  0  0  0  0  0  0  0  0  0  0  0
  -26.8275  -21.2916   24.4170 C   0  0  0  0  0  0  0  0  0  1  0  0
  -22.1833  -17.0442   20.6168 C   0  0  1  0  0  0  0  0  0  0  0  0
  -19.1794  -17.4135   22.8993 C   0  0  2  0  0  0  0  0  0  0  0  0
  -22.0360  -17.2024   19.0771 C   0  0  0  0  0  0  0  0  0  0  0  0
  -28.8352  -23.1391   18.9666 N   0  0  0  0  0  0  0  0  0  0  0  0
  -29.8507  -22.3081   18.6763 N   0  0  0  0  0  0  0  0  0  0  0  0
  -24.1818  -16.1040   21.7330 N   0  0  0  0  0  0  0  0  0  0  0  0
  -29.3331  -19.6053   21.3288 N   0  0  0  0  0  0  0  0  0  0  0  0
  -31.8363  -22.1266   17.3977 N   0  0  0  0  0  0  0  0  0  0  0  0
  -30.3270  -26.2637   16.3966 N   0  0  0  0  0  0  0  0  0  0  0  0
  -27.1216  -14.1084   20.9138 N   0  0  0  0  0  0  0  0  0  0  0  0
  -20.9169  -16.8998   21.3265 N   0  0  0  0  0  0  0  0  0  0  0  0
  -30.6092  -20.2784   23.2029 N   0  0  0  0  0  0  0  0  0  0  0  0
  -19.1274  -17.7501   24.3501 N   0  3  0  0  0  0  0  0  0  0  0  0
  -31.9874  -24.7369   15.9835 O   0  0  0  0  0  0  0  0  0  0  0  0
  -26.1286  -16.0414   20.0773 O   0  0  0  0  0  0  0  0  0  0  0  0
  -22.6483  -14.7185   20.6537 O   0  0  0  0  0  0  0  0  0  0  0  0
  -21.1914  -18.7381   22.7131 O   0  0  0  0  0  0  0  0  0  0  0  0
  -29.9641  -18.0908   22.9678 O   0  0  0  0  0  0  0  0  0  0  0  0
  -25.7132  -28.6600   18.3982 O   0  0  0  0  0  0  0  0  0  0  0  0
  -27.4208  -20.1647   25.0606 O   0  0  0  0  0  0  0  0  0  1  0  0
  -23.9133  -30.3333   23.3342 F   0  0  0  0  0  0  0  0  0  0  0  0
  -26.2666  -31.2064   19.3211 F   0  0  0  0  0  0  0  0  0  0  0  0
  1  2  1  0  0  0  0
  1  6  2  0  0  0  0
  2  7  2  0  0  0  0
  3 10  2  0  0  0  0
  3 18  1  0  0  0  0
  4 11  1  0  0  0  0
  4 18  2  0  0  0  0
  5  9  2  0  0  0  0
  5 19  1  0  0  0  0
  6 21  1  0  0  0  0
  7 23  1  0  0  0  0
  8 12  2  0  0  0  0
  8 22  1  0  0  0  0
  9 25  1  0  0  0  0
 10 27  1  0  0  0  0
 11 27  2  0  0  0  0
 12 28  1  0  0  0  0
 13 14  2  0  0  0  0
 13 29  1  0  0  0  0
 14 30  1  0  0  0  0
 15 24  1  0  0  0  0
 15 28  2  0  0  0  0
 16 25  2  0  0  0  0
 16 26  1  0  0  0  0
 17 30  2  0  0  0  0
 17 31  1  0  0  0  0
 18 32  1  0  0  0  0
 19 26  2  0  0  0  0
 19 34  1  0  0  0  0
 20 32  1  0  0  0  0
 20 33  2  0  0  0  0
 20 36  1  0  0  0  0
 21 23  2  0  0  0  0
 21 41  1  0  0  0  0
 22 24  2  0  0  0  0
 22 42  1  0  0  0  0
 23 50  1  0  0  0  0
 24 43  1  0  0  0  0
 25 53  1  0  0  0  0
 26 59  1  0  0  0  0
 27 80  1  0  0  0  0
 28 81  1  0  0  0  0
 29 31  2  0  0  0  0
 29 80  1  0  0  0  0
 30 82  1  0  0  0  0
 31 83  1  0  0  0  0
 32 65  2  0  0  0  0
 33 66  1  0  0  0  0
 33 69  1  0  0  0  0
 34 35  2  0  0  0  0
 35 60  1  0  0  0  0
 36 70  1  0  0  0  0
 36 75  2  0  0  0  0
 37 51  1  0  0  0  0
 37 71  1  0  0  0  0
 37 76  2  0  0  0  0
 38 62  1  0  0  0  0
 38 67  1  0  0  0  0
 38 77  2  0  0  0  0
 39 63  1  0  0  0  0
 39 72  1  0  0  0  0
 39 78  2  0  0  0  0
 40 68  1  0  0  0  0
 40 73  1  0  0  0  0
 40 79  2  0  0  0  0
 41 44  1  0  0  0  0
 42 51  1  0  0  0  0
 43 67  1  0  0  0  0
 44 46  1  0  0  0  0
 45 47  1  0  0  0  0
 45 48  1  0  0  0  0
 46 50  1  0  0  0  0
 47 52  1  0  0  0  0
 48 68  1  0  0  0  0
 49 52  1  0  0  0  0
 49 68  1  0  0  0  0
 50 71  1  0  0  0  0
 51 67  1  0  0  0  0
 52 66  1  0  0  0  0
 54 63  1  0  0  0  0
 55 64  1  0  0  0  0
 56 64  1  0  0  0  0
 57 64  1  0  0  0  0
 58 74  1  0  0  0  0
 59 73  1  0  0  0  0
 60 61  1  0  0  0  0
 61 81  1  0  0  0  0
 62 64  1  0  0  0  0
 62 72  1  0  0  0  0
 63 74  1  0  0  0  0
 65 66  1  0  0  0  0
M  CHG  1  74   1
M  ISO  4  40 100  61 101  73 100  81 101
M  END
> <Batch ID>
0125

> <Smiles>
CNC(C)C(=O)NC(C(=O)N1Cc2cc([101O:1][101CH2:1]CC=Cc3ccc(C)cc3C[100NH:0][100C:0](=O)N3CCCC(n4nc(-c5ccc(Oc6ccc(F)cc6F)cc5)c(C(N)=O)c4N)C3)ccc2CC1C(=O)NC1CCCc2ccccc21)C(C)(C)C

> <Shape>
0.185

> <Color>
0.073

> <Negative vol penalty>
0.000

$$$$

  -OEChem-04052302093D

 84 92  0     1  0  0  0  0  0999 V2000
  -21.3898  -27.6687   22.5062 C   0  0  0  0  0  0  0  0  0  0  0  0
  -22.4059  -26.8191   22.9319 C   0  0  0  0  0  0  0  0  0  0  0  0
  -23.0069  -10.0068   19.9440 C   0  0  0  0  0  0  0  0  0  0  0  0
  -23.8130   -9.9299   22.2203 C   0  0  0  0  0  0  0  0  0  0  0  0
  -21.6931  -28.7721   21.7097 C   0  0  0  0  0  0  0  0  0  0  0  0
  -23.7259  -27.0718   22.5602 C   0  0  0  0  0  0  0  0  0  0  0  0
  -26.9613  -26.5733   26.4240 C   0  0  0  0  0  0  0  0  0  0  0  0
  -22.2328   -8.8707   20.1798 C   0  0  0  0  0  0  0  0  0  0  0  0
  -23.0389   -8.7938   22.4561 C   0  0  0  0  0  0  0  0  0  0  0  0
  -27.3203  -25.2770   26.7906 C   0  0  0  0  0  0  0  0  0  0  0  0
  -19.8004   -8.0793   23.1058 C   0  0  0  0  0  0  0  0  0  0  0  0
  -19.0665   -8.0316   24.2910 C   0  0  0  0  0  0  0  0  0  0  0  0
  -32.1700  -18.0929   24.2227 C   0  0  0  0  0  0  0  0  0  0  0  0
  -29.3888  -25.5115   25.5717 C   0  0  0  0  0  0  0  0  0  0  0  0
  -32.2513  -16.3824   22.5184 C   0  0  0  0  0  0  0  0  0  0  0  0
  -20.2618   -6.0383   24.9509 C   0  0  0  0  0  0  0  0  0  0  0  0
  -23.7971  -10.5364   20.9642 C   0  0  0  0  0  0  0  0  0  0  0  0
  -30.7804  -18.1386   24.1107 C   0  0  0  0  0  0  0  0  0  0  0  0
  -24.2147  -13.0522   20.9022 C   0  0  0  0  0  0  0  0  0  0  0  0
  -23.0187  -29.0439   21.3361 C   0  0  0  0  0  0  0  0  0  0  0  0
  -27.8099  -27.3458   25.6180 C   0  0  0  0  0  0  0  0  0  0  0  0
  -24.0471  -28.1791   21.7568 C   0  0  0  0  0  0  0  0  0  0  0  0
  -29.0394  -26.8182   25.1983 C   0  0  0  0  0  0  0  0  0  0  0  0
  -30.1262  -17.3062   23.2025 C   0  0  0  0  0  0  0  0  0  0  0  0
  -30.8617  -16.4281   22.4064 C   0  0  0  0  0  0  0  0  0  0  0  0
  -22.2488   -8.2642   21.4358 C   0  0  0  0  0  0  0  0  0  0  0  0
  -28.5329  -24.7448   26.3621 C   0  0  0  0  0  0  0  0  0  0  0  0
  -20.7650   -7.1065   22.8431 C   0  0  0  0  0  0  0  0  0  0  0  0
  -19.2972   -7.0111   25.2135 C   0  0  0  0  0  0  0  0  0  0  0  0
  -32.9055  -17.2148   23.4266 C   0  0  0  0  0  0  0  0  0  0  0  0
  -20.9957   -6.0861   23.7656 C   0  0  0  0  0  0  0  0  0  0  0  0
  -24.5974  -11.7096   20.7211 C   0  0  0  0  0  0  0  0  0  0  0  0
  -25.3220  -13.7773   20.5354 C   0  0  0  0  0  0  0  0  0  0  0  0
  -30.0359  -19.0791   24.9666 C   0  0  0  0  0  0  0  0  0  0  0  0
  -30.2176  -20.4070   24.9758 C   0  0  0  0  0  0  0  0  0  0  0  0
  -22.9696  -13.5953   21.3610 C   0  0  0  0  0  0  0  0  0  0  0  0
  -29.4171  -21.2729   25.8897 C   0  0  0  0  0  0  0  0  0  0  0  0
  -27.5752  -28.6711   22.7384 C   0  0  0  0  0  0  0  0  0  0  0  0
  -30.4491  -29.9544   23.5233 C   0  0  0  0  0  0  0  0  0  0  0  0
  -33.2991  -29.7536   25.3899 C   0  0  0  0  0  0  0  0  0  0  0  0
  -30.8205  -14.6506   20.6216 C   0  0  0  0  0  0  0  0  0  0  0  0
  -23.2919  -30.2219   20.4348 C   0  0  0  0  0  0  0  0  0  0  0  0
  -27.4201  -28.7521   25.2534 C   0  0  0  0  0  0  0  0  0  0  0  0
  -29.9951  -27.6138   24.3486 C   0  0  0  0  0  0  0  0  0  0  0  0
  -24.7622  -30.6308   20.3957 C   0  0  0  0  0  0  0  0  0  0  0  0
  -29.5838  -12.3353   18.2160 C   0  0  0  0  0  0  0  0  0  0  0  0
  -25.6527  -29.4050   20.2190 C   0  0  0  0  0  0  0  0  0  0  0  0
  -28.1448  -12.0766   18.6681 C   0  0  0  0  0  0  0  0  0  0  0  0
  -30.5298  -12.5043   19.4035 C   0  0  0  0  0  0  0  0  0  0  0  0
  -28.6747  -13.2498   20.8429 C   0  0  0  0  0  0  0  0  0  0  0  0
  -25.4943  -28.4338   21.3951 C   0  0  1  0  0  0  0  0  0  0  0  0
  -28.1292  -29.2635   24.0032 C   0  0  1  0  0  0  0  0  0  0  0  0
  -27.6732  -13.1376   19.6818 C   0  0  2  0  0  0  0  0  0  0  0  0
  -28.6339  -17.3503   23.0763 C   0  0  0  0  0  0  0  0  0  0  0  0
  -35.4818  -30.9270   25.7851 C   0  0  0  0  0  0  0  0  0  0  0  0
  -31.5299  -28.8205   20.9049 C   0  0  0  0  0  0  0  0  0  0  0  0
  -33.8456  -29.1788   21.7865 C   0  0  0  0  0  0  0  0  0  0  0  0
  -32.3257  -31.1279   21.4498 C   0  0  0  0  0  0  0  0  0  0  0  0
  -32.6472  -30.2560   28.2327 C   0  0  0  0  0  0  0  0  0  0  0  0
  -29.7128  -22.7556   25.8082 C   0  0  0  0  0  0  0  0  0  1  0  0
  -31.8891  -29.5313   23.3609 C   0  0  1  0  0  0  0  0  0  0  0  0
  -34.0322  -30.7889   26.2236 C   0  0  2  0  0  0  0  0  0  0  0  0
  -32.3789  -29.6487   21.8899 C   0  0  0  0  0  0  0  0  0  0  0  0
  -25.8499  -11.5863   20.2739 N   0  0  0  0  0  0  0  0  0  0  0  0
  -26.2639  -12.8607   20.1708 N   0  0  0  0  0  0  0  0  0  0  0  0
  -29.5661  -28.9816   24.0131 N   0  0  0  0  0  0  0  0  0  0  0  0
  -30.0210  -13.5281   20.3188 N   0  0  0  0  0  0  0  0  0  0  0  0
  -25.5722  -15.1032   20.4923 N   0  0  0  0  0  0  0  0  0  0  0  0
  -21.9370  -12.7089   21.6960 N   0  0  0  0  0  0  0  0  0  0  0  0
  -30.2189  -15.5730   21.4771 N   0  0  0  0  0  0  0  0  0  0  0  0
  -26.2279  -28.9117   22.5474 N   0  0  0  0  0  0  0  0  0  0  0  0
  -32.6580  -30.3266   24.3120 N   0  0  0  0  0  0  0  0  0  0  0  0
  -34.0113  -30.4040   27.6632 N   0  3  0  0  0  0  0  0  0  0  0  0
  -22.7729  -14.8306   21.4550 O   0  0  0  0  0  0  0  0  0  0  0  0
  -28.5755  -20.8107   26.6552 O   0  0  0  0  0  0  0  0  0  0  0  0
  -28.3156  -28.0435   21.9903 O   0  0  0  0  0  0  0  0  0  0  0  0
  -30.1213  -31.1077   23.2333 O   0  0  0  0  0  0  0  0  0  0  0  0
  -33.2985  -28.5557   25.6651 O   0  0  0  0  0  0  0  0  0  0  0  0
  -31.9445  -14.7970   20.1348 O   0  0  0  0  0  0  0  0  0  0  0  0
  -21.4933   -7.1557   21.6663 O   0  0  0  0  0  0  0  0  0  0  0  0
  -28.8854  -23.4795   26.7180 O   0  0  0  0  0  0  0  0  0  1  0  0
  -18.5934   -6.9663   26.3523 F   0  0  0  0  0  0  0  0  0  0  0  0
  -34.2398  -17.1704   23.5348 F   0  0  0  0  0  0  0  0  0  0  0  0
  -21.9218   -5.1494   23.5193 F   0  0  0  0  0  0  0  0  0  0  0  0
  1  2  1  0  0  0  0
  1  5  2  0  0  0  0
  2  6  2  0  0  0  0
  3  8  2  0  0  0  0
  3 17  1  0  0  0  0
  4  9  1  0  0  0  0
  4 17  2  0  0  0  0
  5 20  1  0  0  0  0
  6 22  1  0  0  0  0
  7 10  2  0  0  0  0
  7 21  1  0  0  0  0
  8 26  1  0  0  0  0
  9 26  2  0  0  0  0
 10 27  1  0  0  0  0
 11 12  2  0  0  0  0
 11 28  1  0  0  0  0
 12 29  1  0  0  0  0
 13 18  1  0  0  0  0
 13 30  2  0  0  0  0
 14 23  1  0  0  0  0
 14 27  2  0  0  0  0
 15 25  2  0  0  0  0
 15 30  1  0  0  0  0
 16 29  2  0  0  0  0
 16 31  1  0  0  0  0
 17 32  1  0  0  0  0
 18 24  2  0  0  0  0
 18 34  1  0  0  0  0
 19 32  1  0  0  0  0
 19 33  2  0  0  0  0
 19 36  1  0  0  0  0
 20 22  2  0  0  0  0
 20 42  1  0  0  0  0
 21 23  2  0  0  0  0
 21 43  1  0  0  0  0
 22 51  1  0  0  0  0
 23 44  1  0  0  0  0
 24 25  1  0  0  0  0
 24 54  1  0  0  0  0
 25 70  1  0  0  0  0
 26 80  1  0  0  0  0
 27 81  1  0  0  0  0
 28 31  2  0  0  0  0
 28 80  1  0  0  0  0
 29 82  1  0  0  0  0
 30 83  1  0  0  0  0
 31 84  1  0  0  0  0
 32 64  2  0  0  0  0
 33 65  1  0  0  0  0
 33 68  1  0  0  0  0
 34 35  2  0  0  0  0
 35 37  1  0  0  0  0
 36 69  1  0  0  0  0
 36 74  2  0  0  0  0
 37 60  1  0  0  0  0
 37 75  2  0  0  0  0
 38 52  1  0  0  0  0
 38 71  1  0  0  0  0
 38 76  2  0  0  0  0
 39 61  1  0  0  0  0
 39 66  1  0  0  0  0
 39 77  2  0  0  0  0
 40 62  1  0  0  0  0
 40 72  1  0  0  0  0
 40 78  2  0  0  0  0
 41 67  1  0  0  0  0
 41 70  1  0  0  0  0
 41 79  2  0  0  0  0
 42 45  1  0  0  0  0
 43 52  1  0  0  0  0
 44 66  1  0  0  0  0
 45 47  1  0  0  0  0
 46 48  1  0  0  0  0
 46 49  1  0  0  0  0
 47 51  1  0  0  0  0
 48 53  1  0  0  0  0
 49 67  1  0  0  0  0
 50 53  1  0  0  0  0
 50 67  1  0  0  0  0
 51 71  1  0  0  0  0
 52 66  1  0  0  0  0
 53 65  1  0  0  0  0
 55 62  1  0  0  0  0
 56 63  1  0  0  0  0
 57 63  1  0  0  0  0
 58 63  1  0  0  0  0
 59 73  1  0  0  0  0
 60 81  1  0  0  0  0
 61 63  1  0  0  0  0
 61 72  1  0  0  0  0
 62 73  1  0  0  0  0
 64 65  1  0  0  0  0
M  CHG  1  73   1
M  ISO  4  41 100  60 101  70 100  81 101
M  END
> <Batch ID>
0125

> <Smiles>
CNC(C)C(=O)NC(C(=O)N1Cc2cc([101O:1][101CH2:1]C(=O)C=Cc3cc(F)cc([100NH:0][100C:0](=O)N4CCCC(n5nc(-c6ccc(Oc7ccc(F)cc7F)cc6)c(C(N)=O)c5N)C4)c3C)ccc2CC1C(=O)NC1CCCc2ccccc21)C(C)(C)C

> <Shape>
0.237

> <Color>
0.205

> <Negative vol penalty>
0.000

$$$$

  -OEChem-04052302093D

 87 96  0     1  0  0  0  0  0999 V2000
  -28.4409  -39.4070   24.2046 C   0  0  0  0  0  0  0  0  0  0  0  0
  -28.7594  -38.1947   23.6010 C   0  0  0  0  0  0  0  0  0  0  0  0
  -23.0913   -9.8435   19.9549 C   0  0  0  0  0  0  0  0  0  0  0  0
  -23.8303   -9.8913   22.2546 C   0  0  0  0  0  0  0  0  0  0  0  0
  -31.2896  -19.1046   20.5443 C   0  0  0  0  0  0  0  0  0  0  0  0
  -27.9518  -39.4271   25.5101 C   0  0  0  0  0  0  0  0  0  0  0  0
  -28.5900  -37.0019   24.3030 C   0  0  0  0  0  0  0  0  0  0  0  0
  -26.8998  -31.5840   22.0018 C   0  0  0  0  0  0  0  0  0  0  0  0
  -31.1257  -17.7195   20.5562 C   0  0  0  0  0  0  0  0  0  0  0  0
  -22.3502   -8.6913   20.2169 C   0  0  0  0  0  0  0  0  0  0  0  0
  -23.0892   -8.7391   22.5167 C   0  0  0  0  0  0  0  0  0  0  0  0
  -27.6281  -30.4562   21.6258 C   0  0  0  0  0  0  0  0  0  0  0  0
  -19.8592   -7.9367   23.1031 C   0  0  0  0  0  0  0  0  0  0  0  0
  -19.0918   -7.9124   24.2676 C   0  0  0  0  0  0  0  0  0  0  0  0
  -27.2007  -29.4679   23.7844 C   0  0  0  0  0  0  0  0  0  0  0  0
  -29.4798  -17.9293   22.3123 C   0  0  0  0  0  0  0  0  0  0  0  0
  -20.3349   -5.9929   25.0468 C   0  0  0  0  0  0  0  0  0  0  0  0
  -23.8314  -10.4435   20.9737 C   0  0  0  0  0  0  0  0  0  0  0  0
  -30.5487  -19.9021   21.4166 C   0  0  0  0  0  0  0  0  0  0  0  0
  -24.1633  -12.9679   20.8155 C   0  0  0  0  0  0  0  0  0  0  0  0
  -27.7672  -38.2332   26.2250 C   0  0  0  0  0  0  0  0  0  0  0  0
  -26.3247  -31.6670   23.2780 C   0  0  0  0  0  0  0  0  0  0  0  0
  -28.0993  -37.0061   25.6198 C   0  0  0  0  0  0  0  0  0  0  0  0
  -26.4634  -30.5968   24.1733 C   0  0  0  0  0  0  0  0  0  0  0  0
  -29.6438  -19.3144   22.3005 C   0  0  0  0  0  0  0  0  0  0  0  0
  -30.2208  -17.1318   21.4401 C   0  0  0  0  0  0  0  0  0  0  0  0
  -22.3491   -8.1390   21.4978 C   0  0  0  0  0  0  0  0  0  0  0  0
  -27.7811  -29.3992   22.5182 C   0  0  0  0  0  0  0  0  0  0  0  0
  -20.8644   -6.9890   22.9103 C   0  0  0  0  0  0  0  0  0  0  0  0
  -19.3297   -6.9406   25.2395 C   0  0  0  0  0  0  0  0  0  0  0  0
  -21.1023   -6.0171   23.8822 C   0  0  0  0  0  0  0  0  0  0  0  0
  -24.5976  -11.6335   20.7035 C   0  0  0  0  0  0  0  0  0  0  0  0
  -25.2555  -13.7162   20.4499 C   0  0  0  0  0  0  0  0  0  0  0  0
  -29.6787  -25.8669   19.9751 C   0  0  0  0  0  0  0  0  0  0  0  0
  -28.6786  -26.4891   20.6106 C   0  0  0  0  0  0  0  0  0  0  0  0
  -30.7441  -21.3610   21.3794 C   0  0  0  0  0  0  0  0  0  0  0  0
  -30.5525  -22.1398   20.3032 C   0  0  0  0  0  0  0  0  0  0  0  0
  -22.8869  -13.4848   21.2144 C   0  0  0  0  0  0  0  0  0  0  0  0
  -26.6809  -33.5979   25.7777 C   0  0  0  0  0  0  0  0  0  0  0  0
  -24.1819  -31.8969   26.9541 C   0  0  0  0  0  0  0  0  0  0  0  0
  -22.3807  -28.9983   26.9255 C   0  0  0  0  0  0  0  0  0  0  0  0
  -30.7152  -14.7891   20.6567 C   0  0  0  0  0  0  0  0  0  0  0  0
  -27.2804  -38.3086   27.6505 C   0  0  0  0  0  0  0  0  0  0  0  0
  -25.5194  -32.8791   23.6587 C   0  0  0  0  0  0  0  0  0  0  0  0
  -25.8485  -30.6279   25.5478 C   0  0  0  0  0  0  0  0  0  0  0  0
  -27.6767  -25.5172   21.1483 C   0  0  0  0  0  0  0  0  0  0  0  0
  -26.7762  -36.9739   28.1933 C   0  0  0  0  0  0  0  0  0  0  0  0
  -28.4143  -24.1816   21.0442 C   0  0  0  0  0  0  0  0  0  0  0  0
  -29.6329  -12.3320   18.3182 C   0  0  0  0  0  0  0  0  0  0  0  0
  -27.7579  -35.8558   27.8572 C   0  0  0  0  0  0  0  0  0  0  0  0
  -28.1907  -12.0410   18.7395 C   0  0  0  0  0  0  0  0  0  0  0  0
  -30.5361  -12.5845   19.5242 C   0  0  0  0  0  0  0  0  0  0  0  0
  -28.6135  -13.3228   20.8762 C   0  0  0  0  0  0  0  0  0  0  0  0
  -27.9059  -35.6893   26.3400 C   0  0  1  0  0  0  0  0  0  0  0  0
  -29.5002  -24.3797   19.9773 C   0  0  2  0  0  0  0  0  0  0  0  0
  -25.4113  -33.0747   25.1678 C   0  0  1  0  0  0  0  0  0  0  0  0
  -27.6522  -13.1260   19.6926 C   0  0  2  0  0  0  0  0  0  0  0  0
  -28.8327  -20.1377   23.2488 C   0  0  0  0  0  0  0  0  0  0  0  0
  -20.4164  -27.8888   28.0245 C   0  0  0  0  0  0  0  0  0  0  0  0
  -25.8741  -31.3658   29.4370 C   0  0  0  0  0  0  0  0  0  0  0  0
  -24.2859  -29.5269   30.0407 C   0  0  0  0  0  0  0  0  0  0  0  0
  -23.4714  -31.8807   29.9025 C   0  0  0  0  0  0  0  0  0  0  0  0
  -20.9240  -28.7740   24.3591 C   0  0  0  0  0  0  0  0  0  0  0  0
  -28.4940  -27.9544   20.7688 C   0  0  0  0  0  0  0  0  0  1  0  0
  -30.7787  -23.6239   20.3076 C   0  0  0  0  0  0  0  0  0  0  0  0
  -24.0374  -30.6380   27.7747 C   0  0  1  0  0  0  0  0  0  0  0  0
  -20.8861  -28.7418   26.8563 C   0  0  2  0  0  0  0  0  0  0  0  0
  -24.4305  -30.8528   29.2636 C   0  0  0  0  0  0  0  0  0  0  0  0
  -25.8666  -11.5365   20.2982 N   0  0  0  0  0  0  0  0  0  0  0  0
  -26.2391  -12.8195   20.1523 N   0  0  0  0  0  0  0  0  0  0  0  0
  -25.0758  -31.8375   25.8756 N   0  0  0  0  0  0  0  0  0  0  0  0
  -29.9647  -13.6270   20.3795 N   0  0  0  0  0  0  0  0  0  0  0  0
  -25.4607  -15.0473   20.3570 N   0  0  0  0  0  0  0  0  0  0  0  0
  -21.8759  -12.5767   21.5574 N   0  0  0  0  0  0  0  0  0  0  0  0
  -30.0565  -15.7245   21.4540 N   0  0  0  0  0  0  0  0  0  0  0  0
  -26.7696  -34.9767   25.7964 N   0  0  0  0  0  0  0  0  0  0  0  0
  -22.6667  -30.1783   27.5790 N   0  0  0  0  0  0  0  0  0  0  0  0
  -20.5397  -28.0365   25.5901 N   0  3  0  0  0  0  0  0  0  0  0  0
  -22.6447  -14.7151   21.2495 O   0  0  0  0  0  0  0  0  0  0  0  0
  -27.5175  -32.8090   26.2013 O   0  0  0  0  0  0  0  0  0  0  0  0
  -23.5206  -32.8939   27.2545 O   0  0  0  0  0  0  0  0  0  0  0  0
  -23.2116  -28.2271   26.4508 O   0  0  0  0  0  0  0  0  0  0  0  0
  -31.8478  -14.9553   20.1966 O   0  0  0  0  0  0  0  0  0  0  0  0
  -21.6259   -7.0148   21.7540 O   0  0  0  0  0  0  0  0  0  0  0  0
  -28.4921  -28.2975   22.1539 O   0  0  0  0  0  0  0  0  0  1  0  0
  -18.5937   -6.9184   26.3584 F   0  0  0  0  0  0  0  0  0  0  0  0
  -22.0673   -5.1047   23.7032 F   0  0  0  0  0  0  0  0  0  0  0  0
  1  2  1  0  0  0  0
  1  6  2  0  0  0  0
  2  7  2  0  0  0  0
  3 10  2  0  0  0  0
  3 18  1  0  0  0  0
  4 11  1  0  0  0  0
  4 18  2  0  0  0  0
  5  9  2  0  0  0  0
  5 19  1  0  0  0  0
  6 21  1  0  0  0  0
  7 23  1  0  0  0  0
  8 12  2  0  0  0  0
  8 22  1  0  0  0  0
  9 26  1  0  0  0  0
 10 27  1  0  0  0  0
 11 27  2  0  0  0  0
 12 28  1  0  0  0  0
 13 14  2  0  0  0  0
 13 29  1  0  0  0  0
 14 30  1  0  0  0  0
 15 24  1  0  0  0  0
 15 28  2  0  0  0  0
 16 25  1  0  0  0  0
 16 26  2  0  0  0  0
 17 30  2  0  0  0  0
 17 31  1  0  0  0  0
 18 32  1  0  0  0  0
 19 25  2  0  0  0  0
 19 36  1  0  0  0  0
 20 32  1  0  0  0  0
 20 33  2  0  0  0  0
 20 38  1  0  0  0  0
 21 23  2  0  0  0  0
 21 43  1  0  0  0  0
 22 24  2  0  0  0  0
 22 44  1  0  0  0  0
 23 54  1  0  0  0  0
 24 45  1  0  0  0  0
 25 58  1  0  0  0  0
 26 75  1  0  0  0  0
 27 84  1  0  0  0  0
 28 85  1  0  0  0  0
 29 31  2  0  0  0  0
 29 84  1  0  0  0  0
 30 86  1  0  0  0  0
 31 87  1  0  0  0  0
 32 69  2  0  0  0  0
 33 70  1  0  0  0  0
 33 73  1  0  0  0  0
 34 35  2  0  0  0  0
 34 55  1  0  0  0  0
 35 46  1  0  0  0  0
 35 64  1  0  0  0  0
 36 37  2  0  0  0  0
 37 65  1  0  0  0  0
 38 74  1  0  0  0  0
 38 79  2  0  0  0  0
 39 56  1  0  0  0  0
 39 76  1  0  0  0  0
 39 80  2  0  0  0  0
 40 66  1  0  0  0  0
 40 71  1  0  0  0  0
 40 81  2  0  0  0  0
 41 67  1  0  0  0  0
 41 77  1  0  0  0  0
 41 82  2  0  0  0  0
 42 72  1  0  0  0  0
 42 75  1  0  0  0  0
 42 83  2  0  0  0  0
 43 47  1  0  0  0  0
 44 56  1  0  0  0  0
 45 71  1  0  0  0  0
 46 48  1  0  0  0  0
 47 50  1  0  0  0  0
 48 55  1  0  0  0  0
 49 51  1  0  0  0  0
 49 52  1  0  0  0  0
 50 54  1  0  0  0  0
 51 57  1  0  0  0  0
 52 72  1  0  0  0  0
 53 57  1  0  0  0  0
 53 72  1  0  0  0  0
 54 76  1  0  0  0  0
 55 65  1  0  0  0  0
 56 71  1  0  0  0  0
 57 70  1  0  0  0  0
 59 67  1  0  0  0  0
 60 68  1  0  0  0  0
 61 68  1  0  0  0  0
 62 68  1  0  0  0  0
 63 78  1  0  0  0  0
 64 85  1  0  0  0  0
 66 68  1  0  0  0  0
 66 77  1  0  0  0  0
 67 78  1  0  0  0  0
 69 70  1  0  0  0  0
M  CHG  1  78   1
M  ISO  4  42 100  64 101  75 100  85 101
M  END
> <Batch ID>
0125

> <Smiles>
CNC(C)C(=O)NC(C(=O)N1Cc2cc([101O:1][101CH2:1]C3=CC(CC=Cc4ccc([100NH:0][100C:0](=O)N5CCCC(n6nc(-c7ccc(Oc8ccc(F)cc8F)cc7)c(C(N)=O)c6N)C5)cc4C)CC3)ccc2CC1C(=O)NC1CCCc2ccccc21)C(C)(C)C

> <Shape>
0.343

> <Color>
0.196

> <Negative vol penalty>
0.000

$$$$

  -OEChem-04052302093D

 85 94  0     1  0  0  0  0  0999 V2000
  -26.9846  -34.6619   14.6735 C   0  0  0  0  0  0  0  0  0  0  0  0
  -27.4111  -33.5248   15.3520 C   0  0  0  0  0  0  0  0  0  0  0  0
  -24.2931   -9.1668   22.2823 C   0  0  0  0  0  0  0  0  0  0  0  0
  -24.4742   -8.5610   19.9505 C   0  0  0  0  0  0  0  0  0  0  0  0
  -29.6544  -20.4261   20.3361 C   0  0  0  0  0  0  0  0  0  0  0  0
  -31.7246  -20.2076   21.5624 C   0  0  0  0  0  0  0  0  0  0  0  0
  -26.6983  -35.8284   15.3816 C   0  0  0  0  0  0  0  0  0  0  0  0
  -27.5524  -33.5537   16.7390 C   0  0  0  0  0  0  0  0  0  0  0  0
  -29.9711  -21.7514   20.0378 C   0  0  0  0  0  0  0  0  0  0  0  0
  -32.0412  -21.5328   21.2640 C   0  0  0  0  0  0  0  0  0  0  0  0
  -25.6054  -29.4491   18.9763 C   0  0  0  0  0  0  0  0  0  0  0  0
  -23.1726   -8.3458   22.4085 C   0  0  0  0  0  0  0  0  0  0  0  0
  -23.3537   -7.7399   20.0767 C   0  0  0  0  0  0  0  0  0  0  0  0
  -26.3628  -28.2794   18.9308 C   0  0  0  0  0  0  0  0  0  0  0  0
  -20.4801   -6.1293   23.4344 C   0  0  0  0  0  0  0  0  0  0  0  0
  -20.4088   -5.2965   24.5511 C   0  0  0  0  0  0  0  0  0  0  0  0
  -27.1234  -28.6915   21.1827 C   0  0  0  0  0  0  0  0  0  0  0  0
  -22.4576   -4.2109   23.8722 C   0  0  0  0  0  0  0  0  0  0  0  0
  -24.9439   -9.2745   21.0532 C   0  0  0  0  0  0  0  0  0  0  0  0
  -30.5312  -19.6542   21.0985 C   0  0  0  0  0  0  0  0  0  0  0  0
  -27.4471   -9.7614   21.1202 C   0  0  0  0  0  0  0  0  0  0  0  0
  -31.1645  -22.3047   20.5017 C   0  0  0  0  0  0  0  0  0  0  0  0
  -26.8269  -35.8688   16.7789 C   0  0  0  0  0  0  0  0  0  0  0  0
  -25.6099  -30.2557   20.1234 C   0  0  0  0  0  0  0  0  0  0  0  0
  -27.2688  -34.7222   17.4662 C   0  0  0  0  0  0  0  0  0  0  0  0
  -26.3632  -29.8695   21.2412 C   0  0  0  0  0  0  0  0  0  0  0  0
  -22.7029   -7.6323   21.3058 C   0  0  0  0  0  0  0  0  0  0  0  0
  -27.1242  -27.9020   20.0330 C   0  0  0  0  0  0  0  0  0  0  0  0
  -21.5400   -6.0028   22.5365 C   0  0  0  0  0  0  0  0  0  0  0  0
  -21.3976   -4.3374   24.7700 C   0  0  0  0  0  0  0  0  0  0  0  0
  -22.5288   -5.0436   22.7555 C   0  0  0  0  0  0  0  0  0  0  0  0
  -26.1011  -10.1229   20.9220 C   0  0  0  0  0  0  0  0  0  0  0  0
  -28.1520  -10.9144   20.8746 C   0  0  0  0  0  0  0  0  0  0  0  0
  -30.5337  -24.7291   20.7838 C   0  0  0  0  0  0  0  0  0  0  0  0
  -30.0602  -25.8098   20.1384 C   0  0  0  0  0  0  0  0  0  0  0  0
  -30.2012  -18.2723   21.4098 C   0  0  0  0  0  0  0  0  0  0  0  0
  -28.9639  -17.7337   21.3669 C   0  0  0  0  0  0  0  0  0  0  0  0
  -28.0099   -8.4965   21.4930 C   0  0  0  0  0  0  0  0  0  0  0  0
  -28.7915  -16.3061   21.7028 C   0  0  0  0  0  0  0  0  0  0  0  0
  -26.4883  -33.2433   20.7612 C   0  0  0  0  0  0  0  0  0  0  0  0
  -25.1988  -32.5894   23.6649 C   0  0  0  0  0  0  0  0  0  0  0  0
  -24.3133  -30.2434   25.9799 C   0  0  0  0  0  0  0  0  0  0  0  0
  -26.5512  -37.1666   17.4960 C   0  0  0  0  0  0  0  0  0  0  0  0
  -24.7665  -31.5004   20.1663 C   0  0  0  0  0  0  0  0  0  0  0  0
  -26.3863  -30.6901   22.5039 C   0  0  0  0  0  0  0  0  0  0  0  0
  -30.5040  -26.1659   18.7419 C   0  0  0  0  0  0  0  0  0  0  0  0
  -26.3668  -37.0028   19.0025 C   0  0  0  0  0  0  0  0  0  0  0  0
  -31.7583  -25.4148   18.2909 C   0  0  0  0  0  0  0  0  0  0  0  0
  -26.7086  -15.3054   18.8582 C   0  0  0  0  0  0  0  0  0  0  0  0
  -31.6720  -23.9361   18.6525 C   0  0  0  0  0  0  0  0  0  0  0  0
  -27.4630  -36.1137   19.5809 C   0  0  0  0  0  0  0  0  0  0  0  0
  -26.4390  -13.8407   19.1925 C   0  0  0  0  0  0  0  0  0  0  0  0
  -26.7982  -16.1713   20.1139 C   0  0  0  0  0  0  0  0  0  0  0  0
  -27.5215  -14.2101   21.4446 C   0  0  0  0  0  0  0  0  0  0  0  0
  -31.5100  -23.7484   20.1741 C   0  0  2  0  0  0  0  0  0  0  0  0
  -27.4105  -34.7069   18.9728 C   0  0  1  0  0  0  0  0  0  0  0  0
  -25.2496  -32.5142   21.1989 C   0  0  1  0  0  0  0  0  0  0  0  0
  -27.4742  -13.3125   20.1983 C   0  0  1  0  0  0  0  0  0  0  0  0
  -23.3165  -30.0154   28.2716 C   0  0  0  0  0  0  0  0  0  0  0  0
  -27.8411  -33.4847   24.9006 C   0  0  0  0  0  0  0  0  0  0  0  0
  -27.1464  -32.3621   27.0279 C   0  0  0  0  0  0  0  0  0  0  0  0
  -25.8019  -34.2589   26.1241 C   0  0  0  0  0  0  0  0  0  0  0  0
  -22.0267  -28.6684   24.9552 C   0  0  0  0  0  0  0  0  0  0  0  0
  -29.0609  -26.7342   20.7690 C   0  0  0  0  0  0  0  0  0  1  0  0
  -25.7187  -32.0157   24.9609 C   0  0  1  0  0  0  0  0  0  0  0  0
  -23.0365  -30.0467   26.7771 C   0  0  2  0  0  0  0  0  0  0  0  0
  -26.6283  -33.0157   25.7290 C   0  0  0  0  0  0  0  0  0  0  0  0
  -25.9570  -11.4052   20.5771 N   0  0  0  0  0  0  0  0  0  0  0  0
  -27.2216  -11.8596   20.5569 N   0  0  0  0  0  0  0  0  0  0  0  0
  -27.7514  -15.6139   21.0852 N   0  0  0  0  0  0  0  0  0  0  0  0
  -25.5500  -31.9018   22.4946 N   0  0  0  0  0  0  0  0  0  0  0  0
  -29.4708  -11.2017   20.9016 N   0  0  0  0  0  0  0  0  0  0  0  0
  -27.1428   -7.4164   21.7070 N   0  0  0  0  0  0  0  0  0  0  0  0
  -26.3436  -33.9358   19.5742 N   0  0  0  0  0  0  0  0  0  0  0  0
  -24.5476  -31.5754   25.7113 N   0  0  0  0  0  0  0  0  0  0  0  0
  -22.3796  -28.7648   26.3951 N   0  3  0  0  0  0  0  0  0  0  0  0
  -29.2439   -8.3332   21.6482 O   0  0  0  0  0  0  0  0  0  0  0  0
  -29.5774  -15.8140   22.5147 O   0  0  0  0  0  0  0  0  0  0  0  0
  -27.5000  -33.1832   21.4501 O   0  0  0  0  0  0  0  0  0  0  0  0
  -24.5007  -33.6061   23.6907 O   0  0  0  0  0  0  0  0  0  0  0  0
  -25.0329  -29.3092   25.6335 O   0  0  0  0  0  0  0  0  0  0  0  0
  -21.6097   -6.8308   21.4287 O   0  0  0  0  0  0  0  0  0  0  0  0
  -27.8649  -26.7612   19.9910 O   0  0  0  0  0  0  0  0  0  1  0  0
  -21.3299   -3.5388   25.8433 F   0  0  0  0  0  0  0  0  0  0  0  0
  -23.5502   -4.9182   21.8970 F   0  0  0  0  0  0  0  0  0  0  0  0
  1  2  1  0  0  0  0
  1  7  2  0  0  0  0
  2  8  2  0  0  0  0
  3 12  2  0  0  0  0
  3 19  1  0  0  0  0
  4 13  1  0  0  0  0
  4 19  2  0  0  0  0
  5  9  2  0  0  0  0
  5 20  1  0  0  0  0
  6 10  1  0  0  0  0
  6 20  2  0  0  0  0
  7 23  1  0  0  0  0
  8 25  1  0  0  0  0
  9 22  1  0  0  0  0
 10 22  2  0  0  0  0
 11 14  2  0  0  0  0
 11 24  1  0  0  0  0
 12 27  1  0  0  0  0
 13 27  2  0  0  0  0
 14 28  1  0  0  0  0
 15 16  2  0  0  0  0
 15 29  1  0  0  0  0
 16 30  1  0  0  0  0
 17 26  1  0  0  0  0
 17 28  2  0  0  0  0
 18 30  2  0  0  0  0
 18 31  1  0  0  0  0
 19 32  1  0  0  0  0
 20 36  1  0  0  0  0
 21 32  1  0  0  0  0
 21 33  2  0  0  0  0
 21 38  1  0  0  0  0
 22 55  1  0  0  0  0
 23 25  2  0  0  0  0
 23 43  1  0  0  0  0
 24 26  2  0  0  0  0
 24 44  1  0  0  0  0
 25 56  1  0  0  0  0
 26 45  1  0  0  0  0
 27 82  1  0  0  0  0
 28 83  1  0  0  0  0
 29 31  2  0  0  0  0
 29 82  1  0  0  0  0
 30 84  1  0  0  0  0
 31 85  1  0  0  0  0
 32 68  2  0  0  0  0
 33 69  1  0  0  0  0
 33 72  1  0  0  0  0
 34 35  2  0  0  0  0
 34 55  1  0  0  0  0
 35 46  1  0  0  0  0
 35 64  1  0  0  0  0
 36 37  2  0  0  0  0
 37 39  1  0  0  0  0
 38 73  1  0  0  0  0
 38 77  2  0  0  0  0
 39 70  1  0  0  0  0
 39 78  2  0  0  0  0
 40 57  1  0  0  0  0
 40 74  1  0  0  0  0
 40 79  2  0  0  0  0
 41 65  1  0  0  0  0
 41 71  1  0  0  0  0
 41 80  2  0  0  0  0
 42 66  1  0  0  0  0
 42 75  1  0  0  0  0
 42 81  2  0  0  0  0
 43 47  1  0  0  0  0
 44 57  1  0  0  0  0
 45 71  1  0  0  0  0
 46 48  1  0  0  0  0
 47 51  1  0  0  0  0
 48 50  1  0  0  0  0
 49 52  1  0  0  0  0
 49 53  1  0  0  0  0
 50 55  1  0  0  0  0
 51 56  1  0  0  0  0
 52 58  1  0  0  0  0
 53 70  1  0  0  0  0
 54 58  1  0  0  0  0
 54 70  1  0  0  0  0
 56 74  1  0  0  0  0
 57 71  1  0  0  0  0
 58 69  1  0  0  0  0
 59 66  1  0  0  0  0
 60 67  1  0  0  0  0
 61 67  1  0  0  0  0
 62 67  1  0  0  0  0
 63 76  1  0  0  0  0
 64 83  1  0  0  0  0
 65 67  1  0  0  0  0
 65 75  1  0  0  0  0
 66 76  1  0  0  0  0
 68 69  1  0  0  0  0
M  CHG  1  76   1
M  ISO  4  37 100  39 100  64 101  83 101
M  END
> <Batch ID>
0125

> <Smiles>
CNC(C)C(=O)NC(C(=O)N1Cc2cc([101O:1][101CH2:1]C3=CC(c4ccc(C=[100CH:0][100C:0](=O)N5CCCC(n6nc(-c7ccc(Oc8ccc(F)cc8F)cc7)c(C(N)=O)c6N)C5)cc4)CCC3)ccc2CC1C(=O)NC1CCCc2ccccc21)C(C)(C)C

> <Shape>
0.275

> <Color>
0.095

> <Negative vol penalty>
0.000

$$$$

  -OEChem-04052302093D

 83 91  0     1  0  0  0  0  0999 V2000
  -28.3437  -36.3556   22.8230 C   0  0  0  0  0  0  0  0  0  0  0  0
  -28.6168  -34.9951   22.7228 C   0  0  0  0  0  0  0  0  0  0  0  0
  -24.0475   -9.7937   22.2604 C   0  0  0  0  0  0  0  0  0  0  0  0
  -24.6318  -11.4295   23.9396 C   0  0  0  0  0  0  0  0  0  0  0  0
  -30.7040  -20.1462   19.0050 C   0  0  0  0  0  0  0  0  0  0  0  0
  -27.0901  -36.7836   23.2580 C   0  0  0  0  0  0  0  0  0  0  0  0
  -27.6367  -34.0618   23.0587 C   0  0  0  0  0  0  0  0  0  0  0  0
  -27.2926  -30.3049   19.6805 C   0  0  0  0  0  0  0  0  0  0  0  0
  -30.4427  -18.7786   18.9215 C   0  0  0  0  0  0  0  0  0  0  0  0
  -23.6687   -8.9004   23.2624 C   0  0  0  0  0  0  0  0  0  0  0  0
  -24.2530  -10.5362   24.9416 C   0  0  0  0  0  0  0  0  0  0  0  0
  -28.2589  -29.3019   19.7431 C   0  0  0  0  0  0  0  0  0  0  0  0
  -21.0120   -8.4211   25.2983 C   0  0  0  0  0  0  0  0  0  0  0  0
  -19.8101   -7.7328   25.1327 C   0  0  0  0  0  0  0  0  0  0  0  0
  -28.3415  -20.5820   19.2610 C   0  0  0  0  0  0  0  0  0  0  0  0
  -26.7038  -27.8857   20.9242 C   0  0  0  0  0  0  0  0  0  0  0  0
  -21.0031   -5.6330   25.2024 C   0  0  0  0  0  0  0  0  0  0  0  0
  -24.5291  -11.0583   22.5990 C   0  0  0  0  0  0  0  0  0  0  0  0
  -29.6534  -21.0479   19.1748 C   0  0  0  0  0  0  0  0  0  0  0  0
  -24.1071  -12.9328   20.9210 C   0  0  0  0  0  0  0  0  0  0  0  0
  -26.0909  -35.8551   23.5901 C   0  0  0  0  0  0  0  0  0  0  0  0
  -26.0260  -30.1096   20.2499 C   0  0  0  0  0  0  0  0  0  0  0  0
  -26.3690  -34.4778   23.4998 C   0  0  0  0  0  0  0  0  0  0  0  0
  -25.7223  -28.8868   20.8653 C   0  0  0  0  0  0  0  0  0  0  0  0
  -28.0802  -19.2144   19.1774 C   0  0  0  0  0  0  0  0  0  0  0  0
  -29.1308  -18.3127   19.0076 C   0  0  0  0  0  0  0  0  0  0  0  0
  -23.7714   -9.2716   24.6030 C   0  0  0  0  0  0  0  0  0  0  0  0
  -27.9656  -28.0931   20.3676 C   0  0  0  0  0  0  0  0  0  0  0  0
  -22.2094   -7.7154   25.4159 C   0  0  0  0  0  0  0  0  0  0  0  0
  -19.8057   -6.3388   25.0848 C   0  0  0  0  0  0  0  0  0  0  0  0
  -22.2050   -6.3214   25.3680 C   0  0  0  0  0  0  0  0  0  0  0  0
  -24.9211  -11.9813   21.5644 C   0  0  0  0  0  0  0  0  0  0  0  0
  -24.9451  -13.5529   20.0266 C   0  0  0  0  0  0  0  0  0  0  0  0
  -29.9303  -22.4926   19.2631 C   0  0  0  0  0  0  0  0  0  0  0  0
  -29.0947  -23.3966   19.7931 C   0  0  0  0  0  0  0  0  0  0  0  0
  -22.7179  -13.2297   21.1146 C   0  0  0  0  0  0  0  0  0  0  0  0
  -29.4661  -24.8411   19.8256 C   0  0  0  0  0  0  0  0  0  0  0  0
  -24.3716  -31.5101   22.5747 C   0  0  0  0  0  0  0  0  0  0  0  0
  -22.0162  -29.5209   21.5660 C   0  0  0  0  0  0  0  0  0  0  0  0
  -21.1504  -26.6259   19.9797 C   0  0  0  0  0  0  0  0  0  0  0  0
  -29.8281  -15.9054   18.7523 C   0  0  0  0  0  0  0  0  0  0  0  0
  -24.7667  -36.3653   24.1007 C   0  0  0  0  0  0  0  0  0  0  0  0
  -24.9858  -31.1914   20.1504 C   0  0  0  0  0  0  0  0  0  0  0  0
  -24.3708  -28.6196   21.4741 C   0  0  0  0  0  0  0  0  0  0  0  0
  -23.6598  -35.3142   24.0793 C   0  0  0  0  0  0  0  0  0  0  0  0
  -29.6300  -12.3575   18.5286 C   0  0  0  0  0  0  0  0  0  0  0  0
  -24.1631  -33.9971   24.6612 C   0  0  0  0  0  0  0  0  0  0  0  0
  -28.3203  -12.0216   19.2456 C   0  0  0  0  0  0  0  0  0  0  0  0
  -30.3612  -13.5197   19.1983 C   0  0  0  0  0  0  0  0  0  0  0  0
  -28.2458  -14.3964   20.1068 C   0  0  0  0  0  0  0  0  0  0  0  0
  -25.3237  -33.4350   23.8314 C   0  0  1  0  0  0  0  0  0  0  0  0
  -23.8999  -31.0760   21.2157 C   0  0  1  0  0  0  0  0  0  0  0  0
  -27.4416  -13.2744   19.4301 C   0  0  2  0  0  0  0  0  0  0  0  0
  -26.6653  -18.7431   19.2729 C   0  0  0  0  0  0  0  0  0  0  0  0
  -19.1502  -25.2501   19.3441 C   0  0  0  0  0  0  0  0  0  0  0  0
  -21.7624  -28.5614   24.4512 C   0  0  0  0  0  0  0  0  0  0  0  0
  -20.4790  -26.5843   23.6075 C   0  0  0  0  0  0  0  0  0  0  0  0
  -19.5850  -28.8878   23.2651 C   0  0  0  0  0  0  0  0  0  0  0  0
  -21.7541  -26.8709   17.0927 C   0  0  0  0  0  0  0  0  0  0  0  0
  -28.4405  -25.7642   20.4491 C   0  0  0  0  0  0  0  0  0  1  0  0
  -21.5789  -28.1186   21.9143 C   0  0  1  0  0  0  0  0  0  0  0  0
  -20.1193  -26.3364   18.9038 C   0  0  2  0  0  0  0  0  0  0  0  0
  -20.8776  -28.0435   23.2999 C   0  0  0  0  0  0  0  0  0  0  0  0
  -26.1794  -11.9922   21.1167 N   0  0  0  0  0  0  0  0  0  0  0  0
  -26.1625  -12.9580   20.1823 N   0  0  0  0  0  0  0  0  0  0  0  0
  -23.3895  -29.7108   21.3569 N   0  0  0  0  0  0  0  0  0  0  0  0
  -29.4682  -14.6723   19.3358 N   0  0  0  0  0  0  0  0  0  0  0  0
  -24.7519  -14.5434   19.1300 N   0  0  0  0  0  0  0  0  0  0  0  0
  -22.0056  -12.4977   22.0744 N   0  0  0  0  0  0  0  0  0  0  0  0
  -28.8861  -16.9197   18.9206 N   0  0  0  0  0  0  0  0  0  0  0  0
  -24.8263  -32.8141   22.6224 N   0  0  0  0  0  0  0  0  0  0  0  0
  -20.7544  -27.6599   20.8015 N   0  0  0  0  0  0  0  0  0  0  0  0
  -20.7899  -25.8881   17.6508 N   0  3  0  0  0  0  0  0  0  0  0  0
  -22.1216  -14.1066   20.4444 O   0  0  0  0  0  0  0  0  0  0  0  0
  -30.5331  -25.2506   19.3764 O   0  0  0  0  0  0  0  0  0  0  0  0
  -24.3249  -30.7209   23.5110 O   0  0  0  0  0  0  0  0  0  0  0  0
  -21.1695  -30.4135   21.4755 O   0  0  0  0  0  0  0  0  0  0  0  0
  -22.2003  -25.9954   20.0830 O   0  0  0  0  0  0  0  0  0  0  0  0
  -30.8811  -16.0435   18.1244 O   0  0  0  0  0  0  0  0  0  0  0  0
  -23.4017   -8.4002   25.5810 O   0  0  0  0  0  0  0  0  0  0  0  0
  -28.9072  -27.1127   20.4306 O   0  0  0  0  0  0  0  0  0  1  0  0
  -18.6513   -5.6779   24.9273 F   0  0  0  0  0  0  0  0  0  0  0  0
  -23.3520   -5.6379   25.4816 F   0  0  0  0  0  0  0  0  0  0  0  0
  1  2  1  0  0  0  0
  1  6  2  0  0  0  0
  2  7  2  0  0  0  0
  3 10  2  0  0  0  0
  3 18  1  0  0  0  0
  4 11  1  0  0  0  0
  4 18  2  0  0  0  0
  5  9  2  0  0  0  0
  5 19  1  0  0  0  0
  6 21  1  0  0  0  0
  7 23  1  0  0  0  0
  8 12  2  0  0  0  0
  8 22  1  0  0  0  0
  9 26  1  0  0  0  0
 10 27  1  0  0  0  0
 11 27  2  0  0  0  0
 12 28  1  0  0  0  0
 13 14  2  0  0  0  0
 13 29  1  0  0  0  0
 14 30  1  0  0  0  0
 15 19  2  0  0  0  0
 15 25  1  0  0  0  0
 16 24  1  0  0  0  0
 16 28  2  0  0  0  0
 17 30  2  0  0  0  0
 17 31  1  0  0  0  0
 18 32  1  0  0  0  0
 19 34  1  0  0  0  0
 20 32  1  0  0  0  0
 20 33  2  0  0  0  0
 20 36  1  0  0  0  0
 21 23  2  0  0  0  0
 21 42  1  0  0  0  0
 22 24  2  0  0  0  0
 22 43  1  0  0  0  0
 23 51  1  0  0  0  0
 24 44  1  0  0  0  0
 25 26  2  0  0  0  0
 25 54  1  0  0  0  0
 26 70  1  0  0  0  0
 27 80  1  0  0  0  0
 28 81  1  0  0  0  0
 29 31  2  0  0  0  0
 29 80  1  0  0  0  0
 30 82  1  0  0  0  0
 31 83  1  0  0  0  0
 32 64  2  0  0  0  0
 33 65  1  0  0  0  0
 33 68  1  0  0  0  0
 34 35  2  0  0  0  0
 35 37  1  0  0  0  0
 36 69  1  0  0  0  0
 36 74  2  0  0  0  0
 37 60  1  0  0  0  0
 37 75  2  0  0  0  0
 38 52  1  0  0  0  0
 38 71  1  0  0  0  0
 38 76  2  0  0  0  0
 39 61  1  0  0  0  0
 39 66  1  0  0  0  0
 39 77  2  0  0  0  0
 40 62  1  0  0  0  0
 40 72  1  0  0  0  0
 40 78  2  0  0  0  0
 41 67  1  0  0  0  0
 41 70  1  0  0  0  0
 41 79  2  0  0  0  0
 42 45  1  0  0  0  0
 43 52  1  0  0  0  0
 44 66  1  0  0  0  0
 45 47  1  0  0  0  0
 46 48  1  0  0  0  0
 46 49  1  0  0  0  0
 47 51  1  0  0  0  0
 48 53  1  0  0  0  0
 49 67  1  0  0  0  0
 50 53  1  0  0  0  0
 50 67  1  0  0  0  0
 51 71  1  0  0  0  0
 52 66  1  0  0  0  0
 53 65  1  0  0  0  0
 55 62  1  0  0  0  0
 56 63  1  0  0  0  0
 57 63  1  0  0  0  0
 58 63  1  0  0  0  0
 59 73  1  0  0  0  0
 60 81  1  0  0  0  0
 61 63  1  0  0  0  0
 61 72  1  0  0  0  0
 62 73  1  0  0  0  0
 64 65  1  0  0  0  0
M  CHG  1  73   1
M  ISO  4  41 100  60 101  70 100  81 101
M  END
> <Batch ID>
0125

> <Smiles>
CNC(C)C(=O)NC(C(=O)N1Cc2cc([101O:1][101CH2:1]C(=O)C=Cc3ccc([100NH:0][100C:0](=O)N4CCCC(n5nc(-c6ccc(Oc7ccc(F)cc7F)cc6)c(C(N)=O)c5N)C4)c(C)c3)ccc2CC1C(=O)NC1CCCc2ccccc21)C(C)(C)C

> <Shape>
0.349

> <Color>
0.141

> <Negative vol penalty>
0.000

$$$$

  -OEChem-04052302093D

 81 89  0     1  0  0  0  0  0999 V2000
  -16.7122  -30.4715   23.2740 C   0  0  0  0  0  0  0  0  0  0  0  0
  -17.8265  -30.9356   22.5823 C   0  0  0  0  0  0  0  0  0  0  0  0
  -27.4001  -11.5569   20.9922 C   0  0  0  0  0  0  0  0  0  0  0  0
  -27.7193  -11.2447   18.6178 C   0  0  0  0  0  0  0  0  0  0  0  0
  -30.3135  -23.8194   20.3238 C   0  0  0  0  0  0  0  0  0  0  0  0
  -32.3753  -23.9078   21.5800 C   0  0  0  0  0  0  0  0  0  0  0  0
  -16.8456  -29.4266   24.1875 C   0  0  0  0  0  0  0  0  0  0  0  0
  -19.0750  -30.3557   22.8044 C   0  0  0  0  0  0  0  0  0  0  0  0
  -25.1789  -28.7711   19.4062 C   0  0  0  0  0  0  0  0  0  0  0  0
  -30.3493  -25.2050   20.1674 C   0  0  0  0  0  0  0  0  0  0  0  0
  -32.4112  -25.2934   21.4236 C   0  0  0  0  0  0  0  0  0  0  0  0
  -26.4743  -10.5137   21.0049 C   0  0  0  0  0  0  0  0  0  0  0  0
  -26.7935  -10.2015   18.6305 C   0  0  0  0  0  0  0  0  0  0  0  0
  -26.5564  -28.9484   19.5274 C   0  0  0  0  0  0  0  0  0  0  0  0
  -23.2303  -10.0529   20.1750 C   0  0  0  0  0  0  0  0  0  0  0  0
  -22.0416  -10.2509   20.8774 C   0  0  0  0  0  0  0  0  0  0  0  0
  -26.6529  -27.0967   21.0705 C   0  0  0  0  0  0  0  0  0  0  0  0
  -22.5674   -8.3687   22.2979 C   0  0  0  0  0  0  0  0  0  0  0  0
  -28.0226  -11.9224   19.7986 C   0  0  0  0  0  0  0  0  0  0  0  0
  -31.3264  -23.1708   21.0302 C   0  0  0  0  0  0  0  0  0  0  0  0
  -30.3691  -12.9059   19.9838 C   0  0  0  0  0  0  0  0  0  0  0  0
  -18.0947  -28.8273   24.4139 C   0  0  0  0  0  0  0  0  0  0  0  0
  -24.5252  -27.7605   20.1259 C   0  0  0  0  0  0  0  0  0  0  0  0
  -19.2255  -29.3028   23.7228 C   0  0  0  0  0  0  0  0  0  0  0  0
  -25.2673  -26.9071   20.9547 C   0  0  0  0  0  0  0  0  0  0  0  0
  -31.3982  -25.9420   20.7173 C   0  0  0  0  0  0  0  0  0  0  0  0
  -26.1709   -9.8360   19.8241 C   0  0  0  0  0  0  0  0  0  0  0  0
  -27.2932  -28.1130   20.3619 C   0  0  0  0  0  0  0  0  0  0  0  0
  -24.0876   -9.0127   20.5340 C   0  0  0  0  0  0  0  0  0  0  0  0
  -21.7102   -9.4088   21.9389 C   0  0  0  0  0  0  0  0  0  0  0  0
  -23.7561   -8.1706   21.5955 C   0  0  0  0  0  0  0  0  0  0  0  0
  -28.9787  -13.0003   19.7847 C   0  0  0  0  0  0  0  0  0  0  0  0
  -30.8203  -14.1985   19.8737 C   0  0  0  0  0  0  0  0  0  0  0  0
  -31.2892  -21.7260   21.1935 C   0  0  0  0  0  0  0  0  0  0  0  0
  -30.1915  -20.9510   21.0627 C   0  0  0  0  0  0  0  0  0  0  0  0
  -31.1804  -11.7529   20.2449 C   0  0  0  0  0  0  0  0  0  0  0  0
  -30.3178  -19.4917   21.2503 C   0  0  0  0  0  0  0  0  0  0  0  0
  -22.2619  -27.7006   22.3569 C   0  0  0  0  0  0  0  0  0  0  0  0
  -22.4633  -24.4924   21.9219 C   0  0  0  0  0  0  0  0  0  0  0  0
  -24.3251  -21.8170   20.9105 C   0  0  0  0  0  0  0  0  0  0  0  0
  -18.1981  -27.7323   25.4458 C   0  0  0  0  0  0  0  0  0  0  0  0
  -23.0427  -27.5653   19.9636 C   0  0  0  0  0  0  0  0  0  0  0  0
  -24.6163  -25.7942   21.7332 C   0  0  0  0  0  0  0  0  0  0  0  0
  -19.4882  -26.9223   25.3473 C   0  0  0  0  0  0  0  0  0  0  0  0
  -28.5082  -18.3808   18.2631 C   0  0  0  0  0  0  0  0  0  0  0  0
  -20.6907  -27.8494   25.2014 C   0  0  0  0  0  0  0  0  0  0  0  0
  -28.5472  -16.8655   18.4428 C   0  0  0  0  0  0  0  0  0  0  0  0
  -28.4071  -19.1127   19.6005 C   0  0  0  0  0  0  0  0  0  0  0  0
  -29.5136  -17.2167   20.7499 C   0  0  0  0  0  0  0  0  0  0  0  0
  -20.5922  -28.6831   23.9181 C   0  0  1  0  0  0  0  0  0  0  0  0
  -22.4044  -26.8319   21.1392 C   0  0  1  0  0  0  0  0  0  0  0  0
  -29.6627  -16.4617   19.4198 C   0  0  1  0  0  0  0  0  0  0  0  0
  -24.2344  -19.3174   20.7087 C   0  0  0  0  0  0  0  0  0  0  0  0
  -22.8831  -24.2365   24.9332 C   0  0  0  0  0  0  0  0  0  0  0  0
  -23.7176  -21.9076   24.5487 C   0  0  0  0  0  0  0  0  0  0  0  0
  -21.3741  -22.5073   23.9396 C   0  0  0  0  0  0  0  0  0  0  0  0
  -24.6835  -21.9250   17.9747 C   0  0  0  0  0  0  0  0  0  0  0  0
  -31.4375  -27.4395   20.5458 C   0  0  0  0  0  0  0  0  0  0  0  0
  -30.7255  -28.2063   21.6623 C   0  0  0  0  0  0  0  0  0  0  0  0
  -29.2292  -27.9233   21.7300 C   0  0  0  0  0  0  0  0  0  1  0  0
  -23.2831  -23.3804   22.5305 C   0  0  1  0  0  0  0  0  0  0  0  0
  -23.9944  -20.6442   20.0053 C   0  0  2  0  0  0  0  0  0  0  0  0
  -22.8267  -23.0300   23.9750 C   0  0  0  0  0  0  0  0  0  0  0  0
  -28.5732  -14.2538   19.5649 N   0  0  0  0  0  0  0  0  0  0  0  0
  -29.7156  -14.9590   19.6253 N   0  0  0  0  0  0  0  0  0  0  0  0
  -29.4487  -18.6671   20.5382 N   0  0  0  0  0  0  0  0  0  0  0  0
  -23.1634  -25.6476   21.5460 N   0  0  0  0  0  0  0  0  0  0  0  0
  -32.0501  -14.7475   19.9661 N   0  0  0  0  0  0  0  0  0  0  0  0
  -30.5556  -10.5010   20.3263 N   0  0  0  0  0  0  0  0  0  0  0  0
  -20.9553  -27.8842   22.7673 N   0  0  0  0  0  0  0  0  0  0  0  0
  -23.2143  -22.2633   21.5947 N   0  0  0  0  0  0  0  0  0  0  0  0
  -24.8372  -20.6841   18.7769 N   0  3  0  0  0  0  0  0  0  0  0  0
  -32.4202  -11.8327   20.4177 O   0  0  0  0  0  0  0  0  0  0  0  0
  -31.1832  -19.0916   22.0311 O   0  0  0  0  0  0  0  0  0  0  0  0
  -23.2635  -28.1684   22.8858 O   0  0  0  0  0  0  0  0  0  0  0  0
  -21.2478  -24.3389   21.7785 O   0  0  0  0  0  0  0  0  0  0  0  0
  -25.4566  -22.2877   21.0043 O   0  0  0  0  0  0  0  0  0  0  0  0
  -25.2677   -8.8179   19.8362 O   0  0  0  0  0  0  0  0  0  0  0  0
  -28.6378  -28.2843   20.4825 O   0  0  0  0  0  0  0  0  0  1  0  0
  -20.5694   -9.6001   22.6143 F   0  0  0  0  0  0  0  0  0  0  0  0
  -24.5763   -7.1704   21.9457 F   0  0  0  0  0  0  0  0  0  0  0  0
  1  2  1  0  0  0  0
  1  7  2  0  0  0  0
  2  8  2  0  0  0  0
  3 12  2  0  0  0  0
  3 19  1  0  0  0  0
  4 13  1  0  0  0  0
  4 19  2  0  0  0  0
  5 10  2  0  0  0  0
  5 20  1  0  0  0  0
  6 11  1  0  0  0  0
  6 20  2  0  0  0  0
  7 22  1  0  0  0  0
  8 24  1  0  0  0  0
  9 14  2  0  0  0  0
  9 23  1  0  0  0  0
 10 26  1  0  0  0  0
 11 26  2  0  0  0  0
 12 27  1  0  0  0  0
 13 27  2  0  0  0  0
 14 28  1  0  0  0  0
 15 16  2  0  0  0  0
 15 29  1  0  0  0  0
 16 30  1  0  0  0  0
 17 25  1  0  0  0  0
 17 28  2  0  0  0  0
 18 30  2  0  0  0  0
 18 31  1  0  0  0  0
 19 32  1  0  0  0  0
 20 34  1  0  0  0  0
 21 32  1  0  0  0  0
 21 33  2  0  0  0  0
 21 36  1  0  0  0  0
 22 24  2  0  0  0  0
 22 41  1  0  0  0  0
 23 25  2  0  0  0  0
 23 42  1  0  0  0  0
 24 50  1  0  0  0  0
 25 43  1  0  0  0  0
 26 58  1  0  0  0  0
 27 78  1  0  0  0  0
 28 79  1  0  0  0  0
 29 31  2  0  0  0  0
 29 78  1  0  0  0  0
 30 80  1  0  0  0  0
 31 81  1  0  0  0  0
 32 64  2  0  0  0  0
 33 65  1  0  0  0  0
 33 68  1  0  0  0  0
 34 35  2  0  0  0  0
 35 37  1  0  0  0  0
 36 69  1  0  0  0  0
 36 73  2  0  0  0  0
 37 66  1  0  0  0  0
 37 74  2  0  0  0  0
 38 51  1  0  0  0  0
 38 70  1  0  0  0  0
 38 75  2  0  0  0  0
 39 61  1  0  0  0  0
 39 67  1  0  0  0  0
 39 76  2  0  0  0  0
 40 62  1  0  0  0  0
 40 71  1  0  0  0  0
 40 77  2  0  0  0  0
 41 44  1  0  0  0  0
 42 51  1  0  0  0  0
 43 67  1  0  0  0  0
 44 46  1  0  0  0  0
 45 47  1  0  0  0  0
 45 48  1  0  0  0  0
 46 50  1  0  0  0  0
 47 52  1  0  0  0  0
 48 66  1  0  0  0  0
 49 52  1  0  0  0  0
 49 66  1  0  0  0  0
 50 70  1  0  0  0  0
 51 67  1  0  0  0  0
 52 65  1  0  0  0  0
 53 62  1  0  0  0  0
 54 63  1  0  0  0  0
 55 63  1  0  0  0  0
 56 63  1  0  0  0  0
 57 72  1  0  0  0  0
 58 59  1  0  0  0  0
 59 60  1  0  0  0  0
 60 79  1  0  0  0  0
 61 63  1  0  0  0  0
 61 71  1  0  0  0  0
 62 72  1  0  0  0  0
 64 65  1  0  0  0  0
M  CHG  1  72   1
M  ISO  4  35 100  37 100  60 101  79 101
M  END
> <Batch ID>
0125

> <Smiles>
CNC(C)C(=O)NC(C(=O)N1Cc2cc([101O:1][101CH2:1]CCc3ccc(C=[100CH:0][100C:0](=O)N4CCCC(n5nc(-c6ccc(Oc7ccc(F)cc7F)cc6)c(C(N)=O)c5N)C4)cc3)ccc2CC1C(=O)NC1CCCc2ccccc21)C(C)(C)C

> <Shape>
0.241

> <Color>
0.090

> <Negative vol penalty>
0.000

$$$$

  -OEChem-04052302093D

 83 91  0     1  0  0  0  0  0999 V2000
  -22.8156  -35.6554   15.7423 C   0  0  0  0  0  0  0  0  0  0  0  0
  -23.4601  -34.4225   15.7393 C   0  0  0  0  0  0  0  0  0  0  0  0
  -23.1601  -10.0640   21.9130 C   0  0  0  0  0  0  0  0  0  0  0  0
  -24.8094   -8.5208   21.0555 C   0  0  0  0  0  0  0  0  0  0  0  0
  -22.9403  -36.5033   16.8421 C   0  0  0  0  0  0  0  0  0  0  0  0
  -24.2308  -34.0373   16.8357 C   0  0  0  0  0  0  0  0  0  0  0  0
  -24.9066  -28.3679   19.0508 C   0  0  0  0  0  0  0  0  0  0  0  0
  -22.1514   -9.1429   21.6306 C   0  0  0  0  0  0  0  0  0  0  0  0
  -23.8008   -7.5997   20.7730 C   0  0  0  0  0  0  0  0  0  0  0  0
  -25.9053  -27.4092   18.8857 C   0  0  0  0  0  0  0  0  0  0  0  0
  -21.6985   -4.6978   20.1585 C   0  0  0  0  0  0  0  0  0  0  0  0
  -21.9171   -3.3665   20.5128 C   0  0  0  0  0  0  0  0  0  0  0  0
  -29.3838  -21.0906   19.8409 C   0  0  0  0  0  0  0  0  0  0  0  0
  -26.9374  -28.1393   20.9402 C   0  0  0  0  0  0  0  0  0  0  0  0
  -32.1585  -21.1070   19.5513 C   0  0  0  0  0  0  0  0  0  0  0  0
  -22.1499   -4.0207   22.8269 C   0  0  0  0  0  0  0  0  0  0  0  0
  -24.4891   -9.7530   21.6254 C   0  0  0  0  0  0  0  0  0  0  0  0
  -30.1397  -20.0137   20.3039 C   0  0  0  0  0  0  0  0  0  0  0  0
  -30.0152  -22.1757   19.2329 C   0  0  0  0  0  0  0  0  0  0  0  0
  -26.2645  -10.8227   23.1124 C   0  0  0  0  0  0  0  0  0  0  0  0
  -23.7050  -36.1241   17.9566 C   0  0  0  0  0  0  0  0  0  0  0  0
  -24.9219  -29.2282   20.1581 C   0  0  0  0  0  0  0  0  0  0  0  0
  -24.3670  -34.8815   17.9509 C   0  0  0  0  0  0  0  0  0  0  0  0
  -25.9363  -29.1063   21.1184 C   0  0  0  0  0  0  0  0  0  0  0  0
  -31.5270  -20.0219   20.1592 C   0  0  0  0  0  0  0  0  0  0  0  0
  -31.4025  -22.1840   19.0882 C   0  0  0  0  0  0  0  0  0  0  0  0
  -22.4717   -7.9108   21.0606 C   0  0  0  0  0  0  0  0  0  0  0  0
  -26.9225  -27.2967   19.8290 C   0  0  0  0  0  0  0  0  0  0  0  0
  -21.7057   -5.6906   21.1383 C   0  0  0  0  0  0  0  0  0  0  0  0
  -22.1428   -3.0280   21.8470 C   0  0  0  0  0  0  0  0  0  0  0  0
  -21.9314   -5.3520   22.4725 C   0  0  0  0  0  0  0  0  0  0  0  0
  -25.5315  -10.7042   21.9164 C   0  0  0  0  0  0  0  0  0  0  0  0
  -27.1258  -11.8682   22.8851 C   0  0  0  0  0  0  0  0  0  0  0  0
  -29.4518  -18.8947   20.9345 C   0  0  0  0  0  0  0  0  0  0  0  0
  -29.1903  -23.2976   18.7542 C   0  0  0  0  0  0  0  0  0  0  0  0
  -28.5305  -18.1095   20.3399 C   0  0  0  0  0  0  0  0  0  0  0  0
  -28.3742  -24.0398   19.5188 C   0  0  0  0  0  0  0  0  0  0  0  0
  -26.1750  -10.0562   24.3208 C   0  0  0  0  0  0  0  0  0  0  0  0
  -27.9281  -17.0041   21.1119 C   0  0  0  0  0  0  0  0  0  0  0  0
  -25.1453  -32.3745   20.5513 C   0  0  0  0  0  0  0  0  0  0  0  0
  -24.6025  -31.6321   23.6620 C   0  0  0  0  0  0  0  0  0  0  0  0
  -24.7506  -29.3047   26.1536 C   0  0  0  0  0  0  0  0  0  0  0  0
  -23.8490  -37.0944   19.1022 C   0  0  0  0  0  0  0  0  0  0  0  0
  -23.8224  -30.2392   20.3356 C   0  0  0  0  0  0  0  0  0  0  0  0
  -25.9868  -29.9922   22.3354 C   0  0  0  0  0  0  0  0  0  0  0  0
  -24.3790  -36.4519   20.3816 C   0  0  0  0  0  0  0  0  0  0  0  0
  -28.2954  -14.3243   18.6389 C   0  0  0  0  0  0  0  0  0  0  0  0
  -25.5799  -35.5629   20.0746 C   0  0  0  0  0  0  0  0  0  0  0  0
  -27.6203  -13.1623   19.3626 C   0  0  0  0  0  0  0  0  0  0  0  0
  -27.6310  -15.6620   18.9609 C   0  0  0  0  0  0  0  0  0  0  0  0
  -26.8626  -14.7823   21.1464 C   0  0  0  0  0  0  0  0  0  0  0  0
  -25.1917  -34.4175   19.1318 C   0  0  1  0  0  0  0  0  0  0  0  0
  -24.2224  -31.4053   21.2343 C   0  0  1  0  0  0  0  0  0  0  0  0
  -27.5445  -13.4325   20.8737 C   0  0  1  0  0  0  0  0  0  0  0  0
  -32.3686  -18.8851   20.6435 C   0  0  0  0  0  0  0  0  0  0  0  0
  -32.1127  -23.3299   18.4419 C   0  0  0  0  0  0  0  0  0  0  0  0
  -24.2718  -29.0030   28.5984 C   0  0  0  0  0  0  0  0  0  0  0  0
  -27.1252  -33.2055   24.3477 C   0  0  0  0  0  0  0  0  0  0  0  0
  -27.1227  -32.0965   26.5924 C   0  0  0  0  0  0  0  0  0  0  0  0
  -25.2152  -33.5581   25.9232 C   0  0  0  0  0  0  0  0  0  0  0  0
  -22.7709  -27.1702   25.6211 C   0  0  0  0  0  0  0  0  0  0  0  0
  -27.5441  -25.1624   18.9838 C   0  0  0  0  0  0  0  0  0  1  0  0
  -25.4726  -31.2854   24.8459 C   0  0  1  0  0  0  0  0  0  0  0  0
  -23.7267  -28.8669   27.1852 C   0  0  2  0  0  0  0  0  0  0  0  0
  -26.2343  -32.5208   25.4035 C   0  0  0  0  0  0  0  0  0  0  0  0
  -25.8952  -11.6028   20.9976 N   0  0  0  0  0  0  0  0  0  0  0  0
  -26.8661  -12.2959   21.6164 N   0  0  0  0  0  0  0  0  0  0  0  0
  -27.5172  -15.8709   20.4122 N   0  0  0  0  0  0  0  0  0  0  0  0
  -24.8928  -30.9694   22.4610 N   0  0  0  0  0  0  0  0  0  0  0  0
  -28.0722  -12.4543   23.6488 N   0  0  0  0  0  0  0  0  0  0  0  0
  -25.2359   -9.0179   24.3853 N   0  0  0  0  0  0  0  0  0  0  0  0
  -24.4950  -33.3783   19.8592 N   0  0  0  0  0  0  0  0  0  0  0  0
  -24.6002  -30.6332   25.8165 N   0  0  0  0  0  0  0  0  0  0  0  0
  -23.3444  -27.4436   26.9639 N   0  3  0  0  0  0  0  0  0  0  0  0
  -26.8948  -10.2960   25.3198 O   0  0  0  0  0  0  0  0  0  0  0  0
  -27.8210  -17.1538   22.3304 O   0  0  0  0  0  0  0  0  0  0  0  0
  -26.3577  -32.2236   20.6464 O   0  0  0  0  0  0  0  0  0  0  0  0
  -23.6939  -32.4551   23.7995 O   0  0  0  0  0  0  0  0  0  0  0  0
  -25.6014  -28.5451   25.6955 O   0  0  0  0  0  0  0  0  0  0  0  0
  -21.4877   -7.0117   20.7851 O   0  0  0  0  0  0  0  0  0  0  0  0
  -27.8989  -26.3622   19.6699 O   0  0  0  0  0  0  0  0  0  1  0  0
  -22.3511   -1.7493   22.1874 F   0  0  0  0  0  0  0  0  0  0  0  0
  -21.9383   -6.3012   23.4185 F   0  0  0  0  0  0  0  0  0  0  0  0
  1  2  1  0  0  0  0
  1  5  2  0  0  0  0
  2  6  2  0  0  0  0
  3  8  2  0  0  0  0
  3 17  1  0  0  0  0
  4  9  1  0  0  0  0
  4 17  2  0  0  0  0
  5 21  1  0  0  0  0
  6 23  1  0  0  0  0
  7 10  2  0  0  0  0
  7 22  1  0  0  0  0
  8 27  1  0  0  0  0
  9 27  2  0  0  0  0
 10 28  1  0  0  0  0
 11 12  2  0  0  0  0
 11 29  1  0  0  0  0
 12 30  1  0  0  0  0
 13 18  2  0  0  0  0
 13 19  1  0  0  0  0
 14 24  1  0  0  0  0
 14 28  2  0  0  0  0
 15 25  2  0  0  0  0
 15 26  1  0  0  0  0
 16 30  2  0  0  0  0
 16 31  1  0  0  0  0
 17 32  1  0  0  0  0
 18 25  1  0  0  0  0
 18 34  1  0  0  0  0
 19 26  2  0  0  0  0
 19 35  1  0  0  0  0
 20 32  1  0  0  0  0
 20 33  2  0  0  0  0
 20 38  1  0  0  0  0
 21 23  2  0  0  0  0
 21 43  1  0  0  0  0
 22 24  2  0  0  0  0
 22 44  1  0  0  0  0
 23 52  1  0  0  0  0
 24 45  1  0  0  0  0
 25 55  1  0  0  0  0
 26 56  1  0  0  0  0
 27 80  1  0  0  0  0
 28 81  1  0  0  0  0
 29 31  2  0  0  0  0
 29 80  1  0  0  0  0
 30 82  1  0  0  0  0
 31 83  1  0  0  0  0
 32 66  2  0  0  0  0
 33 67  1  0  0  0  0
 33 70  1  0  0  0  0
 34 36  2  0  0  0  0
 35 37  2  0  0  0  0
 36 39  1  0  0  0  0
 37 62  1  0  0  0  0
 38 71  1  0  0  0  0
 38 75  2  0  0  0  0
 39 68  1  0  0  0  0
 39 76  2  0  0  0  0
 40 53  1  0  0  0  0
 40 72  1  0  0  0  0
 40 77  2  0  0  0  0
 41 63  1  0  0  0  0
 41 69  1  0  0  0  0
 41 78  2  0  0  0  0
 42 64  1  0  0  0  0
 42 73  1  0  0  0  0
 42 79  2  0  0  0  0
 43 46  1  0  0  0  0
 44 53  1  0  0  0  0
 45 69  1  0  0  0  0
 46 48  1  0  0  0  0
 47 49  1  0  0  0  0
 47 50  1  0  0  0  0
 48 52  1  0  0  0  0
 49 54  1  0  0  0  0
 50 68  1  0  0  0  0
 51 54  1  0  0  0  0
 51 68  1  0  0  0  0
 52 72  1  0  0  0  0
 53 69  1  0  0  0  0
 54 67  1  0  0  0  0
 57 64  1  0  0  0  0
 58 65  1  0  0  0  0
 59 65  1  0  0  0  0
 60 65  1  0  0  0  0
 61 74  1  0  0  0  0
 62 81  1  0  0  0  0
 63 65  1  0  0  0  0
 63 73  1  0  0  0  0
 64 74  1  0  0  0  0
 66 67  1  0  0  0  0
M  CHG  1  74   1
M  ISO  4  36 100  39 100  62 101  81 101
M  END
> <Batch ID>
0125

> <Smiles>
CNC(C)C(=O)NC(C(=O)N1Cc2cc([101O:1][101CH2:1]C=Cc3cc(C=[100CH:0][100C:0](=O)N4CCCC(n5nc(-c6ccc(Oc7ccc(F)cc7F)cc6)c(C(N)=O)c5N)C4)c(C)cc3C)ccc2CC1C(=O)NC1CCCc2ccccc21)C(C)(C)C

> <Shape>
0.261

> <Color>
0.121

> <Negative vol penalty>
0.000

$$$$

  -OEChem-04052302093D

 92101  0     1  0  0  0  0  0999 V2000
  -14.6207  -26.3980   21.1583 C   0  0  0  0  0  0  0  0  0  0  0  0
  -15.6351  -25.7225   21.8291 C   0  0  0  0  0  0  0  0  0  0  0  0
  -22.6643  -17.3770   26.5748 C   0  0  0  0  0  0  0  0  0  0  0  0
  -22.9988   -9.8957   19.9831 C   0  0  0  0  0  0  0  0  0  0  0  0
  -23.7283   -9.9470   22.2858 C   0  0  0  0  0  0  0  0  0  0  0  0
  -23.8196  -18.0199   26.1305 C   0  0  0  0  0  0  0  0  0  0  0  0
  -13.9851  -27.4801   21.7658 C   0  0  0  0  0  0  0  0  0  0  0  0
  -16.0154  -26.1294   23.1075 C   0  0  0  0  0  0  0  0  0  0  0  0
  -16.5953  -22.2360   26.2933 C   0  0  0  0  0  0  0  0  0  0  0  0
  -21.4337  -18.0308   26.5106 C   0  0  0  0  0  0  0  0  0  0  0  0
  -28.5878  -19.7296   22.8456 C   0  0  0  0  0  0  0  0  0  0  0  0
  -29.3996  -18.8745   22.1004 C   0  0  0  0  0  0  0  0  0  0  0  0
  -22.2331   -8.7610   20.2510 C   0  0  0  0  0  0  0  0  0  0  0  0
  -22.9625   -8.8124   22.5537 C   0  0  0  0  0  0  0  0  0  0  0  0
  -17.7721  -21.4959   26.1868 C   0  0  0  0  0  0  0  0  0  0  0  0
  -23.2067   -5.4734   22.0816 C   0  0  0  0  0  0  0  0  0  0  0  0
  -23.7959   -4.4565   22.8327 C   0  0  0  0  0  0  0  0  0  0  0  0
  -22.5140  -19.9704   25.5578 C   0  0  0  0  0  0  0  0  0  0  0  0
  -18.6888  -22.6937   28.0693 C   0  0  0  0  0  0  0  0  0  0  0  0
  -28.8883  -18.3231   24.7869 C   0  0  0  0  0  0  0  0  0  0  0  0
  -22.0751   -4.6991   24.5111 C   0  0  0  0  0  0  0  0  0  0  0  0
  -23.7465  -10.4887   21.0005 C   0  0  0  0  0  0  0  0  0  0  0  0
  -23.7445  -19.3166   25.6220 C   0  0  0  0  0  0  0  0  0  0  0  0
  -24.1309  -13.0043   20.8236 C   0  0  0  0  0  0  0  0  0  0  0  0
  -14.3511  -27.8944   23.0561 C   0  0  0  0  0  0  0  0  0  0  0  0
  -16.4604  -23.2197   27.2835 C   0  0  0  0  0  0  0  0  0  0  0  0
  -15.3850  -27.2189   23.7323 C   0  0  0  0  0  0  0  0  0  0  0  0
  -17.5084  -23.4431   28.1880 C   0  0  0  0  0  0  0  0  0  0  0  0
  -21.3586  -19.3275   26.0022 C   0  0  0  0  0  0  0  0  0  0  0  0
  -28.3322  -19.4539   24.1889 C   0  0  0  0  0  0  0  0  0  0  0  0
  -29.9557  -17.7436   22.6984 C   0  0  0  0  0  0  0  0  0  0  0  0
  -29.7001  -17.4679   24.0416 C   0  0  0  0  0  0  0  0  0  0  0  0
  -22.2149   -8.2194   21.5362 C   0  0  0  0  0  0  0  0  0  0  0  0
  -18.8201  -21.7267   27.0730 C   0  0  0  0  0  0  0  0  0  0  0  0
  -22.0517   -6.1034   22.5453 C   0  0  0  0  0  0  0  0  0  0  0  0
  -23.2301   -4.0693   24.0475 C   0  0  0  0  0  0  0  0  0  0  0  0
  -21.4859   -5.7162   23.7600 C   0  0  0  0  0  0  0  0  0  0  0  0
  -24.5382  -11.6604   20.7243 C   0  0  0  0  0  0  0  0  0  0  0  0
  -25.2398  -13.7272   20.4570 C   0  0  0  0  0  0  0  0  0  0  0  0
  -24.9495  -19.9875   25.1593 C   0  0  0  0  0  0  0  0  0  0  0  0
  -26.2158  -19.6549   25.4994 C   0  0  0  0  0  0  0  0  0  0  0  0
  -22.8635  -13.5505   21.2124 C   0  0  0  0  0  0  0  0  0  0  0  0
  -16.0095  -26.3662   27.2728 C   0  0  0  0  0  0  0  0  0  0  0  0
  -15.7437  -25.9468   30.4784 C   0  0  0  0  0  0  0  0  0  0  0  0
  -16.4751  -24.0555   33.2234 C   0  0  0  0  0  0  0  0  0  0  0  0
  -30.7364  -14.6631   20.6953 C   0  0  0  0  0  0  0  0  0  0  0  0
  -13.6677  -29.0992   23.6529 C   0  0  0  0  0  0  0  0  0  0  0  0
  -15.1745  -23.9909   27.4021 C   0  0  0  0  0  0  0  0  0  0  0  0
  -17.4059  -24.4737   29.2816 C   0  0  0  0  0  0  0  0  0  0  0  0
  -13.8736  -29.2322   25.1596 C   0  0  0  0  0  0  0  0  0  0  0  0
  -29.5919  -12.2389   18.3521 C   0  0  0  0  0  0  0  0  0  0  0  0
  -15.3414  -29.0228   25.5183 C   0  0  0  0  0  0  0  0  0  0  0  0
  -28.1443  -11.9789   18.7724 C   0  0  0  0  0  0  0  0  0  0  0  0
  -30.4965  -12.4746   19.5597 C   0  0  0  0  0  0  0  0  0  0  0  0
  -28.5887  -13.2698   20.9019 C   0  0  0  0  0  0  0  0  0  0  0  0
  -15.8087  -27.6148   25.1301 C   0  0  1  0  0  0  0  0  0  0  0  0
  -15.3417  -25.3241   28.1247 C   0  0  1  0  0  0  0  0  0  0  0  0
  -27.6275  -13.0818   19.7157 C   0  0  2  0  0  0  0  0  0  0  0  0
  -31.4734  -16.6111   25.5933 C   0  0  0  0  0  0  0  0  0  0  0  0
  -29.3863  -21.8754   25.7585 C   0  0  0  0  0  0  0  0  0  0  0  0
  -16.1542  -23.9877   35.7113 C   0  0  0  0  0  0  0  0  0  0  0  0
  -17.8867  -28.0932   30.8109 C   0  0  0  0  0  0  0  0  0  0  0  0
  -18.1989  -27.3173   33.1707 C   0  0  0  0  0  0  0  0  0  0  0  0
  -15.9989  -28.2420   32.4444 C   0  0  0  0  0  0  0  0  0  0  0  0
  -14.9885  -21.5005   33.0786 C   0  0  0  0  0  0  0  0  0  0  0  0
  -30.2843  -16.2630   24.7031 C   0  0  0  0  0  0  0  0  0  0  0  0
  -30.8208  -16.8421   21.8801 C   0  0  0  0  0  0  0  0  0  0  0  0
  -20.0345  -20.0298   25.9321 C   0  0  0  0  0  0  0  0  0  1  0  0
  -28.1746  -21.0560   26.1881 C   0  0  0  0  0  0  0  0  0  0  0  0
  -27.4461  -20.3867   25.0014 C   0  0  1  0  0  0  0  0  0  0  0  0
  -16.7069  -25.9518   31.6408 C   0  0  1  0  0  0  0  0  0  0  0  0
  -15.6050  -23.5531   34.3614 C   0  0  2  0  0  0  0  0  0  0  0  0
  -17.2008  -27.3829   31.9950 C   0  0  0  0  0  0  0  0  0  0  0  0
  -25.8067  -11.5342   20.3258 N   0  0  0  0  0  0  0  0  0  0  0  0
  -26.2061  -12.8081   20.1713 N   0  0  0  0  0  0  0  0  0  0  0  0
  -16.1309  -25.2064   29.3525 N   0  0  0  0  0  0  0  0  0  0  0  0
  -29.9510  -13.5333   20.4127 N   0  0  0  0  0  0  0  0  0  0  0  0
  -25.4727  -15.0529   20.3544 N   0  0  0  0  0  0  0  0  0  0  0  0
  -21.8326  -12.6661   21.5579 N   0  0  0  0  0  0  0  0  0  0  0  0
  -15.3414  -26.6431   26.0954 N   0  0  0  0  0  0  0  0  0  0  0  0
  -16.0292  -25.2656   32.7355 N   0  0  0  0  0  0  0  0  0  0  0  0
  -30.1413  -15.6218   21.5061 N   0  0  0  0  0  0  0  0  0  0  0  0
  -15.5332  -22.0647   34.3404 N   0  3  0  0  0  0  0  0  0  0  0  0
  -22.6465  -14.7857   21.2364 O   0  0  0  0  0  0  0  0  0  0  0  0
  -17.0529  -26.8821   27.6562 O   0  0  0  0  0  0  0  0  0  0  0  0
  -14.6835  -26.5708   30.5689 O   0  0  0  0  0  0  0  0  0  0  0  0
  -17.4546  -23.4381   32.8112 O   0  0  0  0  0  0  0  0  0  0  0  0
  -31.8809  -14.8092   20.2530 O   0  0  0  0  0  0  0  0  0  0  0  0
  -21.4676   -7.1123   21.7980 O   0  0  0  0  0  0  0  0  0  0  0  0
  -19.9700  -21.0062   26.9708 O   0  0  0  0  0  0  0  0  0  1  0  0
  -23.7951   -3.0916   24.7679 F   0  0  0  0  0  0  0  0  0  0  0  0
  -20.3757   -6.3168   24.2100 F   0  0  0  0  0  0  0  0  0  0  0  0
  1  2  1  0  0  0  0
  1  7  2  0  0  0  0
  2  8  2  0  0  0  0
  3  6  2  0  0  0  0
  3 10  1  0  0  0  0
  4 13  2  0  0  0  0
  4 22  1  0  0  0  0
  5 14  1  0  0  0  0
  5 22  2  0  0  0  0
  6 23  1  0  0  0  0
  7 25  1  0  0  0  0
  8 27  1  0  0  0  0
  9 15  2  0  0  0  0
  9 26  1  0  0  0  0
 10 29  2  0  0  0  0
 11 12  2  0  0  0  0
 11 30  1  0  0  0  0
 12 31  1  0  0  0  0
 13 33  1  0  0  0  0
 14 33  2  0  0  0  0
 15 34  1  0  0  0  0
 16 17  2  0  0  0  0
 16 35  1  0  0  0  0
 17 36  1  0  0  0  0
 18 23  2  0  0  0  0
 18 29  1  0  0  0  0
 19 28  1  0  0  0  0
 19 34  2  0  0  0  0
 20 30  2  0  0  0  0
 20 32  1  0  0  0  0
 21 36  2  0  0  0  0
 21 37  1  0  0  0  0
 22 38  1  0  0  0  0
 23 40  1  0  0  0  0
 24 38  1  0  0  0  0
 24 39  2  0  0  0  0
 24 42  1  0  0  0  0
 25 27  2  0  0  0  0
 25 47  1  0  0  0  0
 26 28  2  0  0  0  0
 26 48  1  0  0  0  0
 27 56  1  0  0  0  0
 28 49  1  0  0  0  0
 29 68  1  0  0  0  0
 30 70  1  0  0  0  0
 31 32  2  0  0  0  0
 31 67  1  0  0  0  0
 32 66  1  0  0  0  0
 33 89  1  0  0  0  0
 34 90  1  0  0  0  0
 35 37  2  0  0  0  0
 35 89  1  0  0  0  0
 36 91  1  0  0  0  0
 37 92  1  0  0  0  0
 38 74  2  0  0  0  0
 39 75  1  0  0  0  0
 39 78  1  0  0  0  0
 40 41  2  0  0  0  0
 41 70  1  0  0  0  0
 42 79  1  0  0  0  0
 42 84  2  0  0  0  0
 43 57  1  0  0  0  0
 43 80  1  0  0  0  0
 43 85  2  0  0  0  0
 44 71  1  0  0  0  0
 44 76  1  0  0  0  0
 44 86  2  0  0  0  0
 45 72  1  0  0  0  0
 45 81  1  0  0  0  0
 45 87  2  0  0  0  0
 46 77  1  0  0  0  0
 46 82  1  0  0  0  0
 46 88  2  0  0  0  0
 47 50  1  0  0  0  0
 48 57  1  0  0  0  0
 49 76  1  0  0  0  0
 50 52  1  0  0  0  0
 51 53  1  0  0  0  0
 51 54  1  0  0  0  0
 52 56  1  0  0  0  0
 53 58  1  0  0  0  0
 54 77  1  0  0  0  0
 55 58  1  0  0  0  0
 55 77  1  0  0  0  0
 56 80  1  0  0  0  0
 57 76  1  0  0  0  0
 58 75  1  0  0  0  0
 59 66  1  0  0  0  0
 60 69  1  0  0  0  0
 61 72  1  0  0  0  0
 62 73  1  0  0  0  0
 63 73  1  0  0  0  0
 64 73  1  0  0  0  0
 65 83  1  0  0  0  0
 67 82  1  0  0  0  0
 68 90  1  0  0  0  0
 69 70  1  0  0  0  0
 71 73  1  0  0  0  0
 71 81  1  0  0  0  0
 72 83  1  0  0  0  0
 74 75  1  0  0  0  0
M  CHG  1  83   1
M  ISO  4  46 100  68 101  82 100  90 101
M  END
> <Batch ID>
0125

> <Smiles>
CCc1cc(C(C=Cc2cccc([101CH2:1][101O:1]c3ccc4c(c3)CN(C(=O)C(NC(=O)C(C)NC)C(C)(C)C)C(C(=O)NC3CCCc5ccccc53)C4)c2)CC)ccc1C[100NH:0][100C:0](=O)N1CCCC(n2nc(-c3ccc(Oc4ccc(F)cc4F)cc3)c(C(N)=O)c2N)C1

> <Shape>
0.176

> <Color>
0.193

> <Negative vol penalty>
0.000

$$$$

  -OEChem-04052302093D

 83 91  0     1  0  0  0  0  0999 V2000
  -27.3164  -34.1886   25.0003 C   0  0  0  0  0  0  0  0  0  0  0  0
  -27.6160  -32.9206   24.5126 C   0  0  0  0  0  0  0  0  0  0  0  0
  -24.8067   -8.9857   21.4906 C   0  0  0  0  0  0  0  0  0  0  0  0
  -23.1426  -10.6787   21.0418 C   0  0  0  0  0  0  0  0  0  0  0  0
  -26.0122  -34.4957   25.3857 C   0  0  0  0  0  0  0  0  0  0  0  0
  -26.6117  -31.9586   24.4112 C   0  0  0  0  0  0  0  0  0  0  0  0
  -26.7513  -29.4613   20.0078 C   0  0  0  0  0  0  0  0  0  0  0  0
  -24.6036  -19.6451   19.9181 C   0  0  0  0  0  0  0  0  0  0  0  0
  -25.2075  -18.4196   19.6372 C   0  0  0  0  0  0  0  0  0  0  0  0
  -23.9473   -8.3847   22.4103 C   0  0  0  0  0  0  0  0  0  0  0  0
  -22.2831  -10.0777   21.9614 C   0  0  0  0  0  0  0  0  0  0  0  0
  -27.7131  -28.4610   19.8733 C   0  0  0  0  0  0  0  0  0  0  0  0
  -21.2474   -6.3505   22.3360 C   0  0  0  0  0  0  0  0  0  0  0  0
  -21.1143   -4.9629   22.2880 C   0  0  0  0  0  0  0  0  0  0  0  0
  -27.2619  -19.2022   20.6393 C   0  0  0  0  0  0  0  0  0  0  0  0
  -26.0350  -26.7928   20.3425 C   0  0  0  0  0  0  0  0  0  0  0  0
  -21.9176   -4.8072   24.5612 C   0  0  0  0  0  0  0  0  0  0  0  0
  -24.4044  -10.1327   20.8064 C   0  0  0  0  0  0  0  0  0  0  0  0
  -26.6580  -20.4278   20.9202 C   0  0  0  0  0  0  0  0  0  0  0  0
  -25.3874  -10.4830   18.4786 C   0  0  0  0  0  0  0  0  0  0  0  0
  -24.9894  -33.5400   25.2799 C   0  0  0  0  0  0  0  0  0  0  0  0
  -25.4241  -29.1351   20.3219 C   0  0  0  0  0  0  0  0  0  0  0  0
  -25.2929  -32.2528   24.7968 C   0  0  0  0  0  0  0  0  0  0  0  0
  -25.0577  -27.7907   20.4779 C   0  0  0  0  0  0  0  0  0  0  0  0
  -25.3289  -20.6493   20.5596 C   0  0  0  0  0  0  0  0  0  0  0  0
  -26.5366  -18.1981   19.9978 C   0  0  0  0  0  0  0  0  0  0  0  0
  -22.6855   -8.9307   22.6457 C   0  0  0  0  0  0  0  0  0  0  0  0
  -27.3556  -27.1267   20.0435 C   0  0  0  0  0  0  0  0  0  0  0  0
  -21.7156   -6.9666   23.4965 C   0  0  0  0  0  0  0  0  0  0  0  0
  -21.4493   -4.1912   23.4006 C   0  0  0  0  0  0  0  0  0  0  0  0
  -22.0507   -6.1949   24.6092 C   0  0  0  0  0  0  0  0  0  0  0  0
  -25.2919  -10.7543   19.8567 C   0  0  0  0  0  0  0  0  0  0  0  0
  -26.3700  -11.3309   18.0290 C   0  0  0  0  0  0  0  0  0  0  0  0
  -27.4506  -21.4675   21.5977 C   0  0  0  0  0  0  0  0  0  0  0  0
  -28.5694  -22.0279   21.1120 C   0  0  0  0  0  0  0  0  0  0  0  0
  -24.6534   -9.5483   17.6766 C   0  0  0  0  0  0  0  0  0  0  0  0
  -23.4667  -29.7850   22.7406 C   0  0  0  0  0  0  0  0  0  0  0  0
  -21.2849  -28.2829   20.8682 C   0  0  0  0  0  0  0  0  0  0  0  0
  -20.6655  -26.0578   18.3558 C   0  0  0  0  0  0  0  0  0  0  0  0
  -28.4588  -16.5697   20.0028 C   0  0  0  0  0  0  0  0  0  0  0  0
  -23.6043  -33.9035   25.7533 C   0  0  0  0  0  0  0  0  0  0  0  0
  -24.3929  -30.2240   20.4372 C   0  0  0  0  0  0  0  0  0  0  0  0
  -23.6421  -27.3863   20.7958 C   0  0  0  0  0  0  0  0  0  0  0  0
  -22.5219  -32.9454   25.2627 C   0  0  0  0  0  0  0  0  0  0  0  0
  -30.3321  -13.5843   19.4979 C   0  0  0  0  0  0  0  0  0  0  0  0
  -22.9612  -31.4979   25.4595 C   0  0  0  0  0  0  0  0  0  0  0  0
  -29.2606  -12.4959   19.4011 C   0  0  0  0  0  0  0  0  0  0  0  0
  -29.9596  -14.6577   20.5191 C   0  0  0  0  0  0  0  0  0  0  0  0
  -27.5614  -14.1705   20.2352 C   0  0  0  0  0  0  0  0  0  0  0  0
  -24.2257  -31.1900   24.6486 C   0  0  1  0  0  0  0  0  0  0  0  0
  -23.1798  -29.8128   21.2659 C   0  0  1  0  0  0  0  0  0  0  0  0
  -27.8617  -13.1011   19.1722 C   0  0  2  0  0  0  0  0  0  0  0  0
  -24.6496  -21.9502   20.8447 C   0  0  0  0  0  0  0  0  0  0  0  0
  -18.7805  -25.0104   17.0723 C   0  0  0  0  0  0  0  0  0  0  0  0
  -20.6715  -26.4755   23.2487 C   0  0  0  0  0  0  0  0  0  0  0  0
  -19.5312  -24.9013   21.6708 C   0  0  0  0  0  0  0  0  0  0  0  0
  -18.6621  -27.2216   21.9603 C   0  0  0  0  0  0  0  0  0  0  0  0
  -21.6345  -27.1771   15.7931 C   0  0  0  0  0  0  0  0  0  0  0  0
  -29.3438  -23.0909   21.8386 C   0  0  0  0  0  0  0  0  0  0  0  0
  -29.4693  -24.3585   20.9954 C   0  0  0  0  0  0  0  0  0  0  0  0
  -28.1068  -24.9642   20.6876 C   0  0  0  0  0  0  0  0  0  1  0  0
  -20.8228  -26.8557   20.6995 C   0  0  1  0  0  0  0  0  0  0  0  0
  -19.7855  -26.1506   17.1223 C   0  0  2  0  0  0  0  0  0  0  0  0
  -19.9491  -26.3710   21.8908 C   0  0  0  0  0  0  0  0  0  0  0  0
  -26.1459  -11.7004   20.2563 N   0  0  0  0  0  0  0  0  0  0  0  0
  -26.7873  -12.0309   19.1226 N   0  0  0  0  0  0  0  0  0  0  0  0
  -22.6714  -28.4879   20.9048 N   0  0  0  0  0  0  0  0  0  0  0  0
  -28.6241  -15.1882   20.2368 N   0  0  0  0  0  0  0  0  0  0  0  0
  -26.9091  -11.5383   16.8089 N   0  0  0  0  0  0  0  0  0  0  0  0
  -23.6795   -8.7548   18.2982 N   0  0  0  0  0  0  0  0  0  0  0  0
  -27.1497  -16.9529   19.7128 N   0  0  0  0  0  0  0  0  0  0  0  0
  -23.8961  -30.9943   23.2531 N   0  0  0  0  0  0  0  0  0  0  0  0
  -20.1545  -26.7934   19.4042 N   0  0  0  0  0  0  0  0  0  0  0  0
  -20.6178  -26.0979   15.8871 N   0  3  0  0  0  0  0  0  0  0  0  0
  -24.8665   -9.4089   16.4483 O   0  0  0  0  0  0  0  0  0  0  0  0
  -23.3086  -28.7439   23.3673 O   0  0  0  0  0  0  0  0  0  0  0  0
  -20.4467  -29.1835   20.9568 O   0  0  0  0  0  0  0  0  0  0  0  0
  -21.7005  -25.3958   18.3874 O   0  0  0  0  0  0  0  0  0  0  0  0
  -29.4132  -17.3511   20.0290 O   0  0  0  0  0  0  0  0  0  0  0  0
  -21.8465   -8.3444   23.5429 O   0  0  0  0  0  0  0  0  0  0  0  0
  -28.2926  -26.1484   19.9135 O   0  0  0  0  0  0  0  0  0  1  0  0
  -21.3200   -2.8588   23.3549 F   0  0  0  0  0  0  0  0  0  0  0  0
  -22.5000   -6.7812   25.7273 F   0  0  0  0  0  0  0  0  0  0  0  0
  1  2  1  0  0  0  0
  1  5  2  0  0  0  0
  2  6  2  0  0  0  0
  3 10  2  0  0  0  0
  3 18  1  0  0  0  0
  4 11  1  0  0  0  0
  4 18  2  0  0  0  0
  5 21  1  0  0  0  0
  6 23  1  0  0  0  0
  7 12  2  0  0  0  0
  7 22  1  0  0  0  0
  8  9  2  0  0  0  0
  8 25  1  0  0  0  0
  9 26  1  0  0  0  0
 10 27  1  0  0  0  0
 11 27  2  0  0  0  0
 12 28  1  0  0  0  0
 13 14  2  0  0  0  0
 13 29  1  0  0  0  0
 14 30  1  0  0  0  0
 15 19  1  0  0  0  0
 15 26  2  0  0  0  0
 16 24  1  0  0  0  0
 16 28  2  0  0  0  0
 17 30  2  0  0  0  0
 17 31  1  0  0  0  0
 18 32  1  0  0  0  0
 19 25  2  0  0  0  0
 19 34  1  0  0  0  0
 20 32  1  0  0  0  0
 20 33  2  0  0  0  0
 20 36  1  0  0  0  0
 21 23  2  0  0  0  0
 21 41  1  0  0  0  0
 22 24  2  0  0  0  0
 22 42  1  0  0  0  0
 23 50  1  0  0  0  0
 24 43  1  0  0  0  0
 25 53  1  0  0  0  0
 26 71  1  0  0  0  0
 27 80  1  0  0  0  0
 28 81  1  0  0  0  0
 29 31  2  0  0  0  0
 29 80  1  0  0  0  0
 30 82  1  0  0  0  0
 31 83  1  0  0  0  0
 32 65  2  0  0  0  0
 33 66  1  0  0  0  0
 33 69  1  0  0  0  0
 34 35  2  0  0  0  0
 35 59  1  0  0  0  0
 36 70  1  0  0  0  0
 36 75  2  0  0  0  0
 37 51  1  0  0  0  0
 37 72  1  0  0  0  0
 37 76  2  0  0  0  0
 38 62  1  0  0  0  0
 38 67  1  0  0  0  0
 38 77  2  0  0  0  0
 39 63  1  0  0  0  0
 39 73  1  0  0  0  0
 39 78  2  0  0  0  0
 40 68  1  0  0  0  0
 40 71  1  0  0  0  0
 40 79  2  0  0  0  0
 41 44  1  0  0  0  0
 42 51  1  0  0  0  0
 43 67  1  0  0  0  0
 44 46  1  0  0  0  0
 45 47  1  0  0  0  0
 45 48  1  0  0  0  0
 46 50  1  0  0  0  0
 47 52  1  0  0  0  0
 48 68  1  0  0  0  0
 49 52  1  0  0  0  0
 49 68  1  0  0  0  0
 50 72  1  0  0  0  0
 51 67  1  0  0  0  0
 52 66  1  0  0  0  0
 54 63  1  0  0  0  0
 55 64  1  0  0  0  0
 56 64  1  0  0  0  0
 57 64  1  0  0  0  0
 58 74  1  0  0  0  0
 59 60  1  0  0  0  0
 60 61  1  0  0  0  0
 61 81  1  0  0  0  0
 62 64  1  0  0  0  0
 62 73  1  0  0  0  0
 63 74  1  0  0  0  0
 65 66  1  0  0  0  0
M  CHG  1  74   1
M  ISO  4  40 100  61 101  71 100  81 101
M  END
> <Batch ID>
0125

> <Smiles>
CNC(C)C(=O)NC(C(=O)N1Cc2cc([101O:1][101CH2:1]CCC=Cc3cc([100NH:0][100C:0](=O)N4CCCC(n5nc(-c6ccc(Oc7ccc(F)cc7F)cc6)c(C(N)=O)c5N)C4)ccc3C)ccc2CC1C(=O)NC1CCCc2ccccc21)C(C)(C)C

> <Shape>
0.308

> <Color>
0.116

> <Negative vol penalty>
0.000

$$$$

  -OEChem-04052302093D

 82 90  0     1  0  0  0  0  0999 V2000
  -26.8097  -37.9626   18.6068 C   0  0  0  0  0  0  0  0  0  0  0  0
  -27.2298  -36.6685   18.3164 C   0  0  0  0  0  0  0  0  0  0  0  0
  -26.1359  -12.3808   21.5063 C   0  0  0  0  0  0  0  0  0  0  0  0
  -26.1324  -12.6757   19.1084 C   0  0  0  0  0  0  0  0  0  0  0  0
  -26.4584  -38.3037   19.9123 C   0  0  0  0  0  0  0  0  0  0  0  0
  -27.2998  -35.7150   19.3315 C   0  0  0  0  0  0  0  0  0  0  0  0
  -26.1500  -29.7201   18.8370 C   0  0  0  0  0  0  0  0  0  0  0  0
  -24.9223  -11.6982   21.4241 C   0  0  0  0  0  0  0  0  0  0  0  0
  -24.9188  -11.9931   19.0262 C   0  0  0  0  0  0  0  0  0  0  0  0
  -26.9852  -28.6143   18.6844 C   0  0  0  0  0  0  0  0  0  0  0  0
  -23.8594   -8.5979   20.5929 C   0  0  0  0  0  0  0  0  0  0  0  0
  -23.7278   -7.4188   21.3264 C   0  0  0  0  0  0  0  0  0  0  0  0
  -26.9214  -28.2449   21.0674 C   0  0  0  0  0  0  0  0  0  0  0  0
  -28.3794  -21.7897   15.3389 C   0  0  0  0  0  0  0  0  0  0  0  0
  -21.8737   -8.3809   22.5404 C   0  0  0  0  0  0  0  0  0  0  0  0
  -26.7410  -12.8696   20.3484 C   0  0  0  0  0  0  0  0  0  0  0  0
  -29.2873  -13.0228   20.3627 C   0  0  0  0  0  0  0  0  0  0  0  0
  -26.5149  -37.3513   20.9420 C   0  0  0  0  0  0  0  0  0  0  0  0
  -25.7022  -30.1037   20.1093 C   0  0  0  0  0  0  0  0  0  0  0  0
  -26.9502  -36.0441   20.6521 C   0  0  0  0  0  0  0  0  0  0  0  0
  -26.0785  -29.3544   21.2332 C   0  0  0  0  0  0  0  0  0  0  0  0
  -24.3137  -11.5044   20.1841 C   0  0  0  0  0  0  0  0  0  0  0  0
  -27.3734  -27.8782   19.8000 C   0  0  0  0  0  0  0  0  0  0  0  0
  -22.9981   -9.6685   20.8331 C   0  0  0  0  0  0  0  0  0  0  0  0
  -28.6994  -21.4914   16.6949 C   0  0  0  0  0  0  0  0  0  0  0  0
  -22.7349   -7.3103   22.3001 C   0  0  0  0  0  0  0  0  0  0  0  0
  -22.0053   -9.5600   21.8068 C   0  0  0  0  0  0  0  0  0  0  0  0
  -27.9944  -13.5752   20.4327 C   0  0  0  0  0  0  0  0  0  0  0  0
  -28.4414  -20.6729   14.5349 C   0  0  0  0  0  0  0  0  0  0  0  0
  -30.1287  -14.1006   20.4932 C   0  0  0  0  0  0  0  0  0  0  0  0
  -28.9935  -20.1577   16.8757 C   0  0  0  0  0  0  0  0  0  0  0  0
  -29.6917  -11.6575   20.1946 C   0  0  0  0  0  0  0  0  0  0  0  0
  -26.0411  -32.6944   21.9196 C   0  0  0  0  0  0  0  0  0  0  0  0
  -28.4397  -24.6158   18.6376 C   0  0  0  0  0  0  0  0  0  0  0  0
  -23.9350  -31.1495   23.8430 C   0  0  0  0  0  0  0  0  0  0  0  0
  -22.5591  -28.1922   24.8471 C   0  0  0  0  0  0  0  0  0  0  0  0
  -29.5071  -19.9289   19.3313 C   0  0  0  0  0  0  0  0  0  0  0  0
  -26.1705  -37.7796   22.3465 C   0  0  0  0  0  0  0  0  0  0  0  0
  -24.7801  -31.2832   20.2540 C   0  0  0  0  0  0  0  0  0  0  0  0
  -25.6089  -29.7127   22.6186 C   0  0  0  0  0  0  0  0  0  0  0  0
  -25.9140  -36.6106   23.2942 C   0  0  0  0  0  0  0  0  0  0  0  0
  -30.3522  -18.4601   22.4627 C   0  0  0  0  0  0  0  0  0  0  0  0
  -27.0016  -35.5518   23.1423 C   0  0  0  0  0  0  0  0  0  0  0  0
  -29.9668  -16.9892   22.2890 C   0  0  0  0  0  0  0  0  0  0  0  0
  -29.3704  -19.3911   21.7535 C   0  0  0  0  0  0  0  0  0  0  0  0
  -28.7528  -17.6146   20.1624 C   0  0  0  0  0  0  0  0  0  0  0  0
  -27.0156  -34.9752   21.7214 C   0  0  1  0  0  0  0  0  0  0  0  0
  -24.8005  -31.8894   21.6538 C   0  0  1  0  0  0  0  0  0  0  0  0
  -29.7488  -16.6352   20.8048 C   0  0  2  0  0  0  0  0  0  0  0  0
  -28.1800  -20.5680   13.0829 C   0  0  0  0  0  0  0  0  0  0  0  0
  -20.8899  -27.2443   26.4634 C   0  0  0  0  0  0  0  0  0  0  0  0
  -25.9289  -31.5293   26.1212 C   0  0  0  0  0  0  0  0  0  0  0  0
  -24.6807  -29.7844   27.4117 C   0  0  0  0  0  0  0  0  0  0  0  0
  -23.5384  -31.9023   26.7541 C   0  0  0  0  0  0  0  0  0  0  0  0
  -20.8931  -27.0933   22.6617 C   0  0  0  0  0  0  0  0  0  0  0  0
  -28.0972  -26.0764   18.4268 C   0  0  0  0  0  0  0  0  0  1  0  0
  -28.3961  -23.7420   17.4009 C   0  0  0  0  0  0  0  0  0  0  0  0
  -24.0507  -30.1696   24.9856 C   0  0  1  0  0  0  0  0  0  0  0  0
  -21.1152  -27.7722   25.0551 C   0  0  2  0  0  0  0  0  0  0  0  0
  -24.5602  -30.8405   26.2924 C   0  0  0  0  0  0  0  0  0  0  0  0
  -28.0082  -14.9009   20.5952 N   0  0  0  0  0  0  0  0  0  0  0  0
  -29.3201  -15.1905   20.6285 N   0  0  0  0  0  0  0  0  0  0  0  0
  -24.7136  -30.8780   22.7091 N   0  0  0  0  0  0  0  0  0  0  0  0
  -29.2173  -18.9979   20.3511 N   0  0  0  0  0  0  0  0  0  0  0  0
  -31.4740  -14.2127   20.5043 N   0  0  0  0  0  0  0  0  0  0  0  0
  -28.6981  -10.6762   20.0761 N   0  0  0  0  0  0  0  0  0  0  0  0
  -29.3567  -19.4318   18.0371 N   0  0  0  0  0  0  0  0  0  0  0  0
  -25.9394  -34.0226   21.5519 N   0  0  0  0  0  0  0  0  0  0  0  0
  -22.7441  -29.5328   25.1111 N   0  0  0  0  0  0  0  0  0  0  0  0
  -20.7423  -26.7023   24.0870 N   0  3  0  0  0  0  0  0  0  0  0  0
  -30.8983  -11.3159   20.1673 O   0  0  0  0  0  0  0  0  0  0  0  0
  -27.0177  -32.1512   22.4224 O   0  0  0  0  0  0  0  0  0  0  0  0
  -28.7343  -24.1673   19.7445 O   0  0  0  0  0  0  0  0  0  0  0  0
  -23.1761  -32.1161   23.9498 O   0  0  0  0  0  0  0  0  0  0  0  0
  -23.4359  -27.4085   24.4899 O   0  0  0  0  0  0  0  0  0  0  0  0
  -29.8888  -21.0738   19.5871 O   0  0  0  0  0  0  0  0  0  0  0  0
  -23.1295  -10.8381   20.1035 O   0  0  0  0  0  0  0  0  0  0  0  0
  -28.1892  -26.7988   19.6540 O   0  0  0  0  0  0  0  0  0  1  0  0
  -28.7190  -22.4054   17.7217 O   0  0  0  0  0  0  0  0  0  0  0  0
  -22.6077   -6.1774   23.0034 F   0  0  0  0  0  0  0  0  0  0  0  0
  -21.1742  -10.5848   22.0413 F   0  0  0  0  0  0  0  0  0  0  0  0
  -28.8837  -19.2718   15.4144 S   0  0  0  0  0  0  0  0  0  0  0  0
  1  2  1  0  0  0  0
  1  5  2  0  0  0  0
  2  6  2  0  0  0  0
  3  8  2  0  0  0  0
  3 16  1  0  0  0  0
  4  9  1  0  0  0  0
  4 16  2  0  0  0  0
  5 18  1  0  0  0  0
  6 20  1  0  0  0  0
  7 10  2  0  0  0  0
  7 19  1  0  0  0  0
  8 22  1  0  0  0  0
  9 22  2  0  0  0  0
 10 23  1  0  0  0  0
 11 12  2  0  0  0  0
 11 24  1  0  0  0  0
 12 26  1  0  0  0  0
 13 21  1  0  0  0  0
 13 23  2  0  0  0  0
 14 25  1  0  0  0  0
 14 29  2  0  0  0  0
 15 26  2  0  0  0  0
 15 27  1  0  0  0  0
 16 28  1  0  0  0  0
 17 28  1  0  0  0  0
 17 30  2  0  0  0  0
 17 32  1  0  0  0  0
 18 20  2  0  0  0  0
 18 38  1  0  0  0  0
 19 21  2  0  0  0  0
 19 39  1  0  0  0  0
 20 47  1  0  0  0  0
 21 40  1  0  0  0  0
 22 77  1  0  0  0  0
 23 78  1  0  0  0  0
 24 27  2  0  0  0  0
 24 77  1  0  0  0  0
 25 31  2  0  0  0  0
 25 79  1  0  0  0  0
 26 80  1  0  0  0  0
 27 81  1  0  0  0  0
 28 61  2  0  0  0  0
 29 50  1  0  0  0  0
 29 82  1  0  0  0  0
 30 62  1  0  0  0  0
 30 65  1  0  0  0  0
 31 67  1  0  0  0  0
 31 82  1  0  0  0  0
 32 66  1  0  0  0  0
 32 71  2  0  0  0  0
 33 48  1  0  0  0  0
 33 68  1  0  0  0  0
 33 72  2  0  0  0  0
 34 56  1  0  0  0  0
 34 57  1  0  0  0  0
 34 73  2  0  0  0  0
 35 58  1  0  0  0  0
 35 63  1  0  0  0  0
 35 74  2  0  0  0  0
 36 59  1  0  0  0  0
 36 69  1  0  0  0  0
 36 75  2  0  0  0  0
 37 64  1  0  0  0  0
 37 67  1  0  0  0  0
 37 76  2  0  0  0  0
 38 41  1  0  0  0  0
 39 48  1  0  0  0  0
 40 63  1  0  0  0  0
 41 43  1  0  0  0  0
 42 44  1  0  0  0  0
 42 45  1  0  0  0  0
 43 47  1  0  0  0  0
 44 49  1  0  0  0  0
 45 64  1  0  0  0  0
 46 49  1  0  0  0  0
 46 64  1  0  0  0  0
 47 68  1  0  0  0  0
 48 63  1  0  0  0  0
 49 62  1  0  0  0  0
 51 59  1  0  0  0  0
 52 60  1  0  0  0  0
 53 60  1  0  0  0  0
 54 60  1  0  0  0  0
 55 70  1  0  0  0  0
 56 78  1  0  0  0  0
 57 79  1  0  0  0  0
 58 60  1  0  0  0  0
 58 69  1  0  0  0  0
 59 70  1  0  0  0  0
 61 62  1  0  0  0  0
M  CHG  1  70   1
M  ISO  4  37 100  56 101  67 100  78 101
M  END
> <Batch ID>
0125

> <Smiles>
CNC(C)C(=O)NC(C(=O)N1Cc2cc([101O:1][101CH2:1]C(=O)COc3cc(C)sc3[100NH:0][100C:0](=O)N3CCCC(n4nc(-c5ccc(Oc6ccc(F)cc6F)cc5)c(C(N)=O)c4N)C3)ccc2CC1C(=O)NC1CCCc2ccccc21)C(C)(C)C

> <Shape>
0.298

> <Color>
0.102

> <Negative vol penalty>
0.000

$$$$

  -OEChem-04052302093D

 81 89  0     1  0  0  0  0  0999 V2000
  -23.5697  -30.4229   20.7201 C   0  0  0  0  0  0  0  0  0  0  0  0
  -24.2182  -29.3547   20.1088 C   0  0  0  0  0  0  0  0  0  0  0  0
  -27.6080  -16.1423   15.1865 C   0  0  0  0  0  0  0  0  0  0  0  0
  -23.3816   -9.7259   19.9495 C   0  0  0  0  0  0  0  0  0  0  0  0
  -23.6946   -9.9988   22.3295 C   0  0  0  0  0  0  0  0  0  0  0  0
  -27.1144  -17.2732   15.8369 C   0  0  0  0  0  0  0  0  0  0  0  0
  -28.5402  -15.3229   15.8230 C   0  0  0  0  0  0  0  0  0  0  0  0
  -24.2123  -31.1439   21.7257 C   0  0  0  0  0  0  0  0  0  0  0  0
  -25.5103  -29.0075   20.5020 C   0  0  0  0  0  0  0  0  0  0  0  0
  -26.0867  -24.0102   21.0852 C   0  0  0  0  0  0  0  0  0  0  0  0
  -22.6705   -8.5479   20.1780 C   0  0  0  0  0  0  0  0  0  0  0  0
  -22.9835   -8.8208   22.5581 C   0  0  0  0  0  0  0  0  0  0  0  0
  -26.2417  -23.2479   19.9283 C   0  0  0  0  0  0  0  0  0  0  0  0
  -19.7501   -7.8418   22.6432 C   0  0  0  0  0  0  0  0  0  0  0  0
  -18.7898   -7.8522   23.6547 C   0  0  0  0  0  0  0  0  0  0  0  0
  -28.6258  -23.1919   20.2918 C   0  0  0  0  0  0  0  0  0  0  0  0
  -19.9781   -6.0883   24.8009 C   0  0  0  0  0  0  0  0  0  0  0  0
  -23.8937  -10.4513   21.0253 C   0  0  0  0  0  0  0  0  0  0  0  0
  -27.5529  -17.5846   17.1239 C   0  0  0  0  0  0  0  0  0  0  0  0
  -28.9787  -15.6343   17.1100 C   0  0  0  0  0  0  0  0  0  0  0  0
  -24.1085  -12.9735   20.7088 C   0  0  0  0  0  0  0  0  0  0  0  0
  -25.5091  -30.7993   22.1381 C   0  0  0  0  0  0  0  0  0  0  0  0
  -27.2031  -24.3790   21.8495 C   0  0  0  0  0  0  0  0  0  0  0  0
  -26.1713  -29.7254   21.5131 C   0  0  0  0  0  0  0  0  0  0  0  0
  -28.4820  -23.9569   21.4594 C   0  0  0  0  0  0  0  0  0  0  0  0
  -28.4851  -16.7652   17.7604 C   0  0  0  0  0  0  0  0  0  0  0  0
  -22.4714   -8.0953   21.4823 C   0  0  0  0  0  0  0  0  0  0  0  0
  -27.5117  -22.8410   19.5298 C   0  0  0  0  0  0  0  0  0  0  0  0
  -20.8244   -6.9546   22.7104 C   0  0  0  0  0  0  0  0  0  0  0  0
  -18.9038   -6.9755   24.7336 C   0  0  0  0  0  0  0  0  0  0  0  0
  -20.9384   -6.0779   23.7893 C   0  0  0  0  0  0  0  0  0  0  0  0
  -24.6289  -11.6680   20.7898 C   0  0  0  0  0  0  0  0  0  0  0  0
  -25.2052  -13.7664   20.4745 C   0  0  0  0  0  0  0  0  0  0  0  0
  -27.0113  -18.7860   17.7808 C   0  0  0  0  0  0  0  0  0  0  0  0
  -27.1454  -20.0425   17.3286 C   0  0  0  0  0  0  0  0  0  0  0  0
  -29.9619  -14.7522   17.7519 C   0  0  0  0  0  0  0  0  0  0  0  0
  -22.7547  -13.4288   20.8342 C   0  0  0  0  0  0  0  0  0  0  0  0
  -28.5404  -27.1407   22.6792 C   0  0  0  0  0  0  0  0  0  0  0  0
  -30.4379  -25.2313   24.4891 C   0  0  0  0  0  0  0  0  0  0  0  0
  -31.7850  -22.1386   25.0065 C   0  0  0  0  0  0  0  0  0  0  0  0
  -26.1812  -31.6379   23.1964 C   0  0  0  0  0  0  0  0  0  0  0  0
  -27.0163  -25.1791   23.1095 C   0  0  0  0  0  0  0  0  0  0  0  0
  -29.7107  -24.3092   22.2560 C   0  0  0  0  0  0  0  0  0  0  0  0
  -27.4070  -30.9706   23.8147 C   0  0  0  0  0  0  0  0  0  0  0  0
  -30.1483  -12.7165   20.6782 C   0  0  0  0  0  0  0  0  0  0  0  0
  -28.3015  -30.3846   22.7269 C   0  0  0  0  0  0  0  0  0  0  0  0
  -28.6884  -12.3514   20.9529 C   0  0  0  0  0  0  0  0  0  0  0  0
  -30.4381  -12.7926   19.1813 C   0  0  0  0  0  0  0  0  0  0  0  0
  -28.0740  -13.3264   18.7007 C   0  0  0  0  0  0  0  0  0  0  0  0
  -27.5635  -29.3027   21.9292 C   0  0  1  0  0  0  0  0  0  0  0  0
  -28.2744  -25.9320   23.5311 C   0  0  1  0  0  0  0  0  0  0  0  0
  -27.7273  -13.2891   20.1981 C   0  0  1  0  0  0  0  0  0  0  0  0
  -29.9797  -18.2251   19.1465 C   0  0  0  0  0  0  0  0  0  0  0  0
  -33.3284  -20.8946   26.5453 C   0  0  0  0  0  0  0  0  0  0  0  0
  -32.8373  -26.5641   23.1562 C   0  0  0  0  0  0  0  0  0  0  0  0
  -34.2594  -24.6805   23.9915 C   0  0  0  0  0  0  0  0  0  0  0  0
  -33.0923  -26.1739   25.6133 C   0  0  0  0  0  0  0  0  0  0  0  0
  -29.6472  -20.2613   25.8215 C   0  0  0  0  0  0  0  0  0  0  0  0
  -28.9615  -17.0912   19.1428 C   0  0  0  0  0  0  0  0  0  0  0  0
  -26.5884  -21.2344   18.0391 C   0  0  0  0  0  0  0  0  0  1  0  0
  -31.7449  -24.5077   24.2715 C   0  0  1  0  0  0  0  0  0  0  0  0
  -31.8863  -21.2800   26.2543 C   0  0  2  0  0  0  0  0  0  0  0  0
  -32.9607  -25.4764   24.2418 C   0  0  0  0  0  0  0  0  0  0  0  0
  -25.9532  -11.6294   20.6205 N   0  0  0  0  0  0  0  0  0  0  0  0
  -26.2742  -12.9205   20.4308 N   0  0  0  0  0  0  0  0  0  0  0  0
  -29.4879  -13.6823   18.5148 N   0  0  0  0  0  0  0  0  0  0  0  0
  -29.4770  -25.0983   23.4768 N   0  0  0  0  0  0  0  0  0  0  0  0
  -25.3499  -15.0977   20.3036 N   0  0  0  0  0  0  0  0  0  0  0  0
  -21.7505  -12.4810   21.0741 N   0  0  0  0  0  0  0  0  0  0  0  0
  -27.5144  -28.0664   22.6799 N   0  0  0  0  0  0  0  0  0  0  0  0
  -31.8219  -23.4837   25.3078 N   0  0  0  0  0  0  0  0  0  0  0  0
  -31.0901  -20.0310   26.0896 N   0  3  0  0  0  0  0  0  0  0  0  0
  -31.1453  -15.0370   17.5741 O   0  0  0  0  0  0  0  0  0  0  0  0
  -22.4426  -14.6384   20.7200 O   0  0  0  0  0  0  0  0  0  0  0  0
  -29.5988  -27.2278   22.0677 O   0  0  0  0  0  0  0  0  0  0  0  0
  -30.2730  -25.8844   25.5224 O   0  0  0  0  0  0  0  0  0  0  0  0
  -31.6870  -21.6637   23.8772 O   0  0  0  0  0  0  0  0  0  0  0  0
  -21.7774   -6.9460   21.7057 O   0  0  0  0  0  0  0  0  0  0  0  0
  -27.6658  -22.0974   18.4006 O   0  0  0  0  0  0  0  0  0  1  0  0
  -17.9824   -6.9866   25.7058 F   0  0  0  0  0  0  0  0  0  0  0  0
  -21.9689   -5.2241   23.8600 F   0  0  0  0  0  0  0  0  0  0  0  0
  1  2  1  0  0  0  0
  1  8  2  0  0  0  0
  2  9  2  0  0  0  0
  3  6  1  0  0  0  0
  3  7  2  0  0  0  0
  4 11  2  0  0  0  0
  4 18  1  0  0  0  0
  5 12  1  0  0  0  0
  5 18  2  0  0  0  0
  6 19  2  0  0  0  0
  7 20  1  0  0  0  0
  8 22  1  0  0  0  0
  9 24  1  0  0  0  0
 10 13  2  0  0  0  0
 10 23  1  0  0  0  0
 11 27  1  0  0  0  0
 12 27  2  0  0  0  0
 13 28  1  0  0  0  0
 14 15  2  0  0  0  0
 14 29  1  0  0  0  0
 15 30  1  0  0  0  0
 16 25  1  0  0  0  0
 16 28  2  0  0  0  0
 17 30  2  0  0  0  0
 17 31  1  0  0  0  0
 18 32  1  0  0  0  0
 19 26  1  0  0  0  0
 19 34  1  0  0  0  0
 20 26  2  0  0  0  0
 20 36  1  0  0  0  0
 21 32  1  0  0  0  0
 21 33  2  0  0  0  0
 21 37  1  0  0  0  0
 22 24  2  0  0  0  0
 22 41  1  0  0  0  0
 23 25  2  0  0  0  0
 23 42  1  0  0  0  0
 24 50  1  0  0  0  0
 25 43  1  0  0  0  0
 26 59  1  0  0  0  0
 27 78  1  0  0  0  0
 28 79  1  0  0  0  0
 29 31  2  0  0  0  0
 29 78  1  0  0  0  0
 30 80  1  0  0  0  0
 31 81  1  0  0  0  0
 32 64  2  0  0  0  0
 33 65  1  0  0  0  0
 33 68  1  0  0  0  0
 34 35  2  0  0  0  0
 35 60  1  0  0  0  0
 36 66  1  0  0  0  0
 36 73  2  0  0  0  0
 37 69  1  0  0  0  0
 37 74  2  0  0  0  0
 38 51  1  0  0  0  0
 38 70  1  0  0  0  0
 38 75  2  0  0  0  0
 39 61  1  0  0  0  0
 39 67  1  0  0  0  0
 39 76  2  0  0  0  0
 40 62  1  0  0  0  0
 40 71  1  0  0  0  0
 40 77  2  0  0  0  0
 41 44  1  0  0  0  0
 42 51  1  0  0  0  0
 43 67  1  0  0  0  0
 44 46  1  0  0  0  0
 45 47  1  0  0  0  0
 45 48  1  0  0  0  0
 46 50  1  0  0  0  0
 47 52  1  0  0  0  0
 48 66  1  0  0  0  0
 49 52  1  0  0  0  0
 49 66  1  0  0  0  0
 50 70  1  0  0  0  0
 51 67  1  0  0  0  0
 52 65  1  0  0  0  0
 53 59  1  0  0  0  0
 54 62  1  0  0  0  0
 55 63  1  0  0  0  0
 56 63  1  0  0  0  0
 57 63  1  0  0  0  0
 58 72  1  0  0  0  0
 60 79  1  0  0  0  0
 61 63  1  0  0  0  0
 61 71  1  0  0  0  0
 62 72  1  0  0  0  0
 64 65  1  0  0  0  0
M  CHG  1  72   1
M  ISO  4  20 100  36 100  60 101  79 101
M  END
> <Batch ID>
0125

> <Smiles>
CCc1c(C=C[101CH2:1][101O:1]c2ccc3c(c2)CN(C(=O)C(NC(=O)C(C)NC)C(C)(C)C)C(C(=O)NC2CCCc4ccccc42)C3)ccc[100c:0]1[100C:0](=O)N1CCCC(n2nc(-c3ccc(Oc4ccc(F)cc4F)cc3)c(C(N)=O)c2N)C1

> <Shape>
0.236

> <Color>
0.204

> <Negative vol penalty>
0.000

$$$$

  -OEChem-04052302093D

 82 90  0     1  0  0  0  0  0999 V2000
  -30.4955  -35.4697   19.4853 C   0  0  0  0  0  0  0  0  0  0  0  0
  -30.2711  -34.1421   19.1353 C   0  0  0  0  0  0  0  0  0  0  0  0
  -24.6295   -9.2012   21.9025 C   0  0  0  0  0  0  0  0  0  0  0  0
  -22.9737  -10.3056   20.5330 C   0  0  0  0  0  0  0  0  0  0  0  0
  -30.1302  -35.9272   20.7507 C   0  0  0  0  0  0  0  0  0  0  0  0
  -29.6821  -33.2708   20.0510 C   0  0  0  0  0  0  0  0  0  0  0  0
  -25.8498  -28.6594   18.8045 C   0  0  0  0  0  0  0  0  0  0  0  0
  -23.6220   -8.4684   22.5298 C   0  0  0  0  0  0  0  0  0  0  0  0
  -21.9662   -9.5727   21.1601 C   0  0  0  0  0  0  0  0  0  0  0  0
  -26.0473  -27.2857   18.6707 C   0  0  0  0  0  0  0  0  0  0  0  0
  -21.7224   -5.7554   21.8482 C   0  0  0  0  0  0  0  0  0  0  0  0
  -21.9324   -4.3885   22.0300 C   0  0  0  0  0  0  0  0  0  0  0  0
  -25.3866  -26.9729   20.9695 C   0  0  0  0  0  0  0  0  0  0  0  0
  -24.8864  -19.5725   20.0300 C   0  0  0  0  0  0  0  0  0  0  0  0
  -22.8948  -20.4000   18.9410 C   0  0  0  0  0  0  0  0  0  0  0  0
  -23.6649  -18.1521   18.5044 C   0  0  0  0  0  0  0  0  0  0  0  0
  -21.7292   -4.6753   24.4203 C   0  0  0  0  0  0  0  0  0  0  0  0
  -24.3054  -10.1198   20.9042 C   0  0  0  0  0  0  0  0  0  0  0  0
  -26.0635  -10.5195   19.0994 C   0  0  0  0  0  0  0  0  0  0  0  0
  -29.5276  -35.0635   21.6789 C   0  0  0  0  0  0  0  0  0  0  0  0
  -25.4290  -29.2022   20.0270 C   0  0  0  0  0  0  0  0  0  0  0  0
  -29.3096  -33.7168   21.3304 C   0  0  0  0  0  0  0  0  0  0  0  0
  -25.1820  -28.3535   21.1155 C   0  0  0  0  0  0  0  0  0  0  0  0
  -23.9659  -20.5977   19.8125 C   0  0  0  0  0  0  0  0  0  0  0  0
  -24.7359  -18.3497   19.3759 C   0  0  0  0  0  0  0  0  0  0  0  0
  -22.2903   -8.6541   22.1586 C   0  0  0  0  0  0  0  0  0  0  0  0
  -25.8185  -26.4426   19.7541 C   0  0  0  0  0  0  0  0  0  0  0  0
  -21.5160   -6.5823   22.9524 C   0  0  0  0  0  0  0  0  0  0  0  0
  -21.9358   -3.8484   23.3160 C   0  0  0  0  0  0  0  0  0  0  0  0
  -22.7443  -19.1772   18.2870 C   0  0  0  0  0  0  0  0  0  0  0  0
  -21.5193   -6.0422   24.2385 C   0  0  0  0  0  0  0  0  0  0  0  0
  -25.3457  -10.8776   20.2563 C   0  0  0  0  0  0  0  0  0  0  0  0
  -26.9294  -11.5658   18.8949 C   0  0  0  0  0  0  0  0  0  0  0  0
  -25.9570   -9.3459   18.2826 C   0  0  0  0  0  0  0  0  0  0  0  0
  -26.6654  -31.2574   22.1130 C   0  0  0  0  0  0  0  0  0  0  0  0
  -24.9660  -22.9183   19.7443 C   0  0  0  0  0  0  0  0  0  0  0  0
  -23.7680  -30.9524   23.5392 C   0  0  0  0  0  0  0  0  0  0  0  0
  -20.9649  -29.0689   24.0314 C   0  0  0  0  0  0  0  0  0  0  0  0
  -26.7897  -17.3394   20.4284 C   0  0  0  0  0  0  0  0  0  0  0  0
  -29.1932  -35.5919   23.0513 C   0  0  0  0  0  0  0  0  0  0  0  0
  -25.1949  -30.6831   20.1474 C   0  0  0  0  0  0  0  0  0  0  0  0
  -24.7098  -28.8841   22.4436 C   0  0  0  0  0  0  0  0  0  0  0  0
  -28.2321  -34.6979   23.8307 C   0  0  0  0  0  0  0  0  0  0  0  0
  -29.3131  -14.9729   21.2706 C   0  0  0  0  0  0  0  0  0  0  0  0
  -28.6678  -33.2388   23.7398 C   0  0  0  0  0  0  0  0  0  0  0  0
  -28.6495  -13.6217   20.9950 C   0  0  0  0  0  0  0  0  0  0  0  0
  -28.3219  -15.9858   21.8409 C   0  0  0  0  0  0  0  0  0  0  0  0
  -26.4330  -14.8161   20.7765 C   0  0  0  0  0  0  0  0  0  0  0  0
  -28.6505  -32.7473   22.2874 C   0  0  1  0  0  0  0  0  0  0  0  0
  -25.2598  -31.1833   21.5871 C   0  0  1  0  0  0  0  0  0  0  0  0
  -27.3770  -13.7827   20.1403 C   0  0  2  0  0  0  0  0  0  0  0  0
  -18.7878  -29.0657   25.2793 C   0  0  0  0  0  0  0  0  0  0  0  0
  -25.2487  -30.2607   26.1158 C   0  0  0  0  0  0  0  0  0  0  0  0
  -23.0979  -29.3602   27.0279 C   0  0  0  0  0  0  0  0  0  0  0  0
  -23.2793  -31.7723   26.4180 C   0  0  0  0  0  0  0  0  0  0  0  0
  -19.3949  -28.9731   21.5245 C   0  0  0  0  0  0  0  0  0  0  0  0
  -24.1275  -21.9179   20.5189 C   0  0  0  0  0  0  0  0  0  0  0  0
  -25.1992  -24.2490   20.4329 C   0  0  0  0  0  0  0  0  0  1  0  0
  -23.1823  -30.0341   24.5846 C   0  0  1  0  0  0  0  0  0  0  0  0
  -19.4902  -29.4249   23.9791 C   0  0  2  0  0  0  0  0  0  0  0  0
  -23.7128  -30.3467   26.0122 C   0  0  0  0  0  0  0  0  0  0  0  0
  -25.7230  -12.0590   20.7521 N   0  0  0  0  0  0  0  0  0  0  0  0
  -26.6873  -12.4524   19.9027 N   0  0  0  0  0  0  0  0  0  0  0  0
  -24.5014  -30.3398   22.5132 N   0  0  0  0  0  0  0  0  0  0  0  0
  -27.1440  -16.0885   20.9766 N   0  0  0  0  0  0  0  0  0  0  0  0
  -27.8667  -11.8048   17.9532 N   0  0  0  0  0  0  0  0  0  0  0  0
  -25.0153   -8.3697   18.6352 N   0  0  0  0  0  0  0  0  0  0  0  0
  -25.6710  -17.3082   19.5964 N   0  0  0  0  0  0  0  0  0  0  0  0
  -27.2955  -32.4622   21.8664 N   0  0  0  0  0  0  0  0  0  0  0  0
  -21.7331  -30.1346   24.4504 N   0  0  0  0  0  0  0  0  0  0  0  0
  -18.8202  -28.6950   22.8659 N   0  3  0  0  0  0  0  0  0  0  0  0
  -26.6870   -9.1607   17.2795 O   0  0  0  0  0  0  0  0  0  0  0  0
  -27.1424  -30.2935   22.7003 O   0  0  0  0  0  0  0  0  0  0  0  0
  -25.4305  -22.6776   18.6307 O   0  0  0  0  0  0  0  0  0  0  0  0
  -23.5756  -32.1678   23.6257 O   0  0  0  0  0  0  0  0  0  0  0  0
  -21.3924  -27.9556   23.7341 O   0  0  0  0  0  0  0  0  0  0  0  0
  -27.4473  -18.3578   20.6569 O   0  0  0  0  0  0  0  0  0  0  0  0
  -21.3069   -7.9390   22.7702 O   0  0  0  0  0  0  0  0  0  0  0  0
  -26.0111  -25.1015   19.6264 O   0  0  0  0  0  0  0  0  0  1  0  0
  -22.1358   -2.5355   23.4904 F   0  0  0  0  0  0  0  0  0  0  0  0
  -21.7158  -18.9875   17.4501 F   0  0  0  0  0  0  0  0  0  0  0  0
  -21.3203   -6.8314   25.3031 F   0  0  0  0  0  0  0  0  0  0  0  0
  1  2  1  0  0  0  0
  1  5  2  0  0  0  0
  2  6  2  0  0  0  0
  3  8  2  0  0  0  0
  3 18  1  0  0  0  0
  4  9  1  0  0  0  0
  4 18  2  0  0  0  0
  5 20  1  0  0  0  0
  6 22  1  0  0  0  0
  7 10  2  0  0  0  0
  7 21  1  0  0  0  0
  8 26  1  0  0  0  0
  9 26  2  0  0  0  0
 10 27  1  0  0  0  0
 11 12  2  0  0  0  0
 11 28  1  0  0  0  0
 12 29  1  0  0  0  0
 13 23  1  0  0  0  0
 13 27  2  0  0  0  0
 14 24  2  0  0  0  0
 14 25  1  0  0  0  0
 15 24  1  0  0  0  0
 15 30  2  0  0  0  0
 16 25  2  0  0  0  0
 16 30  1  0  0  0  0
 17 29  2  0  0  0  0
 17 31  1  0  0  0  0
 18 32  1  0  0  0  0
 19 32  1  0  0  0  0
 19 33  2  0  0  0  0
 19 34  1  0  0  0  0
 20 22  2  0  0  0  0
 20 40  1  0  0  0  0
 21 23  2  0  0  0  0
 21 41  1  0  0  0  0
 22 49  1  0  0  0  0
 23 42  1  0  0  0  0
 24 57  1  0  0  0  0
 25 68  1  0  0  0  0
 26 78  1  0  0  0  0
 27 79  1  0  0  0  0
 28 31  2  0  0  0  0
 28 78  1  0  0  0  0
 29 80  1  0  0  0  0
 30 81  1  0  0  0  0
 31 82  1  0  0  0  0
 32 62  2  0  0  0  0
 33 63  1  0  0  0  0
 33 66  1  0  0  0  0
 34 67  1  0  0  0  0
 34 72  2  0  0  0  0
 35 50  1  0  0  0  0
 35 69  1  0  0  0  0
 35 73  2  0  0  0  0
 36 57  1  0  0  0  0
 36 58  1  0  0  0  0
 36 74  2  0  0  0  0
 37 59  1  0  0  0  0
 37 64  1  0  0  0  0
 37 75  2  0  0  0  0
 38 60  1  0  0  0  0
 38 70  1  0  0  0  0
 38 76  2  0  0  0  0
 39 65  1  0  0  0  0
 39 68  1  0  0  0  0
 39 77  2  0  0  0  0
 40 43  1  0  0  0  0
 41 50  1  0  0  0  0
 42 64  1  0  0  0  0
 43 45  1  0  0  0  0
 44 46  1  0  0  0  0
 44 47  1  0  0  0  0
 45 49  1  0  0  0  0
 46 51  1  0  0  0  0
 47 65  1  0  0  0  0
 48 51  1  0  0  0  0
 48 65  1  0  0  0  0
 49 69  1  0  0  0  0
 50 64  1  0  0  0  0
 51 63  1  0  0  0  0
 52 60  1  0  0  0  0
 53 61  1  0  0  0  0
 54 61  1  0  0  0  0
 55 61  1  0  0  0  0
 56 71  1  0  0  0  0
 58 79  1  0  0  0  0
 59 61  1  0  0  0  0
 59 70  1  0  0  0  0
 60 71  1  0  0  0  0
 62 63  1  0  0  0  0
M  CHG  1  71   1
M  ISO  4  39 100  58 101  68 100  79 101
M  END
> <Batch ID>
0125

> <Smiles>
CNC(C)C(=O)NC(C(=O)N1Cc2cc([101O:1][101CH2:1]C(=O)Cc3cc(F)cc([100NH:0][100C:0](=O)N4CCCC(n5nc(-c6ccc(Oc7ccc(F)cc7F)cc6)c(C(N)=O)c5N)C4)c3)ccc2CC1C(=O)NC1CCCc2ccccc21)C(C)(C)C

> <Shape>
0.247

> <Color>
0.099

> <Negative vol penalty>
0.000

$$$$

  -OEChem-04052302093D

 84 92  0     1  0  0  0  0  0999 V2000
  -27.4026  -29.5145   25.6138 C   0  0  0  0  0  0  0  0  0  0  0  0
  -27.1808  -28.1607   25.8449 C   0  0  0  0  0  0  0  0  0  0  0  0
  -22.8726  -11.1472   23.3573 C   0  0  0  0  0  0  0  0  0  0  0  0
  -29.3084  -23.3006   18.5706 C   0  0  0  0  0  0  0  0  0  0  0  0
  -28.2701  -23.2519   20.7516 C   0  0  0  0  0  0  0  0  0  0  0  0
  -22.4361  -12.2546   24.0843 C   0  0  0  0  0  0  0  0  0  0  0  0
  -23.7095  -11.3221   22.2552 C   0  0  0  0  0  0  0  0  0  0  0  0
  -26.3305  -30.3544   25.3155 C   0  0  0  0  0  0  0  0  0  0  0  0
  -25.8864  -27.6462   25.7789 C   0  0  0  0  0  0  0  0  0  0  0  0
  -24.2273  -22.0981   23.7860 C   0  0  0  0  0  0  0  0  0  0  0  0
  -29.1949  -24.6906   18.5476 C   0  0  0  0  0  0  0  0  0  0  0  0
  -28.1567  -24.6419   20.7286 C   0  0  0  0  0  0  0  0  0  0  0  0
  -23.9240  -20.9131   24.4550 C   0  0  0  0  0  0  0  0  0  0  0  0
  -26.1305  -26.9532   19.3203 C   0  0  0  0  0  0  0  0  0  0  0  0
  -24.9164  -27.5111   19.7209 C   0  0  0  0  0  0  0  0  0  0  0  0
  -23.6733  -13.7120   22.6071 C   0  0  0  0  0  0  0  0  0  0  0  0
  -21.5765  -21.4563   24.3406 C   0  0  0  0  0  0  0  0  0  0  0  0
  -26.0491  -28.7061   21.4890 C   0  0  0  0  0  0  0  0  0  0  0  0
  -28.8459  -22.5812   19.6726 C   0  0  0  0  0  0  0  0  0  0  0  0
  -22.8364  -13.5371   23.7092 C   0  0  0  0  0  0  0  0  0  0  0  0
  -24.1098  -12.6045   21.8801 C   0  0  0  0  0  0  0  0  0  0  0  0
  -30.0402  -20.3879   20.1931 C   0  0  0  0  0  0  0  0  0  0  0  0
  -25.0236  -29.8482   25.2362 C   0  0  0  0  0  0  0  0  0  0  0  0
  -23.2064  -22.9778   23.3983 C   0  0  0  0  0  0  0  0  0  0  0  0
  -24.7956  -28.4804   25.4805 C   0  0  0  0  0  0  0  0  0  0  0  0
  -21.8692  -22.6506   23.6645 C   0  0  0  0  0  0  0  0  0  0  0  0
  -28.6191  -25.3613   19.6266 C   0  0  0  0  0  0  0  0  0  0  0  0
  -22.5987  -20.5934   24.7350 C   0  0  0  0  0  0  0  0  0  0  0  0
  -27.3038  -27.2718   20.0041 C   0  0  0  0  0  0  0  0  0  0  0  0
  -24.8757  -28.3876   20.8052 C   0  0  0  0  0  0  0  0  0  0  0  0
  -27.2631  -28.1482   21.0884 C   0  0  0  0  0  0  0  0  0  0  0  0
  -28.9623  -21.1452   19.6967 C   0  0  0  0  0  0  0  0  0  0  0  0
  -29.6664  -19.0825   19.9869 C   0  0  0  0  0  0  0  0  0  0  0  0
  -22.3748  -14.7063   24.4782 C   0  0  0  0  0  0  0  0  0  0  0  0
  -22.9688  -15.9077   24.4665 C   0  0  0  0  0  0  0  0  0  0  0  0
  -24.9824  -12.7854   20.7305 C   0  0  0  0  0  0  0  0  0  0  0  0
  -31.2694  -20.8254   20.7876 C   0  0  0  0  0  0  0  0  0  0  0  0
  -22.4267  -17.0267   25.2908 C   0  0  0  0  0  0  0  0  0  0  0  0
  -22.4464  -25.9825   24.1039 C   0  0  0  0  0  0  0  0  0  0  0  0
  -25.8491  -15.1377   20.3676 C   0  0  0  0  0  0  0  0  0  0  0  0
  -20.2049  -25.5459   21.8002 C   0  0  0  0  0  0  0  0  0  0  0  0
  -18.2675  -23.3745   20.0174 C   0  0  0  0  0  0  0  0  0  0  0  0
  -23.8906  -30.8037   24.9571 C   0  0  0  0  0  0  0  0  0  0  0  0
  -23.5482  -24.2393   22.6537 C   0  0  0  0  0  0  0  0  0  0  0  0
  -20.7350  -23.5514   23.2515 C   0  0  0  0  0  0  0  0  0  0  0  0
  -22.5976  -30.1094   24.5372 C   0  0  0  0  0  0  0  0  0  0  0  0
  -25.8530  -17.1211   17.3191 C   0  0  0  0  0  0  0  0  0  0  0  0
  -22.2978  -28.9345   25.4626 C   0  0  0  0  0  0  0  0  0  0  0  0
  -26.7329  -18.3029   17.7245 C   0  0  0  0  0  0  0  0  0  0  0  0
  -25.0048  -16.6260   18.4877 C   0  0  0  0  0  0  0  0  0  0  0  0
  -26.6809  -17.4535   20.1096 C   0  0  0  0  0  0  0  0  0  0  0  0
  -23.4091  -27.8802   25.3935 C   0  0  1  0  0  0  0  0  0  0  0  0
  -22.4654  -25.3085   22.7612 C   0  0  1  0  0  0  0  0  0  0  0  0
  -27.5748  -17.9634   18.9669 C   0  0  2  0  0  0  0  0  0  0  0  0
  -16.5060  -23.3169   18.2310 C   0  0  0  0  0  0  0  0  0  0  0  0
  -18.1206  -26.4671   23.8292 C   0  0  0  0  0  0  0  0  0  0  0  0
  -16.3507  -25.5001   22.3458 C   0  0  0  0  0  0  0  0  0  0  0  0
  -17.7912  -27.3603   21.5166 C   0  0  0  0  0  0  0  0  0  0  0  0
  -19.9873  -21.7819   18.2105 C   0  0  0  0  0  0  0  0  0  0  0  0
  -24.9224  -14.0556   19.8733 C   0  0  0  0  0  0  0  0  0  0  0  0
  -23.1838  -18.3344   25.1937 C   0  0  0  0  0  0  0  0  0  1  0  0
  -18.7800  -25.0479   21.7757 C   0  0  1  0  0  0  0  0  0  0  0  0
  -17.9961  -23.2560   18.5285 C   0  0  2  0  0  0  0  0  0  0  0  0
  -17.7819  -26.0776   22.3765 C   0  0  0  0  0  0  0  0  0  0  0  0
  -27.9777  -20.3842   19.2115 N   0  0  0  0  0  0  0  0  0  0  0  0
  -25.8624  -11.8729   20.3855 N   0  0  0  0  0  0  0  0  0  0  0  0
  -28.4354  -19.1351   19.4020 N   0  0  0  0  0  0  0  0  0  0  0  0
  -21.1207  -24.7763   22.5316 N   0  0  0  0  0  0  0  0  0  0  0  0
  -25.8405  -16.3400   19.6600 N   0  0  0  0  0  0  0  0  0  0  0  0
  -30.2739  -17.9061   20.2507 N   0  0  0  0  0  0  0  0  0  0  0  0
  -31.4928  -22.2023   20.9238 N   0  0  0  0  0  0  0  0  0  0  0  0
  -23.2764  -27.0838   24.1924 N   0  0  0  0  0  0  0  0  0  0  0  0
  -18.4995  -24.6811   20.3918 N   0  0  0  0  0  0  0  0  0  0  0  0
  -18.5272  -21.9651   18.0064 N   0  3  0  0  0  0  0  0  0  0  0  0
  -32.1508  -20.0195   21.1711 O   0  0  0  0  0  0  0  0  0  0  0  0
  -21.4326  -16.8929   25.9993 O   0  0  0  0  0  0  0  0  0  0  0  0
  -21.7307  -25.5373   24.9934 O   0  0  0  0  0  0  0  0  0  0  0  0
  -26.5603  -14.9181   21.3514 O   0  0  0  0  0  0  0  0  0  0  0  0
  -20.4962  -26.5758   21.1870 O   0  0  0  0  0  0  0  0  0  0  0  0
  -18.2695  -22.4055   20.7734 O   0  0  0  0  0  0  0  0  0  0  0  0
  -28.5084  -26.7177   19.6046 O   0  0  0  0  0  0  0  0  0  0  0  0
  -22.3000  -19.4377   25.3884 O   0  0  0  0  0  0  0  0  0  1  0  0
  -23.7100  -28.9244   21.1889 F   0  0  0  0  0  0  0  0  0  0  0  0
  -28.3872  -28.4589   21.7484 F   0  0  0  0  0  0  0  0  0  0  0  0
  1  2  1  0  0  0  0
  1  8  2  0  0  0  0
  2  9  2  0  0  0  0
  3  6  2  0  0  0  0
  3  7  1  0  0  0  0
  4 11  2  0  0  0  0
  4 19  1  0  0  0  0
  5 12  1  0  0  0  0
  5 19  2  0  0  0  0
  6 20  1  0  0  0  0
  7 21  2  0  0  0  0
  8 23  1  0  0  0  0
  9 25  1  0  0  0  0
 10 13  2  0  0  0  0
 10 24  1  0  0  0  0
 11 27  1  0  0  0  0
 12 27  2  0  0  0  0
 13 28  1  0  0  0  0
 14 15  2  0  0  0  0
 14 29  1  0  0  0  0
 15 30  1  0  0  0  0
 16 20  2  0  0  0  0
 16 21  1  0  0  0  0
 17 26  1  0  0  0  0
 17 28  2  0  0  0  0
 18 30  2  0  0  0  0
 18 31  1  0  0  0  0
 19 32  1  0  0  0  0
 20 34  1  0  0  0  0
 21 36  1  0  0  0  0
 22 32  1  0  0  0  0
 22 33  2  0  0  0  0
 22 37  1  0  0  0  0
 23 25  2  0  0  0  0
 23 43  1  0  0  0  0
 24 26  2  0  0  0  0
 24 44  1  0  0  0  0
 25 52  1  0  0  0  0
 26 45  1  0  0  0  0
 27 81  1  0  0  0  0
 28 82  1  0  0  0  0
 29 31  2  0  0  0  0
 29 81  1  0  0  0  0
 30 83  1  0  0  0  0
 31 84  1  0  0  0  0
 32 65  2  0  0  0  0
 33 67  1  0  0  0  0
 33 70  1  0  0  0  0
 34 35  2  0  0  0  0
 35 38  1  0  0  0  0
 36 60  1  0  0  0  0
 36 66  2  0  0  0  0
 37 71  1  0  0  0  0
 37 75  2  0  0  0  0
 38 61  1  0  0  0  0
 38 76  2  0  0  0  0
 39 53  1  0  0  0  0
 39 72  1  0  0  0  0
 39 77  2  0  0  0  0
 40 60  1  0  0  0  0
 40 69  1  0  0  0  0
 40 78  2  0  0  0  0
 41 62  1  0  0  0  0
 41 68  1  0  0  0  0
 41 79  2  0  0  0  0
 42 63  1  0  0  0  0
 42 73  1  0  0  0  0
 42 80  2  0  0  0  0
 43 46  1  0  0  0  0
 44 53  1  0  0  0  0
 45 68  1  0  0  0  0
 46 48  1  0  0  0  0
 47 49  1  0  0  0  0
 47 50  1  0  0  0  0
 48 52  1  0  0  0  0
 49 54  1  0  0  0  0
 50 69  1  0  0  0  0
 51 54  1  0  0  0  0
 51 69  1  0  0  0  0
 52 72  1  0  0  0  0
 53 68  1  0  0  0  0
 54 67  1  0  0  0  0
 55 63  1  0  0  0  0
 56 64  1  0  0  0  0
 57 64  1  0  0  0  0
 58 64  1  0  0  0  0
 59 74  1  0  0  0  0
 61 82  1  0  0  0  0
 62 64  1  0  0  0  0
 62 73  1  0  0  0  0
 63 74  1  0  0  0  0
 65 67  1  0  0  0  0
M  CHG  1  74   1
M  ISO  4  40 100  60 100  61 101  82 101
M  END
> <Batch ID>
0125

> <Smiles>
CNC(C)C(=O)NC(C(=O)N1Cc2cc([101O:1][101CH2:1]C(=O)C=Cc3cccc(C(=N)[100CH2:0][100C:0](=O)N4CCCC(n5nc(-c6ccc(Oc7ccc(F)cc7F)cc6)c(C(N)=O)c5N)C4)c3)ccc2CC1C(=O)NC1CCCc2ccccc21)C(C)(C)C

> <Shape>
0.207

> <Color>
0.069

> <Negative vol penalty>
0.000

$$$$

  -OEChem-04052302093D

 85 94  0     1  0  0  0  0  0999 V2000
  -27.3546  -32.3395   27.6410 C   0  0  0  0  0  0  0  0  0  0  0  0
  -27.5654  -31.2753   26.7701 C   0  0  0  0  0  0  0  0  0  0  0  0
  -24.3354   -9.4577   21.8219 C   0  0  0  0  0  0  0  0  0  0  0  0
  -23.9944   -8.7913   19.5248 C   0  0  0  0  0  0  0  0  0  0  0  0
  -29.4612  -20.7396   19.2260 C   0  0  0  0  0  0  0  0  0  0  0  0
  -31.6195  -20.0352   18.3997 C   0  0  0  0  0  0  0  0  0  0  0  0
  -26.0667  -32.8389   27.8307 C   0  0  0  0  0  0  0  0  0  0  0  0
  -26.4883  -30.7091   26.0892 C   0  0  0  0  0  0  0  0  0  0  0  0
  -29.7355  -22.0478   18.8273 C   0  0  0  0  0  0  0  0  0  0  0  0
  -31.8938  -21.3434   18.0009 C   0  0  0  0  0  0  0  0  0  0  0  0
  -27.5012  -29.8808   21.1971 C   0  0  0  0  0  0  0  0  0  0  0  0
  -23.2507   -8.6718   22.2109 C   0  0  0  0  0  0  0  0  0  0  0  0
  -22.9096   -8.0054   19.9138 C   0  0  0  0  0  0  0  0  0  0  0  0
  -28.2750  -28.7632   20.8875 C   0  0  0  0  0  0  0  0  0  0  0  0
  -22.6237   -5.3987   22.7823 C   0  0  0  0  0  0  0  0  0  0  0  0
  -22.7786   -4.5927   23.9101 C   0  0  0  0  0  0  0  0  0  0  0  0
  -26.2755  -27.5496   20.2975 C   0  0  0  0  0  0  0  0  0  0  0  0
  -20.9506   -5.7484   24.9871 C   0  0  0  0  0  0  0  0  0  0  0  0
  -24.7073   -9.5174   20.4788 C   0  0  0  0  0  0  0  0  0  0  0  0
  -30.4033  -19.7333   19.0123 C   0  0  0  0  0  0  0  0  0  0  0  0
  -27.1760   -9.9349   19.9902 C   0  0  0  0  0  0  0  0  0  0  0  0
  -30.9518  -22.3497   18.2147 C   0  0  0  0  0  0  0  0  0  0  0  0
  -24.9746  -32.2848   27.1445 C   0  0  0  0  0  0  0  0  0  0  0  0
  -26.1054  -29.8376   21.0695 C   0  0  0  0  0  0  0  0  0  0  0  0
  -25.1844  -31.2007   26.2709 C   0  0  0  0  0  0  0  0  0  0  0  0
  -25.4864  -28.6689   20.6037 C   0  0  0  0  0  0  0  0  0  0  0  0
  -22.5378   -7.9457   21.2569 C   0  0  0  0  0  0  0  0  0  0  0  0
  -27.6620  -27.5965   20.4403 C   0  0  0  0  0  0  0  0  0  0  0  0
  -21.6323   -6.3797   22.7569 C   0  0  0  0  0  0  0  0  0  0  0  0
  -21.9420   -4.7675   25.0124 C   0  0  0  0  0  0  0  0  0  0  0  0
  -20.7958   -6.5545   23.8593 C   0  0  0  0  0  0  0  0  0  0  0  0
  -25.8274  -10.3294   20.0762 C   0  0  0  0  0  0  0  0  0  0  0  0
  -27.8368  -11.0613   19.5645 C   0  0  0  0  0  0  0  0  0  0  0  0
  -30.1634  -25.6236   18.7707 C   0  0  0  0  0  0  0  0  0  0  0  0
  -31.1941  -24.7735   18.9091 C   0  0  0  0  0  0  0  0  0  0  0  0
  -30.1175  -18.3691   19.4281 C   0  0  0  0  0  0  0  0  0  0  0  0
  -28.8885  -17.8648   19.6688 C   0  0  0  0  0  0  0  0  0  0  0  0
  -27.7777   -8.6640   20.2701 C   0  0  0  0  0  0  0  0  0  0  0  0
  -28.7609  -16.4511   20.0759 C   0  0  0  0  0  0  0  0  0  0  0  0
  -23.6589  -30.1452   23.0754 C   0  0  0  0  0  0  0  0  0  0  0  0
  -21.9087  -29.9968   20.3483 C   0  0  0  0  0  0  0  0  0  0  0  0
  -21.6937  -28.9885   17.0950 C   0  0  0  0  0  0  0  0  0  0  0  0
  -23.5943  -32.8276   27.4180 C   0  0  0  0  0  0  0  0  0  0  0  0
  -25.2871  -31.0604   21.3820 C   0  0  0  0  0  0  0  0  0  0  0  0
  -23.9931  -28.5776   20.4301 C   0  0  0  0  0  0  0  0  0  0  0  0
  -29.3617  -25.3296   17.5388 C   0  0  0  0  0  0  0  0  0  0  0  0
  -22.5599  -32.4156   26.3737 C   0  0  0  0  0  0  0  0  0  0  0  0
  -30.2410  -24.3462   16.7675 C   0  0  0  0  0  0  0  0  0  0  0  0
  -26.0902  -15.4417   17.7780 C   0  0  0  0  0  0  0  0  0  0  0  0
  -22.6684  -30.9238   26.0745 C   0  0  0  0  0  0  0  0  0  0  0  0
  -25.8666  -13.9937   18.2056 C   0  0  0  0  0  0  0  0  0  0  0  0
  -26.4686  -16.3346   18.9587 C   0  0  0  0  0  0  0  0  0  0  0  0
  -27.4184  -14.3862   20.1596 C   0  0  0  0  0  0  0  0  0  0  0  0
  -31.2482  -23.7713   17.7795 C   0  0  2  0  0  0  0  0  0  0  0  0
  -24.0450  -30.5760   25.4953 C   0  0  1  0  0  0  0  0  0  0  0  0
  -23.8314  -30.7384   21.7057 C   0  0  1  0  0  0  0  0  0  0  0  0
  -27.0826  -13.4607   18.9797 C   0  0  1  0  0  0  0  0  0  0  0  0
  -32.2271  -24.7337   19.9844 C   0  0  0  0  0  0  0  0  0  0  0  0
  -20.1250  -28.9753   15.1363 C   0  0  0  0  0  0  0  0  0  0  0  0
  -20.3192  -27.7350   21.6398 C   0  0  0  0  0  0  0  0  0  0  0  0
  -19.4481  -27.1438   19.3682 C   0  0  0  0  0  0  0  0  0  0  0  0
  -18.9396  -29.3780   20.3544 C   0  0  0  0  0  0  0  0  0  0  0  0
  -23.5546  -30.5935   15.4456 C   0  0  0  0  0  0  0  0  0  0  0  0
  -29.7389  -26.7395   19.6608 C   0  0  0  0  0  0  0  0  0  1  0  0
  -21.2820  -28.8870   19.5393 C   0  0  1  0  0  0  0  0  0  0  0  0
  -21.2484  -29.7195   15.8412 C   0  0  2  0  0  0  0  0  0  0  0  0
  -20.0252  -28.2867   20.2304 C   0  0  0  0  0  0  0  0  0  0  0  0
  -25.6409  -11.6067   19.7329 N   0  0  0  0  0  0  0  0  0  0  0  0
  -26.8811  -12.0245   19.4271 N   0  0  0  0  0  0  0  0  0  0  0  0
  -27.5966  -15.7739   19.7178 N   0  0  0  0  0  0  0  0  0  0  0  0
  -23.2357  -29.7976   20.7548 N   0  0  0  0  0  0  0  0  0  0  0  0
  -29.1363  -11.3118   19.2982 N   0  0  0  0  0  0  0  0  0  0  0  0
  -26.9534   -7.6142   20.6978 N   0  0  0  0  0  0  0  0  0  0  0  0
  -24.1159  -30.9523   24.0997 N   0  0  0  0  0  0  0  0  0  0  0  0
  -21.0275  -29.4415   18.2140 N   0  0  0  0  0  0  0  0  0  0  0  0
  -22.3879  -29.8597   14.8911 N   0  3  0  0  0  0  0  0  0  0  0  0
  -29.0121   -8.4696   20.1604 O   0  0  0  0  0  0  0  0  0  0  0  0
  -29.6925  -15.9566   20.7134 O   0  0  0  0  0  0  0  0  0  0  0  0
  -23.1476  -29.0379   23.1942 O   0  0  0  0  0  0  0  0  0  0  0  0
  -21.2476  -31.0064   20.6039 O   0  0  0  0  0  0  0  0  0  0  0  0
  -22.5446  -28.1017   17.0823 O   0  0  0  0  0  0  0  0  0  0  0  0
  -21.4794   -7.1786   21.6362 O   0  0  0  0  0  0  0  0  0  0  0  0
  -28.4149  -26.5039   20.1380 O   0  0  0  0  0  0  0  0  0  1  0  0
  -22.0898   -3.9923   26.0948 F   0  0  0  0  0  0  0  0  0  0  0  0
  -19.8408   -7.4944   23.8403 F   0  0  0  0  0  0  0  0  0  0  0  0
  1  2  1  0  0  0  0
  1  7  2  0  0  0  0
  2  8  2  0  0  0  0
  3 12  2  0  0  0  0
  3 19  1  0  0  0  0
  4 13  1  0  0  0  0
  4 19  2  0  0  0  0
  5  9  2  0  0  0  0
  5 20  1  0  0  0  0
  6 10  1  0  0  0  0
  6 20  2  0  0  0  0
  7 23  1  0  0  0  0
  8 25  1  0  0  0  0
  9 22  1  0  0  0  0
 10 22  2  0  0  0  0
 11 14  2  0  0  0  0
 11 24  1  0  0  0  0
 12 27  1  0  0  0  0
 13 27  2  0  0  0  0
 14 28  1  0  0  0  0
 15 16  2  0  0  0  0
 15 29  1  0  0  0  0
 16 30  1  0  0  0  0
 17 26  1  0  0  0  0
 17 28  2  0  0  0  0
 18 30  2  0  0  0  0
 18 31  1  0  0  0  0
 19 32  1  0  0  0  0
 20 36  1  0  0  0  0
 21 32  1  0  0  0  0
 21 33  2  0  0  0  0
 21 38  1  0  0  0  0
 22 54  1  0  0  0  0
 23 25  2  0  0  0  0
 23 43  1  0  0  0  0
 24 26  2  0  0  0  0
 24 44  1  0  0  0  0
 25 55  1  0  0  0  0
 26 45  1  0  0  0  0
 27 82  1  0  0  0  0
 28 83  1  0  0  0  0
 29 31  2  0  0  0  0
 29 82  1  0  0  0  0
 30 84  1  0  0  0  0
 31 85  1  0  0  0  0
 32 68  2  0  0  0  0
 33 69  1  0  0  0  0
 33 72  1  0  0  0  0
 34 35  2  0  0  0  0
 34 46  1  0  0  0  0
 34 64  1  0  0  0  0
 35 54  1  0  0  0  0
 35 58  1  0  0  0  0
 36 37  2  0  0  0  0
 37 39  1  0  0  0  0
 38 73  1  0  0  0  0
 38 77  2  0  0  0  0
 39 70  1  0  0  0  0
 39 78  2  0  0  0  0
 40 56  1  0  0  0  0
 40 74  1  0  0  0  0
 40 79  2  0  0  0  0
 41 65  1  0  0  0  0
 41 71  1  0  0  0  0
 41 80  2  0  0  0  0
 42 66  1  0  0  0  0
 42 75  1  0  0  0  0
 42 81  2  0  0  0  0
 43 47  1  0  0  0  0
 44 56  1  0  0  0  0
 45 71  1  0  0  0  0
 46 48  1  0  0  0  0
 47 50  1  0  0  0  0
 48 54  1  0  0  0  0
 49 51  1  0  0  0  0
 49 52  1  0  0  0  0
 50 55  1  0  0  0  0
 51 57  1  0  0  0  0
 52 70  1  0  0  0  0
 53 57  1  0  0  0  0
 53 70  1  0  0  0  0
 55 74  1  0  0  0  0
 56 71  1  0  0  0  0
 57 69  1  0  0  0  0
 59 66  1  0  0  0  0
 60 67  1  0  0  0  0
 61 67  1  0  0  0  0
 62 67  1  0  0  0  0
 63 76  1  0  0  0  0
 64 83  1  0  0  0  0
 65 67  1  0  0  0  0
 65 75  1  0  0  0  0
 66 76  1  0  0  0  0
 68 69  1  0  0  0  0
M  CHG  1  76   1
M  ISO  4  37 100  39 100  64 101  83 101
M  END
> <Batch ID>
0125

> <Smiles>
CNC(C)C(=O)NC(C(=O)N1Cc2cc([101O:1][101CH2:1]C3=C(C)C(c4ccc(C=[100CH:0][100C:0](=O)N5CCCC(n6nc(-c7ccc(Oc8ccc(F)cc8F)cc7)c(C(N)=O)c6N)C5)cc4)CC3)ccc2CC1C(=O)NC1CCCc2ccccc21)C(C)(C)C

> <Shape>
0.306

> <Color>
0.117

> <Negative vol penalty>
0.000

$$$$

  -OEChem-04052302093D

 82 90  0     1  0  0  0  0  0999 V2000
  -22.1258  -11.7364   19.7285 C   0  0  0  0  0  0  0  0  0  0  0  0
  -21.7223  -13.0661   19.7971 C   0  0  0  0  0  0  0  0  0  0  0  0
  -29.6104  -27.2477   17.1488 C   0  0  0  0  0  0  0  0  0  0  0  0
  -29.3858  -25.7878   19.0607 C   0  0  0  0  0  0  0  0  0  0  0  0
  -23.3987  -11.3719   20.1652 C   0  0  0  0  0  0  0  0  0  0  0  0
  -22.5913  -14.0319   20.3035 C   0  0  0  0  0  0  0  0  0  0  0  0
  -23.0891  -19.8564   18.4780 C   0  0  0  0  0  0  0  0  0  0  0  0
  -30.8771  -26.7214   16.8957 C   0  0  0  0  0  0  0  0  0  0  0  0
  -30.6525  -25.2614   18.8076 C   0  0  0  0  0  0  0  0  0  0  0  0
  -22.5717  -21.0466   18.9876 C   0  0  0  0  0  0  0  0  0  0  0  0
  -34.0121  -27.0845   18.1056 C   0  0  0  0  0  0  0  0  0  0  0  0
  -35.0381  -27.9813   17.8078 C   0  0  0  0  0  0  0  0  0  0  0  0
  -20.6379  -27.1123   22.1724 C   0  0  0  0  0  0  0  0  0  0  0  0
  -18.9645  -28.4697   23.2650 C   0  0  0  0  0  0  0  0  0  0  0  0
  -18.4179  -26.2317   22.5373 C   0  0  0  0  0  0  0  0  0  0  0  0
  -24.6384  -21.4313   20.1708 C   0  0  0  0  0  0  0  0  0  0  0  0
  -35.3464  -26.9159   15.6615 C   0  0  0  0  0  0  0  0  0  0  0  0
  -28.8648  -26.7810   18.2314 C   0  0  0  0  0  0  0  0  0  0  0  0
  -20.2623  -28.3107   22.7791 C   0  0  0  0  0  0  0  0  0  0  0  0
  -19.7157  -26.0727   22.0514 C   0  0  0  0  0  0  0  0  0  0  0  0
  -26.3261  -26.8583   17.9934 C   0  0  0  0  0  0  0  0  0  0  0  0
  -24.2872  -12.3353   20.6682 C   0  0  0  0  0  0  0  0  0  0  0  0
  -24.3832  -19.4386   18.8203 C   0  0  0  0  0  0  0  0  0  0  0  0
  -23.8769  -13.6797   20.7486 C   0  0  0  0  0  0  0  0  0  0  0  0
  -25.1708  -20.2367   19.6622 C   0  0  0  0  0  0  0  0  0  0  0  0
  -18.0423  -27.4302   23.1441 C   0  0  0  0  0  0  0  0  0  0  0  0
  -31.3981  -25.7282   17.7250 C   0  0  0  0  0  0  0  0  0  0  0  0
  -23.3453  -21.8328   19.8364 C   0  0  0  0  0  0  0  0  0  0  0  0
  -33.6533  -26.1033   17.1814 C   0  0  0  0  0  0  0  0  0  0  0  0
  -35.7052  -27.8971   16.5858 C   0  0  0  0  0  0  0  0  0  0  0  0
  -34.3204  -26.0190   15.9593 C   0  0  0  0  0  0  0  0  0  0  0  0
  -27.5565  -27.3247   18.4938 C   0  0  0  0  0  0  0  0  0  0  0  0
  -25.3916  -27.7079   18.5333 C   0  0  0  0  0  0  0  0  0  0  0  0
  -21.2241  -29.3946   22.9058 C   0  0  0  0  0  0  0  0  0  0  0  0
  -20.1122  -24.8073   21.4114 C   0  0  0  0  0  0  0  0  0  0  0  0
  -22.5660  -29.2624   22.8407 C   0  0  0  0  0  0  0  0  0  0  0  0
  -21.1595  -24.6519   20.5865 C   0  0  0  0  0  0  0  0  0  0  0  0
  -26.0523  -25.7557   17.1187 C   0  0  0  0  0  0  0  0  0  0  0  0
  -23.4146  -30.4683   22.9787 C   0  0  0  0  0  0  0  0  0  0  0  0
  -25.6016  -16.9205   20.3298 C   0  0  0  0  0  0  0  0  0  0  0  0
  -28.4262  -18.2418   19.4363 C   0  0  0  0  0  0  0  0  0  0  0  0
  -30.1568  -21.0381   18.5239 C   0  0  0  0  0  0  0  0  0  0  0  0
  -25.6359  -11.8860   21.1723 C   0  0  0  0  0  0  0  0  0  0  0  0
  -24.9364  -18.1656   18.2409 C   0  0  0  0  0  0  0  0  0  0  0  0
  -26.5735  -19.8429   20.0440 C   0  0  0  0  0  0  0  0  0  0  0  0
  -26.6324  -13.0290   21.3472 C   0  0  0  0  0  0  0  0  0  0  0  0
  -25.9365  -32.0788   21.0031 C   0  0  0  0  0  0  0  0  0  0  0  0
  -25.9790  -14.2005   22.0736 C   0  0  0  0  0  0  0  0  0  0  0  0
  -26.5077  -30.9381   20.1615 C   0  0  0  0  0  0  0  0  0  0  0  0
  -25.5237  -31.5968   22.3901 C   0  0  0  0  0  0  0  0  0  0  0  0
  -25.1298  -29.3060   21.5266 C   0  0  0  0  0  0  0  0  0  0  0  0
  -24.8000  -14.7603   21.2687 C   0  0  1  0  0  0  0  0  0  0  0  0
  -26.0779  -17.5799   19.0664 C   0  0  1  0  0  0  0  0  0  0  0  0
  -25.5323  -29.7487   20.1090 C   0  0  2  0  0  0  0  0  0  0  0  0
  -16.6548  -27.5996   23.6643 C   0  0  0  0  0  0  0  0  0  0  0  0
  -32.4591  -21.8113   17.8924 C   0  0  0  0  0  0  0  0  0  0  0  0
  -29.2713  -18.1095   22.3652 C   0  0  0  0  0  0  0  0  0  0  0  0
  -31.1146  -19.7182   21.8336 C   0  0  0  0  0  0  0  0  0  0  0  0
  -31.0594  -17.4798   20.7340 C   0  0  0  0  0  0  0  0  0  0  0  0
  -29.2519  -21.9223   15.8484 C   0  0  0  0  0  0  0  0  0  0  0  0
  -21.5152  -23.3474   19.9484 C   0  0  0  0  0  0  0  0  0  1  0  0
  -29.3799  -19.2402   20.0466 C   0  0  1  0  0  0  0  0  0  0  0  0
  -31.1222  -21.2972   17.3814 C   0  0  2  0  0  0  0  0  0  0  0  0
  -30.1792  -18.6437   21.2394 C   0  0  0  0  0  0  0  0  0  0  0  0
  -27.4194  -28.3881   19.2903 N   0  0  0  0  0  0  0  0  0  0  0  0
  -26.0919  -28.5970   19.2944 N   0  0  0  0  0  0  0  0  0  0  0  0
  -24.6275  -30.4455   22.3046 N   0  0  0  0  0  0  0  0  0  0  0  0
  -27.0672  -18.5863   19.4569 N   0  0  0  0  0  0  0  0  0  0  0  0
  -24.0475  -27.7736   18.4266 N   0  0  0  0  0  0  0  0  0  0  0  0
  -27.1287  -24.9862   16.6566 N   0  0  0  0  0  0  0  0  0  0  0  0
  -25.2777  -15.5856   20.1800 N   0  0  0  0  0  0  0  0  0  0  0  0
  -30.2135  -19.7292   18.9537 N   0  0  0  0  0  0  0  0  0  0  0  0
  -30.5565  -22.3088   16.4446 N   0  3  0  0  0  0  0  0  0  0  0  0
  -24.8892  -25.4717   16.7445 O   0  0  0  0  0  0  0  0  0  0  0  0
  -22.9526  -31.3611   23.6772 O   0  0  0  0  0  0  0  0  0  0  0  0
  -25.5344  -17.5741   21.3642 O   0  0  0  0  0  0  0  0  0  0  0  0
  -28.8712  -17.1980   18.9525 O   0  0  0  0  0  0  0  0  0  0  0  0
  -29.4280  -21.9106   18.9910 O   0  0  0  0  0  0  0  0  0  0  0  0
  -32.6340  -25.2142   17.4782 O   0  0  0  0  0  0  0  0  0  0  0  0
  -22.8426  -22.9946   20.3357 O   0  0  0  0  0  0  0  0  0  1  0  0
  -36.6894  -28.7593   16.2993 F   0  0  0  0  0  0  0  0  0  0  0  0
  -33.9794  -25.0793   15.0669 F   0  0  0  0  0  0  0  0  0  0  0  0
  1  2  1  0  0  0  0
  1  5  2  0  0  0  0
  2  6  2  0  0  0  0
  3  8  2  0  0  0  0
  3 18  1  0  0  0  0
  4  9  1  0  0  0  0
  4 18  2  0  0  0  0
  5 22  1  0  0  0  0
  6 24  1  0  0  0  0
  7 10  2  0  0  0  0
  7 23  1  0  0  0  0
  8 27  1  0  0  0  0
  9 27  2  0  0  0  0
 10 28  1  0  0  0  0
 11 12  2  0  0  0  0
 11 29  1  0  0  0  0
 12 30  1  0  0  0  0
 13 19  1  0  0  0  0
 13 20  2  0  0  0  0
 14 19  2  0  0  0  0
 14 26  1  0  0  0  0
 15 20  1  0  0  0  0
 15 26  2  0  0  0  0
 16 25  1  0  0  0  0
 16 28  2  0  0  0  0
 17 30  2  0  0  0  0
 17 31  1  0  0  0  0
 18 32  1  0  0  0  0
 19 34  1  0  0  0  0
 20 35  1  0  0  0  0
 21 32  1  0  0  0  0
 21 33  2  0  0  0  0
 21 38  1  0  0  0  0
 22 24  2  0  0  0  0
 22 43  1  0  0  0  0
 23 25  2  0  0  0  0
 23 44  1  0  0  0  0
 24 52  1  0  0  0  0
 25 45  1  0  0  0  0
 26 55  1  0  0  0  0
 27 79  1  0  0  0  0
 28 80  1  0  0  0  0
 29 31  2  0  0  0  0
 29 79  1  0  0  0  0
 30 81  1  0  0  0  0
 31 82  1  0  0  0  0
 32 65  2  0  0  0  0
 33 66  1  0  0  0  0
 33 69  1  0  0  0  0
 34 36  2  0  0  0  0
 35 37  2  0  0  0  0
 36 39  1  0  0  0  0
 37 61  1  0  0  0  0
 38 70  1  0  0  0  0
 38 74  2  0  0  0  0
 39 67  1  0  0  0  0
 39 75  2  0  0  0  0
 40 53  1  0  0  0  0
 40 71  1  0  0  0  0
 40 76  2  0  0  0  0
 41 62  1  0  0  0  0
 41 68  1  0  0  0  0
 41 77  2  0  0  0  0
 42 63  1  0  0  0  0
 42 72  1  0  0  0  0
 42 78  2  0  0  0  0
 43 46  1  0  0  0  0
 44 53  1  0  0  0  0
 45 68  1  0  0  0  0
 46 48  1  0  0  0  0
 47 49  1  0  0  0  0
 47 50  1  0  0  0  0
 48 52  1  0  0  0  0
 49 54  1  0  0  0  0
 50 67  1  0  0  0  0
 51 54  1  0  0  0  0
 51 67  1  0  0  0  0
 52 71  1  0  0  0  0
 53 68  1  0  0  0  0
 54 66  1  0  0  0  0
 56 63  1  0  0  0  0
 57 64  1  0  0  0  0
 58 64  1  0  0  0  0
 59 64  1  0  0  0  0
 60 73  1  0  0  0  0
 61 80  1  0  0  0  0
 62 64  1  0  0  0  0
 62 72  1  0  0  0  0
 63 73  1  0  0  0  0
 65 66  1  0  0  0  0
M  CHG  1  73   1
M  ISO  4  36 100  39 100  61 101  80 101
M  END
> <Batch ID>
0125

> <Smiles>
CNC(C)C(=O)NC(C(=O)N1Cc2cc([101O:1][101CH2:1]C=Cc3cc(C)cc(C=[100CH:0][100C:0](=O)N4CCCC(n5nc(-c6ccc(Oc7ccc(F)cc7F)cc6)c(C(N)=O)c5N)C4)c3)ccc2CC1C(=O)NC1CCCc2ccccc21)C(C)(C)C

> <Shape>
0.239

> <Color>
0.067

> <Negative vol penalty>
0.000

$$$$

  -OEChem-04052302093D

 81 89  0     1  0  0  0  0  0999 V2000
  -22.2773  -27.6290   14.9369 C   0  0  0  0  0  0  0  0  0  0  0  0
  -22.7458  -26.5032   15.6066 C   0  0  0  0  0  0  0  0  0  0  0  0
  -23.0880   -9.8681   21.4725 C   0  0  0  0  0  0  0  0  0  0  0  0
  -23.8472  -10.7594   23.5859 C   0  0  0  0  0  0  0  0  0  0  0  0
  -22.5958  -28.9019   15.4082 C   0  0  0  0  0  0  0  0  0  0  0  0
  -23.5342  -26.6498   16.7474 C   0  0  0  0  0  0  0  0  0  0  0  0
  -23.5896  -23.0150   21.6760 C   0  0  0  0  0  0  0  0  0  0  0  0
  -32.5941  -18.3369   21.7663 C   0  0  0  0  0  0  0  0  0  0  0  0
  -32.0146  -17.1686   21.2717 C   0  0  0  0  0  0  0  0  0  0  0  0
  -22.3543   -8.8926   22.1475 C   0  0  0  0  0  0  0  0  0  0  0  0
  -23.1134   -9.7839   24.2609 C   0  0  0  0  0  0  0  0  0  0  0  0
  -24.4337  -21.9761   22.0659 C   0  0  0  0  0  0  0  0  0  0  0  0
  -22.9558   -5.9436   23.6856 C   0  0  0  0  0  0  0  0  0  0  0  0
  -23.0320   -4.6335   23.2127 C   0  0  0  0  0  0  0  0  0  0  0  0
  -29.8230  -18.1601   21.4972 C   0  0  0  0  0  0  0  0  0  0  0  0
  -25.7018  -23.5213   23.4162 C   0  0  0  0  0  0  0  0  0  0  0  0
  -20.6462   -4.6323   22.8318 C   0  0  0  0  0  0  0  0  0  0  0  0
  -23.8346  -10.8015   22.1918 C   0  0  0  0  0  0  0  0  0  0  0  0
  -30.4025  -19.3285   21.9919 C   0  0  0  0  0  0  0  0  0  0  0  0
  -24.1541  -13.0908   21.1126 C   0  0  0  0  0  0  0  0  0  0  0  0
  -23.3805  -29.0641   16.5609 C   0  0  0  0  0  0  0  0  0  0  0  0
  -23.8022  -24.3191   22.1455 C   0  0  0  0  0  0  0  0  0  0  0  0
  -23.8647  -27.9261   17.2338 C   0  0  0  0  0  0  0  0  0  0  0  0
  -24.8575  -24.5744   23.0329 C   0  0  0  0  0  0  0  0  0  0  0  0
  -31.7881  -19.4169   22.1265 C   0  0  0  0  0  0  0  0  0  0  0  0
  -30.6291  -17.0802   21.1370 C   0  0  0  0  0  0  0  0  0  0  0  0
  -22.3670   -8.8505   23.5416 C   0  0  0  0  0  0  0  0  0  0  0  0
  -25.4917  -22.2297   22.9338 C   0  0  0  0  0  0  0  0  0  0  0  0
  -21.7248   -6.5980   23.7316 C   0  0  0  0  0  0  0  0  0  0  0  0
  -21.8772   -3.9779   22.7858 C   0  0  0  0  0  0  0  0  0  0  0  0
  -20.5700   -5.9423   23.3047 C   0  0  0  0  0  0  0  0  0  0  0  0
  -24.5932  -11.8091   21.4951 C   0  0  0  0  0  0  0  0  0  0  0  0
  -25.2397  -13.6530   20.4865 C   0  0  0  0  0  0  0  0  0  0  0  0
  -29.5244  -20.4504   22.3639 C   0  0  0  0  0  0  0  0  0  0  0  0
  -28.5463  -20.3967   23.2813 C   0  0  0  0  0  0  0  0  0  0  0  0
  -22.8790  -13.7172   21.3059 C   0  0  0  0  0  0  0  0  0  0  0  0
  -24.4804  -27.1105   20.7846 C   0  0  0  0  0  0  0  0  0  0  0  0
  -24.0683  -28.2377   23.7982 C   0  0  0  0  0  0  0  0  0  0  0  0
  -24.0779  -27.6103   27.1528 C   0  0  0  0  0  0  0  0  0  0  0  0
  -30.6964  -14.7308   20.2303 C   0  0  0  0  0  0  0  0  0  0  0  0
  -23.7380  -30.4603   17.0051 C   0  0  0  0  0  0  0  0  0  0  0  0
  -22.8667  -25.4236   21.7366 C   0  0  0  0  0  0  0  0  0  0  0  0
  -25.1163  -25.9530   23.5814 C   0  0  0  0  0  0  0  0  0  0  0  0
  -24.2668  -30.5278   18.4355 C   0  0  0  0  0  0  0  0  0  0  0  0
  -29.6040  -11.5848   18.9707 C   0  0  0  0  0  0  0  0  0  0  0  0
  -25.3098  -29.4399   18.6709 C   0  0  0  0  0  0  0  0  0  0  0  0
  -28.1669  -11.4681   19.4837 C   0  0  0  0  0  0  0  0  0  0  0  0
  -30.5167  -12.2640   19.9902 C   0  0  0  0  0  0  0  0  0  0  0  0
  -28.6031  -13.4466   20.9946 C   0  0  0  0  0  0  0  0  0  0  0  0
  -24.7019  -28.0440   18.4889 C   0  0  1  0  0  0  0  0  0  0  0  0
  -23.4859  -26.8114   21.8705 C   0  0  1  0  0  0  0  0  0  0  0  0
  -27.6321  -12.8273   19.9760 C   0  0  2  0  0  0  0  0  0  0  0  0
  -32.4434  -20.6531   22.6533 C   0  0  0  0  0  0  0  0  0  0  0  0
  -23.7409  -28.7385   29.3688 C   0  0  0  0  0  0  0  0  0  0  0  0
  -26.8249  -29.5239   23.5599 C   0  0  0  0  0  0  0  0  0  0  0  0
  -26.8340  -29.8007   26.0482 C   0  0  0  0  0  0  0  0  0  0  0  0
  -25.1001  -30.9521   24.6732 C   0  0  0  0  0  0  0  0  0  0  0  0
  -21.7924  -25.8560   27.8292 C   0  0  0  0  0  0  0  0  0  0  0  0
  -27.6697  -21.5608   23.6158 C   0  0  0  0  0  0  0  0  0  1  0  0
  -24.9665  -28.4478   24.9932 C   0  0  1  0  0  0  0  0  0  0  0  0
  -23.0813  -27.9547   28.2448 C   0  0  2  0  0  0  0  0  0  0  0  0
  -25.9279  -29.6554   24.8070 C   0  0  0  0  0  0  0  0  0  0  0  0
  -25.8589  -11.5708   21.1415 N   0  0  0  0  0  0  0  0  0  0  0  0
  -26.2245  -12.7104   20.5301 N   0  0  0  0  0  0  0  0  0  0  0  0
  -24.1778  -27.0008   23.1471 N   0  0  0  0  0  0  0  0  0  0  0  0
  -29.9484  -13.5476   20.4076 N   0  0  0  0  0  0  0  0  0  0  0  0
  -25.4384  -14.8566   19.9084 N   0  0  0  0  0  0  0  0  0  0  0  0
  -21.8751  -12.9983   21.9689 N   0  0  0  0  0  0  0  0  0  0  0  0
  -30.0407  -15.8934   20.6339 N   0  0  0  0  0  0  0  0  0  0  0  0
  -23.9246  -27.6756   19.6527 N   0  0  0  0  0  0  0  0  0  0  0  0
  -24.0860  -28.5580   26.1513 N   0  0  0  0  0  0  0  0  0  0  0  0
  -22.4936  -26.7121   28.8204 N   0  3  0  0  0  0  0  0  0  0  0  0
  -22.6319  -14.8740   20.8882 O   0  0  0  0  0  0  0  0  0  0  0  0
  -25.6646  -26.8493   20.9612 O   0  0  0  0  0  0  0  0  0  0  0  0
  -23.2928  -29.1352   23.4594 O   0  0  0  0  0  0  0  0  0  0  0  0
  -24.7818  -26.6033   27.1867 O   0  0  0  0  0  0  0  0  0  0  0  0
  -31.8241  -14.7169   19.7301 O   0  0  0  0  0  0  0  0  0  0  0  0
  -21.6509   -7.8988   24.2006 O   0  0  0  0  0  0  0  0  0  0  0  0
  -26.3175  -21.2176   23.3155 O   0  0  0  0  0  0  0  0  0  1  0  0
  -21.9508   -2.7204   22.3303 F   0  0  0  0  0  0  0  0  0  0  0  0
  -19.3847   -6.5662   23.3454 F   0  0  0  0  0  0  0  0  0  0  0  0
  1  2  1  0  0  0  0
  1  5  2  0  0  0  0
  2  6  2  0  0  0  0
  3 10  2  0  0  0  0
  3 18  1  0  0  0  0
  4 11  1  0  0  0  0
  4 18  2  0  0  0  0
  5 21  1  0  0  0  0
  6 23  1  0  0  0  0
  7 12  2  0  0  0  0
  7 22  1  0  0  0  0
  8  9  2  0  0  0  0
  8 25  1  0  0  0  0
  9 26  1  0  0  0  0
 10 27  1  0  0  0  0
 11 27  2  0  0  0  0
 12 28  1  0  0  0  0
 13 14  2  0  0  0  0
 13 29  1  0  0  0  0
 14 30  1  0  0  0  0
 15 19  1  0  0  0  0
 15 26  2  0  0  0  0
 16 24  1  0  0  0  0
 16 28  2  0  0  0  0
 17 30  2  0  0  0  0
 17 31  1  0  0  0  0
 18 32  1  0  0  0  0
 19 25  2  0  0  0  0
 19 34  1  0  0  0  0
 20 32  1  0  0  0  0
 20 33  2  0  0  0  0
 20 36  1  0  0  0  0
 21 23  2  0  0  0  0
 21 41  1  0  0  0  0
 22 24  2  0  0  0  0
 22 42  1  0  0  0  0
 23 50  1  0  0  0  0
 24 43  1  0  0  0  0
 25 53  1  0  0  0  0
 26 69  1  0  0  0  0
 27 78  1  0  0  0  0
 28 79  1  0  0  0  0
 29 31  2  0  0  0  0
 29 78  1  0  0  0  0
 30 80  1  0  0  0  0
 31 81  1  0  0  0  0
 32 63  2  0  0  0  0
 33 64  1  0  0  0  0
 33 67  1  0  0  0  0
 34 35  2  0  0  0  0
 35 59  1  0  0  0  0
 36 68  1  0  0  0  0
 36 73  2  0  0  0  0
 37 51  1  0  0  0  0
 37 70  1  0  0  0  0
 37 74  2  0  0  0  0
 38 60  1  0  0  0  0
 38 65  1  0  0  0  0
 38 75  2  0  0  0  0
 39 61  1  0  0  0  0
 39 71  1  0  0  0  0
 39 76  2  0  0  0  0
 40 66  1  0  0  0  0
 40 69  1  0  0  0  0
 40 77  2  0  0  0  0
 41 44  1  0  0  0  0
 42 51  1  0  0  0  0
 43 65  1  0  0  0  0
 44 46  1  0  0  0  0
 45 47  1  0  0  0  0
 45 48  1  0  0  0  0
 46 50  1  0  0  0  0
 47 52  1  0  0  0  0
 48 66  1  0  0  0  0
 49 52  1  0  0  0  0
 49 66  1  0  0  0  0
 50 70  1  0  0  0  0
 51 65  1  0  0  0  0
 52 64  1  0  0  0  0
 54 61  1  0  0  0  0
 55 62  1  0  0  0  0
 56 62  1  0  0  0  0
 57 62  1  0  0  0  0
 58 72  1  0  0  0  0
 59 79  1  0  0  0  0
 60 62  1  0  0  0  0
 60 71  1  0  0  0  0
 61 72  1  0  0  0  0
 63 64  1  0  0  0  0
M  CHG  1  72   1
M  ISO  4  40 100  59 101  69 100  79 101
M  END
> <Batch ID>
0125

> <Smiles>
CNC(C)C(=O)NC(C(=O)N1Cc2cc([101O:1][101CH2:1]C=Cc3cc([100NH:0][100C:0](=O)N4CCCC(n5nc(-c6ccc(Oc7ccc(F)cc7F)cc6)c(C(N)=O)c5N)C4)ccc3C)ccc2CC1C(=O)NC1CCCc2ccccc21)C(C)(C)C

> <Shape>
0.213

> <Color>
0.182

> <Negative vol penalty>
0.000

$$$$

  -OEChem-04052302093D

 83 91  0     1  0  0  0  0  0999 V2000
  -20.7224  -24.6057   24.1658 C   0  0  0  0  0  0  0  0  0  0  0  0
  -21.9840  -25.0404   23.7725 C   0  0  0  0  0  0  0  0  0  0  0  0
  -26.5477  -26.1798   20.0037 C   0  0  0  0  0  0  0  0  0  0  0  0
  -30.7206  -13.1829   19.5900 C   0  0  0  0  0  0  0  0  0  0  0  0
  -30.4998  -12.6800   21.9427 C   0  0  0  0  0  0  0  0  0  0  0  0
  -26.7776  -24.8160   19.8228 C   0  0  0  0  0  0  0  0  0  0  0  0
  -19.5889  -25.3217   23.7829 C   0  0  0  0  0  0  0  0  0  0  0  0
  -22.1128  -26.1908   22.9950 C   0  0  0  0  0  0  0  0  0  0  0  0
  -25.8181  -29.2332   24.6260 C   0  0  0  0  0  0  0  0  0  0  0  0
  -27.6109  -27.0333   20.2983 C   0  0  0  0  0  0  0  0  0  0  0  0
  -31.8968  -12.4349   19.5404 C   0  0  0  0  0  0  0  0  0  0  0  0
  -31.6760  -11.9319   21.8932 C   0  0  0  0  0  0  0  0  0  0  0  0
  -27.1255  -28.8753   24.3001 C   0  0  0  0  0  0  0  0  0  0  0  0
  -34.7644  -10.3596   18.7126 C   0  0  0  0  0  0  0  0  0  0  0  0
  -34.9293   -9.4805   17.6423 C   0  0  0  0  0  0  0  0  0  0  0  0
  -27.1080  -30.4769   22.4963 C   0  0  0  0  0  0  0  0  0  0  0  0
  -32.9349   -8.2922   18.3113 C   0  0  0  0  0  0  0  0  0  0  0  0
  -30.0221  -13.3056   20.7911 C   0  0  0  0  0  0  0  0  0  0  0  0
  -28.0707  -24.3056   19.9366 C   0  0  0  0  0  0  0  0  0  0  0  0
  -27.4959  -13.6172   20.6216 C   0  0  0  0  0  0  0  0  0  0  0  0
  -19.7045  -26.4868   23.0085 C   0  0  0  0  0  0  0  0  0  0  0  0
  -25.1408  -30.2095   23.8813 C   0  0  0  0  0  0  0  0  0  0  0  0
  -20.9797  -26.9222   22.6002 C   0  0  0  0  0  0  0  0  0  0  0  0
  -25.7929  -30.8472   22.8163 C   0  0  0  0  0  0  0  0  0  0  0  0
  -28.9041  -26.5229   20.4121 C   0  0  0  0  0  0  0  0  0  0  0  0
  -29.1340  -25.1591   20.2312 C   0  0  0  0  0  0  0  0  0  0  0  0
  -32.3745  -11.8094   20.6920 C   0  0  0  0  0  0  0  0  0  0  0  0
  -27.7697  -29.4951   23.2334 C   0  0  0  0  0  0  0  0  0  0  0  0
  -33.6849  -10.2050   19.5823 C   0  0  0  0  0  0  0  0  0  0  0  0
  -34.0145   -8.4468   17.4417 C   0  0  0  0  0  0  0  0  0  0  0  0
  -32.7701   -9.1713   19.3816 C   0  0  0  0  0  0  0  0  0  0  0  0
  -28.8073  -14.0787   20.8431 C   0  0  0  0  0  0  0  0  0  0  0  0
  -26.7079  -14.7300   20.7864 C   0  0  0  0  0  0  0  0  0  0  0  0
  -28.2749  -22.8760   19.7417 C   0  0  0  0  0  0  0  0  0  0  0  0
  -27.6895  -21.8984   20.4629 C   0  0  0  0  0  0  0  0  0  0  0  0
  -27.0315  -12.3004   20.2961 C   0  0  0  0  0  0  0  0  0  0  0  0
  -27.9916  -20.4904   20.1360 C   0  0  0  0  0  0  0  0  0  0  0  0
  -22.5170  -30.2429   22.0874 C   0  0  0  0  0  0  0  0  0  0  0  0
  -23.1003  -33.4321   21.9814 C   0  0  0  0  0  0  0  0  0  0  0  0
  -25.3642  -35.9732   22.2351 C   0  0  0  0  0  0  0  0  0  0  0  0
  -18.4474  -27.2009   22.5792 C   0  0  0  0  0  0  0  0  0  0  0  0
  -23.7400  -30.6033   24.2623 C   0  0  0  0  0  0  0  0  0  0  0  0
  -25.1169  -31.9159   21.9982 C   0  0  0  0  0  0  0  0  0  0  0  0
  -18.6957  -28.6183   22.0699 C   0  0  0  0  0  0  0  0  0  0  0  0
  -26.5346  -18.8989   23.0984 C   0  0  0  0  0  0  0  0  0  0  0  0
  -19.8679  -28.6372   21.0941 C   0  0  0  0  0  0  0  0  0  0  0  0
  -26.8824  -17.4343   22.8459 C   0  0  0  0  0  0  0  0  0  0  0  0
  -27.6176  -19.8419   22.5764 C   0  0  0  0  0  0  0  0  0  0  0  0
  -28.2991  -18.1632   20.8859 C   0  0  0  0  0  0  0  0  0  0  0  0
  -21.1620  -28.1792   21.7774 C   0  0  1  0  0  0  0  0  0  0  0  0
  -22.9662  -31.2438   23.1141 C   0  0  1  0  0  0  0  0  0  0  0  0
  -27.2012  -17.1987   21.3610 C   0  0  1  0  0  0  0  0  0  0  0  0
  -30.7514  -23.9120   21.6857 C   0  0  0  0  0  0  0  0  0  0  0  0
  -25.5509  -38.4697   22.0615 C   0  0  0  0  0  0  0  0  0  0  0  0
  -22.9731  -33.2275   18.9397 C   0  0  0  0  0  0  0  0  0  0  0  0
  -24.0824  -35.4684   18.8123 C   0  0  0  0  0  0  0  0  0  0  0  0
  -21.8476  -35.2450   19.8977 C   0  0  0  0  0  0  0  0  0  0  0  0
  -26.2523  -36.2187   25.0476 C   0  0  0  0  0  0  0  0  0  0  0  0
  -30.0347  -27.4680   20.7316 C   0  0  0  0  0  0  0  0  0  0  0  0
  -30.5265  -24.6226   20.3561 C   0  0  0  0  0  0  0  0  0  0  0  0
  -30.5095  -27.3915   22.1843 C   0  0  0  0  0  0  0  0  0  0  0  0
  -29.4423  -27.8049   23.1909 C   0  0  0  0  0  0  0  0  0  1  0  0
  -23.8941  -34.3443   21.0777 C   0  0  1  0  0  0  0  0  0  0  0  0
  -25.3213  -37.2887   22.9916 C   0  0  2  0  0  0  0  0  0  0  0  0
  -23.2116  -34.5498   19.6958 C   0  0  0  0  0  0  0  0  0  0  0  0
  -28.8539  -15.3830   21.1268 N   0  0  0  0  0  0  0  0  0  0  0  0
  -27.5620  -15.7507   21.0846 N   0  0  0  0  0  0  0  0  0  0  0  0
  -27.9465  -19.5585   21.1713 N   0  0  0  0  0  0  0  0  0  0  0  0
  -23.7451  -32.2616   22.4059 N   0  0  0  0  0  0  0  0  0  0  0  0
  -25.3747  -14.9253   20.7037 N   0  0  0  0  0  0  0  0  0  0  0  0
  -27.9753  -11.2727   20.1642 N   0  0  0  0  0  0  0  0  0  0  0  0
  -21.7073  -29.2435   22.5925 N   0  0  0  0  0  0  0  0  0  0  0  0
  -24.1078  -35.5771   21.8278 N   0  0  0  0  0  0  0  0  0  0  0  0
  -26.3709  -37.3124   24.0493 N   0  3  0  0  0  0  0  0  0  0  0  0
  -25.8172  -12.0461   20.1110 O   0  0  0  0  0  0  0  0  0  0  0  0
  -28.2707  -20.2258   18.9652 O   0  0  0  0  0  0  0  0  0  0  0  0
  -22.8770  -30.3689   20.9228 O   0  0  0  0  0  0  0  0  0  0  0  0
  -21.9532  -33.7499   22.3048 O   0  0  0  0  0  0  0  0  0  0  0  0
  -26.4082  -35.3604   22.0233 O   0  0  0  0  0  0  0  0  0  0  0  0
  -33.5222  -11.0791   20.6440 O   0  0  0  0  0  0  0  0  0  0  0  0
  -29.0457  -29.1472   22.9128 O   0  0  0  0  0  0  0  0  0  1  0  0
  -34.1721   -7.6035   16.4129 F   0  0  0  0  0  0  0  0  0  0  0  0
  -31.7303   -9.0184   20.2131 F   0  0  0  0  0  0  0  0  0  0  0  0
  1  2  1  0  0  0  0
  1  7  2  0  0  0  0
  2  8  2  0  0  0  0
  3  6  1  0  0  0  0
  3 10  2  0  0  0  0
  4 11  2  0  0  0  0
  4 18  1  0  0  0  0
  5 12  1  0  0  0  0
  5 18  2  0  0  0  0
  6 19  2  0  0  0  0
  7 21  1  0  0  0  0
  8 23  1  0  0  0  0
  9 13  2  0  0  0  0
  9 22  1  0  0  0  0
 10 25  1  0  0  0  0
 11 27  1  0  0  0  0
 12 27  2  0  0  0  0
 13 28  1  0  0  0  0
 14 15  2  0  0  0  0
 14 29  1  0  0  0  0
 15 30  1  0  0  0  0
 16 24  1  0  0  0  0
 16 28  2  0  0  0  0
 17 30  2  0  0  0  0
 17 31  1  0  0  0  0
 18 32  1  0  0  0  0
 19 26  1  0  0  0  0
 19 34  1  0  0  0  0
 20 32  1  0  0  0  0
 20 33  2  0  0  0  0
 20 36  1  0  0  0  0
 21 23  2  0  0  0  0
 21 41  1  0  0  0  0
 22 24  2  0  0  0  0
 22 42  1  0  0  0  0
 23 50  1  0  0  0  0
 24 43  1  0  0  0  0
 25 26  2  0  0  0  0
 25 59  1  0  0  0  0
 26 60  1  0  0  0  0
 27 80  1  0  0  0  0
 28 81  1  0  0  0  0
 29 31  2  0  0  0  0
 29 80  1  0  0  0  0
 30 82  1  0  0  0  0
 31 83  1  0  0  0  0
 32 66  2  0  0  0  0
 33 67  1  0  0  0  0
 33 70  1  0  0  0  0
 34 35  2  0  0  0  0
 35 37  1  0  0  0  0
 36 71  1  0  0  0  0
 36 75  2  0  0  0  0
 37 68  1  0  0  0  0
 37 76  2  0  0  0  0
 38 51  1  0  0  0  0
 38 72  1  0  0  0  0
 38 77  2  0  0  0  0
 39 63  1  0  0  0  0
 39 69  1  0  0  0  0
 39 78  2  0  0  0  0
 40 64  1  0  0  0  0
 40 73  1  0  0  0  0
 40 79  2  0  0  0  0
 41 44  1  0  0  0  0
 42 51  1  0  0  0  0
 43 69  1  0  0  0  0
 44 46  1  0  0  0  0
 45 47  1  0  0  0  0
 45 48  1  0  0  0  0
 46 50  1  0  0  0  0
 47 52  1  0  0  0  0
 48 68  1  0  0  0  0
 49 52  1  0  0  0  0
 49 68  1  0  0  0  0
 50 72  1  0  0  0  0
 51 69  1  0  0  0  0
 52 67  1  0  0  0  0
 53 60  1  0  0  0  0
 54 64  1  0  0  0  0
 55 65  1  0  0  0  0
 56 65  1  0  0  0  0
 57 65  1  0  0  0  0
 58 74  1  0  0  0  0
 59 61  1  0  0  0  0
 61 62  1  0  0  0  0
 62 81  1  0  0  0  0
 63 65  1  0  0  0  0
 63 73  1  0  0  0  0
 64 74  1  0  0  0  0
 66 67  1  0  0  0  0
M  CHG  1  74   1
M  ISO  4  35 100  37 100  62 101  81 101
M  END
> <Batch ID>
0125

> <Smiles>
CCc1c(C=[100CH:0][100C:0](=O)N2CCCC(n3nc(-c4ccc(Oc5ccc(F)cc5F)cc4)c(C(N)=O)c3N)C2)cccc1CC[101CH2:1][101O:1]c1ccc2c(c1)CN(C(=O)C(NC(=O)C(C)NC)C(C)(C)C)C(C(=O)NC1CCCc3ccccc31)C2

> <Shape>
0.268

> <Color>
0.141

> <Negative vol penalty>
0.000

$$$$

  -OEChem-04052302093D

 83 91  0     1  0  0  0  0  0999 V2000
  -26.6485  -27.7414   33.3653 C   0  0  0  0  0  0  0  0  0  0  0  0
  -27.4631  -26.7867   32.7649 C   0  0  0  0  0  0  0  0  0  0  0  0
  -23.0788   -9.8677   19.9442 C   0  0  0  0  0  0  0  0  0  0  0  0
  -23.8398   -9.8747   22.2372 C   0  0  0  0  0  0  0  0  0  0  0  0
  -25.3088  -27.4518   33.6208 C   0  0  0  0  0  0  0  0  0  0  0  0
  -26.9386  -25.5413   32.4207 C   0  0  0  0  0  0  0  0  0  0  0  0
  -28.3536  -24.0492   27.7929 C   0  0  0  0  0  0  0  0  0  0  0  0
  -22.3351   -8.7145   20.1945 C   0  0  0  0  0  0  0  0  0  0  0  0
  -23.0961   -8.7215   22.4875 C   0  0  0  0  0  0  0  0  0  0  0  0
  -29.6427  -23.5362   27.6557 C   0  0  0  0  0  0  0  0  0  0  0  0
  -19.8683   -7.9233   23.0916 C   0  0  0  0  0  0  0  0  0  0  0  0
  -19.1120   -7.8833   24.2629 C   0  0  0  0  0  0  0  0  0  0  0  0
  -30.5053  -18.3416   24.0482 C   0  0  0  0  0  0  0  0  0  0  0  0
  -28.7496  -21.2958   27.7018 C   0  0  0  0  0  0  0  0  0  0  0  0
  -32.0682  -16.5953   22.5347 C   0  0  0  0  0  0  0  0  0  0  0  0
  -20.3539   -5.9459   24.9987 C   0  0  0  0  0  0  0  0  0  0  0  0
  -23.8312  -10.4478   20.9656 C   0  0  0  0  0  0  0  0  0  0  0  0
  -31.8927  -18.3449   24.1916 C   0  0  0  0  0  0  0  0  0  0  0  0
  -24.1727  -12.9730   20.8454 C   0  0  0  0  0  0  0  0  0  0  0  0
  -24.7653  -26.2057   33.2708 C   0  0  0  0  0  0  0  0  0  0  0  0
  -27.2521  -23.1877   27.8967 C   0  0  0  0  0  0  0  0  0  0  0  0
  -25.5908  -25.2343   32.6730 C   0  0  0  0  0  0  0  0  0  0  0  0
  -27.4473  -21.8004   27.8377 C   0  0  0  0  0  0  0  0  0  0  0  0
  -29.8993  -17.4650   23.1481 C   0  0  0  0  0  0  0  0  0  0  0  0
  -32.6742  -17.4719   23.4348 C   0  0  0  0  0  0  0  0  0  0  0  0
  -30.6807  -16.5919   22.3913 C   0  0  0  0  0  0  0  0  0  0  0  0
  -22.3438   -8.1414   21.4661 C   0  0  0  0  0  0  0  0  0  0  0  0
  -29.8412  -22.1593   27.6131 C   0  0  0  0  0  0  0  0  0  0  0  0
  -20.8675   -6.9746   22.8738 C   0  0  0  0  0  0  0  0  0  0  0  0
  -19.3548   -6.8946   25.2164 C   0  0  0  0  0  0  0  0  0  0  0  0
  -21.1103   -5.9860   23.8273 C   0  0  0  0  0  0  0  0  0  0  0  0
  -24.6000  -11.6388   20.7075 C   0  0  0  0  0  0  0  0  0  0  0  0
  -25.2646  -13.7226   20.4816 C   0  0  0  0  0  0  0  0  0  0  0  0
  -32.5029  -19.2816   25.1498 C   0  0  0  0  0  0  0  0  0  0  0  0
  -32.4115  -20.6193   25.0882 C   0  0  0  0  0  0  0  0  0  0  0  0
  -22.9024  -13.4887   21.2650 C   0  0  0  0  0  0  0  0  0  0  0  0
  -25.0466  -22.6238   30.1153 C   0  0  0  0  0  0  0  0  0  0  0  0
  -23.7779  -20.7217   27.8143 C   0  0  0  0  0  0  0  0  0  0  0  0
  -24.2681  -18.8734   24.9875 C   0  0  0  0  0  0  0  0  0  0  0  0
  -30.7308  -14.7687   20.6537 C   0  0  0  0  0  0  0  0  0  0  0  0
  -23.3234  -25.9216   33.6099 C   0  0  0  0  0  0  0  0  0  0  0  0
  -25.8652  -23.7574   28.0174 C   0  0  0  0  0  0  0  0  0  0  0  0
  -26.2960  -20.8332   27.9245 C   0  0  0  0  0  0  0  0  0  0  0  0
  -22.7512  -24.7131   32.8734 C   0  0  0  0  0  0  0  0  0  0  0  0
  -29.6154  -12.3548   18.2859 C   0  0  0  0  0  0  0  0  0  0  0  0
  -23.7212  -23.5378   32.9419 C   0  0  0  0  0  0  0  0  0  0  0  0
  -28.1760  -12.0631   18.7162 C   0  0  0  0  0  0  0  0  0  0  0  0
  -30.5311  -12.5837   19.4871 C   0  0  0  0  0  0  0  0  0  0  0  0
  -28.6248  -13.3079   20.8693 C   0  0  0  0  0  0  0  0  0  0  0  0
  -25.0524  -23.8809   32.2625 C   0  0  1  0  0  0  0  0  0  0  0  0
  -24.8687  -22.7789   28.6314 C   0  0  1  0  0  0  0  0  0  0  0  0
  -27.6514  -13.1346   19.6920 C   0  0  2  0  0  0  0  0  0  0  0  0
  -28.4108  -17.4825   23.0160 C   0  0  0  0  0  0  0  0  0  0  0  0
  -34.1636  -17.4481   23.5629 C   0  0  0  0  0  0  0  0  0  0  0  0
  -23.0498  -17.4026   23.3597 C   0  0  0  0  0  0  0  0  0  0  0  0
  -23.7898  -18.4552   29.8570 C   0  0  0  0  0  0  0  0  0  0  0  0
  -23.4824  -16.8430   27.9664 C   0  0  0  0  0  0  0  0  0  0  0  0
  -21.7377  -18.5642   28.4317 C   0  0  0  0  0  0  0  0  0  0  0  0
  -24.8692  -20.6831   22.7242 C   0  0  0  0  0  0  0  0  0  0  0  0
  -33.0624  -21.5409   26.0831 C   0  0  0  0  0  0  0  0  0  0  0  0
  -32.0426  -22.4484   26.7609 C   0  0  0  0  0  0  0  0  0  1  0  0
  -23.9399  -19.2753   27.4135 C   0  0  1  0  0  0  0  0  0  0  0  0
  -23.5067  -18.8183   23.6754 C   0  0  2  0  0  0  0  0  0  0  0  0
  -23.2596  -18.3023   28.4174 C   0  0  0  0  0  0  0  0  0  0  0  0
  -25.8647  -11.5430   20.2886 N   0  0  0  0  0  0  0  0  0  0  0  0
  -26.2414  -12.8267   20.1601 N   0  0  0  0  0  0  0  0  0  0  0  0
  -24.9598  -21.4389   28.0481 N   0  0  0  0  0  0  0  0  0  0  0  0
  -29.9725  -13.6144   20.3648 N   0  0  0  0  0  0  0  0  0  0  0  0
  -25.4749  -15.0541   20.4086 N   0  0  0  0  0  0  0  0  0  0  0  0
  -21.8907  -12.5794   21.6027 N   0  0  0  0  0  0  0  0  0  0  0  0
  -30.0837  -15.6936   21.4724 N   0  0  0  0  0  0  0  0  0  0  0  0
  -24.9201  -23.8036   30.8234 N   0  0  0  0  0  0  0  0  0  0  0  0
  -23.4381  -19.1715   26.0475 N   0  0  0  0  0  0  0  0  0  0  0  0
  -24.3679  -19.2948   22.5564 N   0  3  0  0  0  0  0  0  0  0  0  0
  -22.6661  -14.7193   21.3225 O   0  0  0  0  0  0  0  0  0  0  0  0
  -25.2800  -21.5156   30.5832 O   0  0  0  0  0  0  0  0  0  0  0  0
  -22.6447  -21.1996   27.9092 O   0  0  0  0  0  0  0  0  0  0  0  0
  -25.4775  -18.6686   25.0650 O   0  0  0  0  0  0  0  0  0  0  0  0
  -31.8596  -14.9375   20.1855 O   0  0  0  0  0  0  0  0  0  0  0  0
  -21.6181   -7.0162   21.7108 O   0  0  0  0  0  0  0  0  0  0  0  0
  -31.0984  -21.6559   27.4799 O   0  0  0  0  0  0  0  0  0  1  0  0
  -18.6294   -6.8572   26.3419 F   0  0  0  0  0  0  0  0  0  0  0  0
  -22.0696   -5.0726   23.6242 F   0  0  0  0  0  0  0  0  0  0  0  0
  1  2  1  0  0  0  0
  1  5  2  0  0  0  0
  2  6  2  0  0  0  0
  3  8  2  0  0  0  0
  3 17  1  0  0  0  0
  4  9  1  0  0  0  0
  4 17  2  0  0  0  0
  5 20  1  0  0  0  0
  6 22  1  0  0  0  0
  7 10  2  0  0  0  0
  7 21  1  0  0  0  0
  8 27  1  0  0  0  0
  9 27  2  0  0  0  0
 10 28  1  0  0  0  0
 11 12  2  0  0  0  0
 11 29  1  0  0  0  0
 12 30  1  0  0  0  0
 13 18  1  0  0  0  0
 13 24  2  0  0  0  0
 14 23  1  0  0  0  0
 14 28  2  0  0  0  0
 15 25  1  0  0  0  0
 15 26  2  0  0  0  0
 16 30  2  0  0  0  0
 16 31  1  0  0  0  0
 17 32  1  0  0  0  0
 18 25  2  0  0  0  0
 18 34  1  0  0  0  0
 19 32  1  0  0  0  0
 19 33  2  0  0  0  0
 19 36  1  0  0  0  0
 20 22  2  0  0  0  0
 20 41  1  0  0  0  0
 21 23  2  0  0  0  0
 21 42  1  0  0  0  0
 22 50  1  0  0  0  0
 23 43  1  0  0  0  0
 24 26  1  0  0  0  0
 24 53  1  0  0  0  0
 25 54  1  0  0  0  0
 26 71  1  0  0  0  0
 27 80  1  0  0  0  0
 28 81  1  0  0  0  0
 29 31  2  0  0  0  0
 29 80  1  0  0  0  0
 30 82  1  0  0  0  0
 31 83  1  0  0  0  0
 32 65  2  0  0  0  0
 33 66  1  0  0  0  0
 33 69  1  0  0  0  0
 34 35  2  0  0  0  0
 35 60  1  0  0  0  0
 36 70  1  0  0  0  0
 36 75  2  0  0  0  0
 37 51  1  0  0  0  0
 37 72  1  0  0  0  0
 37 76  2  0  0  0  0
 38 62  1  0  0  0  0
 38 67  1  0  0  0  0
 38 77  2  0  0  0  0
 39 63  1  0  0  0  0
 39 73  1  0  0  0  0
 39 78  2  0  0  0  0
 40 68  1  0  0  0  0
 40 71  1  0  0  0  0
 40 79  2  0  0  0  0
 41 44  1  0  0  0  0
 42 51  1  0  0  0  0
 43 67  1  0  0  0  0
 44 46  1  0  0  0  0
 45 47  1  0  0  0  0
 45 48  1  0  0  0  0
 46 50  1  0  0  0  0
 47 52  1  0  0  0  0
 48 68  1  0  0  0  0
 49 52  1  0  0  0  0
 49 68  1  0  0  0  0
 50 72  1  0  0  0  0
 51 67  1  0  0  0  0
 52 66  1  0  0  0  0
 55 63  1  0  0  0  0
 56 64  1  0  0  0  0
 57 64  1  0  0  0  0
 58 64  1  0  0  0  0
 59 74  1  0  0  0  0
 60 61  1  0  0  0  0
 61 81  1  0  0  0  0
 62 64  1  0  0  0  0
 62 73  1  0  0  0  0
 63 74  1  0  0  0  0
 65 66  1  0  0  0  0
M  CHG  1  74   1
M  ISO  4  40 100  61 101  71 100  81 101
M  END
> <Batch ID>
0125

> <Smiles>
CNC(C)C(=O)NC(C(=O)N1Cc2cc([101O:1][101CH2:1]CC=Cc3cc(C)c([100NH:0][100C:0](=O)N4CCCC(n5nc(-c6ccc(Oc7ccc(F)cc7F)cc6)c(C(N)=O)c5N)C4)cc3C)ccc2CC1C(=O)NC1CCCc2ccccc21)C(C)(C)C

> <Shape>
0.168

> <Color>
0.200

> <Negative vol penalty>
0.000

$$$$

  -OEChem-04052302093D

 84 92  0     1  0  0  0  0  0999 V2000
  -29.7751  -23.7712   25.1148 C   0  0  0  0  0  0  0  0  0  0  0  0
  -28.3845  -23.7697   25.0746 C   0  0  0  0  0  0  0  0  0  0  0  0
  -29.8584  -28.5185   19.1038 C   0  0  0  0  0  0  0  0  0  0  0  0
  -29.3817  -27.0403   20.9544 C   0  0  0  0  0  0  0  0  0  0  0  0
  -18.4560  -26.5861   20.6601 C   0  0  0  0  0  0  0  0  0  0  0  0
  -30.5000  -23.0780   24.1464 C   0  0  0  0  0  0  0  0  0  0  0  0
  -27.7180  -23.0758   24.0653 C   0  0  0  0  0  0  0  0  0  0  0  0
  -22.3728  -20.1243   24.5379 C   0  0  0  0  0  0  0  0  0  0  0  0
  -18.8352  -27.8433   21.1306 C   0  0  0  0  0  0  0  0  0  0  0  0
  -31.2124  -28.1961   19.1951 C   0  0  0  0  0  0  0  0  0  0  0  0
  -30.7357  -26.7179   21.0457 C   0  0  0  0  0  0  0  0  0  0  0  0
  -21.0689  -20.4855   24.2014 C   0  0  0  0  0  0  0  0  0  0  0  0
  -34.0168  -25.2297   21.5333 C   0  0  0  0  0  0  0  0  0  0  0  0
  -34.3551  -23.8854   21.6874 C   0  0  0  0  0  0  0  0  0  0  0  0
  -19.4719  -25.5557   22.5948 C   0  0  0  0  0  0  0  0  0  0  0  0
  -21.3045  -19.3448   22.0890 C   0  0  0  0  0  0  0  0  0  0  0  0
  -33.2734  -23.3727   19.5888 C   0  0  0  0  0  0  0  0  0  0  0  0
  -28.9430  -27.9406   19.9835 C   0  0  0  0  0  0  0  0  0  0  0  0
  -18.7743  -25.4423   21.3922 C   0  0  0  0  0  0  0  0  0  0  0  0
  -26.5650  -27.6216   19.1171 C   0  0  0  0  0  0  0  0  0  0  0  0
  -29.8420  -22.3672   23.1304 C   0  0  0  0  0  0  0  0  0  0  0  0
  -23.1574  -19.3787   23.6463 C   0  0  0  0  0  0  0  0  0  0  0  0
  -28.4349  -22.3735   23.0817 C   0  0  0  0  0  0  0  0  0  0  0  0
  -22.6172  -18.9732   22.4176 C   0  0  0  0  0  0  0  0  0  0  0  0
  -19.5327  -27.9567   22.3331 C   0  0  0  0  0  0  0  0  0  0  0  0
  -19.8511  -26.8129   23.0653 C   0  0  0  0  0  0  0  0  0  0  0  0
  -31.6511  -27.2958   20.1660 C   0  0  0  0  0  0  0  0  0  0  0  0
  -20.5356  -20.0982   22.9756 C   0  0  0  0  0  0  0  0  0  0  0  0
  -33.3067  -25.6456   20.4071 C   0  0  0  0  0  0  0  0  0  0  0  0
  -33.9835  -22.9568   20.7151 C   0  0  0  0  0  0  0  0  0  0  0  0
  -32.9350  -24.7171   19.4348 C   0  0  0  0  0  0  0  0  0  0  0  0
  -27.5443  -28.2737   19.8901 C   0  0  0  0  0  0  0  0  0  0  0  0
  -25.4073  -28.3148   19.3737 C   0  0  0  0  0  0  0  0  0  0  0  0
  -18.3736  -24.1154   20.8958 C   0  0  0  0  0  0  0  0  0  0  0  0
  -18.2721  -23.0074   21.6465 C   0  0  0  0  0  0  0  0  0  0  0  0
  -26.6904  -26.4903   18.2453 C   0  0  0  0  0  0  0  0  0  0  0  0
  -25.8882  -19.8829   22.0997 C   0  0  0  0  0  0  0  0  0  0  0  0
  -25.5169  -16.7799   21.2303 C   0  0  0  0  0  0  0  0  0  0  0  0
  -23.4076  -14.1447   20.7269 C   0  0  0  0  0  0  0  0  0  0  0  0
  -21.9120  -30.7982   22.9459 C   0  0  0  0  0  0  0  0  0  0  0  0
  -30.6691  -21.6718   22.0782 C   0  0  0  0  0  0  0  0  0  0  0  0
  -24.5529  -18.9743   24.0355 C   0  0  0  0  0  0  0  0  0  0  0  0
  -23.4111  -18.1546   21.4337 C   0  0  0  0  0  0  0  0  0  0  0  0
  -29.8814  -20.6519   21.2600 C   0  0  0  0  0  0  0  0  0  0  0  0
  -24.6642  -32.7163   21.7531 C   0  0  0  0  0  0  0  0  0  0  0  0
  -28.5482  -21.2421   20.8117 C   0  0  0  0  0  0  0  0  0  0  0  0
  -25.5804  -31.6772   21.1043 C   0  0  0  0  0  0  0  0  0  0  0  0
  -23.9783  -32.1635   23.0005 C   0  0  0  0  0  0  0  0  0  0  0  0
  -24.1652  -29.8587   22.1478 C   0  0  0  0  0  0  0  0  0  0  0  0
  -27.6754  -21.6121   22.0170 C   0  0  1  0  0  0  0  0  0  0  0  0
  -25.4383  -18.6525   22.8355 C   0  0  1  0  0  0  0  0  0  0  0  0
  -24.8362  -30.3517   20.8544 C   0  0  2  0  0  0  0  0  0  0  0  0
  -19.6845  -26.7353   25.5658 C   0  0  0  0  0  0  0  0  0  0  0  0
  -23.3916  -11.7493   19.9791 C   0  0  0  0  0  0  0  0  0  0  0  0
  -25.8267  -17.6849   18.3329 C   0  0  0  0  0  0  0  0  0  0  0  0
  -24.8726  -15.4838   17.6165 C   0  0  0  0  0  0  0  0  0  0  0  0
  -27.0141  -15.5565   18.8937 C   0  0  0  0  0  0  0  0  0  0  0  0
  -22.3575  -13.2169   23.3336 C   0  0  0  0  0  0  0  0  0  0  0  0
  -20.5970  -26.9096   24.3555 C   0  0  0  0  0  0  0  0  0  0  0  0
  -19.9277  -29.3133   22.8166 C   0  0  0  0  0  0  0  0  0  0  0  0
  -17.8706  -21.6667   21.0949 C   0  0  0  0  0  0  0  0  0  0  0  0
  -18.9809  -20.6354   21.2580 C   0  0  0  0  0  0  0  0  0  1  0  0
  -24.8426  -16.0638   20.0850 C   0  0  1  0  0  0  0  0  0  0  0  0
  -23.4852  -12.6940   21.1672 C   0  0  2  0  0  0  0  0  0  0  0  0
  -25.6245  -16.2143   18.7496 C   0  0  0  0  0  0  0  0  0  0  0  0
  -27.0518  -29.3023   20.5854 N   0  0  0  0  0  0  0  0  0  0  0  0
  -25.7504  -29.3018   20.2503 N   0  0  0  0  0  0  0  0  0  0  0  0
  -24.7730  -17.7894   21.8574 N   0  0  0  0  0  0  0  0  0  0  0  0
  -23.2898  -30.9070   22.6952 N   0  0  0  0  0  0  0  0  0  0  0  0
  -24.1396  -28.1704   18.9327 N   0  0  0  0  0  0  0  0  0  0  0  0
  -27.9520  -25.8982   18.0963 N   0  0  0  0  0  0  0  0  0  0  0  0
  -27.0636  -20.4277   22.5804 N   0  0  0  0  0  0  0  0  0  0  0  0
  -24.6599  -14.6827   20.5181 N   0  0  0  0  0  0  0  0  0  0  0  0
  -21.3363  -29.5758   22.6221 N   0  0  0  0  0  0  0  0  0  0  0  0
  -22.3732  -12.3779   22.1077 N   0  3  0  0  0  0  0  0  0  0  0  0
  -25.7160  -26.0287   17.6042 O   0  0  0  0  0  0  0  0  0  0  0  0
  -25.2193  -20.3058   21.1640 O   0  0  0  0  0  0  0  0  0  0  0  0
  -26.6587  -16.4506   21.5611 O   0  0  0  0  0  0  0  0  0  0  0  0
  -22.3425  -14.7399   20.5790 O   0  0  0  0  0  0  0  0  0  0  0  0
  -21.2433  -31.7240   23.4180 O   0  0  0  0  0  0  0  0  0  0  0  0
  -32.9722  -26.9808   20.2552 O   0  0  0  0  0  0  0  0  0  0  0  0
  -19.2634  -20.4499   22.6444 O   0  0  0  0  0  0  0  0  0  1  0  0
  -34.3098  -21.6661   20.8624 F   0  0  0  0  0  0  0  0  0  0  0  0
  -32.2537  -25.1108   18.3501 F   0  0  0  0  0  0  0  0  0  0  0  0
  1  2  1  0  0  0  0
  1  6  2  0  0  0  0
  2  7  2  0  0  0  0
  3 10  2  0  0  0  0
  3 18  1  0  0  0  0
  4 11  1  0  0  0  0
  4 18  2  0  0  0  0
  5  9  2  0  0  0  0
  5 19  1  0  0  0  0
  6 21  1  0  0  0  0
  7 23  1  0  0  0  0
  8 12  2  0  0  0  0
  8 22  1  0  0  0  0
  9 25  1  0  0  0  0
 10 27  1  0  0  0  0
 11 27  2  0  0  0  0
 12 28  1  0  0  0  0
 13 14  2  0  0  0  0
 13 29  1  0  0  0  0
 14 30  1  0  0  0  0
 15 19  2  0  0  0  0
 15 26  1  0  0  0  0
 16 24  1  0  0  0  0
 16 28  2  0  0  0  0
 17 30  2  0  0  0  0
 17 31  1  0  0  0  0
 18 32  1  0  0  0  0
 19 34  1  0  0  0  0
 20 32  1  0  0  0  0
 20 33  2  0  0  0  0
 20 36  1  0  0  0  0
 21 23  2  0  0  0  0
 21 41  1  0  0  0  0
 22 24  2  0  0  0  0
 22 42  1  0  0  0  0
 23 50  1  0  0  0  0
 24 43  1  0  0  0  0
 25 26  2  0  0  0  0
 25 60  1  0  0  0  0
 26 59  1  0  0  0  0
 27 81  1  0  0  0  0
 28 82  1  0  0  0  0
 29 31  2  0  0  0  0
 29 81  1  0  0  0  0
 30 83  1  0  0  0  0
 31 84  1  0  0  0  0
 32 66  2  0  0  0  0
 33 67  1  0  0  0  0
 33 70  1  0  0  0  0
 34 35  2  0  0  0  0
 35 61  1  0  0  0  0
 36 71  1  0  0  0  0
 36 76  2  0  0  0  0
 37 51  1  0  0  0  0
 37 72  1  0  0  0  0
 37 77  2  0  0  0  0
 38 63  1  0  0  0  0
 38 68  1  0  0  0  0
 38 78  2  0  0  0  0
 39 64  1  0  0  0  0
 39 73  1  0  0  0  0
 39 79  2  0  0  0  0
 40 69  1  0  0  0  0
 40 74  1  0  0  0  0
 40 80  2  0  0  0  0
 41 44  1  0  0  0  0
 42 51  1  0  0  0  0
 43 68  1  0  0  0  0
 44 46  1  0  0  0  0
 45 47  1  0  0  0  0
 45 48  1  0  0  0  0
 46 50  1  0  0  0  0
 47 52  1  0  0  0  0
 48 69  1  0  0  0  0
 49 52  1  0  0  0  0
 49 69  1  0  0  0  0
 50 72  1  0  0  0  0
 51 68  1  0  0  0  0
 52 67  1  0  0  0  0
 53 59  1  0  0  0  0
 54 64  1  0  0  0  0
 55 65  1  0  0  0  0
 56 65  1  0  0  0  0
 57 65  1  0  0  0  0
 58 75  1  0  0  0  0
 60 74  1  0  0  0  0
 61 62  1  0  0  0  0
 62 82  1  0  0  0  0
 63 65  1  0  0  0  0
 63 73  1  0  0  0  0
 64 75  1  0  0  0  0
 66 67  1  0  0  0  0
M  CHG  1  75   1
M  ISO  4  40 100  62 101  74 100  82 101
M  END
> <Batch ID>
0125

> <Smiles>
CCc1cc(C=CC[101CH2:1][101O:1]c2ccc3c(c2)CN(C(=O)C(NC(=O)C(C)NC)C(C)(C)C)C(C(=O)NC2CCCc4ccccc42)C3)ccc1C[100NH:0][100C:0](=O)N1CCCC(n2nc(-c3ccc(Oc4ccc(F)cc4F)cc3)c(C(N)=O)c2N)C1

> <Shape>
0.202

> <Color>
0.081

> <Negative vol penalty>
0.000

$$$$

  -OEChem-04052302093D

 83 92  0     1  0  0  0  0  0999 V2000
  -18.4178  -28.1388   26.4829 C   0  0  0  0  0  0  0  0  0  0  0  0
  -19.4907  -27.3096   26.1721 C   0  0  0  0  0  0  0  0  0  0  0  0
  -23.2167   -9.7422   20.7552 C   0  0  0  0  0  0  0  0  0  0  0  0
  -23.8487  -10.3991   22.9927 C   0  0  0  0  0  0  0  0  0  0  0  0
  -17.8984  -28.9973   25.5149 C   0  0  0  0  0  0  0  0  0  0  0  0
  -20.0442  -27.3377   24.8925 C   0  0  0  0  0  0  0  0  0  0  0  0
  -31.0072  -19.2428   19.2805 C   0  0  0  0  0  0  0  0  0  0  0  0
  -25.9374  -26.5713   23.4130 C   0  0  0  0  0  0  0  0  0  0  0  0
  -30.8996  -17.9002   19.6311 C   0  0  0  0  0  0  0  0  0  0  0  0
  -22.5102   -8.6569   21.2734 C   0  0  0  0  0  0  0  0  0  0  0  0
  -23.1421   -9.3138   23.5109 C   0  0  0  0  0  0  0  0  0  0  0  0
  -26.6522  -25.4678   22.9493 C   0  0  0  0  0  0  0  0  0  0  0  0
  -19.9228   -8.5255   24.1704 C   0  0  0  0  0  0  0  0  0  0  0  0
  -19.1051   -8.7551   25.2768 C   0  0  0  0  0  0  0  0  0  0  0  0
  -29.1654  -18.4640   21.2170 C   0  0  0  0  0  0  0  0  0  0  0  0
  -26.3729  -26.2465   20.6833 C   0  0  0  0  0  0  0  0  0  0  0  0
  -20.3859   -7.1545   26.5554 C   0  0  0  0  0  0  0  0  0  0  0  0
  -23.8861  -10.6133   21.6149 C   0  0  0  0  0  0  0  0  0  0  0  0
  -29.2549  -19.8249   20.8783 C   0  0  0  0  0  0  0  0  0  0  0  0
  -24.1259  -13.0313   20.8382 C   0  0  0  0  0  0  0  0  0  0  0  0
  -30.2019  -20.2064   19.9061 C   0  0  0  0  0  0  0  0  0  0  0  0
  -18.4520  -29.0429   24.2257 C   0  0  0  0  0  0  0  0  0  0  0  0
  -25.4247  -27.5166   22.5130 C   0  0  0  0  0  0  0  0  0  0  0  0
  -19.5309  -28.1967   23.9059 C   0  0  0  0  0  0  0  0  0  0  0  0
  -25.6541  -27.3625   21.1383 C   0  0  0  0  0  0  0  0  0  0  0  0
  -29.9816  -17.5118   20.6004 C   0  0  0  0  0  0  0  0  0  0  0  0
  -22.4728   -8.4427   22.6512 C   0  0  0  0  0  0  0  0  0  0  0  0
  -26.8676  -25.3037   21.5841 C   0  0  0  0  0  0  0  0  0  0  0  0
  -20.9719   -7.6102   24.2564 C   0  0  0  0  0  0  0  0  0  0  0  0
  -19.3367   -8.0697   26.4694 C   0  0  0  0  0  0  0  0  0  0  0  0
  -21.2035   -6.9248   25.4489 C   0  0  0  0  0  0  0  0  0  0  0  0
  -24.6166  -11.7342   21.0802 C   0  0  0  0  0  0  0  0  0  0  0  0
  -25.2033  -13.7174   20.3333 C   0  0  0  0  0  0  0  0  0  0  0  0
  -28.3878  -20.8609   21.5136 C   0  0  0  0  0  0  0  0  0  0  0  0
  -28.7536  -22.1618   21.4267 C   0  0  0  0  0  0  0  0  0  0  0  0
  -22.8135  -13.5680   21.0508 C   0  0  0  0  0  0  0  0  0  0  0  0
  -22.5133  -28.5404   21.7519 C   0  0  0  0  0  0  0  0  0  0  0  0
  -24.1596  -30.6762   19.9489 C   0  0  0  0  0  0  0  0  0  0  0  0
  -27.0358  -31.4551   18.2853 C   0  0  0  0  0  0  0  0  0  0  0  0
  -30.6021  -15.0750   20.4486 C   0  0  0  0  0  0  0  0  0  0  0  0
  -30.3021  -21.6464   19.4853 C   0  0  0  0  0  0  0  0  0  0  0  0
  -17.8262  -29.9531   23.1987 C   0  0  0  0  0  0  0  0  0  0  0  0
  -24.6787  -28.7155   23.0311 C   0  0  0  0  0  0  0  0  0  0  0  0
  -25.1421  -28.3596   20.1322 C   0  0  0  0  0  0  0  0  0  0  0  0
  -29.9741  -22.5891   20.6395 C   0  0  0  0  0  0  0  0  0  0  0  0
  -18.7105  -30.1926   21.9777 C   0  0  0  0  0  0  0  0  0  0  0  0
  -29.7233  -12.0616   18.7680 C   0  0  0  0  0  0  0  0  0  0  0  0
  -19.2898  -28.8754   21.4714 C   0  0  0  0  0  0  0  0  0  0  0  0
  -28.2760  -11.8145   19.1998 C   0  0  0  0  0  0  0  0  0  0  0  0
  -30.5605  -12.6513   19.9016 C   0  0  0  0  0  0  0  0  0  0  0  0
  -28.5515  -13.6085   20.9585 C   0  0  0  0  0  0  0  0  0  0  0  0
  -20.1744  -28.2162   22.5364 C   0  0  1  0  0  0  0  0  0  0  0  0
  -23.7604  -29.3446   21.9878 C   0  0  1  0  0  0  0  0  0  0  0  0
  -27.6530  -13.0753   19.8306 C   0  0  2  0  0  0  0  0  0  0  0  0
  -27.1531  -20.3822   22.2321 C   0  0  0  0  0  0  0  0  0  0  0  0
  -28.0700  -33.2547   16.8749 C   0  0  0  0  0  0  0  0  0  0  0  0
  -22.4779  -29.7735   17.5683 C   0  0  0  0  0  0  0  0  0  0  0  0
  -24.1518  -30.8659   16.0607 C   0  0  0  0  0  0  0  0  0  0  0  0
  -22.8649  -32.2409   17.6965 C   0  0  0  0  0  0  0  0  0  0  0  0
  -29.2111  -31.8997   20.2421 C   0  0  0  0  0  0  0  0  0  0  0  0
  -28.0462  -23.3050   22.1054 C   0  0  0  0  0  0  0  0  0  1  0  0
  -24.6858  -30.7000   18.5342 C   0  0  1  0  0  0  0  0  0  0  0  0
  -27.8900  -32.7100   18.2833 C   0  0  2  0  0  0  0  0  0  0  0  0
  -23.5532  -30.8751   17.4835 C   0  0  0  0  0  0  0  0  0  0  0  0
  -25.9054  -11.6016   20.7556 N   0  0  0  0  0  0  0  0  0  0  0  0
  -26.2337  -12.8242   20.3044 N   0  0  0  0  0  0  0  0  0  0  0  0
  -24.4130  -29.5118   20.6877 N   0  0  0  0  0  0  0  0  0  0  0  0
  -29.9108  -13.8450   20.4474 N   0  0  0  0  0  0  0  0  0  0  0  0
  -25.3604  -14.9915   19.9157 N   0  0  0  0  0  0  0  0  0  0  0  0
  -21.8243  -12.7258   21.5767 N   0  0  0  0  0  0  0  0  0  0  0  0
  -29.8719  -16.1463   20.9622 N   0  0  0  0  0  0  0  0  0  0  0  0
  -21.4664  -28.8659   22.5930 N   0  0  0  0  0  0  0  0  0  0  0  0
  -25.7040  -31.7442   18.4949 N   0  0  0  0  0  0  0  0  0  0  0  0
  -29.2372  -32.4205   18.8510 N   0  3  0  0  0  0  0  0  0  0  0  0
  -22.5221  -14.7547   20.7671 O   0  0  0  0  0  0  0  0  0  0  0  0
  -22.5012  -27.6887   20.8708 O   0  0  0  0  0  0  0  0  0  0  0  0
  -23.5524  -31.6574   20.3849 O   0  0  0  0  0  0  0  0  0  0  0  0
  -27.5027  -30.3312   18.1141 O   0  0  0  0  0  0  0  0  0  0  0  0
  -31.7469  -15.1764   20.0001 O   0  0  0  0  0  0  0  0  0  0  0  0
  -21.7833   -7.3839   23.1572 O   0  0  0  0  0  0  0  0  0  0  0  0
  -27.5644  -24.2272   21.1288 O   0  0  0  0  0  0  0  0  0  1  0  0
  -18.5524   -8.2915   27.5323 F   0  0  0  0  0  0  0  0  0  0  0  0
  -22.2106   -6.0452   25.5380 F   0  0  0  0  0  0  0  0  0  0  0  0
  1  2  1  0  0  0  0
  1  5  2  0  0  0  0
  2  6  2  0  0  0  0
  3 10  2  0  0  0  0
  3 18  1  0  0  0  0
  4 11  1  0  0  0  0
  4 18  2  0  0  0  0
  5 22  1  0  0  0  0
  6 24  1  0  0  0  0
  7  9  2  0  0  0  0
  7 21  1  0  0  0  0
  8 12  2  0  0  0  0
  8 23  1  0  0  0  0
  9 26  1  0  0  0  0
 10 27  1  0  0  0  0
 11 27  2  0  0  0  0
 12 28  1  0  0  0  0
 13 14  2  0  0  0  0
 13 29  1  0  0  0  0
 14 30  1  0  0  0  0
 15 19  1  0  0  0  0
 15 26  2  0  0  0  0
 16 25  1  0  0  0  0
 16 28  2  0  0  0  0
 17 30  2  0  0  0  0
 17 31  1  0  0  0  0
 18 32  1  0  0  0  0
 19 21  2  0  0  0  0
 19 34  1  0  0  0  0
 20 32  1  0  0  0  0
 20 33  2  0  0  0  0
 20 36  1  0  0  0  0
 21 41  1  0  0  0  0
 22 24  2  0  0  0  0
 22 42  1  0  0  0  0
 23 25  2  0  0  0  0
 23 43  1  0  0  0  0
 24 52  1  0  0  0  0
 25 44  1  0  0  0  0
 26 71  1  0  0  0  0
 27 80  1  0  0  0  0
 28 81  1  0  0  0  0
 29 31  2  0  0  0  0
 29 80  1  0  0  0  0
 30 82  1  0  0  0  0
 31 83  1  0  0  0  0
 32 65  2  0  0  0  0
 33 66  1  0  0  0  0
 33 69  1  0  0  0  0
 34 35  2  0  0  0  0
 34 55  1  0  0  0  0
 35 45  1  0  0  0  0
 35 61  1  0  0  0  0
 36 70  1  0  0  0  0
 36 75  2  0  0  0  0
 37 53  1  0  0  0  0
 37 72  1  0  0  0  0
 37 76  2  0  0  0  0
 38 62  1  0  0  0  0
 38 67  1  0  0  0  0
 38 77  2  0  0  0  0
 39 63  1  0  0  0  0
 39 73  1  0  0  0  0
 39 78  2  0  0  0  0
 40 68  1  0  0  0  0
 40 71  1  0  0  0  0
 40 79  2  0  0  0  0
 41 45  1  0  0  0  0
 42 46  1  0  0  0  0
 43 53  1  0  0  0  0
 44 67  1  0  0  0  0
 46 48  1  0  0  0  0
 47 49  1  0  0  0  0
 47 50  1  0  0  0  0
 48 52  1  0  0  0  0
 49 54  1  0  0  0  0
 50 68  1  0  0  0  0
 51 54  1  0  0  0  0
 51 68  1  0  0  0  0
 52 72  1  0  0  0  0
 53 67  1  0  0  0  0
 54 66  1  0  0  0  0
 56 63  1  0  0  0  0
 57 64  1  0  0  0  0
 58 64  1  0  0  0  0
 59 64  1  0  0  0  0
 60 74  1  0  0  0  0
 61 81  1  0  0  0  0
 62 64  1  0  0  0  0
 62 73  1  0  0  0  0
 63 74  1  0  0  0  0
 65 66  1  0  0  0  0
M  CHG  1  74   1
M  ISO  4  40 100  61 101  71 100  81 101
M  END
> <Batch ID>
0125

> <Smiles>
CNC(C)C(=O)NC(C(=O)N1Cc2cc([101O:1][101CH2:1]C3=C(C)c4cc([100NH:0][100C:0](=O)N5CCCC(n6nc(-c7ccc(Oc8ccc(F)cc8F)cc7)c(C(N)=O)c6N)C5)ccc4CC3)ccc2CC1C(=O)NC1CCCc2ccccc21)C(C)(C)C

> <Shape>
0.287

> <Color>
0.180

> <Negative vol penalty>
0.000

$$$$

  -OEChem-04052302093D

 85 93  0     1  0  0  0  0  0999 V2000
  -36.7071  -29.1763   23.8045 C   0  0  0  0  0  0  0  0  0  0  0  0
  -35.6806  -28.4468   24.3959 C   0  0  0  0  0  0  0  0  0  0  0  0
  -23.0054   -9.9471   19.9320 C   0  0  0  0  0  0  0  0  0  0  0  0
  -23.7671   -9.8909   22.2241 C   0  0  0  0  0  0  0  0  0  0  0  0
  -36.5509  -29.6755   22.5121 C   0  0  0  0  0  0  0  0  0  0  0  0
  -34.4969  -28.2171   23.6956 C   0  0  0  0  0  0  0  0  0  0  0  0
  -32.9090  -23.4241   24.0836 C   0  0  0  0  0  0  0  0  0  0  0  0
  -22.2379   -8.8048   20.1590 C   0  0  0  0  0  0  0  0  0  0  0  0
  -22.9995   -8.7485   22.4512 C   0  0  0  0  0  0  0  0  0  0  0  0
  -32.2707  -23.0587   25.2680 C   0  0  0  0  0  0  0  0  0  0  0  0
  -23.2207   -5.4334   21.8249 C   0  0  0  0  0  0  0  0  0  0  0  0
  -23.8153   -4.3809   22.5208 C   0  0  0  0  0  0  0  0  0  0  0  0
  -32.0029  -18.1467   24.3442 C   0  0  0  0  0  0  0  0  0  0  0  0
  -30.1306  -23.2903   24.1791 C   0  0  0  0  0  0  0  0  0  0  0  0
  -32.1345  -16.4277   22.6516 C   0  0  0  0  0  0  0  0  0  0  0  0
  -22.1192   -4.5545   24.2326 C   0  0  0  0  0  0  0  0  0  0  0  0
  -23.7700  -10.4902   20.9646 C   0  0  0  0  0  0  0  0  0  0  0  0
  -30.6154  -18.1781   24.2044 C   0  0  0  0  0  0  0  0  0  0  0  0
  -24.1643  -13.0096   20.8963 C   0  0  0  0  0  0  0  0  0  0  0  0
  -35.3684  -29.4436   21.7920 C   0  0  0  0  0  0  0  0  0  0  0  0
  -32.1612  -23.7365   22.9392 C   0  0  0  0  0  0  0  0  0  0  0  0
  -34.3242  -28.7149   22.3929 C   0  0  0  0  0  0  0  0  0  0  0  0
  -30.7619  -23.6569   22.9807 C   0  0  0  0  0  0  0  0  0  0  0  0
  -29.9875  -17.3342   23.2883 C   0  0  0  0  0  0  0  0  0  0  0  0
  -30.7470  -16.4590   22.5119 C   0  0  0  0  0  0  0  0  0  0  0  0
  -22.2349   -8.2055   21.4186 C   0  0  0  0  0  0  0  0  0  0  0  0
  -30.8812  -22.9946   25.3168 C   0  0  0  0  0  0  0  0  0  0  0  0
  -22.0754   -6.0466   22.3329 C   0  0  0  0  0  0  0  0  0  0  0  0
  -23.2646   -3.9414   23.7246 C   0  0  0  0  0  0  0  0  0  0  0  0
  -32.7625  -17.2715   23.5677 C   0  0  0  0  0  0  0  0  0  0  0  0
  -21.5247   -5.6071   23.5368 C   0  0  0  0  0  0  0  0  0  0  0  0
  -24.5635  -11.6698   20.7306 C   0  0  0  0  0  0  0  0  0  0  0  0
  -25.2715  -13.7435   20.5473 C   0  0  0  0  0  0  0  0  0  0  0  0
  -29.8456  -19.1152   25.0395 C   0  0  0  0  0  0  0  0  0  0  0  0
  -29.8424  -19.1335   26.3816 C   0  0  0  0  0  0  0  0  0  0  0  0
  -22.9051  -13.5429   21.3274 C   0  0  0  0  0  0  0  0  0  0  0  0
  -31.8025  -26.3266   21.1319 C   0  0  0  0  0  0  0  0  0  0  0  0
  -30.0560  -24.3160   19.2800 C   0  0  0  0  0  0  0  0  0  0  0  0
  -28.1914  -21.4664   19.0575 C   0  0  0  0  0  0  0  0  0  0  0  0
  -30.7584  -14.6714   20.7369 C   0  0  0  0  0  0  0  0  0  0  0  0
  -35.2272  -30.0436   20.4155 C   0  0  0  0  0  0  0  0  0  0  0  0
  -32.8658  -24.1029   21.6618 C   0  0  0  0  0  0  0  0  0  0  0  0
  -29.9141  -23.9627   21.7740 C   0  0  0  0  0  0  0  0  0  0  0  0
  -34.0882  -29.4366   19.6004 C   0  0  0  0  0  0  0  0  0  0  0  0
  -29.5921  -12.3308   18.3206 C   0  0  0  0  0  0  0  0  0  0  0  0
  -32.8212  -29.3385   20.4441 C   0  0  0  0  0  0  0  0  0  0  0  0
  -28.1471  -12.0604   18.7458 C   0  0  0  0  0  0  0  0  0  0  0  0
  -30.5128  -12.5156   19.5256 C   0  0  0  0  0  0  0  0  0  0  0  0
  -28.6224  -13.2508   20.9239 C   0  0  0  0  0  0  0  0  0  0  0  0
  -33.0349  -28.4236   21.6560 C   0  0  1  0  0  0  0  0  0  0  0  0
  -31.9869  -24.8988   20.7018 C   0  0  1  0  0  0  0  0  0  0  0  0
  -27.6452  -13.1222   19.7439 C   0  0  2  0  0  0  0  0  0  0  0  0
  -28.0662  -18.1133   21.8783 C   0  0  0  0  0  0  0  0  0  0  0  0
  -26.8717  -19.6257   17.9769 C   0  0  0  0  0  0  0  0  0  0  0  0
  -27.7829  -26.3453   19.4390 C   0  0  0  0  0  0  0  0  0  0  0  0
  -26.2253  -24.5593   18.6313 C   0  0  0  0  0  0  0  0  0  0  0  0
  -28.1085  -25.3182   17.1821 C   0  0  0  0  0  0  0  0  0  0  0  0
  -30.6213  -19.8445   18.5842 C   0  0  0  0  0  0  0  0  0  0  0  0
  -28.4975  -17.3629   23.1325 C   0  0  0  0  0  0  0  0  0  0  0  0
  -29.0428  -20.1134   27.1928 C   0  0  0  0  0  0  0  0  0  0  0  0
  -29.9417  -20.9260   28.1230 C   0  0  0  0  0  0  0  0  0  0  0  0
  -30.9556  -21.7512   27.3427 C   0  0  0  0  0  0  0  0  0  1  0  0
  -28.6040  -23.9072   19.2206 C   0  0  1  0  0  0  0  0  0  0  0  0
  -28.2236  -20.3163   18.0672 C   0  0  2  0  0  0  0  0  0  0  0  0
  -27.6958  -25.0286   18.6417 C   0  0  0  0  0  0  0  0  0  0  0  0
  -25.8258  -11.5564   20.3089 N   0  0  0  0  0  0  0  0  0  0  0  0
  -26.2292  -12.8342   20.2066 N   0  0  0  0  0  0  0  0  0  0  0  0
  -30.6493  -24.3224   20.5503 N   0  0  0  0  0  0  0  0  0  0  0  0
  -29.9761  -13.5394   20.4248 N   0  0  0  0  0  0  0  0  0  0  0  0
  -25.5095  -15.0716   20.5016 N   0  0  0  0  0  0  0  0  0  0  0  0
  -21.8748  -12.6482   21.6470 N   0  0  0  0  0  0  0  0  0  0  0  0
  -30.1311  -15.5925   21.5751 N   0  0  0  0  0  0  0  0  0  0  0  0
  -32.9832  -27.0338   21.2555 N   0  0  0  0  0  0  0  0  0  0  0  0
  -28.5623  -22.6572   18.4695 N   0  0  0  0  0  0  0  0  0  0  0  0
  -29.2403  -19.3072   18.4782 N   0  3  0  0  0  0  0  0  0  0  0  0
  -22.6946  -14.7768   21.4104 O   0  0  0  0  0  0  0  0  0  0  0  0
  -30.6727  -26.7553   21.3350 O   0  0  0  0  0  0  0  0  0  0  0  0
  -30.6441  -24.6118   18.2368 O   0  0  0  0  0  0  0  0  0  0  0  0
  -27.8659  -21.3234   20.2340 O   0  0  0  0  0  0  0  0  0  0  0  0
  -31.8904  -14.8262   20.2715 O   0  0  0  0  0  0  0  0  0  0  0  0
  -21.4858   -7.0909   21.6405 O   0  0  0  0  0  0  0  0  0  0  0  0
  -30.2557  -22.6389   26.4718 O   0  0  0  0  0  0  0  0  0  1  0  0
  -23.8348   -2.9297   24.3920 F   0  0  0  0  0  0  0  0  0  0  0  0
  -34.0948  -17.2408   23.7024 F   0  0  0  0  0  0  0  0  0  0  0  0
  -20.4238   -6.1915   24.0292 F   0  0  0  0  0  0  0  0  0  0  0  0
  1  2  1  0  0  0  0
  1  5  2  0  0  0  0
  2  6  2  0  0  0  0
  3  8  2  0  0  0  0
  3 17  1  0  0  0  0
  4  9  1  0  0  0  0
  4 17  2  0  0  0  0
  5 20  1  0  0  0  0
  6 22  1  0  0  0  0
  7 10  2  0  0  0  0
  7 21  1  0  0  0  0
  8 26  1  0  0  0  0
  9 26  2  0  0  0  0
 10 27  1  0  0  0  0
 11 12  2  0  0  0  0
 11 28  1  0  0  0  0
 12 29  1  0  0  0  0
 13 18  2  0  0  0  0
 13 30  1  0  0  0  0
 14 23  1  0  0  0  0
 14 27  2  0  0  0  0
 15 25  1  0  0  0  0
 15 30  2  0  0  0  0
 16 29  2  0  0  0  0
 16 31  1  0  0  0  0
 17 32  1  0  0  0  0
 18 24  1  0  0  0  0
 18 34  1  0  0  0  0
 19 32  1  0  0  0  0
 19 33  2  0  0  0  0
 19 36  1  0  0  0  0
 20 22  2  0  0  0  0
 20 41  1  0  0  0  0
 21 23  2  0  0  0  0
 21 42  1  0  0  0  0
 22 50  1  0  0  0  0
 23 43  1  0  0  0  0
 24 25  2  0  0  0  0
 24 59  1  0  0  0  0
 25 72  1  0  0  0  0
 26 81  1  0  0  0  0
 27 82  1  0  0  0  0
 28 31  2  0  0  0  0
 28 81  1  0  0  0  0
 29 83  1  0  0  0  0
 30 84  1  0  0  0  0
 31 85  1  0  0  0  0
 32 66  2  0  0  0  0
 33 67  1  0  0  0  0
 33 70  1  0  0  0  0
 34 35  2  0  0  0  0
 35 60  1  0  0  0  0
 36 71  1  0  0  0  0
 36 76  2  0  0  0  0
 37 51  1  0  0  0  0
 37 73  1  0  0  0  0
 37 77  2  0  0  0  0
 38 63  1  0  0  0  0
 38 68  1  0  0  0  0
 38 78  2  0  0  0  0
 39 64  1  0  0  0  0
 39 74  1  0  0  0  0
 39 79  2  0  0  0  0
 40 69  1  0  0  0  0
 40 72  1  0  0  0  0
 40 80  2  0  0  0  0
 41 44  1  0  0  0  0
 42 51  1  0  0  0  0
 43 68  1  0  0  0  0
 44 46  1  0  0  0  0
 45 47  1  0  0  0  0
 45 48  1  0  0  0  0
 46 50  1  0  0  0  0
 47 52  1  0  0  0  0
 48 69  1  0  0  0  0
 49 52  1  0  0  0  0
 49 69  1  0  0  0  0
 50 73  1  0  0  0  0
 51 68  1  0  0  0  0
 52 67  1  0  0  0  0
 53 59  1  0  0  0  0
 54 64  1  0  0  0  0
 55 65  1  0  0  0  0
 56 65  1  0  0  0  0
 57 65  1  0  0  0  0
 58 75  1  0  0  0  0
 60 61  1  0  0  0  0
 61 62  1  0  0  0  0
 62 82  1  0  0  0  0
 63 65  1  0  0  0  0
 63 74  1  0  0  0  0
 64 75  1  0  0  0  0
 66 67  1  0  0  0  0
M  CHG  1  75   1
M  ISO  4  40 100  62 101  72 100  82 101
M  END
> <Batch ID>
0125

> <Smiles>
CCc1c(C=CCC[101CH2:1][101O:1]c2ccc3c(c2)CN(C(=O)C(NC(=O)C(C)NC)C(C)(C)C)C(C(=O)NC2CCCc4ccccc42)C3)cc(F)cc1[100NH:0][100C:0](=O)N1CCCC(n2nc(-c3ccc(Oc4ccc(F)cc4F)cc3)c(C(N)=O)c2N)C1

> <Shape>
0.251

> <Color>
0.205

> <Negative vol penalty>
0.000

$$$$

  -OEChem-04052302093D

 82 90  0     1  0  0  0  0  0999 V2000
  -27.3069  -37.6690   24.6278 C   0  0  0  0  0  0  0  0  0  0  0  0
  -28.0052  -36.5995   24.0765 C   0  0  0  0  0  0  0  0  0  0  0  0
  -23.7455   -9.6380   22.2531 C   0  0  0  0  0  0  0  0  0  0  0  0
  -23.4047   -9.4076   19.8724 C   0  0  0  0  0  0  0  0  0  0  0  0
  -27.8674  -21.8883   22.0325 C   0  0  0  0  0  0  0  0  0  0  0  0
  -26.0321  -37.4697   25.1559 C   0  0  0  0  0  0  0  0  0  0  0  0
  -27.4294  -35.3297   24.0540 C   0  0  0  0  0  0  0  0  0  0  0  0
  -27.2186  -29.3646   20.0930 C   0  0  0  0  0  0  0  0  0  0  0  0
  -27.8851  -23.2735   21.8696 C   0  0  0  0  0  0  0  0  0  0  0  0
  -22.8173   -8.6229   22.4842 C   0  0  0  0  0  0  0  0  0  0  0  0
  -22.4766   -8.3924   20.1035 C   0  0  0  0  0  0  0  0  0  0  0  0
  -27.3970  -27.9869   20.2104 C   0  0  0  0  0  0  0  0  0  0  0  0
  -22.7400   -5.2445   22.3676 C   0  0  0  0  0  0  0  0  0  0  0  0
  -23.0729   -4.2617   23.2998 C   0  0  0  0  0  0  0  0  0  0  0  0
  -25.1567  -27.7771   21.0801 C   0  0  0  0  0  0  0  0  0  0  0  0
  -27.6618  -22.9954   19.4801 C   0  0  0  0  0  0  0  0  0  0  0  0
  -21.1392   -4.8587   24.6195 C   0  0  0  0  0  0  0  0  0  0  0  0
  -24.0392  -10.0305   20.9472 C   0  0  0  0  0  0  0  0  0  0  0  0
  -27.7469  -21.0566   20.9191 C   0  0  0  0  0  0  0  0  0  0  0  0
  -26.3857  -10.9368   20.5227 C   0  0  0  0  0  0  0  0  0  0  0  0
  -25.4365  -36.1988   25.1312 C   0  0  0  0  0  0  0  0  0  0  0  0
  -26.0098  -29.9613   20.4791 C   0  0  0  0  0  0  0  0  0  0  0  0
  -26.1459  -35.1130   24.5835 C   0  0  0  0  0  0  0  0  0  0  0  0
  -24.9646  -29.1622   20.9642 C   0  0  0  0  0  0  0  0  0  0  0  0
  -27.7823  -23.8271   20.5934 C   0  0  0  0  0  0  0  0  0  0  0  0
  -27.6441  -21.6102   19.6430 C   0  0  0  0  0  0  0  0  0  0  0  0
  -22.1828   -8.0000   21.4094 C   0  0  0  0  0  0  0  0  0  0  0  0
  -26.3670  -27.1932   20.7068 C   0  0  0  0  0  0  0  0  0  0  0  0
  -21.6068   -6.0344   22.5614 C   0  0  0  0  0  0  0  0  0  0  0  0
  -22.2725   -4.0688   24.4257 C   0  0  0  0  0  0  0  0  0  0  0  0
  -20.8064   -5.8415   23.6873 C   0  0  0  0  0  0  0  0  0  0  0  0
  -24.9975  -11.0795   20.7078 C   0  0  0  0  0  0  0  0  0  0  0  0
  -26.8404  -12.2188   20.3327 C   0  0  0  0  0  0  0  0  0  0  0  0
  -27.7317  -19.6140   21.1223 C   0  0  0  0  0  0  0  0  0  0  0  0
  -26.8142  -18.9365   21.8419 C   0  0  0  0  0  0  0  0  0  0  0  0
  -27.1921   -9.7513   20.5225 C   0  0  0  0  0  0  0  0  0  0  0  0
  -26.9297  -17.4680   21.9464 C   0  0  0  0  0  0  0  0  0  0  0  0
  -25.1668  -32.1127   22.6619 C   0  0  0  0  0  0  0  0  0  0  0  0
  -22.2705  -31.8647   21.2225 C   0  0  0  0  0  0  0  0  0  0  0  0
  -20.1204  -29.9977   19.3415 C   0  0  0  0  0  0  0  0  0  0  0  0
  -24.0755  -36.0227   25.7568 C   0  0  0  0  0  0  0  0  0  0  0  0
  -25.8237  -31.4455   20.3211 C   0  0  0  0  0  0  0  0  0  0  0  0
  -23.6403  -29.7513   21.3735 C   0  0  0  0  0  0  0  0  0  0  0  0
  -23.3845  -34.7219   25.3558 C   0  0  0  0  0  0  0  0  0  0  0  0
  -24.3447  -16.5258   19.5253 C   0  0  0  0  0  0  0  0  0  0  0  0
  -24.3520  -33.5477   25.4653 C   0  0  0  0  0  0  0  0  0  0  0  0
  -24.3718  -15.0043   19.6439 C   0  0  0  0  0  0  0  0  0  0  0  0
  -24.6338  -17.2087   20.8612 C   0  0  0  0  0  0  0  0  0  0  0  0
  -25.9337  -15.2384   21.6152 C   0  0  0  0  0  0  0  0  0  0  0  0
  -25.5449  -33.7256   24.5183 C   0  0  1  0  0  0  0  0  0  0  0  0
  -24.7339  -32.0108   21.2267 C   0  0  1  0  0  0  0  0  0  0  0  0
  -25.6918  -14.5308   20.2727 C   0  0  1  0  0  0  0  0  0  0  0  0
  -25.9493  -19.8668   16.6440 C   0  0  0  0  0  0  0  0  0  0  0  0
  -17.8115  -30.0452   18.3595 C   0  0  0  0  0  0  0  0  0  0  0  0
  -21.0896  -31.2950   23.9776 C   0  0  0  0  0  0  0  0  0  0  0  0
  -19.0331  -30.4309   22.8406 C   0  0  0  0  0  0  0  0  0  0  0  0
  -19.7116  -32.8132   22.5456 C   0  0  0  0  0  0  0  0  0  0  0  0
  -21.1646  -29.7836   16.5806 C   0  0  0  0  0  0  0  0  0  0  0  0
  -27.5140  -20.7497   18.4273 C   0  0  0  0  0  0  0  0  0  0  0  0
  -27.7997  -25.3171   20.4178 C   0  0  0  0  0  0  0  0  0  1  0  0
  -26.0731  -20.7155   17.8995 C   0  0  0  0  0  0  0  0  0  0  0  0
  -21.0527  -30.9933   21.4137 C   0  0  1  0  0  0  0  0  0  0  0  0
  -19.2834  -30.3468   18.1241 C   0  0  2  0  0  0  0  0  0  0  0  0
  -20.2473  -31.3719   22.6886 C   0  0  0  0  0  0  0  0  0  0  0  0
  -24.5966  -12.3519   20.6415 N   0  0  0  0  0  0  0  0  0  0  0  0
  -25.7398  -13.0203   20.4128 N   0  0  0  0  0  0  0  0  0  0  0  0
  -25.8705  -16.6971   21.4707 N   0  0  0  0  0  0  0  0  0  0  0  0
  -23.5093  -31.2082   21.2061 N   0  0  0  0  0  0  0  0  0  0  0  0
  -28.0703  -12.7274   20.1068 N   0  0  0  0  0  0  0  0  0  0  0  0
  -26.5641   -8.5160   20.7327 N   0  0  0  0  0  0  0  0  0  0  0  0
  -25.1647  -33.4016   23.1601 N   0  0  0  0  0  0  0  0  0  0  0  0
  -20.2876  -31.0835   20.1748 N   0  0  0  0  0  0  0  0  0  0  0  0
  -19.7399  -29.5652   16.9402 N   0  3  0  0  0  0  0  0  0  0  0  0
  -28.4351   -9.7879   20.3576 O   0  0  0  0  0  0  0  0  0  0  0  0
  -27.9565  -17.0130   22.4536 O   0  0  0  0  0  0  0  0  0  0  0  0
  -25.4782  -31.0969   23.2727 O   0  0  0  0  0  0  0  0  0  0  0  0
  -22.1274  -33.0822   21.0853 O   0  0  0  0  0  0  0  0  0  0  0  0
  -20.5768  -28.8732   19.5358 O   0  0  0  0  0  0  0  0  0  0  0  0
  -21.2773   -7.0091   21.6346 O   0  0  0  0  0  0  0  0  0  0  0  0
  -26.5387  -25.8483   20.8230 O   0  0  0  0  0  0  0  0  0  1  0  0
  -22.5914   -3.1240   25.3200 F   0  0  0  0  0  0  0  0  0  0  0  0
  -19.7158   -6.5965   23.8783 F   0  0  0  0  0  0  0  0  0  0  0  0
  1  2  1  0  0  0  0
  1  6  2  0  0  0  0
  2  7  2  0  0  0  0
  3 10  2  0  0  0  0
  3 18  1  0  0  0  0
  4 11  1  0  0  0  0
  4 18  2  0  0  0  0
  5  9  2  0  0  0  0
  5 19  1  0  0  0  0
  6 21  1  0  0  0  0
  7 23  1  0  0  0  0
  8 12  2  0  0  0  0
  8 22  1  0  0  0  0
  9 25  1  0  0  0  0
 10 27  1  0  0  0  0
 11 27  2  0  0  0  0
 12 28  1  0  0  0  0
 13 14  2  0  0  0  0
 13 29  1  0  0  0  0
 14 30  1  0  0  0  0
 15 24  1  0  0  0  0
 15 28  2  0  0  0  0
 16 25  2  0  0  0  0
 16 26  1  0  0  0  0
 17 30  2  0  0  0  0
 17 31  1  0  0  0  0
 18 32  1  0  0  0  0
 19 26  2  0  0  0  0
 19 34  1  0  0  0  0
 20 32  1  0  0  0  0
 20 33  2  0  0  0  0
 20 36  1  0  0  0  0
 21 23  2  0  0  0  0
 21 41  1  0  0  0  0
 22 24  2  0  0  0  0
 22 42  1  0  0  0  0
 23 50  1  0  0  0  0
 24 43  1  0  0  0  0
 25 60  1  0  0  0  0
 26 59  1  0  0  0  0
 27 79  1  0  0  0  0
 28 80  1  0  0  0  0
 29 31  2  0  0  0  0
 29 79  1  0  0  0  0
 30 81  1  0  0  0  0
 31 82  1  0  0  0  0
 32 65  2  0  0  0  0
 33 66  1  0  0  0  0
 33 69  1  0  0  0  0
 34 35  2  0  0  0  0
 35 37  1  0  0  0  0
 36 70  1  0  0  0  0
 36 74  2  0  0  0  0
 37 67  1  0  0  0  0
 37 75  2  0  0  0  0
 38 51  1  0  0  0  0
 38 71  1  0  0  0  0
 38 76  2  0  0  0  0
 39 62  1  0  0  0  0
 39 68  1  0  0  0  0
 39 77  2  0  0  0  0
 40 63  1  0  0  0  0
 40 72  1  0  0  0  0
 40 78  2  0  0  0  0
 41 44  1  0  0  0  0
 42 51  1  0  0  0  0
 43 68  1  0  0  0  0
 44 46  1  0  0  0  0
 45 47  1  0  0  0  0
 45 48  1  0  0  0  0
 46 50  1  0  0  0  0
 47 52  1  0  0  0  0
 48 67  1  0  0  0  0
 49 52  1  0  0  0  0
 49 67  1  0  0  0  0
 50 71  1  0  0  0  0
 51 68  1  0  0  0  0
 52 66  1  0  0  0  0
 53 61  1  0  0  0  0
 54 63  1  0  0  0  0
 55 64  1  0  0  0  0
 56 64  1  0  0  0  0
 57 64  1  0  0  0  0
 58 73  1  0  0  0  0
 59 61  1  0  0  0  0
 60 80  1  0  0  0  0
 62 64  1  0  0  0  0
 62 72  1  0  0  0  0
 63 73  1  0  0  0  0
 65 66  1  0  0  0  0
M  CHG  1  73   1
M  ISO  4  35 100  37 100  60 101  80 101
M  END
> <Batch ID>
0125

> <Smiles>
CCCc1cc([101CH2:1][101O:1]c2ccc3c(c2)CN(C(=O)C(NC(=O)C(C)NC)C(C)(C)C)C(C(=O)NC2CCCc4ccccc42)C3)ccc1C=[100CH:0][100C:0](=O)N1CCCC(n2nc(-c3ccc(Oc4ccc(F)cc4F)cc3)c(C(N)=O)c2N)C1

> <Shape>
0.286

> <Color>
0.102

> <Negative vol penalty>
0.000

$$$$

  -OEChem-04052302093D

 82 90  0     1  0  0  0  0  0999 V2000
  -16.7508  -29.3973   24.3012 C   0  0  0  0  0  0  0  0  0  0  0  0
  -17.8933  -29.8593   24.9467 C   0  0  0  0  0  0  0  0  0  0  0  0
  -26.2220  -17.6303   21.7328 C   0  0  0  0  0  0  0  0  0  0  0  0
  -28.4878  -17.7024   20.8974 C   0  0  0  0  0  0  0  0  0  0  0  0
  -16.8671  -28.5266   23.2185 C   0  0  0  0  0  0  0  0  0  0  0  0
  -19.1529  -29.4499   24.5105 C   0  0  0  0  0  0  0  0  0  0  0  0
  -25.8964  -31.7968   23.9337 C   0  0  0  0  0  0  0  0  0  0  0  0
  -26.0055  -16.4375   21.0430 C   0  0  0  0  0  0  0  0  0  0  0  0
  -28.2714  -16.5095   20.2075 C   0  0  0  0  0  0  0  0  0  0  0  0
  -27.1980  -31.4271   24.2700 C   0  0  0  0  0  0  0  0  0  0  0  0
  -28.4290  -13.2947   18.5168 C   0  0  0  0  0  0  0  0  0  0  0  0
  -29.4184  -12.3143   18.5890 C   0  0  0  0  0  0  0  0  0  0  0  0
  -27.2802  -29.9831   22.3394 C   0  0  0  0  0  0  0  0  0  0  0  0
  -31.7655  -27.8042   20.7069 C   0  0  0  0  0  0  0  0  0  0  0  0
  -33.4732  -27.5277   22.3934 C   0  0  0  0  0  0  0  0  0  0  0  0
  -32.7450  -25.6290   21.0890 C   0  0  0  0  0  0  0  0  0  0  0  0
  -29.1542  -12.2243   20.9888 C   0  0  0  0  0  0  0  0  0  0  0  0
  -27.4631  -18.2628   21.6600 C   0  0  0  0  0  0  0  0  0  0  0  0
  -28.1675  -19.6422   23.6870 C   0  0  0  0  0  0  0  0  0  0  0  0
  -18.1291  -28.1139   22.7627 C   0  0  0  0  0  0  0  0  0  0  0  0
  -25.2720  -31.2532   22.8019 C   0  0  0  0  0  0  0  0  0  0  0  0
  -19.2862  -28.5718   23.4215 C   0  0  0  0  0  0  0  0  0  0  0  0
  -25.9716  -30.3495   21.9895 C   0  0  0  0  0  0  0  0  0  0  0  0
  -32.5774  -28.3449   21.7039 C   0  0  0  0  0  0  0  0  0  0  0  0
  -31.8492  -26.4462   20.3995 C   0  0  0  0  0  0  0  0  0  0  0  0
  -27.0302  -15.8771   20.2804 C   0  0  0  0  0  0  0  0  0  0  0  0
  -27.8890  -30.5180   23.4744 C   0  0  0  0  0  0  0  0  0  0  0  0
  -27.8022  -13.7401   19.6807 C   0  0  0  0  0  0  0  0  0  0  0  0
  -29.7811  -11.7790   19.8250 C   0  0  0  0  0  0  0  0  0  0  0  0
  -33.5570  -26.1697   22.0859 C   0  0  0  0  0  0  0  0  0  0  0  0
  -28.1648  -13.2048   20.9166 C   0  0  0  0  0  0  0  0  0  0  0  0
  -27.6871  -19.4953   22.3719 C   0  0  0  0  0  0  0  0  0  0  0  0
  -28.2004  -21.0001   23.8909 C   0  0  0  0  0  0  0  0  0  0  0  0
  -28.5500  -18.6407   24.6391 C   0  0  0  0  0  0  0  0  0  0  0  0
  -22.6949  -29.4597   22.3059 C   0  0  0  0  0  0  0  0  0  0  0  0
  -23.3925  -30.0084   19.1859 C   0  0  0  0  0  0  0  0  0  0  0  0
  -25.7375  -30.8063   16.8383 C   0  0  0  0  0  0  0  0  0  0  0  0
  -28.6539  -25.6716   20.1731 C   0  0  0  0  0  0  0  0  0  0  0  0
  -18.2030  -27.1344   21.6183 C   0  0  0  0  0  0  0  0  0  0  0  0
  -23.8772  -31.6825   22.4379 C   0  0  0  0  0  0  0  0  0  0  0  0
  -25.3535  -29.7525   20.7525 C   0  0  0  0  0  0  0  0  0  0  0  0
  -19.5877  -27.0443   20.9821 C   0  0  0  0  0  0  0  0  0  0  0  0
  -26.0478  -25.0460   22.5169 C   0  0  0  0  0  0  0  0  0  0  0  0
  -20.6631  -26.9314   22.0580 C   0  0  0  0  0  0  0  0  0  0  0  0
  -26.2158  -23.5657   22.8642 C   0  0  0  0  0  0  0  0  0  0  0  0
  -26.3632  -25.3204   21.0482 C   0  0  0  0  0  0  0  0  0  0  0  0
  -27.8499  -23.3575   20.9445 C   0  0  0  0  0  0  0  0  0  0  0  0
  -20.6710  -28.1699   22.9622 C   0  0  1  0  0  0  0  0  0  0  0  0
  -23.1542  -30.6744   21.5500 C   0  0  1  0  0  0  0  0  0  0  0  0
  -27.5970  -23.0408   22.4285 C   0  0  2  0  0  0  0  0  0  0  0  0
  -26.0162  -31.1425   14.3671 C   0  0  0  0  0  0  0  0  0  0  0  0
  -23.3313  -26.9862   18.7703 C   0  0  0  0  0  0  0  0  0  0  0  0
  -24.5216  -27.3313   16.5949 C   0  0  0  0  0  0  0  0  0  0  0  0
  -22.2547  -28.3124   16.9437 C   0  0  0  0  0  0  0  0  0  0  0  0
  -26.5658  -33.6248   17.1977 C   0  0  0  0  0  0  0  0  0  0  0  0
  -32.4865  -29.8128   22.0367 C   0  0  0  0  0  0  0  0  0  0  0  0
  -30.9811  -25.8677   19.3336 C   0  0  0  0  0  0  0  0  0  0  0  0
  -31.4618  -30.1349   23.1267 C   0  0  0  0  0  0  0  0  0  0  0  0
  -30.0296  -29.8001   22.7269 C   0  0  0  0  0  0  0  0  0  1  0  0
  -24.2394  -29.3202   18.1427 C   0  0  1  0  0  0  0  0  0  0  0  0
  -25.7228  -31.8116   15.7009 C   0  0  2  0  0  0  0  0  0  0  0  0
  -23.5980  -27.9971   17.6372 C   0  0  0  0  0  0  0  0  0  0  0  0
  -27.4329  -20.6664   21.7820 N   0  0  0  0  0  0  0  0  0  0  0  0
  -27.7548  -21.5621   22.7308 N   0  0  0  0  0  0  0  0  0  0  0  0
  -23.9853  -30.1988   20.4421 N   0  0  0  0  0  0  0  0  0  0  0  0
  -27.6872  -24.7992   20.6998 N   0  0  0  0  0  0  0  0  0  0  0  0
  -28.5667  -21.7562   24.9475 N   0  0  0  0  0  0  0  0  0  0  0  0
  -28.4545  -17.2931   24.2661 N   0  0  0  0  0  0  0  0  0  0  0  0
  -21.3253  -29.2766   22.2978 N   0  0  0  0  0  0  0  0  0  0  0  0
  -24.4782  -30.3069   17.0949 N   0  0  0  0  0  0  0  0  0  0  0  0
  -29.8840  -25.0977   19.8760 N   0  0  0  0  0  0  0  0  0  0  0  0
  -26.7468  -32.8695   15.9313 N   0  3  0  0  0  0  0  0  0  0  0  0
  -28.9485  -18.9318   25.7923 O   0  0  0  0  0  0  0  0  0  0  0  0
  -23.5220  -28.7410   22.8546 O   0  0  0  0  0  0  0  0  0  0  0  0
  -22.2498  -30.3703   18.8946 O   0  0  0  0  0  0  0  0  0  0  0  0
  -26.7642  -30.4925   17.4367 O   0  0  0  0  0  0  0  0  0  0  0  0
  -28.4386  -26.8740   19.9867 O   0  0  0  0  0  0  0  0  0  0  0  0
  -26.8195  -14.7130   19.6073 O   0  0  0  0  0  0  0  0  0  0  0  0
  -29.1593  -30.1550   23.8007 O   0  0  0  0  0  0  0  0  0  1  0  0
  -30.7302  -10.8364   19.8939 F   0  0  0  0  0  0  0  0  0  0  0  0
  -34.4165  -25.3850   22.7488 F   0  0  0  0  0  0  0  0  0  0  0  0
  -27.5653  -13.6278   22.0380 F   0  0  0  0  0  0  0  0  0  0  0  0
  1  2  1  0  0  0  0
  1  5  2  0  0  0  0
  2  6  2  0  0  0  0
  3  8  2  0  0  0  0
  3 18  1  0  0  0  0
  4  9  1  0  0  0  0
  4 18  2  0  0  0  0
  5 20  1  0  0  0  0
  6 22  1  0  0  0  0
  7 10  2  0  0  0  0
  7 21  1  0  0  0  0
  8 26  1  0  0  0  0
  9 26  2  0  0  0  0
 10 27  1  0  0  0  0
 11 12  2  0  0  0  0
 11 28  1  0  0  0  0
 12 29  1  0  0  0  0
 13 23  1  0  0  0  0
 13 27  2  0  0  0  0
 14 24  2  0  0  0  0
 14 25  1  0  0  0  0
 15 24  1  0  0  0  0
 15 30  2  0  0  0  0
 16 25  2  0  0  0  0
 16 30  1  0  0  0  0
 17 29  2  0  0  0  0
 17 31  1  0  0  0  0
 18 32  1  0  0  0  0
 19 32  1  0  0  0  0
 19 33  2  0  0  0  0
 19 34  1  0  0  0  0
 20 22  2  0  0  0  0
 20 39  1  0  0  0  0
 21 23  2  0  0  0  0
 21 40  1  0  0  0  0
 22 48  1  0  0  0  0
 23 41  1  0  0  0  0
 24 56  1  0  0  0  0
 25 57  1  0  0  0  0
 26 78  1  0  0  0  0
 27 79  1  0  0  0  0
 28 31  2  0  0  0  0
 28 78  1  0  0  0  0
 29 80  1  0  0  0  0
 30 81  1  0  0  0  0
 31 82  1  0  0  0  0
 32 63  2  0  0  0  0
 33 64  1  0  0  0  0
 33 67  1  0  0  0  0
 34 68  1  0  0  0  0
 34 73  2  0  0  0  0
 35 49  1  0  0  0  0
 35 69  1  0  0  0  0
 35 74  2  0  0  0  0
 36 60  1  0  0  0  0
 36 65  1  0  0  0  0
 36 75  2  0  0  0  0
 37 61  1  0  0  0  0
 37 70  1  0  0  0  0
 37 76  2  0  0  0  0
 38 66  1  0  0  0  0
 38 71  1  0  0  0  0
 38 77  2  0  0  0  0
 39 42  1  0  0  0  0
 40 49  1  0  0  0  0
 41 65  1  0  0  0  0
 42 44  1  0  0  0  0
 43 45  1  0  0  0  0
 43 46  1  0  0  0  0
 44 48  1  0  0  0  0
 45 50  1  0  0  0  0
 46 66  1  0  0  0  0
 47 50  1  0  0  0  0
 47 66  1  0  0  0  0
 48 69  1  0  0  0  0
 49 65  1  0  0  0  0
 50 64  1  0  0  0  0
 51 61  1  0  0  0  0
 52 62  1  0  0  0  0
 53 62  1  0  0  0  0
 54 62  1  0  0  0  0
 55 72  1  0  0  0  0
 56 58  1  0  0  0  0
 57 71  1  0  0  0  0
 58 59  1  0  0  0  0
 59 79  1  0  0  0  0
 60 62  1  0  0  0  0
 60 70  1  0  0  0  0
 61 72  1  0  0  0  0
 63 64  1  0  0  0  0
M  CHG  1  72   1
M  ISO  4  38 100  59 101  71 100  79 101
M  END
> <Batch ID>
0125

> <Smiles>
CNC(C)C(=O)NC(C(=O)N1Cc2cc([101O:1][101CH2:1]CCc3cc(F)cc(C[100NH:0][100C:0](=O)N4CCCC(n5nc(-c6ccc(Oc7ccc(F)cc7F)cc6)c(C(N)=O)c5N)C4)c3)ccc2CC1C(=O)NC1CCCc2ccccc21)C(C)(C)C

> <Shape>
0.257

> <Color>
0.121

> <Negative vol penalty>
0.000

$$$$

  -OEChem-04052302093D

 84 92  0     1  0  0  0  0  0999 V2000
  -27.5735  -32.5221   27.2466 C   0  0  0  0  0  0  0  0  0  0  0  0
  -27.8353  -31.5118   26.3267 C   0  0  0  0  0  0  0  0  0  0  0  0
  -26.4949   -7.2648   22.6188 C   0  0  0  0  0  0  0  0  0  0  0  0
  -26.3736   -6.6191   20.2938 C   0  0  0  0  0  0  0  0  0  0  0  0
  -30.0160  -19.2174   22.2861 C   0  0  0  0  0  0  0  0  0  0  0  0
  -26.2597  -32.7951   27.6253 C   0  0  0  0  0  0  0  0  0  0  0  0
  -26.7834  -30.7732   25.7857 C   0  0  0  0  0  0  0  0  0  0  0  0
  -27.2239  -30.1440   20.7802 C   0  0  0  0  0  0  0  0  0  0  0  0
  -30.2530  -20.5597   21.9903 C   0  0  0  0  0  0  0  0  0  0  0  0
  -25.3880   -6.4637   22.8990 C   0  0  0  0  0  0  0  0  0  0  0  0
  -25.2667   -5.8179   20.5741 C   0  0  0  0  0  0  0  0  0  0  0  0
  -28.1228  -29.1749   20.3370 C   0  0  0  0  0  0  0  0  0  0  0  0
  -22.0302   -6.6481   22.5589 C   0  0  0  0  0  0  0  0  0  0  0  0
  -21.0301   -7.1862   23.3688 C   0  0  0  0  0  0  0  0  0  0  0  0
  -29.6622  -18.7628   19.9397 C   0  0  0  0  0  0  0  0  0  0  0  0
  -26.2921  -27.6415   19.9959 C   0  0  0  0  0  0  0  0  0  0  0  0
  -21.3711   -5.4095   24.9702 C   0  0  0  0  0  0  0  0  0  0  0  0
  -26.9876   -7.3426   21.3161 C   0  0  0  0  0  0  0  0  0  0  0  0
  -29.7207  -18.3189   21.2608 C   0  0  0  0  0  0  0  0  0  0  0  0
  -29.4859   -7.7909   21.0604 C   0  0  0  0  0  0  0  0  0  0  0  0
  -25.1905  -32.0660   27.0815 C   0  0  0  0  0  0  0  0  0  0  0  0
  -25.8512  -29.8651   20.8451 C   0  0  0  0  0  0  0  0  0  0  0  0
  -25.4542  -31.0359   26.1586 C   0  0  0  0  0  0  0  0  0  0  0  0
  -25.3776  -28.6097   20.4379 C   0  0  0  0  0  0  0  0  0  0  0  0
  -30.1945  -21.0037   20.6693 C   0  0  0  0  0  0  0  0  0  0  0  0
  -29.8991  -20.1052   19.6440 C   0  0  0  0  0  0  0  0  0  0  0  0
  -24.7739   -5.7402   21.8767 C   0  0  0  0  0  0  0  0  0  0  0  0
  -27.6573  -27.9224   19.9475 C   0  0  0  0  0  0  0  0  0  0  0  0
  -22.7007   -5.4907   22.9547 C   0  0  0  0  0  0  0  0  0  0  0  0
  -20.7005   -6.5669   24.5744 C   0  0  0  0  0  0  0  0  0  0  0  0
  -22.3711   -4.8715   24.1603 C   0  0  0  0  0  0  0  0  0  0  0  0
  -28.1307   -8.1704   21.0259 C   0  0  0  0  0  0  0  0  0  0  0  0
  -30.1701   -8.9285   20.7079 C   0  0  0  0  0  0  0  0  0  0  0  0
  -29.4741  -16.9190   21.5693 C   0  0  0  0  0  0  0  0  0  0  0  0
  -28.8232  -16.0444   20.7730 C   0  0  0  0  0  0  0  0  0  0  0  0
  -30.0737   -6.5234   21.3822 C   0  0  0  0  0  0  0  0  0  0  0  0
  -28.6611  -14.6477   21.2243 C   0  0  0  0  0  0  0  0  0  0  0  0
  -23.6939  -29.7468   23.1766 C   0  0  0  0  0  0  0  0  0  0  0  0
  -29.4249  -24.7552   19.9005 C   0  0  0  0  0  0  0  0  0  0  0  0
  -21.6280  -29.3121   20.7137 C   0  0  0  0  0  0  0  0  0  0  0  0
  -21.1305  -28.2922   17.4952 C   0  0  0  0  0  0  0  0  0  0  0  0
  -23.7910  -32.3659   27.5571 C   0  0  0  0  0  0  0  0  0  0  0  0
  -24.8916  -30.9302   21.3002 C   0  0  0  0  0  0  0  0  0  0  0  0
  -23.9113  -28.2669   20.4694 C   0  0  0  0  0  0  0  0  0  0  0  0
  -22.7040  -31.7875   26.6547 C   0  0  0  0  0  0  0  0  0  0  0  0
  -29.7282  -12.9388   18.1628 C   0  0  0  0  0  0  0  0  0  0  0  0
  -23.0179  -30.3367   26.3034 C   0  0  0  0  0  0  0  0  0  0  0  0
  -29.5128  -11.4785   18.5513 C   0  0  0  0  0  0  0  0  0  0  0  0
  -28.6859  -13.8588   18.7967 C   0  0  0  0  0  0  0  0  0  0  0  0
  -28.3799  -12.2635   20.6681 C   0  0  0  0  0  0  0  0  0  0  0  0
  -24.3382  -30.2293   25.5309 C   0  0  1  0  0  0  0  0  0  0  0  0
  -23.5706  -30.3650   21.8126 C   0  0  1  0  0  0  0  0  0  0  0  0
  -29.4456  -11.3260   20.0792 C   0  0  1  0  0  0  0  0  0  0  0  0
  -29.8314  -20.5575   18.2222 C   0  0  0  0  0  0  0  0  0  0  0  0
  -19.3270  -28.0190   15.7718 C   0  0  0  0  0  0  0  0  0  0  0  0
  -20.6372  -26.8095   22.1507 C   0  0  0  0  0  0  0  0  0  0  0  0
  -19.5674  -26.0861   20.0059 C   0  0  0  0  0  0  0  0  0  0  0  0
  -18.8353  -28.1985   21.1124 C   0  0  0  0  0  0  0  0  0  0  0  0
  -22.4459  -30.1947   15.6488 C   0  0  0  0  0  0  0  0  0  0  0  0
  -30.4550  -22.4614   20.3740 C   0  0  0  0  0  0  0  0  0  0  0  0
  -29.1789  -23.2730   20.1428 C   0  0  0  0  0  0  0  0  0  0  0  0
  -28.1826  -25.6113   19.7510 C   0  0  0  0  0  0  0  0  0  1  0  0
  -21.0888  -28.1146   19.9693 C   0  0  1  0  0  0  0  0  0  0  0  0
  -20.3975  -28.9408   16.3349 C   0  0  2  0  0  0  0  0  0  0  0  0
  -20.0601  -27.3077   20.8107 C   0  0  0  0  0  0  0  0  0  0  0  0
  -27.9620   -9.4492   20.6790 N   0  0  0  0  0  0  0  0  0  0  0  0
  -29.2201   -9.8831   20.4924 N   0  0  0  0  0  0  0  0  0  0  0  0
  -28.5991  -13.6528   20.2503 N   0  0  0  0  0  0  0  0  0  0  0  0
  -23.0134  -29.3397   20.9280 N   0  0  0  0  0  0  0  0  0  0  0  0
  -31.4856   -9.1954   20.5644 N   0  0  0  0  0  0  0  0  0  0  0  0
  -29.2256   -5.4607   21.7224 N   0  0  0  0  0  0  0  0  0  0  0  0
  -24.1484  -30.6166   24.1494 N   0  0  0  0  0  0  0  0  0  0  0  0
  -20.5616  -28.6220   18.7071 N   0  0  0  0  0  0  0  0  0  0  0  0
  -21.3526  -29.2754   15.2408 N   0  3  0  0  0  0  0  0  0  0  0  0
  -31.3151   -6.3431   21.3845 O   0  0  0  0  0  0  0  0  0  0  0  0
  -28.5856  -14.4474   22.4379 O   0  0  0  0  0  0  0  0  0  0  0  0
  -23.3972  -28.5684   23.3349 O   0  0  0  0  0  0  0  0  0  0  0  0
  -30.5536  -25.2422   19.8626 O   0  0  0  0  0  0  0  0  0  0  0  0
  -20.8497  -30.1941   21.0850 O   0  0  0  0  0  0  0  0  0  0  0  0
  -22.1076  -27.5626   17.3415 O   0  0  0  0  0  0  0  0  0  0  0  0
  -23.6939   -4.9582   22.1499 O   0  0  0  0  0  0  0  0  0  0  0  0
  -28.5326  -26.9744   19.5151 O   0  0  0  0  0  0  0  0  0  1  0  0
  -19.7412   -7.0846   25.3528 F   0  0  0  0  0  0  0  0  0  0  0  0
  -23.0126   -3.7600   24.5463 F   0  0  0  0  0  0  0  0  0  0  0  0
  1  2  1  0  0  0  0
  1  6  2  0  0  0  0
  2  7  2  0  0  0  0
  3 10  2  0  0  0  0
  3 18  1  0  0  0  0
  4 11  1  0  0  0  0
  4 18  2  0  0  0  0
  5  9  2  0  0  0  0
  5 19  1  0  0  0  0
  6 21  1  0  0  0  0
  7 23  1  0  0  0  0
  8 12  2  0  0  0  0
  8 22  1  0  0  0  0
  9 25  1  0  0  0  0
 10 27  1  0  0  0  0
 11 27  2  0  0  0  0
 12 28  1  0  0  0  0
 13 14  2  0  0  0  0
 13 29  1  0  0  0  0
 14 30  1  0  0  0  0
 15 19  2  0  0  0  0
 15 26  1  0  0  0  0
 16 24  1  0  0  0  0
 16 28  2  0  0  0  0
 17 30  2  0  0  0  0
 17 31  1  0  0  0  0
 18 32  1  0  0  0  0
 19 34  1  0  0  0  0
 20 32  1  0  0  0  0
 20 33  2  0  0  0  0
 20 36  1  0  0  0  0
 21 23  2  0  0  0  0
 21 42  1  0  0  0  0
 22 24  2  0  0  0  0
 22 43  1  0  0  0  0
 23 51  1  0  0  0  0
 24 44  1  0  0  0  0
 25 26  2  0  0  0  0
 25 60  1  0  0  0  0
 26 54  1  0  0  0  0
 27 81  1  0  0  0  0
 28 82  1  0  0  0  0
 29 31  2  0  0  0  0
 29 81  1  0  0  0  0
 30 83  1  0  0  0  0
 31 84  1  0  0  0  0
 32 66  2  0  0  0  0
 33 67  1  0  0  0  0
 33 70  1  0  0  0  0
 34 35  2  0  0  0  0
 35 37  1  0  0  0  0
 36 71  1  0  0  0  0
 36 75  2  0  0  0  0
 37 68  1  0  0  0  0
 37 76  2  0  0  0  0
 38 52  1  0  0  0  0
 38 72  1  0  0  0  0
 38 77  2  0  0  0  0
 39 61  1  0  0  0  0
 39 62  1  0  0  0  0
 39 78  2  0  0  0  0
 40 63  1  0  0  0  0
 40 69  1  0  0  0  0
 40 79  2  0  0  0  0
 41 64  1  0  0  0  0
 41 73  1  0  0  0  0
 41 80  2  0  0  0  0
 42 45  1  0  0  0  0
 43 52  1  0  0  0  0
 44 69  1  0  0  0  0
 45 47  1  0  0  0  0
 46 48  1  0  0  0  0
 46 49  1  0  0  0  0
 47 51  1  0  0  0  0
 48 53  1  0  0  0  0
 49 68  1  0  0  0  0
 50 53  1  0  0  0  0
 50 68  1  0  0  0  0
 51 72  1  0  0  0  0
 52 69  1  0  0  0  0
 53 67  1  0  0  0  0
 55 64  1  0  0  0  0
 56 65  1  0  0  0  0
 57 65  1  0  0  0  0
 58 65  1  0  0  0  0
 59 74  1  0  0  0  0
 60 61  1  0  0  0  0
 62 82  1  0  0  0  0
 63 65  1  0  0  0  0
 63 73  1  0  0  0  0
 64 74  1  0  0  0  0
 66 67  1  0  0  0  0
M  CHG  1  74   1
M  ISO  4  35 100  37 100  62 101  82 101
M  END
> <Batch ID>
0125

> <Smiles>
CNC(C)C(=O)NC(C(=O)N1Cc2cc([101O:1][101CH2:1]C(=O)CCc3ccc(C=[100CH:0][100C:0](=O)N4CCCC(n5nc(-c6ccc(Oc7ccc(F)cc7F)cc6)c(C(N)=O)c5N)C4)cc3C)ccc2CC1C(=O)NC1CCCc2ccccc21)C(C)(C)C

> <Shape>
0.281

> <Color>
0.101

> <Negative vol penalty>
0.000

$$$$

  -OEChem-04052302093D

 84 92  0     1  0  0  0  0  0999 V2000
  -30.2027  -35.7391   22.8168 C   0  0  0  0  0  0  0  0  0  0  0  0
  -30.2931  -34.4816   22.2287 C   0  0  0  0  0  0  0  0  0  0  0  0
  -24.3243   -9.5829   22.1024 C   0  0  0  0  0  0  0  0  0  0  0  0
  -23.2242   -9.8548   19.9686 C   0  0  0  0  0  0  0  0  0  0  0  0
  -29.2752  -35.9674   23.8325 C   0  0  0  0  0  0  0  0  0  0  0  0
  -29.4567  -33.4513   22.6567 C   0  0  0  0  0  0  0  0  0  0  0  0
  -27.0575  -28.9880   19.2173 C   0  0  0  0  0  0  0  0  0  0  0  0
  -23.2890   -8.7518   22.5303 C   0  0  0  0  0  0  0  0  0  0  0  0
  -22.1889   -9.0237   20.3965 C   0  0  0  0  0  0  0  0  0  0  0  0
  -27.4349  -27.6631   19.0032 C   0  0  0  0  0  0  0  0  0  0  0  0
  -22.3386   -5.5351   22.1030 C   0  0  0  0  0  0  0  0  0  0  0  0
  -22.6846   -4.3551   22.7614 C   0  0  0  0  0  0  0  0  0  0  0  0
  -29.8866  -20.8841   21.2897 C   0  0  0  0  0  0  0  0  0  0  0  0
  -32.2182  -20.2760   21.1138 C   0  0  0  0  0  0  0  0  0  0  0  0
  -25.8711  -26.9505   20.6962 C   0  0  0  0  0  0  0  0  0  0  0  0
  -21.4619   -5.0856   24.7130 C   0  0  0  0  0  0  0  0  0  0  0  0
  -24.2919  -10.1344   20.8216 C   0  0  0  0  0  0  0  0  0  0  0  0
  -30.8758  -19.9054   21.1944 C   0  0  0  0  0  0  0  0  0  0  0  0
  -30.2397  -22.2335   21.3043 C   0  0  0  0  0  0  0  0  0  0  0  0
  -26.5436  -10.6082   19.7201 C   0  0  0  0  0  0  0  0  0  0  0  0
  -28.4204  -34.9419   24.2665 C   0  0  0  0  0  0  0  0  0  0  0  0
  -26.0903  -29.3057   20.1817 C   0  0  0  0  0  0  0  0  0  0  0  0
  -28.5178  -33.6656   23.6800 C   0  0  0  0  0  0  0  0  0  0  0  0
  -25.4814  -28.2801   20.9188 C   0  0  0  0  0  0  0  0  0  0  0  0
  -31.5820  -22.6041   21.2238 C   0  0  0  0  0  0  0  0  0  0  0  0
  -22.2213   -8.4722   21.6773 C   0  0  0  0  0  0  0  0  0  0  0  0
  -26.8438  -26.6443   19.7448 C   0  0  0  0  0  0  0  0  0  0  0  0
  -21.5543   -6.4904   22.7497 C   0  0  0  0  0  0  0  0  0  0  0  0
  -22.2462   -4.1303   24.0664 C   0  0  0  0  0  0  0  0  0  0  0  0
  -32.5713  -21.6254   21.1285 C   0  0  0  0  0  0  0  0  0  0  0  0
  -21.1160   -6.2656   24.0546 C   0  0  0  0  0  0  0  0  0  0  0  0
  -25.3608  -10.9935   20.3792 C   0  0  0  0  0  0  0  0  0  0  0  0
  -27.2232  -11.7847   19.5187 C   0  0  0  0  0  0  0  0  0  0  0  0
  -30.5086  -18.4980   21.1803 C   0  0  0  0  0  0  0  0  0  0  0  0
  -29.1723  -23.2427   21.4060 C   0  0  0  0  0  0  0  0  0  0  0  0
  -29.3393  -17.9893   21.6235 C   0  0  0  0  0  0  0  0  0  0  0  0
  -28.1833  -23.4159   20.5154 C   0  0  0  0  0  0  0  0  0  0  0  0
  -26.9881   -9.3036   19.3252 C   0  0  0  0  0  0  0  0  0  0  0  0
  -29.1106  -16.5332   21.5322 C   0  0  0  0  0  0  0  0  0  0  0  0
  -26.0687  -31.0247   22.8553 C   0  0  0  0  0  0  0  0  0  0  0  0
  -22.8882  -30.3915   22.7750 C   0  0  0  0  0  0  0  0  0  0  0  0
  -20.3646  -28.3613   21.6998 C   0  0  0  0  0  0  0  0  0  0  0  0
  -27.4663  -35.2233   25.4001 C   0  0  0  0  0  0  0  0  0  0  0  0
  -25.6750  -30.7375   20.3818 C   0  0  0  0  0  0  0  0  0  0  0  0
  -24.4234  -28.5664   21.9518 C   0  0  0  0  0  0  0  0  0  0  0  0
  -26.3595  -34.1810   25.5377 C   0  0  0  0  0  0  0  0  0  0  0  0
  -25.7589  -16.5809   20.0504 C   0  0  0  0  0  0  0  0  0  0  0  0
  -26.9397  -32.7725   25.4570 C   0  0  0  0  0  0  0  0  0  0  0  0
  -25.4402  -15.0892   19.9970 C   0  0  0  0  0  0  0  0  0  0  0  0
  -26.6044  -16.9416   21.2709 C   0  0  0  0  0  0  0  0  0  0  0  0
  -27.5374  -14.6468   21.3336 C   0  0  0  0  0  0  0  0  0  0  0  0
  -27.6108  -32.5293   24.0998 C   0  0  1  0  0  0  0  0  0  0  0  0
  -25.0510  -30.9929   21.7503 C   0  0  1  0  0  0  0  0  0  0  0  0
  -26.7272  -14.2540   20.0884 C   0  0  1  0  0  0  0  0  0  0  0  0
  -31.7524  -24.7247   19.8969 C   0  0  0  0  0  0  0  0  0  0  0  0
  -17.8743  -28.0789   21.8256 C   0  0  0  0  0  0  0  0  0  0  0  0
  -23.1549  -29.3298   25.6231 C   0  0  0  0  0  0  0  0  0  0  0  0
  -20.9282  -28.2199   25.3435 C   0  0  0  0  0  0  0  0  0  0  0  0
  -21.1070  -30.7044   25.2097 C   0  0  0  0  0  0  0  0  0  0  0  0
  -20.0693  -28.6324   18.7676 C   0  0  0  0  0  0  0  0  0  0  0  0
  -31.9926  -24.0416   21.2391 C   0  0  0  0  0  0  0  0  0  0  0  0
  -27.1277  -24.4656   20.6549 C   0  0  0  0  0  0  0  0  0  1  0  0
  -22.0029  -29.2934   23.3128 C   0  0  1  0  0  0  0  0  0  0  0  0
  -19.0333  -28.6723   21.0400 C   0  0  2  0  0  0  0  0  0  0  0  0
  -21.8195  -29.3813   24.8542 C   0  0  0  0  0  0  0  0  0  0  0  0
  -25.2900  -12.3116   20.5831 N   0  0  0  0  0  0  0  0  0  0  0  0
  -26.4369  -12.7648   20.0491 N   0  0  0  0  0  0  0  0  0  0  0  0
  -27.7994  -16.0900   21.3687 N   0  0  0  0  0  0  0  0  0  0  0  0
  -24.0558  -29.9827   22.1152 N   0  0  0  0  0  0  0  0  0  0  0  0
  -28.4107  -12.0660   18.9415 N   0  0  0  0  0  0  0  0  0  0  0  0
  -26.1672   -8.2037   19.6090 N   0  0  0  0  0  0  0  0  0  0  0  0
  -26.6144  -32.2738   23.0818 N   0  0  0  0  0  0  0  0  0  0  0  0
  -20.7568  -29.3670   22.5576 N   0  0  0  0  0  0  0  0  0  0  0  0
  -18.9978  -28.1162   19.6578 N   0  3  0  0  0  0  0  0  0  0  0  0
  -28.0885   -9.1169   18.7526 O   0  0  0  0  0  0  0  0  0  0  0  0
  -30.0956  -15.7969   21.6114 O   0  0  0  0  0  0  0  0  0  0  0  0
  -26.3376  -29.9927   23.4589 O   0  0  0  0  0  0  0  0  0  0  0  0
  -22.5525  -31.5686   22.9283 O   0  0  0  0  0  0  0  0  0  0  0  0
  -20.9919  -27.3276   21.4794 O   0  0  0  0  0  0  0  0  0  0  0  0
  -21.2111   -7.6611   22.0944 O   0  0  0  0  0  0  0  0  0  0  0  0
  -27.2107  -25.3503   19.5383 O   0  0  0  0  0  0  0  0  0  1  0  0
  -22.5772   -2.9964   24.6980 F   0  0  0  0  0  0  0  0  0  0  0  0
  -33.8645  -21.9701   21.0539 F   0  0  0  0  0  0  0  0  0  0  0  0
  -20.3613   -7.1791   24.6806 F   0  0  0  0  0  0  0  0  0  0  0  0
  1  2  1  0  0  0  0
  1  5  2  0  0  0  0
  2  6  2  0  0  0  0
  3  8  2  0  0  0  0
  3 17  1  0  0  0  0
  4  9  1  0  0  0  0
  4 17  2  0  0  0  0
  5 21  1  0  0  0  0
  6 23  1  0  0  0  0
  7 10  2  0  0  0  0
  7 22  1  0  0  0  0
  8 26  1  0  0  0  0
  9 26  2  0  0  0  0
 10 27  1  0  0  0  0
 11 12  2  0  0  0  0
 11 28  1  0  0  0  0
 12 29  1  0  0  0  0
 13 18  2  0  0  0  0
 13 19  1  0  0  0  0
 14 18  1  0  0  0  0
 14 30  2  0  0  0  0
 15 24  1  0  0  0  0
 15 27  2  0  0  0  0
 16 29  2  0  0  0  0
 16 31  1  0  0  0  0
 17 32  1  0  0  0  0
 18 34  1  0  0  0  0
 19 25  2  0  0  0  0
 19 35  1  0  0  0  0
 20 32  1  0  0  0  0
 20 33  2  0  0  0  0
 20 38  1  0  0  0  0
 21 23  2  0  0  0  0
 21 43  1  0  0  0  0
 22 24  2  0  0  0  0
 22 44  1  0  0  0  0
 23 52  1  0  0  0  0
 24 45  1  0  0  0  0
 25 30  1  0  0  0  0
 25 61  1  0  0  0  0
 26 80  1  0  0  0  0
 27 81  1  0  0  0  0
 28 31  2  0  0  0  0
 28 80  1  0  0  0  0
 29 82  1  0  0  0  0
 30 83  1  0  0  0  0
 31 84  1  0  0  0  0
 32 66  2  0  0  0  0
 33 67  1  0  0  0  0
 33 70  1  0  0  0  0
 34 36  2  0  0  0  0
 35 37  2  0  0  0  0
 36 39  1  0  0  0  0
 37 62  1  0  0  0  0
 38 71  1  0  0  0  0
 38 75  2  0  0  0  0
 39 68  1  0  0  0  0
 39 76  2  0  0  0  0
 40 53  1  0  0  0  0
 40 72  1  0  0  0  0
 40 77  2  0  0  0  0
 41 63  1  0  0  0  0
 41 69  1  0  0  0  0
 41 78  2  0  0  0  0
 42 64  1  0  0  0  0
 42 73  1  0  0  0  0
 42 79  2  0  0  0  0
 43 46  1  0  0  0  0
 44 53  1  0  0  0  0
 45 69  1  0  0  0  0
 46 48  1  0  0  0  0
 47 49  1  0  0  0  0
 47 50  1  0  0  0  0
 48 52  1  0  0  0  0
 49 54  1  0  0  0  0
 50 68  1  0  0  0  0
 51 54  1  0  0  0  0
 51 68  1  0  0  0  0
 52 72  1  0  0  0  0
 53 69  1  0  0  0  0
 54 67  1  0  0  0  0
 55 61  1  0  0  0  0
 56 64  1  0  0  0  0
 57 65  1  0  0  0  0
 58 65  1  0  0  0  0
 59 65  1  0  0  0  0
 60 74  1  0  0  0  0
 62 81  1  0  0  0  0
 63 65  1  0  0  0  0
 63 73  1  0  0  0  0
 64 74  1  0  0  0  0
 66 67  1  0  0  0  0
M  CHG  1  74   1
M  ISO  4  36 100  39 100  62 101  81 101
M  END
> <Batch ID>
0125

> <Smiles>
CCc1c(F)cc(C=[100CH:0][100C:0](=O)N2CCCC(n3nc(-c4ccc(Oc5ccc(F)cc5F)cc4)c(C(N)=O)c3N)C2)cc1C=C[101CH2:1][101O:1]c1ccc2c(c1)CN(C(=O)C(NC(=O)C(C)NC)C(C)(C)C)C(C(=O)NC1CCCc3ccccc31)C2

> <Shape>
0.317

> <Color>
0.101

> <Negative vol penalty>
0.000

$$$$

  -OEChem-04052302093D

 86 94  0     1  0  0  0  0  0999 V2000
  -15.5935  -28.4030   24.1552 C   0  0  0  0  0  0  0  0  0  0  0  0
  -16.6390  -27.7249   23.5366 C   0  0  0  0  0  0  0  0  0  0  0  0
  -23.6511   -9.9287   22.1906 C   0  0  0  0  0  0  0  0  0  0  0  0
  -24.6835   -8.5781   20.4740 C   0  0  0  0  0  0  0  0  0  0  0  0
  -15.5912  -29.7968   24.1885 C   0  0  0  0  0  0  0  0  0  0  0  0
  -17.6823  -28.4404   22.9500 C   0  0  0  0  0  0  0  0  0  0  0  0
  -23.5821  -26.8157   22.7096 C   0  0  0  0  0  0  0  0  0  0  0  0
  -30.9994  -20.7998   16.7807 C   0  0  0  0  0  0  0  0  0  0  0  0
  -22.5770   -9.0404   22.2436 C   0  0  0  0  0  0  0  0  0  0  0  0
  -23.6095   -7.6896   20.5270 C   0  0  0  0  0  0  0  0  0  0  0  0
  -24.3502  -26.2168   21.7121 C   0  0  0  0  0  0  0  0  0  0  0  0
  -30.6289  -22.0622   17.2438 C   0  0  0  0  0  0  0  0  0  0  0  0
  -21.9128   -6.0131   23.5954 C   0  0  0  0  0  0  0  0  0  0  0  0
  -21.4556   -5.6232   24.8542 C   0  0  0  0  0  0  0  0  0  0  0  0
  -29.4962  -21.0422   19.1182 C   0  0  0  0  0  0  0  0  0  0  0  0
  -25.1083  -28.3927   20.9979 C   0  0  0  0  0  0  0  0  0  0  0  0
  -19.2793   -6.5426   24.3485 C   0  0  0  0  0  0  0  0  0  0  0  0
  -24.7043   -9.6976   21.3057 C   0  0  0  0  0  0  0  0  0  0  0  0
  -29.8666  -19.7797   18.6551 C   0  0  0  0  0  0  0  0  0  0  0  0
  -27.0003  -10.5614   22.0059 C   0  0  0  0  0  0  0  0  0  0  0  0
  -16.6398  -30.5296   23.6105 C   0  0  0  0  0  0  0  0  0  0  0  0
  -23.5628  -28.2106   22.8521 C   0  0  0  0  0  0  0  0  0  0  0  0
  -17.6932  -29.8454   22.9745 C   0  0  0  0  0  0  0  0  0  0  0  0
  -24.3412  -29.0067   21.9997 C   0  0  0  0  0  0  0  0  0  0  0  0
  -30.6182  -19.6585   17.4863 C   0  0  0  0  0  0  0  0  0  0  0  0
  -22.5562   -7.9208   21.4119 C   0  0  0  0  0  0  0  0  0  0  0  0
  -29.8773  -22.1835   18.4126 C   0  0  0  0  0  0  0  0  0  0  0  0
  -25.1112  -27.0055   20.8541 C   0  0  0  0  0  0  0  0  0  0  0  0
  -21.0533   -6.6678   22.7131 C   0  0  0  0  0  0  0  0  0  0  0  0
  -20.1388   -5.8879   25.2307 C   0  0  0  0  0  0  0  0  0  0  0  0
  -19.7365   -6.9325   23.0897 C   0  0  0  0  0  0  0  0  0  0  0  0
  -25.8138  -10.6153   21.2501 C   0  0  0  0  0  0  0  0  0  0  0  0
  -27.7253  -11.6493   21.5848 C   0  0  0  0  0  0  0  0  0  0  0  0
  -29.4537  -18.6069   19.4146 C   0  0  0  0  0  0  0  0  0  0  0  0
  -28.1779  -18.2438   19.6579 C   0  0  0  0  0  0  0  0  0  0  0  0
  -27.4104   -9.6127   22.9996 C   0  0  0  0  0  0  0  0  0  0  0  0
  -27.9203  -17.0171   20.4388 C   0  0  0  0  0  0  0  0  0  0  0  0
  -21.3225  -30.4559   22.6441 C   0  0  0  0  0  0  0  0  0  0  0  0
  -27.6673  -24.8835   19.4013 C   0  0  0  0  0  0  0  0  0  0  0  0
  -23.7159  -32.3896   23.6710 C   0  0  0  0  0  0  0  0  0  0  0  0
  -27.0709  -32.9522   23.9438 C   0  0  0  0  0  0  0  0  0  0  0  0
  -16.5697  -32.0360   23.6300 C   0  0  0  0  0  0  0  0  0  0  0  0
  -22.7500  -28.8396   23.9503 C   0  0  0  0  0  0  0  0  0  0  0  0
  -24.3709  -30.5074   22.1238 C   0  0  0  0  0  0  0  0  0  0  0  0
  -17.9013  -32.7119   23.3133 C   0  0  0  0  0  0  0  0  0  0  0  0
  -27.0407  -14.7684   17.6818 C   0  0  0  0  0  0  0  0  0  0  0  0
  -18.5505  -32.0666   22.0930 C   0  0  0  0  0  0  0  0  0  0  0  0
  -26.6940  -13.4918   18.4433 C   0  0  0  0  0  0  0  0  0  0  0  0
  -26.6492  -16.0231   18.4609 C   0  0  0  0  0  0  0  0  0  0  0  0
  -26.8707  -14.7934   20.6008 C   0  0  0  0  0  0  0  0  0  0  0  0
  -18.8553  -30.5857   22.3486 C   0  0  1  0  0  0  0  0  0  0  0  0
  -22.4036  -30.2998   23.6759 C   0  0  1  0  0  0  0  0  0  0  0  0
  -27.2988  -13.5194   19.8559 C   0  0  1  0  0  0  0  0  0  0  0  0
  -30.6182  -16.5382   15.2127 C   0  0  0  0  0  0  0  0  0  0  0  0
  -28.7227  -34.6371   24.7981 C   0  0  0  0  0  0  0  0  0  0  0  0
  -23.1425  -34.1702   21.2605 C   0  0  0  0  0  0  0  0  0  0  0  0
  -25.3660  -35.2615   21.6256 C   0  0  0  0  0  0  0  0  0  0  0  0
  -23.6035  -35.4068   23.3848 C   0  0  0  0  0  0  0  0  0  0  0  0
  -28.2389  -31.0129   25.8500 C   0  0  0  0  0  0  0  0  0  0  0  0
  -31.0329  -18.3219   16.9605 C   0  0  0  0  0  0  0  0  0  0  0  0
  -28.3005  -23.5200   19.5886 C   0  0  0  0  0  0  0  0  0  0  0  0
  -26.3665  -25.1151   20.1423 C   0  0  0  0  0  0  0  0  0  1  0  0
  -30.1735  -17.8824   15.7671 C   0  0  0  0  0  0  0  0  0  0  0  0
  -24.7914  -33.2086   22.9991 C   0  0  1  0  0  0  0  0  0  0  0  0
  -27.9278  -33.3815   25.1210 C   0  0  2  0  0  0  0  0  0  0  0  0
  -24.2240  -34.4837   22.3136 C   0  0  0  0  0  0  0  0  0  0  0  0
  -25.7828  -11.6552   20.4125 N   0  0  0  0  0  0  0  0  0  0  0  0
  -26.9587  -12.2649   20.6395 N   0  0  0  0  0  0  0  0  0  0  0  0
  -27.1908  -15.9988   19.8279 N   0  0  0  0  0  0  0  0  0  0  0  0
  -23.5544  -31.0756   23.2092 N   0  0  0  0  0  0  0  0  0  0  0  0
  -28.9373  -12.1298   21.9347 N   0  0  0  0  0  0  0  0  0  0  0  0
  -26.5447   -8.5556   23.3117 N   0  0  0  0  0  0  0  0  0  0  0  0
  -20.0425  -30.4476   23.1648 N   0  0  0  0  0  0  0  0  0  0  0  0
  -25.7981  -33.4769   24.0203 N   0  0  0  0  0  0  0  0  0  0  0  0
  -28.8857  -32.2998   25.4862 N   0  3  0  0  0  0  0  0  0  0  0  0
  -28.5048   -9.7091   23.6049 O   0  0  0  0  0  0  0  0  0  0  0  0
  -28.3634  -16.9710   21.5878 O   0  0  0  0  0  0  0  0  0  0  0  0
  -21.6271  -30.5764   21.4633 O   0  0  0  0  0  0  0  0  0  0  0  0
  -28.1776  -25.7486   18.6911 O   0  0  0  0  0  0  0  0  0  0  0  0
  -23.0487  -32.8946   24.5773 O   0  0  0  0  0  0  0  0  0  0  0  0
  -27.4899  -32.2271   23.0442 O   0  0  0  0  0  0  0  0  0  0  0  0
  -21.5085   -7.0536   21.4635 O   0  0  0  0  0  0  0  0  0  0  0  0
  -29.5109  -23.4281   18.8674 O   0  0  0  0  0  0  0  0  0  0  0  0
  -25.8613  -26.4235   19.8792 O   0  0  0  0  0  0  0  0  0  1  0  0
  -19.6994   -5.5121   26.4389 F   0  0  0  0  0  0  0  0  0  0  0  0
  -18.9058   -7.5601   22.2460 F   0  0  0  0  0  0  0  0  0  0  0  0
  1  2  1  0  0  0  0
  1  5  2  0  0  0  0
  2  6  2  0  0  0  0
  3  9  2  0  0  0  0
  3 18  1  0  0  0  0
  4 10  1  0  0  0  0
  4 18  2  0  0  0  0
  5 21  1  0  0  0  0
  6 23  1  0  0  0  0
  7 11  2  0  0  0  0
  7 22  1  0  0  0  0
  8 12  2  0  0  0  0
  8 25  1  0  0  0  0
  9 26  1  0  0  0  0
 10 26  2  0  0  0  0
 11 28  1  0  0  0  0
 12 27  1  0  0  0  0
 13 14  2  0  0  0  0
 13 29  1  0  0  0  0
 14 30  1  0  0  0  0
 15 19  1  0  0  0  0
 15 27  2  0  0  0  0
 16 24  1  0  0  0  0
 16 28  2  0  0  0  0
 17 30  2  0  0  0  0
 17 31  1  0  0  0  0
 18 32  1  0  0  0  0
 19 25  2  0  0  0  0
 19 34  1  0  0  0  0
 20 32  1  0  0  0  0
 20 33  2  0  0  0  0
 20 36  1  0  0  0  0
 21 23  2  0  0  0  0
 21 42  1  0  0  0  0
 22 24  2  0  0  0  0
 22 43  1  0  0  0  0
 23 51  1  0  0  0  0
 24 44  1  0  0  0  0
 25 60  1  0  0  0  0
 26 82  1  0  0  0  0
 27 83  1  0  0  0  0
 28 84  1  0  0  0  0
 29 31  2  0  0  0  0
 29 82  1  0  0  0  0
 30 85  1  0  0  0  0
 31 86  1  0  0  0  0
 32 67  2  0  0  0  0
 33 68  1  0  0  0  0
 33 71  1  0  0  0  0
 34 35  2  0  0  0  0
 35 37  1  0  0  0  0
 36 72  1  0  0  0  0
 36 76  2  0  0  0  0
 37 69  1  0  0  0  0
 37 77  2  0  0  0  0
 38 52  1  0  0  0  0
 38 73  1  0  0  0  0
 38 78  2  0  0  0  0
 39 61  1  0  0  0  0
 39 62  1  0  0  0  0
 39 79  2  0  0  0  0
 40 64  1  0  0  0  0
 40 70  1  0  0  0  0
 40 80  2  0  0  0  0
 41 65  1  0  0  0  0
 41 74  1  0  0  0  0
 41 81  2  0  0  0  0
 42 45  1  0  0  0  0
 43 52  1  0  0  0  0
 44 70  1  0  0  0  0
 45 47  1  0  0  0  0
 46 48  1  0  0  0  0
 46 49  1  0  0  0  0
 47 51  1  0  0  0  0
 48 53  1  0  0  0  0
 49 69  1  0  0  0  0
 50 53  1  0  0  0  0
 50 69  1  0  0  0  0
 51 73  1  0  0  0  0
 52 70  1  0  0  0  0
 53 68  1  0  0  0  0
 54 63  1  0  0  0  0
 55 65  1  0  0  0  0
 56 66  1  0  0  0  0
 57 66  1  0  0  0  0
 58 66  1  0  0  0  0
 59 75  1  0  0  0  0
 60 63  1  0  0  0  0
 61 83  1  0  0  0  0
 62 84  1  0  0  0  0
 64 66  1  0  0  0  0
 64 74  1  0  0  0  0
 65 75  1  0  0  0  0
 67 68  1  0  0  0  0
M  CHG  1  75   1
M  ISO  4  35 100  37 100  62 101  84 101
M  END
> <Batch ID>
0125

> <Smiles>
CCCc1ccc(OCC(=O)[101CH2:1][101O:1]c2ccc3c(c2)CN(C(=O)C(NC(=O)C(C)NC)C(C)(C)C)C(C(=O)NC2CCCc4ccccc42)C3)cc1C=[100CH:0][100C:0](=O)N1CCCC(n2nc(-c3ccc(Oc4ccc(F)cc4F)cc3)c(C(N)=O)c2N)C1

> <Shape>
0.284

> <Color>
0.091

> <Negative vol penalty>
0.000

$$$$

  -OEChem-04052302093D

 86 94  0     1  0  0  0  0  0999 V2000
  -24.6254  -37.8050   18.4992 C   0  0  0  0  0  0  0  0  0  0  0  0
  -24.8867  -36.6025   17.8501 C   0  0  0  0  0  0  0  0  0  0  0  0
  -25.5564   -7.8722   21.7933 C   0  0  0  0  0  0  0  0  0  0  0  0
  -24.3906   -9.6321   20.6183 C   0  0  0  0  0  0  0  0  0  0  0  0
  -24.9529  -37.9542   19.8462 C   0  0  0  0  0  0  0  0  0  0  0  0
  -25.4767  -35.5489   18.5475 C   0  0  0  0  0  0  0  0  0  0  0  0
  -25.5244  -28.3923   18.8579 C   0  0  0  0  0  0  0  0  0  0  0  0
  -24.4380   -7.6712   22.6021 C   0  0  0  0  0  0  0  0  0  0  0  0
  -23.2720   -9.4311   21.4272 C   0  0  0  0  0  0  0  0  0  0  0  0
  -26.4145  -27.3194   18.8414 C   0  0  0  0  0  0  0  0  0  0  0  0
  -21.4343   -6.1370   22.3631 C   0  0  0  0  0  0  0  0  0  0  0  0
  -21.0270   -4.8226   22.5912 C   0  0  0  0  0  0  0  0  0  0  0  0
  -26.8645  -27.6646   21.1861 C   0  0  0  0  0  0  0  0  0  0  0  0
  -28.2387  -16.3253   18.0600 C   0  0  0  0  0  0  0  0  0  0  0  0
  -30.1923  -17.0077   19.3069 C   0  0  0  0  0  0  0  0  0  0  0  0
  -21.3521   -5.1337   24.9649 C   0  0  0  0  0  0  0  0  0  0  0  0
  -25.5328   -8.8527   20.8014 C   0  0  0  0  0  0  0  0  0  0  0  0
  -26.9747   -8.4325   18.7394 C   0  0  0  0  0  0  0  0  0  0  0  0
  -25.5383  -36.8987   20.5629 C   0  0  0  0  0  0  0  0  0  0  0  0
  -25.3054  -29.1174   20.0380 C   0  0  0  0  0  0  0  0  0  0  0  0
  -25.8135  -35.6847   19.9050 C   0  0  0  0  0  0  0  0  0  0  0  0
  -25.9691  -28.7446   21.2155 C   0  0  0  0  0  0  0  0  0  0  0  0
  -27.8608  -17.6607   17.9211 C   0  0  0  0  0  0  0  0  0  0  0  0
  -29.4044  -15.9987   18.7529 C   0  0  0  0  0  0  0  0  0  0  0  0
  -28.6487  -18.6697   18.4751 C   0  0  0  0  0  0  0  0  0  0  0  0
  -23.2958   -8.4507   22.4191 C   0  0  0  0  0  0  0  0  0  0  0  0
  -27.0870  -26.9572   20.0049 C   0  0  0  0  0  0  0  0  0  0  0  0
  -21.8007   -6.9497   23.4360 C   0  0  0  0  0  0  0  0  0  0  0  0
  -20.9859   -4.3209   23.8921 C   0  0  0  0  0  0  0  0  0  0  0  0
  -29.8144  -18.3432   19.1680 C   0  0  0  0  0  0  0  0  0  0  0  0
  -21.7595   -6.4481   24.7369 C   0  0  0  0  0  0  0  0  0  0  0  0
  -26.6880   -9.0611   19.9660 C   0  0  0  0  0  0  0  0  0  0  0  0
  -28.1771   -8.9705   18.3506 C   0  0  0  0  0  0  0  0  0  0  0  0
  -26.2214   -7.4500   18.0162 C   0  0  0  0  0  0  0  0  0  0  0  0
  -25.7489  -32.1356   20.9311 C   0  0  0  0  0  0  0  0  0  0  0  0
  -24.2285  -31.1536   23.6230 C   0  0  0  0  0  0  0  0  0  0  0  0
  -28.5463  -21.0710   19.2274 C   0  0  0  0  0  0  0  0  0  0  0  0
  -23.3720  -28.5770   25.6904 C   0  0  0  0  0  0  0  0  0  0  0  0
  -30.9126  -14.1455   19.5513 C   0  0  0  0  0  0  0  0  0  0  0  0
  -25.9180  -37.1231   22.0052 C   0  0  0  0  0  0  0  0  0  0  0  0
  -24.3218  -30.2554   20.0456 C   0  0  0  0  0  0  0  0  0  0  0  0
  -25.7539  -29.4780   22.5133 C   0  0  0  0  0  0  0  0  0  0  0  0
  -26.1973  -35.8317   22.7696 C   0  0  0  0  0  0  0  0  0  0  0  0
  -32.1851  -10.8748   20.1518 C   0  0  0  0  0  0  0  0  0  0  0  0
  -27.1003  -34.9126   21.9529 C   0  0  0  0  0  0  0  0  0  0  0  0
  -30.9469   -9.9806   20.0546 C   0  0  0  0  0  0  0  0  0  0  0  0
  -31.8638  -12.2198   20.8011 C   0  0  0  0  0  0  0  0  0  0  0  0
  -29.5096  -12.0590   20.0931 C   0  0  0  0  0  0  0  0  0  0  0  0
  -26.4297  -34.5103   20.6338 C   0  0  1  0  0  0  0  0  0  0  0  0
  -24.5635  -31.2465   21.1799 C   0  0  1  0  0  0  0  0  0  0  0  0
  -29.7699  -10.7184   19.3869 C   0  0  2  0  0  0  0  0  0  0  0  0
  -25.4527  -18.3336   18.1083 C   0  0  0  0  0  0  0  0  0  0  0  0
  -22.1588  -28.0899   27.8325 C   0  0  0  0  0  0  0  0  0  0  0  0
  -26.5919  -32.2533   25.2088 C   0  0  0  0  0  0  0  0  0  0  0  0
  -25.8006  -30.9234   27.1769 C   0  0  0  0  0  0  0  0  0  0  0  0
  -24.3517  -32.7146   26.2204 C   0  0  0  0  0  0  0  0  0  0  0  0
  -21.4160  -26.8287   24.3205 C   0  0  0  0  0  0  0  0  0  0  0  0
  -26.6063  -17.9810   17.1747 C   0  0  0  0  0  0  0  0  0  0  0  0
  -27.9699  -22.3783   18.7017 C   0  0  0  0  0  0  0  0  0  0  0  0
  -28.2344  -23.5544   19.6354 C   0  0  0  0  0  0  0  0  0  0  0  0
  -27.6911  -24.8571   19.0666 C   0  0  0  0  0  0  0  0  0  1  0  0
  -24.6641  -30.5572   24.9397 C   0  0  1  0  0  0  0  0  0  0  0  0
  -22.0461  -28.1880   26.3190 C   0  0  2  0  0  0  0  0  0  0  0  0
  -25.3578  -31.5993   25.8617 C   0  0  0  0  0  0  0  0  0  0  0  0
  -27.6323   -9.9319   20.3322 N   0  0  0  0  0  0  0  0  0  0  0  0
  -28.5242   -9.8541   19.3299 N   0  0  0  0  0  0  0  0  0  0  0  0
  -24.7871  -30.5874   22.4683 N   0  0  0  0  0  0  0  0  0  0  0  0
  -30.7419  -12.8627   20.1134 N   0  0  0  0  0  0  0  0  0  0  0  0
  -28.9608   -8.7693   17.2700 N   0  0  0  0  0  0  0  0  0  0  0  0
  -25.0074   -7.0067   18.5584 N   0  0  0  0  0  0  0  0  0  0  0  0
  -28.2799  -20.0296   18.3429 N   0  0  0  0  0  0  0  0  0  0  0  0
  -29.7870  -14.6417   18.8946 N   0  0  0  0  0  0  0  0  0  0  0  0
  -25.4391  -33.4806   20.8639 N   0  0  0  0  0  0  0  0  0  0  0  0
  -23.4764  -29.9415   25.5217 N   0  0  0  0  0  0  0  0  0  0  0  0
  -21.5917  -26.8689   25.7951 N   0  3  0  0  0  0  0  0  0  0  0  0
  -26.6213   -6.9671   16.9297 O   0  0  0  0  0  0  0  0  0  0  0  0
  -26.8624  -31.6384   20.8105 O   0  0  0  0  0  0  0  0  0  0  0  0
  -23.4171  -32.0826   23.6189 O   0  0  0  0  0  0  0  0  0  0  0  0
  -29.1521  -21.0078   20.2919 O   0  0  0  0  0  0  0  0  0  0  0  0
  -24.2308  -27.7531   25.3835 O   0  0  0  0  0  0  0  0  0  0  0  0
  -31.9873  -14.7472   19.6220 O   0  0  0  0  0  0  0  0  0  0  0  0
  -22.2041   -8.2547   23.2080 O   0  0  0  0  0  0  0  0  0  0  0  0
  -27.9569  -25.9108   19.9915 O   0  0  0  0  0  0  0  0  0  1  0  0
  -20.5932   -3.0592   24.1111 F   0  0  0  0  0  0  0  0  0  0  0  0
  -30.5797  -19.3042   19.7050 F   0  0  0  0  0  0  0  0  0  0  0  0
  -22.1091   -7.2245   25.7716 F   0  0  0  0  0  0  0  0  0  0  0  0
  1  2  1  0  0  0  0
  1  5  2  0  0  0  0
  2  6  2  0  0  0  0
  3  8  2  0  0  0  0
  3 17  1  0  0  0  0
  4  9  1  0  0  0  0
  4 17  2  0  0  0  0
  5 19  1  0  0  0  0
  6 21  1  0  0  0  0
  7 10  2  0  0  0  0
  7 20  1  0  0  0  0
  8 26  1  0  0  0  0
  9 26  2  0  0  0  0
 10 27  1  0  0  0  0
 11 12  2  0  0  0  0
 11 28  1  0  0  0  0
 12 29  1  0  0  0  0
 13 22  1  0  0  0  0
 13 27  2  0  0  0  0
 14 23  1  0  0  0  0
 14 24  2  0  0  0  0
 15 24  1  0  0  0  0
 15 30  2  0  0  0  0
 16 29  2  0  0  0  0
 16 31  1  0  0  0  0
 17 32  1  0  0  0  0
 18 32  1  0  0  0  0
 18 33  2  0  0  0  0
 18 34  1  0  0  0  0
 19 21  2  0  0  0  0
 19 40  1  0  0  0  0
 20 22  2  0  0  0  0
 20 41  1  0  0  0  0
 21 49  1  0  0  0  0
 22 42  1  0  0  0  0
 23 25  2  0  0  0  0
 23 58  1  0  0  0  0
 24 72  1  0  0  0  0
 25 30  1  0  0  0  0
 25 71  1  0  0  0  0
 26 82  1  0  0  0  0
 27 83  1  0  0  0  0
 28 31  2  0  0  0  0
 28 82  1  0  0  0  0
 29 84  1  0  0  0  0
 30 85  1  0  0  0  0
 31 86  1  0  0  0  0
 32 65  2  0  0  0  0
 33 66  1  0  0  0  0
 33 69  1  0  0  0  0
 34 70  1  0  0  0  0
 34 76  2  0  0  0  0
 35 50  1  0  0  0  0
 35 73  1  0  0  0  0
 35 77  2  0  0  0  0
 36 62  1  0  0  0  0
 36 67  1  0  0  0  0
 36 78  2  0  0  0  0
 37 59  1  0  0  0  0
 37 71  1  0  0  0  0
 37 79  2  0  0  0  0
 38 63  1  0  0  0  0
 38 74  1  0  0  0  0
 38 80  2  0  0  0  0
 39 68  1  0  0  0  0
 39 72  1  0  0  0  0
 39 81  2  0  0  0  0
 40 43  1  0  0  0  0
 41 50  1  0  0  0  0
 42 67  1  0  0  0  0
 43 45  1  0  0  0  0
 44 46  1  0  0  0  0
 44 47  1  0  0  0  0
 45 49  1  0  0  0  0
 46 51  1  0  0  0  0
 47 68  1  0  0  0  0
 48 51  1  0  0  0  0
 48 68  1  0  0  0  0
 49 73  1  0  0  0  0
 50 67  1  0  0  0  0
 51 66  1  0  0  0  0
 52 58  1  0  0  0  0
 53 63  1  0  0  0  0
 54 64  1  0  0  0  0
 55 64  1  0  0  0  0
 56 64  1  0  0  0  0
 57 75  1  0  0  0  0
 59 60  1  0  0  0  0
 60 61  1  0  0  0  0
 61 83  1  0  0  0  0
 62 64  1  0  0  0  0
 62 74  1  0  0  0  0
 63 75  1  0  0  0  0
 65 66  1  0  0  0  0
M  CHG  1  75   1
M  ISO  4  39 100  61 101  72 100  83 101
M  END
> <Batch ID>
0125

> <Smiles>
CCc1cc([100NH:0][100C:0](=O)N2CCCC(n3nc(-c4ccc(Oc5ccc(F)cc5F)cc4)c(C(N)=O)c3N)C2)cc(F)c1NC(=O)CC[101CH2:1][101O:1]c1ccc2c(c1)CN(C(=O)C(NC(=O)C(C)NC)C(C)(C)C)C(C(=O)NC1CCCc3ccccc31)C2

> <Shape>
0.257

> <Color>
0.108

> <Negative vol penalty>
0.000

$$$$

  -OEChem-04052302093D

 83 91  0     1  0  0  0  0  0999 V2000
  -27.8285  -37.5886   20.5128 C   0  0  0  0  0  0  0  0  0  0  0  0
  -28.3345  -36.2975   20.4016 C   0  0  0  0  0  0  0  0  0  0  0  0
  -25.1312   -9.7949   21.7260 C   0  0  0  0  0  0  0  0  0  0  0  0
  -25.3215  -11.1811   23.6955 C   0  0  0  0  0  0  0  0  0  0  0  0
  -26.7351  -37.8386   21.3411 C   0  0  0  0  0  0  0  0  0  0  0  0
  -27.7482  -35.2558   21.1194 C   0  0  0  0  0  0  0  0  0  0  0  0
  -27.1506  -29.4300   19.3280 C   0  0  0  0  0  0  0  0  0  0  0  0
  -30.2136  -19.3628   24.2587 C   0  0  0  0  0  0  0  0  0  0  0  0
  -25.2060   -8.6525   22.5228 C   0  0  0  0  0  0  0  0  0  0  0  0
  -25.3963  -10.0387   24.4924 C   0  0  0  0  0  0  0  0  0  0  0  0
  -27.8932  -28.2828   19.6043 C   0  0  0  0  0  0  0  0  0  0  0  0
  -30.5597  -20.5408   23.5969 C   0  0  0  0  0  0  0  0  0  0  0  0
  -23.1430   -6.8723   24.5247 C   0  0  0  0  0  0  0  0  0  0  0  0
  -22.2383   -5.8423   24.2677 C   0  0  0  0  0  0  0  0  0  0  0  0
  -26.3439  -27.7107   21.3626 C   0  0  0  0  0  0  0  0  0  0  0  0
  -30.0400  -19.5030   21.4779 C   0  0  0  0  0  0  0  0  0  0  0  0
  -24.0762   -4.3404   23.8166 C   0  0  0  0  0  0  0  0  0  0  0  0
  -25.1890  -11.0592   22.3123 C   0  0  0  0  0  0  0  0  0  0  0  0
  -23.9500  -12.9378   21.1109 C   0  0  0  0  0  0  0  0  0  0  0  0
  -26.1290  -36.7976   22.0620 C   0  0  0  0  0  0  0  0  0  0  0  0
  -26.0033  -29.7323   20.0754 C   0  0  0  0  0  0  0  0  0  0  0  0
  -26.6465  -35.4923   21.9591 C   0  0  0  0  0  0  0  0  0  0  0  0
  -25.5871  -28.8609   21.0921 C   0  0  0  0  0  0  0  0  0  0  0  0
  -29.7809  -18.2548   23.5301 C   0  0  0  0  0  0  0  0  0  0  0  0
  -29.6940  -18.3249   22.1397 C   0  0  0  0  0  0  0  0  0  0  0  0
  -25.3386   -8.7744   23.9060 C   0  0  0  0  0  0  0  0  0  0  0  0
  -27.4916  -27.4245   20.6236 C   0  0  0  0  0  0  0  0  0  0  0  0
  -30.4728  -20.6110   22.2065 C   0  0  0  0  0  0  0  0  0  0  0  0
  -24.5144   -6.6364   24.4276 C   0  0  0  0  0  0  0  0  0  0  0  0
  -22.7048   -4.5763   23.9137 C   0  0  0  0  0  0  0  0  0  0  0  0
  -24.9810   -5.3705   24.0736 C   0  0  0  0  0  0  0  0  0  0  0  0
  -25.1123  -12.2397   21.4897 C   0  0  0  0  0  0  0  0  0  0  0  0
  -24.4096  -13.9755   20.3372 C   0  0  0  0  0  0  0  0  0  0  0  0
  -28.9569  -24.2245   20.0229 C   0  0  0  0  0  0  0  0  0  0  0  0
  -30.0933  -23.5210   20.1328 C   0  0  0  0  0  0  0  0  0  0  0  0
  -22.5777  -12.6722   21.4299 C   0  0  0  0  0  0  0  0  0  0  0  0
  -25.1344  -32.1210   21.9841 C   0  0  0  0  0  0  0  0  0  0  0  0
  -22.2835  -30.5735   21.9763 C   0  0  0  0  0  0  0  0  0  0  0  0
  -20.5751  -27.6499   21.5515 C   0  0  0  0  0  0  0  0  0  0  0  0
  -29.6273  -16.8762   20.0799 C   0  0  0  0  0  0  0  0  0  0  0  0
  -24.9789  -37.1249   22.9811 C   0  0  0  0  0  0  0  0  0  0  0  0
  -25.1982  -30.9597   19.7473 C   0  0  0  0  0  0  0  0  0  0  0  0
  -24.3514  -29.1297   21.9103 C   0  0  0  0  0  0  0  0  0  0  0  0
  -24.1806  -35.8993   23.4181 C   0  0  0  0  0  0  0  0  0  0  0  0
  -28.0138  -15.1555   17.4128 C   0  0  0  0  0  0  0  0  0  0  0  0
  -25.1191  -34.7800   23.8579 C   0  0  0  0  0  0  0  0  0  0  0  0
  -26.9767  -14.2806   18.1208 C   0  0  0  0  0  0  0  0  0  0  0  0
  -29.3084  -15.2633   18.2166 C   0  0  0  0  0  0  0  0  0  0  0  0
  -28.1028  -14.8184   20.3184 C   0  0  0  0  0  0  0  0  0  0  0  0
  -26.0222  -34.3314   22.7027 C   0  0  1  0  0  0  0  0  0  0  0  0
  -24.3351  -31.4370   20.9112 C   0  0  1  0  0  0  0  0  0  0  0  0
  -26.7582  -14.7329   19.5779 C   0  0  2  0  0  0  0  0  0  0  0  0
  -29.4168  -17.0060   24.2656 C   0  0  0  0  0  0  0  0  0  0  0  0
  -18.2584  -26.6901   21.6482 C   0  0  0  0  0  0  0  0  0  0  0  0
  -22.4017  -30.6017   25.0251 C   0  0  0  0  0  0  0  0  0  0  0  0
  -20.6153  -28.8476   25.0411 C   0  0  0  0  0  0  0  0  0  0  0  0
  -20.1460  -31.0943   24.0640 C   0  0  0  0  0  0  0  0  0  0  0  0
  -20.6517  -26.8749   18.6962 C   0  0  0  0  0  0  0  0  0  0  0  0
  -28.9135  -25.7019   19.8071 C   0  0  0  0  0  0  0  0  0  1  0  0
  -30.1372  -22.0419   20.3369 C   0  0  0  0  0  0  0  0  0  0  0  0
  -21.6524  -29.4909   22.8181 C   0  0  1  0  0  0  0  0  0  0  0  0
  -19.3207  -27.3218   20.7620 C   0  0  2  0  0  0  0  0  0  0  0  0
  -21.2283  -30.0043   24.2231 C   0  0  0  0  0  0  0  0  0  0  0  0
  -26.2264  -12.7875   20.9971 N   0  0  0  0  0  0  0  0  0  0  0  0
  -25.7663  -13.8408   20.3007 N   0  0  0  0  0  0  0  0  0  0  0  0
  -23.6014  -30.3458   21.5554 N   0  0  0  0  0  0  0  0  0  0  0  0
  -29.0239  -15.7007   19.5850 N   0  0  0  0  0  0  0  0  0  0  0  0
  -23.7815  -14.9807   19.6912 N   0  0  0  0  0  0  0  0  0  0  0  0
  -22.2815  -11.5652   22.2368 N   0  0  0  0  0  0  0  0  0  0  0  0
  -29.2567  -17.2103   21.3820 N   0  0  0  0  0  0  0  0  0  0  0  0
  -25.2898  -33.4802   21.7898 N   0  0  0  0  0  0  0  0  0  0  0  0
  -20.5561  -28.9445   22.0256 N   0  0  0  0  0  0  0  0  0  0  0  0
  -19.6371  -26.3722   19.6579 N   0  3  0  0  0  0  0  0  0  0  0  0
  -21.6405  -13.3856   20.9984 O   0  0  0  0  0  0  0  0  0  0  0  0
  -25.5760  -31.4644   22.9198 O   0  0  0  0  0  0  0  0  0  0  0  0
  -21.6287  -31.5807   21.6963 O   0  0  0  0  0  0  0  0  0  0  0  0
  -21.4795  -26.8376   21.7328 O   0  0  0  0  0  0  0  0  0  0  0  0
  -30.3937  -17.5525   19.3891 O   0  0  0  0  0  0  0  0  0  0  0  0
  -25.4114   -7.6599   24.6838 O   0  0  0  0  0  0  0  0  0  0  0  0
  -28.2149  -26.3044   20.8958 O   0  0  0  0  0  0  0  0  0  1  0  0
  -30.8129  -21.7690   21.5564 O   0  0  0  0  0  0  0  0  0  0  0  0
  -21.8359   -3.5869   23.6684 F   0  0  0  0  0  0  0  0  0  0  0  0
  -26.2973   -5.1375   23.9798 F   0  0  0  0  0  0  0  0  0  0  0  0
  1  2  1  0  0  0  0
  1  5  2  0  0  0  0
  2  6  2  0  0  0  0
  3  9  2  0  0  0  0
  3 18  1  0  0  0  0
  4 10  1  0  0  0  0
  4 18  2  0  0  0  0
  5 20  1  0  0  0  0
  6 22  1  0  0  0  0
  7 11  2  0  0  0  0
  7 21  1  0  0  0  0
  8 12  2  0  0  0  0
  8 24  1  0  0  0  0
  9 26  1  0  0  0  0
 10 26  2  0  0  0  0
 11 27  1  0  0  0  0
 12 28  1  0  0  0  0
 13 14  2  0  0  0  0
 13 29  1  0  0  0  0
 14 30  1  0  0  0  0
 15 23  1  0  0  0  0
 15 27  2  0  0  0  0
 16 25  1  0  0  0  0
 16 28  2  0  0  0  0
 17 30  2  0  0  0  0
 17 31  1  0  0  0  0
 18 32  1  0  0  0  0
 19 32  1  0  0  0  0
 19 33  2  0  0  0  0
 19 36  1  0  0  0  0
 20 22  2  0  0  0  0
 20 41  1  0  0  0  0
 21 23  2  0  0  0  0
 21 42  1  0  0  0  0
 22 50  1  0  0  0  0
 23 43  1  0  0  0  0
 24 25  2  0  0  0  0
 24 53  1  0  0  0  0
 25 70  1  0  0  0  0
 26 79  1  0  0  0  0
 27 80  1  0  0  0  0
 28 81  1  0  0  0  0
 29 31  2  0  0  0  0
 29 79  1  0  0  0  0
 30 82  1  0  0  0  0
 31 83  1  0  0  0  0
 32 64  2  0  0  0  0
 33 65  1  0  0  0  0
 33 68  1  0  0  0  0
 34 35  2  0  0  0  0
 34 59  1  0  0  0  0
 35 60  1  0  0  0  0
 36 69  1  0  0  0  0
 36 74  2  0  0  0  0
 37 51  1  0  0  0  0
 37 71  1  0  0  0  0
 37 75  2  0  0  0  0
 38 61  1  0  0  0  0
 38 66  1  0  0  0  0
 38 76  2  0  0  0  0
 39 62  1  0  0  0  0
 39 72  1  0  0  0  0
 39 77  2  0  0  0  0
 40 67  1  0  0  0  0
 40 70  1  0  0  0  0
 40 78  2  0  0  0  0
 41 44  1  0  0  0  0
 42 51  1  0  0  0  0
 43 66  1  0  0  0  0
 44 46  1  0  0  0  0
 45 47  1  0  0  0  0
 45 48  1  0  0  0  0
 46 50  1  0  0  0  0
 47 52  1  0  0  0  0
 48 67  1  0  0  0  0
 49 52  1  0  0  0  0
 49 67  1  0  0  0  0
 50 71  1  0  0  0  0
 51 66  1  0  0  0  0
 52 65  1  0  0  0  0
 54 62  1  0  0  0  0
 55 63  1  0  0  0  0
 56 63  1  0  0  0  0
 57 63  1  0  0  0  0
 58 73  1  0  0  0  0
 59 80  1  0  0  0  0
 60 81  1  0  0  0  0
 61 63  1  0  0  0  0
 61 72  1  0  0  0  0
 62 73  1  0  0  0  0
 64 65  1  0  0  0  0
M  CHG  1  73   1
M  ISO  4  40 100  59 101  70 100  80 101
M  END
> <Batch ID>
0125

> <Smiles>
CNC(C)C(=O)NC(C(=O)N1Cc2cc([101O:1][101CH2:1]C=CCOc3ccc(C)c([100NH:0][100C:0](=O)N4CCCC(n5nc(-c6ccc(Oc7ccc(F)cc7F)cc6)c(C(N)=O)c5N)C4)c3)ccc2CC1C(=O)NC1CCCc2ccccc21)C(C)(C)C

> <Shape>
0.296

> <Color>
0.086

> <Negative vol penalty>
0.000

$$$$

  -OEChem-04052302093D

 82 90  0     1  0  0  0  0  0999 V2000
  -15.6575  -25.1860   29.1716 C   0  0  0  0  0  0  0  0  0  0  0  0
  -16.7369  -25.6667   28.4372 C   0  0  0  0  0  0  0  0  0  0  0  0
  -29.7800  -17.3305   19.4618 C   0  0  0  0  0  0  0  0  0  0  0  0
  -27.8351  -17.8678   20.7906 C   0  0  0  0  0  0  0  0  0  0  0  0
  -14.9662  -24.0568   28.7348 C   0  0  0  0  0  0  0  0  0  0  0  0
  -17.1263  -25.0177   27.2660 C   0  0  0  0  0  0  0  0  0  0  0  0
  -18.0753  -28.2445   23.4803 C   0  0  0  0  0  0  0  0  0  0  0  0
  -26.2227  -29.4705   20.9242 C   0  0  0  0  0  0  0  0  0  0  0  0
  -27.2089  -28.4859   20.8644 C   0  0  0  0  0  0  0  0  0  0  0  0
  -29.7551  -16.0253   19.9531 C   0  0  0  0  0  0  0  0  0  0  0  0
  -27.8101  -16.5626   21.2818 C   0  0  0  0  0  0  0  0  0  0  0  0
  -19.2974  -28.9150   23.5064 C   0  0  0  0  0  0  0  0  0  0  0  0
  -28.0202  -13.1804   19.3788 C   0  0  0  0  0  0  0  0  0  0  0  0
  -28.1916  -12.1405   18.4652 C   0  0  0  0  0  0  0  0  0  0  0  0
  -25.9094  -27.2842   19.2198 C   0  0  0  0  0  0  0  0  0  0  0  0
  -20.1844  -27.3484   21.9007 C   0  0  0  0  0  0  0  0  0  0  0  0
  -30.1572  -11.4101   19.6653 C   0  0  0  0  0  0  0  0  0  0  0  0
  -28.8201  -18.2518   19.8806 C   0  0  0  0  0  0  0  0  0  0  0  0
  -24.9232  -28.2688   19.2797 C   0  0  0  0  0  0  0  0  0  0  0  0
  -28.1956  -20.0894   18.2250 C   0  0  0  0  0  0  0  0  0  0  0  0
  -15.3412  -23.3993   27.5525 C   0  0  0  0  0  0  0  0  0  0  0  0
  -17.9017  -27.1125   22.6710 C   0  0  0  0  0  0  0  0  0  0  0  0
  -16.4401  -23.8778   26.8137 C   0  0  0  0  0  0  0  0  0  0  0  0
  -18.9583  -26.6669   21.8641 C   0  0  0  0  0  0  0  0  0  0  0  0
  -25.0798  -29.3619   20.1319 C   0  0  0  0  0  0  0  0  0  0  0  0
  -27.0523  -27.3928   20.0122 C   0  0  0  0  0  0  0  0  0  0  0  0
  -28.7701  -15.6413   20.8630 C   0  0  0  0  0  0  0  0  0  0  0  0
  -20.3531  -28.4653   22.7187 C   0  0  0  0  0  0  0  0  0  0  0  0
  -28.9173  -13.3352   20.4357 C   0  0  0  0  0  0  0  0  0  0  0  0
  -29.2601  -11.2553   18.6084 C   0  0  0  0  0  0  0  0  0  0  0  0
  -29.9858  -12.4501   20.5789 C   0  0  0  0  0  0  0  0  0  0  0  0
  -28.8457  -19.6004   19.3739 C   0  0  0  0  0  0  0  0  0  0  0  0
  -28.5318  -21.4203   18.1804 C   0  0  0  0  0  0  0  0  0  0  0  0
  -22.8890  -27.1168   18.5380 C   0  0  0  0  0  0  0  0  0  0  0  0
  -23.7407  -28.1264   18.4402 C   0  0  0  0  0  0  0  0  0  0  0  0
  -27.3622  -19.4019   17.2823 C   0  0  0  0  0  0  0  0  0  0  0  0
  -17.2305  -24.0524   23.2084 C   0  0  0  0  0  0  0  0  0  0  0  0
  -17.0923  -23.9173   19.9704 C   0  0  0  0  0  0  0  0  0  0  0  0
  -18.0381  -25.2453   16.9723 C   0  0  0  0  0  0  0  0  0  0  0  0
  -29.2488  -26.3491   20.6697 C   0  0  0  0  0  0  0  0  0  0  0  0
  -14.5932  -22.1546   27.1455 C   0  0  0  0  0  0  0  0  0  0  0  0
  -16.5689  -26.4163   22.6339 C   0  0  0  0  0  0  0  0  0  0  0  0
  -18.8169  -25.4686   20.9626 C   0  0  0  0  0  0  0  0  0  0  0  0
  -14.8349  -21.7456   25.6948 C   0  0  0  0  0  0  0  0  0  0  0  0
  -31.9568  -24.0429   20.8286 C   0  0  0  0  0  0  0  0  0  0  0  0
  -16.3240  -21.7943   25.3675 C   0  0  0  0  0  0  0  0  0  0  0  0
  -31.3354  -22.7218   20.3698 C   0  0  0  0  0  0  0  0  0  0  0  0
  -30.9802  -24.8694   21.6635 C   0  0  0  0  0  0  0  0  0  0  0  0
  -29.0526  -23.7862   20.5772 C   0  0  0  0  0  0  0  0  0  0  0  0
  -16.8772  -23.2158   25.5250 C   0  0  1  0  0  0  0  0  0  0  0  0
  -16.6638  -24.9689   22.1613 C   0  0  1  0  0  0  0  0  0  0  0  0
  -29.9766  -22.9483   19.6784 C   0  0  2  0  0  0  0  0  0  0  0  0
  -17.7985  -24.8945   14.4990 C   0  0  0  0  0  0  0  0  0  0  0  0
  -19.0881  -21.6133   20.1063 C   0  0  0  0  0  0  0  0  0  0  0  0
  -19.5257  -21.9402   17.6629 C   0  0  0  0  0  0  0  0  0  0  0  0
  -17.2451  -21.3003   18.4451 C   0  0  0  0  0  0  0  0  0  0  0  0
  -16.7312  -27.8756   16.6085 C   0  0  0  0  0  0  0  0  0  0  0  0
  -24.0345  -30.4448   20.2229 C   0  0  0  0  0  0  0  0  0  0  0  0
  -23.1661  -30.3586   21.4799 C   0  0  0  0  0  0  0  0  0  0  0  0
  -22.3280  -29.0873   21.5488 C   0  0  0  0  0  0  0  0  0  1  0  0
  -18.0877  -23.6461   18.8683 C   0  0  1  0  0  0  0  0  0  0  0  0
  -17.2406  -25.5941   15.7286 C   0  0  2  0  0  0  0  0  0  0  0  0
  -18.4903  -22.1464   18.7890 C   0  0  0  0  0  0  0  0  0  0  0  0
  -29.5424  -20.5439   20.0130 N   0  0  0  0  0  0  0  0  0  0  0  0
  -29.3320  -21.6391   19.2630 N   0  0  0  0  0  0  0  0  0  0  0  0
  -17.4962  -24.8180   20.9661 N   0  0  0  0  0  0  0  0  0  0  0  0
  -29.7173  -25.0466   20.9434 N   0  0  0  0  0  0  0  0  0  0  0  0
  -28.2182  -22.4131   17.3212 N   0  0  0  0  0  0  0  0  0  0  0  0
  -27.1190  -18.0355   17.4776 N   0  0  0  0  0  0  0  0  0  0  0  0
  -28.0545  -26.3930   19.9511 N   0  0  0  0  0  0  0  0  0  0  0  0
  -16.5090  -24.0304   24.3868 N   0  0  0  0  0  0  0  0  0  0  0  0
  -17.4936  -24.1709   17.6435 N   0  0  0  0  0  0  0  0  0  0  0  0
  -17.2730  -27.0645   15.4880 N   0  3  0  0  0  0  0  0  0  0  0  0
  -26.8617  -19.9785   16.2870 O   0  0  0  0  0  0  0  0  0  0  0  0
  -18.2461  -23.4115   22.9648 O   0  0  0  0  0  0  0  0  0  0  0  0
  -15.9941  -23.3562   19.9449 O   0  0  0  0  0  0  0  0  0  0  0  0
  -19.0456  -25.8616   17.3121 O   0  0  0  0  0  0  0  0  0  0  0  0
  -29.8758  -27.3516   21.0215 O   0  0  0  0  0  0  0  0  0  0  0  0
  -28.7453  -14.3677   21.3424 O   0  0  0  0  0  0  0  0  0  0  0  0
  -21.5472  -29.1175   22.7429 O   0  0  0  0  0  0  0  0  0  1  0  0
  -29.4237  -10.2558   17.7318 F   0  0  0  0  0  0  0  0  0  0  0  0
  -30.8502  -12.5930   21.5929 F   0  0  0  0  0  0  0  0  0  0  0  0
  1  2  1  0  0  0  0
  1  5  2  0  0  0  0
  2  6  2  0  0  0  0
  3 10  2  0  0  0  0
  3 18  1  0  0  0  0
  4 11  1  0  0  0  0
  4 18  2  0  0  0  0
  5 21  1  0  0  0  0
  6 23  1  0  0  0  0
  7 12  2  0  0  0  0
  7 22  1  0  0  0  0
  8  9  2  0  0  0  0
  8 25  1  0  0  0  0
  9 26  1  0  0  0  0
 10 27  1  0  0  0  0
 11 27  2  0  0  0  0
 12 28  1  0  0  0  0
 13 14  2  0  0  0  0
 13 29  1  0  0  0  0
 14 30  1  0  0  0  0
 15 19  1  0  0  0  0
 15 26  2  0  0  0  0
 16 24  1  0  0  0  0
 16 28  2  0  0  0  0
 17 30  2  0  0  0  0
 17 31  1  0  0  0  0
 18 32  1  0  0  0  0
 19 25  2  0  0  0  0
 19 35  1  0  0  0  0
 20 32  1  0  0  0  0
 20 33  2  0  0  0  0
 20 36  1  0  0  0  0
 21 23  2  0  0  0  0
 21 41  1  0  0  0  0
 22 24  2  0  0  0  0
 22 42  1  0  0  0  0
 23 50  1  0  0  0  0
 24 43  1  0  0  0  0
 25 58  1  0  0  0  0
 26 70  1  0  0  0  0
 27 79  1  0  0  0  0
 28 80  1  0  0  0  0
 29 31  2  0  0  0  0
 29 79  1  0  0  0  0
 30 81  1  0  0  0  0
 31 82  1  0  0  0  0
 32 64  2  0  0  0  0
 33 65  1  0  0  0  0
 33 68  1  0  0  0  0
 34 35  2  0  0  0  0
 36 69  1  0  0  0  0
 36 74  2  0  0  0  0
 37 51  1  0  0  0  0
 37 71  1  0  0  0  0
 37 75  2  0  0  0  0
 38 61  1  0  0  0  0
 38 66  1  0  0  0  0
 38 76  2  0  0  0  0
 39 62  1  0  0  0  0
 39 72  1  0  0  0  0
 39 77  2  0  0  0  0
 40 67  1  0  0  0  0
 40 70  1  0  0  0  0
 40 78  2  0  0  0  0
 41 44  1  0  0  0  0
 42 51  1  0  0  0  0
 43 66  1  0  0  0  0
 44 46  1  0  0  0  0
 45 47  1  0  0  0  0
 45 48  1  0  0  0  0
 46 50  1  0  0  0  0
 47 52  1  0  0  0  0
 48 67  1  0  0  0  0
 49 52  1  0  0  0  0
 49 67  1  0  0  0  0
 50 71  1  0  0  0  0
 51 66  1  0  0  0  0
 52 65  1  0  0  0  0
 53 62  1  0  0  0  0
 54 63  1  0  0  0  0
 55 63  1  0  0  0  0
 56 63  1  0  0  0  0
 57 73  1  0  0  0  0
 58 59  1  0  0  0  0
 59 60  1  0  0  0  0
 60 80  1  0  0  0  0
 61 63  1  0  0  0  0
 61 72  1  0  0  0  0
 62 73  1  0  0  0  0
 64 65  1  0  0  0  0
M  CHG  1  73   1
M  ISO  4  40 100  60 101  70 100  80 101
M  END
> <Batch ID>
0125

> <Smiles>
C=Cc1cc([100NH:0][100C:0](=O)N2CCCC(n3nc(-c4ccc(Oc5ccc(F)cc5F)cc4)c(C(N)=O)c3N)C2)ccc1CC[101CH2:1][101O:1]c1ccc2c(c1)CN(C(=O)C(NC(=O)C(C)NC)C(C)(C)C)C(C(=O)NC1CCCc3ccccc31)C2

> <Shape>
0.244

> <Color>
0.073

> <Negative vol penalty>
0.000

$$$$

  -OEChem-04052302093D

 86 94  0     1  0  0  0  0  0999 V2000
  -17.3865  -27.4334   22.9549 C   0  0  0  0  0  0  0  0  0  0  0  0
  -18.3037  -27.3428   21.9128 C   0  0  0  0  0  0  0  0  0  0  0  0
  -26.7519  -12.6479   21.5923 C   0  0  0  0  0  0  0  0  0  0  0  0
  -26.3019  -13.7345   19.4818 C   0  0  0  0  0  0  0  0  0  0  0  0
  -17.3071  -28.6012   23.7125 C   0  0  0  0  0  0  0  0  0  0  0  0
  -19.1412  -28.4205   21.6270 C   0  0  0  0  0  0  0  0  0  0  0  0
  -23.9355  -26.9971   20.8310 C   0  0  0  0  0  0  0  0  0  0  0  0
  -25.4429  -12.1670   21.6238 C   0  0  0  0  0  0  0  0  0  0  0  0
  -24.9929  -13.2535   19.5133 C   0  0  0  0  0  0  0  0  0  0  0  0
  -24.2370  -26.4423   19.5880 C   0  0  0  0  0  0  0  0  0  0  0  0
  -23.6744   -9.6623   20.1985 C   0  0  0  0  0  0  0  0  0  0  0  0
  -23.4831   -8.3259   20.5493 C   0  0  0  0  0  0  0  0  0  0  0  0
  -25.1357  -28.5617   18.8669 C   0  0  0  0  0  0  0  0  0  0  0  0
  -29.4878  -20.9934   17.6590 C   0  0  0  0  0  0  0  0  0  0  0  0
  -29.9990  -22.4591   19.5104 C   0  0  0  0  0  0  0  0  0  0  0  0
  -22.1347   -9.0133   22.4325 C   0  0  0  0  0  0  0  0  0  0  0  0
  -27.1813  -13.4317   20.5213 C   0  0  0  0  0  0  0  0  0  0  0  0
  -29.0693  -23.3655   17.4730 C   0  0  0  0  0  0  0  0  0  0  0  0
  -29.6577  -13.2983   19.9236 C   0  0  0  0  0  0  0  0  0  0  0  0
  -18.1507  -29.6901   23.4420 C   0  0  0  0  0  0  0  0  0  0  0  0
  -24.2224  -28.3435   21.0981 C   0  0  0  0  0  0  0  0  0  0  0  0
  -19.0720  -29.6044   22.3808 C   0  0  0  0  0  0  0  0  0  0  0  0
  -24.8392  -29.1304   20.1150 C   0  0  0  0  0  0  0  0  0  0  0  0
  -29.0384  -22.0862   16.9179 C   0  0  0  0  0  0  0  0  0  0  0  0
  -29.5496  -23.5520   18.7692 C   0  0  0  0  0  0  0  0  0  0  0  0
  -29.9681  -21.1798   18.9553 C   0  0  0  0  0  0  0  0  0  0  0  0
  -24.5635  -12.4698   20.5843 C   0  0  0  0  0  0  0  0  0  0  0  0
  -24.8345  -27.2254   18.6047 C   0  0  0  0  0  0  0  0  0  0  0  0
  -23.0960  -10.6742   20.9647 C   0  0  0  0  0  0  0  0  0  0  0  0
  -22.7132   -8.0014   21.6663 C   0  0  0  0  0  0  0  0  0  0  0  0
  -22.3261  -10.3497   22.0817 C   0  0  0  0  0  0  0  0  0  0  0  0
  -28.5332  -13.9293   20.4884 C   0  0  0  0  0  0  0  0  0  0  0  0
  -30.6925  -14.1722   20.1519 C   0  0  0  0  0  0  0  0  0  0  0  0
  -28.5978  -24.5201   16.6904 C   0  0  0  0  0  0  0  0  0  0  0  0
  -27.3327  -24.9674   16.6582 C   0  0  0  0  0  0  0  0  0  0  0  0
  -29.7580  -12.0353   19.2525 C   0  0  0  0  0  0  0  0  0  0  0  0
  -22.4877  -30.9033   21.8343 C   0  0  0  0  0  0  0  0  0  0  0  0
  -25.3981  -32.2886   22.1988 C   0  0  0  0  0  0  0  0  0  0  0  0
  -28.7200  -32.2996   21.4164 C   0  0  0  0  0  0  0  0  0  0  0  0
  -30.9321  -20.0812   21.0072 C   0  0  0  0  0  0  0  0  0  0  0  0
  -17.9954  -30.9489   24.2581 C   0  0  0  0  0  0  0  0  0  0  0  0
  -23.9153  -28.9196   22.4531 C   0  0  0  0  0  0  0  0  0  0  0  0
  -25.1861  -30.5757   20.3585 C   0  0  0  0  0  0  0  0  0  0  0  0
  -19.1769  -31.9072   24.1304 C   0  0  0  0  0  0  0  0  0  0  0  0
  -32.1260  -17.5593   23.2189 C   0  0  0  0  0  0  0  0  0  0  0  0
  -19.5704  -32.0774   22.6665 C   0  0  0  0  0  0  0  0  0  0  0  0
  -31.4472  -16.2838   22.7146 C   0  0  0  0  0  0  0  0  0  0  0  0
  -31.2075  -18.7745   23.1028 C   0  0  0  0  0  0  0  0  0  0  0  0
  -29.9530  -17.7168   21.2652 C   0  0  0  0  0  0  0  0  0  0  0  0
  -20.0147  -30.7428   22.0559 C   0  0  1  0  0  0  0  0  0  0  0  0
  -23.7821  -30.4393   22.4400 C   0  0  1  0  0  0  0  0  0  0  0  0
  -30.8622  -16.4776   21.3019 C   0  0  2  0  0  0  0  0  0  0  0  0
  -29.6597  -21.6249   14.5330 C   0  0  0  0  0  0  0  0  0  0  0  0
  -28.5339  -26.4764   21.0760 C   0  0  0  0  0  0  0  0  0  0  0  0
  -30.8386  -33.5772   21.8369 C   0  0  0  0  0  0  0  0  0  0  0  0
  -24.4630  -34.4668   20.2776 C   0  0  0  0  0  0  0  0  0  0  0  0
  -26.8553  -35.1499   19.9979 C   0  0  0  0  0  0  0  0  0  0  0  0
  -25.7718  -35.2981   22.2399 C   0  0  0  0  0  0  0  0  0  0  0  0
  -30.0273  -29.9511   22.6552 C   0  0  0  0  0  0  0  0  0  0  0  0
  -28.5292  -21.8450   15.5327 C   0  0  0  0  0  0  0  0  0  0  0  0
  -29.5990  -24.9069   19.4001 C   0  0  0  0  0  0  0  0  0  0  0  0
  -26.8911  -26.1453   15.8333 C   0  0  0  0  0  0  0  0  0  0  0  0
  -28.4626  -25.1108   20.4113 C   0  0  0  0  0  0  0  0  0  0  0  0
  -26.2516  -27.2279   16.6948 C   0  0  0  0  0  0  0  0  0  1  0  0
  -26.3517  -33.0275   21.2911 C   0  0  1  0  0  0  0  0  0  0  0  0
  -29.9590  -32.4203   22.2852 C   0  0  2  0  0  0  0  0  0  0  0  0
  -25.8523  -34.4589   20.9461 C   0  0  0  0  0  0  0  0  0  0  0  0
  -28.8259  -15.1125   21.0346 N   0  0  0  0  0  0  0  0  0  0  0  0
  -30.1462  -15.2320   20.8141 N   0  0  0  0  0  0  0  0  0  0  0  0
  -24.8604  -31.0948   21.6972 N   0  0  0  0  0  0  0  0  0  0  0  0
  -30.6946  -18.8970   21.7365 N   0  0  0  0  0  0  0  0  0  0  0  0
  -32.0073  -14.1297   19.8488 N   0  0  0  0  0  0  0  0  0  0  0  0
  -28.5974  -11.2638   19.1036 N   0  0  0  0  0  0  0  0  0  0  0  0
  -30.4251  -20.0698   19.7082 N   0  0  0  0  0  0  0  0  0  0  0  0
  -21.3622  -30.4196   22.4735 N   0  0  0  0  0  0  0  0  0  0  0  0
  -27.6530  -32.9912   21.9497 N   0  0  0  0  0  0  0  0  0  0  0  0
  -30.7619  -31.1666   22.2194 N   0  3  0  0  0  0  0  0  0  0  0  0
  -30.8477  -11.5962   18.8128 O   0  0  0  0  0  0  0  0  0  0  0  0
  -22.5087  -31.6463   20.8601 O   0  0  0  0  0  0  0  0  0  0  0  0
  -25.1454  -32.7498   23.3146 O   0  0  0  0  0  0  0  0  0  0  0  0
  -28.7016  -31.6591   20.3676 O   0  0  0  0  0  0  0  0  0  0  0  0
  -31.5641  -21.0246   21.4894 O   0  0  0  0  0  0  0  0  0  0  0  0
  -23.2862  -12.0005   20.6147 O   0  0  0  0  0  0  0  0  0  0  0  0
  -25.1293  -26.6867   17.3903 O   0  0  0  0  0  0  0  0  0  1  0  0
  -22.5283   -6.7180   22.0021 F   0  0  0  0  0  0  0  0  0  0  0  0
  -21.7668  -11.3175   22.8209 F   0  0  0  0  0  0  0  0  0  0  0  0
  1  2  1  0  0  0  0
  1  5  2  0  0  0  0
  2  6  2  0  0  0  0
  3  8  2  0  0  0  0
  3 17  1  0  0  0  0
  4  9  1  0  0  0  0
  4 17  2  0  0  0  0
  5 20  1  0  0  0  0
  6 22  1  0  0  0  0
  7 10  2  0  0  0  0
  7 21  1  0  0  0  0
  8 27  1  0  0  0  0
  9 27  2  0  0  0  0
 10 28  1  0  0  0  0
 11 12  2  0  0  0  0
 11 29  1  0  0  0  0
 12 30  1  0  0  0  0
 13 23  1  0  0  0  0
 13 28  2  0  0  0  0
 14 24  2  0  0  0  0
 14 26  1  0  0  0  0
 15 25  1  0  0  0  0
 15 26  2  0  0  0  0
 16 30  2  0  0  0  0
 16 31  1  0  0  0  0
 17 32  1  0  0  0  0
 18 24  1  0  0  0  0
 18 25  2  0  0  0  0
 18 34  1  0  0  0  0
 19 32  1  0  0  0  0
 19 33  2  0  0  0  0
 19 36  1  0  0  0  0
 20 22  2  0  0  0  0
 20 41  1  0  0  0  0
 21 23  2  0  0  0  0
 21 42  1  0  0  0  0
 22 50  1  0  0  0  0
 23 43  1  0  0  0  0
 24 60  1  0  0  0  0
 25 61  1  0  0  0  0
 26 74  1  0  0  0  0
 27 83  1  0  0  0  0
 28 84  1  0  0  0  0
 29 31  2  0  0  0  0
 29 83  1  0  0  0  0
 30 85  1  0  0  0  0
 31 86  1  0  0  0  0
 32 68  2  0  0  0  0
 33 69  1  0  0  0  0
 33 72  1  0  0  0  0
 34 35  2  0  0  0  0
 35 62  1  0  0  0  0
 36 73  1  0  0  0  0
 36 78  2  0  0  0  0
 37 51  1  0  0  0  0
 37 75  1  0  0  0  0
 37 79  2  0  0  0  0
 38 65  1  0  0  0  0
 38 70  1  0  0  0  0
 38 80  2  0  0  0  0
 39 66  1  0  0  0  0
 39 76  1  0  0  0  0
 39 81  2  0  0  0  0
 40 71  1  0  0  0  0
 40 74  1  0  0  0  0
 40 82  2  0  0  0  0
 41 44  1  0  0  0  0
 42 51  1  0  0  0  0
 43 70  1  0  0  0  0
 44 46  1  0  0  0  0
 45 47  1  0  0  0  0
 45 48  1  0  0  0  0
 46 50  1  0  0  0  0
 47 52  1  0  0  0  0
 48 71  1  0  0  0  0
 49 52  1  0  0  0  0
 49 71  1  0  0  0  0
 50 75  1  0  0  0  0
 51 70  1  0  0  0  0
 52 69  1  0  0  0  0
 53 60  1  0  0  0  0
 54 63  1  0  0  0  0
 55 66  1  0  0  0  0
 56 67  1  0  0  0  0
 57 67  1  0  0  0  0
 58 67  1  0  0  0  0
 59 77  1  0  0  0  0
 61 63  1  0  0  0  0
 62 64  1  0  0  0  0
 64 84  1  0  0  0  0
 65 67  1  0  0  0  0
 65 76  1  0  0  0  0
 66 77  1  0  0  0  0
 68 69  1  0  0  0  0
M  CHG  1  77   1
M  ISO  4  40 100  64 101  74 100  84 101
M  END
> <Batch ID>
0125

> <Smiles>
CCCc1cc([100NH:0][100C:0](=O)N2CCCC(n3nc(-c4ccc(Oc5ccc(F)cc5F)cc4)c(C(N)=O)c3N)C2)cc(CC)c1C=CC[101CH2:1][101O:1]c1ccc2c(c1)CN(C(=O)C(NC(=O)C(C)NC)C(C)(C)C)C(C(=O)NC1CCCc3ccccc31)C2

> <Shape>
0.319

> <Color>
0.072

> <Negative vol penalty>
0.000

$$$$

  -OEChem-04052302093D

 83 91  0     1  0  0  0  0  0999 V2000
  -21.8274  -11.3996   19.6004 C   0  0  0  0  0  0  0  0  0  0  0  0
  -21.5485  -12.7019   20.0025 C   0  0  0  0  0  0  0  0  0  0  0  0
  -29.5684  -26.2714   21.5346 C   0  0  0  0  0  0  0  0  0  0  0  0
  -27.7665  -24.6887   21.8265 C   0  0  0  0  0  0  0  0  0  0  0  0
  -23.1193  -10.8921   19.7322 C   0  0  0  0  0  0  0  0  0  0  0  0
  -22.5612  -13.4972   20.5377 C   0  0  0  0  0  0  0  0  0  0  0  0
  -23.2366  -19.5465   19.8631 C   0  0  0  0  0  0  0  0  0  0  0  0
  -30.4122  -25.4483   22.2804 C   0  0  0  0  0  0  0  0  0  0  0  0
  -28.6102  -23.8656   22.5723 C   0  0  0  0  0  0  0  0  0  0  0  0
  -22.9033  -20.6246   20.6819 C   0  0  0  0  0  0  0  0  0  0  0  0
  -29.8254  -23.7462   25.7251 C   0  0  0  0  0  0  0  0  0  0  0  0
  -29.3230  -23.2052   26.9084 C   0  0  0  0  0  0  0  0  0  0  0  0
  -25.1538  -20.6535   21.5498 C   0  0  0  0  0  0  0  0  0  0  0  0
  -17.8406  -29.0186   22.3578 C   0  0  0  0  0  0  0  0  0  0  0  0
  -18.6217  -26.9153   23.2537 C   0  0  0  0  0  0  0  0  0  0  0  0
  -29.6836  -20.9783   26.0435 C   0  0  0  0  0  0  0  0  0  0  0  0
  -28.2455  -25.8916   21.3076 C   0  0  0  0  0  0  0  0  0  0  0  0
  -27.1716  -26.7140   19.1448 C   0  0  0  0  0  0  0  0  0  0  0  0
  -24.1505  -11.6847   20.2603 C   0  0  0  0  0  0  0  0  0  0  0  0
  -24.5302  -19.0059   19.8896 C   0  0  0  0  0  0  0  0  0  0  0  0
  -23.8678  -12.9993   20.6779 C   0  0  0  0  0  0  0  0  0  0  0  0
  -25.5017  -19.5702   20.7285 C   0  0  0  0  0  0  0  0  0  0  0  0
  -17.5714  -27.7670   22.9115 C   0  0  0  0  0  0  0  0  0  0  0  0
  -19.1601  -29.4185   22.1464 C   0  0  0  0  0  0  0  0  0  0  0  0
  -19.9412  -27.3152   23.0423 C   0  0  0  0  0  0  0  0  0  0  0  0
  -20.2104  -28.5668   22.4886 C   0  0  0  0  0  0  0  0  0  0  0  0
  -29.9331  -24.2454   22.7992 C   0  0  0  0  0  0  0  0  0  0  0  0
  -23.8611  -21.1764   21.5275 C   0  0  0  0  0  0  0  0  0  0  0  0
  -30.2569  -22.9033   24.7008 C   0  0  0  0  0  0  0  0  0  0  0  0
  -29.2521  -21.8212   27.0677 C   0  0  0  0  0  0  0  0  0  0  0  0
  -30.1860  -21.5193   24.8601 C   0  0  0  0  0  0  0  0  0  0  0  0
  -27.3733  -26.7416   20.5378 C   0  0  0  0  0  0  0  0  0  0  0  0
  -26.2566  -27.7113   18.9105 C   0  0  0  0  0  0  0  0  0  0  0  0
  -27.7587  -25.8630   18.1515 C   0  0  0  0  0  0  0  0  0  0  0  0
  -25.7621  -16.1715   20.6326 C   0  0  0  0  0  0  0  0  0  0  0  0
  -28.5096  -17.5189   19.5566 C   0  0  0  0  0  0  0  0  0  0  0  0
  -30.2965  -20.3614   18.9448 C   0  0  0  0  0  0  0  0  0  0  0  0
  -22.0537  -30.2734   22.2981 C   0  0  0  0  0  0  0  0  0  0  0  0
  -25.5206  -11.0767   20.4272 C   0  0  0  0  0  0  0  0  0  0  0  0
  -24.8812  -17.8600   18.9807 C   0  0  0  0  0  0  0  0  0  0  0  0
  -26.9104  -19.0396   20.7795 C   0  0  0  0  0  0  0  0  0  0  0  0
  -26.6213  -12.1091   20.6566 C   0  0  0  0  0  0  0  0  0  0  0  0
  -24.7615  -31.9092   20.6644 C   0  0  0  0  0  0  0  0  0  0  0  0
  -26.1865  -13.1294   21.7039 C   0  0  0  0  0  0  0  0  0  0  0  0
  -25.7174  -30.7664   20.3143 C   0  0  0  0  0  0  0  0  0  0  0  0
  -24.0789  -31.6848   22.0125 C   0  0  0  0  0  0  0  0  0  0  0  0
  -24.3603  -29.2458   21.8087 C   0  0  0  0  0  0  0  0  0  0  0  0
  -24.9452  -13.9012   21.2401 C   0  0  1  0  0  0  0  0  0  0  0  0
  -26.0866  -17.0604   19.4655 C   0  0  1  0  0  0  0  0  0  0  0  0
  -25.0226  -29.3954   20.4294 C   0  0  2  0  0  0  0  0  0  0  0  0
  -16.1608  -27.3392   23.1372 C   0  0  0  0  0  0  0  0  0  0  0  0
  -19.4167  -30.7652   21.5510 C   0  0  0  0  0  0  0  0  0  0  0  0
  -32.1855  -21.7915   18.1177 C   0  0  0  0  0  0  0  0  0  0  0  0
  -29.7890  -16.7306   22.2121 C   0  0  0  0  0  0  0  0  0  0  0  0
  -31.6505  -18.3277   21.7097 C   0  0  0  0  0  0  0  0  0  0  0  0
  -31.2431  -16.3778   20.2081 C   0  0  0  0  0  0  0  0  0  0  0  0
  -29.0807  -20.6166   16.2586 C   0  0  0  0  0  0  0  0  0  0  0  0
  -21.0550  -26.3726   23.4230 C   0  0  0  0  0  0  0  0  0  0  0  0
  -21.2538  -25.2180   22.4348 C   0  0  0  0  0  0  0  0  0  0  0  0
  -22.3351  -24.2309   22.8771 C   0  0  0  0  0  0  0  0  0  0  0  0
  -22.5318  -23.1214   21.8530 C   0  0  0  0  0  0  0  0  0  1  0  0
  -29.6247  -18.3201   20.1842 C   0  0  1  0  0  0  0  0  0  0  0  0
  -31.0891  -20.8112   17.7307 C   0  0  2  0  0  0  0  0  0  0  0  0
  -30.5498  -17.4480   21.0792 C   0  0  0  0  0  0  0  0  0  0  0  0
  -26.6452  -27.6820   21.1457 N   0  0  0  0  0  0  0  0  0  0  0  0
  -25.9771  -28.2546   20.1299 N   0  0  0  0  0  0  0  0  0  0  0  0
  -27.2030  -17.9142   19.8765 N   0  0  0  0  0  0  0  0  0  0  0  0
  -23.4389  -30.3679   22.0468 N   0  0  0  0  0  0  0  0  0  0  0  0
  -25.6721  -28.1676   17.7825 N   0  0  0  0  0  0  0  0  0  0  0  0
  -28.6803  -24.8911   18.5644 N   0  0  0  0  0  0  0  0  0  0  0  0
  -21.5508  -28.9729   22.2741 N   0  0  0  0  0  0  0  0  0  0  0  0
  -25.3119  -14.9150   20.2747 N   0  0  0  0  0  0  0  0  0  0  0  0
  -30.3138  -18.9899   19.0865 N   0  0  0  0  0  0  0  0  0  0  0  0
  -30.1919  -21.4753   16.7433 N   0  3  0  0  0  0  0  0  0  0  0  0
  -27.4870  -25.9724   16.9318 O   0  0  0  0  0  0  0  0  0  0  0  0
  -25.9106  -16.5937   21.7734 O   0  0  0  0  0  0  0  0  0  0  0  0
  -28.7877  -16.5816   18.8045 O   0  0  0  0  0  0  0  0  0  0  0  0
  -29.7228  -21.1482   19.6946 O   0  0  0  0  0  0  0  0  0  0  0  0
  -21.3594  -31.2746   22.4915 O   0  0  0  0  0  0  0  0  0  0  0  0
  -30.7562  -23.4419   23.5269 O   0  0  0  0  0  0  0  0  0  0  0  0
  -23.5383  -22.2283   22.3282 O   0  0  0  0  0  0  0  0  0  1  0  0
  -28.7710  -21.3018   28.2048 F   0  0  0  0  0  0  0  0  0  0  0  0
  -30.6001  -20.7045   23.8801 F   0  0  0  0  0  0  0  0  0  0  0  0
  1  2  1  0  0  0  0
  1  5  2  0  0  0  0
  2  6  2  0  0  0  0
  3  8  2  0  0  0  0
  3 17  1  0  0  0  0
  4  9  1  0  0  0  0
  4 17  2  0  0  0  0
  5 19  1  0  0  0  0
  6 21  1  0  0  0  0
  7 10  2  0  0  0  0
  7 20  1  0  0  0  0
  8 27  1  0  0  0  0
  9 27  2  0  0  0  0
 10 28  1  0  0  0  0
 11 12  2  0  0  0  0
 11 29  1  0  0  0  0
 12 30  1  0  0  0  0
 13 22  1  0  0  0  0
 13 28  2  0  0  0  0
 14 23  1  0  0  0  0
 14 24  2  0  0  0  0
 15 23  2  0  0  0  0
 15 25  1  0  0  0  0
 16 30  2  0  0  0  0
 16 31  1  0  0  0  0
 17 32  1  0  0  0  0
 18 32  1  0  0  0  0
 18 33  2  0  0  0  0
 18 34  1  0  0  0  0
 19 21  2  0  0  0  0
 19 39  1  0  0  0  0
 20 22  2  0  0  0  0
 20 40  1  0  0  0  0
 21 48  1  0  0  0  0
 22 41  1  0  0  0  0
 23 51  1  0  0  0  0
 24 26  1  0  0  0  0
 24 52  1  0  0  0  0
 25 26  2  0  0  0  0
 25 58  1  0  0  0  0
 26 71  1  0  0  0  0
 27 80  1  0  0  0  0
 28 81  1  0  0  0  0
 29 31  2  0  0  0  0
 29 80  1  0  0  0  0
 30 82  1  0  0  0  0
 31 83  1  0  0  0  0
 32 65  2  0  0  0  0
 33 66  1  0  0  0  0
 33 69  1  0  0  0  0
 34 70  1  0  0  0  0
 34 75  2  0  0  0  0
 35 49  1  0  0  0  0
 35 72  1  0  0  0  0
 35 76  2  0  0  0  0
 36 62  1  0  0  0  0
 36 67  1  0  0  0  0
 36 77  2  0  0  0  0
 37 63  1  0  0  0  0
 37 73  1  0  0  0  0
 37 78  2  0  0  0  0
 38 68  1  0  0  0  0
 38 71  1  0  0  0  0
 38 79  2  0  0  0  0
 39 42  1  0  0  0  0
 40 49  1  0  0  0  0
 41 67  1  0  0  0  0
 42 44  1  0  0  0  0
 43 45  1  0  0  0  0
 43 46  1  0  0  0  0
 44 48  1  0  0  0  0
 45 50  1  0  0  0  0
 46 68  1  0  0  0  0
 47 50  1  0  0  0  0
 47 68  1  0  0  0  0
 48 72  1  0  0  0  0
 49 67  1  0  0  0  0
 50 66  1  0  0  0  0
 53 63  1  0  0  0  0
 54 64  1  0  0  0  0
 55 64  1  0  0  0  0
 56 64  1  0  0  0  0
 57 74  1  0  0  0  0
 58 59  1  0  0  0  0
 59 60  1  0  0  0  0
 60 61  1  0  0  0  0
 61 81  1  0  0  0  0
 62 64  1  0  0  0  0
 62 73  1  0  0  0  0
 63 74  1  0  0  0  0
 65 66  1  0  0  0  0
M  CHG  1  74   1
M  ISO  4  38 100  61 101  71 100  81 101
M  END
> <Batch ID>
0125

> <Smiles>
CNC(C)C(=O)NC(C(=O)N1Cc2cc([101O:1][101CH2:1]CCCc3cc(C)cc(C)c3[100NH:0][100C:0](=O)N3CCCC(n4nc(-c5ccc(Oc6ccc(F)cc6F)cc5)c(C(N)=O)c4N)C3)ccc2CC1C(=O)NC1CCCc2ccccc21)C(C)(C)C

> <Shape>
0.238

> <Color>
0.101

> <Negative vol penalty>
0.000

$$$$

  -OEChem-04052302093D

 80 88  0     1  0  0  0  0  0999 V2000
  -19.0362  -24.5383   21.9584 C   0  0  0  0  0  0  0  0  0  0  0  0
  -20.2700  -24.8192   21.3801 C   0  0  0  0  0  0  0  0  0  0  0  0
  -27.6886  -11.9176   15.9702 C   0  0  0  0  0  0  0  0  0  0  0  0
  -29.4086  -11.4989   17.6144 C   0  0  0  0  0  0  0  0  0  0  0  0
  -18.2199  -25.5801   22.3970 C   0  0  0  0  0  0  0  0  0  0  0  0
  -20.6876  -26.1421   21.2390 C   0  0  0  0  0  0  0  0  0  0  0  0
  -25.5175  -26.8108   22.6067 C   0  0  0  0  0  0  0  0  0  0  0  0
  -28.2158  -10.9102   15.1622 C   0  0  0  0  0  0  0  0  0  0  0  0
  -29.9358  -10.4915   16.8064 C   0  0  0  0  0  0  0  0  0  0  0  0
  -26.4974  -26.4122   21.6986 C   0  0  0  0  0  0  0  0  0  0  0  0
  -28.1491   -7.5322   15.0302 C   0  0  0  0  0  0  0  0  0  0  0  0
  -27.2556   -6.6293   14.4539 C   0  0  0  0  0  0  0  0  0  0  0  0
  -26.7665  -28.7031   20.9925 C   0  0  0  0  0  0  0  0  0  0  0  0
  -26.5462  -25.7293   16.9733 C   0  0  0  0  0  0  0  0  0  0  0  0
  -27.9976   -7.2989   12.2543 C   0  0  0  0  0  0  0  0  0  0  0  0
  -28.2851  -12.2120   17.1963 C   0  0  0  0  0  0  0  0  0  0  0  0
  -26.7561  -13.1160   19.0273 C   0  0  0  0  0  0  0  0  0  0  0  0
  -18.6320  -26.9160   22.2700 C   0  0  0  0  0  0  0  0  0  0  0  0
  -25.1463  -28.1594   22.7069 C   0  0  0  0  0  0  0  0  0  0  0  0
  -19.8755  -27.2027   21.6751 C   0  0  0  0  0  0  0  0  0  0  0  0
  -25.7834  -29.1166   21.9044 C   0  0  0  0  0  0  0  0  0  0  0  0
  -26.0336  -24.4180   16.7546 C   0  0  0  0  0  0  0  0  0  0  0  0
  -29.3393  -10.1971   15.5803 C   0  0  0  0  0  0  0  0  0  0  0  0
  -27.1200  -27.3579   20.8893 C   0  0  0  0  0  0  0  0  0  0  0  0
  -28.9668   -8.3185   14.2186 C   0  0  0  0  0  0  0  0  0  0  0  0
  -27.1799   -6.5126   13.0660 C   0  0  0  0  0  0  0  0  0  0  0  0
  -28.8910   -8.2019   12.8307 C   0  0  0  0  0  0  0  0  0  0  0  0
  -27.7414  -13.2529   18.0311 C   0  0  0  0  0  0  0  0  0  0  0  0
  -26.9823  -23.4463   16.9857 C   0  0  0  0  0  0  0  0  0  0  0  0
  -27.8673  -25.7099   17.3635 C   0  0  0  0  0  0  0  0  0  0  0  0
  -26.5914  -14.3858   19.5241 C   0  0  0  0  0  0  0  0  0  0  0  0
  -26.8648  -22.0427   16.8791 C   0  0  0  0  0  0  0  0  0  0  0  0
  -27.8405  -21.1106   17.1426 C   0  0  0  0  0  0  0  0  0  0  0  0
  -26.0527  -11.9456   19.4645 C   0  0  0  0  0  0  0  0  0  0  0  0
  -27.5584  -19.6688   16.9927 C   0  0  0  0  0  0  0  0  0  0  0  0
  -22.4564  -29.7865   22.2372 C   0  0  0  0  0  0  0  0  0  0  0  0
  -24.2016  -32.2535   23.4164 C   0  0  0  0  0  0  0  0  0  0  0  0
  -27.2787  -33.6220   23.9691 C   0  0  0  0  0  0  0  0  0  0  0  0
  -17.6947  -28.0103   22.7157 C   0  0  0  0  0  0  0  0  0  0  0  0
  -24.1065  -28.5768   23.7103 C   0  0  0  0  0  0  0  0  0  0  0  0
  -25.4355  -30.5796   21.9877 C   0  0  0  0  0  0  0  0  0  0  0  0
  -18.3741  -29.3685   22.8709 C   0  0  0  0  0  0  0  0  0  0  0  0
  -28.9278  -18.4923   20.1822 C   0  0  0  0  0  0  0  0  0  0  0  0
  -19.2568  -29.6650   21.6628 C   0  0  0  0  0  0  0  0  0  0  0  0
  -28.7246  -16.9852   20.0509 C   0  0  0  0  0  0  0  0  0  0  0  0
  -29.2434  -19.1459   18.8377 C   0  0  0  0  0  0  0  0  0  0  0  0
  -28.0322  -17.3409   17.6480 C   0  0  0  0  0  0  0  0  0  0  0  0
  -20.3744  -28.6238   21.5272 C   0  0  1  0  0  0  0  0  0  0  0  0
  -23.4423  -29.9061   23.3647 C   0  0  1  0  0  0  0  0  0  0  0  0
  -27.6672  -16.6697   18.9812 C   0  0  1  0  0  0  0  0  0  0  0  0
  -24.6373  -24.1529   16.3277 C   0  0  0  0  0  0  0  0  0  0  0  0
  -28.3843  -35.6652   24.9179 C   0  0  0  0  0  0  0  0  0  0  0  0
  -23.4388  -33.8249   20.9146 C   0  0  0  0  0  0  0  0  0  0  0  0
  -25.2863  -35.4296   21.4439 C   0  0  0  0  0  0  0  0  0  0  0  0
  -23.3857  -35.1496   23.0352 C   0  0  0  0  0  0  0  0  0  0  0  0
  -28.7010  -32.0393   26.0260 C   0  0  0  0  0  0  0  0  0  0  0  0
  -28.7679  -26.8764   17.6897 C   0  0  0  0  0  0  0  0  0  0  0  0
  -28.2077  -27.7458   18.8102 C   0  0  0  0  0  0  0  0  0  1  0  0
  -25.1032  -33.3068   22.8192 C   0  0  1  0  0  0  0  0  0  0  0  0
  -27.8922  -34.2552   25.2049 C   0  0  2  0  0  0  0  0  0  0  0  0
  -24.3089  -34.4000   22.0501 C   0  0  0  0  0  0  0  0  0  0  0  0
  -28.1722  -14.5105   17.9014 N   0  0  0  0  0  0  0  0  0  0  0  0
  -27.4542  -15.1754   18.8225 N   0  0  0  0  0  0  0  0  0  0  0  0
  -28.2502  -18.7821   17.8159 N   0  0  0  0  0  0  0  0  0  0  0  0
  -24.4081  -30.9372   22.9798 N   0  0  0  0  0  0  0  0  0  0  0  0
  -25.7941  -14.8929   20.4883 N   0  0  0  0  0  0  0  0  0  0  0  0
  -26.3438  -10.7215   18.8471 N   0  0  0  0  0  0  0  0  0  0  0  0
  -21.4321  -28.8908   22.4782 N   0  0  0  0  0  0  0  0  0  0  0  0
  -25.9150  -33.8196   23.9175 N   0  0  0  0  0  0  0  0  0  0  0  0
  -29.0463  -33.4432   25.6842 N   0  3  0  0  0  0  0  0  0  0  0  0
  -25.1797  -11.9871   20.3643 O   0  0  0  0  0  0  0  0  0  0  0  0
  -26.7298  -19.3368   16.1431 O   0  0  0  0  0  0  0  0  0  0  0  0
  -22.6126  -30.4582   21.2242 O   0  0  0  0  0  0  0  0  0  0  0  0
  -23.3503  -32.5853   24.2451 O   0  0  0  0  0  0  0  0  0  0  0  0
  -27.9432  -33.0161   23.1313 O   0  0  0  0  0  0  0  0  0  0  0  0
  -29.8538   -9.2139   14.7922 O   0  0  0  0  0  0  0  0  0  0  0  0
  -28.0763  -26.9714   20.0016 O   0  0  0  0  0  0  0  0  0  1  0  0
  -26.3229   -5.6444   12.5128 F   0  0  0  0  0  0  0  0  0  0  0  0
  -29.6749   -8.9538   12.0458 F   0  0  0  0  0  0  0  0  0  0  0  0
  -28.4840  -24.1156   17.4644 S   0  0  0  0  0  0  0  0  0  0  0  0
  1  2  1  0  0  0  0
  1  5  2  0  0  0  0
  2  6  2  0  0  0  0
  3  8  2  0  0  0  0
  3 16  1  0  0  0  0
  4  9  1  0  0  0  0
  4 16  2  0  0  0  0
  5 18  1  0  0  0  0
  6 20  1  0  0  0  0
  7 10  2  0  0  0  0
  7 19  1  0  0  0  0
  8 23  1  0  0  0  0
  9 23  2  0  0  0  0
 10 24  1  0  0  0  0
 11 12  2  0  0  0  0
 11 25  1  0  0  0  0
 12 26  1  0  0  0  0
 13 21  1  0  0  0  0
 13 24  2  0  0  0  0
 14 22  1  0  0  0  0
 14 30  2  0  0  0  0
 15 26  2  0  0  0  0
 15 27  1  0  0  0  0
 16 28  1  0  0  0  0
 17 28  1  0  0  0  0
 17 31  2  0  0  0  0
 17 34  1  0  0  0  0
 18 20  2  0  0  0  0
 18 39  1  0  0  0  0
 19 21  2  0  0  0  0
 19 40  1  0  0  0  0
 20 48  1  0  0  0  0
 21 41  1  0  0  0  0
 22 29  2  0  0  0  0
 22 51  1  0  0  0  0
 23 76  1  0  0  0  0
 24 77  1  0  0  0  0
 25 27  2  0  0  0  0
 25 76  1  0  0  0  0
 26 78  1  0  0  0  0
 27 79  1  0  0  0  0
 28 62  2  0  0  0  0
 29 32  1  0  0  0  0
 29 80  1  0  0  0  0
 30 57  1  0  0  0  0
 30 80  1  0  0  0  0
 31 63  1  0  0  0  0
 31 66  1  0  0  0  0
 32 33  2  0  0  0  0
 33 35  1  0  0  0  0
 34 67  1  0  0  0  0
 34 71  2  0  0  0  0
 35 64  1  0  0  0  0
 35 72  2  0  0  0  0
 36 49  1  0  0  0  0
 36 68  1  0  0  0  0
 36 73  2  0  0  0  0
 37 59  1  0  0  0  0
 37 65  1  0  0  0  0
 37 74  2  0  0  0  0
 38 60  1  0  0  0  0
 38 69  1  0  0  0  0
 38 75  2  0  0  0  0
 39 42  1  0  0  0  0
 40 49  1  0  0  0  0
 41 65  1  0  0  0  0
 42 44  1  0  0  0  0
 43 45  1  0  0  0  0
 43 46  1  0  0  0  0
 44 48  1  0  0  0  0
 45 50  1  0  0  0  0
 46 64  1  0  0  0  0
 47 50  1  0  0  0  0
 47 64  1  0  0  0  0
 48 68  1  0  0  0  0
 49 65  1  0  0  0  0
 50 63  1  0  0  0  0
 52 60  1  0  0  0  0
 53 61  1  0  0  0  0
 54 61  1  0  0  0  0
 55 61  1  0  0  0  0
 56 70  1  0  0  0  0
 57 58  1  0  0  0  0
 58 77  1  0  0  0  0
 59 61  1  0  0  0  0
 59 69  1  0  0  0  0
 60 70  1  0  0  0  0
 62 63  1  0  0  0  0
M  CHG  1  70   1
M  ISO  4  33 100  35 100  58 101  77 101
M  END
> <Batch ID>
0125

> <Smiles>
CNC(C)C(=O)NC(C(=O)N1Cc2cc([101O:1][101CH2:1]Cc3cc(C)c(C=[100CH:0][100C:0](=O)N4CCCC(n5nc(-c6ccc(Oc7ccc(F)cc7F)cc6)c(C(N)=O)c5N)C4)s3)ccc2CC1C(=O)NC1CCCc2ccccc21)C(C)(C)C

> <Shape>
0.231

> <Color>
0.122

> <Negative vol penalty>
0.000

$$$$

  -OEChem-04052302093D

 85 93  0     1  0  0  0  0  0999 V2000
  -17.5273  -26.5005   25.8624 C   0  0  0  0  0  0  0  0  0  0  0  0
  -18.8508  -26.2851   25.4917 C   0  0  0  0  0  0  0  0  0  0  0  0
  -23.8684  -10.1804   19.1803 C   0  0  0  0  0  0  0  0  0  0  0  0
  -24.8584   -9.3783   21.2330 C   0  0  0  0  0  0  0  0  0  0  0  0
  -30.9115  -20.6525   19.2370 C   0  0  0  0  0  0  0  0  0  0  0  0
  -31.8977  -21.6316   19.1178 C   0  0  0  0  0  0  0  0  0  0  0  0
  -16.8060  -27.5477   25.2905 C   0  0  0  0  0  0  0  0  0  0  0  0
  -19.4535  -27.1162   24.5481 C   0  0  0  0  0  0  0  0  0  0  0  0
  -25.3118  -28.8962   24.4173 C   0  0  0  0  0  0  0  0  0  0  0  0
  -23.6267   -8.8653   18.7830 C   0  0  0  0  0  0  0  0  0  0  0  0
  -24.6166   -8.0632   20.8358 C   0  0  0  0  0  0  0  0  0  0  0  0
  -26.4164  -28.4357   23.7020 C   0  0  0  0  0  0  0  0  0  0  0  0
  -21.9949   -5.9329   20.7432 C   0  0  0  0  0  0  0  0  0  0  0  0
  -21.4574   -5.0601   21.6892 C   0  0  0  0  0  0  0  0  0  0  0  0
  -29.2449  -22.3708   19.5638 C   0  0  0  0  0  0  0  0  0  0  0  0
  -26.0484  -30.1480   22.0432 C   0  0  0  0  0  0  0  0  0  0  0  0
  -23.3946   -3.6326   21.4728 C   0  0  0  0  0  0  0  0  0  0  0  0
  -24.4843  -10.4368   20.4053 C   0  0  0  0  0  0  0  0  0  0  0  0
  -29.5850  -21.0221   19.4599 C   0  0  0  0  0  0  0  0  0  0  0  0
  -31.5576  -22.9803   19.2218 C   0  0  0  0  0  0  0  0  0  0  0  0
  -30.2312  -23.3500   19.4447 C   0  0  0  0  0  0  0  0  0  0  0  0
  -23.8776  -12.6311   21.5564 C   0  0  0  0  0  0  0  0  0  0  0  0
  -17.4032  -28.3980   24.3465 C   0  0  0  0  0  0  0  0  0  0  0  0
  -24.5595  -29.9811   23.9445 C   0  0  0  0  0  0  0  0  0  0  0  0
  -18.7391  -28.1749   23.9620 C   0  0  0  0  0  0  0  0  0  0  0  0
  -24.9363  -30.6220   22.7557 C   0  0  0  0  0  0  0  0  0  0  0  0
  -24.0008   -7.8068   19.6107 C   0  0  0  0  0  0  0  0  0  0  0  0
  -26.7831  -29.0598   22.5132 C   0  0  0  0  0  0  0  0  0  0  0  0
  -23.2322   -5.6555   20.1619 C   0  0  0  0  0  0  0  0  0  0  0  0
  -22.1573   -3.9100   22.0540 C   0  0  0  0  0  0  0  0  0  0  0  0
  -23.9321   -4.5055   20.5268 C   0  0  0  0  0  0  0  0  0  0  0  0
  -24.7347  -11.7950   20.8161 C   0  0  0  0  0  0  0  0  0  0  0  0
  -24.5720  -13.8093   21.6828 C   0  0  0  0  0  0  0  0  0  0  0  0
  -33.3534  -24.1168   17.9976 C   0  0  0  0  0  0  0  0  0  0  0  0
  -28.5569  -20.0003   19.5815 C   0  0  0  0  0  0  0  0  0  0  0  0
  -32.6224  -23.9688   19.0910 C   0  0  0  0  0  0  0  0  0  0  0  0
  -29.8263  -24.7621   19.5612 C   0  0  0  0  0  0  0  0  0  0  0  0
  -28.6582  -18.7303   19.1349 C   0  0  0  0  0  0  0  0  0  0  0  0
  -29.2224  -25.2948   20.6326 C   0  0  0  0  0  0  0  0  0  0  0  0
  -22.5705  -12.3663   22.0828 C   0  0  0  0  0  0  0  0  0  0  0  0
  -28.8435  -26.7377   20.6468 C   0  0  0  0  0  0  0  0  0  0  0  0
  -27.5266  -17.8048   19.3436 C   0  0  0  0  0  0  0  0  0  0  0  0
  -21.5448  -30.3883   23.0229 C   0  0  0  0  0  0  0  0  0  0  0  0
  -22.4259  -33.5058   22.8573 C   0  0  0  0  0  0  0  0  0  0  0  0
  -24.9347  -35.7928   22.5078 C   0  0  0  0  0  0  0  0  0  0  0  0
  -16.5689  -29.4875   23.7208 C   0  0  0  0  0  0  0  0  0  0  0  0
  -23.3868  -30.4827   24.7417 C   0  0  0  0  0  0  0  0  0  0  0  0
  -24.1739  -31.8034   22.2157 C   0  0  0  0  0  0  0  0  0  0  0  0
  -17.3958  -30.5531   23.0058 C   0  0  0  0  0  0  0  0  0  0  0  0
  -29.3820  -14.9364   20.6707 C   0  0  0  0  0  0  0  0  0  0  0  0
  -18.4566  -29.9027   22.1234 C   0  0  0  0  0  0  0  0  0  0  0  0
  -28.2609  -13.9147   20.8410 C   0  0  0  0  0  0  0  0  0  0  0  0
  -29.1527  -15.8406   19.4606 C   0  0  0  0  0  0  0  0  0  0  0  0
  -26.7047  -15.5005   19.6393 C   0  0  0  0  0  0  0  0  0  0  0  0
  -19.4354  -29.0702   22.9602 C   0  0  1  0  0  0  0  0  0  0  0  0
  -22.3862  -31.2702   23.9015 C   0  0  1  0  0  0  0  0  0  0  0  0
  -26.8912  -14.6108   20.8783 C   0  0  1  0  0  0  0  0  0  0  0  0
  -25.3416  -38.2653   22.3727 C   0  0  0  0  0  0  0  0  0  0  0  0
  -21.3859  -33.5176   19.9888 C   0  0  0  0  0  0  0  0  0  0  0  0
  -22.6531  -35.6437   19.6120 C   0  0  0  0  0  0  0  0  0  0  0  0
  -20.8270  -35.5664   21.3096 C   0  0  0  0  0  0  0  0  0  0  0  0
  -26.6338  -35.7630   24.9309 C   0  0  0  0  0  0  0  0  0  0  0  0
  -28.1677  -27.2219   21.9123 C   0  0  0  0  0  0  0  0  0  1  0  0
  -23.0154  -34.3948   21.7892 C   0  0  1  0  0  0  0  0  0  0  0  0
  -25.2649  -37.0528   23.2874 C   0  0  2  0  0  0  0  0  0  0  0  0
  -21.9838  -34.7572   20.6838 C   0  0  0  0  0  0  0  0  0  0  0  0
  -25.8858  -12.3916   20.4946 N   0  0  0  0  0  0  0  0  0  0  0  0
  -25.7567  -13.6150   21.0355 N   0  0  0  0  0  0  0  0  0  0  0  0
  -27.8141  -16.4488   19.4891 N   0  0  0  0  0  0  0  0  0  0  0  0
  -23.0312  -32.2526   23.0280 N   0  0  0  0  0  0  0  0  0  0  0  0
  -24.2788  -14.9822   22.2834 N   0  0  0  0  0  0  0  0  0  0  0  0
  -22.0043  -11.1034   21.8615 N   0  0  0  0  0  0  0  0  0  0  0  0
  -20.3892  -29.9306   23.6268 N   0  0  0  0  0  0  0  0  0  0  0  0
  -23.5779  -35.5484   22.4829 N   0  0  0  0  0  0  0  0  0  0  0  0
  -26.5753  -36.9041   23.9815 N   0  3  0  0  0  0  0  0  0  0  0  0
  -21.9170  -13.2296   22.7161 O   0  0  0  0  0  0  0  0  0  0  0  0
  -29.0665  -27.4802   19.6945 O   0  0  0  0  0  0  0  0  0  0  0  0
  -26.3937  -18.2890   19.3715 O   0  0  0  0  0  0  0  0  0  0  0  0
  -21.9158  -30.1425   21.8811 O   0  0  0  0  0  0  0  0  0  0  0  0
  -21.4683  -33.9111   23.5209 O   0  0  0  0  0  0  0  0  0  0  0  0
  -25.7942  -35.0970   21.9713 O   0  0  0  0  0  0  0  0  0  0  0  0
  -23.7648   -6.5234   19.2235 O   0  0  0  0  0  0  0  0  0  0  0  0
  -27.8603  -28.6118   21.8127 O   0  0  0  0  0  0  0  0  0  1  0  0
  -21.6417   -3.0727   22.9636 F   0  0  0  0  0  0  0  0  0  0  0  0
  -25.1218   -4.2343   19.9727 F   0  0  0  0  0  0  0  0  0  0  0  0
  1  2  1  0  0  0  0
  1  7  2  0  0  0  0
  2  8  2  0  0  0  0
  3 10  2  0  0  0  0
  3 18  1  0  0  0  0
  4 11  1  0  0  0  0
  4 18  2  0  0  0  0
  5  6  2  0  0  0  0
  5 19  1  0  0  0  0
  6 20  1  0  0  0  0
  7 23  1  0  0  0  0
  8 25  1  0  0  0  0
  9 12  2  0  0  0  0
  9 24  1  0  0  0  0
 10 27  1  0  0  0  0
 11 27  2  0  0  0  0
 12 28  1  0  0  0  0
 13 14  2  0  0  0  0
 13 29  1  0  0  0  0
 14 30  1  0  0  0  0
 15 19  2  0  0  0  0
 15 21  1  0  0  0  0
 16 26  1  0  0  0  0
 16 28  2  0  0  0  0
 17 30  2  0  0  0  0
 17 31  1  0  0  0  0
 18 32  1  0  0  0  0
 19 35  1  0  0  0  0
 20 21  2  0  0  0  0
 20 36  1  0  0  0  0
 21 37  1  0  0  0  0
 22 32  1  0  0  0  0
 22 33  2  0  0  0  0
 22 40  1  0  0  0  0
 23 25  2  0  0  0  0
 23 46  1  0  0  0  0
 24 26  2  0  0  0  0
 24 47  1  0  0  0  0
 25 55  1  0  0  0  0
 26 48  1  0  0  0  0
 27 82  1  0  0  0  0
 28 83  1  0  0  0  0
 29 31  2  0  0  0  0
 29 82  1  0  0  0  0
 30 84  1  0  0  0  0
 31 85  1  0  0  0  0
 32 67  2  0  0  0  0
 33 68  1  0  0  0  0
 33 71  1  0  0  0  0
 34 36  2  0  0  0  0
 35 38  2  0  0  0  0
 37 39  2  0  0  0  0
 38 42  1  0  0  0  0
 39 41  1  0  0  0  0
 40 72  1  0  0  0  0
 40 76  2  0  0  0  0
 41 63  1  0  0  0  0
 41 77  2  0  0  0  0
 42 69  1  0  0  0  0
 42 78  2  0  0  0  0
 43 56  1  0  0  0  0
 43 73  1  0  0  0  0
 43 79  2  0  0  0  0
 44 64  1  0  0  0  0
 44 70  1  0  0  0  0
 44 80  2  0  0  0  0
 45 65  1  0  0  0  0
 45 74  1  0  0  0  0
 45 81  2  0  0  0  0
 46 49  1  0  0  0  0
 47 56  1  0  0  0  0
 48 70  1  0  0  0  0
 49 51  1  0  0  0  0
 50 52  1  0  0  0  0
 50 53  1  0  0  0  0
 51 55  1  0  0  0  0
 52 57  1  0  0  0  0
 53 69  1  0  0  0  0
 54 57  1  0  0  0  0
 54 69  1  0  0  0  0
 55 73  1  0  0  0  0
 56 70  1  0  0  0  0
 57 68  1  0  0  0  0
 58 65  1  0  0  0  0
 59 66  1  0  0  0  0
 60 66  1  0  0  0  0
 61 66  1  0  0  0  0
 62 75  1  0  0  0  0
 63 83  1  0  0  0  0
 64 66  1  0  0  0  0
 64 74  1  0  0  0  0
 65 75  1  0  0  0  0
 67 68  1  0  0  0  0
M  CHG  1  75   1
M  ISO  4  38 100  42 100  63 101  83 101
M  END
> <Batch ID>
0125

> <Smiles>
C=Cc1ccc(C=[100CH:0][100C:0](=O)N2CCCC(n3nc(-c4ccc(Oc5ccc(F)cc5F)cc4)c(C(N)=O)c3N)C2)cc1C=CC(=O)[101CH2:1][101O:1]c1ccc2c(c1)CN(C(=O)C(NC(=O)C(C)NC)C(C)(C)C)C(C(=O)NC1CCCc3ccccc31)C2

> <Shape>
0.281

> <Color>
0.096

> <Negative vol penalty>
0.000

$$$$

  -OEChem-04052302093D

 81 89  0     1  0  0  0  0  0999 V2000
  -27.9770  -21.1789   27.5499 C   0  0  0  0  0  0  0  0  0  0  0  0
  -28.1772  -21.7753   26.3091 C   0  0  0  0  0  0  0  0  0  0  0  0
  -23.9255  -15.3042   25.7967 C   0  0  0  0  0  0  0  0  0  0  0  0
  -23.1785  -17.4674   25.0223 C   0  0  0  0  0  0  0  0  0  0  0  0
  -26.6850  -21.0419   28.0559 C   0  0  0  0  0  0  0  0  0  0  0  0
  -27.0854  -22.2341   25.5730 C   0  0  0  0  0  0  0  0  0  0  0  0
  -27.8705  -26.8277   23.5914 C   0  0  0  0  0  0  0  0  0  0  0  0
  -30.0766  -22.6302   18.4317 C   0  0  0  0  0  0  0  0  0  0  0  0
  -29.9460  -21.4133   19.1007 C   0  0  0  0  0  0  0  0  0  0  0  0
  -23.2502  -15.5021   27.0010 C   0  0  0  0  0  0  0  0  0  0  0  0
  -22.5031  -17.6653   26.2266 C   0  0  0  0  0  0  0  0  0  0  0  0
  -28.6634  -26.9005   22.4469 C   0  0  0  0  0  0  0  0  0  0  0  0
  -23.7407  -17.2015   29.8813 C   0  0  0  0  0  0  0  0  0  0  0  0
  -24.4129  -16.8809   31.0607 C   0  0  0  0  0  0  0  0  0  0  0  0
  -26.6768  -27.0599   21.0879 C   0  0  0  0  0  0  0  0  0  0  0  0
  -28.3613  -23.5876   19.8381 C   0  0  0  0  0  0  0  0  0  0  0  0
  -22.6944  -15.2715   31.6026 C   0  0  0  0  0  0  0  0  0  0  0  0
  -23.8897  -16.2869   24.8074 C   0  0  0  0  0  0  0  0  0  0  0  0
  -24.0812  -15.4892   22.3919 C   0  0  0  0  0  0  0  0  0  0  0  0
  -25.5776  -21.5080   27.3300 C   0  0  0  0  0  0  0  0  0  0  0  0
  -26.4721  -26.8597   23.4916 C   0  0  0  0  0  0  0  0  0  0  0  0
  -25.7773  -22.1020   26.0691 C   0  0  0  0  0  0  0  0  0  0  0  0
  -25.8684  -26.9901   22.2328 C   0  0  0  0  0  0  0  0  0  0  0  0
  -29.2843  -23.7175   18.8004 C   0  0  0  0  0  0  0  0  0  0  0  0
  -28.2306  -22.3707   20.5072 C   0  0  0  0  0  0  0  0  0  0  0  0
  -29.0230  -21.2835   20.1384 C   0  0  0  0  0  0  0  0  0  0  0  0
  -22.5389  -16.6826   27.2159 C   0  0  0  0  0  0  0  0  0  0  0  0
  -28.0665  -27.0137   21.1947 C   0  0  0  0  0  0  0  0  0  0  0  0
  -22.5453  -16.5571   29.5625 C   0  0  0  0  0  0  0  0  0  0  0  0
  -23.8898  -15.9159   31.9213 C   0  0  0  0  0  0  0  0  0  0  0  0
  -22.0222  -15.5921   30.4232 C   0  0  0  0  0  0  0  0  0  0  0  0
  -24.5877  -16.0833   23.5633 C   0  0  0  0  0  0  0  0  0  0  0  0
  -25.1283  -15.5339   21.5040 C   0  0  0  0  0  0  0  0  0  0  0  0
  -22.7807  -14.9457   22.1296 C   0  0  0  0  0  0  0  0  0  0  0  0
  -24.1239  -24.8502   24.2343 C   0  0  0  0  0  0  0  0  0  0  0  0
  -22.2408  -27.3526   23.3892 C   0  0  0  0  0  0  0  0  0  0  0  0
  -21.8909  -30.2445   21.6111 C   0  0  0  0  0  0  0  0  0  0  0  0
  -29.9057  -19.0875   21.0015 C   0  0  0  0  0  0  0  0  0  0  0  0
  -24.1963  -21.2951   27.8968 C   0  0  0  0  0  0  0  0  0  0  0  0
  -25.6315  -26.8071   24.7378 C   0  0  0  0  0  0  0  0  0  0  0  0
  -24.3719  -27.0491   22.0733 C   0  0  0  0  0  0  0  0  0  0  0  0
  -23.1232  -22.1456   27.2219 C   0  0  0  0  0  0  0  0  0  0  0  0
  -29.9149  -15.5448   21.3562 C   0  0  0  0  0  0  0  0  0  0  0  0
  -23.2648  -22.0785   25.7046 C   0  0  0  0  0  0  0  0  0  0  0  0
  -28.5019  -15.2262   21.8500 C   0  0  0  0  0  0  0  0  0  0  0  0
  -30.4405  -16.8522   21.9462 C   0  0  0  0  0  0  0  0  0  0  0  0
  -28.1467  -17.6947   22.2591 C   0  0  0  0  0  0  0  0  0  0  0  0
  -24.6203  -22.6346   25.2519 C   0  0  1  0  0  0  0  0  0  0  0  0
  -24.2058  -26.3307   24.4772 C   0  0  1  0  0  0  0  0  0  0  0  0
  -27.5494  -16.4199   21.6413 C   0  0  2  0  0  0  0  0  0  0  0  0
  -27.2316  -22.2594   21.6130 C   0  0  0  0  0  0  0  0  0  0  0  0
  -20.2243  -32.0463   21.0887 C   0  0  0  0  0  0  0  0  0  0  0  0
  -20.7950  -25.4593   21.4827 C   0  0  0  0  0  0  0  0  0  0  0  0
  -19.8274  -27.4639   20.3367 C   0  0  0  0  0  0  0  0  0  0  0  0
  -19.2978  -27.0234   22.7342 C   0  0  0  0  0  0  0  0  0  0  0  0
  -23.6105  -32.3402   22.7985 C   0  0  0  0  0  0  0  0  0  0  0  0
  -29.4239  -25.0322   18.0755 C   0  0  0  0  0  0  0  0  0  0  0  0
  -30.4579  -25.9724   18.6988 C   0  0  0  0  0  0  0  0  0  0  0  0
  -30.0976  -26.4142   20.1124 C   0  0  0  0  0  0  0  0  0  1  0  0
  -21.6097  -27.8293   22.1034 C   0  0  1  0  0  0  0  0  0  0  0  0
  -21.3577  -31.6104   22.0041 C   0  0  2  0  0  0  0  0  0  0  0  0
  -20.4107  -26.9409   21.6668 C   0  0  0  0  0  0  0  0  0  0  0  0
  -25.8577  -16.4764   23.4346 N   0  0  0  0  0  0  0  0  0  0  0  0
  -26.1581  -16.1285   22.1718 N   0  0  0  0  0  0  0  0  0  0  0  0
  -23.5928  -26.9877   23.3210 N   0  0  0  0  0  0  0  0  0  0  0  0
  -29.4883  -17.9388   21.7064 N   0  0  0  0  0  0  0  0  0  0  0  0
  -25.2592  -15.1220   20.2251 N   0  0  0  0  0  0  0  0  0  0  0  0
  -21.8233  -14.9805   23.1526 N   0  0  0  0  0  0  0  0  0  0  0  0
  -28.9052  -20.0390   20.8056 N   0  0  0  0  0  0  0  0  0  0  0  0
  -24.6066  -24.0816   25.2762 N   0  0  0  0  0  0  0  0  0  0  0  0
  -21.2691  -29.2325   22.3115 N   0  0  0  0  0  0  0  0  0  0  0  0
  -22.4414  -32.6307   21.9291 N   0  3  0  0  0  0  0  0  0  0  0  0
  -22.4817  -14.4292   21.0263 O   0  0  0  0  0  0  0  0  0  0  0  0
  -23.6559  -24.4359   23.1803 O   0  0  0  0  0  0  0  0  0  0  0  0
  -21.5612  -27.3125   24.4179 O   0  0  0  0  0  0  0  0  0  0  0  0
  -22.7685  -30.0903   20.7646 O   0  0  0  0  0  0  0  0  0  0  0  0
  -31.0581  -19.2056   20.5774 O   0  0  0  0  0  0  0  0  0  0  0  0
  -21.8796  -16.8760   28.3909 O   0  0  0  0  0  0  0  0  0  0  0  0
  -28.8381  -27.0842   20.0760 O   0  0  0  0  0  0  0  0  0  1  0  0
  -24.5362  -15.6070   33.0531 F   0  0  0  0  0  0  0  0  0  0  0  0
  -20.8748  -14.9688   30.1217 F   0  0  0  0  0  0  0  0  0  0  0  0
  1  2  1  0  0  0  0
  1  5  2  0  0  0  0
  2  6  2  0  0  0  0
  3 10  2  0  0  0  0
  3 18  1  0  0  0  0
  4 11  1  0  0  0  0
  4 18  2  0  0  0  0
  5 20  1  0  0  0  0
  6 22  1  0  0  0  0
  7 12  2  0  0  0  0
  7 21  1  0  0  0  0
  8  9  2  0  0  0  0
  8 24  1  0  0  0  0
  9 26  1  0  0  0  0
 10 27  1  0  0  0  0
 11 27  2  0  0  0  0
 12 28  1  0  0  0  0
 13 14  2  0  0  0  0
 13 29  1  0  0  0  0
 14 30  1  0  0  0  0
 15 23  1  0  0  0  0
 15 28  2  0  0  0  0
 16 24  2  0  0  0  0
 16 25  1  0  0  0  0
 17 30  2  0  0  0  0
 17 31  1  0  0  0  0
 18 32  1  0  0  0  0
 19 32  1  0  0  0  0
 19 33  2  0  0  0  0
 19 34  1  0  0  0  0
 20 22  2  0  0  0  0
 20 39  1  0  0  0  0
 21 23  2  0  0  0  0
 21 40  1  0  0  0  0
 22 48  1  0  0  0  0
 23 41  1  0  0  0  0
 24 57  1  0  0  0  0
 25 26  2  0  0  0  0
 25 51  1  0  0  0  0
 26 69  1  0  0  0  0
 27 78  1  0  0  0  0
 28 79  1  0  0  0  0
 29 31  2  0  0  0  0
 29 78  1  0  0  0  0
 30 80  1  0  0  0  0
 31 81  1  0  0  0  0
 32 63  2  0  0  0  0
 33 64  1  0  0  0  0
 33 67  1  0  0  0  0
 34 68  1  0  0  0  0
 34 73  2  0  0  0  0
 35 49  1  0  0  0  0
 35 70  1  0  0  0  0
 35 74  2  0  0  0  0
 36 60  1  0  0  0  0
 36 65  1  0  0  0  0
 36 75  2  0  0  0  0
 37 61  1  0  0  0  0
 37 71  1  0  0  0  0
 37 76  2  0  0  0  0
 38 66  1  0  0  0  0
 38 69  1  0  0  0  0
 38 77  2  0  0  0  0
 39 42  1  0  0  0  0
 40 49  1  0  0  0  0
 41 65  1  0  0  0  0
 42 44  1  0  0  0  0
 43 45  1  0  0  0  0
 43 46  1  0  0  0  0
 44 48  1  0  0  0  0
 45 50  1  0  0  0  0
 46 66  1  0  0  0  0
 47 50  1  0  0  0  0
 47 66  1  0  0  0  0
 48 70  1  0  0  0  0
 49 65  1  0  0  0  0
 50 64  1  0  0  0  0
 52 61  1  0  0  0  0
 53 62  1  0  0  0  0
 54 62  1  0  0  0  0
 55 62  1  0  0  0  0
 56 72  1  0  0  0  0
 57 58  1  0  0  0  0
 58 59  1  0  0  0  0
 59 79  1  0  0  0  0
 60 62  1  0  0  0  0
 60 71  1  0  0  0  0
 61 72  1  0  0  0  0
 63 64  1  0  0  0  0
M  CHG  1  72   1
M  ISO  4  38 100  59 101  69 100  79 101
M  END
> <Batch ID>
0125

> <Smiles>
CNC(C)C(=O)NC(C(=O)N1Cc2cc([101O:1][101CH2:1]CCc3ccc([100NH:0][100C:0](=O)N4CCCC(n5nc(-c6ccc(Oc7ccc(F)cc7F)cc6)c(C(N)=O)c5N)C4)c(C)c3)ccc2CC1C(=O)NC1CCCc2ccccc21)C(C)(C)C

> <Shape>
0.176

> <Color>
0.090

> <Negative vol penalty>
0.000

$$$$

  -OEChem-04052302093D

 83 91  0     1  0  0  0  0  0999 V2000
  -28.3437  -36.3556   22.8230 C   0  0  0  0  0  0  0  0  0  0  0  0
  -28.6168  -34.9951   22.7228 C   0  0  0  0  0  0  0  0  0  0  0  0
  -24.0475   -9.7937   22.2604 C   0  0  0  0  0  0  0  0  0  0  0  0
  -24.6318  -11.4295   23.9396 C   0  0  0  0  0  0  0  0  0  0  0  0
  -30.7040  -20.1462   19.0050 C   0  0  0  0  0  0  0  0  0  0  0  0
  -27.0901  -36.7836   23.2580 C   0  0  0  0  0  0  0  0  0  0  0  0
  -27.6367  -34.0618   23.0587 C   0  0  0  0  0  0  0  0  0  0  0  0
  -27.2926  -30.3049   19.6805 C   0  0  0  0  0  0  0  0  0  0  0  0
  -30.4427  -18.7786   18.9215 C   0  0  0  0  0  0  0  0  0  0  0  0
  -23.6687   -8.9004   23.2624 C   0  0  0  0  0  0  0  0  0  0  0  0
  -24.2530  -10.5362   24.9416 C   0  0  0  0  0  0  0  0  0  0  0  0
  -28.2589  -29.3019   19.7431 C   0  0  0  0  0  0  0  0  0  0  0  0
  -21.0120   -8.4211   25.2983 C   0  0  0  0  0  0  0  0  0  0  0  0
  -19.8101   -7.7328   25.1327 C   0  0  0  0  0  0  0  0  0  0  0  0
  -28.3415  -20.5820   19.2610 C   0  0  0  0  0  0  0  0  0  0  0  0
  -26.7038  -27.8857   20.9242 C   0  0  0  0  0  0  0  0  0  0  0  0
  -21.0031   -5.6330   25.2024 C   0  0  0  0  0  0  0  0  0  0  0  0
  -24.5291  -11.0583   22.5990 C   0  0  0  0  0  0  0  0  0  0  0  0
  -29.6534  -21.0479   19.1748 C   0  0  0  0  0  0  0  0  0  0  0  0
  -24.1071  -12.9328   20.9210 C   0  0  0  0  0  0  0  0  0  0  0  0
  -26.0909  -35.8551   23.5901 C   0  0  0  0  0  0  0  0  0  0  0  0
  -26.0260  -30.1096   20.2499 C   0  0  0  0  0  0  0  0  0  0  0  0
  -26.3690  -34.4778   23.4998 C   0  0  0  0  0  0  0  0  0  0  0  0
  -25.7223  -28.8868   20.8653 C   0  0  0  0  0  0  0  0  0  0  0  0
  -28.0802  -19.2144   19.1774 C   0  0  0  0  0  0  0  0  0  0  0  0
  -29.1308  -18.3127   19.0076 C   0  0  0  0  0  0  0  0  0  0  0  0
  -23.7714   -9.2716   24.6030 C   0  0  0  0  0  0  0  0  0  0  0  0
  -27.9656  -28.0931   20.3676 C   0  0  0  0  0  0  0  0  0  0  0  0
  -22.2094   -7.7154   25.4159 C   0  0  0  0  0  0  0  0  0  0  0  0
  -19.8057   -6.3388   25.0848 C   0  0  0  0  0  0  0  0  0  0  0  0
  -22.2050   -6.3214   25.3680 C   0  0  0  0  0  0  0  0  0  0  0  0
  -24.9211  -11.9813   21.5644 C   0  0  0  0  0  0  0  0  0  0  0  0
  -24.9451  -13.5529   20.0266 C   0  0  0  0  0  0  0  0  0  0  0  0
  -29.9303  -22.4926   19.2631 C   0  0  0  0  0  0  0  0  0  0  0  0
  -29.0947  -23.3966   19.7931 C   0  0  0  0  0  0  0  0  0  0  0  0
  -22.7179  -13.2297   21.1146 C   0  0  0  0  0  0  0  0  0  0  0  0
  -29.4661  -24.8411   19.8256 C   0  0  0  0  0  0  0  0  0  0  0  0
  -24.3716  -31.5101   22.5747 C   0  0  0  0  0  0  0  0  0  0  0  0
  -22.0162  -29.5209   21.5660 C   0  0  0  0  0  0  0  0  0  0  0  0
  -21.1504  -26.6259   19.9797 C   0  0  0  0  0  0  0  0  0  0  0  0
  -29.8281  -15.9054   18.7523 C   0  0  0  0  0  0  0  0  0  0  0  0
  -24.7667  -36.3653   24.1007 C   0  0  0  0  0  0  0  0  0  0  0  0
  -24.9858  -31.1914   20.1504 C   0  0  0  0  0  0  0  0  0  0  0  0
  -24.3708  -28.6196   21.4741 C   0  0  0  0  0  0  0  0  0  0  0  0
  -23.6598  -35.3142   24.0793 C   0  0  0  0  0  0  0  0  0  0  0  0
  -29.6300  -12.3575   18.5286 C   0  0  0  0  0  0  0  0  0  0  0  0
  -24.1631  -33.9971   24.6612 C   0  0  0  0  0  0  0  0  0  0  0  0
  -28.3203  -12.0216   19.2456 C   0  0  0  0  0  0  0  0  0  0  0  0
  -30.3612  -13.5197   19.1983 C   0  0  0  0  0  0  0  0  0  0  0  0
  -28.2458  -14.3964   20.1068 C   0  0  0  0  0  0  0  0  0  0  0  0
  -25.3237  -33.4350   23.8314 C   0  0  1  0  0  0  0  0  0  0  0  0
  -23.8999  -31.0760   21.2157 C   0  0  1  0  0  0  0  0  0  0  0  0
  -27.4416  -13.2744   19.4301 C   0  0  2  0  0  0  0  0  0  0  0  0
  -26.6653  -18.7431   19.2729 C   0  0  0  0  0  0  0  0  0  0  0  0
  -19.1502  -25.2501   19.3441 C   0  0  0  0  0  0  0  0  0  0  0  0
  -21.7624  -28.5614   24.4512 C   0  0  0  0  0  0  0  0  0  0  0  0
  -20.4790  -26.5843   23.6075 C   0  0  0  0  0  0  0  0  0  0  0  0
  -19.5850  -28.8878   23.2651 C   0  0  0  0  0  0  0  0  0  0  0  0
  -21.7541  -26.8709   17.0927 C   0  0  0  0  0  0  0  0  0  0  0  0
  -28.4405  -25.7642   20.4491 C   0  0  0  0  0  0  0  0  0  1  0  0
  -21.5789  -28.1186   21.9143 C   0  0  1  0  0  0  0  0  0  0  0  0
  -20.1193  -26.3364   18.9038 C   0  0  2  0  0  0  0  0  0  0  0  0
  -20.8776  -28.0435   23.2999 C   0  0  0  0  0  0  0  0  0  0  0  0
  -26.1794  -11.9922   21.1167 N   0  0  0  0  0  0  0  0  0  0  0  0
  -26.1625  -12.9580   20.1823 N   0  0  0  0  0  0  0  0  0  0  0  0
  -23.3895  -29.7108   21.3569 N   0  0  0  0  0  0  0  0  0  0  0  0
  -29.4682  -14.6723   19.3358 N   0  0  0  0  0  0  0  0  0  0  0  0
  -24.7519  -14.5434   19.1300 N   0  0  0  0  0  0  0  0  0  0  0  0
  -22.0056  -12.4977   22.0744 N   0  0  0  0  0  0  0  0  0  0  0  0
  -28.8861  -16.9197   18.9206 N   0  0  0  0  0  0  0  0  0  0  0  0
  -24.8263  -32.8141   22.6224 N   0  0  0  0  0  0  0  0  0  0  0  0
  -20.7544  -27.6599   20.8015 N   0  0  0  0  0  0  0  0  0  0  0  0
  -20.7899  -25.8881   17.6508 N   0  3  0  0  0  0  0  0  0  0  0  0
  -22.1216  -14.1066   20.4444 O   0  0  0  0  0  0  0  0  0  0  0  0
  -30.5331  -25.2506   19.3764 O   0  0  0  0  0  0  0  0  0  0  0  0
  -24.3249  -30.7209   23.5110 O   0  0  0  0  0  0  0  0  0  0  0  0
  -21.1695  -30.4135   21.4755 O   0  0  0  0  0  0  0  0  0  0  0  0
  -22.2003  -25.9954   20.0830 O   0  0  0  0  0  0  0  0  0  0  0  0
  -30.8811  -16.0435   18.1244 O   0  0  0  0  0  0  0  0  0  0  0  0
  -23.4017   -8.4002   25.5810 O   0  0  0  0  0  0  0  0  0  0  0  0
  -28.9072  -27.1127   20.4306 O   0  0  0  0  0  0  0  0  0  1  0  0
  -18.6513   -5.6779   24.9273 F   0  0  0  0  0  0  0  0  0  0  0  0
  -23.3520   -5.6379   25.4816 F   0  0  0  0  0  0  0  0  0  0  0  0
  1  2  1  0  0  0  0
  1  6  2  0  0  0  0
  2  7  2  0  0  0  0
  3 10  2  0  0  0  0
  3 18  1  0  0  0  0
  4 11  1  0  0  0  0
  4 18  2  0  0  0  0
  5  9  2  0  0  0  0
  5 19  1  0  0  0  0
  6 21  1  0  0  0  0
  7 23  1  0  0  0  0
  8 12  2  0  0  0  0
  8 22  1  0  0  0  0
  9 26  1  0  0  0  0
 10 27  1  0  0  0  0
 11 27  2  0  0  0  0
 12 28  1  0  0  0  0
 13 14  2  0  0  0  0
 13 29  1  0  0  0  0
 14 30  1  0  0  0  0
 15 19  2  0  0  0  0
 15 25  1  0  0  0  0
 16 24  1  0  0  0  0
 16 28  2  0  0  0  0
 17 30  2  0  0  0  0
 17 31  1  0  0  0  0
 18 32  1  0  0  0  0
 19 34  1  0  0  0  0
 20 32  1  0  0  0  0
 20 33  2  0  0  0  0
 20 36  1  0  0  0  0
 21 23  2  0  0  0  0
 21 42  1  0  0  0  0
 22 24  2  0  0  0  0
 22 43  1  0  0  0  0
 23 51  1  0  0  0  0
 24 44  1  0  0  0  0
 25 26  2  0  0  0  0
 25 54  1  0  0  0  0
 26 70  1  0  0  0  0
 27 80  1  0  0  0  0
 28 81  1  0  0  0  0
 29 31  2  0  0  0  0
 29 80  1  0  0  0  0
 30 82  1  0  0  0  0
 31 83  1  0  0  0  0
 32 64  2  0  0  0  0
 33 65  1  0  0  0  0
 33 68  1  0  0  0  0
 34 35  2  0  0  0  0
 35 37  1  0  0  0  0
 36 69  1  0  0  0  0
 36 74  2  0  0  0  0
 37 60  1  0  0  0  0
 37 75  2  0  0  0  0
 38 52  1  0  0  0  0
 38 71  1  0  0  0  0
 38 76  2  0  0  0  0
 39 61  1  0  0  0  0
 39 66  1  0  0  0  0
 39 77  2  0  0  0  0
 40 62  1  0  0  0  0
 40 72  1  0  0  0  0
 40 78  2  0  0  0  0
 41 67  1  0  0  0  0
 41 70  1  0  0  0  0
 41 79  2  0  0  0  0
 42 45  1  0  0  0  0
 43 52  1  0  0  0  0
 44 66  1  0  0  0  0
 45 47  1  0  0  0  0
 46 48  1  0  0  0  0
 46 49  1  0  0  0  0
 47 51  1  0  0  0  0
 48 53  1  0  0  0  0
 49 67  1  0  0  0  0
 50 53  1  0  0  0  0
 50 67  1  0  0  0  0
 51 71  1  0  0  0  0
 52 66  1  0  0  0  0
 53 65  1  0  0  0  0
 55 62  1  0  0  0  0
 56 63  1  0  0  0  0
 57 63  1  0  0  0  0
 58 63  1  0  0  0  0
 59 73  1  0  0  0  0
 60 81  1  0  0  0  0
 61 63  1  0  0  0  0
 61 72  1  0  0  0  0
 62 73  1  0  0  0  0
 64 65  1  0  0  0  0
M  CHG  1  73   1
M  ISO  4  41 100  60 101  70 100  81 101
M  END
> <Batch ID>
0125

> <Smiles>
CNC(C)C(=O)NC(C(=O)N1Cc2cc([101O:1][101CH2:1]C(=O)C=Cc3ccc([100NH:0][100C:0](=O)N4CCCC(n5nc(-c6ccc(Oc7ccc(F)cc7F)cc6)c(C(N)=O)c5N)C4)c(C)c3)ccc2CC1C(=O)NC1CCCc2ccccc21)C(C)(C)C

> <Shape>
0.349

> <Color>
0.141

> <Negative vol penalty>
0.000

$$$$
