
  -OEChem-04052302113D

 86 94  0     1  0  0  0  0  0999 V2000
  -26.3973  -31.0603   15.5783 C   0  0  0  0  0  0  0  0  0  0  0  0
  -26.7162  -29.8997   16.2760 C   0  0  0  0  0  0  0  0  0  0  0  0
  -22.9493   -9.9483   20.0573 C   0  0  0  0  0  0  0  0  0  0  0  0
  -23.6434  -10.0885   22.3672 C   0  0  0  0  0  0  0  0  0  0  0  0
  -26.2882  -32.2729   16.2577 C   0  0  0  0  0  0  0  0  0  0  0  0
  -26.9272  -29.9512   17.6534 C   0  0  0  0  0  0  0  0  0  0  0  0
  -25.5037  -25.6367   21.7599 C   0  0  0  0  0  0  0  0  0  0  0  0
  -22.1599   -8.8394   20.3617 C   0  0  0  0  0  0  0  0  0  0  0  0
  -22.8539   -8.9796   22.6717 C   0  0  0  0  0  0  0  0  0  0  0  0
  -26.2616  -24.6421   22.3765 C   0  0  0  0  0  0  0  0  0  0  0  0
  -23.0476   -5.6195   22.3497 C   0  0  0  0  0  0  0  0  0  0  0  0
  -23.6072   -4.6268   23.1539 C   0  0  0  0  0  0  0  0  0  0  0  0
  -29.9127  -17.5188   22.9415 C   0  0  0  0  0  0  0  0  0  0  0  0
  -26.5969  -26.0858   24.2798 C   0  0  0  0  0  0  0  0  0  0  0  0
  -32.0824  -16.5622   22.4781 C   0  0  0  0  0  0  0  0  0  0  0  0
  -21.8648   -4.9715   24.7917 C   0  0  0  0  0  0  0  0  0  0  0  0
  -23.6911  -10.5728   21.0600 C   0  0  0  0  0  0  0  0  0  0  0  0
  -30.5042  -18.4436   23.8019 C   0  0  0  0  0  0  0  0  0  0  0  0
  -24.1218  -13.0716   20.7799 C   0  0  0  0  0  0  0  0  0  0  0  0
  -26.4885  -32.3377   17.6456 C   0  0  0  0  0  0  0  0  0  0  0  0
  -25.2955  -26.8694   22.3950 C   0  0  0  0  0  0  0  0  0  0  0  0
  -26.8220  -31.1661   18.3518 C   0  0  0  0  0  0  0  0  0  0  0  0
  -25.8338  -27.0935   23.6702 C   0  0  0  0  0  0  0  0  0  0  0  0
  -31.8848  -18.4278   24.0005 C   0  0  0  0  0  0  0  0  0  0  0  0
  -30.7018  -16.5780   22.2796 C   0  0  0  0  0  0  0  0  0  0  0  0
  -22.1122   -8.3550   21.6689 C   0  0  0  0  0  0  0  0  0  0  0  0
  -26.8107  -24.8676   23.6354 C   0  0  0  0  0  0  0  0  0  0  0  0
  -21.8966   -6.2883   22.7664 C   0  0  0  0  0  0  0  0  0  0  0  0
  -23.0158   -4.3028   24.3750 C   0  0  0  0  0  0  0  0  0  0  0  0
  -32.6739  -17.4871   23.3386 C   0  0  0  0  0  0  0  0  0  0  0  0
  -21.3052   -5.9643   23.9875 C   0  0  0  0  0  0  0  0  0  0  0  0
  -24.5072  -11.7180   20.7460 C   0  0  0  0  0  0  0  0  0  0  0  0
  -25.2487  -13.7591   20.4004 C   0  0  0  0  0  0  0  0  0  0  0  0
  -29.6358  -19.4389   24.4973 C   0  0  0  0  0  0  0  0  0  0  0  0
  -22.8582  -13.6553   21.1237 C   0  0  0  0  0  0  0  0  0  0  0  0
  -26.0302  -29.8891   21.7274 C   0  0  0  0  0  0  0  0  0  0  0  0
  -24.2353  -30.4990   24.3596 C   0  0  0  0  0  0  0  0  0  0  0  0
  -22.9521  -29.3751   27.3155 C   0  0  0  0  0  0  0  0  0  0  0  0
  -30.7401  -14.6390   20.6718 C   0  0  0  0  0  0  0  0  0  0  0  0
  -26.4062  -33.6796   18.3292 C   0  0  0  0  0  0  0  0  0  0  0  0
  -24.4532  -27.9221   21.7281 C   0  0  0  0  0  0  0  0  0  0  0  0
  -25.6226  -28.3922   24.4032 C   0  0  0  0  0  0  0  0  0  0  0  0
  -26.2769  -33.5830   19.8471 C   0  0  0  0  0  0  0  0  0  0  0  0
  -29.6122  -12.1051   18.4392 C   0  0  0  0  0  0  0  0  0  0  0  0
  -27.2849  -32.5840   20.4063 C   0  0  0  0  0  0  0  0  0  0  0  0
  -28.1518  -11.8899   18.8431 C   0  0  0  0  0  0  0  0  0  0  0  0
  -30.4999  -12.3866   19.6501 C   0  0  0  0  0  0  0  0  0  0  0  0
  -28.5802  -13.2647   20.9200 C   0  0  0  0  0  0  0  0  0  0  0  0
  -27.0339  -31.1771   19.8501 C   0  0  1  0  0  0  0  0  0  0  0  0
  -24.7355  -29.3293   22.2451 C   0  0  1  0  0  0  0  0  0  0  0  0
  -27.6359  -13.0421   19.7272 C   0  0  2  0  0  0  0  0  0  0  0  0
  -33.6166  -19.7608   27.1831 C   0  0  0  0  0  0  0  0  0  0  0  0
  -21.5548  -30.1144   29.2644 C   0  0  0  0  0  0  0  0  0  0  0  0
  -26.6039  -32.0802   25.4548 C   0  0  0  0  0  0  0  0  0  0  0  0
  -25.5375  -31.9765   27.7176 C   0  0  0  0  0  0  0  0  0  0  0  0
  -24.3725  -33.1404   25.8438 C   0  0  0  0  0  0  0  0  0  0  0  0
  -20.8975  -27.3152   26.7728 C   0  0  0  0  0  0  0  0  0  0  0  0
  -32.5411  -19.4076   24.9183 C   0  0  0  0  0  0  0  0  0  0  0  0
  -28.8090  -20.4003   23.6568 C   0  0  0  0  0  0  0  0  0  0  0  0
  -32.9189  -18.7713   26.2634 C   0  0  0  0  0  0  0  0  0  0  0  0
  -28.5934  -21.7407   24.3564 C   0  0  0  0  0  0  0  0  0  0  0  0
  -27.7259  -22.6753   23.5258 C   0  0  0  0  0  0  0  0  0  1  0  0
  -24.5124  -30.6160   25.8390 C   0  0  1  0  0  0  0  0  0  0  0  0
  -21.5521  -29.4469   27.8980 C   0  0  2  0  0  0  0  0  0  0  0  0
  -25.2624  -31.9294   26.1994 C   0  0  0  0  0  0  0  0  0  0  0  0
  -25.7795  -11.5533   20.3742 N   0  0  0  0  0  0  0  0  0  0  0  0
  -26.2033  -12.8124   20.1709 N   0  0  0  0  0  0  0  0  0  0  0  0
  -24.7970  -29.3927   23.7068 N   0  0  0  0  0  0  0  0  0  0  0  0
  -29.9516  -13.4925   20.4381 N   0  0  0  0  0  0  0  0  0  0  0  0
  -25.5062  -15.0750   20.2439 N   0  0  0  0  0  0  0  0  0  0  0  0
  -21.8068  -12.8042   21.4905 N   0  0  0  0  0  0  0  0  0  0  0  0
  -30.1014  -15.6383   21.4054 N   0  0  0  0  0  0  0  0  0  0  0  0
  -25.9125  -30.5595   20.5249 N   0  0  0  0  0  0  0  0  0  0  0  0
  -23.2259  -30.4594   26.5089 N   0  0  0  0  0  0  0  0  0  0  0  0
  -20.9813  -28.0781   28.0448 N   0  3  0  0  0  0  0  0  0  0  0  0
  -29.6093  -19.4573   25.7258 O   0  0  0  0  0  0  0  0  0  0  0  0
  -22.6623  -14.8938   21.0903 O   0  0  0  0  0  0  0  0  0  0  0  0
  -27.0596  -29.7261   22.3720 O   0  0  0  0  0  0  0  0  0  0  0  0
  -23.5399  -31.3539   23.8052 O   0  0  0  0  0  0  0  0  0  0  0  0
  -23.7267  -28.4515   27.5551 O   0  0  0  0  0  0  0  0  0  0  0  0
  -31.8871  -14.7391   20.2287 O   0  0  0  0  0  0  0  0  0  0  0  0
  -21.3418   -7.2731   21.9665 O   0  0  0  0  0  0  0  0  0  0  0  0
  -27.5514  -23.8988   24.2391 O   0  0  0  0  0  0  0  0  0  1  0  0
  -23.5525   -3.3483   25.1465 F   0  0  0  0  0  0  0  0  0  0  0  0
  -34.0014  -17.4627   23.5228 F   0  0  0  0  0  0  0  0  0  0  0  0
  -20.1987   -6.6025   24.3926 F   0  0  0  0  0  0  0  0  0  0  0  0
  1  2  1  0  0  0  0
  1  5  2  0  0  0  0
  2  6  2  0  0  0  0
  3  8  2  0  0  0  0
  3 17  1  0  0  0  0
  4  9  1  0  0  0  0
  4 17  2  0  0  0  0
  5 20  1  0  0  0  0
  6 22  1  0  0  0  0
  7 10  2  0  0  0  0
  7 21  1  0  0  0  0
  8 26  1  0  0  0  0
  9 26  2  0  0  0  0
 10 27  1  0  0  0  0
 11 12  2  0  0  0  0
 11 28  1  0  0  0  0
 12 29  1  0  0  0  0
 13 18  1  0  0  0  0
 13 25  2  0  0  0  0
 14 23  1  0  0  0  0
 14 27  2  0  0  0  0
 15 25  1  0  0  0  0
 15 30  2  0  0  0  0
 16 29  2  0  0  0  0
 16 31  1  0  0  0  0
 17 32  1  0  0  0  0
 18 24  2  0  0  0  0
 18 34  1  0  0  0  0
 19 32  1  0  0  0  0
 19 33  2  0  0  0  0
 19 35  1  0  0  0  0
 20 22  2  0  0  0  0
 20 40  1  0  0  0  0
 21 23  2  0  0  0  0
 21 41  1  0  0  0  0
 22 49  1  0  0  0  0
 23 42  1  0  0  0  0
 24 30  1  0  0  0  0
 24 58  1  0  0  0  0
 25 72  1  0  0  0  0
 26 82  1  0  0  0  0
 27 83  1  0  0  0  0
 28 31  2  0  0  0  0
 28 82  1  0  0  0  0
 29 84  1  0  0  0  0
 30 85  1  0  0  0  0
 31 86  1  0  0  0  0
 32 66  2  0  0  0  0
 33 67  1  0  0  0  0
 33 70  1  0  0  0  0
 34 59  1  0  0  0  0
 34 76  2  0  0  0  0
 35 71  1  0  0  0  0
 35 77  2  0  0  0  0
 36 50  1  0  0  0  0
 36 73  1  0  0  0  0
 36 78  2  0  0  0  0
 37 63  1  0  0  0  0
 37 68  1  0  0  0  0
 37 79  2  0  0  0  0
 38 64  1  0  0  0  0
 38 74  1  0  0  0  0
 38 80  2  0  0  0  0
 39 69  1  0  0  0  0
 39 72  1  0  0  0  0
 39 81  2  0  0  0  0
 40 43  1  0  0  0  0
 41 50  1  0  0  0  0
 42 68  1  0  0  0  0
 43 45  1  0  0  0  0
 44 46  1  0  0  0  0
 44 47  1  0  0  0  0
 45 49  1  0  0  0  0
 46 51  1  0  0  0  0
 47 69  1  0  0  0  0
 48 51  1  0  0  0  0
 48 69  1  0  0  0  0
 49 73  1  0  0  0  0
 50 68  1  0  0  0  0
 51 67  1  0  0  0  0
 52 60  1  0  0  0  0
 53 64  1  0  0  0  0
 54 65  1  0  0  0  0
 55 65  1  0  0  0  0
 56 65  1  0  0  0  0
 57 75  1  0  0  0  0
 58 60  1  0  0  0  0
 59 61  1  0  0  0  0
 61 62  1  0  0  0  0
 62 83  1  0  0  0  0
 63 65  1  0  0  0  0
 63 74  1  0  0  0  0
 64 75  1  0  0  0  0
 66 67  1  0  0  0  0
M  CHG  1  75   1
M  ISO  4  39 100  62 101  72 100  83 101
M  END
> <Batch ID>
0126

> <Smiles>
CCCc1c(F)cc([100NH:0][100C:0](=O)N2CCCC(n3nc(-c4ccc(Oc5ccc(F)cc5F)cc4)c(C(N)=O)c3N)C2)cc1C(=O)CC[101CH2:1][101O:1]c1ccc2c(c1)CN(C(=O)C(NC(=O)C(C)NC)C(C)(C)C)C(C(=O)NC1CCCc3ccccc31)C2

> <Shape>
0.247

> <Color>
0.209

> <Negative vol penalty>
0.000

$$$$

  -OEChem-04052302113D

 84 92  0     1  0  0  0  0  0999 V2000
  -21.3898  -27.6687   22.5062 C   0  0  0  0  0  0  0  0  0  0  0  0
  -22.4059  -26.8191   22.9319 C   0  0  0  0  0  0  0  0  0  0  0  0
  -23.0069  -10.0068   19.9440 C   0  0  0  0  0  0  0  0  0  0  0  0
  -23.8130   -9.9299   22.2203 C   0  0  0  0  0  0  0  0  0  0  0  0
  -21.6931  -28.7721   21.7097 C   0  0  0  0  0  0  0  0  0  0  0  0
  -23.7259  -27.0718   22.5602 C   0  0  0  0  0  0  0  0  0  0  0  0
  -26.9613  -26.5733   26.4240 C   0  0  0  0  0  0  0  0  0  0  0  0
  -22.2328   -8.8707   20.1798 C   0  0  0  0  0  0  0  0  0  0  0  0
  -23.0389   -8.7938   22.4561 C   0  0  0  0  0  0  0  0  0  0  0  0
  -27.3203  -25.2770   26.7906 C   0  0  0  0  0  0  0  0  0  0  0  0
  -19.8004   -8.0793   23.1058 C   0  0  0  0  0  0  0  0  0  0  0  0
  -19.0665   -8.0316   24.2910 C   0  0  0  0  0  0  0  0  0  0  0  0
  -32.1700  -18.0929   24.2227 C   0  0  0  0  0  0  0  0  0  0  0  0
  -29.3888  -25.5115   25.5717 C   0  0  0  0  0  0  0  0  0  0  0  0
  -32.2513  -16.3824   22.5184 C   0  0  0  0  0  0  0  0  0  0  0  0
  -20.2618   -6.0383   24.9509 C   0  0  0  0  0  0  0  0  0  0  0  0
  -23.7971  -10.5364   20.9642 C   0  0  0  0  0  0  0  0  0  0  0  0
  -30.7804  -18.1386   24.1107 C   0  0  0  0  0  0  0  0  0  0  0  0
  -24.2147  -13.0522   20.9022 C   0  0  0  0  0  0  0  0  0  0  0  0
  -23.0187  -29.0439   21.3361 C   0  0  0  0  0  0  0  0  0  0  0  0
  -27.8099  -27.3458   25.6180 C   0  0  0  0  0  0  0  0  0  0  0  0
  -24.0471  -28.1791   21.7568 C   0  0  0  0  0  0  0  0  0  0  0  0
  -29.0394  -26.8182   25.1983 C   0  0  0  0  0  0  0  0  0  0  0  0
  -30.1262  -17.3062   23.2025 C   0  0  0  0  0  0  0  0  0  0  0  0
  -30.8617  -16.4281   22.4064 C   0  0  0  0  0  0  0  0  0  0  0  0
  -22.2488   -8.2642   21.4358 C   0  0  0  0  0  0  0  0  0  0  0  0
  -28.5329  -24.7448   26.3621 C   0  0  0  0  0  0  0  0  0  0  0  0
  -20.7650   -7.1065   22.8431 C   0  0  0  0  0  0  0  0  0  0  0  0
  -19.2972   -7.0111   25.2135 C   0  0  0  0  0  0  0  0  0  0  0  0
  -32.9055  -17.2148   23.4266 C   0  0  0  0  0  0  0  0  0  0  0  0
  -20.9957   -6.0861   23.7656 C   0  0  0  0  0  0  0  0  0  0  0  0
  -24.5974  -11.7096   20.7211 C   0  0  0  0  0  0  0  0  0  0  0  0
  -25.3220  -13.7773   20.5354 C   0  0  0  0  0  0  0  0  0  0  0  0
  -30.0359  -19.0791   24.9666 C   0  0  0  0  0  0  0  0  0  0  0  0
  -30.2176  -20.4070   24.9758 C   0  0  0  0  0  0  0  0  0  0  0  0
  -22.9696  -13.5953   21.3610 C   0  0  0  0  0  0  0  0  0  0  0  0
  -29.4171  -21.2729   25.8897 C   0  0  0  0  0  0  0  0  0  0  0  0
  -27.5752  -28.6711   22.7384 C   0  0  0  0  0  0  0  0  0  0  0  0
  -30.4491  -29.9544   23.5233 C   0  0  0  0  0  0  0  0  0  0  0  0
  -33.2991  -29.7536   25.3899 C   0  0  0  0  0  0  0  0  0  0  0  0
  -30.8205  -14.6506   20.6216 C   0  0  0  0  0  0  0  0  0  0  0  0
  -23.2919  -30.2219   20.4348 C   0  0  0  0  0  0  0  0  0  0  0  0
  -27.4201  -28.7521   25.2534 C   0  0  0  0  0  0  0  0  0  0  0  0
  -29.9951  -27.6138   24.3486 C   0  0  0  0  0  0  0  0  0  0  0  0
  -24.7622  -30.6308   20.3957 C   0  0  0  0  0  0  0  0  0  0  0  0
  -29.5838  -12.3353   18.2160 C   0  0  0  0  0  0  0  0  0  0  0  0
  -25.6527  -29.4050   20.2190 C   0  0  0  0  0  0  0  0  0  0  0  0
  -28.1448  -12.0766   18.6681 C   0  0  0  0  0  0  0  0  0  0  0  0
  -30.5298  -12.5043   19.4035 C   0  0  0  0  0  0  0  0  0  0  0  0
  -28.6747  -13.2498   20.8429 C   0  0  0  0  0  0  0  0  0  0  0  0
  -25.4943  -28.4338   21.3951 C   0  0  1  0  0  0  0  0  0  0  0  0
  -28.1292  -29.2635   24.0032 C   0  0  1  0  0  0  0  0  0  0  0  0
  -27.6732  -13.1376   19.6818 C   0  0  2  0  0  0  0  0  0  0  0  0
  -28.6339  -17.3503   23.0763 C   0  0  0  0  0  0  0  0  0  0  0  0
  -35.4818  -30.9270   25.7851 C   0  0  0  0  0  0  0  0  0  0  0  0
  -31.5299  -28.8205   20.9049 C   0  0  0  0  0  0  0  0  0  0  0  0
  -33.8456  -29.1788   21.7865 C   0  0  0  0  0  0  0  0  0  0  0  0
  -32.3257  -31.1279   21.4498 C   0  0  0  0  0  0  0  0  0  0  0  0
  -32.6472  -30.2560   28.2327 C   0  0  0  0  0  0  0  0  0  0  0  0
  -29.7128  -22.7556   25.8082 C   0  0  0  0  0  0  0  0  0  1  0  0
  -31.8891  -29.5313   23.3609 C   0  0  1  0  0  0  0  0  0  0  0  0
  -34.0322  -30.7889   26.2236 C   0  0  2  0  0  0  0  0  0  0  0  0
  -32.3789  -29.6487   21.8899 C   0  0  0  0  0  0  0  0  0  0  0  0
  -25.8499  -11.5863   20.2739 N   0  0  0  0  0  0  0  0  0  0  0  0
  -26.2639  -12.8607   20.1708 N   0  0  0  0  0  0  0  0  0  0  0  0
  -29.5661  -28.9816   24.0131 N   0  0  0  0  0  0  0  0  0  0  0  0
  -30.0210  -13.5281   20.3188 N   0  0  0  0  0  0  0  0  0  0  0  0
  -25.5722  -15.1032   20.4923 N   0  0  0  0  0  0  0  0  0  0  0  0
  -21.9370  -12.7089   21.6960 N   0  0  0  0  0  0  0  0  0  0  0  0
  -30.2189  -15.5730   21.4771 N   0  0  0  0  0  0  0  0  0  0  0  0
  -26.2279  -28.9117   22.5474 N   0  0  0  0  0  0  0  0  0  0  0  0
  -32.6580  -30.3266   24.3120 N   0  0  0  0  0  0  0  0  0  0  0  0
  -34.0113  -30.4040   27.6632 N   0  3  0  0  0  0  0  0  0  0  0  0
  -22.7729  -14.8306   21.4550 O   0  0  0  0  0  0  0  0  0  0  0  0
  -28.5755  -20.8107   26.6552 O   0  0  0  0  0  0  0  0  0  0  0  0
  -28.3156  -28.0435   21.9903 O   0  0  0  0  0  0  0  0  0  0  0  0
  -30.1213  -31.1077   23.2333 O   0  0  0  0  0  0  0  0  0  0  0  0
  -33.2985  -28.5557   25.6651 O   0  0  0  0  0  0  0  0  0  0  0  0
  -31.9445  -14.7970   20.1348 O   0  0  0  0  0  0  0  0  0  0  0  0
  -21.4933   -7.1557   21.6663 O   0  0  0  0  0  0  0  0  0  0  0  0
  -28.8854  -23.4795   26.7180 O   0  0  0  0  0  0  0  0  0  1  0  0
  -18.5934   -6.9663   26.3523 F   0  0  0  0  0  0  0  0  0  0  0  0
  -34.2398  -17.1704   23.5348 F   0  0  0  0  0  0  0  0  0  0  0  0
  -21.9218   -5.1494   23.5193 F   0  0  0  0  0  0  0  0  0  0  0  0
  1  2  1  0  0  0  0
  1  5  2  0  0  0  0
  2  6  2  0  0  0  0
  3  8  2  0  0  0  0
  3 17  1  0  0  0  0
  4  9  1  0  0  0  0
  4 17  2  0  0  0  0
  5 20  1  0  0  0  0
  6 22  1  0  0  0  0
  7 10  2  0  0  0  0
  7 21  1  0  0  0  0
  8 26  1  0  0  0  0
  9 26  2  0  0  0  0
 10 27  1  0  0  0  0
 11 12  2  0  0  0  0
 11 28  1  0  0  0  0
 12 29  1  0  0  0  0
 13 18  1  0  0  0  0
 13 30  2  0  0  0  0
 14 23  1  0  0  0  0
 14 27  2  0  0  0  0
 15 25  2  0  0  0  0
 15 30  1  0  0  0  0
 16 29  2  0  0  0  0
 16 31  1  0  0  0  0
 17 32  1  0  0  0  0
 18 24  2  0  0  0  0
 18 34  1  0  0  0  0
 19 32  1  0  0  0  0
 19 33  2  0  0  0  0
 19 36  1  0  0  0  0
 20 22  2  0  0  0  0
 20 42  1  0  0  0  0
 21 23  2  0  0  0  0
 21 43  1  0  0  0  0
 22 51  1  0  0  0  0
 23 44  1  0  0  0  0
 24 25  1  0  0  0  0
 24 54  1  0  0  0  0
 25 70  1  0  0  0  0
 26 80  1  0  0  0  0
 27 81  1  0  0  0  0
 28 31  2  0  0  0  0
 28 80  1  0  0  0  0
 29 82  1  0  0  0  0
 30 83  1  0  0  0  0
 31 84  1  0  0  0  0
 32 64  2  0  0  0  0
 33 65  1  0  0  0  0
 33 68  1  0  0  0  0
 34 35  2  0  0  0  0
 35 37  1  0  0  0  0
 36 69  1  0  0  0  0
 36 74  2  0  0  0  0
 37 60  1  0  0  0  0
 37 75  2  0  0  0  0
 38 52  1  0  0  0  0
 38 71  1  0  0  0  0
 38 76  2  0  0  0  0
 39 61  1  0  0  0  0
 39 66  1  0  0  0  0
 39 77  2  0  0  0  0
 40 62  1  0  0  0  0
 40 72  1  0  0  0  0
 40 78  2  0  0  0  0
 41 67  1  0  0  0  0
 41 70  1  0  0  0  0
 41 79  2  0  0  0  0
 42 45  1  0  0  0  0
 43 52  1  0  0  0  0
 44 66  1  0  0  0  0
 45 47  1  0  0  0  0
 46 48  1  0  0  0  0
 46 49  1  0  0  0  0
 47 51  1  0  0  0  0
 48 53  1  0  0  0  0
 49 67  1  0  0  0  0
 50 53  1  0  0  0  0
 50 67  1  0  0  0  0
 51 71  1  0  0  0  0
 52 66  1  0  0  0  0
 53 65  1  0  0  0  0
 55 62  1  0  0  0  0
 56 63  1  0  0  0  0
 57 63  1  0  0  0  0
 58 63  1  0  0  0  0
 59 73  1  0  0  0  0
 60 81  1  0  0  0  0
 61 63  1  0  0  0  0
 61 72  1  0  0  0  0
 62 73  1  0  0  0  0
 64 65  1  0  0  0  0
M  CHG  1  73   1
M  ISO  4  41 100  60 101  70 100  81 101
M  END
> <Batch ID>
0126

> <Smiles>
CNC(C)C(=O)NC(C(=O)N1Cc2cc([101O:1][101CH2:1]C(=O)C=Cc3cc(F)cc([100NH:0][100C:0](=O)N4CCCC(n5nc(-c6ccc(Oc7ccc(F)cc7F)cc6)c(C(N)=O)c5N)C4)c3C)ccc2CC1C(=O)NC1CCCc2ccccc21)C(C)(C)C

> <Shape>
0.237

> <Color>
0.205

> <Negative vol penalty>
0.000

$$$$

  -OEChem-04052302113D

 85 93  0     1  0  0  0  0  0999 V2000
  -26.6143  -39.9982   24.8651 C   0  0  0  0  0  0  0  0  0  0  0  0
  -27.3728  -39.2744   23.9507 C   0  0  0  0  0  0  0  0  0  0  0  0
  -24.5001   -9.0496   22.0013 C   0  0  0  0  0  0  0  0  0  0  0  0
  -24.0851   -8.6238   19.6596 C   0  0  0  0  0  0  0  0  0  0  0  0
  -29.9014  -21.4021   19.7075 C   0  0  0  0  0  0  0  0  0  0  0  0
  -29.5231  -20.0822   19.9531 C   0  0  0  0  0  0  0  0  0  0  0  0
  -26.0255  -39.3490   25.9495 C   0  0  0  0  0  0  0  0  0  0  0  0
  -27.5439  -37.9010   24.1207 C   0  0  0  0  0  0  0  0  0  0  0  0
  -28.3281  -31.8632   20.3463 C   0  0  0  0  0  0  0  0  0  0  0  0
  -23.3368   -8.3555   22.3337 C   0  0  0  0  0  0  0  0  0  0  0  0
  -22.9218   -7.9296   19.9920 C   0  0  0  0  0  0  0  0  0  0  0  0
  -29.1728  -30.7588   20.2444 C   0  0  0  0  0  0  0  0  0  0  0  0
  -22.3579   -5.1328   22.6311 C   0  0  0  0  0  0  0  0  0  0  0  0
  -22.4257   -4.2209   23.6843 C   0  0  0  0  0  0  0  0  0  0  0  0
  -28.9926  -22.0608   21.8469 C   0  0  0  0  0  0  0  0  0  0  0  0
  -28.0432  -29.7301   22.1112 C   0  0  0  0  0  0  0  0  0  0  0  0
  -20.7361   -5.4712   24.8756 C   0  0  0  0  0  0  0  0  0  0  0  0
  -24.8743   -9.1838   20.6642 C   0  0  0  0  0  0  0  0  0  0  0  0
  -29.6362  -22.3914   20.6544 C   0  0  0  0  0  0  0  0  0  0  0  0
  -28.8795  -19.7516   21.1457 C   0  0  0  0  0  0  0  0  0  0  0  0
  -27.3730   -9.3716   20.1863 C   0  0  0  0  0  0  0  0  0  0  0  0
  -26.1815  -37.9653   26.1275 C   0  0  0  0  0  0  0  0  0  0  0  0
  -27.3400  -31.9143   21.3400 C   0  0  0  0  0  0  0  0  0  0  0  0
  -26.9578  -37.2329   25.2092 C   0  0  0  0  0  0  0  0  0  0  0  0
  -27.1855  -30.8352   22.2220 C   0  0  0  0  0  0  0  0  0  0  0  0
  -28.6142  -20.7409   22.0926 C   0  0  0  0  0  0  0  0  0  0  0  0
  -22.5476   -7.7955   21.3291 C   0  0  0  0  0  0  0  0  0  0  0  0
  -29.0324  -29.6932   21.1287 C   0  0  0  0  0  0  0  0  0  0  0  0
  -21.4793   -6.2139   22.7000 C   0  0  0  0  0  0  0  0  0  0  0  0
  -21.6148   -4.3900   24.8066 C   0  0  0  0  0  0  0  0  0  0  0  0
  -20.6683   -6.3831   23.8223 C   0  0  0  0  0  0  0  0  0  0  0  0
  -26.0755   -9.9011   20.3201 C   0  0  0  0  0  0  0  0  0  0  0  0
  -28.1519  -10.4521   19.8509 C   0  0  0  0  0  0  0  0  0  0  0  0
  -30.0355  -23.7857   20.3936 C   0  0  0  0  0  0  0  0  0  0  0  0
  -28.4971  -18.3642   21.3731 C   0  0  0  0  0  0  0  0  0  0  0  0
  -29.5178  -24.8545   21.0149 C   0  0  0  0  0  0  0  0  0  0  0  0
  -27.6754  -17.6415   20.5849 C   0  0  0  0  0  0  0  0  0  0  0  0
  -27.8331   -8.0236   20.3503 C   0  0  0  0  0  0  0  0  0  0  0  0
  -29.9851  -26.2287   20.6703 C   0  0  0  0  0  0  0  0  0  0  0  0
  -27.3910  -16.2379   20.9451 C   0  0  0  0  0  0  0  0  0  0  0  0
  -26.7440  -33.8177   23.8149 C   0  0  0  0  0  0  0  0  0  0  0  0
  -24.0391  -32.0404   24.0318 C   0  0  0  0  0  0  0  0  0  0  0  0
  -22.4429  -29.0999   23.3593 C   0  0  0  0  0  0  0  0  0  0  0  0
  -25.5653  -37.3155   27.3411 C   0  0  0  0  0  0  0  0  0  0  0  0
  -26.4193  -33.1010   21.4197 C   0  0  0  0  0  0  0  0  0  0  0  0
  -26.1272  -30.8321   23.2936 C   0  0  0  0  0  0  0  0  0  0  0  0
  -25.4843  -35.7943   27.2425 C   0  0  0  0  0  0  0  0  0  0  0  0
  -27.9546  -14.6905   17.6710 C   0  0  0  0  0  0  0  0  0  0  0  0
  -26.8087  -35.2201   26.7494 C   0  0  0  0  0  0  0  0  0  0  0  0
  -27.6040  -13.2353   17.9698 C   0  0  0  0  0  0  0  0  0  0  0  0
  -27.0936  -15.6628   18.4759 C   0  0  0  0  0  0  0  0  0  0  0  0
  -26.7765  -13.9566   20.2447 C   0  0  0  0  0  0  0  0  0  0  0  0
  -27.1459  -35.7375   25.3458 C   0  0  1  0  0  0  0  0  0  0  0  0
  -25.7837  -33.2727   22.7959 C   0  0  1  0  0  0  0  0  0  0  0  0
  -27.6627  -12.9604   19.4807 C   0  0  1  0  0  0  0  0  0  0  0  0
  -26.4230  -20.2340   23.2008 C   0  0  0  0  0  0  0  0  0  0  0  0
  -20.2493  -27.9278   23.6940 C   0  0  0  0  0  0  0  0  0  0  0  0
  -24.7673  -31.5154   26.9479 C   0  0  0  0  0  0  0  0  0  0  0  0
  -23.1196  -29.6304   26.9474 C   0  0  0  0  0  0  0  0  0  0  0  0
  -22.3408  -31.9655   26.5434 C   0  0  0  0  0  0  0  0  0  0  0  0
  -21.9851  -28.8766   20.4439 C   0  0  0  0  0  0  0  0  0  0  0  0
  -27.9255  -20.4233   23.3810 C   0  0  0  0  0  0  0  0  0  0  0  0
  -29.3259  -27.3538   21.4398 C   0  0  0  0  0  0  0  0  0  1  0  0
  -23.6508  -30.7670   24.7436 C   0  0  1  0  0  0  0  0  0  0  0  0
  -21.0750  -28.8083   22.7690 C   0  0  2  0  0  0  0  0  0  0  0  0
  -23.4909  -30.9702   26.2767 C   0  0  0  0  0  0  0  0  0  0  0  0
  -26.0288  -11.2158   20.0888 N   0  0  0  0  0  0  0  0  0  0  0  0
  -27.3066  -11.5215   19.8063 N   0  0  0  0  0  0  0  0  0  0  0  0
  -27.1195  -15.3436   19.9112 N   0  0  0  0  0  0  0  0  0  0  0  0
  -25.2556  -32.0179   23.3351 N   0  0  0  0  0  0  0  0  0  0  0  0
  -29.4706  -10.5822   19.5927 N   0  0  0  0  0  0  0  0  0  0  0  0
  -26.9000   -7.0366   20.6960 N   0  0  0  0  0  0  0  0  0  0  0  0
  -26.3674  -35.0357   24.3479 N   0  0  0  0  0  0  0  0  0  0  0  0
  -22.4489  -30.2771   24.0772 N   0  0  0  0  0  0  0  0  0  0  0  0
  -21.2141  -28.1127   21.4584 N   0  3  0  0  0  0  0  0  0  0  0  0
  -29.0388   -7.7068   20.2111 O   0  0  0  0  0  0  0  0  0  0  0  0
  -30.8472  -26.4303   19.8192 O   0  0  0  0  0  0  0  0  0  0  0  0
  -27.4063  -15.9437   22.1417 O   0  0  0  0  0  0  0  0  0  0  0  0
  -27.7512  -33.1797   24.0978 O   0  0  0  0  0  0  0  0  0  0  0  0
  -23.2872  -33.0168   24.0858 O   0  0  0  0  0  0  0  0  0  0  0  0
  -23.4084  -28.3557   23.2027 O   0  0  0  0  0  0  0  0  0  0  0  0
  -21.4125   -7.1180   21.6532 O   0  0  0  0  0  0  0  0  0  0  0  0
  -29.8560  -28.6143   21.0318 O   0  0  0  0  0  0  0  0  0  1  0  0
  -21.6789   -3.5134   25.8173 F   0  0  0  0  0  0  0  0  0  0  0  0
  -19.8214   -7.4191   23.8937 F   0  0  0  0  0  0  0  0  0  0  0  0
  1  2  1  0  0  0  0
  1  7  2  0  0  0  0
  2  8  2  0  0  0  0
  3 10  2  0  0  0  0
  3 18  1  0  0  0  0
  4 11  1  0  0  0  0
  4 18  2  0  0  0  0
  5  6  2  0  0  0  0
  5 19  1  0  0  0  0
  6 20  1  0  0  0  0
  7 22  1  0  0  0  0
  8 24  1  0  0  0  0
  9 12  2  0  0  0  0
  9 23  1  0  0  0  0
 10 27  1  0  0  0  0
 11 27  2  0  0  0  0
 12 28  1  0  0  0  0
 13 14  2  0  0  0  0
 13 29  1  0  0  0  0
 14 30  1  0  0  0  0
 15 19  2  0  0  0  0
 15 26  1  0  0  0  0
 16 25  1  0  0  0  0
 16 28  2  0  0  0  0
 17 30  2  0  0  0  0
 17 31  1  0  0  0  0
 18 32  1  0  0  0  0
 19 34  1  0  0  0  0
 20 26  2  0  0  0  0
 20 35  1  0  0  0  0
 21 32  1  0  0  0  0
 21 33  2  0  0  0  0
 21 38  1  0  0  0  0
 22 24  2  0  0  0  0
 22 44  1  0  0  0  0
 23 25  2  0  0  0  0
 23 45  1  0  0  0  0
 24 53  1  0  0  0  0
 25 46  1  0  0  0  0
 26 62  1  0  0  0  0
 27 82  1  0  0  0  0
 28 83  1  0  0  0  0
 29 31  2  0  0  0  0
 29 82  1  0  0  0  0
 30 84  1  0  0  0  0
 31 85  1  0  0  0  0
 32 67  2  0  0  0  0
 33 68  1  0  0  0  0
 33 71  1  0  0  0  0
 34 36  2  0  0  0  0
 35 37  2  0  0  0  0
 36 39  1  0  0  0  0
 37 40  1  0  0  0  0
 38 72  1  0  0  0  0
 38 76  2  0  0  0  0
 39 63  1  0  0  0  0
 39 77  2  0  0  0  0
 40 69  1  0  0  0  0
 40 78  2  0  0  0  0
 41 54  1  0  0  0  0
 41 73  1  0  0  0  0
 41 79  2  0  0  0  0
 42 64  1  0  0  0  0
 42 70  1  0  0  0  0
 42 80  2  0  0  0  0
 43 65  1  0  0  0  0
 43 74  1  0  0  0  0
 43 81  2  0  0  0  0
 44 47  1  0  0  0  0
 45 54  1  0  0  0  0
 46 70  1  0  0  0  0
 47 49  1  0  0  0  0
 48 50  1  0  0  0  0
 48 51  1  0  0  0  0
 49 53  1  0  0  0  0
 50 55  1  0  0  0  0
 51 69  1  0  0  0  0
 52 55  1  0  0  0  0
 52 69  1  0  0  0  0
 53 73  1  0  0  0  0
 54 70  1  0  0  0  0
 55 68  1  0  0  0  0
 56 62  1  0  0  0  0
 57 65  1  0  0  0  0
 58 66  1  0  0  0  0
 59 66  1  0  0  0  0
 60 66  1  0  0  0  0
 61 75  1  0  0  0  0
 63 83  1  0  0  0  0
 64 66  1  0  0  0  0
 64 74  1  0  0  0  0
 65 75  1  0  0  0  0
 67 68  1  0  0  0  0
M  CHG  1  75   1
M  ISO  4  37 100  40 100  63 101  83 101
M  END
> <Batch ID>
0126

> <Smiles>
CCc1cc(C=CC(=O)[101CH2:1][101O:1]c2ccc3c(c2)CN(C(=O)C(NC(=O)C(C)NC)C(C)(C)C)C(C(=O)NC2CCCc4ccccc42)C3)ccc1C=[100CH:0][100C:0](=O)N1CCCC(n2nc(-c3ccc(Oc4ccc(F)cc4F)cc3)c(C(N)=O)c2N)C1

> <Shape>
0.303

> <Color>
0.090

> <Negative vol penalty>
0.000

$$$$

  -OEChem-04052302113D

 84 92  0     1  0  0  0  0  0999 V2000
  -28.2191  -36.3772   20.6443 C   0  0  0  0  0  0  0  0  0  0  0  0
  -28.4847  -35.0209   20.8042 C   0  0  0  0  0  0  0  0  0  0  0  0
  -24.3854   -9.3934   22.1131 C   0  0  0  0  0  0  0  0  0  0  0  0
  -24.3087   -8.7727   19.7794 C   0  0  0  0  0  0  0  0  0  0  0  0
  -27.0658  -36.9306   21.1987 C   0  0  0  0  0  0  0  0  0  0  0  0
  -27.5975  -34.2175   21.5196 C   0  0  0  0  0  0  0  0  0  0  0  0
  -26.6641  -29.8127   19.2022 C   0  0  0  0  0  0  0  0  0  0  0  0
  -23.2467   -8.6250   22.3549 C   0  0  0  0  0  0  0  0  0  0  0  0
  -23.1699   -8.0042   20.0213 C   0  0  0  0  0  0  0  0  0  0  0  0
  -27.6368  -28.8194   19.3070 C   0  0  0  0  0  0  0  0  0  0  0  0
  -22.4919   -5.3573   22.7851 C   0  0  0  0  0  0  0  0  0  0  0  0
  -22.4948   -4.5295   23.9078 C   0  0  0  0  0  0  0  0  0  0  0  0
  -27.9829  -20.8096   19.6351 C   0  0  0  0  0  0  0  0  0  0  0  0
  -28.2864  -21.2316   21.9945 C   0  0  0  0  0  0  0  0  0  0  0  0
  -26.3512  -27.7526   21.0473 C   0  0  0  0  0  0  0  0  0  0  0  0
  -20.5741   -5.7067   24.7808 C   0  0  0  0  0  0  0  0  0  0  0  0
  -24.9164   -9.4673   20.8253 C   0  0  0  0  0  0  0  0  0  0  0  0
  -27.9912  -20.3522   20.9527 C   0  0  0  0  0  0  0  0  0  0  0  0
  -28.5652  -23.0259   20.4008 C   0  0  0  0  0  0  0  0  0  0  0  0
  -27.4336   -9.8390   20.6427 C   0  0  0  0  0  0  0  0  0  0  0  0
  -26.1591  -36.1317   21.9131 C   0  0  0  0  0  0  0  0  0  0  0  0
  -25.5310  -29.7893   20.0281 C   0  0  0  0  0  0  0  0  0  0  0  0
  -26.4316  -34.7611   22.0853 C   0  0  0  0  0  0  0  0  0  0  0  0
  -25.3644  -28.7454   20.9492 C   0  0  0  0  0  0  0  0  0  0  0  0
  -28.2700  -22.1465   19.3591 C   0  0  0  0  0  0  0  0  0  0  0  0
  -22.6390   -7.9304   21.3091 C   0  0  0  0  0  0  0  0  0  0  0  0
  -27.4819  -27.7907   20.2317 C   0  0  0  0  0  0  0  0  0  0  0  0
  -21.5301   -6.3599   22.6603 C   0  0  0  0  0  0  0  0  0  0  0  0
  -21.5360   -4.7042   24.9056 C   0  0  0  0  0  0  0  0  0  0  0  0
  -28.5735  -22.5684   21.7185 C   0  0  0  0  0  0  0  0  0  0  0  0
  -20.5712   -6.5345   23.6582 C   0  0  0  0  0  0  0  0  0  0  0  0
  -26.0923  -10.2613   20.5747 C   0  0  0  0  0  0  0  0  0  0  0  0
  -28.1625  -10.9576   20.3203 C   0  0  0  0  0  0  0  0  0  0  0  0
  -27.6925  -18.9579   21.2407 C   0  0  0  0  0  0  0  0  0  0  0  0
  -27.0371  -18.1115   20.4182 C   0  0  0  0  0  0  0  0  0  0  0  0
  -28.8762  -24.4590   20.1302 C   0  0  0  0  0  0  0  0  0  0  0  0
  -27.9724   -8.5508   20.9681 C   0  0  0  0  0  0  0  0  0  0  0  0
  -26.8190  -16.7166   20.8512 C   0  0  0  0  0  0  0  0  0  0  0  0
  -24.3310  -31.7255   22.2450 C   0  0  0  0  0  0  0  0  0  0  0  0
  -21.8512  -29.6357   22.1711 C   0  0  0  0  0  0  0  0  0  0  0  0
  -20.7352  -26.4877   21.4700 C   0  0  0  0  0  0  0  0  0  0  0  0
  -24.9497  -36.7843   22.5345 C   0  0  0  0  0  0  0  0  0  0  0  0
  -24.4779  -30.8535   19.8841 C   0  0  0  0  0  0  0  0  0  0  0  0
  -24.1563  -28.6635   21.8450 C   0  0  0  0  0  0  0  0  0  0  0  0
  -23.8717  -35.7902   22.9588 C   0  0  0  0  0  0  0  0  0  0  0  0
  -27.9168  -15.0024   17.8035 C   0  0  0  0  0  0  0  0  0  0  0  0
  -24.4922  -34.6215   23.7178 C   0  0  0  0  0  0  0  0  0  0  0  0
  -27.6452  -13.5462   18.1716 C   0  0  0  0  0  0  0  0  0  0  0  0
  -26.8865  -15.9491   18.4175 C   0  0  0  0  0  0  0  0  0  0  0  0
  -26.4791  -14.3475   20.2640 C   0  0  0  0  0  0  0  0  0  0  0  0
  -25.4809  -33.8520   22.8336 C   0  0  1  0  0  0  0  0  0  0  0  0
  -23.6153  -31.0133   21.1322 C   0  0  1  0  0  0  0  0  0  0  0  0
  -27.5309  -13.3822   19.6955 C   0  0  1  0  0  0  0  0  0  0  0  0
  -29.5049  -22.1853   17.1773 C   0  0  0  0  0  0  0  0  0  0  0  0
  -18.6676  -25.0677   21.5480 C   0  0  0  0  0  0  0  0  0  0  0  0
  -22.1612  -29.3544   25.1935 C   0  0  0  0  0  0  0  0  0  0  0  0
  -20.7650  -27.2797   25.0736 C   0  0  0  0  0  0  0  0  0  0  0  0
  -19.7945  -29.4750   24.3943 C   0  0  0  0  0  0  0  0  0  0  0  0
  -20.7771  -26.0616   18.5416 C   0  0  0  0  0  0  0  0  0  0  0  0
  -28.2533  -22.6103   17.9389 C   0  0  0  0  0  0  0  0  0  0  0  0
  -27.9918  -25.5255   20.7458 C   0  0  0  0  0  0  0  0  0  1  0  0
  -21.5050  -28.3612   22.9024 C   0  0  1  0  0  0  0  0  0  0  0  0
  -19.5222  -25.9971   20.7003 C   0  0  2  0  0  0  0  0  0  0  0  0
  -21.0802  -28.6199   24.3756 C   0  0  0  0  0  0  0  0  0  0  0  0
  -25.9733  -11.5478   20.2359 N   0  0  0  0  0  0  0  0  0  0  0  0
  -27.2491  -11.9436   20.0882 N   0  0  0  0  0  0  0  0  0  0  0  0
  -26.7530  -15.7329   19.8661 N   0  0  0  0  0  0  0  0  0  0  0  0
  -23.1575  -29.7309   21.6708 N   0  0  0  0  0  0  0  0  0  0  0  0
  -29.4892  -11.1842   20.2156 N   0  0  0  0  0  0  0  0  0  0  0  0
  -27.0824   -7.5123   21.2743 N   0  0  0  0  0  0  0  0  0  0  0  0
  -24.7707  -32.9923   21.9112 N   0  0  0  0  0  0  0  0  0  0  0  0
  -20.4899  -27.6911   22.0968 N   0  0  0  0  0  0  0  0  0  0  0  0
  -19.9483  -25.2591   19.4777 N   0  3  0  0  0  0  0  0  0  0  0  0
  -29.8363  -24.7479   19.4196 O   0  0  0  0  0  0  0  0  0  0  0  0
  -29.2070   -8.3315   21.0027 O   0  0  0  0  0  0  0  0  0  0  0  0
  -26.7036  -16.5080   22.0602 O   0  0  0  0  0  0  0  0  0  0  0  0
  -24.4724  -31.1676   23.3269 O   0  0  0  0  0  0  0  0  0  0  0  0
  -20.9920  -30.5113   22.0421 O   0  0  0  0  0  0  0  0  0  0  0  0
  -21.7931  -25.8637   21.5142 O   0  0  0  0  0  0  0  0  0  0  0  0
  -21.5280   -7.1804   21.5448 O   0  0  0  0  0  0  0  0  0  0  0  0
  -28.4301  -26.8203   20.3365 O   0  0  0  0  0  0  0  0  0  1  0  0
  -21.5380   -3.9082   25.9829 F   0  0  0  0  0  0  0  0  0  0  0  0
  -28.8563  -23.4035   22.7285 F   0  0  0  0  0  0  0  0  0  0  0  0
  -19.6440   -7.4952   23.5433 F   0  0  0  0  0  0  0  0  0  0  0  0
  1  2  1  0  0  0  0
  1  5  2  0  0  0  0
  2  6  2  0  0  0  0
  3  8  2  0  0  0  0
  3 17  1  0  0  0  0
  4  9  1  0  0  0  0
  4 17  2  0  0  0  0
  5 21  1  0  0  0  0
  6 23  1  0  0  0  0
  7 10  2  0  0  0  0
  7 22  1  0  0  0  0
  8 26  1  0  0  0  0
  9 26  2  0  0  0  0
 10 27  1  0  0  0  0
 11 12  2  0  0  0  0
 11 28  1  0  0  0  0
 12 29  1  0  0  0  0
 13 18  2  0  0  0  0
 13 25  1  0  0  0  0
 14 18  1  0  0  0  0
 14 30  2  0  0  0  0
 15 24  1  0  0  0  0
 15 27  2  0  0  0  0
 16 29  2  0  0  0  0
 16 31  1  0  0  0  0
 17 32  1  0  0  0  0
 18 34  1  0  0  0  0
 19 25  2  0  0  0  0
 19 30  1  0  0  0  0
 19 36  1  0  0  0  0
 20 32  1  0  0  0  0
 20 33  2  0  0  0  0
 20 37  1  0  0  0  0
 21 23  2  0  0  0  0
 21 42  1  0  0  0  0
 22 24  2  0  0  0  0
 22 43  1  0  0  0  0
 23 51  1  0  0  0  0
 24 44  1  0  0  0  0
 25 60  1  0  0  0  0
 26 80  1  0  0  0  0
 27 81  1  0  0  0  0
 28 31  2  0  0  0  0
 28 80  1  0  0  0  0
 29 82  1  0  0  0  0
 30 83  1  0  0  0  0
 31 84  1  0  0  0  0
 32 65  2  0  0  0  0
 33 66  1  0  0  0  0
 33 69  1  0  0  0  0
 34 35  2  0  0  0  0
 35 38  1  0  0  0  0
 36 61  1  0  0  0  0
 36 74  2  0  0  0  0
 37 70  1  0  0  0  0
 37 75  2  0  0  0  0
 38 67  1  0  0  0  0
 38 76  2  0  0  0  0
 39 52  1  0  0  0  0
 39 71  1  0  0  0  0
 39 77  2  0  0  0  0
 40 62  1  0  0  0  0
 40 68  1  0  0  0  0
 40 78  2  0  0  0  0
 41 63  1  0  0  0  0
 41 72  1  0  0  0  0
 41 79  2  0  0  0  0
 42 45  1  0  0  0  0
 43 52  1  0  0  0  0
 44 68  1  0  0  0  0
 45 47  1  0  0  0  0
 46 48  1  0  0  0  0
 46 49  1  0  0  0  0
 47 51  1  0  0  0  0
 48 53  1  0  0  0  0
 49 67  1  0  0  0  0
 50 53  1  0  0  0  0
 50 67  1  0  0  0  0
 51 71  1  0  0  0  0
 52 68  1  0  0  0  0
 53 66  1  0  0  0  0
 54 60  1  0  0  0  0
 55 63  1  0  0  0  0
 56 64  1  0  0  0  0
 57 64  1  0  0  0  0
 58 64  1  0  0  0  0
 59 73  1  0  0  0  0
 61 81  1  0  0  0  0
 62 64  1  0  0  0  0
 62 72  1  0  0  0  0
 63 73  1  0  0  0  0
 65 66  1  0  0  0  0
M  CHG  1  73   1
M  ISO  4  35 100  38 100  61 101  81 101
M  END
> <Batch ID>
0126

> <Smiles>
CCc1cc(C=[100CH:0][100C:0](=O)N2CCCC(n3nc(-c4ccc(Oc5ccc(F)cc5F)cc4)c(C(N)=O)c3N)C2)cc(F)c1C(=O)[101CH2:1][101O:1]c1ccc2c(c1)CN(C(=O)C(NC(=O)C(C)NC)C(C)(C)C)C(C(=O)NC1CCCc3ccccc31)C2

> <Shape>
0.320

> <Color>
0.121

> <Negative vol penalty>
0.000

$$$$

  -OEChem-04052302113D

 83 91  0     1  0  0  0  0  0999 V2000
  -24.9354   -6.3481   22.3730 C   0  0  0  0  0  0  0  0  0  0  0  0
  -26.0117   -7.0624   21.8565 C   0  0  0  0  0  0  0  0  0  0  0  0
  -22.6305  -30.5770   20.7362 C   0  0  0  0  0  0  0  0  0  0  0  0
  -22.5000  -28.7412   22.3014 C   0  0  0  0  0  0  0  0  0  0  0  0
  -23.6590   -6.9090   22.3634 C   0  0  0  0  0  0  0  0  0  0  0  0
  -25.8119   -8.3377   21.3290 C   0  0  0  0  0  0  0  0  0  0  0  0
  -29.0950  -14.6658   20.6267 C   0  0  0  0  0  0  0  0  0  0  0  0
  -21.2450  -30.5415   20.5790 C   0  0  0  0  0  0  0  0  0  0  0  0
  -21.1144  -28.7057   22.1442 C   0  0  0  0  0  0  0  0  0  0  0  0
  -29.4288  -15.6036   19.6505 C   0  0  0  0  0  0  0  0  0  0  0  0
  -18.4371  -30.4373   23.2640 C   0  0  0  0  0  0  0  0  0  0  0  0
  -17.6584  -30.3254   24.4158 C   0  0  0  0  0  0  0  0  0  0  0  0
  -27.1932  -16.5034   19.7590 C   0  0  0  0  0  0  0  0  0  0  0  0
  -28.1835  -21.5477   22.8099 C   0  0  0  0  0  0  0  0  0  0  0  0
  -29.3905  -22.5023   20.4830 C   0  0  0  0  0  0  0  0  0  0  0  0
  -16.7268  -28.2569   23.5850 C   0  0  0  0  0  0  0  0  0  0  0  0
  -23.2580  -29.6768   21.5974 C   0  0  0  0  0  0  0  0  0  0  0  0
  -25.4195  -30.4628   22.7009 C   0  0  0  0  0  0  0  0  0  0  0  0
  -23.4451   -8.1957   21.8444 C   0  0  0  0  0  0  0  0  0  0  0  0
  -27.8024  -14.6328   21.1695 C   0  0  0  0  0  0  0  0  0  0  0  0
  -24.5312   -8.9158   21.3113 C   0  0  0  0  0  0  0  0  0  0  0  0
  -26.8463  -15.5660   20.7438 C   0  0  0  0  0  0  0  0  0  0  0  0
  -28.1980  -22.9167   22.5430 C   0  0  0  0  0  0  0  0  0  0  0  0
  -28.7725  -20.6560   21.9134 C   0  0  0  0  0  0  0  0  0  0  0  0
  -28.8015  -23.3940   21.3796 C   0  0  0  0  0  0  0  0  0  0  0  0
  -20.4870  -29.6059   21.2830 C   0  0  0  0  0  0  0  0  0  0  0  0
  -28.4771  -16.5207   19.2144 C   0  0  0  0  0  0  0  0  0  0  0  0
  -18.3606  -29.4590   22.2726 C   0  0  0  0  0  0  0  0  0  0  0  0
  -29.3760  -21.1333   20.7500 C   0  0  0  0  0  0  0  0  0  0  0  0
  -16.8032  -29.2352   24.5763 C   0  0  0  0  0  0  0  0  0  0  0  0
  -17.5055  -28.3688   22.4331 C   0  0  0  0  0  0  0  0  0  0  0  0
  -24.6893  -29.7126   21.7598 C   0  0  0  0  0  0  0  0  0  0  0  0
  -26.7323  -30.1502   22.4451 C   0  0  0  0  0  0  0  0  0  0  0  0
  -24.9530  -31.3617   23.7158 C   0  0  0  0  0  0  0  0  0  0  0  0
  -25.4526  -12.4933   21.2385 C   0  0  0  0  0  0  0  0  0  0  0  0
  -24.0569  -14.6665   23.2011 C   0  0  0  0  0  0  0  0  0  0  0  0
  -23.8155  -17.9139   24.2222 C   0  0  0  0  0  0  0  0  0  0  0  0
  -29.3918  -25.4021   19.9777 C   0  0  0  0  0  0  0  0  0  0  0  0
  -22.0394   -8.7412   21.8125 C   0  0  0  0  0  0  0  0  0  0  0  0
  -27.4660  -13.6323   22.2410 C   0  0  0  0  0  0  0  0  0  0  0  0
  -25.4505  -15.5855   21.3094 C   0  0  0  0  0  0  0  0  0  0  0  0
  -21.9760  -10.2481   21.5771 C   0  0  0  0  0  0  0  0  0  0  0  0
  -29.6312  -28.7829   18.8868 C   0  0  0  0  0  0  0  0  0  0  0  0
  -22.8982  -10.6485   20.4298 C   0  0  0  0  0  0  0  0  0  0  0  0
  -28.4612  -29.4746   19.5902 C   0  0  0  0  0  0  0  0  0  0  0  0
  -29.2734  -27.3621   18.4547 C   0  0  0  0  0  0  0  0  0  0  0  0
  -27.5664  -27.1974   20.2234 C   0  0  0  0  0  0  0  0  0  0  0  0
  -24.3589  -10.3118   20.7530 C   0  0  1  0  0  0  0  0  0  0  0  0
  -25.9695  -13.3577   22.3535 C   0  0  1  0  0  0  0  0  0  0  0  0
  -27.9002  -28.6083   20.7349 C   0  0  2  0  0  0  0  0  0  0  0  0
  -27.5592  -23.8488   23.5208 C   0  0  0  0  0  0  0  0  0  0  0  0
  -28.7482  -19.1937   22.2143 C   0  0  0  0  0  0  0  0  0  0  0  0
  -22.5596  -19.3893   25.8169 C   0  0  0  0  0  0  0  0  0  0  0  0
  -21.6229  -14.5771   21.3632 C   0  0  0  0  0  0  0  0  0  0  0  0
  -20.8299  -16.7010   22.4253 C   0  0  0  0  0  0  0  0  0  0  0  0
  -21.0848  -14.6383   23.8048 C   0  0  0  0  0  0  0  0  0  0  0  0
  -26.2939  -18.6813   25.6460 C   0  0  0  0  0  0  0  0  0  0  0  0
  -30.2270  -19.2919   17.6750 C   0  0  0  0  0  0  0  0  0  0  0  0
  -30.1586  -17.8706   18.2113 C   0  0  0  0  0  0  0  0  0  1  0  0
  -29.4371  -20.2639   18.5373 C   0  0  0  0  0  0  0  0  0  0  0  0
  -23.1501  -15.8574   23.0047 C   0  0  1  0  0  0  0  0  0  0  0  0
  -23.8007  -18.5360   25.6068 C   0  0  2  0  0  0  0  0  0  0  0  0
  -21.6976  -15.4421   22.6372 C   0  0  0  0  0  0  0  0  0  0  0  0
  -25.4730  -28.9788   20.9653 N   0  0  0  0  0  0  0  0  0  0  0  0
  -26.7094  -29.2665   21.4065 N   0  0  0  0  0  0  0  0  0  0  0  0
  -25.1682  -14.5833   22.3503 N   0  0  0  0  0  0  0  0  0  0  0  0
  -28.7529  -26.5994   19.5915 N   0  0  0  0  0  0  0  0  0  0  0  0
  -27.8924  -30.5479   23.0094 N   0  0  0  0  0  0  0  0  0  0  0  0
  -23.5725  -31.5685   23.8419 N   0  0  0  0  0  0  0  0  0  0  0  0
  -28.8280  -24.7811   21.0917 N   0  0  0  0  0  0  0  0  0  0  0  0
  -24.9148  -11.2925   21.6606 N   0  0  0  0  0  0  0  0  0  0  0  0
  -23.2539  -16.6546   24.2221 N   0  0  0  0  0  0  0  0  0  0  0  0
  -25.0014  -19.3973   25.8006 N   0  3  0  0  0  0  0  0  0  0  0  0
  -25.7379  -31.9765   24.4770 O   0  0  0  0  0  0  0  0  0  0  0  0
  -25.5341  -12.8874   20.0810 O   0  0  0  0  0  0  0  0  0  0  0  0
  -23.7928  -13.8442   24.0819 O   0  0  0  0  0  0  0  0  0  0  0  0
  -24.2756  -18.4892   23.2383 O   0  0  0  0  0  0  0  0  0  0  0  0
  -30.3839  -24.9746   19.3819 O   0  0  0  0  0  0  0  0  0  0  0  0
  -19.1350  -29.5711   21.1300 O   0  0  0  0  0  0  0  0  0  0  0  0
  -28.8001  -17.4366   18.2612 O   0  0  0  0  0  0  0  0  0  1  0  0
  -29.9600  -20.2712   19.8587 O   0  0  0  0  0  0  0  0  0  0  0  0
  -16.0566  -29.1271   25.6831 F   0  0  0  0  0  0  0  0  0  0  0  0
  -17.4286  -27.4252   21.4847 F   0  0  0  0  0  0  0  0  0  0  0  0
  1  2  1  0  0  0  0
  1  5  2  0  0  0  0
  2  6  2  0  0  0  0
  3  8  2  0  0  0  0
  3 17  1  0  0  0  0
  4  9  1  0  0  0  0
  4 17  2  0  0  0  0
  5 19  1  0  0  0  0
  6 21  1  0  0  0  0
  7 10  2  0  0  0  0
  7 20  1  0  0  0  0
  8 26  1  0  0  0  0
  9 26  2  0  0  0  0
 10 27  1  0  0  0  0
 11 12  2  0  0  0  0
 11 28  1  0  0  0  0
 12 30  1  0  0  0  0
 13 22  1  0  0  0  0
 13 27  2  0  0  0  0
 14 23  2  0  0  0  0
 14 24  1  0  0  0  0
 15 25  2  0  0  0  0
 15 29  1  0  0  0  0
 16 30  2  0  0  0  0
 16 31  1  0  0  0  0
 17 32  1  0  0  0  0
 18 32  1  0  0  0  0
 18 33  2  0  0  0  0
 18 34  1  0  0  0  0
 19 21  2  0  0  0  0
 19 39  1  0  0  0  0
 20 22  2  0  0  0  0
 20 40  1  0  0  0  0
 21 48  1  0  0  0  0
 22 41  1  0  0  0  0
 23 25  1  0  0  0  0
 23 51  1  0  0  0  0
 24 29  2  0  0  0  0
 24 52  1  0  0  0  0
 25 70  1  0  0  0  0
 26 79  1  0  0  0  0
 27 80  1  0  0  0  0
 28 31  2  0  0  0  0
 28 79  1  0  0  0  0
 29 81  1  0  0  0  0
 30 82  1  0  0  0  0
 31 83  1  0  0  0  0
 32 64  2  0  0  0  0
 33 65  1  0  0  0  0
 33 68  1  0  0  0  0
 34 69  1  0  0  0  0
 34 74  2  0  0  0  0
 35 49  1  0  0  0  0
 35 71  1  0  0  0  0
 35 75  2  0  0  0  0
 36 61  1  0  0  0  0
 36 66  1  0  0  0  0
 36 76  2  0  0  0  0
 37 62  1  0  0  0  0
 37 72  1  0  0  0  0
 37 77  2  0  0  0  0
 38 67  1  0  0  0  0
 38 70  1  0  0  0  0
 38 78  2  0  0  0  0
 39 42  1  0  0  0  0
 40 49  1  0  0  0  0
 41 66  1  0  0  0  0
 42 44  1  0  0  0  0
 43 45  1  0  0  0  0
 43 46  1  0  0  0  0
 44 48  1  0  0  0  0
 45 50  1  0  0  0  0
 46 67  1  0  0  0  0
 47 50  1  0  0  0  0
 47 67  1  0  0  0  0
 48 71  1  0  0  0  0
 49 66  1  0  0  0  0
 50 65  1  0  0  0  0
 53 62  1  0  0  0  0
 54 63  1  0  0  0  0
 55 63  1  0  0  0  0
 56 63  1  0  0  0  0
 57 73  1  0  0  0  0
 58 59  1  0  0  0  0
 58 60  1  0  0  0  0
 59 80  1  0  0  0  0
 60 81  1  0  0  0  0
 61 63  1  0  0  0  0
 61 72  1  0  0  0  0
 62 73  1  0  0  0  0
 64 65  1  0  0  0  0
M  CHG  1  73   1
M  ISO  4  38 100  59 101  70 100  80 101
M  END
> <Batch ID>
0126

> <Smiles>
CNC(C)C(=O)NC(C(=O)N1Cc2cc([101O:1][101CH2:1]CCOc3cc([100NH:0][100C:0](=O)N4CCCC(n5nc(-c6ccc(Oc7ccc(F)cc7F)cc6)c(C(N)=O)c5N)C4)c(C)cc3C)ccc2CC1C(=O)NC1CCCc2ccccc21)C(C)(C)C

> <Shape>
0.283

> <Color>
0.070

> <Negative vol penalty>
0.000

$$$$

  -OEChem-04052302113D

 84 92  0     1  0  0  0  0  0999 V2000
  -27.5048  -38.1764   25.6312 C   0  0  0  0  0  0  0  0  0  0  0  0
  -28.1982  -37.1969   24.9274 C   0  0  0  0  0  0  0  0  0  0  0  0
  -23.8018   -9.8890   22.3023 C   0  0  0  0  0  0  0  0  0  0  0  0
  -24.7028   -8.7380   20.3787 C   0  0  0  0  0  0  0  0  0  0  0  0
  -30.7743  -21.1408   20.7400 C   0  0  0  0  0  0  0  0  0  0  0  0
  -26.3983  -37.8263   26.4039 C   0  0  0  0  0  0  0  0  0  0  0  0
  -27.7861  -35.8666   24.9968 C   0  0  0  0  0  0  0  0  0  0  0  0
  -28.0486  -31.6932   20.5224 C   0  0  0  0  0  0  0  0  0  0  0  0
  -31.1286  -22.3735   20.1920 C   0  0  0  0  0  0  0  0  0  0  0  0
  -22.7205   -9.0081   22.3230 C   0  0  0  0  0  0  0  0  0  0  0  0
  -23.6216   -7.8570   20.3994 C   0  0  0  0  0  0  0  0  0  0  0  0
  -28.9596  -30.6762   20.2406 C   0  0  0  0  0  0  0  0  0  0  0  0
  -22.1000   -5.8499   23.3593 C   0  0  0  0  0  0  0  0  0  0  0  0
  -21.7185   -5.3208   24.5922 C   0  0  0  0  0  0  0  0  0  0  0  0
  -29.1718  -20.8111   18.9622 C   0  0  0  0  0  0  0  0  0  0  0  0
  -27.5398  -29.0959   21.3834 C   0  0  0  0  0  0  0  0  0  0  0  0
  -19.5280   -6.3077   24.3379 C   0  0  0  0  0  0  0  0  0  0  0  0
  -24.7929   -9.7540   21.3301 C   0  0  0  0  0  0  0  0  0  0  0  0
  -29.7958  -20.3595   20.1251 C   0  0  0  0  0  0  0  0  0  0  0  0
  -27.1412  -10.5150   21.9736 C   0  0  0  0  0  0  0  0  0  0  0  0
  -25.9666  -36.4924   26.4750 C   0  0  0  0  0  0  0  0  0  0  0  0
  -26.8796  -31.4209   21.2475 C   0  0  0  0  0  0  0  0  0  0  0  0
  -26.6736  -35.4982   25.7722 C   0  0  0  0  0  0  0  0  0  0  0  0
  -26.6143  -30.1107   21.6709 C   0  0  0  0  0  0  0  0  0  0  0  0
  -30.5046  -22.8251   19.0292 C   0  0  0  0  0  0  0  0  0  0  0  0
  -22.6304   -7.9920   21.3715 C   0  0  0  0  0  0  0  0  0  0  0  0
  -28.7068  -29.3779   20.6736 C   0  0  0  0  0  0  0  0  0  0  0  0
  -21.1956   -6.6081   22.6157 C   0  0  0  0  0  0  0  0  0  0  0  0
  -20.4325   -5.5496   25.0815 C   0  0  0  0  0  0  0  0  0  0  0  0
  -29.5261  -22.0440   18.4143 C   0  0  0  0  0  0  0  0  0  0  0  0
  -19.9095   -6.8369   23.1050 C   0  0  0  0  0  0  0  0  0  0  0  0
  -25.9098  -10.6640   21.3079 C   0  0  0  0  0  0  0  0  0  0  0  0
  -27.8536  -11.6390   21.6337 C   0  0  0  0  0  0  0  0  0  0  0  0
  -29.4270  -19.0733   20.6952 C   0  0  0  0  0  0  0  0  0  0  0  0
  -28.2779  -18.4083   20.4498 C   0  0  0  0  0  0  0  0  0  0  0  0
  -30.1264  -26.3313   19.4200 C   0  0  0  0  0  0  0  0  0  0  0  0
  -29.8639  -25.2225   18.7152 C   0  0  0  0  0  0  0  0  0  0  0  0
  -27.6001   -9.4552   22.8233 C   0  0  0  0  0  0  0  0  0  0  0  0
  -28.0529  -17.1017   21.1001 C   0  0  0  0  0  0  0  0  0  0  0  0
  -29.0613  -27.3347   19.6414 C   0  0  0  0  0  0  0  0  0  1  0  0
  -25.6879  -32.3927   24.0294 C   0  0  0  0  0  0  0  0  0  0  0  0
  -23.1032  -30.6795   23.0770 C   0  0  0  0  0  0  0  0  0  0  0  0
  -21.8495  -28.1544   21.1538 C   0  0  0  0  0  0  0  0  0  0  0  0
  -24.7936  -36.1553   27.3611 C   0  0  0  0  0  0  0  0  0  0  0  0
  -25.8939  -32.5238   21.5202 C   0  0  0  0  0  0  0  0  0  0  0  0
  -25.3641  -29.7621   22.4351 C   0  0  0  0  0  0  0  0  0  0  0  0
  -24.1958  -34.7786   27.0827 C   0  0  0  0  0  0  0  0  0  0  0  0
  -26.9666  -15.1920   18.1667 C   0  0  0  0  0  0  0  0  0  0  0  0
  -25.2986  -33.7309   26.9687 C   0  0  0  0  0  0  0  0  0  0  0  0
  -26.6507  -13.8386   18.7979 C   0  0  0  0  0  0  0  0  0  0  0  0
  -26.6439  -16.3513   19.1082 C   0  0  0  0  0  0  0  0  0  0  0  0
  -26.9836  -14.8816   21.0742 C   0  0  0  0  0  0  0  0  0  0  0  0
  -26.2423  -34.0479   25.8024 C   0  0  1  0  0  0  0  0  0  0  0  0
  -24.9856  -32.2326   22.7107 C   0  0  1  0  0  0  0  0  0  0  0  0
  -27.3448  -13.6989   20.1620 C   0  0  1  0  0  0  0  0  0  0  0  0
  -19.7058  -26.9656   20.6166 C   0  0  0  0  0  0  0  0  0  0  0  0
  -23.2597  -29.1989   25.7403 C   0  0  0  0  0  0  0  0  0  0  0  0
  -21.7588  -27.4438   24.7733 C   0  0  0  0  0  0  0  0  0  0  0  0
  -20.9419  -29.7889   25.0093 C   0  0  0  0  0  0  0  0  0  0  0  0
  -22.0011  -28.9264   18.3007 C   0  0  0  0  0  0  0  0  0  0  0  0
  -30.8891  -24.1596   18.4409 C   0  0  0  0  0  0  0  0  0  0  0  0
  -22.6549  -29.2462   23.2307 C   0  0  1  0  0  0  0  0  0  0  0  0
  -20.6477  -28.0946   20.2283 C   0  0  2  0  0  0  0  0  0  0  0  0
  -22.1784  -28.9261   24.6757 C   0  0  0  0  0  0  0  0  0  0  0  0
  -25.8405  -11.7938   20.5988 N   0  0  0  0  0  0  0  0  0  0  0  0
  -27.0372  -12.3649   20.8171 N   0  0  0  0  0  0  0  0  0  0  0  0
  -27.2712  -16.1657   20.4253 N   0  0  0  0  0  0  0  0  0  0  0  0
  -24.4342  -30.8764   22.6825 N   0  0  0  0  0  0  0  0  0  0  0  0
  -29.0923  -12.0674   21.9567 N   0  0  0  0  0  0  0  0  0  0  0  0
  -26.7408   -8.3753   23.0679 N   0  0  0  0  0  0  0  0  0  0  0  0
  -25.6336  -33.6741   24.5438 N   0  0  0  0  0  0  0  0  0  0  0  0
  -21.6423  -29.0230   22.2045 N   0  0  0  0  0  0  0  0  0  0  0  0
  -21.0879  -27.8766   18.8212 N   0  3  0  0  0  0  0  0  0  0  0  0
  -28.7322   -9.4734   23.3632 O   0  0  0  0  0  0  0  0  0  0  0  0
  -28.5678  -16.9203   22.2049 O   0  0  0  0  0  0  0  0  0  0  0  0
  -27.9146  -27.2526   19.2289 O   0  0  0  0  0  0  0  0  0  0  0  0
  -26.2369  -31.4249   24.5429 O   0  0  0  0  0  0  0  0  0  0  0  0
  -22.3001  -31.5908   23.2919 O   0  0  0  0  0  0  0  0  0  0  0  0
  -22.8686  -27.4936   20.9657 O   0  0  0  0  0  0  0  0  0  0  0  0
  -21.5756   -7.1321   21.3915 O   0  0  0  0  0  0  0  0  0  0  0  0
  -29.5947  -28.3835   20.4004 O   0  0  0  0  0  0  0  0  0  1  0  0
  -20.0657   -5.0401   26.2647 F   0  0  0  0  0  0  0  0  0  0  0  0
  -28.9209  -22.4694   17.2964 F   0  0  0  0  0  0  0  0  0  0  0  0
  -19.0359   -7.5635   22.3946 F   0  0  0  0  0  0  0  0  0  0  0  0
  1  2  1  0  0  0  0
  1  6  2  0  0  0  0
  2  7  2  0  0  0  0
  3 10  2  0  0  0  0
  3 18  1  0  0  0  0
  4 11  1  0  0  0  0
  4 18  2  0  0  0  0
  5  9  2  0  0  0  0
  5 19  1  0  0  0  0
  6 21  1  0  0  0  0
  7 23  1  0  0  0  0
  8 12  2  0  0  0  0
  8 22  1  0  0  0  0
  9 25  1  0  0  0  0
 10 26  1  0  0  0  0
 11 26  2  0  0  0  0
 12 27  1  0  0  0  0
 13 14  2  0  0  0  0
 13 28  1  0  0  0  0
 14 29  1  0  0  0  0
 15 19  2  0  0  0  0
 15 30  1  0  0  0  0
 16 24  1  0  0  0  0
 16 27  2  0  0  0  0
 17 29  2  0  0  0  0
 17 31  1  0  0  0  0
 18 32  1  0  0  0  0
 19 34  1  0  0  0  0
 20 32  1  0  0  0  0
 20 33  2  0  0  0  0
 20 38  1  0  0  0  0
 21 23  2  0  0  0  0
 21 44  1  0  0  0  0
 22 24  2  0  0  0  0
 22 45  1  0  0  0  0
 23 53  1  0  0  0  0
 24 46  1  0  0  0  0
 25 30  2  0  0  0  0
 25 61  1  0  0  0  0
 26 80  1  0  0  0  0
 27 81  1  0  0  0  0
 28 31  2  0  0  0  0
 28 80  1  0  0  0  0
 29 82  1  0  0  0  0
 30 83  1  0  0  0  0
 31 84  1  0  0  0  0
 32 65  2  0  0  0  0
 33 66  1  0  0  0  0
 33 69  1  0  0  0  0
 34 35  2  0  0  0  0
 35 39  1  0  0  0  0
 36 37  2  0  0  0  0
 36 40  1  0  0  0  0
 37 61  1  0  0  0  0
 38 70  1  0  0  0  0
 38 74  2  0  0  0  0
 39 67  1  0  0  0  0
 39 75  2  0  0  0  0
 40 76  2  0  0  0  0
 40 81  1  0  0  0  0
 41 54  1  0  0  0  0
 41 71  1  0  0  0  0
 41 77  2  0  0  0  0
 42 62  1  0  0  0  0
 42 68  1  0  0  0  0
 42 78  2  0  0  0  0
 43 63  1  0  0  0  0
 43 72  1  0  0  0  0
 43 79  2  0  0  0  0
 44 47  1  0  0  0  0
 45 54  1  0  0  0  0
 46 68  1  0  0  0  0
 47 49  1  0  0  0  0
 48 50  1  0  0  0  0
 48 51  1  0  0  0  0
 49 53  1  0  0  0  0
 50 55  1  0  0  0  0
 51 67  1  0  0  0  0
 52 55  1  0  0  0  0
 52 67  1  0  0  0  0
 53 71  1  0  0  0  0
 54 68  1  0  0  0  0
 55 66  1  0  0  0  0
 56 63  1  0  0  0  0
 57 64  1  0  0  0  0
 58 64  1  0  0  0  0
 59 64  1  0  0  0  0
 60 73  1  0  0  0  0
 62 64  1  0  0  0  0
 62 72  1  0  0  0  0
 63 73  1  0  0  0  0
 65 66  1  0  0  0  0
M  CHG  1  73   1
M  ISO  4  35 100  39 100  40 101  81 101
M  END
> <Batch ID>
0126

> <Smiles>
CNC(C)C(=O)NC(C(=O)N1Cc2cc([101O:1][101C:1](=O)C=CCc3ccc(C=[100CH:0][100C:0](=O)N4CCCC(n5nc(-c6ccc(Oc7ccc(F)cc7F)cc6)c(C(N)=O)c5N)C4)cc3F)ccc2CC1C(=O)NC1CCCc2ccccc21)C(C)(C)C

> <Shape>
0.314

> <Color>
0.104

> <Negative vol penalty>
0.000

$$$$

  -OEChem-04052302113D

 85 93  0     1  0  0  0  0  0999 V2000
  -26.0143  -32.0920   26.7442 C   0  0  0  0  0  0  0  0  0  0  0  0
  -26.6644  -31.0389   26.1088 C   0  0  0  0  0  0  0  0  0  0  0  0
  -23.0000   -9.8928   19.9815 C   0  0  0  0  0  0  0  0  0  0  0  0
  -23.7259   -9.9430   22.2853 C   0  0  0  0  0  0  0  0  0  0  0  0
  -25.4237  -33.1033   25.9876 C   0  0  0  0  0  0  0  0  0  0  0  0
  -26.7235  -30.9960   24.7163 C   0  0  0  0  0  0  0  0  0  0  0  0
  -31.3341  -29.7904   23.0035 C   0  0  0  0  0  0  0  0  0  0  0  0
  -22.2334   -8.7583   20.2477 C   0  0  0  0  0  0  0  0  0  0  0  0
  -22.9593   -8.8085   22.5516 C   0  0  0  0  0  0  0  0  0  0  0  0
  -31.7004  -28.4461   23.0533 C   0  0  0  0  0  0  0  0  0  0  0  0
  -23.2032   -5.4696   22.0786 C   0  0  0  0  0  0  0  0  0  0  0  0
  -23.7908   -4.4522   22.8302 C   0  0  0  0  0  0  0  0  0  0  0  0
  -30.3569  -18.9626   23.1214 C   0  0  0  0  0  0  0  0  0  0  0  0
  -31.1759  -28.2227   20.7093 C   0  0  0  0  0  0  0  0  0  0  0  0
  -31.8905  -17.2473   21.5438 C   0  0  0  0  0  0  0  0  0  0  0  0
  -22.0675   -4.6948   24.5060 C   0  0  0  0  0  0  0  0  0  0  0  0
  -23.7463  -10.4851   21.0003 C   0  0  0  0  0  0  0  0  0  0  0  0
  -31.6517  -19.3261   22.7516 C   0  0  0  0  0  0  0  0  0  0  0  0
  -24.1318  -13.0007   20.8249 C   0  0  0  0  0  0  0  0  0  0  0  0
  -25.4839  -33.0778   24.5853 C   0  0  0  0  0  0  0  0  0  0  0  0
  -30.8748  -30.3591   21.8068 C   0  0  0  0  0  0  0  0  0  0  0  0
  -26.1320  -32.0072   23.9402 C   0  0  0  0  0  0  0  0  0  0  0  0
  -30.8068  -29.5750   20.6464 C   0  0  0  0  0  0  0  0  0  0  0  0
  -29.8288  -17.7413   22.7025 C   0  0  0  0  0  0  0  0  0  0  0  0
  -32.4185  -18.4686   21.9628 C   0  0  0  0  0  0  0  0  0  0  0  0
  -30.5956  -16.8837   21.9137 C   0  0  0  0  0  0  0  0  0  0  0  0
  -22.2131   -8.2161   21.5328 C   0  0  0  0  0  0  0  0  0  0  0  0
  -31.6186  -27.6613   21.9067 C   0  0  0  0  0  0  0  0  0  0  0  0
  -22.0477   -6.0998   22.5407 C   0  0  0  0  0  0  0  0  0  0  0  0
  -23.2230   -4.0647   24.0439 C   0  0  0  0  0  0  0  0  0  0  0  0
  -21.4799   -5.7123   23.7544 C   0  0  0  0  0  0  0  0  0  0  0  0
  -24.5388  -11.6567   20.7257 C   0  0  0  0  0  0  0  0  0  0  0  0
  -25.2415  -13.7233   20.4604 C   0  0  0  0  0  0  0  0  0  0  0  0
  -32.1817  -20.6228   23.2099 C   0  0  0  0  0  0  0  0  0  0  0  0
  -31.6495  -21.8164   22.8951 C   0  0  0  0  0  0  0  0  0  0  0  0
  -31.4830  -24.2317   22.9046 C   0  0  0  0  0  0  0  0  0  0  0  0
  -22.8640  -13.5471   21.2120 C   0  0  0  0  0  0  0  0  0  0  0  0
  -32.1457  -23.1306   23.3171 C   0  0  0  0  0  0  0  0  0  0  0  0
  -28.1564  -31.7095   20.8634 C   0  0  0  0  0  0  0  0  0  0  0  0
  -29.8528  -32.3280   18.1686 C   0  0  0  0  0  0  0  0  0  0  0  0
  -32.4682  -31.5017   16.1380 C   0  0  0  0  0  0  0  0  0  0  0  0
  -30.7212  -14.6837   20.6928 C   0  0  0  0  0  0  0  0  0  0  0  0
  -24.7899  -34.1688   23.8090 C   0  0  0  0  0  0  0  0  0  0  0  0
  -30.5089  -31.8174   21.7634 C   0  0  0  0  0  0  0  0  0  0  0  0
  -30.3395  -30.1428   19.3319 C   0  0  0  0  0  0  0  0  0  0  0  0
  -25.2212  -34.2446   22.3466 C   0  0  0  0  0  0  0  0  0  0  0  0
  -29.6019  -12.2317   18.3665 C   0  0  0  0  0  0  0  0  0  0  0  0
  -25.2344  -32.8534   21.7212 C   0  0  0  0  0  0  0  0  0  0  0  0
  -28.1514  -11.9740   18.7811 C   0  0  0  0  0  0  0  0  0  0  0  0
  -30.5028  -12.4746   19.5761 C   0  0  0  0  0  0  0  0  0  0  0  0
  -28.5880  -13.2633   20.9104 C   0  0  0  0  0  0  0  0  0  0  0  0
  -26.2387  -31.9384   22.4322 C   0  0  1  0  0  0  0  0  0  0  0  0
  -29.5670  -32.1631   20.6142 C   0  0  1  0  0  0  0  0  0  0  0  0
  -27.6299  -13.0774   19.7225 C   0  0  2  0  0  0  0  0  0  0  0  0
  -28.4393  -17.3773   23.1146 C   0  0  0  0  0  0  0  0  0  0  0  0
  -33.8098  -18.8257   21.5479 C   0  0  0  0  0  0  0  0  0  0  0  0
  -33.3703  -23.1641   24.1938 C   0  0  0  0  0  0  0  0  0  0  0  0
  -33.5791  -32.1657   13.9880 C   0  0  0  0  0  0  0  0  0  0  0  0
  -27.6058  -30.9897   16.5970 C   0  0  0  0  0  0  0  0  0  0  0  0
  -29.1628  -30.8283   14.6431 C   0  0  0  0  0  0  0  0  0  0  0  0
  -28.5229  -33.0646   15.5443 C   0  0  0  0  0  0  0  0  0  0  0  0
  -35.0132  -32.1292   17.5120 C   0  0  0  0  0  0  0  0  0  0  0  0
  -31.7892  -25.6683   23.1932 C   0  0  0  0  0  0  0  0  0  1  0  0
  -30.0998  -31.5990   16.8700 C   0  0  1  0  0  0  0  0  0  0  0  0
  -33.5529  -32.3488   15.4975 C   0  0  2  0  0  0  0  0  0  0  0  0
  -28.8548  -31.6089   15.9387 C   0  0  0  0  0  0  0  0  0  0  0  0
  -25.8079  -11.5302   20.3291 N   0  0  0  0  0  0  0  0  0  0  0  0
  -26.2080  -12.8040   20.1757 N   0  0  0  0  0  0  0  0  0  0  0  0
  -29.9869  -31.5722   19.3419 N   0  0  0  0  0  0  0  0  0  0  0  0
  -29.9482  -13.5354   20.4199 N   0  0  0  0  0  0  0  0  0  0  0  0
  -25.4751  -15.0490   20.3586 N   0  0  0  0  0  0  0  0  0  0  0  0
  -21.8323  -12.6630   21.5556 N   0  0  0  0  0  0  0  0  0  0  0  0
  -30.0773  -15.6387   21.4789 N   0  0  0  0  0  0  0  0  0  0  0  0
  -27.5881  -32.2408   22.0055 N   0  0  0  0  0  0  0  0  0  0  0  0
  -31.2904  -32.2039   16.2824 N   0  0  0  0  0  0  0  0  0  0  0  0
  -34.8898  -31.9749   16.0396 N   0  3  0  0  0  0  0  0  0  0  0  0
  -22.6475  -14.7824   21.2362 O   0  0  0  0  0  0  0  0  0  0  0  0
  -27.6225  -30.9360   20.0770 O   0  0  0  0  0  0  0  0  0  0  0  0
  -29.5588  -33.5257   18.1434 O   0  0  0  0  0  0  0  0  0  0  0  0
  -32.6467  -30.3327   16.4729 O   0  0  0  0  0  0  0  0  0  0  0  0
  -31.8597  -14.8227   20.2384 O   0  0  0  0  0  0  0  0  0  0  0  0
  -21.4650   -7.1092   21.7930 O   0  0  0  0  0  0  0  0  0  0  0  0
  -31.9749  -26.3487   21.9527 O   0  0  0  0  0  0  0  0  0  1  0  0
  -23.7866   -3.0865   24.7648 F   0  0  0  0  0  0  0  0  0  0  0  0
  -20.3692   -6.3131   24.2030 F   0  0  0  0  0  0  0  0  0  0  0  0
  1  2  1  0  0  0  0
  1  5  2  0  0  0  0
  2  6  2  0  0  0  0
  3  8  2  0  0  0  0
  3 17  1  0  0  0  0
  4  9  1  0  0  0  0
  4 17  2  0  0  0  0
  5 20  1  0  0  0  0
  6 22  1  0  0  0  0
  7 10  2  0  0  0  0
  7 21  1  0  0  0  0
  8 27  1  0  0  0  0
  9 27  2  0  0  0  0
 10 28  1  0  0  0  0
 11 12  2  0  0  0  0
 11 29  1  0  0  0  0
 12 30  1  0  0  0  0
 13 18  1  0  0  0  0
 13 24  2  0  0  0  0
 14 23  1  0  0  0  0
 14 28  2  0  0  0  0
 15 25  1  0  0  0  0
 15 26  2  0  0  0  0
 16 30  2  0  0  0  0
 16 31  1  0  0  0  0
 17 32  1  0  0  0  0
 18 25  2  0  0  0  0
 18 34  1  0  0  0  0
 19 32  1  0  0  0  0
 19 33  2  0  0  0  0
 19 37  1  0  0  0  0
 20 22  2  0  0  0  0
 20 43  1  0  0  0  0
 21 23  2  0  0  0  0
 21 44  1  0  0  0  0
 22 52  1  0  0  0  0
 23 45  1  0  0  0  0
 24 26  1  0  0  0  0
 24 55  1  0  0  0  0
 25 56  1  0  0  0  0
 26 73  1  0  0  0  0
 27 82  1  0  0  0  0
 28 83  1  0  0  0  0
 29 31  2  0  0  0  0
 29 82  1  0  0  0  0
 30 84  1  0  0  0  0
 31 85  1  0  0  0  0
 32 67  2  0  0  0  0
 33 68  1  0  0  0  0
 33 71  1  0  0  0  0
 34 35  2  0  0  0  0
 35 38  1  0  0  0  0
 36 38  2  0  0  0  0
 36 63  1  0  0  0  0
 37 72  1  0  0  0  0
 37 77  2  0  0  0  0
 38 57  1  0  0  0  0
 39 53  1  0  0  0  0
 39 74  1  0  0  0  0
 39 78  2  0  0  0  0
 40 64  1  0  0  0  0
 40 69  1  0  0  0  0
 40 79  2  0  0  0  0
 41 65  1  0  0  0  0
 41 75  1  0  0  0  0
 41 80  2  0  0  0  0
 42 70  1  0  0  0  0
 42 73  1  0  0  0  0
 42 81  2  0  0  0  0
 43 46  1  0  0  0  0
 44 53  1  0  0  0  0
 45 69  1  0  0  0  0
 46 48  1  0  0  0  0
 47 49  1  0  0  0  0
 47 50  1  0  0  0  0
 48 52  1  0  0  0  0
 49 54  1  0  0  0  0
 50 70  1  0  0  0  0
 51 54  1  0  0  0  0
 51 70  1  0  0  0  0
 52 74  1  0  0  0  0
 53 69  1  0  0  0  0
 54 68  1  0  0  0  0
 58 65  1  0  0  0  0
 59 66  1  0  0  0  0
 60 66  1  0  0  0  0
 61 66  1  0  0  0  0
 62 76  1  0  0  0  0
 63 83  1  0  0  0  0
 64 66  1  0  0  0  0
 64 75  1  0  0  0  0
 65 76  1  0  0  0  0
 67 68  1  0  0  0  0
M  CHG  1  76   1
M  ISO  4  42 100  63 101  73 100  83 101
M  END
> <Batch ID>
0126

> <Smiles>
CNC(C)C(=O)NC(C(=O)N1Cc2cc([101O:1][101CH2:1]C=C(C)C=Cc3cc(C)c([100NH:0][100C:0](=O)N4CCCC(n5nc(-c6ccc(Oc7ccc(F)cc7F)cc6)c(C(N)=O)c5N)C4)cc3C)ccc2CC1C(=O)NC1CCCc2ccccc21)C(C)(C)C

> <Shape>
0.255

> <Color>
0.202

> <Negative vol penalty>
0.000

$$$$

  -OEChem-04052302113D

 84 92  0     1  0  0  0  0  0999 V2000
  -21.7167  -25.8505   14.0296 C   0  0  0  0  0  0  0  0  0  0  0  0
  -21.5295  -26.7890   15.0394 C   0  0  0  0  0  0  0  0  0  0  0  0
  -25.4300  -15.0479   21.9937 C   0  0  0  0  0  0  0  0  0  0  0  0
  -24.7861  -14.3621   19.7683 C   0  0  0  0  0  0  0  0  0  0  0  0
  -22.4883  -24.7143   14.2698 C   0  0  0  0  0  0  0  0  0  0  0  0
  -22.1130  -26.5913   16.2903 C   0  0  0  0  0  0  0  0  0  0  0  0
  -24.3206  -30.8966   20.0448 C   0  0  0  0  0  0  0  0  0  0  0  0
  -25.4971  -13.7111   22.3862 C   0  0  0  0  0  0  0  0  0  0  0  0
  -24.8532  -13.0253   20.1609 C   0  0  0  0  0  0  0  0  0  0  0  0
  -23.7818  -31.5325   21.1625 C   0  0  0  0  0  0  0  0  0  0  0  0
  -24.5048   -9.4440   20.6731 C   0  0  0  0  0  0  0  0  0  0  0  0
  -23.4636   -8.6011   20.2845 C   0  0  0  0  0  0  0  0  0  0  0  0
  -24.9148  -29.9583   22.5968 C   0  0  0  0  0  0  0  0  0  0  0  0
  -20.9516  -27.4024   22.5889 C   0  0  0  0  0  0  0  0  0  0  0  0
  -18.6443  -28.0799   22.5502 C   0  0  0  0  0  0  0  0  0  0  0  0
  -21.8922   -9.9883   21.4860 C   0  0  0  0  0  0  0  0  0  0  0  0
  -25.0744  -15.3734   20.6847 C   0  0  0  0  0  0  0  0  0  0  0  0
  -26.0432  -17.5348   19.7374 C   0  0  0  0  0  0  0  0  0  0  0  0
  -23.0895  -24.5074   15.5213 C   0  0  0  0  0  0  0  0  0  0  0  0
  -25.1532  -29.7783   20.1947 C   0  0  0  0  0  0  0  0  0  0  0  0
  -22.8923  -25.4506   16.5479 C   0  0  0  0  0  0  0  0  0  0  0  0
  -25.4650  -29.3116   21.4796 C   0  0  0  0  0  0  0  0  0  0  0  0
  -19.9892  -28.3998   22.6989 C   0  0  0  0  0  0  0  0  0  0  0  0
  -25.2088  -12.6998   21.4699 C   0  0  0  0  0  0  0  0  0  0  0  0
  -24.0765  -31.0617   22.4386 C   0  0  0  0  0  0  0  0  0  0  0  0
  -24.2397  -10.5590   21.4682 C   0  0  0  0  0  0  0  0  0  0  0  0
  -22.1573   -8.8732   20.6909 C   0  0  0  0  0  0  0  0  0  0  0  0
  -22.9334  -10.8311   21.8746 C   0  0  0  0  0  0  0  0  0  0  0  0
  -25.0044  -16.7541   20.2788 C   0  0  0  0  0  0  0  0  0  0  0  0
  -20.5208  -26.1110   22.3315 C   0  0  0  0  0  0  0  0  0  0  0  0
  -18.3167  -26.7582   22.2942 C   0  0  0  0  0  0  0  0  0  0  0  0
  -25.4720  -18.7652   19.5226 C   0  0  0  0  0  0  0  0  0  0  0  0
  -21.4887  -25.0327   22.2078 C   0  0  0  0  0  0  0  0  0  0  0  0
  -21.3489  -23.9400   21.4270 C   0  0  0  0  0  0  0  0  0  0  0  0
  -20.4509  -30.0535   24.2078 C   0  0  0  0  0  0  0  0  0  0  0  0
  -27.4030  -17.1795   19.4539 C   0  0  0  0  0  0  0  0  0  0  0  0
  -22.4294  -22.9338   21.4018 C   0  0  0  0  0  0  0  0  0  0  0  0
  -25.0018  -26.7327   19.2972 C   0  0  0  0  0  0  0  0  0  0  0  0
  -28.0138  -26.6345   20.4973 C   0  0  0  0  0  0  0  0  0  0  0  0
  -30.3324  -27.9662   22.6182 C   0  0  0  0  0  0  0  0  0  0  0  0
  -23.8758  -23.2406   15.7483 C   0  0  0  0  0  0  0  0  0  0  0  0
  -25.7480  -29.1199   18.9801 C   0  0  0  0  0  0  0  0  0  0  0  0
  -26.3698  -28.1271   21.6953 C   0  0  0  0  0  0  0  0  0  0  0  0
  -24.7686  -23.2913   16.9855 C   0  0  0  0  0  0  0  0  0  0  0  0
  -20.6521  -20.2418   19.6621 C   0  0  0  0  0  0  0  0  0  0  0  0
  -23.9973  -23.8482   18.1779 C   0  0  0  0  0  0  0  0  0  0  0  0
  -21.7083  -19.1399   19.6696 C   0  0  0  0  0  0  0  0  0  0  0  0
  -20.7159  -21.1035   20.9223 C   0  0  0  0  0  0  0  0  0  0  0  0
  -23.1229  -20.5786   21.1893 C   0  0  0  0  0  0  0  0  0  0  0  0
  -23.5293  -25.2838   17.9104 C   0  0  1  0  0  0  0  0  0  0  0  0
  -26.1700  -27.6753   19.2298 C   0  0  1  0  0  0  0  0  0  0  0  0
  -23.1076  -19.7287   19.9091 C   0  0  1  0  0  0  0  0  0  0  0  0
  -16.8832  -26.3787   22.1278 C   0  0  0  0  0  0  0  0  0  0  0  0
  -32.6931  -27.6475   23.4074 C   0  0  0  0  0  0  0  0  0  0  0  0
  -27.1194  -24.2746   22.2122 C   0  0  0  0  0  0  0  0  0  0  0  0
  -29.1612  -24.6141   23.6208 C   0  0  0  0  0  0  0  0  0  0  0  0
  -29.3963  -24.0301   21.2071 C   0  0  0  0  0  0  0  0  0  0  0  0
  -31.1453  -30.6355   21.6318 C   0  0  0  0  0  0  0  0  0  0  0  0
  -20.8402  -31.4502   24.6087 C   0  0  0  0  0  0  0  0  0  0  0  0
  -22.1173  -31.4411   25.4401 C   0  0  0  0  0  0  0  0  0  0  0  0
  -23.3104  -30.8715   24.6820 C   0  0  0  0  0  0  0  0  0  1  0  0
  -28.6163  -26.3471   21.8514 C   0  0  1  0  0  0  0  0  0  0  0  0
  -31.7861  -28.3498   22.4089 C   0  0  2  0  0  0  0  0  0  0  0  0
  -28.5547  -24.8376   22.2191 C   0  0  0  0  0  0  0  0  0  0  0  0
  -23.8598  -17.4318   20.4005 N   0  0  0  0  0  0  0  0  0  0  0  0
  -19.2234  -25.7619   22.1807 N   0  0  0  0  0  0  0  0  0  0  0  0
  -20.3752  -29.7253   22.9596 N   0  0  0  0  0  0  0  0  0  0  0  0
  -24.1762  -18.6513   19.9327 N   0  0  0  0  0  0  0  0  0  0  0  0
  -22.0767  -21.6069   21.1619 N   0  0  0  0  0  0  0  0  0  0  0  0
  -26.9216  -27.5134   20.4760 N   0  0  0  0  0  0  0  0  0  0  0  0
  -25.9566  -19.9227   19.0248 N   0  0  0  0  0  0  0  0  0  0  0  0
  -27.8248  -15.8728   19.7353 N   0  0  0  0  0  0  0  0  0  0  0  0
  -24.6276  -26.2121   18.0731 N   0  0  0  0  0  0  0  0  0  0  0  0
  -29.9658  -26.9006   21.8235 N   0  0  0  0  0  0  0  0  0  0  0  0
  -31.9618  -29.8211   22.5684 N   0  3  0  0  0  0  0  0  0  0  0  0
  -28.2243  -18.0011   18.9807 O   0  0  0  0  0  0  0  0  0  0  0  0
  -23.5796  -23.3295   21.5999 O   0  0  0  0  0  0  0  0  0  0  0  0
  -24.4795  -26.4942   20.3799 O   0  0  0  0  0  0  0  0  0  0  0  0
  -28.4990  -26.1045   19.4947 O   0  0  0  0  0  0  0  0  0  0  0  0
  -29.5966  -28.5508   23.4103 O   0  0  0  0  0  0  0  0  0  0  0  0
  -25.2744  -11.3953   21.8525 O   0  0  0  0  0  0  0  0  0  0  0  0
  -23.5514  -31.6801   23.5311 O   0  0  0  0  0  0  0  0  0  1  0  0
  -21.1573   -8.0646   20.3164 F   0  0  0  0  0  0  0  0  0  0  0  0
  -22.6725  -11.9015   22.6375 F   0  0  0  0  0  0  0  0  0  0  0  0
  1  2  1  0  0  0  0
  1  5  2  0  0  0  0
  2  6  2  0  0  0  0
  3  8  2  0  0  0  0
  3 17  1  0  0  0  0
  4  9  1  0  0  0  0
  4 17  2  0  0  0  0
  5 19  1  0  0  0  0
  6 21  1  0  0  0  0
  7 10  2  0  0  0  0
  7 20  1  0  0  0  0
  8 24  1  0  0  0  0
  9 24  2  0  0  0  0
 10 25  1  0  0  0  0
 11 12  2  0  0  0  0
 11 26  1  0  0  0  0
 12 27  1  0  0  0  0
 13 22  1  0  0  0  0
 13 25  2  0  0  0  0
 14 23  2  0  0  0  0
 14 30  1  0  0  0  0
 15 23  1  0  0  0  0
 15 31  2  0  0  0  0
 16 27  2  0  0  0  0
 16 28  1  0  0  0  0
 17 29  1  0  0  0  0
 18 29  1  0  0  0  0
 18 32  2  0  0  0  0
 18 36  1  0  0  0  0
 19 21  2  0  0  0  0
 19 41  1  0  0  0  0
 20 22  2  0  0  0  0
 20 42  1  0  0  0  0
 21 50  1  0  0  0  0
 22 43  1  0  0  0  0
 23 67  1  0  0  0  0
 24 81  1  0  0  0  0
 25 82  1  0  0  0  0
 26 28  2  0  0  0  0
 26 81  1  0  0  0  0
 27 83  1  0  0  0  0
 28 84  1  0  0  0  0
 29 65  2  0  0  0  0
 30 33  1  0  0  0  0
 30 66  2  0  0  0  0
 31 53  1  0  0  0  0
 31 66  1  0  0  0  0
 32 68  1  0  0  0  0
 32 71  1  0  0  0  0
 33 34  2  0  0  0  0
 34 37  1  0  0  0  0
 35 59  1  0  0  0  0
 35 67  2  0  0  0  0
 36 72  1  0  0  0  0
 36 76  2  0  0  0  0
 37 69  1  0  0  0  0
 37 77  2  0  0  0  0
 38 51  1  0  0  0  0
 38 73  1  0  0  0  0
 38 78  2  0  0  0  0
 39 62  1  0  0  0  0
 39 70  1  0  0  0  0
 39 79  2  0  0  0  0
 40 63  1  0  0  0  0
 40 74  1  0  0  0  0
 40 80  2  0  0  0  0
 41 44  1  0  0  0  0
 42 51  1  0  0  0  0
 43 70  1  0  0  0  0
 44 46  1  0  0  0  0
 45 47  1  0  0  0  0
 45 48  1  0  0  0  0
 46 50  1  0  0  0  0
 47 52  1  0  0  0  0
 48 69  1  0  0  0  0
 49 52  1  0  0  0  0
 49 69  1  0  0  0  0
 50 73  1  0  0  0  0
 51 70  1  0  0  0  0
 52 68  1  0  0  0  0
 54 63  1  0  0  0  0
 55 64  1  0  0  0  0
 56 64  1  0  0  0  0
 57 64  1  0  0  0  0
 58 75  1  0  0  0  0
 59 60  1  0  0  0  0
 60 61  1  0  0  0  0
 61 82  1  0  0  0  0
 62 64  1  0  0  0  0
 62 74  1  0  0  0  0
 63 75  1  0  0  0  0
 65 68  1  0  0  0  0
M  CHG  1  75   1
M  ISO  4  34 100  37 100  61 101  82 101
M  END
> <Batch ID>
0126

> <Smiles>
CNC(C)C(=O)NC(C(=O)N1Cc2cc([101O:1][101CH2:1]CC=CNc3cc(C)nc(C=[100CH:0][100C:0](=O)N4CCCC(n5nc(-c6ccc(Oc7ccc(F)cc7F)cc6)c(C(N)=O)c5N)C4)c3)ccc2CC1C(=O)NC1CCCc2ccccc21)C(C)(C)C

> <Shape>
0.213

> <Color>
0.092

> <Negative vol penalty>
0.000

$$$$

  -OEChem-04052302113D

 84 92  0     1  0  0  0  0  0999 V2000
  -18.9536  -16.6261   20.0277 C   0  0  0  0  0  0  0  0  0  0  0  0
  -20.1961  -17.1376   20.3883 C   0  0  0  0  0  0  0  0  0  0  0  0
  -23.0773   -9.8642   19.9413 C   0  0  0  0  0  0  0  0  0  0  0  0
  -23.8320   -9.8782   22.2364 C   0  0  0  0  0  0  0  0  0  0  0  0
  -17.9301  -17.4909   19.6426 C   0  0  0  0  0  0  0  0  0  0  0  0
  -20.4160  -18.5144   20.3629 C   0  0  0  0  0  0  0  0  0  0  0  0
  -22.8489  -20.1695   24.4844 C   0  0  0  0  0  0  0  0  0  0  0  0
  -32.6650  -17.4772   23.4317 C   0  0  0  0  0  0  0  0  0  0  0  0
  -32.0579  -16.5989   22.5342 C   0  0  0  0  0  0  0  0  0  0  0  0
  -22.3333   -8.7115   20.1929 C   0  0  0  0  0  0  0  0  0  0  0  0
  -23.0879   -8.7254   22.4880 C   0  0  0  0  0  0  0  0  0  0  0  0
  -24.2258  -19.9578   24.5390 C   0  0  0  0  0  0  0  0  0  0  0  0
  -19.8587   -7.9281   23.0854 C   0  0  0  0  0  0  0  0  0  0  0  0
  -19.0991   -7.8913   24.2547 C   0  0  0  0  0  0  0  0  0  0  0  0
  -24.5979  -22.2410   23.8552 C   0  0  0  0  0  0  0  0  0  0  0  0
  -20.3395   -5.9565   24.9996 C   0  0  0  0  0  0  0  0  0  0  0  0
  -23.8267  -10.4475   20.9630 C   0  0  0  0  0  0  0  0  0  0  0  0
  -30.4974  -18.3533   24.0407 C   0  0  0  0  0  0  0  0  0  0  0  0
  -24.1678  -12.9725   20.8365 C   0  0  0  0  0  0  0  0  0  0  0  0
  -18.1346  -18.8796   19.6217 C   0  0  0  0  0  0  0  0  0  0  0  0
  -22.3352  -21.4175   24.1036 C   0  0  0  0  0  0  0  0  0  0  0  0
  -19.3947  -19.3985   19.9758 C   0  0  0  0  0  0  0  0  0  0  0  0
  -23.2141  -22.4667   23.7990 C   0  0  0  0  0  0  0  0  0  0  0  0
  -31.8848  -18.3544   24.1850 C   0  0  0  0  0  0  0  0  0  0  0  0
  -29.8902  -17.4750   23.1432 C   0  0  0  0  0  0  0  0  0  0  0  0
  -30.6705  -16.5978   22.3899 C   0  0  0  0  0  0  0  0  0  0  0  0
  -22.3386   -8.1421   21.4662 C   0  0  0  0  0  0  0  0  0  0  0  0
  -25.1005  -20.9927   24.2216 C   0  0  0  0  0  0  0  0  0  0  0  0
  -20.8587   -6.9791   22.8732 C   0  0  0  0  0  0  0  0  0  0  0  0
  -19.3395   -6.9055   25.2118 C   0  0  0  0  0  0  0  0  0  0  0  0
  -21.0991   -5.9933   23.8303 C   0  0  0  0  0  0  0  0  0  0  0  0
  -24.5959  -11.6380   20.7036 C   0  0  0  0  0  0  0  0  0  0  0  0
  -25.2605  -13.7213   20.4735 C   0  0  0  0  0  0  0  0  0  0  0  0
  -29.6772  -19.2808   24.8377 C   0  0  0  0  0  0  0  0  0  0  0  0
  -29.3453  -20.5288   24.4718 C   0  0  0  0  0  0  0  0  0  0  0  0
  -22.8962  -13.4890   21.2510 C   0  0  0  0  0  0  0  0  0  0  0  0
  -20.5144  -22.4598   21.7157 C   0  0  0  0  0  0  0  0  0  0  0  0
  -20.6284  -25.2513   23.3641 C   0  0  0  0  0  0  0  0  0  0  0  0
  -22.2714  -27.2222   25.6142 C   0  0  0  0  0  0  0  0  0  0  0  0
  -30.7259  -14.7695   20.6577 C   0  0  0  0  0  0  0  0  0  0  0  0
  -17.0126  -19.7717   19.1528 C   0  0  0  0  0  0  0  0  0  0  0  0
  -20.8475  -21.6375   24.0756 C   0  0  0  0  0  0  0  0  0  0  0  0
  -22.7134  -23.8312   23.4040 C   0  0  0  0  0  0  0  0  0  0  0  0
  -17.2123  -21.2417   19.5126 C   0  0  0  0  0  0  0  0  0  0  0  0
  -29.6179  -12.3484   18.2939 C   0  0  0  0  0  0  0  0  0  0  0  0
  -18.6329  -21.6851   19.1777 C   0  0  0  0  0  0  0  0  0  0  0  0
  -28.1773  -12.0575   18.7210 C   0  0  0  0  0  0  0  0  0  0  0  0
  -30.5301  -12.5810   19.4970 C   0  0  0  0  0  0  0  0  0  0  0  0
  -28.6197  -13.3088   20.8718 C   0  0  0  0  0  0  0  0  0  0  0  0
  -19.6644  -20.8876   19.9847 C   0  0  1  0  0  0  0  0  0  0  0  0
  -20.4320  -22.7985   23.1773 C   0  0  1  0  0  0  0  0  0  0  0  0
  -27.6497  -13.1317   19.6922 C   0  0  2  0  0  0  0  0  0  0  0  0
  -32.5743  -19.2799   25.1360 C   0  0  0  0  0  0  0  0  0  0  0  0
  -27.9585  -18.1753   21.7064 C   0  0  0  0  0  0  0  0  0  0  0  0
  -22.1416  -29.4651   26.7321 C   0  0  0  0  0  0  0  0  0  0  0  0
  -21.5875  -26.5855   20.7932 C   0  0  0  0  0  0  0  0  0  0  0  0
  -22.3347  -28.5397   22.1684 C   0  0  0  0  0  0  0  0  0  0  0  0
  -19.9205  -27.9155   22.0995 C   0  0  0  0  0  0  0  0  0  0  0  0
  -22.0910  -26.0005   28.3038 C   0  0  0  0  0  0  0  0  0  0  0  0
  -28.4004  -17.4651   22.9799 C   0  0  0  0  0  0  0  0  0  0  0  0
  -28.5143  -21.4486   25.3239 C   0  0  0  0  0  0  0  0  0  0  0  0
  -27.2611  -21.9149   24.5924 C   0  0  0  0  0  0  0  0  0  1  0  0
  -21.5433  -26.4521   23.3712 C   0  0  1  0  0  0  0  0  0  0  0  0
  -21.7800  -27.9910   26.8274 C   0  0  2  0  0  0  0  0  0  0  0  0
  -21.3562  -27.3470   22.1136 C   0  0  0  0  0  0  0  0  0  0  0  0
  -25.8618  -11.5414   20.2885 N   0  0  0  0  0  0  0  0  0  0  0  0
  -26.2385  -12.8247   20.1573 N   0  0  0  0  0  0  0  0  0  0  0  0
  -21.2504  -23.9949   23.3852 N   0  0  0  0  0  0  0  0  0  0  0  0
  -29.9688  -13.6142   20.3701 N   0  0  0  0  0  0  0  0  0  0  0  0
  -25.4706  -15.0526   20.3971 N   0  0  0  0  0  0  0  0  0  0  0  0
  -21.8839  -12.5804   21.5886 N   0  0  0  0  0  0  0  0  0  0  0  0
  -30.0763  -15.6967   21.4720 N   0  0  0  0  0  0  0  0  0  0  0  0
  -19.7348  -21.3815   21.3433 N   0  0  0  0  0  0  0  0  0  0  0  0
  -21.3040  -27.1402   24.6352 N   0  0  0  0  0  0  0  0  0  0  0  0
  -22.3858  -27.4379   28.0715 N   0  3  0  0  0  0  0  0  0  0  0  0
  -22.6594  -14.7197   21.3042 O   0  0  0  0  0  0  0  0  0  0  0  0
  -21.2311  -23.1284   20.9801 O   0  0  0  0  0  0  0  0  0  0  0  0
  -19.4068  -25.4218   23.3480 O   0  0  0  0  0  0  0  0  0  0  0  0
  -23.4019  -26.7455   25.5408 O   0  0  0  0  0  0  0  0  0  0  0  0
  -31.8560  -14.9373   20.1922 O   0  0  0  0  0  0  0  0  0  0  0  0
  -21.6125   -7.0175   21.7122 O   0  0  0  0  0  0  0  0  0  0  0  0
  -26.4450  -20.7886   24.2734 O   0  0  0  0  0  0  0  0  0  1  0  0
  -18.6110   -6.8712   26.3353 F   0  0  0  0  0  0  0  0  0  0  0  0
  -22.0592   -5.0796   23.6325 F   0  0  0  0  0  0  0  0  0  0  0  0
  1  2  1  0  0  0  0
  1  5  2  0  0  0  0
  2  6  2  0  0  0  0
  3 10  2  0  0  0  0
  3 17  1  0  0  0  0
  4 11  1  0  0  0  0
  4 17  2  0  0  0  0
  5 20  1  0  0  0  0
  6 22  1  0  0  0  0
  7 12  2  0  0  0  0
  7 21  1  0  0  0  0
  8  9  1  0  0  0  0
  8 24  2  0  0  0  0
  9 26  2  0  0  0  0
 10 27  1  0  0  0  0
 11 27  2  0  0  0  0
 12 28  1  0  0  0  0
 13 14  2  0  0  0  0
 13 29  1  0  0  0  0
 14 30  1  0  0  0  0
 15 23  1  0  0  0  0
 15 28  2  0  0  0  0
 16 30  2  0  0  0  0
 16 31  1  0  0  0  0
 17 32  1  0  0  0  0
 18 24  1  0  0  0  0
 18 25  2  0  0  0  0
 18 34  1  0  0  0  0
 19 32  1  0  0  0  0
 19 33  2  0  0  0  0
 19 36  1  0  0  0  0
 20 22  2  0  0  0  0
 20 41  1  0  0  0  0
 21 23  2  0  0  0  0
 21 42  1  0  0  0  0
 22 50  1  0  0  0  0
 23 43  1  0  0  0  0
 24 53  1  0  0  0  0
 25 26  1  0  0  0  0
 25 60  1  0  0  0  0
 26 72  1  0  0  0  0
 27 81  1  0  0  0  0
 28 82  1  0  0  0  0
 29 31  2  0  0  0  0
 29 81  1  0  0  0  0
 30 83  1  0  0  0  0
 31 84  1  0  0  0  0
 32 66  2  0  0  0  0
 33 67  1  0  0  0  0
 33 70  1  0  0  0  0
 34 35  2  0  0  0  0
 35 61  1  0  0  0  0
 36 71  1  0  0  0  0
 36 76  2  0  0  0  0
 37 51  1  0  0  0  0
 37 73  1  0  0  0  0
 37 77  2  0  0  0  0
 38 63  1  0  0  0  0
 38 68  1  0  0  0  0
 38 78  2  0  0  0  0
 39 64  1  0  0  0  0
 39 74  1  0  0  0  0
 39 79  2  0  0  0  0
 40 69  1  0  0  0  0
 40 72  1  0  0  0  0
 40 80  2  0  0  0  0
 41 44  1  0  0  0  0
 42 51  1  0  0  0  0
 43 68  1  0  0  0  0
 44 46  1  0  0  0  0
 45 47  1  0  0  0  0
 45 48  1  0  0  0  0
 46 50  1  0  0  0  0
 47 52  1  0  0  0  0
 48 69  1  0  0  0  0
 49 52  1  0  0  0  0
 49 69  1  0  0  0  0
 50 73  1  0  0  0  0
 51 68  1  0  0  0  0
 52 67  1  0  0  0  0
 54 60  1  0  0  0  0
 55 64  1  0  0  0  0
 56 65  1  0  0  0  0
 57 65  1  0  0  0  0
 58 65  1  0  0  0  0
 59 75  1  0  0  0  0
 61 62  1  0  0  0  0
 62 82  1  0  0  0  0
 63 65  1  0  0  0  0
 63 74  1  0  0  0  0
 64 75  1  0  0  0  0
 66 67  1  0  0  0  0
M  CHG  1  75   1
M  ISO  4  40 100  62 101  72 100  82 101
M  END
> <Batch ID>
0126

> <Smiles>
CCc1c([100NH:0][100C:0](=O)N2CCCC(n3nc(-c4ccc(Oc5ccc(F)cc5F)cc4)c(C(N)=O)c3N)C2)ccc(C)c1C=CC[101CH2:1][101O:1]c1ccc2c(c1)CN(C(=O)C(NC(=O)C(C)NC)C(C)(C)C)C(C(=O)NC1CCCc3ccccc31)C2

> <Shape>
0.207

> <Color>
0.196

> <Negative vol penalty>
0.000

$$$$

  -OEChem-04052302113D

 84 92  0     1  0  0  0  0  0999 V2000
  -27.6200  -34.9684   23.5798 C   0  0  0  0  0  0  0  0  0  0  0  0
  -27.8784  -33.6544   23.2031 C   0  0  0  0  0  0  0  0  0  0  0  0
  -22.5410  -10.2142   20.1882 C   0  0  0  0  0  0  0  0  0  0  0  0
  -24.4395   -9.3454   21.4039 C   0  0  0  0  0  0  0  0  0  0  0  0
  -26.3778  -35.3078   24.1141 C   0  0  0  0  0  0  0  0  0  0  0  0
  -26.8949  -32.6786   23.3616 C   0  0  0  0  0  0  0  0  0  0  0  0
  -25.8521  -27.8752   19.7085 C   0  0  0  0  0  0  0  0  0  0  0  0
  -21.8675   -9.0075   20.3776 C   0  0  0  0  0  0  0  0  0  0  0  0
  -23.7659   -8.1387   21.5934 C   0  0  0  0  0  0  0  0  0  0  0  0
  -26.2226  -26.5338   19.7940 C   0  0  0  0  0  0  0  0  0  0  0  0
  -21.3473   -6.9296   23.6204 C   0  0  0  0  0  0  0  0  0  0  0  0
  -21.3833   -6.3621   24.8941 C   0  0  0  0  0  0  0  0  0  0  0  0
  -28.8098  -17.3031   19.3269 C   0  0  0  0  0  0  0  0  0  0  0  0
  -24.0859  -26.0130   20.7851 C   0  0  0  0  0  0  0  0  0  0  0  0
  -22.4421   -4.3897   23.9853 C   0  0  0  0  0  0  0  0  0  0  0  0
  -23.8270  -10.3831   20.7013 C   0  0  0  0  0  0  0  0  0  0  0  0
  -29.6795  -16.4060   19.9919 C   0  0  0  0  0  0  0  0  0  0  0  0
  -24.5008  -12.7572   21.3474 C   0  0  0  0  0  0  0  0  0  0  0  0
  -25.3752  -34.3377   24.2702 C   0  0  0  0  0  0  0  0  0  0  0  0
  -24.5978  -28.2980   20.1715 C   0  0  0  0  0  0  0  0  0  0  0  0
  -25.6385  -33.0051   23.8998 C   0  0  0  0  0  0  0  0  0  0  0  0
  -23.7009  -27.3599   20.7020 C   0  0  0  0  0  0  0  0  0  0  0  0
  -22.4799   -7.9698   21.0802 C   0  0  0  0  0  0  0  0  0  0  0  0
  -25.3406  -25.6030   20.3350 C   0  0  0  0  0  0  0  0  0  0  0  0
  -21.8586   -6.2271   22.5292 C   0  0  0  0  0  0  0  0  0  0  0  0
  -21.9307   -5.0922   25.0765 C   0  0  0  0  0  0  0  0  0  0  0  0
  -22.4060   -4.9572   22.7116 C   0  0  0  0  0  0  0  0  0  0  0  0
  -24.5235  -11.6292   20.5055 C   0  0  0  0  0  0  0  0  0  0  0  0
  -28.4731  -18.2645   20.2511 C   0  0  0  0  0  0  0  0  0  0  0  0
  -29.8123  -16.8834   21.2751 C   0  0  0  0  0  0  0  0  0  0  0  0
  -25.3182  -13.6678   20.7235 C   0  0  0  0  0  0  0  0  0  0  0  0
  -27.5877  -19.4253   20.0505 C   0  0  0  0  0  0  0  0  0  0  0  0
  -27.2785  -20.3198   20.9996 C   0  0  0  0  0  0  0  0  0  0  0  0
  -30.3126  -15.2306   19.4712 C   0  0  0  0  0  0  0  0  0  0  0  0
  -23.8034  -12.9634   22.5830 C   0  0  0  0  0  0  0  0  0  0  0  0
  -26.3612  -21.4588   20.6967 C   0  0  0  0  0  0  0  0  0  0  0  0
  -30.1155  -14.7855   18.0726 C   0  0  0  0  0  0  0  0  0  0  0  0
  -23.5982  -30.2967   22.4320 C   0  0  0  0  0  0  0  0  0  0  0  0
  -20.6839  -29.6668   21.1542 C   0  0  0  0  0  0  0  0  0  0  0  0
  -18.7022  -27.5385   19.3681 C   0  0  0  0  0  0  0  0  0  0  0  0
  -24.0643  -34.7428   24.8963 C   0  0  0  0  0  0  0  0  0  0  0  0
  -24.2029  -29.7441   20.0476 C   0  0  0  0  0  0  0  0  0  0  0  0
  -22.3347  -27.7593   21.1945 C   0  0  0  0  0  0  0  0  0  0  0  0
  -22.9472  -33.7243   24.6834 C   0  0  0  0  0  0  0  0  0  0  0  0
  -27.3411  -13.6652   16.0966 C   0  0  0  0  0  0  0  0  0  0  0  0
  -23.4471  -32.3139   24.9795 C   0  0  0  0  0  0  0  0  0  0  0  0
  -26.3765  -13.0929   17.1347 C   0  0  0  0  0  0  0  0  0  0  0  0
  -28.7944  -13.4304   16.4955 C   0  0  0  0  0  0  0  0  0  0  0  0
  -28.1755  -13.3856   18.8963 C   0  0  0  0  0  0  0  0  0  0  0  0
  -24.5888  -31.9233   24.0331 C   0  0  1  0  0  0  0  0  0  0  0  0
  -23.1006  -30.1480   21.0220 C   0  0  1  0  0  0  0  0  0  0  0  0
  -26.6981  -13.6281   18.5414 C   0  0  2  0  0  0  0  0  0  0  0  0
  -30.5629  -16.4235   22.4535 C   0  0  0  0  0  0  0  0  0  0  0  0
  -16.3553  -27.2779   18.5186 C   0  0  0  0  0  0  0  0  0  0  0  0
  -19.7531  -28.9193   23.9621 C   0  0  0  0  0  0  0  0  0  0  0  0
  -17.7708  -27.7914   22.9293 C   0  0  0  0  0  0  0  0  0  0  0  0
  -18.1009  -30.2463   22.6341 C   0  0  0  0  0  0  0  0  0  0  0  0
  -19.6041  -27.4909   16.5498 C   0  0  0  0  0  0  0  0  0  0  0  0
  -26.0903  -22.4027   21.8583 C   0  0  0  0  0  0  0  0  0  0  0  0
  -25.1417  -23.5350   21.4925 C   0  0  0  0  0  0  0  0  0  1  0  0
  -19.6090  -28.6357   21.4000 C   0  0  1  0  0  0  0  0  0  0  0  0
  -17.7564  -27.7797   18.2055 C   0  0  2  0  0  0  0  0  0  0  0  0
  -18.8349  -28.8907   22.7240 C   0  0  0  0  0  0  0  0  0  0  0  0
  -25.2941  -11.8049   19.4287 N   0  0  0  0  0  0  0  0  0  0  0  0
  -31.1138  -14.4528   20.1705 N   0  0  0  0  0  0  0  0  0  0  0  0
  -25.7631  -13.0539   19.5898 N   0  0  0  0  0  0  0  0  0  0  0  0
  -29.0564  -13.9171   17.8485 N   0  0  0  0  0  0  0  0  0  0  0  0
  -21.9974  -29.1858   21.0578 N   0  0  0  0  0  0  0  0  0  0  0  0
  -25.6924  -14.9258   21.0396 N   0  0  0  0  0  0  0  0  0  0  0  0
  -23.0070  -11.9238   23.0823 N   0  0  0  0  0  0  0  0  0  0  0  0
  -24.0661  -31.5616   22.7330 N   0  0  0  0  0  0  0  0  0  0  0  0
  -18.7683  -28.6303   20.2077 N   0  0  0  0  0  0  0  0  0  0  0  0
  -18.2455  -27.0771   16.9856 N   0  3  0  0  0  0  0  0  0  0  0  0
  -23.8710  -14.0437   23.2170 O   0  0  0  0  0  0  0  0  0  0  0  0
  -25.8677  -21.6121   19.5828 O   0  0  0  0  0  0  0  0  0  0  0  0
  -30.9129  -15.2336   17.2591 O   0  0  0  0  0  0  0  0  0  0  0  0
  -23.5590  -29.3355   23.1910 O   0  0  0  0  0  0  0  0  0  0  0  0
  -20.3689  -30.8544   21.0444 O   0  0  0  0  0  0  0  0  0  0  0  0
  -19.3177  -26.4854   19.5187 O   0  0  0  0  0  0  0  0  0  0  0  0
  -29.0801  -18.0160   21.4412 O   0  0  0  0  0  0  0  0  0  0  0  0
  -21.8229   -6.7923   21.2654 O   0  0  0  0  0  0  0  0  0  0  0  0
  -25.7000  -24.2932   20.4202 O   0  0  0  0  0  0  0  0  0  1  0  0
  -21.9666   -4.5479   26.2999 F   0  0  0  0  0  0  0  0  0  0  0  0
  -22.8998   -4.2780   21.6673 F   0  0  0  0  0  0  0  0  0  0  0  0
  1  2  1  0  0  0  0
  1  5  2  0  0  0  0
  2  6  2  0  0  0  0
  3  8  2  0  0  0  0
  3 16  1  0  0  0  0
  4  9  1  0  0  0  0
  4 16  2  0  0  0  0
  5 19  1  0  0  0  0
  6 21  1  0  0  0  0
  7 10  2  0  0  0  0
  7 20  1  0  0  0  0
  8 23  1  0  0  0  0
  9 23  2  0  0  0  0
 10 24  1  0  0  0  0
 11 12  2  0  0  0  0
 11 25  1  0  0  0  0
 12 26  1  0  0  0  0
 13 17  1  0  0  0  0
 13 29  2  0  0  0  0
 14 22  1  0  0  0  0
 14 24  2  0  0  0  0
 15 26  2  0  0  0  0
 15 27  1  0  0  0  0
 16 28  1  0  0  0  0
 17 30  2  0  0  0  0
 17 34  1  0  0  0  0
 18 28  1  0  0  0  0
 18 31  2  0  0  0  0
 18 35  1  0  0  0  0
 19 21  2  0  0  0  0
 19 41  1  0  0  0  0
 20 22  2  0  0  0  0
 20 42  1  0  0  0  0
 21 50  1  0  0  0  0
 22 43  1  0  0  0  0
 23 81  1  0  0  0  0
 24 82  1  0  0  0  0
 25 27  2  0  0  0  0
 25 81  1  0  0  0  0
 26 83  1  0  0  0  0
 27 84  1  0  0  0  0
 28 64  2  0  0  0  0
 29 32  1  0  0  0  0
 29 80  1  0  0  0  0
 30 53  1  0  0  0  0
 30 80  1  0  0  0  0
 31 66  1  0  0  0  0
 31 69  1  0  0  0  0
 32 33  2  0  0  0  0
 33 36  1  0  0  0  0
 34 37  1  0  0  0  0
 34 65  2  0  0  0  0
 35 70  1  0  0  0  0
 35 74  2  0  0  0  0
 36 59  1  0  0  0  0
 36 75  2  0  0  0  0
 37 67  1  0  0  0  0
 37 76  2  0  0  0  0
 38 51  1  0  0  0  0
 38 71  1  0  0  0  0
 38 77  2  0  0  0  0
 39 61  1  0  0  0  0
 39 68  1  0  0  0  0
 39 78  2  0  0  0  0
 40 62  1  0  0  0  0
 40 72  1  0  0  0  0
 40 79  2  0  0  0  0
 41 44  1  0  0  0  0
 42 51  1  0  0  0  0
 43 68  1  0  0  0  0
 44 46  1  0  0  0  0
 45 47  1  0  0  0  0
 45 48  1  0  0  0  0
 46 50  1  0  0  0  0
 47 52  1  0  0  0  0
 48 67  1  0  0  0  0
 49 52  1  0  0  0  0
 49 67  1  0  0  0  0
 50 71  1  0  0  0  0
 51 68  1  0  0  0  0
 52 66  1  0  0  0  0
 54 62  1  0  0  0  0
 55 63  1  0  0  0  0
 56 63  1  0  0  0  0
 57 63  1  0  0  0  0
 58 73  1  0  0  0  0
 59 60  1  0  0  0  0
 60 82  1  0  0  0  0
 61 63  1  0  0  0  0
 61 72  1  0  0  0  0
 62 73  1  0  0  0  0
 64 66  1  0  0  0  0
M  CHG  1  73   1
M  ISO  4  34 100  37 100  60 101  82 101
M  END
> <Batch ID>
0126

> <Smiles>
CNC(C)C(=O)NC(C(=O)N1Cc2cc([101O:1][101CH2:1]CC(=O)C=Cc3cc([100C:0](=N)[100C:0](=O)N4CCCC(n5nc(-c6ccc(Oc7ccc(F)cc7F)cc6)c(C(N)=O)c5N)C4)c(C)o3)ccc2CC1C(=O)NC1CCCc2ccccc21)C(C)(C)C

> <Shape>
0.338

> <Color>
0.123

> <Negative vol penalty>
0.000

$$$$

  -OEChem-04052302113D

 84 92  0     1  0  0  0  0  0999 V2000
  -18.3739  -28.5651   29.1217 C   0  0  0  0  0  0  0  0  0  0  0  0
  -19.5111  -28.0462   28.5111 C   0  0  0  0  0  0  0  0  0  0  0  0
  -24.5799   -9.7299   21.4524 C   0  0  0  0  0  0  0  0  0  0  0  0
  -24.9031  -10.8175   23.5854 C   0  0  0  0  0  0  0  0  0  0  0  0
  -27.3304  -21.4760   21.1517 C   0  0  0  0  0  0  0  0  0  0  0  0
  -17.7264  -29.6671   28.5647 C   0  0  0  0  0  0  0  0  0  0  0  0
  -20.0009  -28.6283   27.3425 C   0  0  0  0  0  0  0  0  0  0  0  0
  -25.8694  -29.1576   25.6730 C   0  0  0  0  0  0  0  0  0  0  0  0
  -27.3973  -20.0832   21.1871 C   0  0  0  0  0  0  0  0  0  0  0  0
  -24.2810   -8.5350   22.1069 C   0  0  0  0  0  0  0  0  0  0  0  0
  -24.6041   -9.6226   24.2400 C   0  0  0  0  0  0  0  0  0  0  0  0
  -26.6720  -28.4065   24.8155 C   0  0  0  0  0  0  0  0  0  0  0  0
  -21.6376   -7.1678   23.7120 C   0  0  0  0  0  0  0  0  0  0  0  0
  -20.5356   -6.4405   23.2623 C   0  0  0  0  0  0  0  0  0  0  0  0
  -29.6280  -20.1670   20.2628 C   0  0  0  0  0  0  0  0  0  0  0  0
  -26.2130  -29.9640   23.0314 C   0  0  0  0  0  0  0  0  0  0  0  0
  -21.9747   -4.5625   22.7733 C   0  0  0  0  0  0  0  0  0  0  0  0
  -24.8910  -10.8712   22.1916 C   0  0  0  0  0  0  0  0  0  0  0  0
  -28.4122  -22.2143   20.6718 C   0  0  0  0  0  0  0  0  0  0  0  0
  -29.5610  -21.5598   20.2274 C   0  0  0  0  0  0  0  0  0  0  0  0
  -24.2974  -13.1171   21.1374 C   0  0  0  0  0  0  0  0  0  0  0  0
  -18.2141  -30.2690   27.3940 C   0  0  0  0  0  0  0  0  0  0  0  0
  -25.2226  -30.3135   25.2124 C   0  0  0  0  0  0  0  0  0  0  0  0
  -19.3586  -29.7386   26.7686 C   0  0  0  0  0  0  0  0  0  0  0  0
  -25.4047  -30.7294   23.8857 C   0  0  0  0  0  0  0  0  0  0  0  0
  -28.5461  -19.4287   20.7427 C   0  0  0  0  0  0  0  0  0  0  0  0
  -24.2930   -8.4814   23.5007 C   0  0  0  0  0  0  0  0  0  0  0  0
  -26.8416  -28.8080   23.4937 C   0  0  0  0  0  0  0  0  0  0  0  0
  -22.9082   -6.5925   23.6922 C   0  0  0  0  0  0  0  0  0  0  0  0
  -20.7041   -5.1378   22.7930 C   0  0  0  0  0  0  0  0  0  0  0  0
  -23.0767   -5.2898   23.2229 C   0  0  0  0  0  0  0  0  0  0  0  0
  -25.2005  -12.1057   21.5161 C   0  0  0  0  0  0  0  0  0  0  0  0
  -25.0818  -14.0694   20.5339 C   0  0  0  0  0  0  0  0  0  0  0  0
  -31.1738  -22.1653   18.4817 C   0  0  0  0  0  0  0  0  0  0  0  0
  -28.2960  -23.6832   20.6534 C   0  0  0  0  0  0  0  0  0  0  0  0
  -30.7156  -22.2908   19.7172 C   0  0  0  0  0  0  0  0  0  0  0  0
  -28.0700  -24.4424   21.7346 C   0  0  0  0  0  0  0  0  0  0  0  0
  -22.8766  -13.1892   21.3153 C   0  0  0  0  0  0  0  0  0  0  0  0
  -27.9591  -25.9247   21.6074 C   0  0  0  0  0  0  0  0  0  0  0  0
  -22.1905  -31.2193   24.9137 C   0  0  0  0  0  0  0  0  0  0  0  0
  -23.5268  -34.0555   24.0815 C   0  0  0  0  0  0  0  0  0  0  0  0
  -26.2305  -35.7333   22.8479 C   0  0  0  0  0  0  0  0  0  0  0  0
  -29.6781  -17.2083   20.3757 C   0  0  0  0  0  0  0  0  0  0  0  0
  -17.4529  -31.4292   26.8030 C   0  0  0  0  0  0  0  0  0  0  0  0
  -24.3817  -31.1275   26.1572 C   0  0  0  0  0  0  0  0  0  0  0  0
  -24.7487  -31.9738   23.3476 C   0  0  0  0  0  0  0  0  0  0  0  0
  -18.2524  -32.2193   25.7701 C   0  0  0  0  0  0  0  0  0  0  0  0
  -29.9250  -13.9044   19.0717 C   0  0  0  0  0  0  0  0  0  0  0  0
  -18.9403  -31.2739   24.7903 C   0  0  0  0  0  0  0  0  0  0  0  0
  -28.6436  -13.2251   19.5603 C   0  0  0  0  0  0  0  0  0  0  0  0
  -30.4854  -14.8730   20.1117 C   0  0  0  0  0  0  0  0  0  0  0  0
  -28.2494  -15.1940   21.0949 C   0  0  0  0  0  0  0  0  0  0  0  0
  -19.9347  -30.3577   25.5137 C   0  0  1  0  0  0  0  0  0  0  0  0
  -23.3579  -32.0039   25.4422 C   0  0  1  0  0  0  0  0  0  0  0  0
  -27.6120  -14.2576   20.0554 C   0  0  2  0  0  0  0  0  0  0  0  0
  -27.0106  -38.0415   22.2473 C   0  0  0  0  0  0  0  0  0  0  0  0
  -21.8415  -33.9612   21.5397 C   0  0  0  0  0  0  0  0  0  0  0  0
  -23.3253  -35.7311   20.5734 C   0  0  0  0  0  0  0  0  0  0  0  0
  -21.9789  -36.2138   22.6172 C   0  0  0  0  0  0  0  0  0  0  0  0
  -28.4344  -35.6274   24.8204 C   0  0  0  0  0  0  0  0  0  0  0  0
  -27.7031  -26.6726   22.8987 C   0  0  0  0  0  0  0  0  0  1  0  0
  -23.9838  -34.6830   22.7867 C   0  0  1  0  0  0  0  0  0  0  0  0
  -26.9507  -36.9784   23.3331 C   0  0  2  0  0  0  0  0  0  0  0  0
  -22.7933  -35.1227   21.8886 C   0  0  0  0  0  0  0  0  0  0  0  0
  -26.4621  -12.3890   21.1811 N   0  0  0  0  0  0  0  0  0  0  0  0
  -26.3573  -13.5891   20.5855 N   0  0  0  0  0  0  0  0  0  0  0  0
  -23.9311  -32.7324   24.3086 N   0  0  0  0  0  0  0  0  0  0  0  0
  -29.4534  -15.8240   20.5307 N   0  0  0  0  0  0  0  0  0  0  0  0
  -24.7980  -15.2624   19.9694 N   0  0  0  0  0  0  0  0  0  0  0  0
  -22.2285  -12.1242   21.9557 N   0  0  0  0  0  0  0  0  0  0  0  0
  -28.6135  -18.0138   20.7786 N   0  0  0  0  0  0  0  0  0  0  0  0
  -21.1545  -31.0751   25.8168 N   0  0  0  0  0  0  0  0  0  0  0  0
  -24.8868  -35.7680   23.1553 N   0  0  0  0  0  0  0  0  0  0  0  0
  -28.3445  -36.6446   23.7415 N   0  3  0  0  0  0  0  0  0  0  0  0
  -22.1995  -14.1616   20.9036 O   0  0  0  0  0  0  0  0  0  0  0  0
  -28.0691  -26.4966   20.5263 O   0  0  0  0  0  0  0  0  0  0  0  0
  -22.2263  -30.7788   23.7708 O   0  0  0  0  0  0  0  0  0  0  0  0
  -22.8424  -34.7175   24.8658 O   0  0  0  0  0  0  0  0  0  0  0  0
  -26.8020  -34.8228   22.2522 O   0  0  0  0  0  0  0  0  0  0  0  0
  -30.7262  -17.6457   19.8940 O   0  0  0  0  0  0  0  0  0  0  0  0
  -24.0011   -7.3156   24.1397 O   0  0  0  0  0  0  0  0  0  0  0  0
  -27.6240  -28.0764   22.6544 O   0  0  0  0  0  0  0  0  0  1  0  0
  -19.6456   -4.4390   22.3626 F   0  0  0  0  0  0  0  0  0  0  0  0
  -24.2947   -4.7314   23.2027 F   0  0  0  0  0  0  0  0  0  0  0  0
  1  2  1  0  0  0  0
  1  6  2  0  0  0  0
  2  7  2  0  0  0  0
  3 10  2  0  0  0  0
  3 18  1  0  0  0  0
  4 11  1  0  0  0  0
  4 18  2  0  0  0  0
  5  9  2  0  0  0  0
  5 19  1  0  0  0  0
  6 22  1  0  0  0  0
  7 24  1  0  0  0  0
  8 12  2  0  0  0  0
  8 23  1  0  0  0  0
  9 26  1  0  0  0  0
 10 27  1  0  0  0  0
 11 27  2  0  0  0  0
 12 28  1  0  0  0  0
 13 14  2  0  0  0  0
 13 29  1  0  0  0  0
 14 30  1  0  0  0  0
 15 20  1  0  0  0  0
 15 26  2  0  0  0  0
 16 25  1  0  0  0  0
 16 28  2  0  0  0  0
 17 30  2  0  0  0  0
 17 31  1  0  0  0  0
 18 32  1  0  0  0  0
 19 20  2  0  0  0  0
 19 35  1  0  0  0  0
 20 36  1  0  0  0  0
 21 32  1  0  0  0  0
 21 33  2  0  0  0  0
 21 38  1  0  0  0  0
 22 24  2  0  0  0  0
 22 44  1  0  0  0  0
 23 25  2  0  0  0  0
 23 45  1  0  0  0  0
 24 53  1  0  0  0  0
 25 46  1  0  0  0  0
 26 71  1  0  0  0  0
 27 81  1  0  0  0  0
 28 82  1  0  0  0  0
 29 31  2  0  0  0  0
 29 81  1  0  0  0  0
 30 83  1  0  0  0  0
 31 84  1  0  0  0  0
 32 65  2  0  0  0  0
 33 66  1  0  0  0  0
 33 69  1  0  0  0  0
 34 36  2  0  0  0  0
 35 37  2  0  0  0  0
 37 39  1  0  0  0  0
 38 70  1  0  0  0  0
 38 75  2  0  0  0  0
 39 61  1  0  0  0  0
 39 76  2  0  0  0  0
 40 54  1  0  0  0  0
 40 72  1  0  0  0  0
 40 77  2  0  0  0  0
 41 62  1  0  0  0  0
 41 67  1  0  0  0  0
 41 78  2  0  0  0  0
 42 63  1  0  0  0  0
 42 73  1  0  0  0  0
 42 79  2  0  0  0  0
 43 68  1  0  0  0  0
 43 71  1  0  0  0  0
 43 80  2  0  0  0  0
 44 47  1  0  0  0  0
 45 54  1  0  0  0  0
 46 67  1  0  0  0  0
 47 49  1  0  0  0  0
 48 50  1  0  0  0  0
 48 51  1  0  0  0  0
 49 53  1  0  0  0  0
 50 55  1  0  0  0  0
 51 68  1  0  0  0  0
 52 55  1  0  0  0  0
 52 68  1  0  0  0  0
 53 72  1  0  0  0  0
 54 67  1  0  0  0  0
 55 66  1  0  0  0  0
 56 63  1  0  0  0  0
 57 64  1  0  0  0  0
 58 64  1  0  0  0  0
 59 64  1  0  0  0  0
 60 74  1  0  0  0  0
 61 82  1  0  0  0  0
 62 64  1  0  0  0  0
 62 73  1  0  0  0  0
 63 74  1  0  0  0  0
 65 66  1  0  0  0  0
M  CHG  1  74   1
M  ISO  4  43 100  61 101  71 100  82 101
M  END
> <Batch ID>
0126

> <Smiles>
C=Cc1cc([100NH:0][100C:0](=O)N2CCCC(n3nc(-c4ccc(Oc5ccc(F)cc5F)cc4)c(C(N)=O)c3N)C2)ccc1C=CC(=O)[101CH2:1][101O:1]c1ccc2c(c1)CN(C(=O)C(NC(=O)C(C)NC)C(C)(C)C)C(C(=O)NC1CCCc3ccccc31)C2

> <Shape>
0.281

> <Color>
0.134

> <Negative vol penalty>
0.000

$$$$

  -OEChem-04052302113D

 83 91  0     1  0  0  0  0  0999 V2000
  -22.5043  -23.5450   21.6511 C   0  0  0  0  0  0  0  0  0  0  0  0
  -23.6998  -22.8354   21.7017 C   0  0  0  0  0  0  0  0  0  0  0  0
  -22.8399  -30.5802   20.2537 C   0  0  0  0  0  0  0  0  0  0  0  0
  -23.0007  -29.3346   22.3176 C   0  0  0  0  0  0  0  0  0  0  0  0
  -21.3147  -22.9331   22.0438 C   0  0  0  0  0  0  0  0  0  0  0  0
  -23.7065  -21.5137   22.1462 C   0  0  0  0  0  0  0  0  0  0  0  0
  -26.5164  -18.4912   19.2112 C   0  0  0  0  0  0  0  0  0  0  0  0
  -21.5914  -31.0648   20.6434 C   0  0  0  0  0  0  0  0  0  0  0  0
  -21.7521  -29.8193   22.7074 C   0  0  0  0  0  0  0  0  0  0  0  0
  -27.8993  -18.5471   19.3790 C   0  0  0  0  0  0  0  0  0  0  0  0
  -18.5042  -29.1598   22.0390 C   0  0  0  0  0  0  0  0  0  0  0  0
  -17.5966  -28.2503   22.5817 C   0  0  0  0  0  0  0  0  0  0  0  0
  -30.8981  -22.3673   20.8853 C   0  0  0  0  0  0  0  0  0  0  0  0
  -27.8113  -16.5446   20.7212 C   0  0  0  0  0  0  0  0  0  0  0  0
  -32.4116  -23.7983   22.7412 C   0  0  0  0  0  0  0  0  0  0  0  0
  -17.5379  -29.5310   24.6296 C   0  0  0  0  0  0  0  0  0  0  0  0
  -23.5446  -29.7150   21.0908 C   0  0  0  0  0  0  0  0  0  0  0  0
  -31.8717  -21.7155   21.6423 C   0  0  0  0  0  0  0  0  0  0  0  0
  -26.0900  -29.7966   20.9428 C   0  0  0  0  0  0  0  0  0  0  0  0
  -21.3053  -21.6002   22.4842 C   0  0  0  0  0  0  0  0  0  0  0  0
  -25.7679  -17.4660   19.8072 C   0  0  0  0  0  0  0  0  0  0  0  0
  -22.5158  -20.8839   22.5465 C   0  0  0  0  0  0  0  0  0  0  0  0
  -26.4193  -16.4765   20.5573 C   0  0  0  0  0  0  0  0  0  0  0  0
  -32.6284  -22.4310   22.5702 C   0  0  0  0  0  0  0  0  0  0  0  0
  -31.4380  -24.4501   21.9842 C   0  0  0  0  0  0  0  0  0  0  0  0
  -30.6813  -23.7346   21.0562 C   0  0  0  0  0  0  0  0  0  0  0  0
  -21.0475  -30.6844   21.8702 C   0  0  0  0  0  0  0  0  0  0  0  0
  -28.5466  -17.5753   20.1365 C   0  0  0  0  0  0  0  0  0  0  0  0
  -18.9288  -30.2549   22.7915 C   0  0  0  0  0  0  0  0  0  0  0  0
  -17.1134  -28.4359   23.8770 C   0  0  0  0  0  0  0  0  0  0  0  0
  -18.4456  -30.4405   24.0868 C   0  0  0  0  0  0  0  0  0  0  0  0
  -24.8341  -29.2136   20.6885 C   0  0  0  0  0  0  0  0  0  0  0  0
  -26.9906  -28.9408   20.3572 C   0  0  0  0  0  0  0  0  0  0  0  0
  -32.0775  -20.2720   21.4384 C   0  0  0  0  0  0  0  0  0  0  0  0
  -31.4536  -19.2983   22.1199 C   0  0  0  0  0  0  0  0  0  0  0  0
  -26.4135  -31.0037   21.6455 C   0  0  0  0  0  0  0  0  0  0  0  0
  -23.4431  -17.3536   21.9719 C   0  0  0  0  0  0  0  0  0  0  0  0
  -23.4144  -14.2013   21.2073 C   0  0  0  0  0  0  0  0  0  0  0  0
  -25.0976  -11.5072   19.9601 C   0  0  0  0  0  0  0  0  0  0  0  0
  -28.8581  -23.7991   19.3189 C   0  0  0  0  0  0  0  0  0  0  0  0
  -20.0017  -20.9965   22.9434 C   0  0  0  0  0  0  0  0  0  0  0  0
  -24.2802  -17.4048   19.5944 C   0  0  0  0  0  0  0  0  0  0  0  0
  -25.6640  -15.3436   21.2011 C   0  0  0  0  0  0  0  0  0  0  0  0
  -20.0386  -19.4739   23.0469 C   0  0  0  0  0  0  0  0  0  0  0  0
  -26.2637  -25.0370   17.2181 C   0  0  0  0  0  0  0  0  0  0  0  0
  -21.3027  -19.0184   23.7689 C   0  0  0  0  0  0  0  0  0  0  0  0
  -25.7638  -26.2819   17.9546 C   0  0  0  0  0  0  0  0  0  0  0  0
  -26.6490  -23.9210   18.1875 C   0  0  0  0  0  0  0  0  0  0  0  0
  -27.0980  -25.5563   19.9746 C   0  0  0  0  0  0  0  0  0  0  0  0
  -22.5601  -19.4406   22.9994 C   0  0  1  0  0  0  0  0  0  0  0  0
  -23.5547  -16.6064   20.6731 C   0  0  1  0  0  0  0  0  0  0  0  0
  -26.7592  -26.7309   19.0423 C   0  0  2  0  0  0  0  0  0  0  0  0
  -33.6806  -21.7655   23.3979 C   0  0  0  0  0  0  0  0  0  0  0  0
  -31.2266  -25.9152   22.1887 C   0  0  0  0  0  0  0  0  0  0  0  0
  -24.8244   -9.0563   19.4955 C   0  0  0  0  0  0  0  0  0  0  0  0
  -23.7265  -13.6048   24.1833 C   0  0  0  0  0  0  0  0  0  0  0  0
  -24.3938  -11.2699   23.5742 C   0  0  0  0  0  0  0  0  0  0  0  0
  -22.1208  -12.1101   22.9826 C   0  0  0  0  0  0  0  0  0  0  0  0
  -25.5477  -11.8884   17.0599 C   0  0  0  0  0  0  0  0  0  0  0  0
  -31.7036  -17.8333   21.8876 C   0  0  0  0  0  0  0  0  0  0  0  0
  -30.4225  -17.0953   21.5173 C   0  0  0  0  0  0  0  0  0  1  0  0
  -24.1300  -12.9720   21.7130 C   0  0  1  0  0  0  0  0  0  0  0  0
  -24.7056  -10.4631   18.9302 C   0  0  2  0  0  0  0  0  0  0  0  0
  -23.6071  -12.5115   23.1029 C   0  0  0  0  0  0  0  0  0  0  0  0
  -24.9247  -28.0755   19.9953 N   0  0  0  0  0  0  0  0  0  0  0  0
  -26.2484  -27.9366   19.8088 N   0  0  0  0  0  0  0  0  0  0  0  0
  -24.2101  -15.3309   20.9693 N   0  0  0  0  0  0  0  0  0  0  0  0
  -27.5974  -24.4186   19.1865 N   0  0  0  0  0  0  0  0  0  0  0  0
  -28.3372  -28.9570   20.2629 N   0  0  0  0  0  0  0  0  0  0  0  0
  -25.3668  -31.7638   22.1849 N   0  0  0  0  0  0  0  0  0  0  0  0
  -29.6875  -24.3789   20.2784 N   0  0  0  0  0  0  0  0  0  0  0  0
  -22.7806  -18.5620   21.8707 N   0  0  0  0  0  0  0  0  0  0  0  0
  -24.0042  -11.9660   20.6639 N   0  0  0  0  0  0  0  0  0  0  0  0
  -25.5841  -10.5633   17.7306 N   0  3  0  0  0  0  0  0  0  0  0  0
  -27.5946  -31.4052   21.7767 O   0  0  0  0  0  0  0  0  0  0  0  0
  -23.9212  -16.8688   22.9908 O   0  0  0  0  0  0  0  0  0  0  0  0
  -22.1954  -14.1586   21.0233 O   0  0  0  0  0  0  0  0  0  0  0  0
  -26.2581  -11.8760   20.1263 O   0  0  0  0  0  0  0  0  0  0  0  0
  -29.1888  -22.8430   18.6129 O   0  0  0  0  0  0  0  0  0  0  0  0
  -19.8293  -31.1573   22.2510 O   0  0  0  0  0  0  0  0  0  0  0  0
  -29.8963  -17.6279   20.3025 O   0  0  0  0  0  0  0  0  0  1  0  0
  -16.2406  -27.5633   24.3975 F   0  0  0  0  0  0  0  0  0  0  0  0
  -18.8489  -31.4912   24.8141 F   0  0  0  0  0  0  0  0  0  0  0  0
  1  2  1  0  0  0  0
  1  5  2  0  0  0  0
  2  6  2  0  0  0  0
  3  8  2  0  0  0  0
  3 17  1  0  0  0  0
  4  9  1  0  0  0  0
  4 17  2  0  0  0  0
  5 20  1  0  0  0  0
  6 22  1  0  0  0  0
  7 10  2  0  0  0  0
  7 21  1  0  0  0  0
  8 27  1  0  0  0  0
  9 27  2  0  0  0  0
 10 28  1  0  0  0  0
 11 12  2  0  0  0  0
 11 29  1  0  0  0  0
 12 30  1  0  0  0  0
 13 18  1  0  0  0  0
 13 26  2  0  0  0  0
 14 23  1  0  0  0  0
 14 28  2  0  0  0  0
 15 24  1  0  0  0  0
 15 25  2  0  0  0  0
 16 30  2  0  0  0  0
 16 31  1  0  0  0  0
 17 32  1  0  0  0  0
 18 24  2  0  0  0  0
 18 34  1  0  0  0  0
 19 32  1  0  0  0  0
 19 33  2  0  0  0  0
 19 36  1  0  0  0  0
 20 22  2  0  0  0  0
 20 41  1  0  0  0  0
 21 23  2  0  0  0  0
 21 42  1  0  0  0  0
 22 50  1  0  0  0  0
 23 43  1  0  0  0  0
 24 53  1  0  0  0  0
 25 26  1  0  0  0  0
 25 54  1  0  0  0  0
 26 71  1  0  0  0  0
 27 80  1  0  0  0  0
 28 81  1  0  0  0  0
 29 31  2  0  0  0  0
 29 80  1  0  0  0  0
 30 82  1  0  0  0  0
 31 83  1  0  0  0  0
 32 65  2  0  0  0  0
 33 66  1  0  0  0  0
 33 69  1  0  0  0  0
 34 35  2  0  0  0  0
 35 60  1  0  0  0  0
 36 70  1  0  0  0  0
 36 75  2  0  0  0  0
 37 51  1  0  0  0  0
 37 72  1  0  0  0  0
 37 76  2  0  0  0  0
 38 62  1  0  0  0  0
 38 67  1  0  0  0  0
 38 77  2  0  0  0  0
 39 63  1  0  0  0  0
 39 73  1  0  0  0  0
 39 78  2  0  0  0  0
 40 68  1  0  0  0  0
 40 71  1  0  0  0  0
 40 79  2  0  0  0  0
 41 44  1  0  0  0  0
 42 51  1  0  0  0  0
 43 67  1  0  0  0  0
 44 46  1  0  0  0  0
 45 47  1  0  0  0  0
 45 48  1  0  0  0  0
 46 50  1  0  0  0  0
 47 52  1  0  0  0  0
 48 68  1  0  0  0  0
 49 52  1  0  0  0  0
 49 68  1  0  0  0  0
 50 72  1  0  0  0  0
 51 67  1  0  0  0  0
 52 66  1  0  0  0  0
 55 63  1  0  0  0  0
 56 64  1  0  0  0  0
 57 64  1  0  0  0  0
 58 64  1  0  0  0  0
 59 74  1  0  0  0  0
 60 61  1  0  0  0  0
 61 81  1  0  0  0  0
 62 64  1  0  0  0  0
 62 73  1  0  0  0  0
 63 74  1  0  0  0  0
 65 66  1  0  0  0  0
M  CHG  1  74   1
M  ISO  4  40 100  61 101  71 100  81 101
M  END
> <Batch ID>
0126

> <Smiles>
CNC(C)C(=O)NC(C(=O)N1Cc2cc([101O:1][101CH2:1]CC=Cc3cc([100NH:0][100C:0](=O)N4CCCC(n5nc(-c6ccc(Oc7ccc(F)cc7F)cc6)c(C(N)=O)c5N)C4)c(C)cc3C)ccc2CC1C(=O)NC1CCCc2ccccc21)C(C)(C)C

> <Shape>
0.230

> <Color>
0.095

> <Negative vol penalty>
0.000

$$$$

  -OEChem-04052302113D

 83 91  0     1  0  0  0  0  0999 V2000
  -26.2444  -37.7612   23.3687 C   0  0  0  0  0  0  0  0  0  0  0  0
  -26.9040  -36.7753   22.6417 C   0  0  0  0  0  0  0  0  0  0  0  0
  -23.8561   -9.6045   22.4091 C   0  0  0  0  0  0  0  0  0  0  0  0
  -24.0242   -9.2212   20.0297 C   0  0  0  0  0  0  0  0  0  0  0  0
  -29.8014  -21.4651   21.6206 C   0  0  0  0  0  0  0  0  0  0  0  0
  -29.9244  -22.8412   21.4288 C   0  0  0  0  0  0  0  0  0  0  0  0
  -25.4120  -37.4046   24.4288 C   0  0  0  0  0  0  0  0  0  0  0  0
  -26.7323  -35.4323   22.9751 C   0  0  0  0  0  0  0  0  0  0  0  0
  -26.6193  -30.6692   19.1272 C   0  0  0  0  0  0  0  0  0  0  0  0
  -22.8632   -8.6288   22.4962 C   0  0  0  0  0  0  0  0  0  0  0  0
  -23.0312   -8.2454   20.1167 C   0  0  0  0  0  0  0  0  0  0  0  0
  -27.5901  -29.7397   18.7564 C   0  0  0  0  0  0  0  0  0  0  0  0
  -20.5389   -5.9852   23.4040 C   0  0  0  0  0  0  0  0  0  0  0  0
  -20.6259   -5.0626   24.4465 C   0  0  0  0  0  0  0  0  0  0  0  0
  -27.4489  -21.7416   22.0965 C   0  0  0  0  0  0  0  0  0  0  0  0
  -26.7338  -28.1977   20.4020 C   0  0  0  0  0  0  0  0  0  0  0  0
  -22.7740   -4.3297   23.6186 C   0  0  0  0  0  0  0  0  0  0  0  0
  -24.4366   -9.9007   21.1758 C   0  0  0  0  0  0  0  0  0  0  0  0
  -28.5637  -20.9153   21.9544 C   0  0  0  0  0  0  0  0  0  0  0  0
  -28.8096  -23.6675   21.5709 C   0  0  0  0  0  0  0  0  0  0  0  0
  -26.8515  -10.7222   21.2132 C   0  0  0  0  0  0  0  0  0  0  0  0
  -25.2225  -36.0559   24.7692 C   0  0  0  0  0  0  0  0  0  0  0  0
  -25.7039  -30.3736   20.1475 C   0  0  0  0  0  0  0  0  0  0  0  0
  -25.8976  -35.0574   24.0416 C   0  0  0  0  0  0  0  0  0  0  0  0
  -25.7508  -29.1241   20.7822 C   0  0  0  0  0  0  0  0  0  0  0  0
  -27.5719  -23.1177   21.9047 C   0  0  0  0  0  0  0  0  0  0  0  0
  -22.4507   -7.9493   21.3501 C   0  0  0  0  0  0  0  0  0  0  0  0
  -27.6493  -28.5049   19.3957 C   0  0  0  0  0  0  0  0  0  0  0  0
  -21.5694   -6.0800   22.4687 C   0  0  0  0  0  0  0  0  0  0  0  0
  -21.7434   -4.2349   24.5539 C   0  0  0  0  0  0  0  0  0  0  0  0
  -22.6870   -5.2522   22.5761 C   0  0  0  0  0  0  0  0  0  0  0  0
  -25.4620  -10.9089   21.0851 C   0  0  0  0  0  0  0  0  0  0  0  0
  -27.3833  -11.9777   21.0476 C   0  0  0  0  0  0  0  0  0  0  0  0
  -28.4367  -19.4803   22.1550 C   0  0  0  0  0  0  0  0  0  0  0  0
  -28.9717  -25.1158   21.3616 C   0  0  0  0  0  0  0  0  0  0  0  0
  -27.2830  -18.7810   22.1012 C   0  0  0  0  0  0  0  0  0  0  0  0
  -29.3691  -25.6919   20.2160 C   0  0  0  0  0  0  0  0  0  0  0  0
  -27.5949   -9.5213   21.4596 C   0  0  0  0  0  0  0  0  0  0  0  0
  -27.3192  -17.3207   22.3179 C   0  0  0  0  0  0  0  0  0  0  0  0
  -25.0401  -31.6188   22.9958 C   0  0  0  0  0  0  0  0  0  0  0  0
  -22.6079  -29.4734   22.9336 C   0  0  0  0  0  0  0  0  0  0  0  0
  -21.3607  -26.5422   21.7091 C   0  0  0  0  0  0  0  0  0  0  0  0
  -24.3500  -35.7218   25.9532 C   0  0  0  0  0  0  0  0  0  0  0  0
  -24.6459  -31.3766   20.5175 C   0  0  0  0  0  0  0  0  0  0  0  0
  -24.7782  -28.7500   21.8697 C   0  0  0  0  0  0  0  0  0  0  0  0
  -23.9279  -34.2557   26.0043 C   0  0  0  0  0  0  0  0  0  0  0  0
  -25.2788  -16.2761   19.4583 C   0  0  0  0  0  0  0  0  0  0  0  0
  -25.1259  -33.3461   25.7509 C   0  0  0  0  0  0  0  0  0  0  0  0
  -25.2238  -14.7659   19.6729 C   0  0  0  0  0  0  0  0  0  0  0  0
  -25.3005  -17.0411   20.7807 C   0  0  0  0  0  0  0  0  0  0  0  0
  -26.3355  -15.0972   21.9167 C   0  0  0  0  0  0  0  0  0  0  0  0
  -25.7174  -33.5883   24.3570 C   0  0  1  0  0  0  0  0  0  0  0  0
  -24.0899  -31.1679   21.9227 C   0  0  1  0  0  0  0  0  0  0  0  0
  -26.3604  -14.3060   20.5996 C   0  0  1  0  0  0  0  0  0  0  0  0
  -26.3561  -23.9728   22.0662 C   0  0  0  0  0  0  0  0  0  0  0  0
  -30.9268  -27.5504   19.6259 C   0  0  0  0  0  0  0  0  0  0  0  0
  -19.3646  -25.0301   21.8716 C   0  0  0  0  0  0  0  0  0  0  0  0
  -23.5972  -28.4620   25.6370 C   0  0  0  0  0  0  0  0  0  0  0  0
  -22.2097  -26.4059   25.2972 C   0  0  0  0  0  0  0  0  0  0  0  0
  -21.1108  -28.6410   25.4364 C   0  0  0  0  0  0  0  0  0  0  0  0
  -20.7353  -26.8670   18.8347 C   0  0  0  0  0  0  0  0  0  0  0  0
  -29.5117  -27.1773   20.0475 C   0  0  1  0  0  0  0  0  0  1  0  0
  -22.4367  -28.0383   23.3699 C   0  0  1  0  0  0  0  0  0  0  0  0
  -20.0043  -26.1905   21.1252 C   0  0  2  0  0  0  0  0  0  0  0  0
  -22.3583  -27.8943   24.9160 C   0  0  0  0  0  0  0  0  0  0  0  0
  -25.1319  -12.1827   20.8561 N   0  0  0  0  0  0  0  0  0  0  0  0
  -26.3214  -12.8078   20.8390 N   0  0  0  0  0  0  0  0  0  0  0  0
  -26.3585  -16.5438   21.6729 N   0  0  0  0  0  0  0  0  0  0  0  0
  -23.7662  -29.7670   22.2002 N   0  0  0  0  0  0  0  0  0  0  0  0
  -28.6510  -12.4415   21.0617 N   0  0  0  0  0  0  0  0  0  0  0  0
  -26.8914   -8.3178   21.6045 N   0  0  0  0  0  0  0  0  0  0  0  0
  -24.9043  -32.9489   23.3449 N   0  0  0  0  0  0  0  0  0  0  0  0
  -21.2648  -27.5337   22.6625 N   0  0  0  0  0  0  0  0  0  0  0  0
  -20.1409  -25.8087   19.6912 N   0  3  0  0  0  0  0  0  0  0  0  0
  -28.8449   -9.5182   21.5649 O   0  0  0  0  0  0  0  0  0  0  0  0
  -28.1963  -16.8778   23.0617 O   0  0  0  0  0  0  0  0  0  0  0  0
  -25.8365  -30.8188   23.4727 O   0  0  0  0  0  0  0  0  0  0  0  0
  -21.7421  -30.3018   23.2265 O   0  0  0  0  0  0  0  0  0  0  0  0
  -22.4008  -25.9899   21.3574 O   0  0  0  0  0  0  0  0  0  0  0  0
  -21.4819   -6.9969   21.4347 O   0  0  0  0  0  0  0  0  0  0  0  0
  -28.5962  -27.5962   19.0361 O   0  0  0  0  0  0  0  0  0  1  0  0
  -21.8275   -3.3500   25.5559 F   0  0  0  0  0  0  0  0  0  0  0  0
  -23.6807   -5.3395   21.6813 F   0  0  0  0  0  0  0  0  0  0  0  0
  1  2  1  0  0  0  0
  1  7  2  0  0  0  0
  2  8  2  0  0  0  0
  3 10  2  0  0  0  0
  3 18  1  0  0  0  0
  4 11  1  0  0  0  0
  4 18  2  0  0  0  0
  5  6  2  0  0  0  0
  5 19  1  0  0  0  0
  6 20  1  0  0  0  0
  7 22  1  0  0  0  0
  8 24  1  0  0  0  0
  9 12  2  0  0  0  0
  9 23  1  0  0  0  0
 10 27  1  0  0  0  0
 11 27  2  0  0  0  0
 12 28  1  0  0  0  0
 13 14  2  0  0  0  0
 13 29  1  0  0  0  0
 14 30  1  0  0  0  0
 15 19  2  0  0  0  0
 15 26  1  0  0  0  0
 16 25  1  0  0  0  0
 16 28  2  0  0  0  0
 17 30  2  0  0  0  0
 17 31  1  0  0  0  0
 18 32  1  0  0  0  0
 19 34  1  0  0  0  0
 20 26  2  0  0  0  0
 20 35  1  0  0  0  0
 21 32  1  0  0  0  0
 21 33  2  0  0  0  0
 21 38  1  0  0  0  0
 22 24  2  0  0  0  0
 22 43  1  0  0  0  0
 23 25  2  0  0  0  0
 23 44  1  0  0  0  0
 24 52  1  0  0  0  0
 25 45  1  0  0  0  0
 26 55  1  0  0  0  0
 27 80  1  0  0  0  0
 28 81  1  0  0  0  0
 29 31  2  0  0  0  0
 29 80  1  0  0  0  0
 30 82  1  0  0  0  0
 31 83  1  0  0  0  0
 32 66  2  0  0  0  0
 33 67  1  0  0  0  0
 33 70  1  0  0  0  0
 34 36  2  0  0  0  0
 35 37  2  0  0  0  0
 36 39  1  0  0  0  0
 37 62  1  0  0  0  0
 38 71  1  0  0  0  0
 38 75  2  0  0  0  0
 39 68  1  0  0  0  0
 39 76  2  0  0  0  0
 40 53  1  0  0  0  0
 40 72  1  0  0  0  0
 40 77  2  0  0  0  0
 41 63  1  0  0  0  0
 41 69  1  0  0  0  0
 41 78  2  0  0  0  0
 42 64  1  0  0  0  0
 42 73  1  0  0  0  0
 42 79  2  0  0  0  0
 43 46  1  0  0  0  0
 44 53  1  0  0  0  0
 45 69  1  0  0  0  0
 46 48  1  0  0  0  0
 47 49  1  0  0  0  0
 47 50  1  0  0  0  0
 48 52  1  0  0  0  0
 49 54  1  0  0  0  0
 50 68  1  0  0  0  0
 51 54  1  0  0  0  0
 51 68  1  0  0  0  0
 52 72  1  0  0  0  0
 53 69  1  0  0  0  0
 54 67  1  0  0  0  0
 56 62  1  0  0  0  0
 57 64  1  0  0  0  0
 58 65  1  0  0  0  0
 59 65  1  0  0  0  0
 60 65  1  0  0  0  0
 61 74  1  0  0  0  0
 62 81  1  0  0  0  0
 63 65  1  0  0  0  0
 63 73  1  0  0  0  0
 64 74  1  0  0  0  0
 66 67  1  0  0  0  0
M  CHG  1  74   1
M  ISO  4  36 100  39 100  62 101  81 101
M  END
> <Batch ID>
0126

> <Smiles>
CNC(C)C(=O)NC(C(=O)N1Cc2cc([101O:1][101CH:1](C)C=Cc3ccc(C=[100CH:0][100C:0](=O)N4CCCC(n5nc(-c6ccc(Oc7ccc(F)cc7F)cc6)c(C(N)=O)c5N)C4)cc3C)ccc2CC1C(=O)NC1CCCc2ccccc21)C(C)(C)C

> <Shape>
0.323

> <Color>
0.099

> <Negative vol penalty>
0.000

$$$$

  -OEChem-04052302113D

 81 89  0     1  0  0  0  0  0999 V2000
  -26.4307  -37.9072   19.8355 C   0  0  0  0  0  0  0  0  0  0  0  0
  -27.0715  -36.6915   19.6196 C   0  0  0  0  0  0  0  0  0  0  0  0
  -25.2040   -8.9999   18.8175 C   0  0  0  0  0  0  0  0  0  0  0  0
  -25.7069   -8.4718   21.1208 C   0  0  0  0  0  0  0  0  0  0  0  0
  -25.5163  -38.0362   20.8800 C   0  0  0  0  0  0  0  0  0  0  0  0
  -26.7991  -35.6041   20.4491 C   0  0  0  0  0  0  0  0  0  0  0  0
  -26.6279  -29.6978   18.8392 C   0  0  0  0  0  0  0  0  0  0  0  0
  -25.6024   -7.7186   18.4366 C   0  0  0  0  0  0  0  0  0  0  0  0
  -26.1052   -7.1904   20.7400 C   0  0  0  0  0  0  0  0  0  0  0  0
  -27.5610  -28.6678   18.9504 C   0  0  0  0  0  0  0  0  0  0  0  0
  -24.3096   -4.5944   18.4725 C   0  0  0  0  0  0  0  0  0  0  0  0
  -23.4950   -3.9016   17.5770 C   0  0  0  0  0  0  0  0  0  0  0  0
  -26.5160  -27.9509   21.0030 C   0  0  0  0  0  0  0  0  0  0  0  0
  -25.3286   -3.7718   16.0092 C   0  0  0  0  0  0  0  0  0  0  0  0
  -30.2132  -21.9184   19.0466 C   0  0  0  0  0  0  0  0  0  0  0  0
  -25.2563   -9.3765   20.1595 C   0  0  0  0  0  0  0  0  0  0  0  0
  -28.9753  -22.3775   18.6539 C   0  0  0  0  0  0  0  0  0  0  0  0
  -23.5532  -11.1123   20.9303 C   0  0  0  0  0  0  0  0  0  0  0  0
  -25.2253  -36.9471   21.7167 C   0  0  0  0  0  0  0  0  0  0  0  0
  -25.6369  -29.8689   19.8164 C   0  0  0  0  0  0  0  0  0  0  0  0
  -25.8810  -35.7190   21.5067 C   0  0  0  0  0  0  0  0  0  0  0  0
  -25.5699  -28.9822   20.9005 C   0  0  0  0  0  0  0  0  0  0  0  0
  -28.0459  -21.3144   18.4633 C   0  0  0  0  0  0  0  0  0  0  0  0
  -26.0530   -6.8138   19.3979 C   0  0  0  0  0  0  0  0  0  0  0  0
  -27.5069  -27.7959   20.0339 C   0  0  0  0  0  0  0  0  0  0  0  0
  -25.6338   -4.8760   18.1363 C   0  0  0  0  0  0  0  0  0  0  0  0
  -24.0044   -3.4903   16.3454 C   0  0  0  0  0  0  0  0  0  0  0  0
  -26.1433   -4.4647   16.9046 C   0  0  0  0  0  0  0  0  0  0  0  0
  -24.8454  -10.7002   20.5534 C   0  0  0  0  0  0  0  0  0  0  0  0
  -28.6092  -20.0831   18.7175 C   0  0  0  0  0  0  0  0  0  0  0  0
  -23.6871  -12.4506   21.2088 C   0  0  0  0  0  0  0  0  0  0  0  0
  -28.6933  -23.8104   18.4653 C   0  0  0  0  0  0  0  0  0  0  0  0
  -28.0221  -18.8002   18.6428 C   0  0  0  0  0  0  0  0  0  0  0  0
  -28.3375  -17.7029   19.4084 C   0  0  0  0  0  0  0  0  0  0  0  0
  -29.2710  -24.8097   19.1500 C   0  0  0  0  0  0  0  0  0  0  0  0
  -22.3402  -10.3533   21.0205 C   0  0  0  0  0  0  0  0  0  0  0  0
  -27.6219  -16.4255   19.2162 C   0  0  0  0  0  0  0  0  0  0  0  0
  -24.8807  -32.1799   21.8637 C   0  0  0  0  0  0  0  0  0  0  0  0
  -22.3310  -30.2701   22.4750 C   0  0  0  0  0  0  0  0  0  0  0  0
  -20.9839  -27.1347   22.4345 C   0  0  0  0  0  0  0  0  0  0  0  0
  -24.2650  -37.1480   22.8621 C   0  0  0  0  0  0  0  0  0  0  0  0
  -24.6214  -30.9686   19.6679 C   0  0  0  0  0  0  0  0  0  0  0  0
  -24.5131  -29.1106   21.9660 C   0  0  0  0  0  0  0  0  0  0  0  0
  -23.7525  -35.8418   23.4635 C   0  0  0  0  0  0  0  0  0  0  0  0
  -26.8643  -15.6710   22.7217 C   0  0  0  0  0  0  0  0  0  0  0  0
  -24.9062  -34.8704   23.6919 C   0  0  0  0  0  0  0  0  0  0  0  0
  -26.1792  -14.3136   22.5885 C   0  0  0  0  0  0  0  0  0  0  0  0
  -27.9673  -15.8594   21.6812 C   0  0  0  0  0  0  0  0  0  0  0  0
  -26.8209  -14.2883   20.1456 C   0  0  0  0  0  0  0  0  0  0  0  0
  -25.5936  -34.5095   22.3696 C   0  0  1  0  0  0  0  0  0  0  0  0
  -23.9708  -31.3636   20.9901 C   0  0  1  0  0  0  0  0  0  0  0  0
  -25.6762  -14.0963   21.1526 C   0  0  1  0  0  0  0  0  0  0  0  0
  -26.6341  -21.5103   18.0397 C   0  0  0  0  0  0  0  0  0  0  0  0
  -18.8937  -25.8809   23.0314 C   0  0  0  0  0  0  0  0  0  0  0  0
  -23.0938  -30.4081   25.4261 C   0  0  0  0  0  0  0  0  0  0  0  0
  -21.6070  -28.4348   25.8309 C   0  0  0  0  0  0  0  0  0  0  0  0
  -20.6392  -30.5685   24.9744 C   0  0  0  0  0  0  0  0  0  0  0  0
  -20.5523  -26.2886   19.6315 C   0  0  0  0  0  0  0  0  0  0  0  0
  -28.9414  -26.2518   18.9323 C   0  0  0  0  0  0  0  0  0  1  0  0
  -22.0474  -29.1403   23.4352 C   0  0  1  0  0  0  0  0  0  0  0  0
  -19.6460  -26.6196   21.9354 C   0  0  2  0  0  0  0  0  0  0  0  0
  -21.8681  -29.6364   24.8978 C   0  0  0  0  0  0  0  0  0  0  0  0
  -25.7349  -11.6961   20.5882 N   0  0  0  0  0  0  0  0  0  0  0  0
  -25.0002  -12.7472   20.9900 N   0  0  0  0  0  0  0  0  0  0  0  0
  -27.4764  -15.5891   20.3215 N   0  0  0  0  0  0  0  0  0  0  0  0
  -23.5467  -30.2055   21.7796 N   0  0  0  0  0  0  0  0  0  0  0  0
  -22.8085  -13.3908   21.6169 N   0  0  0  0  0  0  0  0  0  0  0  0
  -22.3797   -8.9898   20.6985 N   0  0  0  0  0  0  0  0  0  0  0  0
  -24.8052  -33.5411   21.6380 N   0  0  0  0  0  0  0  0  0  0  0  0
  -20.8914  -28.4296   22.8993 N   0  0  0  0  0  0  0  0  0  0  0  0
  -19.8447  -25.6863   20.7907 N   0  3  0  0  0  0  0  0  0  0  0  0
  -21.2500  -10.8725   21.3605 O   0  0  0  0  0  0  0  0  0  0  0  0
  -27.2002  -16.1745   18.0857 O   0  0  0  0  0  0  0  0  0  0  0  0
  -25.5972  -31.6167   22.6829 O   0  0  0  0  0  0  0  0  0  0  0  0
  -21.5011  -31.1729   22.3414 O   0  0  0  0  0  0  0  0  0  0  0  0
  -22.0078  -26.4551   22.4175 O   0  0  0  0  0  0  0  0  0  0  0  0
  -26.4416   -5.5633   19.0267 O   0  0  0  0  0  0  0  0  0  0  0  0
  -28.4168  -26.7902   20.1453 O   0  0  0  0  0  0  0  0  0  1  0  0
  -23.2224   -2.8236   15.4862 F   0  0  0  0  0  0  0  0  0  0  0  0
  -27.4149   -4.7313   16.5766 F   0  0  0  0  0  0  0  0  0  0  0  0
  -30.2518  -20.2120   19.1840 S   0  0  0  0  0  0  0  0  0  0  0  0
  1  2  1  0  0  0  0
  1  5  2  0  0  0  0
  2  6  2  0  0  0  0
  3  8  2  0  0  0  0
  3 16  1  0  0  0  0
  4  9  1  0  0  0  0
  4 16  2  0  0  0  0
  5 19  1  0  0  0  0
  6 21  1  0  0  0  0
  7 10  2  0  0  0  0
  7 20  1  0  0  0  0
  8 24  1  0  0  0  0
  9 24  2  0  0  0  0
 10 25  1  0  0  0  0
 11 12  2  0  0  0  0
 11 26  1  0  0  0  0
 12 27  1  0  0  0  0
 13 22  1  0  0  0  0
 13 25  2  0  0  0  0
 14 27  2  0  0  0  0
 14 28  1  0  0  0  0
 15 17  2  0  0  0  0
 15 81  1  0  0  0  0
 16 29  1  0  0  0  0
 17 23  1  0  0  0  0
 17 32  1  0  0  0  0
 18 29  1  0  0  0  0
 18 31  2  0  0  0  0
 18 36  1  0  0  0  0
 19 21  2  0  0  0  0
 19 41  1  0  0  0  0
 20 22  2  0  0  0  0
 20 42  1  0  0  0  0
 21 50  1  0  0  0  0
 22 43  1  0  0  0  0
 23 30  2  0  0  0  0
 23 53  1  0  0  0  0
 24 77  1  0  0  0  0
 25 78  1  0  0  0  0
 26 28  2  0  0  0  0
 26 77  1  0  0  0  0
 27 79  1  0  0  0  0
 28 80  1  0  0  0  0
 29 63  2  0  0  0  0
 30 33  1  0  0  0  0
 30 81  1  0  0  0  0
 31 64  1  0  0  0  0
 31 67  1  0  0  0  0
 32 35  2  0  0  0  0
 33 34  2  0  0  0  0
 34 37  1  0  0  0  0
 35 59  1  0  0  0  0
 36 68  1  0  0  0  0
 36 72  2  0  0  0  0
 37 65  1  0  0  0  0
 37 73  2  0  0  0  0
 38 51  1  0  0  0  0
 38 69  1  0  0  0  0
 38 74  2  0  0  0  0
 39 60  1  0  0  0  0
 39 66  1  0  0  0  0
 39 75  2  0  0  0  0
 40 61  1  0  0  0  0
 40 70  1  0  0  0  0
 40 76  2  0  0  0  0
 41 44  1  0  0  0  0
 42 51  1  0  0  0  0
 43 66  1  0  0  0  0
 44 46  1  0  0  0  0
 45 47  1  0  0  0  0
 45 48  1  0  0  0  0
 46 50  1  0  0  0  0
 47 52  1  0  0  0  0
 48 65  1  0  0  0  0
 49 52  1  0  0  0  0
 49 65  1  0  0  0  0
 50 69  1  0  0  0  0
 51 66  1  0  0  0  0
 52 64  1  0  0  0  0
 54 61  1  0  0  0  0
 55 62  1  0  0  0  0
 56 62  1  0  0  0  0
 57 62  1  0  0  0  0
 58 71  1  0  0  0  0
 59 78  1  0  0  0  0
 60 62  1  0  0  0  0
 60 70  1  0  0  0  0
 61 71  1  0  0  0  0
 63 64  1  0  0  0  0
M  CHG  1  71   1
M  ISO  4  34 100  37 100  59 101  78 101
M  END
> <Batch ID>
0126

> <Smiles>
CNC(C)C(=O)NC(C(=O)N1Cc2cc([101O:1][101CH2:1]C=Cc3csc(C=[100CH:0][100C:0](=O)N4CCCC(n5nc(-c6ccc(Oc7ccc(F)cc7F)cc6)c(C(N)=O)c5N)C4)c3C)ccc2CC1C(=O)NC1CCCc2ccccc21)C(C)(C)C

> <Shape>
0.259

> <Color>
0.090

> <Negative vol penalty>
0.000

$$$$

  -OEChem-04052302113D

 83 91  0     1  0  0  0  0  0999 V2000
  -26.6485  -27.7414   33.3653 C   0  0  0  0  0  0  0  0  0  0  0  0
  -27.4631  -26.7867   32.7649 C   0  0  0  0  0  0  0  0  0  0  0  0
  -23.0788   -9.8677   19.9442 C   0  0  0  0  0  0  0  0  0  0  0  0
  -23.8398   -9.8747   22.2372 C   0  0  0  0  0  0  0  0  0  0  0  0
  -25.3088  -27.4518   33.6208 C   0  0  0  0  0  0  0  0  0  0  0  0
  -26.9386  -25.5413   32.4207 C   0  0  0  0  0  0  0  0  0  0  0  0
  -28.3536  -24.0492   27.7929 C   0  0  0  0  0  0  0  0  0  0  0  0
  -22.3351   -8.7145   20.1945 C   0  0  0  0  0  0  0  0  0  0  0  0
  -23.0961   -8.7215   22.4875 C   0  0  0  0  0  0  0  0  0  0  0  0
  -29.6427  -23.5362   27.6557 C   0  0  0  0  0  0  0  0  0  0  0  0
  -19.8683   -7.9233   23.0916 C   0  0  0  0  0  0  0  0  0  0  0  0
  -19.1120   -7.8833   24.2629 C   0  0  0  0  0  0  0  0  0  0  0  0
  -30.5053  -18.3416   24.0482 C   0  0  0  0  0  0  0  0  0  0  0  0
  -28.7496  -21.2958   27.7018 C   0  0  0  0  0  0  0  0  0  0  0  0
  -32.0682  -16.5953   22.5347 C   0  0  0  0  0  0  0  0  0  0  0  0
  -20.3539   -5.9459   24.9987 C   0  0  0  0  0  0  0  0  0  0  0  0
  -23.8312  -10.4478   20.9656 C   0  0  0  0  0  0  0  0  0  0  0  0
  -31.8927  -18.3449   24.1916 C   0  0  0  0  0  0  0  0  0  0  0  0
  -24.1727  -12.9730   20.8454 C   0  0  0  0  0  0  0  0  0  0  0  0
  -24.7653  -26.2057   33.2708 C   0  0  0  0  0  0  0  0  0  0  0  0
  -27.2521  -23.1877   27.8967 C   0  0  0  0  0  0  0  0  0  0  0  0
  -25.5908  -25.2343   32.6730 C   0  0  0  0  0  0  0  0  0  0  0  0
  -27.4473  -21.8004   27.8377 C   0  0  0  0  0  0  0  0  0  0  0  0
  -29.8993  -17.4650   23.1481 C   0  0  0  0  0  0  0  0  0  0  0  0
  -32.6742  -17.4719   23.4348 C   0  0  0  0  0  0  0  0  0  0  0  0
  -30.6807  -16.5919   22.3913 C   0  0  0  0  0  0  0  0  0  0  0  0
  -22.3438   -8.1414   21.4661 C   0  0  0  0  0  0  0  0  0  0  0  0
  -29.8412  -22.1593   27.6131 C   0  0  0  0  0  0  0  0  0  0  0  0
  -20.8675   -6.9746   22.8738 C   0  0  0  0  0  0  0  0  0  0  0  0
  -19.3548   -6.8946   25.2164 C   0  0  0  0  0  0  0  0  0  0  0  0
  -21.1103   -5.9860   23.8273 C   0  0  0  0  0  0  0  0  0  0  0  0
  -24.6000  -11.6388   20.7075 C   0  0  0  0  0  0  0  0  0  0  0  0
  -25.2646  -13.7226   20.4816 C   0  0  0  0  0  0  0  0  0  0  0  0
  -32.5029  -19.2816   25.1498 C   0  0  0  0  0  0  0  0  0  0  0  0
  -32.4115  -20.6193   25.0882 C   0  0  0  0  0  0  0  0  0  0  0  0
  -22.9024  -13.4887   21.2650 C   0  0  0  0  0  0  0  0  0  0  0  0
  -25.0466  -22.6238   30.1153 C   0  0  0  0  0  0  0  0  0  0  0  0
  -23.7779  -20.7217   27.8143 C   0  0  0  0  0  0  0  0  0  0  0  0
  -24.2681  -18.8734   24.9875 C   0  0  0  0  0  0  0  0  0  0  0  0
  -30.7308  -14.7687   20.6537 C   0  0  0  0  0  0  0  0  0  0  0  0
  -23.3234  -25.9216   33.6099 C   0  0  0  0  0  0  0  0  0  0  0  0
  -25.8652  -23.7574   28.0174 C   0  0  0  0  0  0  0  0  0  0  0  0
  -26.2960  -20.8332   27.9245 C   0  0  0  0  0  0  0  0  0  0  0  0
  -22.7512  -24.7131   32.8734 C   0  0  0  0  0  0  0  0  0  0  0  0
  -29.6154  -12.3548   18.2859 C   0  0  0  0  0  0  0  0  0  0  0  0
  -23.7212  -23.5378   32.9419 C   0  0  0  0  0  0  0  0  0  0  0  0
  -28.1760  -12.0631   18.7162 C   0  0  0  0  0  0  0  0  0  0  0  0
  -30.5311  -12.5837   19.4871 C   0  0  0  0  0  0  0  0  0  0  0  0
  -28.6248  -13.3079   20.8693 C   0  0  0  0  0  0  0  0  0  0  0  0
  -25.0524  -23.8809   32.2625 C   0  0  1  0  0  0  0  0  0  0  0  0
  -24.8687  -22.7789   28.6314 C   0  0  1  0  0  0  0  0  0  0  0  0
  -27.6514  -13.1346   19.6920 C   0  0  2  0  0  0  0  0  0  0  0  0
  -28.4108  -17.4825   23.0160 C   0  0  0  0  0  0  0  0  0  0  0  0
  -34.1636  -17.4481   23.5629 C   0  0  0  0  0  0  0  0  0  0  0  0
  -23.0498  -17.4026   23.3597 C   0  0  0  0  0  0  0  0  0  0  0  0
  -23.7898  -18.4552   29.8570 C   0  0  0  0  0  0  0  0  0  0  0  0
  -23.4824  -16.8430   27.9664 C   0  0  0  0  0  0  0  0  0  0  0  0
  -21.7377  -18.5642   28.4317 C   0  0  0  0  0  0  0  0  0  0  0  0
  -24.8692  -20.6831   22.7242 C   0  0  0  0  0  0  0  0  0  0  0  0
  -33.0624  -21.5409   26.0831 C   0  0  0  0  0  0  0  0  0  0  0  0
  -32.0426  -22.4484   26.7609 C   0  0  0  0  0  0  0  0  0  1  0  0
  -23.9399  -19.2753   27.4135 C   0  0  1  0  0  0  0  0  0  0  0  0
  -23.5067  -18.8183   23.6754 C   0  0  2  0  0  0  0  0  0  0  0  0
  -23.2596  -18.3023   28.4174 C   0  0  0  0  0  0  0  0  0  0  0  0
  -25.8647  -11.5430   20.2886 N   0  0  0  0  0  0  0  0  0  0  0  0
  -26.2414  -12.8267   20.1601 N   0  0  0  0  0  0  0  0  0  0  0  0
  -24.9598  -21.4389   28.0481 N   0  0  0  0  0  0  0  0  0  0  0  0
  -29.9725  -13.6144   20.3648 N   0  0  0  0  0  0  0  0  0  0  0  0
  -25.4749  -15.0541   20.4086 N   0  0  0  0  0  0  0  0  0  0  0  0
  -21.8907  -12.5794   21.6027 N   0  0  0  0  0  0  0  0  0  0  0  0
  -30.0837  -15.6936   21.4724 N   0  0  0  0  0  0  0  0  0  0  0  0
  -24.9201  -23.8036   30.8234 N   0  0  0  0  0  0  0  0  0  0  0  0
  -23.4381  -19.1715   26.0475 N   0  0  0  0  0  0  0  0  0  0  0  0
  -24.3679  -19.2948   22.5564 N   0  3  0  0  0  0  0  0  0  0  0  0
  -22.6661  -14.7193   21.3225 O   0  0  0  0  0  0  0  0  0  0  0  0
  -25.2800  -21.5156   30.5832 O   0  0  0  0  0  0  0  0  0  0  0  0
  -22.6447  -21.1996   27.9092 O   0  0  0  0  0  0  0  0  0  0  0  0
  -25.4775  -18.6686   25.0650 O   0  0  0  0  0  0  0  0  0  0  0  0
  -31.8596  -14.9375   20.1855 O   0  0  0  0  0  0  0  0  0  0  0  0
  -21.6181   -7.0162   21.7108 O   0  0  0  0  0  0  0  0  0  0  0  0
  -31.0984  -21.6559   27.4799 O   0  0  0  0  0  0  0  0  0  1  0  0
  -18.6294   -6.8572   26.3419 F   0  0  0  0  0  0  0  0  0  0  0  0
  -22.0696   -5.0726   23.6242 F   0  0  0  0  0  0  0  0  0  0  0  0
  1  2  1  0  0  0  0
  1  5  2  0  0  0  0
  2  6  2  0  0  0  0
  3  8  2  0  0  0  0
  3 17  1  0  0  0  0
  4  9  1  0  0  0  0
  4 17  2  0  0  0  0
  5 20  1  0  0  0  0
  6 22  1  0  0  0  0
  7 10  2  0  0  0  0
  7 21  1  0  0  0  0
  8 27  1  0  0  0  0
  9 27  2  0  0  0  0
 10 28  1  0  0  0  0
 11 12  2  0  0  0  0
 11 29  1  0  0  0  0
 12 30  1  0  0  0  0
 13 18  1  0  0  0  0
 13 24  2  0  0  0  0
 14 23  1  0  0  0  0
 14 28  2  0  0  0  0
 15 25  1  0  0  0  0
 15 26  2  0  0  0  0
 16 30  2  0  0  0  0
 16 31  1  0  0  0  0
 17 32  1  0  0  0  0
 18 25  2  0  0  0  0
 18 34  1  0  0  0  0
 19 32  1  0  0  0  0
 19 33  2  0  0  0  0
 19 36  1  0  0  0  0
 20 22  2  0  0  0  0
 20 41  1  0  0  0  0
 21 23  2  0  0  0  0
 21 42  1  0  0  0  0
 22 50  1  0  0  0  0
 23 43  1  0  0  0  0
 24 26  1  0  0  0  0
 24 53  1  0  0  0  0
 25 54  1  0  0  0  0
 26 71  1  0  0  0  0
 27 80  1  0  0  0  0
 28 81  1  0  0  0  0
 29 31  2  0  0  0  0
 29 80  1  0  0  0  0
 30 82  1  0  0  0  0
 31 83  1  0  0  0  0
 32 65  2  0  0  0  0
 33 66  1  0  0  0  0
 33 69  1  0  0  0  0
 34 35  2  0  0  0  0
 35 60  1  0  0  0  0
 36 70  1  0  0  0  0
 36 75  2  0  0  0  0
 37 51  1  0  0  0  0
 37 72  1  0  0  0  0
 37 76  2  0  0  0  0
 38 62  1  0  0  0  0
 38 67  1  0  0  0  0
 38 77  2  0  0  0  0
 39 63  1  0  0  0  0
 39 73  1  0  0  0  0
 39 78  2  0  0  0  0
 40 68  1  0  0  0  0
 40 71  1  0  0  0  0
 40 79  2  0  0  0  0
 41 44  1  0  0  0  0
 42 51  1  0  0  0  0
 43 67  1  0  0  0  0
 44 46  1  0  0  0  0
 45 47  1  0  0  0  0
 45 48  1  0  0  0  0
 46 50  1  0  0  0  0
 47 52  1  0  0  0  0
 48 68  1  0  0  0  0
 49 52  1  0  0  0  0
 49 68  1  0  0  0  0
 50 72  1  0  0  0  0
 51 67  1  0  0  0  0
 52 66  1  0  0  0  0
 55 63  1  0  0  0  0
 56 64  1  0  0  0  0
 57 64  1  0  0  0  0
 58 64  1  0  0  0  0
 59 74  1  0  0  0  0
 60 61  1  0  0  0  0
 61 81  1  0  0  0  0
 62 64  1  0  0  0  0
 62 73  1  0  0  0  0
 63 74  1  0  0  0  0
 65 66  1  0  0  0  0
M  CHG  1  74   1
M  ISO  4  40 100  61 101  71 100  81 101
M  END
> <Batch ID>
0126

> <Smiles>
CNC(C)C(=O)NC(C(=O)N1Cc2cc([101O:1][101CH2:1]CC=Cc3cc(C)c([100NH:0][100C:0](=O)N4CCCC(n5nc(-c6ccc(Oc7ccc(F)cc7F)cc6)c(C(N)=O)c5N)C4)cc3C)ccc2CC1C(=O)NC1CCCc2ccccc21)C(C)(C)C

> <Shape>
0.168

> <Color>
0.200

> <Negative vol penalty>
0.000

$$$$

  -OEChem-04052302113D

 81 89  0     1  0  0  0  0  0999 V2000
  -27.3092  -37.6718   24.6184 C   0  0  0  0  0  0  0  0  0  0  0  0
  -28.0072  -36.6015   24.0683 C   0  0  0  0  0  0  0  0  0  0  0  0
  -23.7446   -9.6361   22.2523 C   0  0  0  0  0  0  0  0  0  0  0  0
  -23.4064   -9.4059   19.8711 C   0  0  0  0  0  0  0  0  0  0  0  0
  -26.0342  -37.4735   25.1467 C   0  0  0  0  0  0  0  0  0  0  0  0
  -27.4310  -35.3319   24.0471 C   0  0  0  0  0  0  0  0  0  0  0  0
  -27.2188  -29.3625   20.0927 C   0  0  0  0  0  0  0  0  0  0  0  0
  -22.8162   -8.6209   22.4823 C   0  0  0  0  0  0  0  0  0  0  0  0
  -22.4780   -8.3906   20.1011 C   0  0  0  0  0  0  0  0  0  0  0  0
  -27.3968  -27.9848   20.2116 C   0  0  0  0  0  0  0  0  0  0  0  0
  -22.7390   -5.2425   22.3652 C   0  0  0  0  0  0  0  0  0  0  0  0
  -23.0708   -4.2597   23.2976 C   0  0  0  0  0  0  0  0  0  0  0  0
  -27.8670  -21.8860   22.0375 C   0  0  0  0  0  0  0  0  0  0  0  0
  -25.1564  -27.7766   21.0814 C   0  0  0  0  0  0  0  0  0  0  0  0
  -27.6617  -22.9940   19.4855 C   0  0  0  0  0  0  0  0  0  0  0  0
  -21.1357   -4.8565   24.6154 C   0  0  0  0  0  0  0  0  0  0  0  0
  -24.0397  -10.0286   20.9467 C   0  0  0  0  0  0  0  0  0  0  0  0
  -27.7477  -21.0547   20.9238 C   0  0  0  0  0  0  0  0  0  0  0  0
  -26.3867  -10.9349   20.5249 C   0  0  0  0  0  0  0  0  0  0  0  0
  -25.4382  -36.2027   25.1233 C   0  0  0  0  0  0  0  0  0  0  0  0
  -26.0101  -29.9599   20.4781 C   0  0  0  0  0  0  0  0  0  0  0  0
  -26.1474  -35.1160   24.5768 C   0  0  0  0  0  0  0  0  0  0  0  0
  -24.9647  -29.1617   20.9640 C   0  0  0  0  0  0  0  0  0  0  0  0
  -27.6451  -21.6087   19.6478 C   0  0  0  0  0  0  0  0  0  0  0  0
  -27.7810  -23.8253   20.5992 C   0  0  0  0  0  0  0  0  0  0  0  0
  -22.1829   -7.9981   21.4067 C   0  0  0  0  0  0  0  0  0  0  0  0
  -26.3666  -27.1920   20.7088 C   0  0  0  0  0  0  0  0  0  0  0  0
  -21.6055   -6.0325   22.5578 C   0  0  0  0  0  0  0  0  0  0  0  0
  -22.2692   -4.0666   24.4227 C   0  0  0  0  0  0  0  0  0  0  0  0
  -27.8836  -23.2713   21.8752 C   0  0  0  0  0  0  0  0  0  0  0  0
  -20.8039   -5.8394   23.6829 C   0  0  0  0  0  0  0  0  0  0  0  0
  -24.9983  -11.0777   20.7084 C   0  0  0  0  0  0  0  0  0  0  0  0
  -26.8416  -12.2170   20.3355 C   0  0  0  0  0  0  0  0  0  0  0  0
  -27.7323  -19.6123   21.1267 C   0  0  0  0  0  0  0  0  0  0  0  0
  -26.8140  -18.9344   21.8454 C   0  0  0  0  0  0  0  0  0  0  0  0
  -27.1931   -9.7494   20.5254 C   0  0  0  0  0  0  0  0  0  0  0  0
  -26.9293  -17.4659   21.9498 C   0  0  0  0  0  0  0  0  0  0  0  0
  -25.1676  -32.1139   22.6585 C   0  0  0  0  0  0  0  0  0  0  0  0
  -22.2713  -31.8652   21.2191 C   0  0  0  0  0  0  0  0  0  0  0  0
  -20.1208  -29.9967   19.3400 C   0  0  0  0  0  0  0  0  0  0  0  0
  -24.0772  -36.0276   25.7490 C   0  0  0  0  0  0  0  0  0  0  0  0
  -25.8245  -31.4440   20.3185 C   0  0  0  0  0  0  0  0  0  0  0  0
  -23.6405  -29.7516   21.3725 C   0  0  0  0  0  0  0  0  0  0  0  0
  -23.3858  -34.7266   25.3494 C   0  0  0  0  0  0  0  0  0  0  0  0
  -24.3469  -16.5241   19.5258 C   0  0  0  0  0  0  0  0  0  0  0  0
  -24.3530  -33.5522   25.4602 C   0  0  0  0  0  0  0  0  0  0  0  0
  -24.3739  -15.0026   19.6443 C   0  0  0  0  0  0  0  0  0  0  0  0
  -24.6346  -17.2068   20.8621 C   0  0  0  0  0  0  0  0  0  0  0  0
  -25.9336  -15.2364   21.6172 C   0  0  0  0  0  0  0  0  0  0  0  0
  -25.5461  -33.7288   24.5131 C   0  0  1  0  0  0  0  0  0  0  0  0
  -24.7347  -32.0106   21.2234 C   0  0  1  0  0  0  0  0  0  0  0  0
  -25.6932  -14.5290   20.2745 C   0  0  1  0  0  0  0  0  0  0  0  0
  -27.5152  -20.7481   18.4320 C   0  0  0  0  0  0  0  0  0  0  0  0
  -17.8120  -30.0437   18.3578 C   0  0  0  0  0  0  0  0  0  0  0  0
  -21.0901  -31.2988   23.9748 C   0  0  0  0  0  0  0  0  0  0  0  0
  -19.0335  -30.4341   22.8386 C   0  0  0  0  0  0  0  0  0  0  0  0
  -19.7126  -32.8158   22.5410 C   0  0  0  0  0  0  0  0  0  0  0  0
  -21.1652  -29.7793   16.5794 C   0  0  0  0  0  0  0  0  0  0  0  0
  -27.7988  -25.3151   20.4220 C   0  0  0  0  0  0  0  0  0  1  0  0
  -21.0533  -30.9943   21.4112 C   0  0  1  0  0  0  0  0  0  0  0  0
  -19.2840  -30.3447   18.1222 C   0  0  2  0  0  0  0  0  0  0  0  0
  -20.2479  -31.3746   22.6856 C   0  0  0  0  0  0  0  0  0  0  0  0
  -24.5975  -12.3501   20.6419 N   0  0  0  0  0  0  0  0  0  0  0  0
  -25.7410  -13.0185   20.4144 N   0  0  0  0  0  0  0  0  0  0  0  0
  -25.8706  -16.6951   21.4729 N   0  0  0  0  0  0  0  0  0  0  0  0
  -23.5099  -31.2083   21.2036 N   0  0  0  0  0  0  0  0  0  0  0  0
  -28.0718  -12.7256   20.1109 N   0  0  0  0  0  0  0  0  0  0  0  0
  -26.5649   -8.5141   20.7348 N   0  0  0  0  0  0  0  0  0  0  0  0
  -25.1659  -33.4034   23.1552 N   0  0  0  0  0  0  0  0  0  0  0  0
  -20.2883  -31.0833   20.1721 N   0  0  0  0  0  0  0  0  0  0  0  0
  -19.7403  -29.5617   16.9392 N   0  3  0  0  0  0  0  0  0  0  0  0
  -28.4362   -9.7860   20.3619 O   0  0  0  0  0  0  0  0  0  0  0  0
  -27.9556  -17.0109   22.4581 O   0  0  0  0  0  0  0  0  0  0  0  0
  -25.4787  -31.0987   23.2703 O   0  0  0  0  0  0  0  0  0  0  0  0
  -22.1285  -33.0826   21.0805 O   0  0  0  0  0  0  0  0  0  0  0  0
  -20.5769  -28.8723   19.5356 O   0  0  0  0  0  0  0  0  0  0  0  0
  -21.2770   -7.0073   21.6308 O   0  0  0  0  0  0  0  0  0  0  0  0
  -26.5379  -25.8471   20.8265 O   0  0  0  0  0  0  0  0  0  1  0  0
  -22.5871   -3.1217   25.3173 F   0  0  0  0  0  0  0  0  0  0  0  0
  -27.9980  -24.0620   22.9516 F   0  0  0  0  0  0  0  0  0  0  0  0
  -19.7132   -6.5944   23.8728 F   0  0  0  0  0  0  0  0  0  0  0  0
  1  2  1  0  0  0  0
  1  5  2  0  0  0  0
  2  6  2  0  0  0  0
  3  8  2  0  0  0  0
  3 17  1  0  0  0  0
  4  9  1  0  0  0  0
  4 17  2  0  0  0  0
  5 20  1  0  0  0  0
  6 22  1  0  0  0  0
  7 10  2  0  0  0  0
  7 21  1  0  0  0  0
  8 26  1  0  0  0  0
  9 26  2  0  0  0  0
 10 27  1  0  0  0  0
 11 12  2  0  0  0  0
 11 28  1  0  0  0  0
 12 29  1  0  0  0  0
 13 18  2  0  0  0  0
 13 30  1  0  0  0  0
 14 23  1  0  0  0  0
 14 27  2  0  0  0  0
 15 24  2  0  0  0  0
 15 25  1  0  0  0  0
 16 29  2  0  0  0  0
 16 31  1  0  0  0  0
 17 32  1  0  0  0  0
 18 24  1  0  0  0  0
 18 34  1  0  0  0  0
 19 32  1  0  0  0  0
 19 33  2  0  0  0  0
 19 36  1  0  0  0  0
 20 22  2  0  0  0  0
 20 41  1  0  0  0  0
 21 23  2  0  0  0  0
 21 42  1  0  0  0  0
 22 50  1  0  0  0  0
 23 43  1  0  0  0  0
 24 53  1  0  0  0  0
 25 30  2  0  0  0  0
 25 59  1  0  0  0  0
 26 77  1  0  0  0  0
 27 78  1  0  0  0  0
 28 31  2  0  0  0  0
 28 77  1  0  0  0  0
 29 79  1  0  0  0  0
 30 80  1  0  0  0  0
 31 81  1  0  0  0  0
 32 63  2  0  0  0  0
 33 64  1  0  0  0  0
 33 67  1  0  0  0  0
 34 35  2  0  0  0  0
 35 37  1  0  0  0  0
 36 68  1  0  0  0  0
 36 72  2  0  0  0  0
 37 65  1  0  0  0  0
 37 73  2  0  0  0  0
 38 51  1  0  0  0  0
 38 69  1  0  0  0  0
 38 74  2  0  0  0  0
 39 60  1  0  0  0  0
 39 66  1  0  0  0  0
 39 75  2  0  0  0  0
 40 61  1  0  0  0  0
 40 70  1  0  0  0  0
 40 76  2  0  0  0  0
 41 44  1  0  0  0  0
 42 51  1  0  0  0  0
 43 66  1  0  0  0  0
 44 46  1  0  0  0  0
 45 47  1  0  0  0  0
 45 48  1  0  0  0  0
 46 50  1  0  0  0  0
 47 52  1  0  0  0  0
 48 65  1  0  0  0  0
 49 52  1  0  0  0  0
 49 65  1  0  0  0  0
 50 69  1  0  0  0  0
 51 66  1  0  0  0  0
 52 64  1  0  0  0  0
 54 61  1  0  0  0  0
 55 62  1  0  0  0  0
 56 62  1  0  0  0  0
 57 62  1  0  0  0  0
 58 71  1  0  0  0  0
 59 78  1  0  0  0  0
 60 62  1  0  0  0  0
 60 70  1  0  0  0  0
 61 71  1  0  0  0  0
 63 64  1  0  0  0  0
M  CHG  1  71   1
M  ISO  4  35 100  37 100  59 101  78 101
M  END
> <Batch ID>
0126

> <Smiles>
CNC(C)C(=O)NC(C(=O)N1Cc2cc([101O:1][101CH2:1]c3cc(C)c(C=[100CH:0][100C:0](=O)N4CCCC(n5nc(-c6ccc(Oc7ccc(F)cc7F)cc6)c(C(N)=O)c5N)C4)cc3F)ccc2CC1C(=O)NC1CCCc2ccccc21)C(C)(C)C

> <Shape>
0.287

> <Color>
0.104

> <Negative vol penalty>
0.000

$$$$

  -OEChem-04052302113D

 81 89  0     1  0  0  0  0  0999 V2000
  -27.0717  -31.4902   28.6326 C   0  0  0  0  0  0  0  0  0  0  0  0
  -27.2130  -30.4055   27.7730 C   0  0  0  0  0  0  0  0  0  0  0  0
  -24.1949   -9.4597   22.1841 C   0  0  0  0  0  0  0  0  0  0  0  0
  -24.4778   -8.7127   19.9040 C   0  0  0  0  0  0  0  0  0  0  0  0
  -25.9582  -32.3225   28.5257 C   0  0  0  0  0  0  0  0  0  0  0  0
  -26.2402  -30.1518   26.8067 C   0  0  0  0  0  0  0  0  0  0  0  0
  -27.1347  -27.8797   21.1904 C   0  0  0  0  0  0  0  0  0  0  0  0
  -23.1187   -8.5857   22.3370 C   0  0  0  0  0  0  0  0  0  0  0  0
  -23.4015   -7.8386   20.0569 C   0  0  0  0  0  0  0  0  0  0  0  0
  -27.0051  -26.5939   20.6671 C   0  0  0  0  0  0  0  0  0  0  0  0
  -20.5248   -6.2906   23.4414 C   0  0  0  0  0  0  0  0  0  0  0  0
  -20.4674   -5.5308   24.6096 C   0  0  0  0  0  0  0  0  0  0  0  0
  -31.0818  -20.8404   20.4568 C   0  0  0  0  0  0  0  0  0  0  0  0
  -30.8227  -22.1515   19.9911 C   0  0  0  0  0  0  0  0  0  0  0  0
  -24.7851  -27.1381   19.8959 C   0  0  0  0  0  0  0  0  0  0  0  0
  -22.5925   -4.5223   24.0582 C   0  0  0  0  0  0  0  0  0  0  0  0
  -24.8744   -9.5233   20.9676 C   0  0  0  0  0  0  0  0  0  0  0  0
  -27.3436  -10.1568   21.0654 C   0  0  0  0  0  0  0  0  0  0  0  0
  -24.9761  -32.0845   27.5513 C   0  0  0  0  0  0  0  0  0  0  0  0
  -26.0845  -28.8024   21.0797 C   0  0  0  0  0  0  0  0  0  0  0  0
  -25.1118  -30.9808   26.6876 C   0  0  0  0  0  0  0  0  0  0  0  0
  -24.9049  -28.4357   20.4163 C   0  0  0  0  0  0  0  0  0  0  0  0
  -22.7220   -7.7751   21.2734 C   0  0  0  0  0  0  0  0  0  0  0  0
  -25.8291  -26.2220   20.0223 C   0  0  0  0  0  0  0  0  0  0  0  0
  -21.6161   -6.1663   22.5814 C   0  0  0  0  0  0  0  0  0  0  0  0
  -21.5012   -4.6466   24.9181 C   0  0  0  0  0  0  0  0  0  0  0  0
  -22.6499   -5.2822   22.8899 C   0  0  0  0  0  0  0  0  0  0  0  0
  -25.9859  -10.4263   20.8089 C   0  0  0  0  0  0  0  0  0  0  0  0
  -29.8711  -20.1876   20.4537 C   0  0  0  0  0  0  0  0  0  0  0  0
  -29.4721  -22.2065   19.7363 C   0  0  0  0  0  0  0  0  0  0  0  0
  -27.9901  -11.3296   20.7605 C   0  0  0  0  0  0  0  0  0  0  0  0
  -29.6169  -18.8508   20.8382 C   0  0  0  0  0  0  0  0  0  0  0  0
  -28.7050  -23.3576   19.2324 C   0  0  0  0  0  0  0  0  0  0  0  0
  -28.4061  -18.2020   20.8110 C   0  0  0  0  0  0  0  0  0  0  0  0
  -27.3796  -23.3701   19.0192 C   0  0  0  0  0  0  0  0  0  0  0  0
  -27.9648   -8.9538   21.5372 C   0  0  0  0  0  0  0  0  0  0  0  0
  -28.3037  -16.7921   21.2382 C   0  0  0  0  0  0  0  0  0  0  0  0
  -24.2477  -30.3688   23.1476 C   0  0  0  0  0  0  0  0  0  0  0  0
  -23.1558  -31.8367   20.4689 C   0  0  0  0  0  0  0  0  0  0  0  0
  -22.6939  -31.7282   17.0893 C   0  0  0  0  0  0  0  0  0  0  0  0
  -23.7664  -32.9840   27.5050 C   0  0  0  0  0  0  0  0  0  0  0  0
  -26.2502  -30.1939   21.6260 C   0  0  0  0  0  0  0  0  0  0  0  0
  -23.7557  -29.3956   20.2533 C   0  0  0  0  0  0  0  0  0  0  0  0
  -22.9685  -32.8655   26.2090 C   0  0  0  0  0  0  0  0  0  0  0  0
  -26.3640  -15.4875   18.4155 C   0  0  0  0  0  0  0  0  0  0  0  0
  -22.7531  -31.3994   25.8469 C   0  0  0  0  0  0  0  0  0  0  0  0
  -26.1668  -14.0350   18.8412 C   0  0  0  0  0  0  0  0  0  0  0  0
  -26.3685  -16.4382   19.6117 C   0  0  0  0  0  0  0  0  0  0  0  0
  -27.1605  -14.6141   21.0900 C   0  0  0  0  0  0  0  0  0  0  0  0
  -24.0904  -30.6873   25.6102 C   0  0  1  0  0  0  0  0  0  0  0  0
  -24.9209  -30.8872   21.9084 C   0  0  1  0  0  0  0  0  0  0  0  0
  -27.1998  -13.6349   19.9064 C   0  0  1  0  0  0  0  0  0  0  0  0
  -25.8921  -24.2570   17.2221 C   0  0  0  0  0  0  0  0  0  0  0  0
  -21.7400  -33.0592   15.1877 C   0  0  0  0  0  0  0  0  0  0  0  0
  -20.3370  -31.0654   21.3462 C   0  0  0  0  0  0  0  0  0  0  0  0
  -19.5539  -31.5548   19.0191 C   0  0  0  0  0  0  0  0  0  0  0  0
  -20.5426  -33.3749   20.4091 C   0  0  0  0  0  0  0  0  0  0  0  0
  -25.3201  -31.8927   15.7346 C   0  0  0  0  0  0  0  0  0  0  0  0
  -26.6386  -24.5735   18.5113 C   0  0  1  0  0  0  0  0  0  1  0  0
  -22.0477  -31.5689   19.4792 C   0  0  1  0  0  0  0  0  0  0  0  0
  -22.9867  -32.7436   15.9995 C   0  0  2  0  0  0  0  0  0  0  0  0
  -20.6411  -31.8721   20.0680 C   0  0  0  0  0  0  0  0  0  0  0  0
  -25.7808  -11.6727   20.3745 N   0  0  0  0  0  0  0  0  0  0  0  0
  -27.0181  -12.1967   20.3559 N   0  0  0  0  0  0  0  0  0  0  0  0
  -27.3223  -16.0019   20.6425 N   0  0  0  0  0  0  0  0  0  0  0  0
  -23.9635  -30.7426   20.8100 N   0  0  0  0  0  0  0  0  0  0  0  0
  -29.2894  -11.6935   20.8017 N   0  0  0  0  0  0  0  0  0  0  0  0
  -27.1533   -7.8421   21.8015 N   0  0  0  0  0  0  0  0  0  0  0  0
  -24.6188  -31.0247   24.3058 N   0  0  0  0  0  0  0  0  0  0  0  0
  -22.3736  -32.3386   18.2835 N   0  0  0  0  0  0  0  0  0  0  0  0
  -24.0314  -32.2226   15.0732 N   0  3  0  0  0  0  0  0  0  0  0  0
  -29.2009   -8.8724   21.7345 O   0  0  0  0  0  0  0  0  0  0  0  0
  -29.0916  -16.4008   22.1013 O   0  0  0  0  0  0  0  0  0  0  0  0
  -23.4494  -29.4432   23.0592 O   0  0  0  0  0  0  0  0  0  0  0  0
  -23.3037  -32.9763   20.9173 O   0  0  0  0  0  0  0  0  0  0  0  0
  -22.7407  -30.5149   16.8992 O   0  0  0  0  0  0  0  0  0  0  0  0
  -28.8847  -21.0134   20.0157 O   0  0  0  0  0  0  0  0  0  0  0  0
  -21.6720   -6.9219   21.4223 O   0  0  0  0  0  0  0  0  0  0  0  0
  -25.6997  -24.9675   19.5112 O   0  0  0  0  0  0  0  0  0  1  0  0
  -21.4467   -3.9182   26.0408 F   0  0  0  0  0  0  0  0  0  0  0  0
  -23.7014   -5.1593   22.0683 F   0  0  0  0  0  0  0  0  0  0  0  0
  1  2  1  0  0  0  0
  1  5  2  0  0  0  0
  2  6  2  0  0  0  0
  3  8  2  0  0  0  0
  3 17  1  0  0  0  0
  4  9  1  0  0  0  0
  4 17  2  0  0  0  0
  5 19  1  0  0  0  0
  6 21  1  0  0  0  0
  7 10  2  0  0  0  0
  7 20  1  0  0  0  0
  8 23  1  0  0  0  0
  9 23  2  0  0  0  0
 10 24  1  0  0  0  0
 11 12  2  0  0  0  0
 11 25  1  0  0  0  0
 12 26  1  0  0  0  0
 13 14  1  0  0  0  0
 13 29  2  0  0  0  0
 14 30  2  0  0  0  0
 15 22  1  0  0  0  0
 15 24  2  0  0  0  0
 16 26  2  0  0  0  0
 16 27  1  0  0  0  0
 17 28  1  0  0  0  0
 18 28  1  0  0  0  0
 18 31  2  0  0  0  0
 18 36  1  0  0  0  0
 19 21  2  0  0  0  0
 19 41  1  0  0  0  0
 20 22  2  0  0  0  0
 20 42  1  0  0  0  0
 21 50  1  0  0  0  0
 22 43  1  0  0  0  0
 23 78  1  0  0  0  0
 24 79  1  0  0  0  0
 25 27  2  0  0  0  0
 25 78  1  0  0  0  0
 26 80  1  0  0  0  0
 27 81  1  0  0  0  0
 28 63  2  0  0  0  0
 29 32  1  0  0  0  0
 29 77  1  0  0  0  0
 30 33  1  0  0  0  0
 30 77  1  0  0  0  0
 31 64  1  0  0  0  0
 31 67  1  0  0  0  0
 32 34  2  0  0  0  0
 33 35  2  0  0  0  0
 34 37  1  0  0  0  0
 35 59  1  0  0  0  0
 36 68  1  0  0  0  0
 36 72  2  0  0  0  0
 37 65  1  0  0  0  0
 37 73  2  0  0  0  0
 38 51  1  0  0  0  0
 38 69  1  0  0  0  0
 38 74  2  0  0  0  0
 39 60  1  0  0  0  0
 39 66  1  0  0  0  0
 39 75  2  0  0  0  0
 40 61  1  0  0  0  0
 40 70  1  0  0  0  0
 40 76  2  0  0  0  0
 41 44  1  0  0  0  0
 42 51  1  0  0  0  0
 43 66  1  0  0  0  0
 44 46  1  0  0  0  0
 45 47  1  0  0  0  0
 45 48  1  0  0  0  0
 46 50  1  0  0  0  0
 47 52  1  0  0  0  0
 48 65  1  0  0  0  0
 49 52  1  0  0  0  0
 49 65  1  0  0  0  0
 50 69  1  0  0  0  0
 51 66  1  0  0  0  0
 52 64  1  0  0  0  0
 53 59  1  0  0  0  0
 54 61  1  0  0  0  0
 55 62  1  0  0  0  0
 56 62  1  0  0  0  0
 57 62  1  0  0  0  0
 58 71  1  0  0  0  0
 59 79  1  0  0  0  0
 60 62  1  0  0  0  0
 60 70  1  0  0  0  0
 61 71  1  0  0  0  0
 63 64  1  0  0  0  0
M  CHG  1  71   1
M  ISO  4  34 100  37 100  59 101  79 101
M  END
> <Batch ID>
0126

> <Smiles>
CNC(C)C(=O)NC(C(=O)N1Cc2cc([101O:1][101CH:1](C)C=Cc3ccc(C=[100CH:0][100C:0](=O)N4CCCC(n5nc(-c6ccc(Oc7ccc(F)cc7F)cc6)c(C(N)=O)c5N)C4)o3)ccc2CC1C(=O)NC1CCCc2ccccc21)C(C)(C)C

> <Shape>
0.251

> <Color>
0.123

> <Negative vol penalty>
0.000

$$$$

  -OEChem-04052302113D

 85 93  0     1  0  0  0  0  0999 V2000
  -17.5628  -29.6368   17.1667 C   0  0  0  0  0  0  0  0  0  0  0  0
  -18.7914  -28.9844   17.1494 C   0  0  0  0  0  0  0  0  0  0  0  0
  -24.0397  -12.4140   22.1777 C   0  0  0  0  0  0  0  0  0  0  0  0
  -22.4748  -13.1573   20.4938 C   0  0  0  0  0  0  0  0  0  0  0  0
  -17.4979  -30.9900   17.4964 C   0  0  0  0  0  0  0  0  0  0  0  0
  -19.9560  -29.6851   17.4608 C   0  0  0  0  0  0  0  0  0  0  0  0
  -24.8858  -27.5205   20.3794 C   0  0  0  0  0  0  0  0  0  0  0  0
  -22.9928  -11.8358   22.8955 C   0  0  0  0  0  0  0  0  0  0  0  0
  -21.4278  -12.5791   21.2116 C   0  0  0  0  0  0  0  0  0  0  0  0
  -26.1149  -27.0482   19.9212 C   0  0  0  0  0  0  0  0  0  0  0  0
  -21.1258   -9.0208   22.7452 C   0  0  0  0  0  0  0  0  0  0  0  0
  -21.3182   -7.7346   23.2495 C   0  0  0  0  0  0  0  0  0  0  0  0
  -33.8720  -20.8014   18.9177 C   0  0  0  0  0  0  0  0  0  0  0  0
  -33.9493  -23.1936   19.2466 C   0  0  0  0  0  0  0  0  0  0  0  0
  -31.9518  -21.9598   19.8166 C   0  0  0  0  0  0  0  0  0  0  0  0
  -27.0815  -29.2281   20.2855 C   0  0  0  0  0  0  0  0  0  0  0  0
  -20.9722   -8.5623   25.4928 C   0  0  0  0  0  0  0  0  0  0  0  0
  -23.7807  -13.0748   20.9768 C   0  0  0  0  0  0  0  0  0  0  0  0
  -34.5636  -22.0100   18.8373 C   0  0  0  0  0  0  0  0  0  0  0  0
  -32.5661  -20.7762   19.4073 C   0  0  0  0  0  0  0  0  0  0  0  0
  -25.6464  -13.0647   19.2371 C   0  0  0  0  0  0  0  0  0  0  0  0
  -18.6612  -31.7053   17.8213 C   0  0  0  0  0  0  0  0  0  0  0  0
  -24.7423  -28.8553   20.7845 C   0  0  0  0  0  0  0  0  0  0  0  0
  -19.9068  -31.0494   17.7938 C   0  0  0  0  0  0  0  0  0  0  0  0
  -25.8501  -29.7142   20.7508 C   0  0  0  0  0  0  0  0  0  0  0  0
  -21.6869  -11.9183   22.4124 C   0  0  0  0  0  0  0  0  0  0  0  0
  -27.2123  -27.9028   19.8715 C   0  0  0  0  0  0  0  0  0  0  0  0
  -20.8567  -10.0778   23.6147 C   0  0  0  0  0  0  0  0  0  0  0  0
  -32.6434  -23.1685   19.7362 C   0  0  0  0  0  0  0  0  0  0  0  0
  -21.2414   -7.5054   24.6232 C   0  0  0  0  0  0  0  0  0  0  0  0
  -20.7799   -9.8486   24.9885 C   0  0  0  0  0  0  0  0  0  0  0  0
  -24.8617  -13.6728   20.2352 C   0  0  0  0  0  0  0  0  0  0  0  0
  -26.5278  -14.0440   18.8491 C   0  0  0  0  0  0  0  0  0  0  0  0
  -36.8474  -22.8981   18.7330 C   0  0  0  0  0  0  0  0  0  0  0  0
  -35.9252  -22.0364   18.3265 C   0  0  0  0  0  0  0  0  0  0  0  0
  -31.8448  -19.5159   19.4908 C   0  0  0  0  0  0  0  0  0  0  0  0
  -30.7668  -19.2805   20.2687 C   0  0  0  0  0  0  0  0  0  0  0  0
  -25.5842  -11.7336   18.7080 C   0  0  0  0  0  0  0  0  0  0  0  0
  -30.1365  -17.9454   20.2352 C   0  0  0  0  0  0  0  0  0  0  0  0
  -22.9981  -31.3233   19.7993 C   0  0  0  0  0  0  0  0  0  0  0  0
  -30.1942  -25.8456   19.7869 C   0  0  0  0  0  0  0  0  0  0  0  0
  -24.2483  -32.7558   22.4275 C   0  0  0  0  0  0  0  0  0  0  0  0
  -26.7618  -32.8952   24.7318 C   0  0  0  0  0  0  0  0  0  0  0  0
  -18.5467  -33.1781   18.1252 C   0  0  0  0  0  0  0  0  0  0  0  0
  -23.4163  -29.3422   21.3014 C   0  0  0  0  0  0  0  0  0  0  0  0
  -25.7536  -31.1506   21.1935 C   0  0  0  0  0  0  0  0  0  0  0  0
  -19.7834  -33.7572   18.8075 C   0  0  0  0  0  0  0  0  0  0  0  0
  -26.6405  -18.9819   19.8668 C   0  0  0  0  0  0  0  0  0  0  0  0
  -21.0512  -33.2955   18.0958 C   0  0  0  0  0  0  0  0  0  0  0  0
  -25.9293  -17.6317   19.8968 C   0  0  0  0  0  0  0  0  0  0  0  0
  -27.8734  -18.9988   20.7691 C   0  0  0  0  0  0  0  0  0  0  0  0
  -28.1262  -16.5472   20.5115 C   0  0  0  0  0  0  0  0  0  0  0  0
  -21.1895  -31.7693   18.1498 C   0  0  1  0  0  0  0  0  0  0  0  0
  -23.2565  -30.8562   21.2039 C   0  0  1  0  0  0  0  0  0  0  0  0
  -26.9095  -16.4928   19.5743 C   0  0  1  0  0  0  0  0  0  0  0  0
  -27.5270  -34.1974   26.7358 C   0  0  0  0  0  0  0  0  0  0  0  0
  -25.1683  -35.0206   20.6015 C   0  0  0  0  0  0  0  0  0  0  0  0
  -26.7022  -35.7779   22.4296 C   0  0  0  0  0  0  0  0  0  0  0  0
  -24.2351  -35.7658   22.7989 C   0  0  0  0  0  0  0  0  0  0  0  0
  -26.6243  -30.5102   26.4787 C   0  0  0  0  0  0  0  0  0  0  0  0
  -28.7023  -26.0639   19.6392 C   0  0  0  0  0  0  0  0  0  1  0  0
  -30.6338  -24.4121   20.0027 C   0  0  0  0  0  0  0  0  0  0  0  0
  -25.4865  -33.5706   22.7139 C   0  0  1  0  0  0  0  0  0  0  0  0
  -26.7354  -32.9946   26.2463 C   0  0  2  0  0  0  0  0  0  0  0  0
  -25.3997  -35.0073   22.1257 C   0  0  0  0  0  0  0  0  0  0  0  0
  -25.2136  -14.9403   20.4669 N   0  0  0  0  0  0  0  0  0  0  0  0
  -26.2292  -15.1366   19.6090 N   0  0  0  0  0  0  0  0  0  0  0  0
  -28.7669  -17.8668   20.4810 N   0  0  0  0  0  0  0  0  0  0  0  0
  -24.4343  -31.5811   21.6850 N   0  0  0  0  0  0  0  0  0  0  0  0
  -27.5213  -14.0686   17.9355 N   0  0  0  0  0  0  0  0  0  0  0  0
  -24.6184  -10.8559   19.2191 N   0  0  0  0  0  0  0  0  0  0  0  0
  -21.6608  -31.3503   19.4524 N   0  0  0  0  0  0  0  0  0  0  0  0
  -25.6782  -33.5274   24.1595 N   0  0  0  0  0  0  0  0  0  0  0  0
  -27.3204  -31.7672   26.8563 N   0  3  0  0  0  0  0  0  0  0  0  0
  -26.3727  -11.3293   17.8201 O   0  0  0  0  0  0  0  0  0  0  0  0
  -30.8633  -16.9794   19.9960 O   0  0  0  0  0  0  0  0  0  0  0  0
  -23.9421  -31.6374   19.0838 O   0  0  0  0  0  0  0  0  0  0  0  0
  -30.9985  -26.7750   19.7355 O   0  0  0  0  0  0  0  0  0  0  0  0
  -23.1574  -33.1436   22.8531 O   0  0  0  0  0  0  0  0  0  0  0  0
  -27.6562  -32.3179   24.1176 O   0  0  0  0  0  0  0  0  0  0  0  0
  -20.6651  -11.3540   23.1125 O   0  0  0  0  0  0  0  0  0  0  0  0
  -28.4130  -27.4446   19.4240 O   0  0  0  0  0  0  0  0  0  1  0  0
  -32.0371  -24.3348   20.1390 O   0  0  0  0  0  0  0  0  0  0  0  0
  -21.4247   -6.2699   25.1072 F   0  0  0  0  0  0  0  0  0  0  0  0
  -20.5205  -10.8598   25.8286 F   0  0  0  0  0  0  0  0  0  0  0  0
  1  2  1  0  0  0  0
  1  5  2  0  0  0  0
  2  6  2  0  0  0  0
  3  8  2  0  0  0  0
  3 18  1  0  0  0  0
  4  9  1  0  0  0  0
  4 18  2  0  0  0  0
  5 22  1  0  0  0  0
  6 24  1  0  0  0  0
  7 10  2  0  0  0  0
  7 23  1  0  0  0  0
  8 26  1  0  0  0  0
  9 26  2  0  0  0  0
 10 27  1  0  0  0  0
 11 12  2  0  0  0  0
 11 28  1  0  0  0  0
 12 30  1  0  0  0  0
 13 19  1  0  0  0  0
 13 20  2  0  0  0  0
 14 19  2  0  0  0  0
 14 29  1  0  0  0  0
 15 20  1  0  0  0  0
 15 29  2  0  0  0  0
 16 25  1  0  0  0  0
 16 27  2  0  0  0  0
 17 30  2  0  0  0  0
 17 31  1  0  0  0  0
 18 32  1  0  0  0  0
 19 35  1  0  0  0  0
 20 36  1  0  0  0  0
 21 32  1  0  0  0  0
 21 33  2  0  0  0  0
 21 38  1  0  0  0  0
 22 24  2  0  0  0  0
 22 44  1  0  0  0  0
 23 25  2  0  0  0  0
 23 45  1  0  0  0  0
 24 53  1  0  0  0  0
 25 46  1  0  0  0  0
 26 81  1  0  0  0  0
 27 82  1  0  0  0  0
 28 31  2  0  0  0  0
 28 81  1  0  0  0  0
 29 83  1  0  0  0  0
 30 84  1  0  0  0  0
 31 85  1  0  0  0  0
 32 66  2  0  0  0  0
 33 67  1  0  0  0  0
 33 70  1  0  0  0  0
 34 35  2  0  0  0  0
 36 37  2  0  0  0  0
 37 39  1  0  0  0  0
 38 71  1  0  0  0  0
 38 75  2  0  0  0  0
 39 68  1  0  0  0  0
 39 76  2  0  0  0  0
 40 54  1  0  0  0  0
 40 72  1  0  0  0  0
 40 77  2  0  0  0  0
 41 61  1  0  0  0  0
 41 62  1  0  0  0  0
 41 78  2  0  0  0  0
 42 63  1  0  0  0  0
 42 69  1  0  0  0  0
 42 79  2  0  0  0  0
 43 64  1  0  0  0  0
 43 73  1  0  0  0  0
 43 80  2  0  0  0  0
 44 47  1  0  0  0  0
 45 54  1  0  0  0  0
 46 69  1  0  0  0  0
 47 49  1  0  0  0  0
 48 50  1  0  0  0  0
 48 51  1  0  0  0  0
 49 53  1  0  0  0  0
 50 55  1  0  0  0  0
 51 68  1  0  0  0  0
 52 55  1  0  0  0  0
 52 68  1  0  0  0  0
 53 72  1  0  0  0  0
 54 69  1  0  0  0  0
 55 67  1  0  0  0  0
 56 64  1  0  0  0  0
 57 65  1  0  0  0  0
 58 65  1  0  0  0  0
 59 65  1  0  0  0  0
 60 74  1  0  0  0  0
 61 82  1  0  0  0  0
 62 83  1  0  0  0  0
 63 65  1  0  0  0  0
 63 73  1  0  0  0  0
 64 74  1  0  0  0  0
 66 67  1  0  0  0  0
M  CHG  1  74   1
M  ISO  4  37 100  39 100  61 101  82 101
M  END
> <Batch ID>
0126

> <Smiles>
C=Cc1cc(C=[100CH:0][100C:0](=O)N2CCCC(n3nc(-c4ccc(Oc5ccc(F)cc5F)cc4)c(C(N)=O)c3N)C2)cc(OCC(=O)[101CH2:1][101O:1]c2ccc3c(c2)CN(C(=O)C(NC(=O)C(C)NC)C(C)(C)C)C(C(=O)NC2CCCc4ccccc42)C3)c1

> <Shape>
0.253

> <Color>
0.095

> <Negative vol penalty>
0.000

$$$$

  -OEChem-04052302113D

 84 92  0     1  0  0  0  0  0999 V2000
  -30.1770  -35.9041   21.7002 C   0  0  0  0  0  0  0  0  0  0  0  0
  -30.1558  -34.5164   21.6031 C   0  0  0  0  0  0  0  0  0  0  0  0
  -26.0669  -11.2062   20.9282 C   0  0  0  0  0  0  0  0  0  0  0  0
  -25.9141  -11.6312   18.5548 C   0  0  0  0  0  0  0  0  0  0  0  0
  -28.8862  -20.4526   14.2902 C   0  0  0  0  0  0  0  0  0  0  0  0
  -29.2040  -36.5643   22.4495 C   0  0  0  0  0  0  0  0  0  0  0  0
  -29.1621  -33.7881   22.2562 C   0  0  0  0  0  0  0  0  0  0  0  0
  -27.1714  -30.1636   19.3330 C   0  0  0  0  0  0  0  0  0  0  0  0
  -28.9370  -19.0709   14.1060 C   0  0  0  0  0  0  0  0  0  0  0  0
  -24.7695  -10.6940   20.9200 C   0  0  0  0  0  0  0  0  0  0  0  0
  -24.6167  -11.1190   18.5466 C   0  0  0  0  0  0  0  0  0  0  0  0
  -27.9140  -28.9943   19.1741 C   0  0  0  0  0  0  0  0  0  0  0  0
  -23.2354   -7.8103   20.0463 C   0  0  0  0  0  0  0  0  0  0  0  0
  -23.0041   -6.6198   20.7355 C   0  0  0  0  0  0  0  0  0  0  0  0
  -29.5237  -20.1678   16.6031 C   0  0  0  0  0  0  0  0  0  0  0  0
  -26.5373  -27.9026   20.8270 C   0  0  0  0  0  0  0  0  0  0  0  0
  -21.3985   -7.7478   22.1450 C   0  0  0  0  0  0  0  0  0  0  0  0
  -26.6392  -11.6749   19.7456 C   0  0  0  0  0  0  0  0  0  0  0  0
  -29.1796  -21.0011   15.5387 C   0  0  0  0  0  0  0  0  0  0  0  0
  -29.1760  -11.4924   19.5487 C   0  0  0  0  0  0  0  0  0  0  0  0
  -28.1923  -35.8443   23.1041 C   0  0  0  0  0  0  0  0  0  0  0  0
  -26.1114  -30.2145   20.2496 C   0  0  0  0  0  0  0  0  0  0  0  0
  -28.1754  -34.4391   23.0160 C   0  0  0  0  0  0  0  0  0  0  0  0
  -25.7812  -29.0729   20.9938 C   0  0  0  0  0  0  0  0  0  0  0  0
  -29.2811  -18.2376   15.1704 C   0  0  0  0  0  0  0  0  0  0  0  0
  -29.5745  -18.7860   16.4189 C   0  0  0  0  0  0  0  0  0  0  0  0
  -24.0444  -10.6504   19.7293 C   0  0  0  0  0  0  0  0  0  0  0  0
  -27.5988  -27.8645   19.9232 C   0  0  0  0  0  0  0  0  0  0  0  0
  -22.5483   -8.9695   20.4065 C   0  0  0  0  0  0  0  0  0  0  0  0
  -22.0857   -6.5886   21.7848 C   0  0  0  0  0  0  0  0  0  0  0  0
  -21.6299   -8.9383   21.4559 C   0  0  0  0  0  0  0  0  0  0  0  0
  -27.9791  -12.2046   19.7535 C   0  0  0  0  0  0  0  0  0  0  0  0
  -30.1629  -12.4418   19.6544 C   0  0  0  0  0  0  0  0  0  0  0  0
  -29.1260  -22.4598   15.7313 C   0  0  0  0  0  0  0  0  0  0  0  0
  -29.7310  -23.1325   16.7229 C   0  0  0  0  0  0  0  0  0  0  0  0
  -29.3777  -10.0974   19.2864 C   0  0  0  0  0  0  0  0  0  0  0  0
  -25.4883  -31.9074   22.8667 C   0  0  0  0  0  0  0  0  0  0  0  0
  -29.0275  -24.9951   18.2230 C   0  0  0  0  0  0  0  0  0  0  0  0
  -22.6194  -30.4046   22.6842 C   0  0  0  0  0  0  0  0  0  0  0  0
  -20.8165  -27.7273   21.5758 C   0  0  0  0  0  0  0  0  0  0  0  0
  -30.2444  -18.3566   18.8091 C   0  0  0  0  0  0  0  0  0  0  0  0
  -27.1898  -36.5987   23.9412 C   0  0  0  0  0  0  0  0  0  0  0  0
  -25.3031  -31.4752   20.3898 C   0  0  0  0  0  0  0  0  0  0  0  0
  -24.6397  -29.0695   21.9764 C   0  0  0  0  0  0  0  0  0  0  0  0
  -25.9519  -35.7786   24.2952 C   0  0  0  0  0  0  0  0  0  0  0  0
  -31.1276  -16.6190   21.7887 C   0  0  0  0  0  0  0  0  0  0  0  0
  -26.3528  -34.3900   24.7828 C   0  0  0  0  0  0  0  0  0  0  0  0
  -30.5346  -15.2231   21.5837 C   0  0  0  0  0  0  0  0  0  0  0  0
  -30.2277  -17.7083   21.2080 C   0  0  0  0  0  0  0  0  0  0  0  0
  -29.2524  -16.1186   19.5985 C   0  0  0  0  0  0  0  0  0  0  0  0
  -27.0993  -33.6157   23.6897 C   0  0  1  0  0  0  0  0  0  0  0  0
  -24.5714  -31.5704   21.7250 C   0  0  1  0  0  0  0  0  0  0  0  0
  -30.1544  -14.9833   20.1094 C   0  0  2  0  0  0  0  0  0  0  0  0
  -29.3264  -16.7611   14.9446 C   0  0  0  0  0  0  0  0  0  0  0  0
  -18.5018  -26.7589   21.6148 C   0  0  0  0  0  0  0  0  0  0  0  0
  -23.0434  -29.5136   25.5715 C   0  0  0  0  0  0  0  0  0  0  0  0
  -21.2316  -27.8177   25.2409 C   0  0  0  0  0  0  0  0  0  0  0  0
  -20.7135  -30.2494   25.0383 C   0  0  0  0  0  0  0  0  0  0  0  0
  -20.5902  -27.8500   18.6275 C   0  0  0  0  0  0  0  0  0  0  0  0
  -29.6423  -24.6195   16.8821 C   0  0  0  0  0  0  0  0  0  0  0  0
  -28.8955  -26.4831   18.4857 C   0  0  0  0  0  0  0  0  0  1  0  0
  -22.0535  -29.1120   23.2210 C   0  0  1  0  0  0  0  0  0  0  0  0
  -19.4827  -27.6394   20.8563 C   0  0  2  0  0  0  0  0  0  0  0  0
  -21.7833  -29.1735   24.7509 C   0  0  0  0  0  0  0  0  0  0  0  0
  -28.1845  -13.5060   19.9728 N   0  0  0  0  0  0  0  0  0  0  0  0
  -29.5220  -13.6191   19.9066 N   0  0  0  0  0  0  0  0  0  0  0  0
  -23.8834  -30.3282   22.0823 N   0  0  0  0  0  0  0  0  0  0  0  0
  -29.9128  -17.4166   19.8078 N   0  0  0  0  0  0  0  0  0  0  0  0
  -31.5076  -12.3762   19.5553 N   0  0  0  0  0  0  0  0  0  0  0  0
  -28.2545   -9.2626   19.2100 N   0  0  0  0  0  0  0  0  0  0  0  0
  -29.9267  -17.9558   17.5118 N   0  0  0  0  0  0  0  0  0  0  0  0
  -26.1676  -33.1004   22.7095 N   0  0  0  0  0  0  0  0  0  0  0  0
  -20.8722  -28.8185   22.4169 N   0  0  0  0  0  0  0  0  0  0  0  0
  -19.6669  -27.0702   19.4914 N   0  3  0  0  0  0  0  0  0  0  0  0
  -30.5212   -9.6027   19.1408 O   0  0  0  0  0  0  0  0  0  0  0  0
  -25.5721  -31.1424   23.8204 O   0  0  0  0  0  0  0  0  0  0  0  0
  -28.6447  -24.1596   19.0411 O   0  0  0  0  0  0  0  0  0  0  0  0
  -21.9609  -31.4425   22.7886 O   0  0  0  0  0  0  0  0  0  0  0  0
  -21.7174  -26.9077   21.4111 O   0  0  0  0  0  0  0  0  0  0  0  0
  -30.7961  -19.4258   19.0818 O   0  0  0  0  0  0  0  0  0  0  0  0
  -22.7785  -10.1504   19.7208 O   0  0  0  0  0  0  0  0  0  0  0  0
  -28.3224  -26.7221   19.7705 O   0  0  0  0  0  0  0  0  0  1  0  0
  -21.8625   -5.4450   22.4455 F   0  0  0  0  0  0  0  0  0  0  0  0
  -20.9659  -10.0485   21.8057 F   0  0  0  0  0  0  0  0  0  0  0  0
  1  2  1  0  0  0  0
  1  6  2  0  0  0  0
  2  7  2  0  0  0  0
  3 10  2  0  0  0  0
  3 18  1  0  0  0  0
  4 11  1  0  0  0  0
  4 18  2  0  0  0  0
  5  9  2  0  0  0  0
  5 19  1  0  0  0  0
  6 21  1  0  0  0  0
  7 23  1  0  0  0  0
  8 12  2  0  0  0  0
  8 22  1  0  0  0  0
  9 25  1  0  0  0  0
 10 27  1  0  0  0  0
 11 27  2  0  0  0  0
 12 28  1  0  0  0  0
 13 14  2  0  0  0  0
 13 29  1  0  0  0  0
 14 30  1  0  0  0  0
 15 19  2  0  0  0  0
 15 26  1  0  0  0  0
 16 24  1  0  0  0  0
 16 28  2  0  0  0  0
 17 30  2  0  0  0  0
 17 31  1  0  0  0  0
 18 32  1  0  0  0  0
 19 34  1  0  0  0  0
 20 32  1  0  0  0  0
 20 33  2  0  0  0  0
 20 36  1  0  0  0  0
 21 23  2  0  0  0  0
 21 42  1  0  0  0  0
 22 24  2  0  0  0  0
 22 43  1  0  0  0  0
 23 51  1  0  0  0  0
 24 44  1  0  0  0  0
 25 26  2  0  0  0  0
 25 54  1  0  0  0  0
 26 71  1  0  0  0  0
 27 81  1  0  0  0  0
 28 82  1  0  0  0  0
 29 31  2  0  0  0  0
 29 81  1  0  0  0  0
 30 83  1  0  0  0  0
 31 84  1  0  0  0  0
 32 65  2  0  0  0  0
 33 66  1  0  0  0  0
 33 69  1  0  0  0  0
 34 35  2  0  0  0  0
 35 60  1  0  0  0  0
 36 70  1  0  0  0  0
 36 75  2  0  0  0  0
 37 52  1  0  0  0  0
 37 72  1  0  0  0  0
 37 76  2  0  0  0  0
 38 60  1  0  0  0  0
 38 61  1  0  0  0  0
 38 77  2  0  0  0  0
 39 62  1  0  0  0  0
 39 67  1  0  0  0  0
 39 78  2  0  0  0  0
 40 63  1  0  0  0  0
 40 73  1  0  0  0  0
 40 79  2  0  0  0  0
 41 68  1  0  0  0  0
 41 71  1  0  0  0  0
 41 80  2  0  0  0  0
 42 45  1  0  0  0  0
 43 52  1  0  0  0  0
 44 67  1  0  0  0  0
 45 47  1  0  0  0  0
 46 48  1  0  0  0  0
 46 49  1  0  0  0  0
 47 51  1  0  0  0  0
 48 53  1  0  0  0  0
 49 68  1  0  0  0  0
 50 53  1  0  0  0  0
 50 68  1  0  0  0  0
 51 72  1  0  0  0  0
 52 67  1  0  0  0  0
 53 66  1  0  0  0  0
 55 63  1  0  0  0  0
 56 64  1  0  0  0  0
 57 64  1  0  0  0  0
 58 64  1  0  0  0  0
 59 74  1  0  0  0  0
 61 82  1  0  0  0  0
 62 64  1  0  0  0  0
 62 73  1  0  0  0  0
 63 74  1  0  0  0  0
 65 66  1  0  0  0  0
M  CHG  1  74   1
M  ISO  4  41 100  61 101  71 100  82 101
M  END
> <Batch ID>
0126

> <Smiles>
CNC(C)C(=O)NC(C(=O)N1Cc2cc([101O:1][101CH2:1]C(=O)CC=Cc3ccc(C)c([100NH:0][100C:0](=O)N4CCCC(n5nc(-c6ccc(Oc7ccc(F)cc7F)cc6)c(C(N)=O)c5N)C4)c3)ccc2CC1C(=O)NC1CCCc2ccccc21)C(C)(C)C

> <Shape>
0.318

> <Color>
0.079

> <Negative vol penalty>
0.000

$$$$

  -OEChem-04052302113D

 83 91  0     1  0  0  0  0  0999 V2000
  -28.3437  -36.3556   22.8230 C   0  0  0  0  0  0  0  0  0  0  0  0
  -28.6168  -34.9951   22.7228 C   0  0  0  0  0  0  0  0  0  0  0  0
  -24.0475   -9.7937   22.2604 C   0  0  0  0  0  0  0  0  0  0  0  0
  -24.6318  -11.4295   23.9396 C   0  0  0  0  0  0  0  0  0  0  0  0
  -30.7040  -20.1462   19.0050 C   0  0  0  0  0  0  0  0  0  0  0  0
  -27.0901  -36.7836   23.2580 C   0  0  0  0  0  0  0  0  0  0  0  0
  -27.6367  -34.0618   23.0587 C   0  0  0  0  0  0  0  0  0  0  0  0
  -27.2926  -30.3049   19.6805 C   0  0  0  0  0  0  0  0  0  0  0  0
  -30.4427  -18.7786   18.9215 C   0  0  0  0  0  0  0  0  0  0  0  0
  -23.6687   -8.9004   23.2624 C   0  0  0  0  0  0  0  0  0  0  0  0
  -24.2530  -10.5362   24.9416 C   0  0  0  0  0  0  0  0  0  0  0  0
  -28.2589  -29.3019   19.7431 C   0  0  0  0  0  0  0  0  0  0  0  0
  -21.0120   -8.4211   25.2983 C   0  0  0  0  0  0  0  0  0  0  0  0
  -19.8101   -7.7328   25.1327 C   0  0  0  0  0  0  0  0  0  0  0  0
  -28.3415  -20.5820   19.2610 C   0  0  0  0  0  0  0  0  0  0  0  0
  -26.7038  -27.8857   20.9242 C   0  0  0  0  0  0  0  0  0  0  0  0
  -21.0031   -5.6330   25.2024 C   0  0  0  0  0  0  0  0  0  0  0  0
  -24.5291  -11.0583   22.5990 C   0  0  0  0  0  0  0  0  0  0  0  0
  -29.6534  -21.0479   19.1748 C   0  0  0  0  0  0  0  0  0  0  0  0
  -24.1071  -12.9328   20.9210 C   0  0  0  0  0  0  0  0  0  0  0  0
  -26.0909  -35.8551   23.5901 C   0  0  0  0  0  0  0  0  0  0  0  0
  -26.0260  -30.1096   20.2499 C   0  0  0  0  0  0  0  0  0  0  0  0
  -26.3690  -34.4778   23.4998 C   0  0  0  0  0  0  0  0  0  0  0  0
  -25.7223  -28.8868   20.8653 C   0  0  0  0  0  0  0  0  0  0  0  0
  -28.0802  -19.2144   19.1774 C   0  0  0  0  0  0  0  0  0  0  0  0
  -29.1308  -18.3127   19.0076 C   0  0  0  0  0  0  0  0  0  0  0  0
  -23.7714   -9.2716   24.6030 C   0  0  0  0  0  0  0  0  0  0  0  0
  -27.9656  -28.0931   20.3676 C   0  0  0  0  0  0  0  0  0  0  0  0
  -22.2094   -7.7154   25.4159 C   0  0  0  0  0  0  0  0  0  0  0  0
  -19.8057   -6.3388   25.0848 C   0  0  0  0  0  0  0  0  0  0  0  0
  -22.2050   -6.3214   25.3680 C   0  0  0  0  0  0  0  0  0  0  0  0
  -24.9211  -11.9813   21.5644 C   0  0  0  0  0  0  0  0  0  0  0  0
  -24.9451  -13.5529   20.0266 C   0  0  0  0  0  0  0  0  0  0  0  0
  -29.9303  -22.4926   19.2631 C   0  0  0  0  0  0  0  0  0  0  0  0
  -29.0947  -23.3966   19.7931 C   0  0  0  0  0  0  0  0  0  0  0  0
  -22.7179  -13.2297   21.1146 C   0  0  0  0  0  0  0  0  0  0  0  0
  -29.4661  -24.8411   19.8256 C   0  0  0  0  0  0  0  0  0  0  0  0
  -24.3716  -31.5101   22.5747 C   0  0  0  0  0  0  0  0  0  0  0  0
  -22.0162  -29.5209   21.5660 C   0  0  0  0  0  0  0  0  0  0  0  0
  -21.1504  -26.6259   19.9797 C   0  0  0  0  0  0  0  0  0  0  0  0
  -29.8281  -15.9054   18.7523 C   0  0  0  0  0  0  0  0  0  0  0  0
  -24.7667  -36.3653   24.1007 C   0  0  0  0  0  0  0  0  0  0  0  0
  -24.9858  -31.1914   20.1504 C   0  0  0  0  0  0  0  0  0  0  0  0
  -24.3708  -28.6196   21.4741 C   0  0  0  0  0  0  0  0  0  0  0  0
  -23.6598  -35.3142   24.0793 C   0  0  0  0  0  0  0  0  0  0  0  0
  -29.6300  -12.3575   18.5286 C   0  0  0  0  0  0  0  0  0  0  0  0
  -24.1631  -33.9971   24.6612 C   0  0  0  0  0  0  0  0  0  0  0  0
  -28.3203  -12.0216   19.2456 C   0  0  0  0  0  0  0  0  0  0  0  0
  -30.3612  -13.5197   19.1983 C   0  0  0  0  0  0  0  0  0  0  0  0
  -28.2458  -14.3964   20.1068 C   0  0  0  0  0  0  0  0  0  0  0  0
  -25.3237  -33.4350   23.8314 C   0  0  1  0  0  0  0  0  0  0  0  0
  -23.8999  -31.0760   21.2157 C   0  0  1  0  0  0  0  0  0  0  0  0
  -27.4416  -13.2744   19.4301 C   0  0  2  0  0  0  0  0  0  0  0  0
  -26.6653  -18.7431   19.2729 C   0  0  0  0  0  0  0  0  0  0  0  0
  -19.1502  -25.2501   19.3441 C   0  0  0  0  0  0  0  0  0  0  0  0
  -21.7624  -28.5614   24.4512 C   0  0  0  0  0  0  0  0  0  0  0  0
  -20.4790  -26.5843   23.6075 C   0  0  0  0  0  0  0  0  0  0  0  0
  -19.5850  -28.8878   23.2651 C   0  0  0  0  0  0  0  0  0  0  0  0
  -21.7541  -26.8709   17.0927 C   0  0  0  0  0  0  0  0  0  0  0  0
  -28.4405  -25.7642   20.4491 C   0  0  0  0  0  0  0  0  0  1  0  0
  -21.5789  -28.1186   21.9143 C   0  0  1  0  0  0  0  0  0  0  0  0
  -20.1193  -26.3364   18.9038 C   0  0  2  0  0  0  0  0  0  0  0  0
  -20.8776  -28.0435   23.2999 C   0  0  0  0  0  0  0  0  0  0  0  0
  -26.1794  -11.9922   21.1167 N   0  0  0  0  0  0  0  0  0  0  0  0
  -26.1625  -12.9580   20.1823 N   0  0  0  0  0  0  0  0  0  0  0  0
  -23.3895  -29.7108   21.3569 N   0  0  0  0  0  0  0  0  0  0  0  0
  -29.4682  -14.6723   19.3358 N   0  0  0  0  0  0  0  0  0  0  0  0
  -24.7519  -14.5434   19.1300 N   0  0  0  0  0  0  0  0  0  0  0  0
  -22.0056  -12.4977   22.0744 N   0  0  0  0  0  0  0  0  0  0  0  0
  -28.8861  -16.9197   18.9206 N   0  0  0  0  0  0  0  0  0  0  0  0
  -24.8263  -32.8141   22.6224 N   0  0  0  0  0  0  0  0  0  0  0  0
  -20.7544  -27.6599   20.8015 N   0  0  0  0  0  0  0  0  0  0  0  0
  -20.7899  -25.8881   17.6508 N   0  3  0  0  0  0  0  0  0  0  0  0
  -22.1216  -14.1066   20.4444 O   0  0  0  0  0  0  0  0  0  0  0  0
  -30.5331  -25.2506   19.3764 O   0  0  0  0  0  0  0  0  0  0  0  0
  -24.3249  -30.7209   23.5110 O   0  0  0  0  0  0  0  0  0  0  0  0
  -21.1695  -30.4135   21.4755 O   0  0  0  0  0  0  0  0  0  0  0  0
  -22.2003  -25.9954   20.0830 O   0  0  0  0  0  0  0  0  0  0  0  0
  -30.8811  -16.0435   18.1244 O   0  0  0  0  0  0  0  0  0  0  0  0
  -23.4017   -8.4002   25.5810 O   0  0  0  0  0  0  0  0  0  0  0  0
  -28.9072  -27.1127   20.4306 O   0  0  0  0  0  0  0  0  0  1  0  0
  -18.6513   -5.6779   24.9273 F   0  0  0  0  0  0  0  0  0  0  0  0
  -23.3520   -5.6379   25.4816 F   0  0  0  0  0  0  0  0  0  0  0  0
  1  2  1  0  0  0  0
  1  6  2  0  0  0  0
  2  7  2  0  0  0  0
  3 10  2  0  0  0  0
  3 18  1  0  0  0  0
  4 11  1  0  0  0  0
  4 18  2  0  0  0  0
  5  9  2  0  0  0  0
  5 19  1  0  0  0  0
  6 21  1  0  0  0  0
  7 23  1  0  0  0  0
  8 12  2  0  0  0  0
  8 22  1  0  0  0  0
  9 26  1  0  0  0  0
 10 27  1  0  0  0  0
 11 27  2  0  0  0  0
 12 28  1  0  0  0  0
 13 14  2  0  0  0  0
 13 29  1  0  0  0  0
 14 30  1  0  0  0  0
 15 19  2  0  0  0  0
 15 25  1  0  0  0  0
 16 24  1  0  0  0  0
 16 28  2  0  0  0  0
 17 30  2  0  0  0  0
 17 31  1  0  0  0  0
 18 32  1  0  0  0  0
 19 34  1  0  0  0  0
 20 32  1  0  0  0  0
 20 33  2  0  0  0  0
 20 36  1  0  0  0  0
 21 23  2  0  0  0  0
 21 42  1  0  0  0  0
 22 24  2  0  0  0  0
 22 43  1  0  0  0  0
 23 51  1  0  0  0  0
 24 44  1  0  0  0  0
 25 26  2  0  0  0  0
 25 54  1  0  0  0  0
 26 70  1  0  0  0  0
 27 80  1  0  0  0  0
 28 81  1  0  0  0  0
 29 31  2  0  0  0  0
 29 80  1  0  0  0  0
 30 82  1  0  0  0  0
 31 83  1  0  0  0  0
 32 64  2  0  0  0  0
 33 65  1  0  0  0  0
 33 68  1  0  0  0  0
 34 35  2  0  0  0  0
 35 37  1  0  0  0  0
 36 69  1  0  0  0  0
 36 74  2  0  0  0  0
 37 60  1  0  0  0  0
 37 75  2  0  0  0  0
 38 52  1  0  0  0  0
 38 71  1  0  0  0  0
 38 76  2  0  0  0  0
 39 61  1  0  0  0  0
 39 66  1  0  0  0  0
 39 77  2  0  0  0  0
 40 62  1  0  0  0  0
 40 72  1  0  0  0  0
 40 78  2  0  0  0  0
 41 67  1  0  0  0  0
 41 70  1  0  0  0  0
 41 79  2  0  0  0  0
 42 45  1  0  0  0  0
 43 52  1  0  0  0  0
 44 66  1  0  0  0  0
 45 47  1  0  0  0  0
 46 48  1  0  0  0  0
 46 49  1  0  0  0  0
 47 51  1  0  0  0  0
 48 53  1  0  0  0  0
 49 67  1  0  0  0  0
 50 53  1  0  0  0  0
 50 67  1  0  0  0  0
 51 71  1  0  0  0  0
 52 66  1  0  0  0  0
 53 65  1  0  0  0  0
 55 62  1  0  0  0  0
 56 63  1  0  0  0  0
 57 63  1  0  0  0  0
 58 63  1  0  0  0  0
 59 73  1  0  0  0  0
 60 81  1  0  0  0  0
 61 63  1  0  0  0  0
 61 72  1  0  0  0  0
 62 73  1  0  0  0  0
 64 65  1  0  0  0  0
M  CHG  1  73   1
M  ISO  4  41 100  60 101  70 100  81 101
M  END
> <Batch ID>
0126

> <Smiles>
CNC(C)C(=O)NC(C(=O)N1Cc2cc([101O:1][101CH2:1]C(=O)C=Cc3ccc([100NH:0][100C:0](=O)N4CCCC(n5nc(-c6ccc(Oc7ccc(F)cc7F)cc6)c(C(N)=O)c5N)C4)c(C)c3)ccc2CC1C(=O)NC1CCCc2ccccc21)C(C)(C)C

> <Shape>
0.349

> <Color>
0.141

> <Negative vol penalty>
0.000

$$$$

  -OEChem-04052302113D

 84 92  0     1  0  0  0  0  0999 V2000
  -27.1279  -36.1116   20.0127 C   0  0  0  0  0  0  0  0  0  0  0  0
  -27.5673  -34.7996   20.1577 C   0  0  0  0  0  0  0  0  0  0  0  0
  -24.7680   -8.5196   20.9057 C   0  0  0  0  0  0  0  0  0  0  0  0
  -23.3423  -10.4692   20.9631 C   0  0  0  0  0  0  0  0  0  0  0  0
  -29.9092  -20.1589   21.3981 C   0  0  0  0  0  0  0  0  0  0  0  0
  -26.0604  -36.5767   20.7794 C   0  0  0  0  0  0  0  0  0  0  0  0
  -26.9401  -33.9523   21.0704 C   0  0  0  0  0  0  0  0  0  0  0  0
  -26.0356  -29.3549   19.1490 C   0  0  0  0  0  0  0  0  0  0  0  0
  -29.8741  -18.8228   21.7968 C   0  0  0  0  0  0  0  0  0  0  0  0
  -23.6641   -7.7049   21.1569 C   0  0  0  0  0  0  0  0  0  0  0  0
  -22.2383   -9.6545   21.2143 C   0  0  0  0  0  0  0  0  0  0  0  0
  -27.1116  -28.4712   19.0791 C   0  0  0  0  0  0  0  0  0  0  0  0
  -21.2774   -5.1436   22.1405 C   0  0  0  0  0  0  0  0  0  0  0  0
  -21.4172   -4.1353   23.0941 C   0  0  0  0  0  0  0  0  0  0  0  0
  -26.3373  -27.3790   21.0857 C   0  0  0  0  0  0  0  0  0  0  0  0
  -29.1217  -18.1845   19.5914 C   0  0  0  0  0  0  0  0  0  0  0  0
  -21.9251   -5.7952   24.7746 C   0  0  0  0  0  0  0  0  0  0  0  0
  -24.6072   -9.9018   20.8088 C   0  0  0  0  0  0  0  0  0  0  0  0
  -29.5505  -20.5079   20.0960 C   0  0  0  0  0  0  0  0  0  0  0  0
  -26.2417  -11.1428   19.2937 C   0  0  0  0  0  0  0  0  0  0  0  0
  -25.4135  -35.7318   21.6950 C   0  0  0  0  0  0  0  0  0  0  0  0
  -25.1069  -29.2641   20.1958 C   0  0  0  0  0  0  0  0  0  0  0  0
  -25.8637  -34.4070   21.8511 C   0  0  0  0  0  0  0  0  0  0  0  0
  -25.2490  -28.2612   21.1653 C   0  0  0  0  0  0  0  0  0  0  0  0
  -29.1568  -19.5207   19.1927 C   0  0  0  0  0  0  0  0  0  0  0  0
  -29.4804  -17.8355   20.8935 C   0  0  0  0  0  0  0  0  0  0  0  0
  -22.3992   -8.2723   21.3112 C   0  0  0  0  0  0  0  0  0  0  0  0
  -27.2642  -27.4848   20.0491 C   0  0  0  0  0  0  0  0  0  0  0  0
  -21.4616   -6.4777   22.5038 C   0  0  0  0  0  0  0  0  0  0  0  0
  -21.7410   -4.4611   24.4112 C   0  0  0  0  0  0  0  0  0  0  0  0
  -21.7854   -6.8035   23.8209 C   0  0  0  0  0  0  0  0  0  0  0  0
  -25.7472  -10.7440   20.5499 C   0  0  0  0  0  0  0  0  0  0  0  0
  -27.3285  -11.9300   19.5866 C   0  0  0  0  0  0  0  0  0  0  0  0
  -29.5985  -21.9280   19.7053 C   0  0  0  0  0  0  0  0  0  0  0  0
  -28.8708  -22.8990   20.2744 C   0  0  0  0  0  0  0  0  0  0  0  0
  -25.7615  -10.8298   17.9795 C   0  0  0  0  0  0  0  0  0  0  0  0
  -28.9859  -24.3078   19.7975 C   0  0  0  0  0  0  0  0  0  0  0  0
  -24.1858  -31.1901   22.5507 C   0  0  0  0  0  0  0  0  0  0  0  0
  -21.9877  -28.8620   23.0709 C   0  0  0  0  0  0  0  0  0  0  0  0
  -21.1019  -25.5844   22.7256 C   0  0  0  0  0  0  0  0  0  0  0  0
  -29.7635  -15.9629   22.5546 C   0  0  0  0  0  0  0  0  0  0  0  0
  -24.2944  -36.2936   22.5357 C   0  0  0  0  0  0  0  0  0  0  0  0
  -23.9368  -30.2081   20.2421 C   0  0  0  0  0  0  0  0  0  0  0  0
  -24.2681  -28.1086   22.2980 C   0  0  0  0  0  0  0  0  0  0  0  0
  -23.4424  -35.2217   23.2105 C   0  0  0  0  0  0  0  0  0  0  0  0
  -29.7615  -12.6912   23.9595 C   0  0  0  0  0  0  0  0  0  0  0  0
  -24.3300  -34.1646   23.8598 C   0  0  0  0  0  0  0  0  0  0  0  0
  -28.7577  -11.9258   23.0943 C   0  0  0  0  0  0  0  0  0  0  0  0
  -29.3281  -14.1387   24.1849 C   0  0  0  0  0  0  0  0  0  0  0  0
  -28.0202  -14.1278   22.0973 C   0  0  0  0  0  0  0  0  0  0  0  0
  -25.1930  -33.4501   22.8127 C   0  0  1  0  0  0  0  0  0  0  0  0
  -23.3382  -30.3496   21.6382 C   0  0  1  0  0  0  0  0  0  0  0  0
  -28.4462  -12.6832   21.7886 C   0  0  2  0  0  0  0  0  0  0  0  0
  -27.3630  -20.4495   17.7075 C   0  0  0  0  0  0  0  0  0  0  0  0
  -19.2627  -23.9714   23.2850 C   0  0  0  0  0  0  0  0  0  0  0  0
  -22.9435  -28.7805   25.9674 C   0  0  0  0  0  0  0  0  0  0  0  0
  -21.7879  -26.5732   26.2135 C   0  0  0  0  0  0  0  0  0  0  0  0
  -20.4642  -28.6197   25.6821 C   0  0  0  0  0  0  0  0  0  0  0  0
  -20.5851  -25.0036   19.8700 C   0  0  0  0  0  0  0  0  0  0  0  0
  -28.7663  -19.8578   17.7897 C   0  0  0  0  0  0  0  0  0  0  0  0
  -28.1137  -25.3137   20.5187 C   0  0  0  0  0  0  0  0  0  1  0  0
  -21.9412  -27.6017   23.9006 C   0  0  1  0  0  0  0  0  0  0  0  0
  -19.8173  -24.9333   22.2458 C   0  0  2  0  0  0  0  0  0  0  0  0
  -21.8039  -27.8976   25.4208 C   0  0  0  0  0  0  0  0  0  0  0  0
  -26.4614  -11.2369   21.5653 N   0  0  0  0  0  0  0  0  0  0  0  0
  -27.4157  -11.9535   20.9474 N   0  0  0  0  0  0  0  0  0  0  0  0
  -23.1443  -29.0596   22.3034 N   0  0  0  0  0  0  0  0  0  0  0  0
  -29.0544  -14.7942   22.9042 N   0  0  0  0  0  0  0  0  0  0  0  0
  -28.2085  -12.5972   18.8102 N   0  0  0  0  0  0  0  0  0  0  0  0
  -24.6331  -10.0073   17.8587 N   0  0  0  0  0  0  0  0  0  0  0  0
  -29.4420  -16.4785   21.2995 N   0  0  0  0  0  0  0  0  0  0  0  0
  -24.4060  -32.4741   22.0899 N   0  0  0  0  0  0  0  0  0  0  0  0
  -20.8613  -26.7900   23.3499 N   0  0  0  0  0  0  0  0  0  0  0  0
  -20.0600  -24.1752   20.9859 N   0  3  0  0  0  0  0  0  0  0  0  0
  -26.3264  -11.2532   16.9426 O   0  0  0  0  0  0  0  0  0  0  0  0
  -29.7388  -24.6269   18.8814 O   0  0  0  0  0  0  0  0  0  0  0  0
  -24.6075  -30.7098   23.5963 O   0  0  0  0  0  0  0  0  0  0  0  0
  -21.0299  -29.6390   23.0972 O   0  0  0  0  0  0  0  0  0  0  0  0
  -22.2080  -25.0727   22.5662 O   0  0  0  0  0  0  0  0  0  0  0  0
  -30.6142  -16.4536   23.3013 O   0  0  0  0  0  0  0  0  0  0  0  0
  -21.3217   -7.4776   21.5561 O   0  0  0  0  0  0  0  0  0  0  0  0
  -28.3140  -26.6213   19.9835 O   0  0  0  0  0  0  0  0  0  1  0  0
  -21.8737   -3.4929   25.3272 F   0  0  0  0  0  0  0  0  0  0  0  0
  -21.9623   -8.0834   24.1762 F   0  0  0  0  0  0  0  0  0  0  0  0
  1  2  1  0  0  0  0
  1  6  2  0  0  0  0
  2  7  2  0  0  0  0
  3 10  2  0  0  0  0
  3 18  1  0  0  0  0
  4 11  1  0  0  0  0
  4 18  2  0  0  0  0
  5  9  2  0  0  0  0
  5 19  1  0  0  0  0
  6 21  1  0  0  0  0
  7 23  1  0  0  0  0
  8 12  2  0  0  0  0
  8 22  1  0  0  0  0
  9 26  1  0  0  0  0
 10 27  1  0  0  0  0
 11 27  2  0  0  0  0
 12 28  1  0  0  0  0
 13 14  2  0  0  0  0
 13 29  1  0  0  0  0
 14 30  1  0  0  0  0
 15 24  1  0  0  0  0
 15 28  2  0  0  0  0
 16 25  1  0  0  0  0
 16 26  2  0  0  0  0
 17 30  2  0  0  0  0
 17 31  1  0  0  0  0
 18 32  1  0  0  0  0
 19 25  2  0  0  0  0
 19 34  1  0  0  0  0
 20 32  1  0  0  0  0
 20 33  2  0  0  0  0
 20 36  1  0  0  0  0
 21 23  2  0  0  0  0
 21 42  1  0  0  0  0
 22 24  2  0  0  0  0
 22 43  1  0  0  0  0
 23 51  1  0  0  0  0
 24 44  1  0  0  0  0
 25 60  1  0  0  0  0
 26 71  1  0  0  0  0
 27 81  1  0  0  0  0
 28 82  1  0  0  0  0
 29 31  2  0  0  0  0
 29 81  1  0  0  0  0
 30 83  1  0  0  0  0
 31 84  1  0  0  0  0
 32 65  2  0  0  0  0
 33 66  1  0  0  0  0
 33 69  1  0  0  0  0
 34 35  2  0  0  0  0
 35 37  1  0  0  0  0
 36 70  1  0  0  0  0
 36 75  2  0  0  0  0
 37 61  1  0  0  0  0
 37 76  2  0  0  0  0
 38 52  1  0  0  0  0
 38 72  1  0  0  0  0
 38 77  2  0  0  0  0
 39 62  1  0  0  0  0
 39 67  1  0  0  0  0
 39 78  2  0  0  0  0
 40 63  1  0  0  0  0
 40 73  1  0  0  0  0
 40 79  2  0  0  0  0
 41 68  1  0  0  0  0
 41 71  1  0  0  0  0
 41 80  2  0  0  0  0
 42 45  1  0  0  0  0
 43 52  1  0  0  0  0
 44 67  1  0  0  0  0
 45 47  1  0  0  0  0
 46 48  1  0  0  0  0
 46 49  1  0  0  0  0
 47 51  1  0  0  0  0
 48 53  1  0  0  0  0
 49 68  1  0  0  0  0
 50 53  1  0  0  0  0
 50 68  1  0  0  0  0
 51 72  1  0  0  0  0
 52 67  1  0  0  0  0
 53 66  1  0  0  0  0
 54 60  1  0  0  0  0
 55 63  1  0  0  0  0
 56 64  1  0  0  0  0
 57 64  1  0  0  0  0
 58 64  1  0  0  0  0
 59 74  1  0  0  0  0
 61 82  1  0  0  0  0
 62 64  1  0  0  0  0
 62 73  1  0  0  0  0
 63 74  1  0  0  0  0
 65 66  1  0  0  0  0
M  CHG  1  74   1
M  ISO  4  41 100  61 101  71 100  82 101
M  END
> <Batch ID>
0126

> <Smiles>
CCc1cc([100NH:0][100C:0](=O)N2CCCC(n3nc(-c4ccc(Oc5ccc(F)cc5F)cc4)c(C(N)=O)c3N)C2)ccc1C=CC(=O)[101CH2:1][101O:1]c1ccc2c(c1)CN(C(=O)C(NC(=O)C(C)NC)C(C)(C)C)C(C(=O)NC1CCCc3ccccc31)C2

> <Shape>
0.326

> <Color>
0.101

> <Negative vol penalty>
0.000

$$$$

  -OEChem-04052302113D

 84 92  0     1  0  0  0  0  0999 V2000
  -20.6221  -21.3228   24.0588 C   0  0  0  0  0  0  0  0  0  0  0  0
  -22.0020  -21.3704   24.2292 C   0  0  0  0  0  0  0  0  0  0  0  0
  -25.1511  -14.7785   22.0154 C   0  0  0  0  0  0  0  0  0  0  0  0
  -26.8454  -14.8520   20.2946 C   0  0  0  0  0  0  0  0  0  0  0  0
  -20.0045  -22.1719   23.1414 C   0  0  0  0  0  0  0  0  0  0  0  0
  -22.7652  -22.2665   23.4816 C   0  0  0  0  0  0  0  0  0  0  0  0
  -28.6704  -26.2971   23.9282 C   0  0  0  0  0  0  0  0  0  0  0  0
  -25.0885  -13.3903   21.8945 C   0  0  0  0  0  0  0  0  0  0  0  0
  -26.7829  -13.4638   20.1737 C   0  0  0  0  0  0  0  0  0  0  0  0
  -29.8577  -26.5479   23.2418 C   0  0  0  0  0  0  0  0  0  0  0  0
  -23.6955  -11.1332   19.7993 C   0  0  0  0  0  0  0  0  0  0  0  0
  -22.4322  -10.5435   19.7559 C   0  0  0  0  0  0  0  0  0  0  0  0
  -28.6734  -28.0219   21.7439 C   0  0  0  0  0  0  0  0  0  0  0  0
  -27.4635  -25.0233   17.2774 C   0  0  0  0  0  0  0  0  0  0  0  0
  -29.6809  -25.9789   17.3618 C   0  0  0  0  0  0  0  0  0  0  0  0
  -22.9584   -9.2702   21.7406 C   0  0  0  0  0  0  0  0  0  0  0  0
  -26.0295  -15.5094   21.2154 C   0  0  0  0  0  0  0  0  0  0  0  0
  -26.9305  -17.6859   22.1944 C   0  0  0  0  0  0  0  0  0  0  0  0
  -20.7594  -23.0856   22.3891 C   0  0  0  0  0  0  0  0  0  0  0  0
  -27.4715  -26.8994   23.5202 C   0  0  0  0  0  0  0  0  0  0  0  0
  -22.1573  -23.1277   22.5523 C   0  0  0  0  0  0  0  0  0  0  0  0
  -27.4727  -27.7792   22.4283 C   0  0  0  0  0  0  0  0  0  0  0  0
  -29.0454  -24.2602   18.9364 C   0  0  0  0  0  0  0  0  0  0  0  0
  -27.7790  -24.1960   18.3553 C   0  0  0  0  0  0  0  0  0  0  0  0
  -25.9044  -12.7330   20.9737 C   0  0  0  0  0  0  0  0  0  0  0  0
  -29.8588  -27.4081   22.1477 C   0  0  0  0  0  0  0  0  0  0  0  0
  -24.5903  -10.7914   20.8134 C   0  0  0  0  0  0  0  0  0  0  0  0
  -29.9964  -25.1517   18.4397 C   0  0  0  0  0  0  0  0  0  0  0  0
  -22.0637   -9.6120   20.7265 C   0  0  0  0  0  0  0  0  0  0  0  0
  -28.4145  -25.9147   16.7806 C   0  0  0  0  0  0  0  0  0  0  0  0
  -24.2217   -9.8599   21.7840 C   0  0  0  0  0  0  0  0  0  0  0  0
  -26.0941  -16.9434   21.3394 C   0  0  0  0  0  0  0  0  0  0  0  0
  -26.6109  -18.9962   21.9345 C   0  0  0  0  0  0  0  0  0  0  0  0
  -27.9089  -17.2318   23.1390 C   0  0  0  0  0  0  0  0  0  0  0  0
  -24.6739  -25.8314   22.4543 C   0  0  0  0  0  0  0  0  0  0  0  0
  -23.8422  -28.9600   22.6600 C   0  0  0  0  0  0  0  0  0  0  0  0
  -24.8349  -32.2249   22.7029 C   0  0  0  0  0  0  0  0  0  0  0  0
  -25.4997  -23.1233   18.3659 C   0  0  0  0  0  0  0  0  0  0  0  0
  -20.0527  -23.9503   21.3756 C   0  0  0  0  0  0  0  0  0  0  0  0
  -26.2043  -26.6395   24.2876 C   0  0  0  0  0  0  0  0  0  0  0  0
  -26.2162  -28.4668   21.9626 C   0  0  0  0  0  0  0  0  0  0  0  0
  -20.8902  -25.1320   20.8934 C   0  0  0  0  0  0  0  0  0  0  0  0
  -22.7963  -20.9904   19.2711 C   0  0  0  0  0  0  0  0  0  0  0  0
  -22.3046  -24.6777   20.5470 C   0  0  0  0  0  0  0  0  0  0  0  0
  -23.4821  -19.8084   19.9602 C   0  0  0  0  0  0  0  0  0  0  0  0
  -23.6205  -21.5194   18.0987 C   0  0  0  0  0  0  0  0  0  0  0  0
  -25.7004  -20.6690   19.1086 C   0  0  0  0  0  0  0  0  0  0  0  0
  -23.0165  -24.1033   21.7778 C   0  0  1  0  0  0  0  0  0  0  0  0
  -24.9448  -26.9059   23.4690 C   0  0  1  0  0  0  0  0  0  0  0  0
  -24.9388  -20.1432   20.3363 C   0  0  2  0  0  0  0  0  0  0  0  0
  -30.2683  -22.1997   19.6748 C   0  0  0  0  0  0  0  0  0  0  0  0
  -23.9242  -34.5590   22.8437 C   0  0  0  0  0  0  0  0  0  0  0  0
  -22.9513  -28.7854   19.7470 C   0  0  0  0  0  0  0  0  0  0  0  0
  -22.9581  -31.2878   19.6676 C   0  0  0  0  0  0  0  0  0  0  0  0
  -21.4211  -30.0954   21.2291 C   0  0  0  0  0  0  0  0  0  0  0  0
  -26.3034  -32.7708   25.2138 C   0  0  0  0  0  0  0  0  0  0  0  0
  -29.3938  -23.3767   20.0926 C   0  0  0  0  0  0  0  0  0  0  0  0
  -32.7843  -26.6727   20.1593 C   0  0  0  0  0  0  0  0  0  0  0  0
  -31.9892  -26.6104   21.4540 C   0  0  0  0  0  0  0  0  0  1  0  0
  -31.8972  -26.4913   18.9376 C   0  0  0  0  0  0  0  0  0  0  0  0
  -23.8995  -30.1450   21.7265 C   0  0  1  0  0  0  0  0  0  0  0  0
  -24.4736  -33.3755   23.6249 C   0  0  2  0  0  0  0  0  0  0  0  0
  -22.8310  -30.0641   20.5999 C   0  0  0  0  0  0  0  0  0  0  0  0
  -25.3025  -17.7176   20.5924 N   0  0  0  0  0  0  0  0  0  0  0  0
  -25.6401  -18.9603   20.9772 N   0  0  0  0  0  0  0  0  0  0  0  0
  -25.0014  -28.1755   22.7417 N   0  0  0  0  0  0  0  0  0  0  0  0
  -24.9874  -21.8190   18.5308 N   0  0  0  0  0  0  0  0  0  0  0  0
  -27.0683  -20.1640   22.4339 N   0  0  0  0  0  0  0  0  0  0  0  0
  -28.1112  -15.8522   23.2803 N   0  0  0  0  0  0  0  0  0  0  0  0
  -26.7983  -23.2973   18.8433 N   0  0  0  0  0  0  0  0  0  0  0  0
  -23.4745  -25.1709   22.6408 N   0  0  0  0  0  0  0  0  0  0  0  0
  -23.7926  -31.3325   22.5672 N   0  0  0  0  0  0  0  0  0  0  0  0
  -25.6742  -33.8290   24.3824 N   0  3  0  0  0  0  0  0  0  0  0  0
  -28.5720  -18.0255   23.8488 O   0  0  0  0  0  0  0  0  0  0  0  0
  -25.4917  -25.6183   21.5670 O   0  0  0  0  0  0  0  0  0  0  0  0
  -22.8096  -28.7427   23.2987 O   0  0  0  0  0  0  0  0  0  0  0  0
  -25.9308  -32.1294   22.1548 O   0  0  0  0  0  0  0  0  0  0  0  0
  -24.8255  -24.0267   17.8646 O   0  0  0  0  0  0  0  0  0  0  0  0
  -25.8438  -11.3784   20.8556 O   0  0  0  0  0  0  0  0  0  0  0  0
  -31.0162  -27.6541   21.4756 O   0  0  0  0  0  0  0  0  0  1  0  0
  -31.2460  -25.2295   18.9975 O   0  0  0  0  0  0  0  0  0  0  0  0
  -20.8499   -9.0469   20.6855 F   0  0  0  0  0  0  0  0  0  0  0  0
  -28.1112  -26.7098   15.7461 F   0  0  0  0  0  0  0  0  0  0  0  0
  -25.0766   -9.5284   22.7613 F   0  0  0  0  0  0  0  0  0  0  0  0
  1  2  1  0  0  0  0
  1  5  2  0  0  0  0
  2  6  2  0  0  0  0
  3  8  2  0  0  0  0
  3 17  1  0  0  0  0
  4  9  1  0  0  0  0
  4 17  2  0  0  0  0
  5 19  1  0  0  0  0
  6 21  1  0  0  0  0
  7 10  2  0  0  0  0
  7 20  1  0  0  0  0
  8 25  1  0  0  0  0
  9 25  2  0  0  0  0
 10 26  1  0  0  0  0
 11 12  2  0  0  0  0
 11 27  1  0  0  0  0
 12 29  1  0  0  0  0
 13 22  1  0  0  0  0
 13 26  2  0  0  0  0
 14 24  2  0  0  0  0
 14 30  1  0  0  0  0
 15 28  1  0  0  0  0
 15 30  2  0  0  0  0
 16 29  2  0  0  0  0
 16 31  1  0  0  0  0
 17 32  1  0  0  0  0
 18 32  1  0  0  0  0
 18 33  2  0  0  0  0
 18 34  1  0  0  0  0
 19 21  2  0  0  0  0
 19 39  1  0  0  0  0
 20 22  2  0  0  0  0
 20 40  1  0  0  0  0
 21 48  1  0  0  0  0
 22 41  1  0  0  0  0
 23 24  1  0  0  0  0
 23 28  2  0  0  0  0
 23 57  1  0  0  0  0
 24 70  1  0  0  0  0
 25 79  1  0  0  0  0
 26 80  1  0  0  0  0
 27 31  2  0  0  0  0
 27 79  1  0  0  0  0
 28 81  1  0  0  0  0
 29 82  1  0  0  0  0
 30 83  1  0  0  0  0
 31 84  1  0  0  0  0
 32 64  2  0  0  0  0
 33 65  1  0  0  0  0
 33 68  1  0  0  0  0
 34 69  1  0  0  0  0
 34 74  2  0  0  0  0
 35 49  1  0  0  0  0
 35 71  1  0  0  0  0
 35 75  2  0  0  0  0
 36 61  1  0  0  0  0
 36 66  1  0  0  0  0
 36 76  2  0  0  0  0
 37 62  1  0  0  0  0
 37 72  1  0  0  0  0
 37 77  2  0  0  0  0
 38 67  1  0  0  0  0
 38 70  1  0  0  0  0
 38 78  2  0  0  0  0
 39 42  1  0  0  0  0
 40 49  1  0  0  0  0
 41 66  1  0  0  0  0
 42 44  1  0  0  0  0
 43 45  1  0  0  0  0
 43 46  1  0  0  0  0
 44 48  1  0  0  0  0
 45 50  1  0  0  0  0
 46 67  1  0  0  0  0
 47 50  1  0  0  0  0
 47 67  1  0  0  0  0
 48 71  1  0  0  0  0
 49 66  1  0  0  0  0
 50 65  1  0  0  0  0
 51 57  1  0  0  0  0
 52 62  1  0  0  0  0
 53 63  1  0  0  0  0
 54 63  1  0  0  0  0
 55 63  1  0  0  0  0
 56 73  1  0  0  0  0
 58 59  1  0  0  0  0
 58 60  1  0  0  0  0
 59 80  1  0  0  0  0
 60 81  1  0  0  0  0
 61 63  1  0  0  0  0
 61 72  1  0  0  0  0
 62 73  1  0  0  0  0
 64 65  1  0  0  0  0
M  CHG  1  73   1
M  ISO  4  38 100  59 101  70 100  80 101
M  END
> <Batch ID>
0126

> <Smiles>
CCc1c([100NH:0][100C:0](=O)N2CCCC(n3nc(-c4ccc(Oc5ccc(F)cc5F)cc4)c(C(N)=O)c3N)C2)cc(F)cc1OCC[101CH2:1][101O:1]c1ccc2c(c1)CN(C(=O)C(NC(=O)C(C)NC)C(C)(C)C)C(C(=O)NC1CCCc3ccccc31)C2

> <Shape>
0.204

> <Color>
0.067

> <Negative vol penalty>
0.000

$$$$

  -OEChem-04052302113D

 83 91  0     1  0  0  0  0  0999 V2000
  -32.1821  -24.7747   28.5686 C   0  0  0  0  0  0  0  0  0  0  0  0
  -32.5934  -23.7670   27.7021 C   0  0  0  0  0  0  0  0  0  0  0  0
  -23.0032   -9.9286   19.9271 C   0  0  0  0  0  0  0  0  0  0  0  0
  -23.7847   -9.8586   22.2122 C   0  0  0  0  0  0  0  0  0  0  0  0
  -31.1202  -25.6060   28.2151 C   0  0  0  0  0  0  0  0  0  0  0  0
  -31.9422  -23.5894   26.4819 C   0  0  0  0  0  0  0  0  0  0  0  0
  -35.1683  -22.8944   22.6409 C   0  0  0  0  0  0  0  0  0  0  0  0
  -22.2227   -8.7961   20.1593 C   0  0  0  0  0  0  0  0  0  0  0  0
  -23.0041   -8.7261   22.4444 C   0  0  0  0  0  0  0  0  0  0  0  0
  -35.7409  -21.6298   22.5111 C   0  0  0  0  0  0  0  0  0  0  0  0
  -19.2628   -8.0682   21.6229 C   0  0  0  0  0  0  0  0  0  0  0  0
  -17.9506   -8.0774   21.1502 C   0  0  0  0  0  0  0  0  0  0  0  0
  -34.1460  -21.0916   20.7832 C   0  0  0  0  0  0  0  0  0  0  0  0
  -30.0926  -17.2093   23.2207 C   0  0  0  0  0  0  0  0  0  0  0  0
  -32.1058  -18.0194   24.2826 C   0  0  0  0  0  0  0  0  0  0  0  0
  -32.2405  -16.3001   22.5906 C   0  0  0  0  0  0  0  0  0  0  0  0
  -18.4308   -6.1463   19.7800 C   0  0  0  0  0  0  0  0  0  0  0  0
  -23.7843  -10.4598   20.9536 C   0  0  0  0  0  0  0  0  0  0  0  0
  -24.2113  -12.9739   20.8855 C   0  0  0  0  0  0  0  0  0  0  0  0
  -30.4618  -25.4447   26.9858 C   0  0  0  0  0  0  0  0  0  0  0  0
  -34.0715  -23.2638   21.8490 C   0  0  0  0  0  0  0  0  0  0  0  0
  -30.8695  -24.4185   26.1122 C   0  0  0  0  0  0  0  0  0  0  0  0
  -33.5630  -22.3624   20.9030 C   0  0  0  0  0  0  0  0  0  0  0  0
  -30.7188  -18.0524   24.1387 C   0  0  0  0  0  0  0  0  0  0  0  0
  -30.8535  -16.3331   22.4467 C   0  0  0  0  0  0  0  0  0  0  0  0
  -22.2231   -8.1949   21.4180 C   0  0  0  0  0  0  0  0  0  0  0  0
  -35.2279  -20.7271   21.5842 C   0  0  0  0  0  0  0  0  0  0  0  0
  -20.1591   -7.0982   21.1741 C   0  0  0  0  0  0  0  0  0  0  0  0
  -32.8667  -17.1433   23.5086 C   0  0  0  0  0  0  0  0  0  0  0  0
  -17.5345   -7.1164   20.2288 C   0  0  0  0  0  0  0  0  0  0  0  0
  -19.7431   -6.1372   20.2527 C   0  0  0  0  0  0  0  0  0  0  0  0
  -24.5913  -11.6292   20.7141 C   0  0  0  0  0  0  0  0  0  0  0  0
  -25.3250  -13.6936   20.5276 C   0  0  0  0  0  0  0  0  0  0  0  0
  -37.4635  -16.6923   22.5657 C   0  0  0  0  0  0  0  0  0  0  0  0
  -22.9633  -13.5232   21.3286 C   0  0  0  0  0  0  0  0  0  0  0  0
  -36.3354  -17.4201   22.5604 C   0  0  0  0  0  0  0  0  0  0  0  0
  -31.0619  -24.1010   22.4360 C   0  0  0  0  0  0  0  0  0  0  0  0
  -31.0097  -24.6770   19.2441 C   0  0  0  0  0  0  0  0  0  0  0  0
  -32.3261  -24.0331   16.1620 C   0  0  0  0  0  0  0  0  0  0  0  0
  -30.8252  -14.5483   20.6691 C   0  0  0  0  0  0  0  0  0  0  0  0
  -29.2884  -26.3374   26.6681 C   0  0  0  0  0  0  0  0  0  0  0  0
  -33.4823  -24.6412   21.9824 C   0  0  0  0  0  0  0  0  0  0  0  0
  -32.3997  -22.7175   20.0147 C   0  0  0  0  0  0  0  0  0  0  0  0
  -28.8941  -26.3234   25.1934 C   0  0  0  0  0  0  0  0  0  0  0  0
  -29.6063  -12.2272   18.2600 C   0  0  0  0  0  0  0  0  0  0  0  0
  -28.8340  -24.8917   24.6705 C   0  0  0  0  0  0  0  0  0  0  0  0
  -28.1617  -11.9753   18.6978 C   0  0  0  0  0  0  0  0  0  0  0  0
  -30.5401  -12.3979   19.4569 C   0  0  0  0  0  0  0  0  0  0  0  0
  -28.6723  -13.1559   20.8732 C   0  0  0  0  0  0  0  0  0  0  0  0
  -30.2042  -24.2103   24.7690 C   0  0  1  0  0  0  0  0  0  0  0  0
  -32.0427  -24.7260   21.4846 C   0  0  1  0  0  0  0  0  0  0  0  0
  -27.6830  -13.0422   19.7019 C   0  0  2  0  0  0  0  0  0  0  0  0
  -29.9056  -18.9891   24.9665 C   0  0  0  0  0  0  0  0  0  0  0  0
  -32.0500  -24.6253   13.7391 C   0  0  0  0  0  0  0  0  0  0  0  0
  -28.5548  -22.8719   19.0852 C   0  0  0  0  0  0  0  0  0  0  0  0
  -28.9007  -22.7368   16.6092 C   0  0  0  0  0  0  0  0  0  0  0  0
  -28.4232  -24.9378   17.6819 C   0  0  0  0  0  0  0  0  0  0  0  0
  -35.0577  -25.1615   16.0068 C   0  0  0  0  0  0  0  0  0  0  0  0
  -36.3800  -18.9238   22.6216 C   0  0  0  0  0  0  0  0  0  1  0  0
  -34.9855  -16.7591   22.4993 C   0  0  0  0  0  0  0  0  0  0  0  0
  -30.6863  -23.8612   18.0157 C   0  0  1  0  0  0  0  0  0  0  0  0
  -32.7635  -24.9577   15.0403 C   0  0  2  0  0  0  0  0  0  0  0  0
  -29.1620  -23.5942   17.8659 C   0  0  0  0  0  0  0  0  0  0  0  0
  -25.8481  -11.4997   20.2809 N   0  0  0  0  0  0  0  0  0  0  0  0
  -26.2675  -12.7722   20.1769 N   0  0  0  0  0  0  0  0  0  0  0  0
  -31.8539  -24.0739   20.1872 N   0  0  0  0  0  0  0  0  0  0  0  0
  -30.0251  -13.4274   20.3624 N   0  0  0  0  0  0  0  0  0  0  0  0
  -25.5802  -15.0184   20.4816 N   0  0  0  0  0  0  0  0  0  0  0  0
  -21.9241  -12.6417   21.6562 N   0  0  0  0  0  0  0  0  0  0  0  0
  -30.2177  -15.4764   21.5142 N   0  0  0  0  0  0  0  0  0  0  0  0
  -31.0700  -24.6595   23.6999 N   0  0  0  0  0  0  0  0  0  0  0  0
  -31.2828  -24.5683   16.8875 N   0  0  0  0  0  0  0  0  0  0  0  0
  -34.2318  -24.8396   14.8146 N   0  3  0  0  0  0  0  0  0  0  0  0
  -22.7699  -14.7595   21.4154 O   0  0  0  0  0  0  0  0  0  0  0  0
  -30.3493  -23.1812   22.0513 O   0  0  0  0  0  0  0  0  0  0  0  0
  -30.5365  -25.8104   19.3592 O   0  0  0  0  0  0  0  0  0  0  0  0
  -32.8544  -22.9433   16.3712 O   0  0  0  0  0  0  0  0  0  0  0  0
  -31.9549  -14.6889   20.1937 O   0  0  0  0  0  0  0  0  0  0  0  0
  -21.4614   -7.0900   21.6450 O   0  0  0  0  0  0  0  0  0  0  0  0
  -35.7844  -19.4920   21.4560 O   0  0  0  0  0  0  0  0  0  1  0  0
  -34.2295  -17.1106   23.6504 O   0  0  0  0  0  0  0  0  0  0  0  0
  -16.2739   -7.1243   19.7761 F   0  0  0  0  0  0  0  0  0  0  0  0
  -20.5992   -5.2021   19.8188 F   0  0  0  0  0  0  0  0  0  0  0  0
  1  2  1  0  0  0  0
  1  5  2  0  0  0  0
  2  6  2  0  0  0  0
  3  8  2  0  0  0  0
  3 18  1  0  0  0  0
  4  9  1  0  0  0  0
  4 18  2  0  0  0  0
  5 20  1  0  0  0  0
  6 22  1  0  0  0  0
  7 10  2  0  0  0  0
  7 21  1  0  0  0  0
  8 26  1  0  0  0  0
  9 26  2  0  0  0  0
 10 27  1  0  0  0  0
 11 12  2  0  0  0  0
 11 28  1  0  0  0  0
 12 30  1  0  0  0  0
 13 23  1  0  0  0  0
 13 27  2  0  0  0  0
 14 24  1  0  0  0  0
 14 25  2  0  0  0  0
 15 24  2  0  0  0  0
 15 29  1  0  0  0  0
 16 25  1  0  0  0  0
 16 29  2  0  0  0  0
 17 30  2  0  0  0  0
 17 31  1  0  0  0  0
 18 32  1  0  0  0  0
 19 32  1  0  0  0  0
 19 33  2  0  0  0  0
 19 35  1  0  0  0  0
 20 22  2  0  0  0  0
 20 41  1  0  0  0  0
 21 23  2  0  0  0  0
 21 42  1  0  0  0  0
 22 50  1  0  0  0  0
 23 43  1  0  0  0  0
 24 53  1  0  0  0  0
 25 70  1  0  0  0  0
 26 79  1  0  0  0  0
 27 80  1  0  0  0  0
 28 31  2  0  0  0  0
 28 79  1  0  0  0  0
 29 81  1  0  0  0  0
 30 82  1  0  0  0  0
 31 83  1  0  0  0  0
 32 64  2  0  0  0  0
 33 65  1  0  0  0  0
 33 68  1  0  0  0  0
 34 36  2  0  0  0  0
 35 69  1  0  0  0  0
 35 74  2  0  0  0  0
 36 59  1  0  0  0  0
 36 60  1  0  0  0  0
 37 51  1  0  0  0  0
 37 71  1  0  0  0  0
 37 75  2  0  0  0  0
 38 61  1  0  0  0  0
 38 66  1  0  0  0  0
 38 76  2  0  0  0  0
 39 62  1  0  0  0  0
 39 72  1  0  0  0  0
 39 77  2  0  0  0  0
 40 67  1  0  0  0  0
 40 70  1  0  0  0  0
 40 78  2  0  0  0  0
 41 44  1  0  0  0  0
 42 51  1  0  0  0  0
 43 66  1  0  0  0  0
 44 46  1  0  0  0  0
 45 47  1  0  0  0  0
 45 48  1  0  0  0  0
 46 50  1  0  0  0  0
 47 52  1  0  0  0  0
 48 67  1  0  0  0  0
 49 52  1  0  0  0  0
 49 67  1  0  0  0  0
 50 71  1  0  0  0  0
 51 66  1  0  0  0  0
 52 65  1  0  0  0  0
 54 62  1  0  0  0  0
 55 63  1  0  0  0  0
 56 63  1  0  0  0  0
 57 63  1  0  0  0  0
 58 73  1  0  0  0  0
 59 80  1  0  0  0  0
 60 81  1  0  0  0  0
 61 63  1  0  0  0  0
 61 72  1  0  0  0  0
 62 73  1  0  0  0  0
 64 65  1  0  0  0  0
M  CHG  1  73   1
M  ISO  4  40 100  59 101  70 100  80 101
M  END
> <Batch ID>
0126

> <Smiles>
C=C(COc1cc(C)cc([100NH:0][100C:0](=O)N2CCCC(n3nc(-c4ccc(Oc5ccc(F)cc5F)cc4)c(C(N)=O)c3N)C2)c1)[101CH2:1][101O:1]c1ccc2c(c1)CN(C(=O)C(NC(=O)C(C)NC)C(C)(C)C)C(C(=O)NC1CCCc3ccccc31)C2

> <Shape>
0.191

> <Color>
0.206

> <Negative vol penalty>
0.000

$$$$

  -OEChem-04052302113D

 85 93  0     1  0  0  0  0  0999 V2000
  -17.0642  -26.7529   22.1745 C   0  0  0  0  0  0  0  0  0  0  0  0
  -18.3164  -26.1547   22.0767 C   0  0  0  0  0  0  0  0  0  0  0  0
  -24.4092   -9.5664   22.3711 C   0  0  0  0  0  0  0  0  0  0  0  0
  -23.5955  -10.3414   20.2324 C   0  0  0  0  0  0  0  0  0  0  0  0
  -16.9212  -28.1147   21.9119 C   0  0  0  0  0  0  0  0  0  0  0  0
  -19.4261  -26.9177   21.7151 C   0  0  0  0  0  0  0  0  0  0  0  0
  -25.1761  -26.2268   23.7067 C   0  0  0  0  0  0  0  0  0  0  0  0
  -23.4320   -8.5712   22.3823 C   0  0  0  0  0  0  0  0  0  0  0  0
  -22.6183   -9.3462   20.2435 C   0  0  0  0  0  0  0  0  0  0  0  0
  -26.2911  -25.5985   23.1538 C   0  0  0  0  0  0  0  0  0  0  0  0
  -22.9462   -5.5410   20.9629 C   0  0  0  0  0  0  0  0  0  0  0  0
  -23.3360   -4.2538   21.3331 C   0  0  0  0  0  0  0  0  0  0  0  0
  -27.0422  -27.7167   22.2771 C   0  0  0  0  0  0  0  0  0  0  0  0
  -30.5731  -20.0608   17.7927 C   0  0  0  0  0  0  0  0  0  0  0  0
  -29.4238  -17.9754   18.1312 C   0  0  0  0  0  0  0  0  0  0  0  0
  -21.7719   -4.3095   23.1736 C   0  0  0  0  0  0  0  0  0  0  0  0
  -24.4910  -10.4516   21.2962 C   0  0  0  0  0  0  0  0  0  0  0  0
  -26.8014  -11.3883   20.7556 C   0  0  0  0  0  0  0  0  0  0  0  0
  -18.0313  -28.8968   21.5563 C   0  0  0  0  0  0  0  0  0  0  0  0
  -24.9797  -27.6051   23.5395 C   0  0  0  0  0  0  0  0  0  0  0  0
  -19.2975  -28.2910   21.4462 C   0  0  0  0  0  0  0  0  0  0  0  0
  -25.9252  -28.3604   22.8311 C   0  0  0  0  0  0  0  0  0  0  0  0
  -30.3469  -18.7390   17.4254 C   0  0  0  0  0  0  0  0  0  0  0  0
  -22.5365   -8.4611   21.3185 C   0  0  0  0  0  0  0  0  0  0  0  0
  -27.2229  -26.3430   22.4364 C   0  0  0  0  0  0  0  0  0  0  0  0
  -21.9693   -6.2124   21.6982 C   0  0  0  0  0  0  0  0  0  0  0  0
  -22.7488   -3.6381   22.4383 C   0  0  0  0  0  0  0  0  0  0  0  0
  -21.3821   -5.5966   22.8035 C   0  0  0  0  0  0  0  0  0  0  0  0
  -25.4999  -11.4802   21.2843 C   0  0  0  0  0  0  0  0  0  0  0  0
  -29.8563  -20.5679   18.8646 C   0  0  0  0  0  0  0  0  0  0  0  0
  -28.7586  -18.5757   19.1880 C   0  0  0  0  0  0  0  0  0  0  0  0
  -27.3556  -12.6227   20.9912 C   0  0  0  0  0  0  0  0  0  0  0  0
  -29.0311  -22.6354   19.8578 C   0  0  0  0  0  0  0  0  0  0  0  0
  -27.4513  -10.2857   20.1094 C   0  0  0  0  0  0  0  0  0  0  0  0
  -30.0606  -21.9740   19.2961 C   0  0  0  0  0  0  0  0  0  0  0  0
  -29.0804  -24.0484   20.3412 C   0  0  0  0  0  0  0  0  0  0  0  0
  -22.7474  -29.4024   22.1646 C   0  0  0  0  0  0  0  0  0  0  0  0
  -24.4546  -31.8332   23.4679 C   0  0  0  0  0  0  0  0  0  0  0  0
  -27.4462  -32.9554   24.6670 C   0  0  0  0  0  0  0  0  0  0  0  0
  -27.0441  -18.1820   20.9913 C   0  0  0  0  0  0  0  0  0  0  0  0
  -17.8192  -30.3552   21.2358 C   0  0  0  0  0  0  0  0  0  0  0  0
  -23.7856  -28.2724   24.1649 C   0  0  0  0  0  0  0  0  0  0  0  0
  -25.7711  -29.8465   22.6403 C   0  0  0  0  0  0  0  0  0  0  0  0
  -19.1099  -31.1702   21.2237 C   0  0  0  0  0  0  0  0  0  0  0  0
  -25.7156  -16.4834   23.8245 C   0  0  0  0  0  0  0  0  0  0  0  0
  -20.1943  -30.4410   20.4368 C   0  0  0  0  0  0  0  0  0  0  0  0
  -25.6482  -15.0227   23.3727 C   0  0  0  0  0  0  0  0  0  0  0  0
  -25.3822  -17.4453   22.6855 C   0  0  0  0  0  0  0  0  0  0  0  0
  -26.0986  -15.7901   21.0073 C   0  0  0  0  0  0  0  0  0  0  0  0
  -20.5295  -29.0903   21.0810 C   0  0  1  0  0  0  0  0  0  0  0  0
  -23.4199  -29.5931   23.4946 C   0  0  1  0  0  0  0  0  0  0  0  0
  -26.4901  -14.7859   22.1036 C   0  0  2  0  0  0  0  0  0  0  0  0
  -31.4331  -22.5400   19.0514 C   0  0  0  0  0  0  0  0  0  0  0  0
  -32.4024  -17.4913   16.7149 C   0  0  0  0  0  0  0  0  0  0  0  0
  -28.5421  -34.9984   25.6275 C   0  0  0  0  0  0  0  0  0  0  0  0
  -24.5776  -33.0737   20.6829 C   0  0  0  0  0  0  0  0  0  0  0  0
  -26.4306  -34.5474   21.4972 C   0  0  0  0  0  0  0  0  0  0  0  0
  -24.1672  -34.7044   22.5341 C   0  0  0  0  0  0  0  0  0  0  0  0
  -28.0665  -31.5702   27.2077 C   0  0  0  0  0  0  0  0  0  0  0  0
  -31.0918  -18.1424   16.2799 C   0  0  0  0  0  0  0  0  0  0  0  0
  -28.1639  -24.3678   21.5041 C   0  0  0  0  0  0  0  0  0  1  0  0
  -25.6141  -32.6879   23.0159 C   0  0  1  0  0  0  0  0  0  0  0  0
  -27.8050  -33.7048   25.9375 C   0  0  2  0  0  0  0  0  0  0  0  0
  -25.1995  -33.7250   21.9343 C   0  0  0  0  0  0  0  0  0  0  0  0
  -25.2426  -12.6782   21.8158 N   0  0  0  0  0  0  0  0  0  0  0  0
  -28.9516  -19.8568   19.5742 N   0  0  0  0  0  0  0  0  0  0  0  0
  -26.3901  -13.3505   21.6223 N   0  0  0  0  0  0  0  0  0  0  0  0
  -24.5836  -30.4519   23.2654 N   0  0  0  0  0  0  0  0  0  0  0  0
  -26.2216  -17.1642   21.5188 N   0  0  0  0  0  0  0  0  0  0  0  0
  -28.5698  -13.1458   20.7180 N   0  0  0  0  0  0  0  0  0  0  0  0
  -26.7374   -9.0903   19.9486 N   0  0  0  0  0  0  0  0  0  0  0  0
  -27.8216  -17.7888   19.9025 N   0  0  0  0  0  0  0  0  0  0  0  0
  -21.3732  -29.2793   22.2415 N   0  0  0  0  0  0  0  0  0  0  0  0
  -26.1812  -33.2782   24.2236 N   0  0  0  0  0  0  0  0  0  0  0  0
  -28.6762  -32.8640   26.8064 N   0  3  0  0  0  0  0  0  0  0  0  0
  -28.6356  -10.3530   19.7016 O   0  0  0  0  0  0  0  0  0  0  0  0
  -29.7979  -24.8970   19.8206 O   0  0  0  0  0  0  0  0  0  0  0  0
  -23.4249  -29.3707   21.1440 O   0  0  0  0  0  0  0  0  0  0  0  0
  -23.4738  -32.3708   23.9881 O   0  0  0  0  0  0  0  0  0  0  0  0
  -28.2131  -32.1657   24.1204 O   0  0  0  0  0  0  0  0  0  0  0  0
  -27.0781  -19.3111   21.4873 O   0  0  0  0  0  0  0  0  0  0  0  0
  -21.5829   -7.4899   21.3290 O   0  0  0  0  0  0  0  0  0  0  0  0
  -28.3119  -25.7322   21.8951 O   0  0  0  0  0  0  0  0  0  1  0  0
  -23.1221   -2.4014   22.7927 F   0  0  0  0  0  0  0  0  0  0  0  0
  -20.4423   -6.2362   23.5130 F   0  0  0  0  0  0  0  0  0  0  0  0
  1  2  1  0  0  0  0
  1  5  2  0  0  0  0
  2  6  2  0  0  0  0
  3  8  2  0  0  0  0
  3 17  1  0  0  0  0
  4  9  1  0  0  0  0
  4 17  2  0  0  0  0
  5 19  1  0  0  0  0
  6 21  1  0  0  0  0
  7 10  2  0  0  0  0
  7 20  1  0  0  0  0
  8 24  1  0  0  0  0
  9 24  2  0  0  0  0
 10 25  1  0  0  0  0
 11 12  2  0  0  0  0
 11 26  1  0  0  0  0
 12 27  1  0  0  0  0
 13 22  1  0  0  0  0
 13 25  2  0  0  0  0
 14 23  2  0  0  0  0
 14 30  1  0  0  0  0
 15 23  1  0  0  0  0
 15 31  2  0  0  0  0
 16 27  2  0  0  0  0
 16 28  1  0  0  0  0
 17 29  1  0  0  0  0
 18 29  1  0  0  0  0
 18 32  2  0  0  0  0
 18 34  1  0  0  0  0
 19 21  2  0  0  0  0
 19 41  1  0  0  0  0
 20 22  2  0  0  0  0
 20 42  1  0  0  0  0
 21 50  1  0  0  0  0
 22 43  1  0  0  0  0
 23 60  1  0  0  0  0
 24 82  1  0  0  0  0
 25 83  1  0  0  0  0
 26 28  2  0  0  0  0
 26 82  1  0  0  0  0
 27 84  1  0  0  0  0
 28 85  1  0  0  0  0
 29 65  2  0  0  0  0
 30 35  1  0  0  0  0
 30 66  2  0  0  0  0
 31 66  1  0  0  0  0
 31 72  1  0  0  0  0
 32 67  1  0  0  0  0
 32 70  1  0  0  0  0
 33 35  2  0  0  0  0
 33 36  1  0  0  0  0
 34 71  1  0  0  0  0
 34 76  2  0  0  0  0
 35 53  1  0  0  0  0
 36 61  1  0  0  0  0
 36 77  2  0  0  0  0
 37 51  1  0  0  0  0
 37 73  1  0  0  0  0
 37 78  2  0  0  0  0
 38 62  1  0  0  0  0
 38 68  1  0  0  0  0
 38 79  2  0  0  0  0
 39 63  1  0  0  0  0
 39 74  1  0  0  0  0
 39 80  2  0  0  0  0
 40 69  1  0  0  0  0
 40 72  1  0  0  0  0
 40 81  2  0  0  0  0
 41 44  1  0  0  0  0
 42 51  1  0  0  0  0
 43 68  1  0  0  0  0
 44 46  1  0  0  0  0
 45 47  1  0  0  0  0
 45 48  1  0  0  0  0
 46 50  1  0  0  0  0
 47 52  1  0  0  0  0
 48 69  1  0  0  0  0
 49 52  1  0  0  0  0
 49 69  1  0  0  0  0
 50 73  1  0  0  0  0
 51 68  1  0  0  0  0
 52 67  1  0  0  0  0
 54 60  1  0  0  0  0
 55 63  1  0  0  0  0
 56 64  1  0  0  0  0
 57 64  1  0  0  0  0
 58 64  1  0  0  0  0
 59 75  1  0  0  0  0
 61 83  1  0  0  0  0
 62 64  1  0  0  0  0
 62 74  1  0  0  0  0
 63 75  1  0  0  0  0
 65 67  1  0  0  0  0
M  CHG  1  75   1
M  ISO  4  40 100  61 101  72 100  83 101
M  END
> <Batch ID>
0126

> <Smiles>
CCc1cc([100NH:0][100C:0](=O)N2CCCC(n3nc(-c4ccc(Oc5ccc(F)cc5F)cc4)c(C(N)=O)c3N)C2)nc(C(C)=CC(=O)[101CH2:1][101O:1]c2ccc3c(c2)CN(C(=O)C(NC(=O)C(C)NC)C(C)(C)C)C(C(=O)NC2CCCc4ccccc42)C3)c1

> <Shape>
0.298

> <Color>
0.098

> <Negative vol penalty>
0.000

$$$$

  -OEChem-04052302113D

 83 91  0     1  0  0  0  0  0999 V2000
  -19.2810  -23.6300   23.6399 C   0  0  0  0  0  0  0  0  0  0  0  0
  -20.4844  -23.7420   22.9509 C   0  0  0  0  0  0  0  0  0  0  0  0
  -24.6950   -8.9195   21.3284 C   0  0  0  0  0  0  0  0  0  0  0  0
  -23.2676  -10.3472   20.0014 C   0  0  0  0  0  0  0  0  0  0  0  0
  -29.0631  -19.8670   15.9738 C   0  0  0  0  0  0  0  0  0  0  0  0
  -18.4779  -24.7545   23.8251 C   0  0  0  0  0  0  0  0  0  0  0  0
  -20.8849  -24.9785   22.4458 C   0  0  0  0  0  0  0  0  0  0  0  0
  -25.7676  -25.9617   23.3609 C   0  0  0  0  0  0  0  0  0  0  0  0
  -29.0329  -18.5225   15.6037 C   0  0  0  0  0  0  0  0  0  0  0  0
  -23.5996   -8.1143   21.6405 C   0  0  0  0  0  0  0  0  0  0  0  0
  -22.1722   -9.5421   20.3134 C   0  0  0  0  0  0  0  0  0  0  0  0
  -26.7074  -25.3325   22.5457 C   0  0  0  0  0  0  0  0  0  0  0  0
  -20.9657   -8.2038   23.7569 C   0  0  0  0  0  0  0  0  0  0  0  0
  -20.8115   -7.8071   25.0851 C   0  0  0  0  0  0  0  0  0  0  0  0
  -28.8439  -19.2332   18.2948 C   0  0  0  0  0  0  0  0  0  0  0  0
  -26.9258  -27.3538   21.2474 C   0  0  0  0  0  0  0  0  0  0  0  0
  -20.9565   -5.4917   24.4104 C   0  0  0  0  0  0  0  0  0  0  0  0
  -24.5290  -10.0360   20.5089 C   0  0  0  0  0  0  0  0  0  0  0  0
  -28.9686  -20.2224   17.3193 C   0  0  0  0  0  0  0  0  0  0  0  0
  -26.5353  -10.7272   19.0931 C   0  0  0  0  0  0  0  0  0  0  0  0
  -18.8733  -26.0073   23.3305 C   0  0  0  0  0  0  0  0  0  0  0  0
  -25.3911  -27.2906   23.1183 C   0  0  0  0  0  0  0  0  0  0  0  0
  -20.0856  -26.1206   22.6235 C   0  0  0  0  0  0  0  0  0  0  0  0
  -25.9829  -27.9985   22.0625 C   0  0  0  0  0  0  0  0  0  0  0  0
  -28.9082  -17.5333   16.5792 C   0  0  0  0  0  0  0  0  0  0  0  0
  -28.8137  -17.8886   17.9248 C   0  0  0  0  0  0  0  0  0  0  0  0
  -22.3382   -8.4256   21.1330 C   0  0  0  0  0  0  0  0  0  0  0  0
  -27.2846  -26.0276   21.4870 C   0  0  0  0  0  0  0  0  0  0  0  0
  -21.1153   -7.2445   22.7553 C   0  0  0  0  0  0  0  0  0  0  0  0
  -20.8069   -6.4511   25.4120 C   0  0  0  0  0  0  0  0  0  0  0  0
  -21.1107   -5.8885   23.0821 C   0  0  0  0  0  0  0  0  0  0  0  0
  -25.6601  -10.8684   20.1866 C   0  0  0  0  0  0  0  0  0  0  0  0
  -27.4320  -11.7578   19.2357 C   0  0  0  0  0  0  0  0  0  0  0  0
  -29.0012  -21.6432   17.7086 C   0  0  0  0  0  0  0  0  0  0  0  0
  -28.5481  -22.1234   18.8751 C   0  0  0  0  0  0  0  0  0  0  0  0
  -26.5375   -9.7519   18.0422 C   0  0  0  0  0  0  0  0  0  0  0  0
  -28.6181  -23.5843   19.1692 C   0  0  0  0  0  0  0  0  0  0  0  0
  -22.6698  -28.7485   22.3615 C   0  0  0  0  0  0  0  0  0  0  0  0
  -24.4487  -31.4311   22.7638 C   0  0  0  0  0  0  0  0  0  0  0  0
  -27.5374  -32.8822   22.7908 C   0  0  0  0  0  0  0  0  0  0  0  0
  -28.5838  -17.0992   20.3061 C   0  0  0  0  0  0  0  0  0  0  0  0
  -17.9492  -27.1850   23.5143 C   0  0  0  0  0  0  0  0  0  0  0  0
  -24.3956  -27.9635   24.0232 C   0  0  0  0  0  0  0  0  0  0  0  0
  -25.6280  -29.4332   21.7723 C   0  0  0  0  0  0  0  0  0  0  0  0
  -18.6246  -28.5326   23.2732 C   0  0  0  0  0  0  0  0  0  0  0  0
  -28.2202  -14.9267   23.1034 C   0  0  0  0  0  0  0  0  0  0  0  0
  -19.4481  -28.4949   21.9897 C   0  0  0  0  0  0  0  0  0  0  0  0
  -27.5937  -13.6656   22.5040 C   0  0  0  0  0  0  0  0  0  0  0  0
  -27.6869  -16.1952   22.4399 C   0  0  0  0  0  0  0  0  0  0  0  0
  -27.1608  -14.9578   20.3756 C   0  0  0  0  0  0  0  0  0  0  0  0
  -20.5662  -27.4495   22.0821 C   0  0  1  0  0  0  0  0  0  0  0  0
  -23.7060  -29.1572   23.3699 C   0  0  1  0  0  0  0  0  0  0  0  0
  -27.7152  -13.6516   20.9675 C   0  0  2  0  0  0  0  0  0  0  0  0
  -28.8773  -16.1010   16.1538 C   0  0  0  0  0  0  0  0  0  0  0  0
  -28.6700  -35.0982   23.1130 C   0  0  0  0  0  0  0  0  0  0  0  0
  -23.5587  -32.2889   19.9741 C   0  0  0  0  0  0  0  0  0  0  0  0
  -25.4163  -33.9674   19.9735 C   0  0  0  0  0  0  0  0  0  0  0  0
  -23.5937  -34.1273   21.6692 C   0  0  0  0  0  0  0  0  0  0  0  0
  -29.0657  -31.8927   25.1240 C   0  0  0  0  0  0  0  0  0  0  0  0
  -28.0753  -24.0045   20.5188 C   0  0  0  0  0  0  0  0  0  1  0  0
  -25.3135  -32.2847   21.8680 C   0  0  1  0  0  0  0  0  0  0  0  0
  -28.2027  -33.8166   23.7851 C   0  0  2  0  0  0  0  0  0  0  0  0
  -24.4760  -33.1394   20.8752 C   0  0  0  0  0  0  0  0  0  0  0  0
  -25.9727  -11.9066   20.9666 N   0  0  0  0  0  0  0  0  0  0  0  0
  -27.0544  -12.4272   20.3624 N   0  0  0  0  0  0  0  0  0  0  0  0
  -24.6449  -30.0453   22.6815 N   0  0  0  0  0  0  0  0  0  0  0  0
  -27.8389  -16.1123   20.9856 N   0  0  0  0  0  0  0  0  0  0  0  0
  -28.4989  -12.1475   18.5061 N   0  0  0  0  0  0  0  0  0  0  0  0
  -25.5448   -8.7625   18.0469 N   0  0  0  0  0  0  0  0  0  0  0  0
  -28.6871  -16.8980   18.9300 N   0  0  0  0  0  0  0  0  0  0  0  0
  -21.6647  -27.9534   22.8782 N   0  0  0  0  0  0  0  0  0  0  0  0
  -26.1714  -33.0657   22.7525 N   0  0  0  0  0  0  0  0  0  0  0  0
  -29.3839  -33.1547   24.4076 N   0  3  0  0  0  0  0  0  0  0  0  0
  -27.4041   -9.7477   17.1353 O   0  0  0  0  0  0  0  0  0  0  0  0
  -29.0856  -24.3893   18.3682 O   0  0  0  0  0  0  0  0  0  0  0  0
  -22.7737  -29.1277   21.2008 O   0  0  0  0  0  0  0  0  0  0  0  0
  -23.6342  -31.9743   23.5142 O   0  0  0  0  0  0  0  0  0  0  0  0
  -28.1670  -32.0732   22.1128 O   0  0  0  0  0  0  0  0  0  0  0  0
  -29.1156  -18.0378   20.9046 O   0  0  0  0  0  0  0  0  0  0  0  0
  -21.2691   -7.6400   21.4371 O   0  0  0  0  0  0  0  0  0  0  0  0
  -28.2017  -25.4156   20.6894 O   0  0  0  0  0  0  0  0  0  1  0  0
  -20.6603   -6.0703   26.6878 F   0  0  0  0  0  0  0  0  0  0  0  0
  -21.2552   -4.9623   22.1244 F   0  0  0  0  0  0  0  0  0  0  0  0
  1  2  1  0  0  0  0
  1  6  2  0  0  0  0
  2  7  2  0  0  0  0
  3 10  2  0  0  0  0
  3 18  1  0  0  0  0
  4 11  1  0  0  0  0
  4 18  2  0  0  0  0
  5  9  2  0  0  0  0
  5 19  1  0  0  0  0
  6 21  1  0  0  0  0
  7 23  1  0  0  0  0
  8 12  2  0  0  0  0
  8 22  1  0  0  0  0
  9 25  1  0  0  0  0
 10 27  1  0  0  0  0
 11 27  2  0  0  0  0
 12 28  1  0  0  0  0
 13 14  2  0  0  0  0
 13 29  1  0  0  0  0
 14 30  1  0  0  0  0
 15 19  2  0  0  0  0
 15 26  1  0  0  0  0
 16 24  1  0  0  0  0
 16 28  2  0  0  0  0
 17 30  2  0  0  0  0
 17 31  1  0  0  0  0
 18 32  1  0  0  0  0
 19 34  1  0  0  0  0
 20 32  1  0  0  0  0
 20 33  2  0  0  0  0
 20 36  1  0  0  0  0
 21 23  2  0  0  0  0
 21 42  1  0  0  0  0
 22 24  2  0  0  0  0
 22 43  1  0  0  0  0
 23 51  1  0  0  0  0
 24 44  1  0  0  0  0
 25 26  2  0  0  0  0
 25 54  1  0  0  0  0
 26 70  1  0  0  0  0
 27 80  1  0  0  0  0
 28 81  1  0  0  0  0
 29 31  2  0  0  0  0
 29 80  1  0  0  0  0
 30 82  1  0  0  0  0
 31 83  1  0  0  0  0
 32 64  2  0  0  0  0
 33 65  1  0  0  0  0
 33 68  1  0  0  0  0
 34 35  2  0  0  0  0
 35 37  1  0  0  0  0
 36 69  1  0  0  0  0
 36 74  2  0  0  0  0
 37 60  1  0  0  0  0
 37 75  2  0  0  0  0
 38 52  1  0  0  0  0
 38 71  1  0  0  0  0
 38 76  2  0  0  0  0
 39 61  1  0  0  0  0
 39 66  1  0  0  0  0
 39 77  2  0  0  0  0
 40 62  1  0  0  0  0
 40 72  1  0  0  0  0
 40 78  2  0  0  0  0
 41 67  1  0  0  0  0
 41 70  1  0  0  0  0
 41 79  2  0  0  0  0
 42 45  1  0  0  0  0
 43 52  1  0  0  0  0
 44 66  1  0  0  0  0
 45 47  1  0  0  0  0
 46 48  1  0  0  0  0
 46 49  1  0  0  0  0
 47 51  1  0  0  0  0
 48 53  1  0  0  0  0
 49 67  1  0  0  0  0
 50 53  1  0  0  0  0
 50 67  1  0  0  0  0
 51 71  1  0  0  0  0
 52 66  1  0  0  0  0
 53 65  1  0  0  0  0
 55 62  1  0  0  0  0
 56 63  1  0  0  0  0
 57 63  1  0  0  0  0
 58 63  1  0  0  0  0
 59 73  1  0  0  0  0
 60 81  1  0  0  0  0
 61 63  1  0  0  0  0
 61 72  1  0  0  0  0
 62 73  1  0  0  0  0
 64 65  1  0  0  0  0
M  CHG  1  73   1
M  ISO  4  41 100  60 101  70 100  81 101
M  END
> <Batch ID>
0126

> <Smiles>
CNC(C)C(=O)NC(C(=O)N1Cc2cc([101O:1][101CH2:1]C(=O)C=Cc3ccc(C)c([100NH:0][100C:0](=O)N4CCCC(n5nc(-c6ccc(Oc7ccc(F)cc7F)cc6)c(C(N)=O)c5N)C4)c3)ccc2CC1C(=O)NC1CCCc2ccccc21)C(C)(C)C

> <Shape>
0.273

> <Color>
0.087

> <Negative vol penalty>
0.000

$$$$

  -OEChem-04052302113D

 82 90  0     1  0  0  0  0  0999 V2000
  -17.7174  -32.4134   23.5391 C   0  0  0  0  0  0  0  0  0  0  0  0
  -18.9627  -32.7333   23.0077 C   0  0  0  0  0  0  0  0  0  0  0  0
  -24.9021  -11.6857   21.5710 C   0  0  0  0  0  0  0  0  0  0  0  0
  -22.9371  -12.4365   20.3825 C   0  0  0  0  0  0  0  0  0  0  0  0
  -31.5130  -22.7644   20.7539 C   0  0  0  0  0  0  0  0  0  0  0  0
  -17.5280  -31.1902   24.1807 C   0  0  0  0  0  0  0  0  0  0  0  0
  -20.0196  -31.8305   23.1186 C   0  0  0  0  0  0  0  0  0  0  0  0
  -25.8512  -29.6029   19.6049 C   0  0  0  0  0  0  0  0  0  0  0  0
  -31.8842  -24.0974   20.9297 C   0  0  0  0  0  0  0  0  0  0  0  0
  -24.1382  -10.7171   22.2220 C   0  0  0  0  0  0  0  0  0  0  0  0
  -22.1733  -11.4677   21.0334 C   0  0  0  0  0  0  0  0  0  0  0  0
  -27.2172  -29.4052   19.8015 C   0  0  0  0  0  0  0  0  0  0  0  0
  -22.7775   -7.8101   23.9288 C   0  0  0  0  0  0  0  0  0  0  0  0
  -23.3049   -6.5221   24.0205 C   0  0  0  0  0  0  0  0  0  0  0  0
  -26.7522  -27.2887   20.8614 C   0  0  0  0  0  0  0  0  0  0  0  0
  -29.9699  -24.8011   19.6346 C   0  0  0  0  0  0  0  0  0  0  0  0
  -23.3800   -6.3811   21.6098 C   0  0  0  0  0  0  0  0  0  0  0  0
  -24.3015  -12.5455   20.6513 C   0  0  0  0  0  0  0  0  0  0  0  0
  -30.3703  -22.4497   20.0184 C   0  0  0  0  0  0  0  0  0  0  0  0
  -25.7761  -13.4095   18.7574 C   0  0  0  0  0  0  0  0  0  0  0  0
  -18.5805  -30.2679   24.2911 C   0  0  0  0  0  0  0  0  0  0  0  0
  -24.9232  -28.6484   20.0455 C   0  0  0  0  0  0  0  0  0  0  0  0
  -19.8444  -30.5943   23.7636 C   0  0  0  0  0  0  0  0  0  0  0  0
  -25.3751  -27.4754   20.6668 C   0  0  0  0  0  0  0  0  0  0  0  0
  -31.1126  -25.1158   20.3700 C   0  0  0  0  0  0  0  0  0  0  0  0
  -29.5988  -23.4681   19.4588 C   0  0  0  0  0  0  0  0  0  0  0  0
  -22.7739  -10.6080   21.9532 C   0  0  0  0  0  0  0  0  0  0  0  0
  -27.6678  -28.2493   20.4324 C   0  0  0  0  0  0  0  0  0  0  0  0
  -22.5512   -8.3836   22.6775 C   0  0  0  0  0  0  0  0  0  0  0  0
  -23.6062   -5.8076   22.8611 C   0  0  0  0  0  0  0  0  0  0  0  0
  -22.8525   -7.6691   21.5180 C   0  0  0  0  0  0  0  0  0  0  0  0
  -25.0899  -13.5468   19.9789 C   0  0  0  0  0  0  0  0  0  0  0  0
  -26.3652  -14.6337   18.5551 C   0  0  0  0  0  0  0  0  0  0  0  0
  -30.0094  -21.0479   19.8526 C   0  0  0  0  0  0  0  0  0  0  0  0
  -29.7113  -20.1947   20.8536 C   0  0  0  0  0  0  0  0  0  0  0  0
  -25.8724  -12.2768   17.8837 C   0  0  0  0  0  0  0  0  0  0  0  0
  -29.3536  -18.8008   20.5222 C   0  0  0  0  0  0  0  0  0  0  0  0
  -22.5295  -28.6457   22.1369 C   0  0  0  0  0  0  0  0  0  0  0  0
  -22.0167  -25.6683   20.9561 C   0  0  0  0  0  0  0  0  0  0  0  0
  -23.2849  -22.9158   19.3868 C   0  0  0  0  0  0  0  0  0  0  0  0
  -18.3405  -28.9781   25.0351 C   0  0  0  0  0  0  0  0  0  0  0  0
  -23.4547  -28.8641   19.8019 C   0  0  0  0  0  0  0  0  0  0  0  0
  -24.4210  -26.4106   21.1403 C   0  0  0  0  0  0  0  0  0  0  0  0
  -19.4111  -27.9200   24.7810 C   0  0  0  0  0  0  0  0  0  0  0  0
  -25.7177  -19.0440   20.9132 C   0  0  0  0  0  0  0  0  0  0  0  0
  -20.8038  -28.5324   24.8921 C   0  0  0  0  0  0  0  0  0  0  0  0
  -25.2967  -17.6010   20.6482 C   0  0  0  0  0  0  0  0  0  0  0  0
  -27.0709  -19.1245   21.6181 C   0  0  0  0  0  0  0  0  0  0  0  0
  -27.7361  -16.9456   20.6431 C   0  0  0  0  0  0  0  0  0  0  0  0
  -21.0088  -29.6310   23.8421 C   0  0  1  0  0  0  0  0  0  0  0  0
  -22.5677  -28.0650   20.7517 C   0  0  1  0  0  0  0  0  0  0  0  0
  -26.3992  -16.8423   19.8925 C   0  0  1  0  0  0  0  0  0  0  0  0
  -28.3684  -23.1681   18.6643 C   0  0  0  0  0  0  0  0  0  0  0  0
  -22.6339  -20.6259   18.5933 C   0  0  0  0  0  0  0  0  0  0  0  0
  -22.1126  -24.6478   23.8300 C   0  0  0  0  0  0  0  0  0  0  0  0
  -22.4132  -22.3331   22.9243 C   0  0  0  0  0  0  0  0  0  0  0  0
  -20.3321  -23.6100   22.4133 C   0  0  0  0  0  0  0  0  0  0  0  0
  -23.9024  -23.5891   16.5718 C   0  0  0  0  0  0  0  0  0  0  0  0
  -31.5125  -26.5570   20.5612 C   0  0  0  0  0  0  0  0  0  0  0  0
  -30.9071  -27.2039   21.8088 C   0  0  0  0  0  0  0  0  0  0  0  0
  -29.3857  -27.2886   21.7672 C   0  0  0  0  0  0  0  0  0  1  0  0
  -22.5023  -24.2819   21.3041 C   0  0  1  0  0  0  0  0  0  0  0  0
  -22.7678  -22.0940   18.2199 C   0  0  2  0  0  0  0  0  0  0  0  0
  -21.8582  -23.7389   22.6109 C   0  0  0  0  0  0  0  0  0  0  0  0
  -25.2294  -14.7622   20.5150 N   0  0  0  0  0  0  0  0  0  0  0  0
  -26.0101  -15.3998   19.6262 N   0  0  0  0  0  0  0  0  0  0  0  0
  -28.0949  -18.3433   20.9081 N   0  0  0  0  0  0  0  0  0  0  0  0
  -22.9946  -26.6706   20.8849 N   0  0  0  0  0  0  0  0  0  0  0  0
  -27.1471  -15.1187   17.5673 N   0  0  0  0  0  0  0  0  0  0  0  0
  -25.2055  -11.0975   18.2428 N   0  0  0  0  0  0  0  0  0  0  0  0
  -21.2715  -29.0469   22.5443 N   0  0  0  0  0  0  0  0  0  0  0  0
  -22.2547  -23.4554   20.1277 N   0  0  0  0  0  0  0  0  0  0  0  0
  -23.6965  -22.2009   17.0592 N   0  3  0  0  0  0  0  0  0  0  0  0
  -26.5437  -12.3043   16.8244 O   0  0  0  0  0  0  0  0  0  0  0  0
  -30.1943  -18.1242   19.9272 O   0  0  0  0  0  0  0  0  0  0  0  0
  -23.5645  -28.7226   22.7886 O   0  0  0  0  0  0  0  0  0  0  0  0
  -20.8151  -25.8536   20.7479 O   0  0  0  0  0  0  0  0  0  0  0  0
  -24.4827  -23.0613   19.6201 O   0  0  0  0  0  0  0  0  0  0  0  0
  -22.0283   -9.6627   22.5880 O   0  0  0  0  0  0  0  0  0  0  0  0
  -29.0005  -28.0542   20.6262 O   0  0  0  0  0  0  0  0  0  1  0  0
  -24.1141   -4.5713   22.9494 F   0  0  0  0  0  0  0  0  0  0  0  0
  -22.6384   -8.2152   20.3132 F   0  0  0  0  0  0  0  0  0  0  0  0
  1  2  1  0  0  0  0
  1  6  2  0  0  0  0
  2  7  2  0  0  0  0
  3 10  2  0  0  0  0
  3 18  1  0  0  0  0
  4 11  1  0  0  0  0
  4 18  2  0  0  0  0
  5  9  2  0  0  0  0
  5 19  1  0  0  0  0
  6 21  1  0  0  0  0
  7 23  1  0  0  0  0
  8 12  2  0  0  0  0
  8 22  1  0  0  0  0
  9 25  1  0  0  0  0
 10 27  1  0  0  0  0
 11 27  2  0  0  0  0
 12 28  1  0  0  0  0
 13 14  2  0  0  0  0
 13 29  1  0  0  0  0
 14 30  1  0  0  0  0
 15 24  1  0  0  0  0
 15 28  2  0  0  0  0
 16 25  2  0  0  0  0
 16 26  1  0  0  0  0
 17 30  2  0  0  0  0
 17 31  1  0  0  0  0
 18 32  1  0  0  0  0
 19 26  2  0  0  0  0
 19 34  1  0  0  0  0
 20 32  1  0  0  0  0
 20 33  2  0  0  0  0
 20 36  1  0  0  0  0
 21 23  2  0  0  0  0
 21 41  1  0  0  0  0
 22 24  2  0  0  0  0
 22 42  1  0  0  0  0
 23 50  1  0  0  0  0
 24 43  1  0  0  0  0
 25 59  1  0  0  0  0
 26 53  1  0  0  0  0
 27 79  1  0  0  0  0
 28 80  1  0  0  0  0
 29 31  2  0  0  0  0
 29 79  1  0  0  0  0
 30 81  1  0  0  0  0
 31 82  1  0  0  0  0
 32 65  2  0  0  0  0
 33 66  1  0  0  0  0
 33 69  1  0  0  0  0
 34 35  2  0  0  0  0
 35 37  1  0  0  0  0
 36 70  1  0  0  0  0
 36 74  2  0  0  0  0
 37 67  1  0  0  0  0
 37 75  2  0  0  0  0
 38 51  1  0  0  0  0
 38 71  1  0  0  0  0
 38 76  2  0  0  0  0
 39 62  1  0  0  0  0
 39 68  1  0  0  0  0
 39 77  2  0  0  0  0
 40 63  1  0  0  0  0
 40 72  1  0  0  0  0
 40 78  2  0  0  0  0
 41 44  1  0  0  0  0
 42 51  1  0  0  0  0
 43 68  1  0  0  0  0
 44 46  1  0  0  0  0
 45 47  1  0  0  0  0
 45 48  1  0  0  0  0
 46 50  1  0  0  0  0
 47 52  1  0  0  0  0
 48 67  1  0  0  0  0
 49 52  1  0  0  0  0
 49 67  1  0  0  0  0
 50 71  1  0  0  0  0
 51 68  1  0  0  0  0
 52 66  1  0  0  0  0
 54 63  1  0  0  0  0
 55 64  1  0  0  0  0
 56 64  1  0  0  0  0
 57 64  1  0  0  0  0
 58 73  1  0  0  0  0
 59 60  1  0  0  0  0
 60 61  1  0  0  0  0
 61 80  1  0  0  0  0
 62 64  1  0  0  0  0
 62 72  1  0  0  0  0
 63 73  1  0  0  0  0
 65 66  1  0  0  0  0
M  CHG  1  73   1
M  ISO  4  35 100  37 100  61 101  80 101
M  END
> <Batch ID>
0126

> <Smiles>
CNC(C)C(=O)NC(C(=O)N1Cc2cc([101O:1][101CH2:1]CCc3ccc(C=[100CH:0][100C:0](=O)N4CCCC(n5nc(-c6ccc(Oc7ccc(F)cc7F)cc6)c(C(N)=O)c5N)C4)c(C)c3)ccc2CC1C(=O)NC1CCCc2ccccc21)C(C)(C)C

> <Shape>
0.244

> <Color>
0.087

> <Negative vol penalty>
0.000

$$$$

  -OEChem-04052302113D

 83 91  0     1  0  0  0  0  0999 V2000
  -28.7445  -21.7419   36.9697 C   0  0  0  0  0  0  0  0  0  0  0  0
  -28.6522  -21.5070   35.6015 C   0  0  0  0  0  0  0  0  0  0  0  0
  -23.0754   -9.8687   19.9399 C   0  0  0  0  0  0  0  0  0  0  0  0
  -23.8352   -9.8744   22.2333 C   0  0  0  0  0  0  0  0  0  0  0  0
  -28.3695  -20.7485   37.8732 C   0  0  0  0  0  0  0  0  0  0  0  0
  -28.1857  -20.2780   35.1362 C   0  0  0  0  0  0  0  0  0  0  0  0
  -24.8448  -20.7707   31.3626 C   0  0  0  0  0  0  0  0  0  0  0  0
  -32.6527  -17.4897   23.4566 C   0  0  0  0  0  0  0  0  0  0  0  0
  -32.0649  -16.6058   22.5519 C   0  0  0  0  0  0  0  0  0  0  0  0
  -22.3311   -8.7157   20.1893 C   0  0  0  0  0  0  0  0  0  0  0  0
  -23.0909   -8.7214   22.4828 C   0  0  0  0  0  0  0  0  0  0  0  0
  -25.3530  -21.0498   30.0946 C   0  0  0  0  0  0  0  0  0  0  0  0
  -19.8624   -7.9245   23.0848 C   0  0  0  0  0  0  0  0  0  0  0  0
  -19.1054   -7.8844   24.2556 C   0  0  0  0  0  0  0  0  0  0  0  0
  -29.8811  -17.4551   23.1409 C   0  0  0  0  0  0  0  0  0  0  0  0
  -25.1253  -18.7235   29.4980 C   0  0  0  0  0  0  0  0  0  0  0  0
  -20.3461   -5.9461   24.9913 C   0  0  0  0  0  0  0  0  0  0  0  0
  -23.8275  -10.4480   20.9619 C   0  0  0  0  0  0  0  0  0  0  0  0
  -30.4690  -18.3391   24.0457 C   0  0  0  0  0  0  0  0  0  0  0  0
  -24.1703  -12.9731   20.8430 C   0  0  0  0  0  0  0  0  0  0  0  0
  -27.8890  -19.5102   37.4188 C   0  0  0  0  0  0  0  0  0  0  0  0
  -24.4826  -19.4619   31.7120 C   0  0  0  0  0  0  0  0  0  0  0  0
  -27.8051  -19.2667   36.0346 C   0  0  0  0  0  0  0  0  0  0  0  0
  -24.6104  -18.4310   30.7702 C   0  0  0  0  0  0  0  0  0  0  0  0
  -31.8548  -18.3564   24.2036 C   0  0  0  0  0  0  0  0  0  0  0  0
  -30.6791  -16.5885   22.3940 C   0  0  0  0  0  0  0  0  0  0  0  0
  -22.3388   -8.1421   21.4608 C   0  0  0  0  0  0  0  0  0  0  0  0
  -25.4960  -20.0256   29.1631 C   0  0  0  0  0  0  0  0  0  0  0  0
  -20.8612   -6.9755   22.8671 C   0  0  0  0  0  0  0  0  0  0  0  0
  -19.3472   -6.8952   25.2089 C   0  0  0  0  0  0  0  0  0  0  0  0
  -21.1031   -5.9863   23.8204 C   0  0  0  0  0  0  0  0  0  0  0  0
  -24.5971  -11.6388   20.7047 C   0  0  0  0  0  0  0  0  0  0  0  0
  -25.2627  -13.7224   20.4801 C   0  0  0  0  0  0  0  0  0  0  0  0
  -29.5986  -19.2413   24.8202 C   0  0  0  0  0  0  0  0  0  0  0  0
  -28.6213  -18.8354   25.6428 C   0  0  0  0  0  0  0  0  0  0  0  0
  -22.9000  -13.4892   21.2621 C   0  0  0  0  0  0  0  0  0  0  0  0
  -27.7879  -19.8323   26.3757 C   0  0  0  0  0  0  0  0  0  0  0  0
  -25.4605  -17.3717   33.8980 C   0  0  0  0  0  0  0  0  0  0  0  0
  -22.9619  -15.6284   32.7843 C   0  0  0  0  0  0  0  0  0  0  0  0
  -20.8087  -14.9604   30.2223 C   0  0  0  0  0  0  0  0  0  0  0  0
  -30.7293  -14.7659   20.6556 C   0  0  0  0  0  0  0  0  0  0  0  0
  -27.5403  -18.4502   38.4333 C   0  0  0  0  0  0  0  0  0  0  0  0
  -23.9110  -19.1820   33.0748 C   0  0  0  0  0  0  0  0  0  0  0  0
  -24.2171  -17.0124   31.0889 C   0  0  0  0  0  0  0  0  0  0  0  0
  -26.7024  -17.3103   37.8598 C   0  0  0  0  0  0  0  0  0  0  0  0
  -29.6141  -12.3535   18.2862 C   0  0  0  0  0  0  0  0  0  0  0  0
  -27.2876  -16.8320   36.5348 C   0  0  0  0  0  0  0  0  0  0  0  0
  -28.1744  -12.0623   18.7155 C   0  0  0  0  0  0  0  0  0  0  0  0
  -30.5293  -12.5815   19.4880 C   0  0  0  0  0  0  0  0  0  0  0  0
  -28.6225  -13.3060   20.8694 C   0  0  0  0  0  0  0  0  0  0  0  0
  -27.2805  -17.9554   35.4910 C   0  0  1  0  0  0  0  0  0  0  0  0
  -24.0561  -17.7228   33.4955 C   0  0  1  0  0  0  0  0  0  0  0  0
  -27.6497  -13.1336   19.6915 C   0  0  2  0  0  0  0  0  0  0  0  0
  -32.5189  -19.2900   25.1640 C   0  0  0  0  0  0  0  0  0  0  0  0
  -18.9008  -13.4562   29.5939 C   0  0  0  0  0  0  0  0  0  0  0  0
  -24.9201  -13.3282   32.3548 C   0  0  0  0  0  0  0  0  0  0  0  0
  -23.2103  -12.2390   30.8856 C   0  0  0  0  0  0  0  0  0  0  0  0
  -22.7034  -12.6498   33.2933 C   0  0  0  0  0  0  0  0  0  0  0  0
  -18.9686  -17.2507   29.8649 C   0  0  0  0  0  0  0  0  0  0  0  0
  -26.7165  -19.2517   27.2743 C   0  0  0  0  0  0  0  0  0  1  0  0
  -22.7759  -14.6041   31.6911 C   0  0  1  0  0  0  0  0  0  0  0  0
  -19.2998  -14.7966   30.1913 C   0  0  2  0  0  0  0  0  0  0  0  0
  -23.4118  -13.2316   32.0505 C   0  0  0  0  0  0  0  0  0  0  0  0
  -25.8619  -11.5426   20.2865 N   0  0  0  0  0  0  0  0  0  0  0  0
  -26.2393  -12.8261   20.1587 N   0  0  0  0  0  0  0  0  0  0  0  0
  -23.6690  -16.7882   32.4368 N   0  0  0  0  0  0  0  0  0  0  0  0
  -29.9706  -13.6121   20.3658 N   0  0  0  0  0  0  0  0  0  0  0  0
  -25.4736  -15.0538   20.4077 N   0  0  0  0  0  0  0  0  0  0  0  0
  -21.8877  -12.5803   21.5989 N   0  0  0  0  0  0  0  0  0  0  0  0
  -30.0822  -15.6908   21.4743 N   0  0  0  0  0  0  0  0  0  0  0  0
  -25.9518  -18.1289   34.9443 N   0  0  0  0  0  0  0  0  0  0  0  0
  -21.3427  -14.5473   31.4245 N   0  0  0  0  0  0  0  0  0  0  0  0
  -18.6780  -15.8782   29.3762 N   0  3  0  0  0  0  0  0  0  0  0  0
  -22.6642  -14.7199   21.3200 O   0  0  0  0  0  0  0  0  0  0  0  0
  -27.9621  -21.0421   26.2562 O   0  0  0  0  0  0  0  0  0  0  0  0
  -26.0538  -16.4789   33.3044 O   0  0  0  0  0  0  0  0  0  0  0  0
  -22.4908  -15.4108   33.9034 O   0  0  0  0  0  0  0  0  0  0  0  0
  -21.4499  -15.4065   29.2734 O   0  0  0  0  0  0  0  0  0  0  0  0
  -31.8585  -14.9344   20.1881 O   0  0  0  0  0  0  0  0  0  0  0  0
  -21.6125   -7.0172   21.7046 O   0  0  0  0  0  0  0  0  0  0  0  0
  -25.9924  -20.2951   27.9250 O   0  0  0  0  0  0  0  0  0  1  0  0
  -18.6212   -6.8577   26.3339 F   0  0  0  0  0  0  0  0  0  0  0  0
  -22.0621   -5.0726   23.6174 F   0  0  0  0  0  0  0  0  0  0  0  0
  1  2  1  0  0  0  0
  1  5  2  0  0  0  0
  2  6  2  0  0  0  0
  3 10  2  0  0  0  0
  3 18  1  0  0  0  0
  4 11  1  0  0  0  0
  4 18  2  0  0  0  0
  5 21  1  0  0  0  0
  6 23  1  0  0  0  0
  7 12  2  0  0  0  0
  7 22  1  0  0  0  0
  8  9  2  0  0  0  0
  8 25  1  0  0  0  0
  9 26  1  0  0  0  0
 10 27  1  0  0  0  0
 11 27  2  0  0  0  0
 12 28  1  0  0  0  0
 13 14  2  0  0  0  0
 13 29  1  0  0  0  0
 14 30  1  0  0  0  0
 15 19  1  0  0  0  0
 15 26  2  0  0  0  0
 16 24  1  0  0  0  0
 16 28  2  0  0  0  0
 17 30  2  0  0  0  0
 17 31  1  0  0  0  0
 18 32  1  0  0  0  0
 19 25  2  0  0  0  0
 19 34  1  0  0  0  0
 20 32  1  0  0  0  0
 20 33  2  0  0  0  0
 20 36  1  0  0  0  0
 21 23  2  0  0  0  0
 21 42  1  0  0  0  0
 22 24  2  0  0  0  0
 22 43  1  0  0  0  0
 23 51  1  0  0  0  0
 24 44  1  0  0  0  0
 25 54  1  0  0  0  0
 26 70  1  0  0  0  0
 27 80  1  0  0  0  0
 28 81  1  0  0  0  0
 29 31  2  0  0  0  0
 29 80  1  0  0  0  0
 30 82  1  0  0  0  0
 31 83  1  0  0  0  0
 32 64  2  0  0  0  0
 33 65  1  0  0  0  0
 33 68  1  0  0  0  0
 34 35  2  0  0  0  0
 35 37  1  0  0  0  0
 36 69  1  0  0  0  0
 36 74  2  0  0  0  0
 37 60  1  0  0  0  0
 37 75  2  0  0  0  0
 38 52  1  0  0  0  0
 38 71  1  0  0  0  0
 38 76  2  0  0  0  0
 39 61  1  0  0  0  0
 39 66  1  0  0  0  0
 39 77  2  0  0  0  0
 40 62  1  0  0  0  0
 40 72  1  0  0  0  0
 40 78  2  0  0  0  0
 41 67  1  0  0  0  0
 41 70  1  0  0  0  0
 41 79  2  0  0  0  0
 42 45  1  0  0  0  0
 43 52  1  0  0  0  0
 44 66  1  0  0  0  0
 45 47  1  0  0  0  0
 46 48  1  0  0  0  0
 46 49  1  0  0  0  0
 47 51  1  0  0  0  0
 48 53  1  0  0  0  0
 49 67  1  0  0  0  0
 50 53  1  0  0  0  0
 50 67  1  0  0  0  0
 51 71  1  0  0  0  0
 52 66  1  0  0  0  0
 53 65  1  0  0  0  0
 55 62  1  0  0  0  0
 56 63  1  0  0  0  0
 57 63  1  0  0  0  0
 58 63  1  0  0  0  0
 59 73  1  0  0  0  0
 60 81  1  0  0  0  0
 61 63  1  0  0  0  0
 61 72  1  0  0  0  0
 62 73  1  0  0  0  0
 64 65  1  0  0  0  0
M  CHG  1  73   1
M  ISO  4  41 100  60 101  70 100  81 101
M  END
> <Batch ID>
0126

> <Smiles>
CNC(C)C(=O)NC(C(=O)N1Cc2cc([101O:1][101CH2:1]C(=O)C=Cc3cc([100NH:0][100C:0](=O)N4CCCC(n5nc(-c6ccc(Oc7ccc(F)cc7F)cc6)c(C(N)=O)c5N)C4)ccc3C)ccc2CC1C(=O)NC1CCCc2ccccc21)C(C)(C)C

> <Shape>
0.166

> <Color>
0.196

> <Negative vol penalty>
0.000

$$$$

  -OEChem-04052302113D

 82 90  0     1  0  0  0  0  0999 V2000
  -28.3040  -35.5827   22.7670 C   0  0  0  0  0  0  0  0  0  0  0  0
  -28.9034  -34.3310   22.6696 C   0  0  0  0  0  0  0  0  0  0  0  0
  -23.6886   -9.7597   22.0279 C   0  0  0  0  0  0  0  0  0  0  0  0
  -23.0293  -12.0786   22.1877 C   0  0  0  0  0  0  0  0  0  0  0  0
  -30.7954  -18.9304   21.8100 C   0  0  0  0  0  0  0  0  0  0  0  0
  -26.9302  -35.6815   22.9832 C   0  0  0  0  0  0  0  0  0  0  0  0
  -28.1294  -33.1773   22.7893 C   0  0  0  0  0  0  0  0  0  0  0  0
  -28.9485  -27.8721   19.8414 C   0  0  0  0  0  0  0  0  0  0  0  0
  -30.6400  -17.6496   21.2799 C   0  0  0  0  0  0  0  0  0  0  0  0
  -22.8573   -9.4492   23.1041 C   0  0  0  0  0  0  0  0  0  0  0  0
  -22.1979  -11.7680   23.2639 C   0  0  0  0  0  0  0  0  0  0  0  0
  -29.5546  -26.6741   20.2172 C   0  0  0  0  0  0  0  0  0  0  0  0
  -19.5572   -8.9410   23.6368 C   0  0  0  0  0  0  0  0  0  0  0  0
  -18.7481   -7.8102   23.5258 C   0  0  0  0  0  0  0  0  0  0  0  0
  -27.3998  -25.7863   20.8400 C   0  0  0  0  0  0  0  0  0  0  0  0
  -28.3103  -18.1144   20.8398 C   0  0  0  0  0  0  0  0  0  0  0  0
  -19.8215   -6.8515   25.4663 C   0  0  0  0  0  0  0  0  0  0  0  0
  -23.7746  -11.0744   21.5697 C   0  0  0  0  0  0  0  0  0  0  0  0
  -29.7082  -19.8032   21.8550 C   0  0  0  0  0  0  0  0  0  0  0  0
  -24.2932  -11.3935   19.0925 C   0  0  0  0  0  0  0  0  0  0  0  0
  -26.1374  -34.5285   23.0960 C   0  0  0  0  0  0  0  0  0  0  0  0
  -27.5625  -28.0404   19.9726 C   0  0  0  0  0  0  0  0  0  0  0  0
  -26.7439  -33.2608   23.0085 C   0  0  0  0  0  0  0  0  0  0  0  0
  -26.7782  -26.9865   20.4628 C   0  0  0  0  0  0  0  0  0  0  0  0
  -28.4657  -19.3952   21.3699 C   0  0  0  0  0  0  0  0  0  0  0  0
  -29.3975  -17.2416   20.7948 C   0  0  0  0  0  0  0  0  0  0  0  0
  -22.1120  -10.4533   23.7220 C   0  0  0  0  0  0  0  0  0  0  0  0
  -28.7806  -25.6320   20.7193 C   0  0  0  0  0  0  0  0  0  0  0  0
  -20.4985   -9.0270   24.6626 C   0  0  0  0  0  0  0  0  0  0  0  0
  -18.8802   -6.7655   24.4405 C   0  0  0  0  0  0  0  0  0  0  0  0
  -20.6307   -7.9823   25.5774 C   0  0  0  0  0  0  0  0  0  0  0  0
  -24.6336  -11.3960   20.4585 C   0  0  0  0  0  0  0  0  0  0  0  0
  -25.4484  -11.7671   18.4502 C   0  0  0  0  0  0  0  0  0  0  0  0
  -29.9046  -21.1486   22.4200 C   0  0  0  0  0  0  0  0  0  0  0  0
  -30.7777  -22.0595   21.9622 C   0  0  0  0  0  0  0  0  0  0  0  0
  -23.0445  -11.0816   18.4607 C   0  0  0  0  0  0  0  0  0  0  0  0
  -25.6877  -29.9982   21.6326 C   0  0  0  0  0  0  0  0  0  0  0  0
  -23.3333  -28.5593   19.9272 C   0  0  0  0  0  0  0  0  0  0  0  0
  -22.2876  -25.8334   18.1600 C   0  0  0  0  0  0  0  0  0  0  0  0
  -30.2142  -14.9494   20.1428 C   0  0  0  0  0  0  0  0  0  0  0  0
  -24.6639  -34.6852   23.3765 C   0  0  0  0  0  0  0  0  0  0  0  0
  -26.9206  -29.3293   19.5377 C   0  0  0  0  0  0  0  0  0  0  0  0
  -25.2838  -27.1093   20.6043 C   0  0  0  0  0  0  0  0  0  0  0  0
  -23.8562  -33.4159   23.1181 C   0  0  0  0  0  0  0  0  0  0  0  0
  -30.2119  -11.6069   18.9162 C   0  0  0  0  0  0  0  0  0  0  0  0
  -24.5515  -32.2061   23.7342 C   0  0  0  0  0  0  0  0  0  0  0  0
  -28.7491  -11.1753   19.0425 C   0  0  0  0  0  0  0  0  0  0  0  0
  -30.6413  -12.5023   20.0770 C   0  0  0  0  0  0  0  0  0  0  0  0
  -28.3179  -13.2371   20.4390 C   0  0  0  0  0  0  0  0  0  0  0  0
  -25.9340  -31.9863   23.1083 C   0  0  1  0  0  0  0  0  0  0  0  0
  -25.5664  -29.5743   20.1962 C   0  0  1  0  0  0  0  0  0  0  0  0
  -27.8208  -12.3866   19.2586 C   0  0  2  0  0  0  0  0  0  0  0  0
  -27.2790  -20.3038   21.4017 C   0  0  0  0  0  0  0  0  0  0  0  0
  -20.3004  -24.9337   16.9196 C   0  0  0  0  0  0  0  0  0  0  0  0
  -21.9576  -27.9462   22.5808 C   0  0  0  0  0  0  0  0  0  0  0  0
  -20.5357  -26.2734   21.3773 C   0  0  0  0  0  0  0  0  0  0  0  0
  -20.4180  -28.6859   20.7540 C   0  0  0  0  0  0  0  0  0  0  0  0
  -23.7998  -25.6711   15.6212 C   0  0  0  0  0  0  0  0  0  0  0  0
  -30.9550  -23.4202   22.5784 C   0  0  0  0  0  0  0  0  0  0  0  0
  -30.7124  -24.5329   21.5655 C   0  0  0  0  0  0  0  0  0  1  0  0
  -22.4635  -27.3410   20.1224 C   0  0  1  0  0  0  0  0  0  0  0  0
  -21.6037  -25.7096   16.8104 C   0  0  2  0  0  0  0  0  0  0  0  0
  -21.3721  -27.5597   21.2079 C   0  0  0  0  0  0  0  0  0  0  0  0
  -25.9054  -11.7434   20.6724 N   0  0  0  0  0  0  0  0  0  0  0  0
  -26.3744  -11.9626   19.4322 N   0  0  0  0  0  0  0  0  0  0  0  0
  -24.7036  -28.3914   20.1715 N   0  0  0  0  0  0  0  0  0  0  0  0
  -29.7184  -13.6306   20.2188 N   0  0  0  0  0  0  0  0  0  0  0  0
  -25.7522  -11.9441   17.1468 N   0  0  0  0  0  0  0  0  0  0  0  0
  -21.9595  -10.7166   19.2692 N   0  0  0  0  0  0  0  0  0  0  0  0
  -29.2391  -15.9395   20.2589 N   0  0  0  0  0  0  0  0  0  0  0  0
  -25.8070  -31.3637   21.8081 N   0  0  0  0  0  0  0  0  0  0  0  0
  -21.9366  -27.0003   18.8053 N   0  0  0  0  0  0  0  0  0  0  0  0
  -22.4910  -25.0042   15.8429 N   0  3  0  0  0  0  0  0  0  0  0  0
  -22.8999  -11.1093   17.2150 O   0  0  0  0  0  0  0  0  0  0  0  0
  -25.6726  -29.1495   22.5164 O   0  0  0  0  0  0  0  0  0  0  0  0
  -22.8168  -29.6191   19.5641 O   0  0  0  0  0  0  0  0  0  0  0  0
  -23.0535  -24.9786   18.5996 O   0  0  0  0  0  0  0  0  0  0  0  0
  -31.4115  -15.1830   19.9590 O   0  0  0  0  0  0  0  0  0  0  0  0
  -21.3005  -10.1506   24.7720 O   0  0  0  0  0  0  0  0  0  0  0  0
  -29.3698  -24.4619   21.0874 O   0  0  0  0  0  0  0  0  0  1  0  0
  -18.1021   -5.6804   24.3346 F   0  0  0  0  0  0  0  0  0  0  0  0
  -21.5324   -8.0597   26.5657 F   0  0  0  0  0  0  0  0  0  0  0  0
  1  2  1  0  0  0  0
  1  6  2  0  0  0  0
  2  7  2  0  0  0  0
  3 10  2  0  0  0  0
  3 18  1  0  0  0  0
  4 11  1  0  0  0  0
  4 18  2  0  0  0  0
  5  9  2  0  0  0  0
  5 19  1  0  0  0  0
  6 21  1  0  0  0  0
  7 23  1  0  0  0  0
  8 12  2  0  0  0  0
  8 22  1  0  0  0  0
  9 26  1  0  0  0  0
 10 27  1  0  0  0  0
 11 27  2  0  0  0  0
 12 28  1  0  0  0  0
 13 14  2  0  0  0  0
 13 29  1  0  0  0  0
 14 30  1  0  0  0  0
 15 24  1  0  0  0  0
 15 28  2  0  0  0  0
 16 25  1  0  0  0  0
 16 26  2  0  0  0  0
 17 30  2  0  0  0  0
 17 31  1  0  0  0  0
 18 32  1  0  0  0  0
 19 25  2  0  0  0  0
 19 34  1  0  0  0  0
 20 32  1  0  0  0  0
 20 33  2  0  0  0  0
 20 36  1  0  0  0  0
 21 23  2  0  0  0  0
 21 41  1  0  0  0  0
 22 24  2  0  0  0  0
 22 42  1  0  0  0  0
 23 50  1  0  0  0  0
 24 43  1  0  0  0  0
 25 53  1  0  0  0  0
 26 70  1  0  0  0  0
 27 79  1  0  0  0  0
 28 80  1  0  0  0  0
 29 31  2  0  0  0  0
 29 79  1  0  0  0  0
 30 81  1  0  0  0  0
 31 82  1  0  0  0  0
 32 64  2  0  0  0  0
 33 65  1  0  0  0  0
 33 68  1  0  0  0  0
 34 35  2  0  0  0  0
 35 59  1  0  0  0  0
 36 69  1  0  0  0  0
 36 74  2  0  0  0  0
 37 51  1  0  0  0  0
 37 71  1  0  0  0  0
 37 75  2  0  0  0  0
 38 61  1  0  0  0  0
 38 66  1  0  0  0  0
 38 76  2  0  0  0  0
 39 62  1  0  0  0  0
 39 72  1  0  0  0  0
 39 77  2  0  0  0  0
 40 67  1  0  0  0  0
 40 70  1  0  0  0  0
 40 78  2  0  0  0  0
 41 44  1  0  0  0  0
 42 51  1  0  0  0  0
 43 66  1  0  0  0  0
 44 46  1  0  0  0  0
 45 47  1  0  0  0  0
 45 48  1  0  0  0  0
 46 50  1  0  0  0  0
 47 52  1  0  0  0  0
 48 67  1  0  0  0  0
 49 52  1  0  0  0  0
 49 67  1  0  0  0  0
 50 71  1  0  0  0  0
 51 66  1  0  0  0  0
 52 65  1  0  0  0  0
 54 62  1  0  0  0  0
 55 63  1  0  0  0  0
 56 63  1  0  0  0  0
 57 63  1  0  0  0  0
 58 73  1  0  0  0  0
 59 60  1  0  0  0  0
 60 80  1  0  0  0  0
 61 63  1  0  0  0  0
 61 72  1  0  0  0  0
 62 73  1  0  0  0  0
 64 65  1  0  0  0  0
M  CHG  1  73   1
M  ISO  4  40 100  60 101  70 100  80 101
M  END
> <Batch ID>
0126

> <Smiles>
CNC(C)C(=O)NC(C(=O)N1Cc2cc([101O:1][101CH2:1]CC=Cc3ccc([100NH:0][100C:0](=O)N4CCCC(n5nc(-c6ccc(Oc7ccc(F)cc7F)cc6)c(C(N)=O)c5N)C4)cc3C)ccc2CC1C(=O)NC1CCCc2ccccc21)C(C)(C)C

> <Shape>
0.270

> <Color>
0.072

> <Negative vol penalty>
0.000

$$$$

  -OEChem-04052302113D

 83 91  0     1  0  0  0  0  0999 V2000
  -26.3236  -32.8020   26.7459 C   0  0  0  0  0  0  0  0  0  0  0  0
  -27.2189  -31.9553   26.1004 C   0  0  0  0  0  0  0  0  0  0  0  0
  -23.5725   -9.8690   22.4961 C   0  0  0  0  0  0  0  0  0  0  0  0
  -23.6400   -9.7171   20.0858 C   0  0  0  0  0  0  0  0  0  0  0  0
  -24.9527  -32.5641   26.6564 C   0  0  0  0  0  0  0  0  0  0  0  0
  -26.7439  -30.8694   25.3658 C   0  0  0  0  0  0  0  0  0  0  0  0
  -29.1469  -28.5694   20.2237 C   0  0  0  0  0  0  0  0  0  0  0  0
  -22.6843   -8.7944   22.5390 C   0  0  0  0  0  0  0  0  0  0  0  0
  -22.7517   -8.6425   20.1287 C   0  0  0  0  0  0  0  0  0  0  0  0
  -29.9858  -27.4817   19.9851 C   0  0  0  0  0  0  0  0  0  0  0  0
  -22.8381   -5.4247   22.3065 C   0  0  0  0  0  0  0  0  0  0  0  0
  -23.0751   -4.4251   23.2500 C   0  0  0  0  0  0  0  0  0  0  0  0
  -25.9611  -22.2856   23.1509 C   0  0  0  0  0  0  0  0  0  0  0  0
  -28.2985  -22.2912   22.5399 C   0  0  0  0  0  0  0  0  0  0  0  0
  -28.0620  -26.1163   19.4810 C   0  0  0  0  0  0  0  0  0  0  0  0
  -27.0984  -24.3780   22.7444 C   0  0  0  0  0  0  0  0  0  0  0  0
  -20.9185   -4.8575   24.2497 C   0  0  0  0  0  0  0  0  0  0  0  0
  -24.0503  -10.3304   21.2695 C   0  0  0  0  0  0  0  0  0  0  0  0
  -27.1403  -21.5919   22.8791 C   0  0  0  0  0  0  0  0  0  0  0  0
  -26.3735  -11.3844   21.2672 C   0  0  0  0  0  0  0  0  0  0  0  0
  -24.4602  -31.4804   25.9124 C   0  0  0  0  0  0  0  0  0  0  0  0
  -27.7562  -28.4356   20.1031 C   0  0  0  0  0  0  0  0  0  0  0  0
  -25.3652  -30.6160   25.2673 C   0  0  0  0  0  0  0  0  0  0  0  0
  -27.2078  -27.2045   19.7162 C   0  0  0  0  0  0  0  0  0  0  0  0
  -25.9401  -23.6787   23.0836 C   0  0  0  0  0  0  0  0  0  0  0  0
  -22.2739   -8.1811   21.3553 C   0  0  0  0  0  0  0  0  0  0  0  0
  -29.4432  -26.2541   19.6165 C   0  0  0  0  0  0  0  0  0  0  0  0
  -21.6414   -6.1408   22.3346 C   0  0  0  0  0  0  0  0  0  0  0  0
  -28.2776  -23.6843   22.4726 C   0  0  0  0  0  0  0  0  0  0  0  0
  -22.1153   -4.1414   24.2216 C   0  0  0  0  0  0  0  0  0  0  0  0
  -20.6816   -5.8571   23.3062 C   0  0  0  0  0  0  0  0  0  0  0  0
  -24.9675  -11.4408   21.2245 C   0  0  0  0  0  0  0  0  0  0  0  0
  -26.7721  -12.6967   21.1948 C   0  0  0  0  0  0  0  0  0  0  0  0
  -27.1631  -20.1392   22.9499 C   0  0  0  0  0  0  0  0  0  0  0  0
  -26.0806  -19.3349   22.8864 C   0  0  0  0  0  0  0  0  0  0  0  0
  -27.2415  -10.2473   21.3636 C   0  0  0  0  0  0  0  0  0  0  0  0
  -26.2690  -17.8723   22.9630 C   0  0  0  0  0  0  0  0  0  0  0  0
  -25.2939  -28.7280   22.0919 C   0  0  0  0  0  0  0  0  0  0  0  0
  -23.5581  -28.2994   19.3853 C   0  0  0  0  0  0  0  0  0  0  0  0
  -23.4062  -27.0707   16.2051 C   0  0  0  0  0  0  0  0  0  0  0  0
  -22.9722  -31.2360   25.8836 C   0  0  0  0  0  0  0  0  0  0  0  0
  -26.8667  -29.6256   20.3379 C   0  0  0  0  0  0  0  0  0  0  0  0
  -25.7227  -27.0141   19.5532 C   0  0  0  0  0  0  0  0  0  0  0  0
  -22.5330  -30.2815   24.7762 C   0  0  0  0  0  0  0  0  0  0  0  0
  -24.1777  -16.8853   20.1197 C   0  0  0  0  0  0  0  0  0  0  0  0
  -23.4354  -29.0522   24.7420 C   0  0  0  0  0  0  0  0  0  0  0  0
  -24.2801  -15.3641   20.1939 C   0  0  0  0  0  0  0  0  0  0  0  0
  -24.2017  -17.5282   21.5055 C   0  0  0  0  0  0  0  0  0  0  0  0
  -25.4816  -15.6054   22.4026 C   0  0  0  0  0  0  0  0  0  0  0  0
  -24.8875  -29.4420   24.4405 C   0  0  1  0  0  0  0  0  0  0  0  0
  -25.4323  -29.2400   20.6861 C   0  0  1  0  0  0  0  0  0  0  0  0
  -25.5067  -14.9407   21.0174 C   0  0  1  0  0  0  0  0  0  0  0  0
  -24.6796  -24.4205   23.3750 C   0  0  0  0  0  0  0  0  0  0  0  0
  -21.8429  -26.8374   14.2560 C   0  0  0  0  0  0  0  0  0  0  0  0
  -32.3667  -24.1915   19.8749 C   0  0  0  0  0  0  0  0  0  0  0  0
  -22.1039  -26.0365   20.8257 C   0  0  0  0  0  0  0  0  0  0  0  0
  -21.2715  -25.2483   18.5999 C   0  0  0  0  0  0  0  0  0  0  0  0
  -20.6308  -27.5080   19.4403 C   0  0  0  0  0  0  0  0  0  0  0  0
  -25.1705  -28.6721   14.4495 C   0  0  0  0  0  0  0  0  0  0  0  0
  -30.3345  -23.7104   21.2792 C   0  0  0  0  0  0  0  0  0  0  0  0
  -22.9989  -27.1042   18.6520 C   0  0  1  0  0  0  0  0  0  0  0  0
  -22.9197  -27.6909   14.9077 C   0  0  2  0  0  0  0  0  0  0  0  0
  -31.0847  -24.7565   20.4640 C   0  0  2  0  0  0  0  0  0  1  0  0
  -21.7792  -26.4770   19.3843 C   0  0  0  0  0  0  0  0  0  0  0  0
  -24.5041  -12.6901   21.1323 N   0  0  0  0  0  0  0  0  0  0  0  0
  -25.6254  -13.4309   21.1166 N   0  0  0  0  0  0  0  0  0  0  0  0
  -25.3519  -17.0628   22.2950 N   0  0  0  0  0  0  0  0  0  0  0  0
  -24.8942  -28.2058   19.8001 N   0  0  0  0  0  0  0  0  0  0  0  0
  -27.9882  -13.2828   21.1912 N   0  0  0  0  0  0  0  0  0  0  0  0
  -26.6660   -8.9710   21.4287 N   0  0  0  0  0  0  0  0  0  0  0  0
  -25.0549  -29.7149   23.0292 N   0  0  0  0  0  0  0  0  0  0  0  0
  -22.7134  -27.5553   17.2942 N   0  0  0  0  0  0  0  0  0  0  0  0
  -24.0498  -27.8361   13.9472 N   0  3  0  0  0  0  0  0  0  0  0  0
  -28.4900  -10.3608   21.4078 O   0  0  0  0  0  0  0  0  0  0  0  0
  -27.2257  -17.4557   23.6187 O   0  0  0  0  0  0  0  0  0  0  0  0
  -25.3948  -27.5263   22.3100 O   0  0  0  0  0  0  0  0  0  0  0  0
  -22.8383  -29.2827   19.5767 O   0  0  0  0  0  0  0  0  0  0  0  0
  -24.3080  -26.2367   16.2476 O   0  0  0  0  0  0  0  0  0  0  0  0
  -21.4073   -7.1324   21.3968 O   0  0  0  0  0  0  0  0  0  0  0  0
  -29.4149  -24.3718   22.1412 O   0  0  0  0  0  0  0  0  0  0  0  0
  -30.2597  -25.1906   19.3837 O   0  0  0  0  0  0  0  0  0  1  0  0
  -22.3423   -3.1804   25.1266 F   0  0  0  0  0  0  0  0  0  0  0  0
  -19.5295   -6.5409   23.3375 F   0  0  0  0  0  0  0  0  0  0  0  0
  1  2  1  0  0  0  0
  1  5  2  0  0  0  0
  2  6  2  0  0  0  0
  3  8  2  0  0  0  0
  3 18  1  0  0  0  0
  4  9  1  0  0  0  0
  4 18  2  0  0  0  0
  5 21  1  0  0  0  0
  6 23  1  0  0  0  0
  7 10  2  0  0  0  0
  7 22  1  0  0  0  0
  8 26  1  0  0  0  0
  9 26  2  0  0  0  0
 10 27  1  0  0  0  0
 11 12  2  0  0  0  0
 11 28  1  0  0  0  0
 12 30  1  0  0  0  0
 13 19  2  0  0  0  0
 13 25  1  0  0  0  0
 14 19  1  0  0  0  0
 14 29  2  0  0  0  0
 15 24  1  0  0  0  0
 15 27  2  0  0  0  0
 16 25  2  0  0  0  0
 16 29  1  0  0  0  0
 17 30  2  0  0  0  0
 17 31  1  0  0  0  0
 18 32  1  0  0  0  0
 19 34  1  0  0  0  0
 20 32  1  0  0  0  0
 20 33  2  0  0  0  0
 20 36  1  0  0  0  0
 21 23  2  0  0  0  0
 21 41  1  0  0  0  0
 22 24  2  0  0  0  0
 22 42  1  0  0  0  0
 23 50  1  0  0  0  0
 24 43  1  0  0  0  0
 25 53  1  0  0  0  0
 26 79  1  0  0  0  0
 27 81  1  0  0  0  0
 28 31  2  0  0  0  0
 28 79  1  0  0  0  0
 29 80  1  0  0  0  0
 30 82  1  0  0  0  0
 31 83  1  0  0  0  0
 32 65  2  0  0  0  0
 33 66  1  0  0  0  0
 33 69  1  0  0  0  0
 34 35  2  0  0  0  0
 35 37  1  0  0  0  0
 36 70  1  0  0  0  0
 36 74  2  0  0  0  0
 37 67  1  0  0  0  0
 37 75  2  0  0  0  0
 38 51  1  0  0  0  0
 38 71  1  0  0  0  0
 38 76  2  0  0  0  0
 39 61  1  0  0  0  0
 39 68  1  0  0  0  0
 39 77  2  0  0  0  0
 40 62  1  0  0  0  0
 40 72  1  0  0  0  0
 40 78  2  0  0  0  0
 41 44  1  0  0  0  0
 42 51  1  0  0  0  0
 43 68  1  0  0  0  0
 44 46  1  0  0  0  0
 45 47  1  0  0  0  0
 45 48  1  0  0  0  0
 46 50  1  0  0  0  0
 47 52  1  0  0  0  0
 48 67  1  0  0  0  0
 49 52  1  0  0  0  0
 49 67  1  0  0  0  0
 50 71  1  0  0  0  0
 51 68  1  0  0  0  0
 52 66  1  0  0  0  0
 54 62  1  0  0  0  0
 55 63  1  0  0  0  0
 56 64  1  0  0  0  0
 57 64  1  0  0  0  0
 58 64  1  0  0  0  0
 59 73  1  0  0  0  0
 60 63  1  0  0  0  0
 60 80  1  0  0  0  0
 61 64  1  0  0  0  0
 61 72  1  0  0  0  0
 62 73  1  0  0  0  0
 63 81  1  0  0  0  0
 65 66  1  0  0  0  0
M  CHG  1  73   1
M  ISO  4  35 100  37 100  63 101  81 101
M  END
> <Batch ID>
0126

> <Smiles>
CNC(C)C(=O)NC(C(=O)N1Cc2cc([101O:1][101CH:1](C)COc3cc(C)cc(C=[100CH:0][100C:0](=O)N4CCCC(n5nc(-c6ccc(Oc7ccc(F)cc7F)cc6)c(C(N)=O)c5N)C4)c3)ccc2CC1C(=O)NC1CCCc2ccccc21)C(C)(C)C

> <Shape>
0.245

> <Color>
0.102

> <Negative vol penalty>
0.000

$$$$

  -OEChem-04052302113D

 83 91  0     1  0  0  0  0  0999 V2000
  -28.7445  -21.7419   36.9697 C   0  0  0  0  0  0  0  0  0  0  0  0
  -28.6522  -21.5070   35.6015 C   0  0  0  0  0  0  0  0  0  0  0  0
  -23.0754   -9.8687   19.9399 C   0  0  0  0  0  0  0  0  0  0  0  0
  -23.8352   -9.8744   22.2333 C   0  0  0  0  0  0  0  0  0  0  0  0
  -28.3695  -20.7485   37.8732 C   0  0  0  0  0  0  0  0  0  0  0  0
  -28.1857  -20.2780   35.1362 C   0  0  0  0  0  0  0  0  0  0  0  0
  -24.8448  -20.7707   31.3626 C   0  0  0  0  0  0  0  0  0  0  0  0
  -32.6527  -17.4897   23.4566 C   0  0  0  0  0  0  0  0  0  0  0  0
  -32.0649  -16.6058   22.5519 C   0  0  0  0  0  0  0  0  0  0  0  0
  -22.3311   -8.7157   20.1893 C   0  0  0  0  0  0  0  0  0  0  0  0
  -23.0909   -8.7214   22.4828 C   0  0  0  0  0  0  0  0  0  0  0  0
  -25.3530  -21.0498   30.0946 C   0  0  0  0  0  0  0  0  0  0  0  0
  -19.8624   -7.9245   23.0848 C   0  0  0  0  0  0  0  0  0  0  0  0
  -19.1054   -7.8844   24.2556 C   0  0  0  0  0  0  0  0  0  0  0  0
  -29.8811  -17.4551   23.1409 C   0  0  0  0  0  0  0  0  0  0  0  0
  -25.1253  -18.7235   29.4980 C   0  0  0  0  0  0  0  0  0  0  0  0
  -20.3461   -5.9461   24.9913 C   0  0  0  0  0  0  0  0  0  0  0  0
  -23.8275  -10.4480   20.9619 C   0  0  0  0  0  0  0  0  0  0  0  0
  -30.4690  -18.3391   24.0457 C   0  0  0  0  0  0  0  0  0  0  0  0
  -24.1703  -12.9731   20.8430 C   0  0  0  0  0  0  0  0  0  0  0  0
  -27.8890  -19.5102   37.4188 C   0  0  0  0  0  0  0  0  0  0  0  0
  -24.4826  -19.4619   31.7120 C   0  0  0  0  0  0  0  0  0  0  0  0
  -27.8051  -19.2667   36.0346 C   0  0  0  0  0  0  0  0  0  0  0  0
  -24.6104  -18.4310   30.7702 C   0  0  0  0  0  0  0  0  0  0  0  0
  -31.8548  -18.3564   24.2036 C   0  0  0  0  0  0  0  0  0  0  0  0
  -30.6791  -16.5885   22.3940 C   0  0  0  0  0  0  0  0  0  0  0  0
  -22.3388   -8.1421   21.4608 C   0  0  0  0  0  0  0  0  0  0  0  0
  -25.4960  -20.0256   29.1631 C   0  0  0  0  0  0  0  0  0  0  0  0
  -20.8612   -6.9755   22.8671 C   0  0  0  0  0  0  0  0  0  0  0  0
  -19.3472   -6.8952   25.2089 C   0  0  0  0  0  0  0  0  0  0  0  0
  -21.1031   -5.9863   23.8204 C   0  0  0  0  0  0  0  0  0  0  0  0
  -24.5971  -11.6388   20.7047 C   0  0  0  0  0  0  0  0  0  0  0  0
  -25.2627  -13.7224   20.4801 C   0  0  0  0  0  0  0  0  0  0  0  0
  -29.5986  -19.2413   24.8202 C   0  0  0  0  0  0  0  0  0  0  0  0
  -28.6213  -18.8354   25.6428 C   0  0  0  0  0  0  0  0  0  0  0  0
  -22.9000  -13.4892   21.2621 C   0  0  0  0  0  0  0  0  0  0  0  0
  -27.7879  -19.8323   26.3757 C   0  0  0  0  0  0  0  0  0  0  0  0
  -25.4605  -17.3717   33.8980 C   0  0  0  0  0  0  0  0  0  0  0  0
  -22.9619  -15.6284   32.7843 C   0  0  0  0  0  0  0  0  0  0  0  0
  -20.8087  -14.9604   30.2223 C   0  0  0  0  0  0  0  0  0  0  0  0
  -30.7293  -14.7659   20.6556 C   0  0  0  0  0  0  0  0  0  0  0  0
  -27.5403  -18.4502   38.4333 C   0  0  0  0  0  0  0  0  0  0  0  0
  -23.9110  -19.1820   33.0748 C   0  0  0  0  0  0  0  0  0  0  0  0
  -24.2171  -17.0124   31.0889 C   0  0  0  0  0  0  0  0  0  0  0  0
  -26.7024  -17.3103   37.8598 C   0  0  0  0  0  0  0  0  0  0  0  0
  -29.6141  -12.3535   18.2862 C   0  0  0  0  0  0  0  0  0  0  0  0
  -27.2876  -16.8320   36.5348 C   0  0  0  0  0  0  0  0  0  0  0  0
  -28.1744  -12.0623   18.7155 C   0  0  0  0  0  0  0  0  0  0  0  0
  -30.5293  -12.5815   19.4880 C   0  0  0  0  0  0  0  0  0  0  0  0
  -28.6225  -13.3060   20.8694 C   0  0  0  0  0  0  0  0  0  0  0  0
  -27.2805  -17.9554   35.4910 C   0  0  1  0  0  0  0  0  0  0  0  0
  -24.0561  -17.7228   33.4955 C   0  0  1  0  0  0  0  0  0  0  0  0
  -27.6497  -13.1336   19.6915 C   0  0  2  0  0  0  0  0  0  0  0  0
  -32.5189  -19.2900   25.1640 C   0  0  0  0  0  0  0  0  0  0  0  0
  -18.9008  -13.4562   29.5939 C   0  0  0  0  0  0  0  0  0  0  0  0
  -24.9201  -13.3282   32.3548 C   0  0  0  0  0  0  0  0  0  0  0  0
  -23.2103  -12.2390   30.8856 C   0  0  0  0  0  0  0  0  0  0  0  0
  -22.7034  -12.6498   33.2933 C   0  0  0  0  0  0  0  0  0  0  0  0
  -18.9686  -17.2507   29.8649 C   0  0  0  0  0  0  0  0  0  0  0  0
  -26.7165  -19.2517   27.2743 C   0  0  0  0  0  0  0  0  0  1  0  0
  -22.7759  -14.6041   31.6911 C   0  0  1  0  0  0  0  0  0  0  0  0
  -19.2998  -14.7966   30.1913 C   0  0  2  0  0  0  0  0  0  0  0  0
  -23.4118  -13.2316   32.0505 C   0  0  0  0  0  0  0  0  0  0  0  0
  -25.8619  -11.5426   20.2865 N   0  0  0  0  0  0  0  0  0  0  0  0
  -26.2393  -12.8261   20.1587 N   0  0  0  0  0  0  0  0  0  0  0  0
  -23.6690  -16.7882   32.4368 N   0  0  0  0  0  0  0  0  0  0  0  0
  -29.9706  -13.6121   20.3658 N   0  0  0  0  0  0  0  0  0  0  0  0
  -25.4736  -15.0538   20.4077 N   0  0  0  0  0  0  0  0  0  0  0  0
  -21.8877  -12.5803   21.5989 N   0  0  0  0  0  0  0  0  0  0  0  0
  -30.0822  -15.6908   21.4743 N   0  0  0  0  0  0  0  0  0  0  0  0
  -25.9518  -18.1289   34.9443 N   0  0  0  0  0  0  0  0  0  0  0  0
  -21.3427  -14.5473   31.4245 N   0  0  0  0  0  0  0  0  0  0  0  0
  -18.6780  -15.8782   29.3762 N   0  3  0  0  0  0  0  0  0  0  0  0
  -22.6642  -14.7199   21.3200 O   0  0  0  0  0  0  0  0  0  0  0  0
  -27.9621  -21.0421   26.2562 O   0  0  0  0  0  0  0  0  0  0  0  0
  -26.0538  -16.4789   33.3044 O   0  0  0  0  0  0  0  0  0  0  0  0
  -22.4908  -15.4108   33.9034 O   0  0  0  0  0  0  0  0  0  0  0  0
  -21.4499  -15.4065   29.2734 O   0  0  0  0  0  0  0  0  0  0  0  0
  -31.8585  -14.9344   20.1881 O   0  0  0  0  0  0  0  0  0  0  0  0
  -21.6125   -7.0172   21.7046 O   0  0  0  0  0  0  0  0  0  0  0  0
  -25.9924  -20.2951   27.9250 O   0  0  0  0  0  0  0  0  0  1  0  0
  -18.6212   -6.8577   26.3339 F   0  0  0  0  0  0  0  0  0  0  0  0
  -22.0621   -5.0726   23.6174 F   0  0  0  0  0  0  0  0  0  0  0  0
  1  2  1  0  0  0  0
  1  5  2  0  0  0  0
  2  6  2  0  0  0  0
  3 10  2  0  0  0  0
  3 18  1  0  0  0  0
  4 11  1  0  0  0  0
  4 18  2  0  0  0  0
  5 21  1  0  0  0  0
  6 23  1  0  0  0  0
  7 12  2  0  0  0  0
  7 22  1  0  0  0  0
  8  9  2  0  0  0  0
  8 25  1  0  0  0  0
  9 26  1  0  0  0  0
 10 27  1  0  0  0  0
 11 27  2  0  0  0  0
 12 28  1  0  0  0  0
 13 14  2  0  0  0  0
 13 29  1  0  0  0  0
 14 30  1  0  0  0  0
 15 19  1  0  0  0  0
 15 26  2  0  0  0  0
 16 24  1  0  0  0  0
 16 28  2  0  0  0  0
 17 30  2  0  0  0  0
 17 31  1  0  0  0  0
 18 32  1  0  0  0  0
 19 25  2  0  0  0  0
 19 34  1  0  0  0  0
 20 32  1  0  0  0  0
 20 33  2  0  0  0  0
 20 36  1  0  0  0  0
 21 23  2  0  0  0  0
 21 42  1  0  0  0  0
 22 24  2  0  0  0  0
 22 43  1  0  0  0  0
 23 51  1  0  0  0  0
 24 44  1  0  0  0  0
 25 54  1  0  0  0  0
 26 70  1  0  0  0  0
 27 80  1  0  0  0  0
 28 81  1  0  0  0  0
 29 31  2  0  0  0  0
 29 80  1  0  0  0  0
 30 82  1  0  0  0  0
 31 83  1  0  0  0  0
 32 64  2  0  0  0  0
 33 65  1  0  0  0  0
 33 68  1  0  0  0  0
 34 35  2  0  0  0  0
 35 37  1  0  0  0  0
 36 69  1  0  0  0  0
 36 74  2  0  0  0  0
 37 60  1  0  0  0  0
 37 75  2  0  0  0  0
 38 52  1  0  0  0  0
 38 71  1  0  0  0  0
 38 76  2  0  0  0  0
 39 61  1  0  0  0  0
 39 66  1  0  0  0  0
 39 77  2  0  0  0  0
 40 62  1  0  0  0  0
 40 72  1  0  0  0  0
 40 78  2  0  0  0  0
 41 67  1  0  0  0  0
 41 70  1  0  0  0  0
 41 79  2  0  0  0  0
 42 45  1  0  0  0  0
 43 52  1  0  0  0  0
 44 66  1  0  0  0  0
 45 47  1  0  0  0  0
 46 48  1  0  0  0  0
 46 49  1  0  0  0  0
 47 51  1  0  0  0  0
 48 53  1  0  0  0  0
 49 67  1  0  0  0  0
 50 53  1  0  0  0  0
 50 67  1  0  0  0  0
 51 71  1  0  0  0  0
 52 66  1  0  0  0  0
 53 65  1  0  0  0  0
 55 62  1  0  0  0  0
 56 63  1  0  0  0  0
 57 63  1  0  0  0  0
 58 63  1  0  0  0  0
 59 73  1  0  0  0  0
 60 81  1  0  0  0  0
 61 63  1  0  0  0  0
 61 72  1  0  0  0  0
 62 73  1  0  0  0  0
 64 65  1  0  0  0  0
M  CHG  1  73   1
M  ISO  4  41 100  60 101  70 100  81 101
M  END
> <Batch ID>
0126

> <Smiles>
CNC(C)C(=O)NC(C(=O)N1Cc2cc([101O:1][101CH2:1]C(=O)C=Cc3cc([100NH:0][100C:0](=O)N4CCCC(n5nc(-c6ccc(Oc7ccc(F)cc7F)cc6)c(C(N)=O)c5N)C4)ccc3C)ccc2CC1C(=O)NC1CCCc2ccccc21)C(C)(C)C

> <Shape>
0.166

> <Color>
0.196

> <Negative vol penalty>
0.000

$$$$

  -OEChem-04052302113D

 83 91  0     1  0  0  0  0  0999 V2000
  -29.0724  -36.8645   20.3638 C   0  0  0  0  0  0  0  0  0  0  0  0
  -29.3341  -35.5113   20.1751 C   0  0  0  0  0  0  0  0  0  0  0  0
  -23.7534   -9.1362   19.7895 C   0  0  0  0  0  0  0  0  0  0  0  0
  -23.2929  -10.4382   21.7719 C   0  0  0  0  0  0  0  0  0  0  0  0
  -28.1347  -37.2662   21.3142 C   0  0  0  0  0  0  0  0  0  0  0  0
  -28.6589  -34.5588   20.9376 C   0  0  0  0  0  0  0  0  0  0  0  0
  -26.8786  -28.9846   19.1307 C   0  0  0  0  0  0  0  0  0  0  0  0
  -23.0978   -8.0428   20.3553 C   0  0  0  0  0  0  0  0  0  0  0  0
  -22.6372   -9.3448   22.3377 C   0  0  0  0  0  0  0  0  0  0  0  0
  -27.4386  -27.7195   19.3027 C   0  0  0  0  0  0  0  0  0  0  0  0
  -23.4832   -6.4596   23.8841 C   0  0  0  0  0  0  0  0  0  0  0  0
  -23.7660   -6.1519   25.2148 C   0  0  0  0  0  0  0  0  0  0  0  0
  -29.8101  -20.3752   19.1878 C   0  0  0  0  0  0  0  0  0  0  0  0
  -27.6954  -20.6571   20.3216 C   0  0  0  0  0  0  0  0  0  0  0  0
  -26.0142  -27.3555   21.2152 C   0  0  0  0  0  0  0  0  0  0  0  0
  -21.4406   -6.4763   25.7841 C   0  0  0  0  0  0  0  0  0  0  0  0
  -23.8511  -10.3339   20.4978 C   0  0  0  0  0  0  0  0  0  0  0  0
  -28.7993  -21.2068   19.6698 C   0  0  0  0  0  0  0  0  0  0  0  0
  -23.9617  -12.4764   19.1175 C   0  0  0  0  0  0  0  0  0  0  0  0
  -27.4406  -36.3178   22.0820 C   0  0  0  0  0  0  0  0  0  0  0  0
  -25.8882  -29.4498   20.0078 C   0  0  0  0  0  0  0  0  0  0  0  0
  -27.7119  -34.9482   21.9001 C   0  0  0  0  0  0  0  0  0  0  0  0
  -25.4413  -28.6259   21.0507 C   0  0  0  0  0  0  0  0  0  0  0  0
  -29.7170  -18.9938   19.3575 C   0  0  0  0  0  0  0  0  0  0  0  0
  -27.6023  -19.2757   20.4914 C   0  0  0  0  0  0  0  0  0  0  0  0
  -28.6131  -18.4441   20.0093 C   0  0  0  0  0  0  0  0  0  0  0  0
  -22.5397   -8.1470   21.6293 C   0  0  0  0  0  0  0  0  0  0  0  0
  -27.0085  -26.9058   20.3468 C   0  0  0  0  0  0  0  0  0  0  0  0
  -22.1790   -6.7758   23.5033 C   0  0  0  0  0  0  0  0  0  0  0  0
  -22.7448   -6.1602   26.1648 C   0  0  0  0  0  0  0  0  0  0  0  0
  -21.1577   -6.7841   24.4534 C   0  0  0  0  0  0  0  0  0  0  0  0
  -24.5287  -11.4636   19.9141 C   0  0  0  0  0  0  0  0  0  0  0  0
  -25.0138  -13.3068   18.8175 C   0  0  0  0  0  0  0  0  0  0  0  0
  -28.8981  -22.6649   19.4897 C   0  0  0  0  0  0  0  0  0  0  0  0
  -27.8686  -23.5239   19.5507 C   0  0  0  0  0  0  0  0  0  0  0  0
  -22.6052  -12.6510   18.6871 C   0  0  0  0  0  0  0  0  0  0  0  0
  -25.6549  -31.8820   22.0409 C   0  0  0  0  0  0  0  0  0  0  0  0
  -22.5968  -30.8395   22.3301 C   0  0  0  0  0  0  0  0  0  0  0  0
  -20.3757  -28.2633   22.0535 C   0  0  0  0  0  0  0  0  0  0  0  0
  -29.5692  -16.1342   20.3200 C   0  0  0  0  0  0  0  0  0  0  0  0
  -26.4705  -36.8019   23.1303 C   0  0  0  0  0  0  0  0  0  0  0  0
  -25.2752  -30.8064   19.7926 C   0  0  0  0  0  0  0  0  0  0  0  0
  -24.3664  -29.0704   22.0074 C   0  0  0  0  0  0  0  0  0  0  0  0
  -25.5258  -35.7141   23.6347 C   0  0  0  0  0  0  0  0  0  0  0  0
  -29.9917  -12.6949   19.5014 C   0  0  0  0  0  0  0  0  0  0  0  0
  -26.3001  -34.4375   23.9475 C   0  0  0  0  0  0  0  0  0  0  0  0
  -28.5615  -12.1513   19.4703 C   0  0  0  0  0  0  0  0  0  0  0  0
  -30.1771  -13.7410   20.5992 C   0  0  0  0  0  0  0  0  0  0  0  0
  -27.7787  -14.3012   20.5436 C   0  0  0  0  0  0  0  0  0  0  0  0
  -26.9820  -33.8840   22.6904 C   0  0  1  0  0  0  0  0  0  0  0  0
  -24.6384  -31.3812   21.0542 C   0  0  1  0  0  0  0  0  0  0  0  0
  -27.5263  -13.2917   19.4119 C   0  0  2  0  0  0  0  0  0  0  0  0
  -30.8156  -18.1289   18.8301 C   0  0  0  0  0  0  0  0  0  0  0  0
  -25.4022  -18.1031   20.2248 C   0  0  0  0  0  0  0  0  0  0  0  0
  -17.9530  -27.7058   22.3957 C   0  0  0  0  0  0  0  0  0  0  0  0
  -23.0483  -30.7397   25.3461 C   0  0  0  0  0  0  0  0  0  0  0  0
  -20.9996  -29.3130   25.5353 C   0  0  0  0  0  0  0  0  0  0  0  0
  -20.8200  -31.6398   24.6540 C   0  0  0  0  0  0  0  0  0  0  0  0
  -20.0078  -27.5878   19.1957 C   0  0  0  0  0  0  0  0  0  0  0  0
  -26.4076  -18.7165   21.1940 C   0  0  0  0  0  0  0  0  0  0  0  0
  -28.0163  -24.9978   19.3470 C   0  0  0  0  0  0  0  0  0  1  0  0
  -21.8843  -29.8500   23.2201 C   0  0  1  0  0  0  0  0  0  0  0  0
  -19.0054  -28.1799   21.4056 C   0  0  2  0  0  0  0  0  0  0  0  0
  -21.7097  -30.3777   24.6722 C   0  0  0  0  0  0  0  0  0  0  0  0
  -25.8393  -11.6331   20.1079 N   0  0  0  0  0  0  0  0  0  0  0  0
  -26.1046  -12.7620   19.4286 N   0  0  0  0  0  0  0  0  0  0  0  0
  -23.8024  -30.4075   21.7594 N   0  0  0  0  0  0  0  0  0  0  0  0
  -29.1643  -14.7919   20.4781 N   0  0  0  0  0  0  0  0  0  0  0  0
  -25.1031  -14.4425   18.0933 N   0  0  0  0  0  0  0  0  0  0  0  0
  -21.6508  -11.7051   19.0857 N   0  0  0  0  0  0  0  0  0  0  0  0
  -28.5187  -17.0409   20.1823 N   0  0  0  0  0  0  0  0  0  0  0  0
  -26.0195  -33.2014   21.8524 N   0  0  0  0  0  0  0  0  0  0  0  0
  -20.6310  -29.5250   22.5477 N   0  0  0  0  0  0  0  0  0  0  0  0
  -19.0323  -27.2300   20.2575 N   0  3  0  0  0  0  0  0  0  0  0  0
  -22.2532  -13.6082   17.9568 O   0  0  0  0  0  0  0  0  0  0  0  0
  -26.0761  -31.1276   22.9099 O   0  0  0  0  0  0  0  0  0  0  0  0
  -22.0984  -31.9521   22.1423 O   0  0  0  0  0  0  0  0  0  0  0  0
  -21.1414  -27.3041   22.1184 O   0  0  0  0  0  0  0  0  0  0  0  0
  -30.7605  -16.4523   20.2802 O   0  0  0  0  0  0  0  0  0  0  0  0
  -21.8996   -7.0804   22.1816 O   0  0  0  0  0  0  0  0  0  0  0  0
  -27.5539  -25.6708   20.5173 O   0  0  0  0  0  0  0  0  0  1  0  0
  -23.0163   -5.8632   27.4424 F   0  0  0  0  0  0  0  0  0  0  0  0
  -19.9027   -7.0859   24.0934 F   0  0  0  0  0  0  0  0  0  0  0  0
  1  2  1  0  0  0  0
  1  5  2  0  0  0  0
  2  6  2  0  0  0  0
  3  8  2  0  0  0  0
  3 17  1  0  0  0  0
  4  9  1  0  0  0  0
  4 17  2  0  0  0  0
  5 20  1  0  0  0  0
  6 22  1  0  0  0  0
  7 10  2  0  0  0  0
  7 21  1  0  0  0  0
  8 27  1  0  0  0  0
  9 27  2  0  0  0  0
 10 28  1  0  0  0  0
 11 12  2  0  0  0  0
 11 29  1  0  0  0  0
 12 30  1  0  0  0  0
 13 18  1  0  0  0  0
 13 24  2  0  0  0  0
 14 18  2  0  0  0  0
 14 25  1  0  0  0  0
 15 23  1  0  0  0  0
 15 28  2  0  0  0  0
 16 30  2  0  0  0  0
 16 31  1  0  0  0  0
 17 32  1  0  0  0  0
 18 34  1  0  0  0  0
 19 32  1  0  0  0  0
 19 33  2  0  0  0  0
 19 36  1  0  0  0  0
 20 22  2  0  0  0  0
 20 41  1  0  0  0  0
 21 23  2  0  0  0  0
 21 42  1  0  0  0  0
 22 50  1  0  0  0  0
 23 43  1  0  0  0  0
 24 26  1  0  0  0  0
 24 53  1  0  0  0  0
 25 26  2  0  0  0  0
 25 60  1  0  0  0  0
 26 71  1  0  0  0  0
 27 80  1  0  0  0  0
 28 81  1  0  0  0  0
 29 31  2  0  0  0  0
 29 80  1  0  0  0  0
 30 82  1  0  0  0  0
 31 83  1  0  0  0  0
 32 65  2  0  0  0  0
 33 66  1  0  0  0  0
 33 69  1  0  0  0  0
 34 35  2  0  0  0  0
 35 61  1  0  0  0  0
 36 70  1  0  0  0  0
 36 75  2  0  0  0  0
 37 51  1  0  0  0  0
 37 72  1  0  0  0  0
 37 76  2  0  0  0  0
 38 62  1  0  0  0  0
 38 67  1  0  0  0  0
 38 77  2  0  0  0  0
 39 63  1  0  0  0  0
 39 73  1  0  0  0  0
 39 78  2  0  0  0  0
 40 68  1  0  0  0  0
 40 71  1  0  0  0  0
 40 79  2  0  0  0  0
 41 44  1  0  0  0  0
 42 51  1  0  0  0  0
 43 67  1  0  0  0  0
 44 46  1  0  0  0  0
 45 47  1  0  0  0  0
 45 48  1  0  0  0  0
 46 50  1  0  0  0  0
 47 52  1  0  0  0  0
 48 68  1  0  0  0  0
 49 52  1  0  0  0  0
 49 68  1  0  0  0  0
 50 72  1  0  0  0  0
 51 67  1  0  0  0  0
 52 66  1  0  0  0  0
 54 60  1  0  0  0  0
 55 63  1  0  0  0  0
 56 64  1  0  0  0  0
 57 64  1  0  0  0  0
 58 64  1  0  0  0  0
 59 74  1  0  0  0  0
 61 81  1  0  0  0  0
 62 64  1  0  0  0  0
 62 73  1  0  0  0  0
 63 74  1  0  0  0  0
 65 66  1  0  0  0  0
M  CHG  1  74   1
M  ISO  4  40 100  61 101  71 100  81 101
M  END
> <Batch ID>
0126

> <Smiles>
CCc1cc(C=C[101CH2:1][101O:1]c2ccc3c(c2)CN(C(=O)C(NC(=O)C(C)NC)C(C)(C)C)C(C(=O)NC2CCCc4ccccc42)C3)cc(C)c1[100NH:0][100C:0](=O)N1CCCC(n2nc(-c3ccc(Oc4ccc(F)cc4F)cc3)c(C(N)=O)c2N)C1

> <Shape>
0.326

> <Color>
0.114

> <Negative vol penalty>
0.000

$$$$

  -OEChem-04052302113D

 86 94  0     1  0  0  0  0  0999 V2000
  -17.1681  -27.2694   20.1590 C   0  0  0  0  0  0  0  0  0  0  0  0
  -18.4701  -26.8838   19.8561 C   0  0  0  0  0  0  0  0  0  0  0  0
  -26.3084  -11.0270   21.2138 C   0  0  0  0  0  0  0  0  0  0  0  0
  -25.4843  -12.5889   19.5650 C   0  0  0  0  0  0  0  0  0  0  0  0
  -16.8658  -28.6186   20.3386 C   0  0  0  0  0  0  0  0  0  0  0  0
  -19.4703  -27.8474   19.7315 C   0  0  0  0  0  0  0  0  0  0  0  0
  -25.3609  -27.2635   21.3018 C   0  0  0  0  0  0  0  0  0  0  0  0
  -24.9979  -10.7317   21.5890 C   0  0  0  0  0  0  0  0  0  0  0  0
  -24.1737  -12.2935   19.9402 C   0  0  0  0  0  0  0  0  0  0  0  0
  -26.5051  -26.9740   20.5598 C   0  0  0  0  0  0  0  0  0  0  0  0
  -22.4387   -8.8504   20.4296 C   0  0  0  0  0  0  0  0  0  0  0  0
  -22.1013   -7.5083   20.6044 C   0  0  0  0  0  0  0  0  0  0  0  0
  -32.9214  -23.0894   15.8955 C   0  0  0  0  0  0  0  0  0  0  0  0
  -31.5656  -22.1153   17.6418 C   0  0  0  0  0  0  0  0  0  0  0  0
  -26.9760  -29.3328   20.3769 C   0  0  0  0  0  0  0  0  0  0  0  0
  -32.9333  -20.6984   16.2422 C   0  0  0  0  0  0  0  0  0  0  0  0
  -21.5202   -7.9543   22.9067 C   0  0  0  0  0  0  0  0  0  0  0  0
  -26.5517  -11.9557   20.2018 C   0  0  0  0  0  0  0  0  0  0  0  0
  -32.0136  -23.2370   16.9441 C   0  0  0  0  0  0  0  0  0  0  0  0
  -28.6713  -11.6196   18.8227 C   0  0  0  0  0  0  0  0  0  0  0  0
  -17.8648  -29.5984   20.2257 C   0  0  0  0  0  0  0  0  0  0  0  0
  -25.0091  -28.5926   21.5781 C   0  0  0  0  0  0  0  0  0  0  0  0
  -19.1808  -29.2111   19.9085 C   0  0  0  0  0  0  0  0  0  0  0  0
  -25.8282  -29.6365   21.1248 C   0  0  0  0  0  0  0  0  0  0  0  0
  -33.3812  -21.8201   15.5445 C   0  0  0  0  0  0  0  0  0  0  0  0
  -32.0254  -20.8460   17.2909 C   0  0  0  0  0  0  0  0  0  0  0  0
  -23.9305  -11.3648   20.9523 C   0  0  0  0  0  0  0  0  0  0  0  0
  -27.3114  -28.0088   20.0948 C   0  0  0  0  0  0  0  0  0  0  0  0
  -22.3169   -9.7444   21.4934 C   0  0  0  0  0  0  0  0  0  0  0  0
  -21.6420   -7.0602   21.8429 C   0  0  0  0  0  0  0  0  0  0  0  0
  -21.8577   -9.2964   22.7319 C   0  0  0  0  0  0  0  0  0  0  0  0
  -27.9052  -12.2616   19.8141 C   0  0  0  0  0  0  0  0  0  0  0  0
  -29.8772  -12.2769   18.8414 C   0  0  0  0  0  0  0  0  0  0  0  0
  -31.5270  -24.5776   17.3149 C   0  0  0  0  0  0  0  0  0  0  0  0
  -30.4078  -24.8149   18.0130 C   0  0  0  0  0  0  0  0  0  0  0  0
  -28.3239  -10.5269   17.9619 C   0  0  0  0  0  0  0  0  0  0  0  0
  -29.9966  -26.2137   18.3291 C   0  0  0  0  0  0  0  0  0  0  0  0
  -22.5255  -30.4479   20.8759 C   0  0  0  0  0  0  0  0  0  0  0  0
  -31.4036  -17.8110   20.6177 C   0  0  0  0  0  0  0  0  0  0  0  0
  -24.0305  -32.5421   22.8435 C   0  0  0  0  0  0  0  0  0  0  0  0
  -30.6727  -19.6728   19.0603 C   0  0  0  0  0  0  0  0  0  0  0  0
  -26.9453  -33.5862   24.2791 C   0  0  0  0  0  0  0  0  0  0  0  0
  -17.4804  -31.0484   20.3819 C   0  0  0  0  0  0  0  0  0  0  0  0
  -23.7860  -28.8871   22.4026 C   0  0  0  0  0  0  0  0  0  0  0  0
  -25.5055  -31.0794   21.4117 C   0  0  0  0  0  0  0  0  0  0  0  0
  -18.6737  -31.9745   20.6021 C   0  0  0  0  0  0  0  0  0  0  0  0
  -32.7826  -14.7049   21.7538 C   0  0  0  0  0  0  0  0  0  0  0  0
  -19.7856  -31.6583   19.6069 C   0  0  0  0  0  0  0  0  0  0  0  0
  -31.7441  -13.6711   21.3201 C   0  0  0  0  0  0  0  0  0  0  0  0
  -32.1252  -16.0195   22.1619 C   0  0  0  0  0  0  0  0  0  0  0  0
  -30.1959  -15.5729   20.6786 C   0  0  0  0  0  0  0  0  0  0  0  0
  -20.2982  -30.2246   19.7895 C   0  0  1  0  0  0  0  0  0  0  0  0
  -23.2449  -30.2970   22.1864 C   0  0  1  0  0  0  0  0  0  0  0  0
  -30.8201  -14.2400   20.2288 C   0  0  2  0  0  0  0  0  0  0  0  0
  -34.3515  -21.6616   14.4229 C   0  0  0  0  0  0  0  0  0  0  0  0
  -27.8663  -35.3476   25.8109 C   0  0  0  0  0  0  0  0  0  0  0  0
  -23.8683  -34.5875   20.5852 C   0  0  0  0  0  0  0  0  0  0  0  0
  -25.5940  -35.9468   21.7861 C   0  0  0  0  0  0  0  0  0  0  0  0
  -23.3865  -35.5058   22.8610 C   0  0  0  0  0  0  0  0  0  0  0  0
  -27.8477  -31.5679   26.2467 C   0  0  0  0  0  0  0  0  0  0  0  0
  -28.7147  -26.3530   19.1226 C   0  0  0  0  0  0  0  0  0  1  0  0
  -30.4550  -18.2491   19.5304 C   0  0  0  0  0  0  0  0  0  0  0  0
  -25.0654  -33.6260   22.6609 C   0  0  1  0  0  0  0  0  0  0  0  0
  -27.2901  -33.9436   25.7136 C   0  0  2  0  0  0  0  0  0  0  0  0
  -24.4839  -34.8895   21.9661 C   0  0  0  0  0  0  0  0  0  0  0  0
  -28.5688  -13.2507   20.4186 N   0  0  0  0  0  0  0  0  0  0  0  0
  -29.7646  -13.2351   19.8054 N   0  0  0  0  0  0  0  0  0  0  0  0
  -24.2957  -31.3165   22.2164 N   0  0  0  0  0  0  0  0  0  0  0  0
  -31.2384  -16.5155   21.1079 N   0  0  0  0  0  0  0  0  0  0  0  0
  -31.0123  -12.1229   18.1271 N   0  0  0  0  0  0  0  0  0  0  0  0
  -27.0433   -9.9688   18.0744 N   0  0  0  0  0  0  0  0  0  0  0  0
  -31.5766  -19.7238   17.9880 N   0  0  0  0  0  0  0  0  0  0  0  0
  -21.1786  -30.1448   20.9354 N   0  0  0  0  0  0  0  0  0  0  0  0
  -25.6307  -33.8774   23.9821 N   0  0  0  0  0  0  0  0  0  0  0  0
  -28.2924  -32.9853   26.2596 N   0  3  0  0  0  0  0  0  0  0  0  0
  -29.1311  -10.0486   17.1293 O   0  0  0  0  0  0  0  0  0  0  0  0
  -30.6563  -27.1848   17.9686 O   0  0  0  0  0  0  0  0  0  0  0  0
  -23.1460  -30.8138   19.8846 O   0  0  0  0  0  0  0  0  0  0  0  0
  -32.2670  -18.5972   21.0162 O   0  0  0  0  0  0  0  0  0  0  0  0
  -23.0274  -32.7721   23.5236 O   0  0  0  0  0  0  0  0  0  0  0  0
  -30.1025  -20.6212   19.5899 O   0  0  0  0  0  0  0  0  0  0  0  0
  -27.7616  -33.1009   23.4989 O   0  0  0  0  0  0  0  0  0  0  0  0
  -22.6516  -11.0767   21.3180 O   0  0  0  0  0  0  0  0  0  0  0  0
  -28.4285  -27.7290   19.3698 O   0  0  0  0  0  0  0  0  0  1  0  0
  -21.3166   -5.7717   22.0102 F   0  0  0  0  0  0  0  0  0  0  0  0
  -21.7375  -10.1508   23.7572 F   0  0  0  0  0  0  0  0  0  0  0  0
  1  2  1  0  0  0  0
  1  5  2  0  0  0  0
  2  6  2  0  0  0  0
  3  8  2  0  0  0  0
  3 18  1  0  0  0  0
  4  9  1  0  0  0  0
  4 18  2  0  0  0  0
  5 21  1  0  0  0  0
  6 23  1  0  0  0  0
  7 10  2  0  0  0  0
  7 22  1  0  0  0  0
  8 27  1  0  0  0  0
  9 27  2  0  0  0  0
 10 28  1  0  0  0  0
 11 12  2  0  0  0  0
 11 29  1  0  0  0  0
 12 30  1  0  0  0  0
 13 19  1  0  0  0  0
 13 25  2  0  0  0  0
 14 19  2  0  0  0  0
 14 26  1  0  0  0  0
 15 24  1  0  0  0  0
 15 28  2  0  0  0  0
 16 25  1  0  0  0  0
 16 26  2  0  0  0  0
 17 30  2  0  0  0  0
 17 31  1  0  0  0  0
 18 32  1  0  0  0  0
 19 34  1  0  0  0  0
 20 32  1  0  0  0  0
 20 33  2  0  0  0  0
 20 36  1  0  0  0  0
 21 23  2  0  0  0  0
 21 43  1  0  0  0  0
 22 24  2  0  0  0  0
 22 44  1  0  0  0  0
 23 52  1  0  0  0  0
 24 45  1  0  0  0  0
 25 55  1  0  0  0  0
 26 72  1  0  0  0  0
 27 83  1  0  0  0  0
 28 84  1  0  0  0  0
 29 31  2  0  0  0  0
 29 83  1  0  0  0  0
 30 85  1  0  0  0  0
 31 86  1  0  0  0  0
 32 66  2  0  0  0  0
 33 67  1  0  0  0  0
 33 70  1  0  0  0  0
 34 35  2  0  0  0  0
 35 37  1  0  0  0  0
 36 71  1  0  0  0  0
 36 76  2  0  0  0  0
 37 61  1  0  0  0  0
 37 77  2  0  0  0  0
 38 53  1  0  0  0  0
 38 73  1  0  0  0  0
 38 78  2  0  0  0  0
 39 62  1  0  0  0  0
 39 69  1  0  0  0  0
 39 79  2  0  0  0  0
 40 63  1  0  0  0  0
 40 68  1  0  0  0  0
 40 80  2  0  0  0  0
 41 62  1  0  0  0  0
 41 72  1  0  0  0  0
 41 81  2  0  0  0  0
 42 64  1  0  0  0  0
 42 74  1  0  0  0  0
 42 82  2  0  0  0  0
 43 46  1  0  0  0  0
 44 53  1  0  0  0  0
 45 68  1  0  0  0  0
 46 48  1  0  0  0  0
 47 49  1  0  0  0  0
 47 50  1  0  0  0  0
 48 52  1  0  0  0  0
 49 54  1  0  0  0  0
 50 69  1  0  0  0  0
 51 54  1  0  0  0  0
 51 69  1  0  0  0  0
 52 73  1  0  0  0  0
 53 68  1  0  0  0  0
 54 67  1  0  0  0  0
 56 64  1  0  0  0  0
 57 65  1  0  0  0  0
 58 65  1  0  0  0  0
 59 65  1  0  0  0  0
 60 75  1  0  0  0  0
 61 84  1  0  0  0  0
 63 65  1  0  0  0  0
 63 74  1  0  0  0  0
 64 75  1  0  0  0  0
 66 67  1  0  0  0  0
M  CHG  1  75   1
M  ISO  4  39 100  61 101  62 100  84 101
M  END
> <Batch ID>
0126

> <Smiles>
CNC(C)C(=O)NC(C(=O)N1Cc2cc([101O:1][101CH2:1]C(=O)C=Cc3cc(C)cc(NC(=O)[100CH2:0][100C:0](=O)N4CCCC(n5nc(-c6ccc(Oc7ccc(F)cc7F)cc6)c(C(N)=O)c5N)C4)c3)ccc2CC1C(=O)NC1CCCc2ccccc21)C(C)(C)C

> <Shape>
0.306

> <Color>
0.091

> <Negative vol penalty>
0.000

$$$$

  -OEChem-04052302113D

 86 94  0     1  0  0  0  0  0999 V2000
  -30.1002  -26.7215   22.6890 C   0  0  0  0  0  0  0  0  0  0  0  0
  -29.1332  -25.7584   22.9541 C   0  0  0  0  0  0  0  0  0  0  0  0
  -25.8330  -28.0299   21.3714 C   0  0  0  0  0  0  0  0  0  0  0  0
  -24.8647  -29.4374   19.6631 C   0  0  0  0  0  0  0  0  0  0  0  0
  -14.8717  -21.0912   25.9849 C   0  0  0  0  0  0  0  0  0  0  0  0
  -30.9628  -26.5583   21.6072 C   0  0  0  0  0  0  0  0  0  0  0  0
  -29.0362  -24.6261   22.1447 C   0  0  0  0  0  0  0  0  0  0  0  0
  -25.9022  -21.1154   23.5787 C   0  0  0  0  0  0  0  0  0  0  0  0
  -26.9405  -27.8008   20.5550 C   0  0  0  0  0  0  0  0  0  0  0  0
  -25.9723  -29.2084   18.8467 C   0  0  0  0  0  0  0  0  0  0  0  0
  -24.5180  -21.2636   23.5022 C   0  0  0  0  0  0  0  0  0  0  0  0
  -29.1521  -30.3246   18.5944 C   0  0  0  0  0  0  0  0  0  0  0  0
  -13.6882  -21.8180   25.8561 C   0  0  0  0  0  0  0  0  0  0  0  0
  -29.7152  -31.4234   17.9455 C   0  0  0  0  0  0  0  0  0  0  0  0
  -14.9551  -23.7610   25.1800 C   0  0  0  0  0  0  0  0  0  0  0  0
  -24.4804  -19.8469   21.5501 C   0  0  0  0  0  0  0  0  0  0  0  0
  -29.2749  -30.3868   15.8081 C   0  0  0  0  0  0  0  0  0  0  0  0
  -24.7951  -28.8481   20.9255 C   0  0  0  0  0  0  0  0  0  0  0  0
  -16.0969  -21.6992   25.7113 C   0  0  0  0  0  0  0  0  0  0  0  0
  -16.1386  -23.0341   25.3089 C   0  0  0  0  0  0  0  0  0  0  0  0
  -23.4878  -30.1173   22.7109 C   0  0  0  0  0  0  0  0  0  0  0  0
  -30.8676  -25.4291   20.7772 C   0  0  0  0  0  0  0  0  0  0  0  0
  -26.5883  -20.3394   22.6335 C   0  0  0  0  0  0  0  0  0  0  0  0
  -29.9133  -24.4315   21.0623 C   0  0  0  0  0  0  0  0  0  0  0  0
  -25.8730  -19.6883   21.6183 C   0  0  0  0  0  0  0  0  0  0  0  0
  -27.0102  -28.3901   19.2926 C   0  0  0  0  0  0  0  0  0  0  0  0
  -23.8072  -20.6316   22.4860 C   0  0  0  0  0  0  0  0  0  0  0  0
  -28.6503  -29.2569   17.8501 C   0  0  0  0  0  0  0  0  0  0  0  0
  -13.7299  -23.1529   25.4537 C   0  0  0  0  0  0  0  0  0  0  0  0
  -29.7766  -31.4545   16.5524 C   0  0  0  0  0  0  0  0  0  0  0  0
  -28.7117  -29.2880   16.4570 C   0  0  0  0  0  0  0  0  0  0  0  0
  -23.6505  -29.0846   21.7681 C   0  0  0  0  0  0  0  0  0  0  0  0
  -22.2392  -29.9041   23.2418 C   0  0  0  0  0  0  0  0  0  0  0  0
  -17.4010  -23.7016   25.0163 C   0  0  0  0  0  0  0  0  0  0  0  0
  -17.7285  -24.2691   23.8380 C   0  0  0  0  0  0  0  0  0  0  0  0
  -18.1773  -20.7175   24.6438 C   0  0  0  0  0  0  0  0  0  0  0  0
  -19.5045  -20.5869   24.7529 C   0  0  0  0  0  0  0  0  0  0  0  0
  -17.3367  -20.8878   25.8643 C   0  0  0  0  0  0  0  0  0  0  0  0
  -24.3852  -31.1749   23.0743 C   0  0  0  0  0  0  0  0  0  0  0  0
  -20.3456  -20.4286   23.5321 C   0  0  0  0  0  0  0  0  0  0  0  0
  -19.0477  -24.9184   23.7001 C   0  0  0  0  0  0  0  0  0  0  0  0
  -28.8353  -20.9187   20.4612 C   0  0  0  0  0  0  0  0  0  0  0  0
  -28.7594  -17.6969   20.0916 C   0  0  0  0  0  0  0  0  0  0  0  0
  -27.0085  -14.7848   20.4086 C   0  0  0  0  0  0  0  0  0  0  0  0
  -31.8318  -25.2991   19.6245 C   0  0  0  0  0  0  0  0  0  0  0  0
  -28.0784  -20.1678   22.7457 C   0  0  0  0  0  0  0  0  0  0  0  0
  -26.5600  -18.8276   20.5909 C   0  0  0  0  0  0  0  0  0  0  0  0
  -31.3670  -24.2994   18.5705 C   0  0  0  0  0  0  0  0  0  0  0  0
  -17.9678  -28.0696   22.1718 C   0  0  0  0  0  0  0  0  0  0  0  0
  -30.9616  -22.9929   19.2363 C   0  0  0  0  0  0  0  0  0  0  0  0
  -19.3098  -28.7590   21.9407 C   0  0  0  0  0  0  0  0  0  0  0  0
  -18.0669  -26.5542   22.0035 C   0  0  0  0  0  0  0  0  0  0  0  0
  -20.4666  -26.6181   22.6182 C   0  0  0  0  0  0  0  0  0  0  0  0
  -29.7692  -23.2065   20.1774 C   0  0  1  0  0  0  0  0  0  0  0  0
  -28.7353  -19.7720   21.4269 C   0  0  1  0  0  0  0  0  0  0  0  0
  -20.4003  -28.1389   22.8287 C   0  0  1  0  0  0  0  0  0  0  0  0
  -27.1958  -12.3179   19.9883 C   0  0  0  0  0  0  0  0  0  0  0  0
  -28.3269  -18.1747   17.1092 C   0  0  0  0  0  0  0  0  0  0  0  0
  -27.5846  -15.7923   16.9062 C   0  0  0  0  0  0  0  0  0  0  0  0
  -29.9081  -16.3138   17.6491 C   0  0  0  0  0  0  0  0  0  0  0  0
  -26.6685  -14.1522   23.2797 C   0  0  0  0  0  0  0  0  0  0  0  0
  -21.7532  -20.9773   23.6339 C   0  0  0  0  0  0  0  0  0  1  0  0
  -27.9780  -16.7382   19.2260 C   0  0  1  0  0  0  0  0  0  0  0  0
  -27.3905  -13.4388   20.9975 C   0  0  2  0  0  0  0  0  0  0  0  0
  -28.4364  -16.7725   17.7407 C   0  0  0  0  0  0  0  0  0  0  0  0
  -22.5900  -28.2754   21.7017 N   0  0  0  0  0  0  0  0  0  0  0  0
  -17.5997  -20.3332   27.0047 N   0  0  0  0  0  0  0  0  0  0  0  0
  -21.7490  -28.7995   22.6096 N   0  0  0  0  0  0  0  0  0  0  0  0
  -19.1548  -25.9922   22.8181 N   0  0  0  0  0  0  0  0  0  0  0  0
  -28.0188  -18.6959   20.7392 N   0  0  0  0  0  0  0  0  0  0  0  0
  -21.5237  -30.5556   24.1831 N   0  0  0  0  0  0  0  0  0  0  0  0
  -25.6281  -31.2473   22.4305 N   0  0  0  0  0  0  0  0  0  0  0  0
  -29.5497  -21.9991   20.9427 N   0  0  0  0  0  0  0  0  0  0  0  0
  -28.0963  -15.4285   19.8578 N   0  0  0  0  0  0  0  0  0  0  0  0
  -26.5560  -13.1422   22.1961 N   0  3  0  0  0  0  0  0  0  0  0  0
  -24.1002  -32.0206   23.9558 O   0  0  0  0  0  0  0  0  0  0  0  0
  -19.9213  -19.8885   22.5140 O   0  0  0  0  0  0  0  0  0  0  0  0
  -19.9769  -24.4665   24.3718 O   0  0  0  0  0  0  0  0  0  0  0  0
  -28.3050  -20.8293   19.3600 O   0  0  0  0  0  0  0  0  0  0  0  0
  -29.9810  -17.5600   20.1952 O   0  0  0  0  0  0  0  0  0  0  0  0
  -25.8593  -15.2198   20.4314 O   0  0  0  0  0  0  0  0  0  0  0  0
  -28.0908  -28.1670   18.4958 O   0  0  0  0  0  0  0  0  0  0  0  0
  -22.4562  -20.7751   22.4086 O   0  0  0  0  0  0  0  0  0  1  0  0
  -12.5934  -23.8508   25.3295 F   0  0  0  0  0  0  0  0  0  0  0  0
  -30.3160  -32.5105   15.9293 F   0  0  0  0  0  0  0  0  0  0  0  0
  -28.2303  -28.2657   15.7366 F   0  0  0  0  0  0  0  0  0  0  0  0
  1  2  1  0  0  0  0
  1  6  2  0  0  0  0
  2  7  2  0  0  0  0
  3  9  2  0  0  0  0
  3 18  1  0  0  0  0
  4 10  1  0  0  0  0
  4 18  2  0  0  0  0
  5 13  2  0  0  0  0
  5 19  1  0  0  0  0
  6 22  1  0  0  0  0
  7 24  1  0  0  0  0
  8 11  2  0  0  0  0
  8 23  1  0  0  0  0
  9 26  1  0  0  0  0
 10 26  2  0  0  0  0
 11 27  1  0  0  0  0
 12 14  2  0  0  0  0
 12 28  1  0  0  0  0
 13 29  1  0  0  0  0
 14 30  1  0  0  0  0
 15 20  1  0  0  0  0
 15 29  2  0  0  0  0
 16 25  1  0  0  0  0
 16 27  2  0  0  0  0
 17 30  2  0  0  0  0
 17 31  1  0  0  0  0
 18 32  1  0  0  0  0
 19 20  2  0  0  0  0
 19 38  1  0  0  0  0
 20 34  1  0  0  0  0
 21 32  1  0  0  0  0
 21 33  2  0  0  0  0
 21 39  1  0  0  0  0
 22 24  2  0  0  0  0
 22 45  1  0  0  0  0
 23 25  2  0  0  0  0
 23 46  1  0  0  0  0
 24 54  1  0  0  0  0
 25 47  1  0  0  0  0
 26 82  1  0  0  0  0
 27 83  1  0  0  0  0
 28 31  2  0  0  0  0
 28 82  1  0  0  0  0
 29 84  1  0  0  0  0
 30 85  1  0  0  0  0
 31 86  1  0  0  0  0
 32 66  2  0  0  0  0
 33 68  1  0  0  0  0
 33 71  1  0  0  0  0
 34 35  2  0  0  0  0
 35 41  1  0  0  0  0
 36 37  2  0  0  0  0
 36 38  1  0  0  0  0
 37 40  1  0  0  0  0
 38 67  2  0  0  0  0
 39 72  1  0  0  0  0
 39 76  2  0  0  0  0
 40 62  1  0  0  0  0
 40 77  2  0  0  0  0
 41 69  1  0  0  0  0
 41 78  2  0  0  0  0
 42 55  1  0  0  0  0
 42 73  1  0  0  0  0
 42 79  2  0  0  0  0
 43 63  1  0  0  0  0
 43 70  1  0  0  0  0
 43 80  2  0  0  0  0
 44 64  1  0  0  0  0
 44 74  1  0  0  0  0
 44 81  2  0  0  0  0
 45 48  1  0  0  0  0
 46 55  1  0  0  0  0
 47 70  1  0  0  0  0
 48 50  1  0  0  0  0
 49 51  1  0  0  0  0
 49 52  1  0  0  0  0
 50 54  1  0  0  0  0
 51 56  1  0  0  0  0
 52 69  1  0  0  0  0
 53 56  1  0  0  0  0
 53 69  1  0  0  0  0
 54 73  1  0  0  0  0
 55 70  1  0  0  0  0
 56 68  1  0  0  0  0
 57 64  1  0  0  0  0
 58 65  1  0  0  0  0
 59 65  1  0  0  0  0
 60 65  1  0  0  0  0
 61 75  1  0  0  0  0
 62 83  1  0  0  0  0
 63 65  1  0  0  0  0
 63 74  1  0  0  0  0
 64 75  1  0  0  0  0
 66 68  1  0  0  0  0
M  CHG  1  75   1
M  ISO  4  35 100  41 100  62 101  83 101
M  END
> <Batch ID>
0126

> <Smiles>
CNC(C)C(=O)NC(C(=O)N1Cc2cc([101O:1][101CH2:1]C(=O)C=CC(=N)c3ccc(F)cc3C=[100CH:0][100C:0](=O)N3CCCC(n4nc(-c5ccc(Oc6ccc(F)cc6F)cc5)c(C(N)=O)c4N)C3)ccc2CC1C(=O)NC1CCCc2ccccc21)C(C)(C)C

> <Shape>
0.209

> <Color>
0.084

> <Negative vol penalty>
0.000

$$$$

  -OEChem-04052302113D

 87 95  0     1  0  0  0  0  0999 V2000
  -23.3774  -31.0400   11.1312 C   0  0  0  0  0  0  0  0  0  0  0  0
  -24.3563  -30.3990   11.8837 C   0  0  0  0  0  0  0  0  0  0  0  0
  -24.1937   -9.3467   22.0009 C   0  0  0  0  0  0  0  0  0  0  0  0
  -22.9665   -9.5889   19.9339 C   0  0  0  0  0  0  0  0  0  0  0  0
  -31.0062  -20.7640   21.0670 C   0  0  0  0  0  0  0  0  0  0  0  0
  -22.5549  -31.9948   11.7276 C   0  0  0  0  0  0  0  0  0  0  0  0
  -24.5140  -30.7134   13.2331 C   0  0  0  0  0  0  0  0  0  0  0  0
  -26.1263  -26.8924   17.7393 C   0  0  0  0  0  0  0  0  0  0  0  0
  -31.2331  -22.1393   21.1175 C   0  0  0  0  0  0  0  0  0  0  0  0
  -23.2625   -8.4072   22.4437 C   0  0  0  0  0  0  0  0  0  0  0  0
  -22.0354   -8.6494   20.3767 C   0  0  0  0  0  0  0  0  0  0  0  0
  -27.3468  -26.6418   18.3649 C   0  0  0  0  0  0  0  0  0  0  0  0
  -22.5927   -5.1324   21.9338 C   0  0  0  0  0  0  0  0  0  0  0  0
  -23.0791   -3.9678   22.5276 C   0  0  0  0  0  0  0  0  0  0  0  0
  -28.6404  -21.1429   21.3780 C   0  0  0  0  0  0  0  0  0  0  0  0
  -26.7521  -28.1785   20.1269 C   0  0  0  0  0  0  0  0  0  0  0  0
  -21.8947   -4.5105   24.5623 C   0  0  0  0  0  0  0  0  0  0  0  0
  -24.0456   -9.9376   20.7461 C   0  0  0  0  0  0  0  0  0  0  0  0
  -29.7098  -20.2658   21.1972 C   0  0  0  0  0  0  0  0  0  0  0  0
  -26.1852  -10.6598   19.5594 C   0  0  0  0  0  0  0  0  0  0  0  0
  -22.6962  -32.3140   13.0873 C   0  0  0  0  0  0  0  0  0  0  0  0
  -25.2127  -27.7976   18.2980 C   0  0  0  0  0  0  0  0  0  0  0  0
  -23.6935  -31.6744   13.8480 C   0  0  0  0  0  0  0  0  0  0  0  0
  -25.5197  -28.4368   19.5077 C   0  0  0  0  0  0  0  0  0  0  0  0
  -28.8674  -22.5183   21.4286 C   0  0  0  0  0  0  0  0  0  0  0  0
  -30.1638  -23.0165   21.2983 C   0  0  0  0  0  0  0  0  0  0  0  0
  -22.1834   -8.0586   21.6315 C   0  0  0  0  0  0  0  0  0  0  0  0
  -27.6611  -27.2871   19.5574 C   0  0  0  0  0  0  0  0  0  0  0  0
  -21.7574   -5.9862   22.6543 C   0  0  0  0  0  0  0  0  0  0  0  0
  -22.7300   -3.6567   23.8418 C   0  0  0  0  0  0  0  0  0  0  0  0
  -21.4083   -5.6752   23.9685 C   0  0  0  0  0  0  0  0  0  0  0  0
  -25.0068  -10.9085   20.2884 C   0  0  0  0  0  0  0  0  0  0  0  0
  -26.7422  -11.9014   19.3733 C   0  0  0  0  0  0  0  0  0  0  0  0
  -29.4738  -18.8316   21.1444 C   0  0  0  0  0  0  0  0  0  0  0  0
  -28.3804  -18.1996   21.6216 C   0  0  0  0  0  0  0  0  0  0  0  0
  -29.9985  -27.3272   19.4817 C   0  0  0  0  0  0  0  0  0  1  0  0
  -26.7278   -9.4176   19.0923 C   0  0  0  0  0  0  0  0  0  0  0  0
  -31.2361  -27.1376   19.9643 C   0  0  0  0  0  0  0  0  0  0  0  0
  -28.2828  -16.7326   21.4833 C   0  0  0  0  0  0  0  0  0  0  0  0
  -23.9161  -30.5436   17.3586 C   0  0  0  0  0  0  0  0  0  0  0  0
  -22.1725  -30.1991   20.0722 C   0  0  0  0  0  0  0  0  0  0  0  0
  -31.6409  -25.0516   21.2259 C   0  0  0  0  0  0  0  0  0  0  0  0
  -21.9068  -28.8433   23.1927 C   0  0  0  0  0  0  0  0  0  0  0  0
  -21.8151  -33.3870   13.6765 C   0  0  0  0  0  0  0  0  0  0  0  0
  -23.8891  -28.0367   17.6246 C   0  0  0  0  0  0  0  0  0  0  0  0
  -24.5647  -29.4022   20.1592 C   0  0  0  0  0  0  0  0  0  0  0  0
  -21.7988  -33.3917   15.2029 C   0  0  0  0  0  0  0  0  0  0  0  0
  -24.8703  -16.5167   20.1642 C   0  0  0  0  0  0  0  0  0  0  0  0
  -23.2179  -33.2847   15.7522 C   0  0  0  0  0  0  0  0  0  0  0  0
  -24.6884  -15.0044   20.0665 C   0  0  0  0  0  0  0  0  0  0  0  0
  -25.7396  -16.9121   21.3569 C   0  0  0  0  0  0  0  0  0  0  0  0
  -26.8825  -14.7146   21.2839 C   0  0  0  0  0  0  0  0  0  0  0  0
  -23.8790  -31.9702   15.3205 C   0  0  1  0  0  0  0  0  0  0  0  0
  -23.2517  -29.3666   18.0151 C   0  0  1  0  0  0  0  0  0  0  0  0
  -26.0499  -14.2914   20.0636 C   0  0  1  0  0  0  0  0  0  0  0  0
  -32.4441  -27.4706   19.1339 C   0  0  0  0  0  0  0  0  0  0  0  0
  -27.6157  -23.9621   23.0518 C   0  0  0  0  0  0  0  0  0  0  0  0
  -20.3845  -28.7719   25.1865 C   0  0  0  0  0  0  0  0  0  0  0  0
  -23.0790  -33.0035   20.8617 C   0  0  0  0  0  0  0  0  0  0  0  0
  -22.3426  -32.5071   23.2025 C   0  0  0  0  0  0  0  0  0  0  0  0
  -20.6759  -32.5089   21.3464 C   0  0  0  0  0  0  0  0  0  0  0  0
  -21.5521  -25.9141   22.9626 C   0  0  0  0  0  0  0  0  0  0  0  0
  -27.7033  -23.4349   21.6232 C   0  0  0  0  0  0  0  0  0  0  0  0
  -31.5051  -26.5638   21.3312 C   0  0  0  0  0  0  0  0  0  0  0  0
  -22.3435  -30.6159   21.5130 C   0  0  1  0  0  0  0  0  0  0  0  0
  -20.7710  -28.1035   23.8762 C   0  0  2  0  0  0  0  0  0  0  0  0
  -22.1293  -32.1422   21.7179 C   0  0  0  0  0  0  0  0  0  0  0  0
  -24.8251  -12.2061   20.5478 N   0  0  0  0  0  0  0  0  0  0  0  0
  -25.8968  -12.7839   19.9788 N   0  0  0  0  0  0  0  0  0  0  0  0
  -27.0115  -16.1739   21.3641 N   0  0  0  0  0  0  0  0  0  0  0  0
  -23.2859  -29.6075   19.4590 N   0  0  0  0  0  0  0  0  0  0  0  0
  -27.8679  -12.3135   18.7524 N   0  0  0  0  0  0  0  0  0  0  0  0
  -26.0274   -8.2359   19.3705 N   0  0  0  0  0  0  0  0  0  0  0  0
  -30.4148  -24.4089   21.3468 N   0  0  0  0  0  0  0  0  0  0  0  0
  -23.3893  -30.8705   16.1237 N   0  0  0  0  0  0  0  0  0  0  0  0
  -21.4394  -29.7759   22.2910 N   0  0  0  0  0  0  0  0  0  0  0  0
  -21.1690  -26.6968   24.1657 N   0  3  0  0  0  0  0  0  0  0  0  0
  -27.8102   -9.3557   18.4614 O   0  0  0  0  0  0  0  0  0  0  0  0
  -29.3344  -16.0900   21.4865 O   0  0  0  0  0  0  0  0  0  0  0  0
  -24.8375  -31.1138   17.9309 O   0  0  0  0  0  0  0  0  0  0  0  0
  -21.0885  -30.3849   19.5135 O   0  0  0  0  0  0  0  0  0  0  0  0
  -32.7403  -24.5339   21.0450 O   0  0  0  0  0  0  0  0  0  0  0  0
  -23.0902  -28.6190   23.4372 O   0  0  0  0  0  0  0  0  0  0  0  0
  -21.2747   -7.1417   22.0631 O   0  0  0  0  0  0  0  0  0  0  0  0
  -28.8520  -27.0449   20.1698 O   0  0  0  0  0  0  0  0  0  1  0  0
  -23.1959   -2.5375   24.4114 F   0  0  0  0  0  0  0  0  0  0  0  0
  -20.6052   -6.4909   24.6652 F   0  0  0  0  0  0  0  0  0  0  0  0
  1  2  1  0  0  0  0
  1  6  2  0  0  0  0
  2  7  2  0  0  0  0
  3 10  2  0  0  0  0
  3 18  1  0  0  0  0
  4 11  1  0  0  0  0
  4 18  2  0  0  0  0
  5  9  2  0  0  0  0
  5 19  1  0  0  0  0
  6 21  1  0  0  0  0
  7 23  1  0  0  0  0
  8 12  2  0  0  0  0
  8 22  1  0  0  0  0
  9 26  1  0  0  0  0
 10 27  1  0  0  0  0
 11 27  2  0  0  0  0
 12 28  1  0  0  0  0
 13 14  2  0  0  0  0
 13 29  1  0  0  0  0
 14 30  1  0  0  0  0
 15 19  2  0  0  0  0
 15 25  1  0  0  0  0
 16 24  1  0  0  0  0
 16 28  2  0  0  0  0
 17 30  2  0  0  0  0
 17 31  1  0  0  0  0
 18 32  1  0  0  0  0
 19 34  1  0  0  0  0
 20 32  1  0  0  0  0
 20 33  2  0  0  0  0
 20 37  1  0  0  0  0
 21 23  2  0  0  0  0
 21 44  1  0  0  0  0
 22 24  2  0  0  0  0
 22 45  1  0  0  0  0
 23 53  1  0  0  0  0
 24 46  1  0  0  0  0
 25 26  2  0  0  0  0
 25 63  1  0  0  0  0
 26 74  1  0  0  0  0
 27 84  1  0  0  0  0
 28 85  1  0  0  0  0
 29 31  2  0  0  0  0
 29 84  1  0  0  0  0
 30 86  1  0  0  0  0
 31 87  1  0  0  0  0
 32 68  2  0  0  0  0
 33 69  1  0  0  0  0
 33 72  1  0  0  0  0
 34 35  2  0  0  0  0
 35 39  1  0  0  0  0
 36 38  2  0  0  0  0
 36 85  1  0  0  0  0
 37 73  1  0  0  0  0
 37 78  2  0  0  0  0
 38 56  1  0  0  0  0
 38 64  1  0  0  0  0
 39 70  1  0  0  0  0
 39 79  2  0  0  0  0
 40 54  1  0  0  0  0
 40 75  1  0  0  0  0
 40 80  2  0  0  0  0
 41 65  1  0  0  0  0
 41 71  1  0  0  0  0
 41 81  2  0  0  0  0
 42 64  1  0  0  0  0
 42 74  1  0  0  0  0
 42 82  2  0  0  0  0
 43 66  1  0  0  0  0
 43 76  1  0  0  0  0
 43 83  2  0  0  0  0
 44 47  1  0  0  0  0
 45 54  1  0  0  0  0
 46 71  1  0  0  0  0
 47 49  1  0  0  0  0
 48 50  1  0  0  0  0
 48 51  1  0  0  0  0
 49 53  1  0  0  0  0
 50 55  1  0  0  0  0
 51 70  1  0  0  0  0
 52 55  1  0  0  0  0
 52 70  1  0  0  0  0
 53 75  1  0  0  0  0
 54 71  1  0  0  0  0
 55 69  1  0  0  0  0
 57 63  1  0  0  0  0
 58 66  1  0  0  0  0
 59 67  1  0  0  0  0
 60 67  1  0  0  0  0
 61 67  1  0  0  0  0
 62 77  1  0  0  0  0
 65 67  1  0  0  0  0
 65 76  1  0  0  0  0
 66 77  1  0  0  0  0
 68 69  1  0  0  0  0
M  CHG  1  77   1
M  ISO  4  35 100  36 101  39 100  85 101
M  END
> <Batch ID>
0126

> <Smiles>
CCc1cc(C=[100CH:0][100C:0](=O)N2CCCC(n3nc(-c4ccc(Oc5ccc(F)cc5F)cc4)c(C(N)=O)c3N)C2)ccc1NC(=O)CC(C)=[101CH:1][101O:1]c1ccc2c(c1)CN(C(=O)C(NC(=O)C(C)NC)C(C)(C)C)C(C(=O)NC1CCCc3ccccc31)C2

> <Shape>
0.275

> <Color>
0.095

> <Negative vol penalty>
0.000

$$$$

  -OEChem-04052302113D

 82 90  0     1  0  0  0  0  0999 V2000
  -25.4772  -37.4082   23.1202 C   0  0  0  0  0  0  0  0  0  0  0  0
  -26.3166  -36.3609   22.7542 C   0  0  0  0  0  0  0  0  0  0  0  0
  -24.5565  -11.5309   24.0621 C   0  0  0  0  0  0  0  0  0  0  0  0
  -23.8506  -13.8236   23.7750 C   0  0  0  0  0  0  0  0  0  0  0  0
  -28.3161  -20.4127   19.2541 C   0  0  0  0  0  0  0  0  0  0  0  0
  -30.6877  -20.0051   19.0380 C   0  0  0  0  0  0  0  0  0  0  0  0
  -24.2600  -37.1389   23.7446 C   0  0  0  0  0  0  0  0  0  0  0  0
  -25.9398  -35.0436   23.0136 C   0  0  0  0  0  0  0  0  0  0  0  0
  -27.1384  -30.1251   19.5672 C   0  0  0  0  0  0  0  0  0  0  0  0
  -28.0736  -19.0411   19.1803 C   0  0  0  0  0  0  0  0  0  0  0  0
  -30.4452  -18.6334   18.9642 C   0  0  0  0  0  0  0  0  0  0  0  0
  -24.1300  -11.5659   25.3897 C   0  0  0  0  0  0  0  0  0  0  0  0
  -23.4241  -13.8586   25.1026 C   0  0  0  0  0  0  0  0  0  0  0  0
  -28.1163  -29.1351   19.6534 C   0  0  0  0  0  0  0  0  0  0  0  0
  -21.2057  -11.3485   27.0732 C   0  0  0  0  0  0  0  0  0  0  0  0
  -20.4695  -10.2624   27.5463 C   0  0  0  0  0  0  0  0  0  0  0  0
  -26.5618  -27.7100   20.8247 C   0  0  0  0  0  0  0  0  0  0  0  0
  -22.1576   -9.8492   29.2246 C   0  0  0  0  0  0  0  0  0  0  0  0
  -24.4168  -12.6599   23.2548 C   0  0  0  0  0  0  0  0  0  0  0  0
  -29.6232  -20.8947   19.1828 C   0  0  0  0  0  0  0  0  0  0  0  0
  -24.1012  -12.2508   20.7566 C   0  0  0  0  0  0  0  0  0  0  0  0
  -23.8637  -35.8172   24.0030 C   0  0  0  0  0  0  0  0  0  0  0  0
  -25.8661  -29.9188   20.1196 C   0  0  0  0  0  0  0  0  0  0  0  0
  -24.7168  -34.7564   23.6433 C   0  0  0  0  0  0  0  0  0  0  0  0
  -25.5687  -28.6980   20.7419 C   0  0  0  0  0  0  0  0  0  0  0  0
  -29.1381  -18.1515   19.0354 C   0  0  0  0  0  0  0  0  0  0  0  0
  -23.5638  -12.7296   25.9100 C   0  0  0  0  0  0  0  0  0  0  0  0
  -27.8290  -27.9285   20.2847 C   0  0  0  0  0  0  0  0  0  0  0  0
  -22.4179  -11.6849   27.6757 C   0  0  0  0  0  0  0  0  0  0  0  0
  -20.9454   -9.5127   28.6220 C   0  0  0  0  0  0  0  0  0  0  0  0
  -22.8938  -10.9353   28.7514 C   0  0  0  0  0  0  0  0  0  0  0  0
  -24.8577  -12.6246   21.8835 C   0  0  0  0  0  0  0  0  0  0  0  0
  -24.9685  -12.3864   19.7003 C   0  0  0  0  0  0  0  0  0  0  0  0
  -29.8804  -22.3436   19.2617 C   0  0  0  0  0  0  0  0  0  0  0  0
  -29.0257  -23.2417   19.7709 C   0  0  0  0  0  0  0  0  0  0  0  0
  -22.7364  -11.8196   20.6723 C   0  0  0  0  0  0  0  0  0  0  0  0
  -29.3783  -24.6911   19.7954 C   0  0  0  0  0  0  0  0  0  0  0  0
  -24.1598  -31.3194   22.4067 C   0  0  0  0  0  0  0  0  0  0  0  0
  -21.8449  -29.2912   21.3820 C   0  0  0  0  0  0  0  0  0  0  0  0
  -21.0394  -26.3710   19.8102 C   0  0  0  0  0  0  0  0  0  0  0  0
  -29.8348  -15.7402   18.8189 C   0  0  0  0  0  0  0  0  0  0  0  0
  -22.5603  -35.5778   24.7230 C   0  0  0  0  0  0  0  0  0  0  0  0
  -24.8139  -30.9864   19.9948 C   0  0  0  0  0  0  0  0  0  0  0  0
  -24.2119  -28.4191   21.3332 C   0  0  0  0  0  0  0  0  0  0  0  0
  -22.0655  -34.1371   24.6240 C   0  0  0  0  0  0  0  0  0  0  0  0
  -29.6338  -12.1901   18.6366 C   0  0  0  0  0  0  0  0  0  0  0  0
  -23.2023  -33.1613   24.9112 C   0  0  0  0  0  0  0  0  0  0  0  0
  -28.3144  -11.8650   19.3407 C   0  0  0  0  0  0  0  0  0  0  0  0
  -30.3582  -13.3594   19.3012 C   0  0  0  0  0  0  0  0  0  0  0  0
  -28.2326  -14.2505   20.1714 C   0  0  0  0  0  0  0  0  0  0  0  0
  -24.3320  -33.3130   23.8854 C   0  0  1  0  0  0  0  0  0  0  0  0
  -23.7139  -30.8669   21.0450 C   0  0  1  0  0  0  0  0  0  0  0  0
  -27.4354  -13.1213   19.4983 C   0  0  2  0  0  0  0  0  0  0  0  0
  -19.0664  -24.9640   19.1582 C   0  0  0  0  0  0  0  0  0  0  0  0
  -21.5605  -28.3550   24.2721 C   0  0  0  0  0  0  0  0  0  0  0  0
  -20.3148  -26.3540   23.4280 C   0  0  0  0  0  0  0  0  0  0  0  0
  -19.3970  -28.6427   23.0510 C   0  0  0  0  0  0  0  0  0  0  0  0
  -21.6828  -26.5972   16.9303 C   0  0  0  0  0  0  0  0  0  0  0  0
  -28.3320  -25.6067   20.3950 C   0  0  0  0  0  0  0  0  0  1  0  0
  -21.4203  -27.8866   21.7369 C   0  0  1  0  0  0  0  0  0  0  0  0
  -20.0281  -26.0584   18.7221 C   0  0  2  0  0  0  0  0  0  0  0  0
  -20.6994  -27.8153   23.1127 C   0  0  0  0  0  0  0  0  0  0  0  0
  -26.1094  -12.9715   21.5722 N   0  0  0  0  0  0  0  0  0  0  0  0
  -26.1461  -12.8162   20.2378 N   0  0  0  0  0  0  0  0  0  0  0  0
  -23.2187  -29.4966   21.1914 N   0  0  0  0  0  0  0  0  0  0  0  0
  -29.4653  -14.5149   19.4129 N   0  0  0  0  0  0  0  0  0  0  0  0
  -24.8312  -12.1788   18.3735 N   0  0  0  0  0  0  0  0  0  0  0  0
  -21.9877  -11.7363   21.8542 N   0  0  0  0  0  0  0  0  0  0  0  0
  -28.8923  -16.7579   18.9625 N   0  0  0  0  0  0  0  0  0  0  0  0
  -23.9737  -32.6686   22.6400 N   0  0  0  0  0  0  0  0  0  0  0  0
  -20.6183  -27.4072   20.6165 N   0  0  0  0  0  0  0  0  0  0  0  0
  -20.7229  -25.6073   17.4833 N   0  3  0  0  0  0  0  0  0  0  0  0
  -22.2016  -11.5013   19.5831 O   0  0  0  0  0  0  0  0  0  0  0  0
  -30.4467  -25.1100   19.3580 O   0  0  0  0  0  0  0  0  0  0  0  0
  -24.6359  -30.5045   23.1883 O   0  0  0  0  0  0  0  0  0  0  0  0
  -20.9885  -30.1720   21.2707 O   0  0  0  0  0  0  0  0  0  0  0  0
  -22.0955  -25.7548   19.9349 O   0  0  0  0  0  0  0  0  0  0  0  0
  -30.8960  -15.8689   18.2030 O   0  0  0  0  0  0  0  0  0  0  0  0
  -23.1473  -12.7640   27.2053 O   0  0  0  0  0  0  0  0  0  0  0  0
  -28.7818  -26.9607   20.3708 O   0  0  0  0  0  0  0  0  0  1  0  0
  -20.2375   -8.4707   29.0773 F   0  0  0  0  0  0  0  0  0  0  0  0
  -24.0571  -11.2544   29.3351 F   0  0  0  0  0  0  0  0  0  0  0  0
  1  2  1  0  0  0  0
  1  7  2  0  0  0  0
  2  8  2  0  0  0  0
  3 12  2  0  0  0  0
  3 19  1  0  0  0  0
  4 13  1  0  0  0  0
  4 19  2  0  0  0  0
  5 10  2  0  0  0  0
  5 20  1  0  0  0  0
  6 11  1  0  0  0  0
  6 20  2  0  0  0  0
  7 22  1  0  0  0  0
  8 24  1  0  0  0  0
  9 14  2  0  0  0  0
  9 23  1  0  0  0  0
 10 26  1  0  0  0  0
 11 26  2  0  0  0  0
 12 27  1  0  0  0  0
 13 27  2  0  0  0  0
 14 28  1  0  0  0  0
 15 16  2  0  0  0  0
 15 29  1  0  0  0  0
 16 30  1  0  0  0  0
 17 25  1  0  0  0  0
 17 28  2  0  0  0  0
 18 30  2  0  0  0  0
 18 31  1  0  0  0  0
 19 32  1  0  0  0  0
 20 34  1  0  0  0  0
 21 32  1  0  0  0  0
 21 33  2  0  0  0  0
 21 36  1  0  0  0  0
 22 24  2  0  0  0  0
 22 42  1  0  0  0  0
 23 25  2  0  0  0  0
 23 43  1  0  0  0  0
 24 51  1  0  0  0  0
 25 44  1  0  0  0  0
 26 69  1  0  0  0  0
 27 79  1  0  0  0  0
 28 80  1  0  0  0  0
 29 31  2  0  0  0  0
 29 79  1  0  0  0  0
 30 81  1  0  0  0  0
 31 82  1  0  0  0  0
 32 63  2  0  0  0  0
 33 64  1  0  0  0  0
 33 67  1  0  0  0  0
 34 35  2  0  0  0  0
 35 37  1  0  0  0  0
 36 68  1  0  0  0  0
 36 73  2  0  0  0  0
 37 59  1  0  0  0  0
 37 74  2  0  0  0  0
 38 52  1  0  0  0  0
 38 70  1  0  0  0  0
 38 75  2  0  0  0  0
 39 60  1  0  0  0  0
 39 65  1  0  0  0  0
 39 76  2  0  0  0  0
 40 61  1  0  0  0  0
 40 71  1  0  0  0  0
 40 77  2  0  0  0  0
 41 66  1  0  0  0  0
 41 69  1  0  0  0  0
 41 78  2  0  0  0  0
 42 45  1  0  0  0  0
 43 52  1  0  0  0  0
 44 65  1  0  0  0  0
 45 47  1  0  0  0  0
 46 48  1  0  0  0  0
 46 49  1  0  0  0  0
 47 51  1  0  0  0  0
 48 53  1  0  0  0  0
 49 66  1  0  0  0  0
 50 53  1  0  0  0  0
 50 66  1  0  0  0  0
 51 70  1  0  0  0  0
 52 65  1  0  0  0  0
 53 64  1  0  0  0  0
 54 61  1  0  0  0  0
 55 62  1  0  0  0  0
 56 62  1  0  0  0  0
 57 62  1  0  0  0  0
 58 72  1  0  0  0  0
 59 80  1  0  0  0  0
 60 62  1  0  0  0  0
 60 71  1  0  0  0  0
 61 72  1  0  0  0  0
 63 64  1  0  0  0  0
M  CHG  1  72   1
M  ISO  4  41 100  59 101  69 100  80 101
M  END
> <Batch ID>
0126

> <Smiles>
CNC(C)C(=O)NC(C(=O)N1Cc2cc([101O:1][101CH2:1]C(=O)C=Cc3ccc([100NH:0][100C:0](=O)N4CCCC(n5nc(-c6ccc(Oc7ccc(F)cc7F)cc6)c(C(N)=O)c5N)C4)cc3)ccc2CC1C(=O)NC1CCCc2ccccc21)C(C)(C)C

> <Shape>
0.295

> <Color>
0.097

> <Negative vol penalty>
0.000

$$$$

  -OEChem-04052302113D

 82 90  0     1  0  0  0  0  0999 V2000
  -27.8796  -11.0455   20.2408 C   0  0  0  0  0  0  0  0  0  0  0  0
  -28.5148  -12.2622   20.0136 C   0  0  0  0  0  0  0  0  0  0  0  0
  -20.7180  -26.8904   22.1618 C   0  0  0  0  0  0  0  0  0  0  0  0
  -19.6098  -28.8905   22.9418 C   0  0  0  0  0  0  0  0  0  0  0  0
  -28.8144  -30.7165   21.7745 C   0  0  0  0  0  0  0  0  0  0  0  0
  -26.4875  -10.9720   20.2166 C   0  0  0  0  0  0  0  0  0  0  0  0
  -27.7582  -13.4060   19.7610 C   0  0  0  0  0  0  0  0  0  0  0  0
  -29.0683  -19.1387   21.4713 C   0  0  0  0  0  0  0  0  0  0  0  0
  -19.5288  -26.1757   22.3046 C   0  0  0  0  0  0  0  0  0  0  0  0
  -18.4205  -28.1758   23.0846 C   0  0  0  0  0  0  0  0  0  0  0  0
  -29.6483  -20.2103   20.7938 C   0  0  0  0  0  0  0  0  0  0  0  0
  -16.6384  -25.7822   20.5947 C   0  0  0  0  0  0  0  0  0  0  0  0
  -29.0836  -30.6431   20.4078 C   0  0  0  0  0  0  0  0  0  0  0  0
  -16.2668  -24.9281   19.5564 C   0  0  0  0  0  0  0  0  0  0  0  0
  -29.2562  -28.3510   21.9885 C   0  0  0  0  0  0  0  0  0  0  0  0
  -27.4523  -21.0613   20.2721 C   0  0  0  0  0  0  0  0  0  0  0  0
  -16.3203  -23.0534   21.0795 C   0  0  0  0  0  0  0  0  0  0  0  0
  -20.7586  -28.2478   22.4804 C   0  0  0  0  0  0  0  0  0  0  0  0
  -28.9006  -29.5704   22.5648 C   0  0  0  0  0  0  0  0  0  0  0  0
  -29.5255  -28.2776   20.6218 C   0  0  0  0  0  0  0  0  0  0  0  0
  -22.4313  -29.6787   21.1912 C   0  0  0  0  0  0  0  0  0  0  0  0
  -25.7132  -12.1174   19.9731 C   0  0  0  0  0  0  0  0  0  0  0  0
  -27.6735  -19.0143   21.5451 C   0  0  0  0  0  0  0  0  0  0  0  0
  -26.3544  -13.3475   19.7322 C   0  0  0  0  0  0  0  0  0  0  0  0
  -26.8570  -19.9886   20.9533 C   0  0  0  0  0  0  0  0  0  0  0  0
  -18.3800  -26.8183   22.7660 C   0  0  0  0  0  0  0  0  0  0  0  0
  -28.8403  -21.1703   20.1916 C   0  0  0  0  0  0  0  0  0  0  0  0
  -16.8511  -25.2719   21.8754 C   0  0  0  0  0  0  0  0  0  0  0  0
  -16.1077  -23.5637   19.7989 C   0  0  0  0  0  0  0  0  0  0  0  0
  -29.4392  -29.4237   19.8315 C   0  0  0  0  0  0  0  0  0  0  0  0
  -16.6920  -23.9075   22.1178 C   0  0  0  0  0  0  0  0  0  0  0  0
  -21.9869  -28.9866   22.3337 C   0  0  0  0  0  0  0  0  0  0  0  0
  -23.6439  -30.2077   21.5603 C   0  0  0  0  0  0  0  0  0  0  0  0
  -29.9014  -26.9872   20.0175 C   0  0  0  0  0  0  0  0  0  0  0  0
  -29.1420  -25.8832   20.0466 C   0  0  0  0  0  0  0  0  0  0  0  0
  -28.6167  -29.6494   24.0036 C   0  0  0  0  0  0  0  0  0  0  0  0
  -21.8041  -29.8299   19.9108 C   0  0  0  0  0  0  0  0  0  0  0  0
  -29.6196  -24.6206   19.4115 C   0  0  0  0  0  0  0  0  0  0  0  0
  -25.5576  -16.8621   20.5479 C   0  0  0  0  0  0  0  0  0  0  0  0
  -23.4742  -18.7161   22.2046 C   0  0  0  0  0  0  0  0  0  0  0  0
  -22.7257  -21.7807   23.5064 C   0  0  0  0  0  0  0  0  0  0  0  0
  -24.2126  -11.9793   19.9099 C   0  0  0  0  0  0  0  0  0  0  0  0
  -27.0635  -17.8669   22.3025 C   0  0  0  0  0  0  0  0  0  0  0  0
  -25.3544  -19.9118   21.0211 C   0  0  0  0  0  0  0  0  0  0  0  0
  -23.4737  -13.3116   20.0061 C   0  0  0  0  0  0  0  0  0  0  0  0
  -25.8634  -30.5427   26.0923 C   0  0  0  0  0  0  0  0  0  0  0  0
  -24.1117  -14.3438   19.0817 C   0  0  0  0  0  0  0  0  0  0  0  0
  -24.6426  -30.2566   25.2159 C   0  0  0  0  0  0  0  0  0  0  0  0
  -26.9797  -29.5295   25.8517 C   0  0  0  0  0  0  0  0  0  0  0  0
  -26.1669  -29.1049   23.5574 C   0  0  0  0  0  0  0  0  0  0  0  0
  -25.5676  -14.6152   19.4792 C   0  0  1  0  0  0  0  0  0  0  0  0
  -25.6309  -17.5630   21.8749 C   0  0  1  0  0  0  0  0  0  0  0  0
  -25.0376  -30.1336   23.7322 C   0  0  1  0  0  0  0  0  0  0  0  0
  -20.9346  -22.9984   24.7739 C   0  0  0  0  0  0  0  0  0  0  0  0
  -21.7843  -18.8652   19.6685 C   0  0  0  0  0  0  0  0  0  0  0  0
  -20.5667  -20.8062   20.6775 C   0  0  0  0  0  0  0  0  0  0  0  0
  -20.4750  -18.5698   21.7787 C   0  0  0  0  0  0  0  0  0  0  0  0
  -24.5539  -22.3623   25.7599 C   0  0  0  0  0  0  0  0  0  0  0  0
  -28.6735  -23.4426   19.5101 C   0  0  0  0  0  0  0  0  0  1  0  0
  -22.6146  -19.9131   21.8773 C   0  0  1  0  0  0  0  0  0  0  0  0
  -22.2233  -22.1975   24.8770 C   0  0  2  0  0  0  0  0  0  0  0  0
  -21.3884  -19.5393   20.9974 C   0  0  0  0  0  0  0  0  0  0  0  0
  -22.8472  -29.0666   23.3522 N   0  0  0  0  0  0  0  0  0  0  0  0
  -23.8445  -29.8152   22.8510 N   0  0  0  0  0  0  0  0  0  0  0  0
  -27.3019  -29.4430   24.4278 N   0  0  0  0  0  0  0  0  0  0  0  0
  -24.8055  -18.7677   21.7676 N   0  0  0  0  0  0  0  0  0  0  0  0
  -24.5476  -30.9655   20.9034 N   0  0  0  0  0  0  0  0  0  0  0  0
  -20.5593  -29.2212   19.7005 N   0  0  0  0  0  0  0  0  0  0  0  0
  -25.6224  -15.4845   20.6349 N   0  0  0  0  0  0  0  0  0  0  0  0
  -22.2685  -20.5285   23.1540 N   0  0  0  0  0  0  0  0  0  0  0  0
  -23.2430  -23.0348   25.5699 N   0  3  0  0  0  0  0  0  0  0  0  0
  -29.5732  -29.9073   24.7329 O   0  0  0  0  0  0  0  0  0  0  0  0
  -22.3395  -30.4717   18.9754 O   0  0  0  0  0  0  0  0  0  0  0  0
  -30.7077  -24.5453   18.8470 O   0  0  0  0  0  0  0  0  0  0  0  0
  -25.4486  -17.5221   19.5211 O   0  0  0  0  0  0  0  0  0  0  0  0
  -22.9846  -17.7731   22.8313 O   0  0  0  0  0  0  0  0  0  0  0  0
  -23.4482  -22.4960   22.8159 O   0  0  0  0  0  0  0  0  0  0  0  0
  -17.2193  -26.1213   22.9052 O   0  0  0  0  0  0  0  0  0  0  0  0
  -29.4039  -22.2169   19.5291 O   0  0  0  0  0  0  0  0  0  1  0  0
  -15.7492  -22.7438   18.8021 F   0  0  0  0  0  0  0  0  0  0  0  0
  -29.6952  -29.3696   18.5162 F   0  0  0  0  0  0  0  0  0  0  0  0
  -16.8937  -23.4116   23.3463 F   0  0  0  0  0  0  0  0  0  0  0  0
  1  2  1  0  0  0  0
  1  6  2  0  0  0  0
  2  7  2  0  0  0  0
  3  9  2  0  0  0  0
  3 18  1  0  0  0  0
  4 10  1  0  0  0  0
  4 18  2  0  0  0  0
  5 13  2  0  0  0  0
  5 19  1  0  0  0  0
  6 22  1  0  0  0  0
  7 24  1  0  0  0  0
  8 11  2  0  0  0  0
  8 23  1  0  0  0  0
  9 26  1  0  0  0  0
 10 26  2  0  0  0  0
 11 27  1  0  0  0  0
 12 14  2  0  0  0  0
 12 28  1  0  0  0  0
 13 30  1  0  0  0  0
 14 29  1  0  0  0  0
 15 19  2  0  0  0  0
 15 20  1  0  0  0  0
 16 25  1  0  0  0  0
 16 27  2  0  0  0  0
 17 29  2  0  0  0  0
 17 31  1  0  0  0  0
 18 32  1  0  0  0  0
 19 36  1  0  0  0  0
 20 30  2  0  0  0  0
 20 34  1  0  0  0  0
 21 32  1  0  0  0  0
 21 33  2  0  0  0  0
 21 37  1  0  0  0  0
 22 24  2  0  0  0  0
 22 42  1  0  0  0  0
 23 25  2  0  0  0  0
 23 43  1  0  0  0  0
 24 51  1  0  0  0  0
 25 44  1  0  0  0  0
 26 78  1  0  0  0  0
 27 79  1  0  0  0  0
 28 31  2  0  0  0  0
 28 78  1  0  0  0  0
 29 80  1  0  0  0  0
 30 81  1  0  0  0  0
 31 82  1  0  0  0  0
 32 63  2  0  0  0  0
 33 64  1  0  0  0  0
 33 67  1  0  0  0  0
 34 35  2  0  0  0  0
 35 38  1  0  0  0  0
 36 65  1  0  0  0  0
 36 72  2  0  0  0  0
 37 68  1  0  0  0  0
 37 73  2  0  0  0  0
 38 59  1  0  0  0  0
 38 74  2  0  0  0  0
 39 52  1  0  0  0  0
 39 69  1  0  0  0  0
 39 75  2  0  0  0  0
 40 60  1  0  0  0  0
 40 66  1  0  0  0  0
 40 76  2  0  0  0  0
 41 61  1  0  0  0  0
 41 70  1  0  0  0  0
 41 77  2  0  0  0  0
 42 45  1  0  0  0  0
 43 52  1  0  0  0  0
 44 66  1  0  0  0  0
 45 47  1  0  0  0  0
 46 48  1  0  0  0  0
 46 49  1  0  0  0  0
 47 51  1  0  0  0  0
 48 53  1  0  0  0  0
 49 65  1  0  0  0  0
 50 53  1  0  0  0  0
 50 65  1  0  0  0  0
 51 69  1  0  0  0  0
 52 66  1  0  0  0  0
 53 64  1  0  0  0  0
 54 61  1  0  0  0  0
 55 62  1  0  0  0  0
 56 62  1  0  0  0  0
 57 62  1  0  0  0  0
 58 71  1  0  0  0  0
 59 79  1  0  0  0  0
 60 62  1  0  0  0  0
 60 70  1  0  0  0  0
 61 71  1  0  0  0  0
 63 64  1  0  0  0  0
M  CHG  1  71   1
M  ISO  4  19 100  36 100  59 101  79 101
M  END
> <Batch ID>
0126

> <Smiles>
CNC(C)C(=O)NC(C(=O)N1Cc2cc([101O:1][101CH2:1]C(=O)C=Cc3c[100c:0]([100C:0](=O)N4CCCC(n5nc(-c6ccc(Oc7ccc(F)cc7F)cc6)c(C(N)=O)c5N)C4)ccc3F)ccc2CC1C(=O)NC1CCCc2ccccc21)C(C)(C)C

> <Shape>
0.244

> <Color>
0.068

> <Negative vol penalty>
0.000

$$$$

  -OEChem-04052302113D

 85 93  0     1  0  0  0  0  0999 V2000
  -28.8354  -23.1535   19.5448 C   0  0  0  0  0  0  0  0  0  0  0  0
  -27.5005  -23.5367   19.4632 C   0  0  0  0  0  0  0  0  0  0  0  0
  -26.1895  -13.7495   20.2746 C   0  0  0  0  0  0  0  0  0  0  0  0
  -23.9528  -13.6516   21.1828 C   0  0  0  0  0  0  0  0  0  0  0  0
  -29.6513  -23.6822   20.5442 C   0  0  0  0  0  0  0  0  0  0  0  0
  -26.9804  -24.4479   20.3816 C   0  0  0  0  0  0  0  0  0  0  0  0
  -22.7107  -28.7092   19.3251 C   0  0  0  0  0  0  0  0  0  0  0  0
  -21.1216  -23.7342   22.9951 C   0  0  0  0  0  0  0  0  0  0  0  0
  -26.3438  -12.3829   20.5072 C   0  0  0  0  0  0  0  0  0  0  0  0
  -24.1071  -12.2849   21.4153 C   0  0  0  0  0  0  0  0  0  0  0  0
  -21.3368  -28.7391   19.5605 C   0  0  0  0  0  0  0  0  0  0  0  0
  -19.9647  -24.5132   23.0119 C   0  0  0  0  0  0  0  0  0  0  0  0
  -23.9845   -9.4250   19.6191 C   0  0  0  0  0  0  0  0  0  0  0  0
  -22.9313   -8.5847   19.2579 C   0  0  0  0  0  0  0  0  0  0  0  0
  -21.7242  -29.9026   21.6379 C   0  0  0  0  0  0  0  0  0  0  0  0
  -19.2673  -23.5226   20.9216 C   0  0  0  0  0  0  0  0  0  0  0  0
  -22.7240   -7.8580   21.5527 C   0  0  0  0  0  0  0  0  0  0  0  0
  -24.9940  -14.3839   20.6125 C   0  0  0  0  0  0  0  0  0  0  0  0
  -24.3345  -16.4093   19.2088 C   0  0  0  0  0  0  0  0  0  0  0  0
  -29.1434  -24.6078   21.4694 C   0  0  0  0  0  0  0  0  0  0  0  0
  -23.6038  -29.2671   20.2511 C   0  0  0  0  0  0  0  0  0  0  0  0
  -27.7899  -24.9884   21.3951 C   0  0  0  0  0  0  0  0  0  0  0  0
  -23.1087  -29.8808   21.4106 C   0  0  0  0  0  0  0  0  0  0  0  0
  -20.4242  -22.7436   20.9048 C   0  0  0  0  0  0  0  0  0  0  0  0
  -21.3514  -22.8494   21.9414 C   0  0  0  0  0  0  0  0  0  0  0  0
  -25.3026  -11.6506   21.0774 C   0  0  0  0  0  0  0  0  0  0  0  0
  -20.8436  -29.3332   20.7184 C   0  0  0  0  0  0  0  0  0  0  0  0
  -19.0375  -24.4073   21.9752 C   0  0  0  0  0  0  0  0  0  0  0  0
  -24.4075   -9.4817   20.9471 C   0  0  0  0  0  0  0  0  0  0  0  0
  -22.3011   -7.8013   20.2246 C   0  0  0  0  0  0  0  0  0  0  0  0
  -23.7773   -8.6982   21.9139 C   0  0  0  0  0  0  0  0  0  0  0  0
  -24.8343  -15.7957   20.3731 C   0  0  0  0  0  0  0  0  0  0  0  0
  -24.3851  -17.7546   19.4809 C   0  0  0  0  0  0  0  0  0  0  0  0
  -23.8662  -15.8162   17.9903 C   0  0  0  0  0  0  0  0  0  0  0  0
  -25.9678  -28.1355   22.0497 C   0  0  0  0  0  0  0  0  0  0  0  0
  -17.5256  -28.0059   21.2958 C   0  0  0  0  0  0  0  0  0  0  0  0
  -26.4076  -31.2704   22.7577 C   0  0  0  0  0  0  0  0  0  0  0  0
  -25.0795  -34.4071   22.9685 C   0  0  0  0  0  0  0  0  0  0  0  0
  -23.5454  -22.0674   22.9012 C   0  0  0  0  0  0  0  0  0  0  0  0
  -30.0516  -25.1159   22.5611 C   0  0  0  0  0  0  0  0  0  0  0  0
  -25.0812  -29.2505   19.9696 C   0  0  0  0  0  0  0  0  0  0  0  0
  -24.0243  -30.5119   22.4264 C   0  0  0  0  0  0  0  0  0  0  0  0
  -29.5196  -26.3613   23.2656 C   0  0  0  0  0  0  0  0  0  0  0  0
  -26.5930  -20.2659   23.2810 C   0  0  0  0  0  0  0  0  0  0  0  0
  -28.0461  -26.1862   23.6190 C   0  0  0  0  0  0  0  0  0  0  0  0
  -26.3660  -18.9928   22.4625 C   0  0  0  0  0  0  0  0  0  0  0  0
  -25.3198  -20.7151   23.9958 C   0  0  0  0  0  0  0  0  0  0  0  0
  -23.9151  -19.5909   22.3129 C   0  0  0  0  0  0  0  0  0  0  0  0
  -27.1954  -25.9934   22.3578 C   0  0  1  0  0  0  0  0  0  0  0  0
  -25.9311  -29.3933   21.2285 C   0  0  1  0  0  0  0  0  0  0  0  0
  -25.1529  -19.1359   21.5226 C   0  0  2  0  0  0  0  0  0  0  0  0
  -21.6621  -22.3408   18.7619 C   0  0  0  0  0  0  0  0  0  0  0  0
  -25.6728  -36.7581   23.6150 C   0  0  0  0  0  0  0  0  0  0  0  0
  -26.2424  -30.4989   25.7052 C   0  0  0  0  0  0  0  0  0  0  0  0
  -25.8854  -32.9171   26.2463 C   0  0  0  0  0  0  0  0  0  0  0  0
  -28.0104  -32.1833   25.1652 C   0  0  0  0  0  0  0  0  0  0  0  0
  -24.5205  -35.4206   20.2446 C   0  0  0  0  0  0  0  0  0  0  0  0
  -20.6440  -21.8046   19.7633 C   0  0  0  0  0  0  0  0  0  0  0  0
  -16.6266  -26.8693   20.8322 C   0  0  0  0  0  0  0  0  0  0  0  0
  -18.7270  -28.2917   20.4161 C   0  0  0  0  0  0  0  0  0  1  0  0
  -17.3553  -25.5371   20.7304 C   0  0  0  0  0  0  0  0  0  0  0  0
  -25.8763  -32.2136   23.8099 C   0  0  1  0  0  0  0  0  0  0  0  0
  -25.5876  -35.7511   22.4786 C   0  0  2  0  0  0  0  0  0  0  0  0
  -26.4862  -31.9397   25.2137 C   0  0  0  0  0  0  0  0  0  0  0  0
  -25.1773  -16.6788   21.3146 N   0  0  0  0  0  0  0  0  0  0  0  0
  -24.8927  -17.8609   20.7423 N   0  0  0  0  0  0  0  0  0  0  0  0
  -25.4611  -30.4646   22.1091 N   0  0  0  0  0  0  0  0  0  0  0  0
  -24.2145  -20.8332   23.0422 N   0  0  0  0  0  0  0  0  0  0  0  0
  -24.0446  -18.8452   18.7618 N   0  0  0  0  0  0  0  0  0  0  0  0
  -23.8825  -14.4193   17.8778 N   0  0  0  0  0  0  0  0  0  0  0  0
  -22.5337  -22.0683   21.9415 N   0  0  0  0  0  0  0  0  0  0  0  0
  -26.9782  -27.2619   21.6958 N   0  0  0  0  0  0  0  0  0  0  0  0
  -26.1152  -33.5622   23.3074 N   0  0  0  0  0  0  0  0  0  0  0  0
  -24.6784  -36.2987   21.4326 N   0  3  0  0  0  0  0  0  0  0  0  0
  -23.4611  -16.5053   17.0236 O   0  0  0  0  0  0  0  0  0  0  0  0
  -25.1415  -27.9706   22.9395 O   0  0  0  0  0  0  0  0  0  0  0  0
  -17.2996  -28.6575   22.3142 O   0  0  0  0  0  0  0  0  0  0  0  0
  -27.6170  -31.2545   22.5151 O   0  0  0  0  0  0  0  0  0  0  0  0
  -23.8834  -34.1353   23.0464 O   0  0  0  0  0  0  0  0  0  0  0  0
  -23.8658  -23.0585   23.5623 O   0  0  0  0  0  0  0  0  0  0  0  0
  -25.4527  -10.3169   21.3043 O   0  0  0  0  0  0  0  0  0  0  0  0
  -19.5031  -29.3631   20.9510 O   0  0  0  0  0  0  0  0  0  1  0  0
  -17.9008  -25.1721   21.9922 O   0  0  0  0  0  0  0  0  0  0  0  0
  -21.2887   -6.9956   19.8779 F   0  0  0  0  0  0  0  0  0  0  0  0
  -24.1784   -8.7493   23.1915 F   0  0  0  0  0  0  0  0  0  0  0  0
  1  2  1  0  0  0  0
  1  5  2  0  0  0  0
  2  6  2  0  0  0  0
  3  9  2  0  0  0  0
  3 18  1  0  0  0  0
  4 10  1  0  0  0  0
  4 18  2  0  0  0  0
  5 20  1  0  0  0  0
  6 22  1  0  0  0  0
  7 11  2  0  0  0  0
  7 21  1  0  0  0  0
  8 12  2  0  0  0  0
  8 25  1  0  0  0  0
  9 26  1  0  0  0  0
 10 26  2  0  0  0  0
 11 27  1  0  0  0  0
 12 28  1  0  0  0  0
 13 14  2  0  0  0  0
 13 29  1  0  0  0  0
 14 30  1  0  0  0  0
 15 23  1  0  0  0  0
 15 27  2  0  0  0  0
 16 24  1  0  0  0  0
 16 28  2  0  0  0  0
 17 30  2  0  0  0  0
 17 31  1  0  0  0  0
 18 32  1  0  0  0  0
 19 32  1  0  0  0  0
 19 33  2  0  0  0  0
 19 34  1  0  0  0  0
 20 22  2  0  0  0  0
 20 40  1  0  0  0  0
 21 23  2  0  0  0  0
 21 41  1  0  0  0  0
 22 49  1  0  0  0  0
 23 42  1  0  0  0  0
 24 25  2  0  0  0  0
 24 58  1  0  0  0  0
 25 71  1  0  0  0  0
 26 81  1  0  0  0  0
 27 82  1  0  0  0  0
 28 83  1  0  0  0  0
 29 31  2  0  0  0  0
 29 81  1  0  0  0  0
 30 84  1  0  0  0  0
 31 85  1  0  0  0  0
 32 65  2  0  0  0  0
 33 66  1  0  0  0  0
 33 69  1  0  0  0  0
 34 70  1  0  0  0  0
 34 75  2  0  0  0  0
 35 50  1  0  0  0  0
 35 72  1  0  0  0  0
 35 76  2  0  0  0  0
 36 59  1  0  0  0  0
 36 60  1  0  0  0  0
 36 77  2  0  0  0  0
 37 62  1  0  0  0  0
 37 67  1  0  0  0  0
 37 78  2  0  0  0  0
 38 63  1  0  0  0  0
 38 73  1  0  0  0  0
 38 79  2  0  0  0  0
 39 68  1  0  0  0  0
 39 71  1  0  0  0  0
 39 80  2  0  0  0  0
 40 43  1  0  0  0  0
 41 50  1  0  0  0  0
 42 67  1  0  0  0  0
 43 45  1  0  0  0  0
 44 46  1  0  0  0  0
 44 47  1  0  0  0  0
 45 49  1  0  0  0  0
 46 51  1  0  0  0  0
 47 68  1  0  0  0  0
 48 51  1  0  0  0  0
 48 68  1  0  0  0  0
 49 72  1  0  0  0  0
 50 67  1  0  0  0  0
 51 66  1  0  0  0  0
 52 58  1  0  0  0  0
 53 63  1  0  0  0  0
 54 64  1  0  0  0  0
 55 64  1  0  0  0  0
 56 64  1  0  0  0  0
 57 74  1  0  0  0  0
 59 61  1  0  0  0  0
 60 82  1  0  0  0  0
 61 83  1  0  0  0  0
 62 64  1  0  0  0  0
 62 73  1  0  0  0  0
 63 74  1  0  0  0  0
 65 66  1  0  0  0  0
M  CHG  1  74   1
M  ISO  4  39 100  60 101  71 100  82 101
M  END
> <Batch ID>
0126

> <Smiles>
CCc1cc(OCCC(=O)[101CH2:1][101O:1]c2ccc3c(c2)CN(C(=O)C(NC(=O)C(C)NC)C(C)(C)C)C(C(=O)NC2CCCc4ccccc42)C3)ccc1[100NH:0][100C:0](=O)N1CCCC(n2nc(-c3ccc(Oc4ccc(F)cc4F)cc3)c(C(N)=O)c2N)C1

> <Shape>
0.241

> <Color>
0.062

> <Negative vol penalty>
0.000

$$$$

  -OEChem-04052302113D

 87 96  0     1  0  0  0  0  0999 V2000
  -27.0768  -11.1127   12.4803 C   0  0  0  0  0  0  0  0  0  0  0  0
  -27.8154  -11.5423   13.5782 C   0  0  0  0  0  0  0  0  0  0  0  0
  -25.1406  -31.1051   21.2498 C   0  0  0  0  0  0  0  0  0  0  0  0
  -24.4497  -29.4647   22.8834 C   0  0  0  0  0  0  0  0  0  0  0  0
  -28.1932  -18.7388   20.2423 C   0  0  0  0  0  0  0  0  0  0  0  0
  -25.7286  -11.4514   12.3729 C   0  0  0  0  0  0  0  0  0  0  0  0
  -27.2064  -12.3118   14.5688 C   0  0  0  0  0  0  0  0  0  0  0  0
  -28.3930  -12.1890   20.5757 C   0  0  0  0  0  0  0  0  0  0  0  0
  -27.4056  -19.8153   19.8342 C   0  0  0  0  0  0  0  0  0  0  0  0
  -24.5516  -32.1132   22.0129 C   0  0  0  0  0  0  0  0  0  0  0  0
  -23.8608  -30.4728   23.6466 C   0  0  0  0  0  0  0  0  0  0  0  0
  -29.1770  -13.0013   21.3937 C   0  0  0  0  0  0  0  0  0  0  0  0
  -25.3005  -33.8986   24.7850 C   0  0  0  0  0  0  0  0  0  0  0  0
  -26.0287  -35.0719   24.9818 C   0  0  0  0  0  0  0  0  0  0  0  0
  -30.0326  -20.2461   20.6687 C   0  0  0  0  0  0  0  0  0  0  0  0
  -27.2198  -14.2786   21.9912 C   0  0  0  0  0  0  0  0  0  0  0  0
  -24.2742  -36.3405   23.9095 C   0  0  0  0  0  0  0  0  0  0  0  0
  -25.0896  -29.7808   21.6850 C   0  0  0  0  0  0  0  0  0  0  0  0
  -29.5066  -18.9542   20.6596 C   0  0  0  0  0  0  0  0  0  0  0  0
  -27.0524  -28.6301   20.5312 C   0  0  0  0  0  0  0  0  0  0  0  0
  -25.1004  -12.2173   13.3675 C   0  0  0  0  0  0  0  0  0  0  0  0
  -27.0160  -12.4225   20.4506 C   0  0  0  0  0  0  0  0  0  0  0  0
  -25.8489  -12.6622   14.4739 C   0  0  0  0  0  0  0  0  0  0  0  0
  -26.4200  -13.4662   21.1729 C   0  0  0  0  0  0  0  0  0  0  0  0
  -29.2451  -21.3226   20.2605 C   0  0  0  0  0  0  0  0  0  0  0  0
  -27.9316  -21.1072   19.8433 C   0  0  0  0  0  0  0  0  0  0  0  0
  -23.9118  -31.7971   23.2114 C   0  0  0  0  0  0  0  0  0  0  0  0
  -28.5910  -14.0481   22.0994 C   0  0  0  0  0  0  0  0  0  0  0  0
  -24.0592  -33.9462   24.1504 C   0  0  0  0  0  0  0  0  0  0  0  0
  -25.5155  -36.2928   24.5441 C   0  0  0  0  0  0  0  0  0  0  0  0
  -23.5461  -35.1671   23.7127 C   0  0  0  0  0  0  0  0  0  0  0  0
  -25.6972  -28.7389   20.8967 C   0  0  0  0  0  0  0  0  0  0  0  0
  -27.1167  -27.4749   19.7911 C   0  0  0  0  0  0  0  0  0  0  0  0
  -31.0767  -16.6238   24.4658 C   0  0  0  0  0  0  0  0  0  0  0  0
  -31.5299  -15.7929   25.4125 C   0  0  0  0  0  0  0  0  0  0  0  0
  -30.3380  -17.8174   21.0892 C   0  0  0  0  0  0  0  0  0  0  0  0
  -28.1544  -29.4959   20.8338 C   0  0  0  0  0  0  0  0  0  0  0  0
  -25.0802  -13.1908   18.0492 C   0  0  0  0  0  0  0  0  0  0  0  0
  -22.7704  -12.7471   20.2831 C   0  0  0  0  0  0  0  0  0  0  0  0
  -21.9076  -12.6780   23.5843 C   0  0  0  0  0  0  0  0  0  0  0  0
  -25.7939  -22.1268   18.9846 C   0  0  0  0  0  0  0  0  0  0  0  0
  -23.6526  -12.5984   13.1842 C   0  0  0  0  0  0  0  0  0  0  0  0
  -26.1795  -11.5207   19.5849 C   0  0  0  0  0  0  0  0  0  0  0  0
  -24.9425  -13.7462   21.0888 C   0  0  0  0  0  0  0  0  0  0  0  0
  -30.3273  -17.8905   24.7607 C   0  0  0  0  0  0  0  0  0  0  0  0
  -22.9884  -13.1010   14.4634 C   0  0  0  0  0  0  0  0  0  0  0  0
  -23.4320  -24.5621   17.9043 C   0  0  0  0  0  0  0  0  0  0  0  0
  -23.8851  -14.1141   15.1680 C   0  0  0  0  0  0  0  0  0  0  0  0
  -23.9222  -25.8569   18.5564 C   0  0  0  0  0  0  0  0  0  0  0  0
  -29.5353  -18.1153   23.4861 C   0  0  0  0  0  0  0  0  0  0  0  0
  -23.6398  -23.3540   18.8158 C   0  0  0  0  0  0  0  0  0  0  0  0
  -25.4979  -24.4818   19.9753 C   0  0  0  0  0  0  0  0  0  0  0  0
  -25.2176  -13.4777   15.5815 C   0  0  1  0  0  0  0  0  0  0  0  0
  -31.1771  -16.4121   22.9733 C   0  0  1  0  0  0  0  0  0  0  0  0
  -24.8751  -12.1691   19.1316 C   0  0  1  0  0  0  0  0  0  0  0  0
  -25.3690  -25.7170   19.0690 C   0  0  2  0  0  0  0  0  0  0  0  0
  -29.8341  -22.6958   20.2800 C   0  0  0  0  0  0  0  0  0  0  0  0
  -19.9380  -12.3246   25.0986 C   0  0  0  0  0  0  0  0  0  0  0  0
  -21.7437  -15.5367   19.5947 C   0  0  0  0  0  0  0  0  0  0  0  0
  -20.4324  -15.5044   21.7272 C   0  0  0  0  0  0  0  0  0  0  0  0
  -19.9554  -13.8242   19.9462 C   0  0  0  0  0  0  0  0  0  0  0  0
  -23.1769  -10.3401   24.8812 C   0  0  0  0  0  0  0  0  0  0  0  0
  -30.7171  -15.0279   22.5182 C   0  0  0  0  0  0  0  0  0  1  0  0
  -22.0823  -13.6268   21.2987 C   0  0  1  0  0  0  0  0  0  0  0  0
  -21.1178  -11.6688   24.3981 C   0  0  2  0  0  0  0  0  0  0  0  0
  -21.0816  -14.6192   20.6420 C   0  0  0  0  0  0  0  0  0  0  0  0
  -24.9543  -27.7330   20.4274 N   0  0  0  0  0  0  0  0  0  0  0  0
  -25.8457  -26.9813   19.7592 N   0  0  0  0  0  0  0  0  0  0  0  0
  -30.3128  -17.4662   22.4349 N   0  0  0  0  0  0  0  0  0  0  0  0
  -24.1682  -12.8405   20.2242 N   0  0  0  0  0  0  0  0  0  0  0  0
  -25.0339  -23.2835   19.2588 N   0  0  0  0  0  0  0  0  0  0  0  0
  -28.1360  -26.8434   19.1709 N   0  0  0  0  0  0  0  0  0  0  0  0
  -28.8929  -29.2547   22.0003 N   0  0  0  0  0  0  0  0  0  0  0  0
  -27.1157  -22.1875   19.4250 N   0  0  0  0  0  0  0  0  0  0  0  0
  -25.0447  -12.6699   16.7698 N   0  0  0  0  0  0  0  0  0  0  0  0
  -21.4776  -12.7271   22.2751 N   0  0  0  0  0  0  0  0  0  0  0  0
  -21.9889  -11.0417   25.4319 N   0  3  0  0  0  0  0  0  0  0  0  0
  -31.0035  -17.2522   20.2231 O   0  0  0  0  0  0  0  0  0  0  0  0
  -28.4647  -30.4650   20.1001 O   0  0  0  0  0  0  0  0  0  0  0  0
  -25.2561  -14.3651   18.3523 O   0  0  0  0  0  0  0  0  0  0  0  0
  -22.0934  -11.9991   19.5733 O   0  0  0  0  0  0  0  0  0  0  0  0
  -22.8128  -13.3576   24.0630 O   0  0  0  0  0  0  0  0  0  0  0  0
  -25.3157  -21.1648   18.3780 O   0  0  0  0  0  0  0  0  0  0  0  0
  -23.3372  -32.7805   23.9565 O   0  0  0  0  0  0  0  0  0  0  0  0
  -29.3541  -14.8428   22.8980 O   0  0  0  0  0  0  0  0  0  1  0  0
  -26.2142  -37.4197   24.7345 F   0  0  0  0  0  0  0  0  0  0  0  0
  -22.3536  -35.2193   23.1035 F   0  0  0  0  0  0  0  0  0  0  0  0
  1  2  1  0  0  0  0
  1  6  2  0  0  0  0
  2  7  2  0  0  0  0
  3 10  2  0  0  0  0
  3 18  1  0  0  0  0
  4 11  1  0  0  0  0
  4 18  2  0  0  0  0
  5  9  2  0  0  0  0
  5 19  1  0  0  0  0
  6 21  1  0  0  0  0
  7 23  1  0  0  0  0
  8 12  2  0  0  0  0
  8 22  1  0  0  0  0
  9 26  1  0  0  0  0
 10 27  1  0  0  0  0
 11 27  2  0  0  0  0
 12 28  1  0  0  0  0
 13 14  2  0  0  0  0
 13 29  1  0  0  0  0
 14 30  1  0  0  0  0
 15 19  2  0  0  0  0
 15 25  1  0  0  0  0
 16 24  1  0  0  0  0
 16 28  2  0  0  0  0
 17 30  2  0  0  0  0
 17 31  1  0  0  0  0
 18 32  1  0  0  0  0
 19 36  1  0  0  0  0
 20 32  1  0  0  0  0
 20 33  2  0  0  0  0
 20 37  1  0  0  0  0
 21 23  2  0  0  0  0
 21 42  1  0  0  0  0
 22 24  2  0  0  0  0
 22 43  1  0  0  0  0
 23 53  1  0  0  0  0
 24 44  1  0  0  0  0
 25 26  2  0  0  0  0
 25 57  1  0  0  0  0
 26 74  1  0  0  0  0
 27 84  1  0  0  0  0
 28 85  1  0  0  0  0
 29 31  2  0  0  0  0
 29 84  1  0  0  0  0
 30 86  1  0  0  0  0
 31 87  1  0  0  0  0
 32 67  2  0  0  0  0
 33 68  1  0  0  0  0
 33 72  1  0  0  0  0
 34 35  2  0  0  0  0
 34 45  1  0  0  0  0
 34 54  1  0  0  0  0
 36 69  1  0  0  0  0
 36 78  2  0  0  0  0
 37 73  1  0  0  0  0
 37 79  2  0  0  0  0
 38 55  1  0  0  0  0
 38 75  1  0  0  0  0
 38 80  2  0  0  0  0
 39 64  1  0  0  0  0
 39 70  1  0  0  0  0
 39 81  2  0  0  0  0
 40 65  1  0  0  0  0
 40 76  1  0  0  0  0
 40 82  2  0  0  0  0
 41 71  1  0  0  0  0
 41 74  1  0  0  0  0
 41 83  2  0  0  0  0
 42 46  1  0  0  0  0
 43 55  1  0  0  0  0
 44 70  1  0  0  0  0
 45 50  1  0  0  0  0
 46 48  1  0  0  0  0
 47 49  1  0  0  0  0
 47 51  1  0  0  0  0
 48 53  1  0  0  0  0
 49 56  1  0  0  0  0
 50 69  1  0  0  0  0
 51 71  1  0  0  0  0
 52 56  1  0  0  0  0
 52 71  1  0  0  0  0
 53 75  1  0  0  0  0
 54 63  1  0  0  0  0
 54 69  1  0  0  0  0
 55 70  1  0  0  0  0
 56 68  1  0  0  0  0
 58 65  1  0  0  0  0
 59 66  1  0  0  0  0
 60 66  1  0  0  0  0
 61 66  1  0  0  0  0
 62 77  1  0  0  0  0
 63 85  1  0  0  0  0
 64 66  1  0  0  0  0
 64 76  1  0  0  0  0
 65 77  1  0  0  0  0
 67 68  1  0  0  0  0
M  CHG  1  77   1
M  ISO  4  41 100  63 101  74 100  85 101
M  END
> <Batch ID>
0126

> <Smiles>
C=C1CCN(C(=O)c2ccc([100NH:0][100C:0](=O)N3CCCC(n4nc(-c5ccc(Oc6ccc(F)cc6F)cc5)c(C(N)=O)c4N)C3)c(C)c2)C1[101CH2:1][101O:1]c1ccc2c(c1)CN(C(=O)C(NC(=O)C(C)NC)C(C)(C)C)C(C(=O)NC1CCCc3ccccc31)C2

> <Shape>
0.252

> <Color>
0.076

> <Negative vol penalty>
0.000

$$$$

  -OEChem-04052302113D

 82 90  0     1  0  0  0  0  0999 V2000
  -30.1654  -30.0422   26.2074 C   0  0  0  0  0  0  0  0  0  0  0  0
  -29.5827  -29.0884   25.3790 C   0  0  0  0  0  0  0  0  0  0  0  0
  -31.0392  -19.1515   21.1055 C   0  0  0  0  0  0  0  0  0  0  0  0
  -23.2185  -10.5959   21.6833 C   0  0  0  0  0  0  0  0  0  0  0  0
  -22.7446  -12.9395   21.3373 C   0  0  0  0  0  0  0  0  0  0  0  0
  -30.0392  -20.0803   20.8174 C   0  0  0  0  0  0  0  0  0  0  0  0
  -29.3805  -31.0469   26.7715 C   0  0  0  0  0  0  0  0  0  0  0  0
  -28.2144  -29.1382   25.1152 C   0  0  0  0  0  0  0  0  0  0  0  0
  -27.1535  -28.4273   20.2148 C   0  0  0  0  0  0  0  0  0  0  0  0
  -30.8555  -17.8066   20.7840 C   0  0  0  0  0  0  0  0  0  0  0  0
  -22.2079  -10.5331   22.6426 C   0  0  0  0  0  0  0  0  0  0  0  0
  -21.7339  -12.8768   22.2966 C   0  0  0  0  0  0  0  0  0  0  0  0
  -27.1903  -27.1173   19.7389 C   0  0  0  0  0  0  0  0  0  0  0  0
  -18.5366  -11.7973   22.4767 C   0  0  0  0  0  0  0  0  0  0  0  0
  -17.3189  -12.4066   22.1739 C   0  0  0  0  0  0  0  0  0  0  0  0
  -28.6719  -18.3194   19.8864 C   0  0  0  0  0  0  0  0  0  0  0  0
  -24.7860  -26.9992   19.8957 C   0  0  0  0  0  0  0  0  0  0  0  0
  -17.5683  -13.8572   24.0898 C   0  0  0  0  0  0  0  0  0  0  0  0
  -23.4869  -11.7991   21.0307 C   0  0  0  0  0  0  0  0  0  0  0  0
  -28.8556  -19.6643   20.2079 C   0  0  0  0  0  0  0  0  0  0  0  0
  -24.4062  -11.6355   18.6567 C   0  0  0  0  0  0  0  0  0  0  0  0
  -28.0035  -31.1147   26.5068 C   0  0  0  0  0  0  0  0  0  0  0  0
  -25.9315  -29.0303   20.5456 C   0  0  0  0  0  0  0  0  0  0  0  0
  -27.4100  -30.1439   25.6774 C   0  0  0  0  0  0  0  0  0  0  0  0
  -24.7362  -28.3178   20.3732 C   0  0  0  0  0  0  0  0  0  0  0  0
  -29.6719  -17.3906   20.1745 C   0  0  0  0  0  0  0  0  0  0  0  0
  -21.4655  -11.6735   22.9492 C   0  0  0  0  0  0  0  0  0  0  0  0
  -26.0067  -26.4021   19.5820 C   0  0  0  0  0  0  0  0  0  0  0  0
  -19.2700  -12.2179   23.5862 C   0  0  0  0  0  0  0  0  0  0  0  0
  -16.8348  -13.4366   22.9804 C   0  0  0  0  0  0  0  0  0  0  0  0
  -18.7859  -13.2479   24.3927 C   0  0  0  0  0  0  0  0  0  0  0  0
  -24.5312  -11.8648   20.0401 C   0  0  0  0  0  0  0  0  0  0  0  0
  -25.6743  -11.8198   18.1623 C   0  0  0  0  0  0  0  0  0  0  0  0
  -27.8001  -20.6466   19.9036 C   0  0  0  0  0  0  0  0  0  0  0  0
  -27.9962  -21.9689   19.8066 C   0  0  0  0  0  0  0  0  0  0  0  0
  -23.2475  -11.2872   17.8875 C   0  0  0  0  0  0  0  0  0  0  0  0
  -26.8559  -22.8817   19.5032 C   0  0  0  0  0  0  0  0  0  0  0  0
  -24.6602  -30.2084   23.2101 C   0  0  0  0  0  0  0  0  0  0  0  0
  -22.2843  -31.1330   21.2046 C   0  0  0  0  0  0  0  0  0  0  0  0
  -20.6296  -30.6547   18.2584 C   0  0  0  0  0  0  0  0  0  0  0  0
  -30.3788  -14.9751   20.0640 C   0  0  0  0  0  0  0  0  0  0  0  0
  -27.1875  -32.1913   27.1773 C   0  0  0  0  0  0  0  0  0  0  0  0
  -25.9067  -30.4533   21.0324 C   0  0  0  0  0  0  0  0  0  0  0  0
  -23.3967  -28.9266   20.6948 C   0  0  0  0  0  0  0  0  0  0  0  0
  -25.8119  -32.3943   26.5474 C   0  0  0  0  0  0  0  0  0  0  0  0
  -30.2776  -11.4719   19.4361 C   0  0  0  0  0  0  0  0  0  0  0  0
  -25.1267  -31.0510   26.3173 C   0  0  0  0  0  0  0  0  0  0  0  0
  -28.7811  -11.1553   19.3878 C   0  0  0  0  0  0  0  0  0  0  0  0
  -30.5987  -12.5359   20.4843 C   0  0  0  0  0  0  0  0  0  0  0  0
  -28.3192  -13.4566   20.3246 C   0  0  0  0  0  0  0  0  0  0  0  0
  -25.9335  -30.1791   25.3476 C   0  0  1  0  0  0  0  0  0  0  0  0
  -24.6481  -30.7916   21.8254 C   0  0  1  0  0  0  0  0  0  0  0  0
  -27.9385  -12.4372   19.2386 C   0  0  2  0  0  0  0  0  0  0  0  0
  -18.7063  -31.5420   16.9127 C   0  0  0  0  0  0  0  0  0  0  0  0
  -20.3289  -29.7153   23.0691 C   0  0  0  0  0  0  0  0  0  0  0  0
  -18.6246  -29.8062   21.2373 C   0  0  0  0  0  0  0  0  0  0  0  0
  -19.5305  -31.9209   22.2017 C   0  0  0  0  0  0  0  0  0  0  0  0
  -22.3990  -31.4025   16.0069 C   0  0  0  0  0  0  0  0  0  0  0  0
  -27.2029  -24.3531   19.4191 C   0  0  0  0  0  0  0  0  0  1  0  0
  -21.0025  -30.5100   20.7067 C   0  0  1  0  0  0  0  0  0  0  0  0
  -20.2020  -31.6270   17.1738 C   0  0  2  0  0  0  0  0  0  0  0  0
  -19.8969  -30.4757   21.7994 C   0  0  0  0  0  0  0  0  0  0  0  0
  -25.7800  -12.1711   20.4013 N   0  0  0  0  0  0  0  0  0  0  0  0
  -26.4515  -12.1356   19.2376 N   0  0  0  0  0  0  0  0  0  0  0  0
  -23.4251  -30.3186   21.1736 N   0  0  0  0  0  0  0  0  0  0  0  0
  -29.7656  -13.7225   20.2778 N   0  0  0  0  0  0  0  0  0  0  0  0
  -26.1892  -11.7408   16.9169 N   0  0  0  0  0  0  0  0  0  0  0  0
  -22.0236  -11.1373   18.5537 N   0  0  0  0  0  0  0  0  0  0  0  0
  -29.4864  -16.0245   19.8472 N   0  0  0  0  0  0  0  0  0  0  0  0
  -25.7294  -30.6181   23.9838 N   0  0  0  0  0  0  0  0  0  0  0  0
  -20.6309  -31.2468   19.5036 N   0  0  0  0  0  0  0  0  0  0  0  0
  -20.9189  -31.3314   15.9012 N   0  3  0  0  0  0  0  0  0  0  0  0
  -23.2993  -11.0980   16.6485 O   0  0  0  0  0  0  0  0  0  0  0  0
  -25.7135  -22.4642   19.3333 O   0  0  0  0  0  0  0  0  0  0  0  0
  -23.7651  -29.4445   23.5519 O   0  0  0  0  0  0  0  0  0  0  0  0
  -22.2752  -32.3016   21.5994 O   0  0  0  0  0  0  0  0  0  0  0  0
  -20.9286  -29.4857   18.0248 O   0  0  0  0  0  0  0  0  0  0  0  0
  -31.6058  -15.1023   20.0456 O   0  0  0  0  0  0  0  0  0  0  0  0
  -20.4791  -11.6125   23.8851 O   0  0  0  0  0  0  0  0  0  0  0  0
  -26.0398  -25.1231   19.1183 O   0  0  0  0  0  0  0  0  0  1  0  0
  -15.6663  -14.0227   22.6885 F   0  0  0  0  0  0  0  0  0  0  0  0
  -19.4867  -13.6571   25.4591 F   0  0  0  0  0  0  0  0  0  0  0  0
  1  2  1  0  0  0  0
  1  7  2  0  0  0  0
  2  8  2  0  0  0  0
  3  6  2  0  0  0  0
  3 10  1  0  0  0  0
  4 11  2  0  0  0  0
  4 19  1  0  0  0  0
  5 12  1  0  0  0  0
  5 19  2  0  0  0  0
  6 20  1  0  0  0  0
  7 22  1  0  0  0  0
  8 24  1  0  0  0  0
  9 13  2  0  0  0  0
  9 23  1  0  0  0  0
 10 26  2  0  0  0  0
 11 27  1  0  0  0  0
 12 27  2  0  0  0  0
 13 28  1  0  0  0  0
 14 15  2  0  0  0  0
 14 29  1  0  0  0  0
 15 30  1  0  0  0  0
 16 20  2  0  0  0  0
 16 26  1  0  0  0  0
 17 25  1  0  0  0  0
 17 28  2  0  0  0  0
 18 30  2  0  0  0  0
 18 31  1  0  0  0  0
 19 32  1  0  0  0  0
 20 34  1  0  0  0  0
 21 32  1  0  0  0  0
 21 33  2  0  0  0  0
 21 36  1  0  0  0  0
 22 24  2  0  0  0  0
 22 42  1  0  0  0  0
 23 25  2  0  0  0  0
 23 43  1  0  0  0  0
 24 51  1  0  0  0  0
 25 44  1  0  0  0  0
 26 69  1  0  0  0  0
 27 79  1  0  0  0  0
 28 80  1  0  0  0  0
 29 31  2  0  0  0  0
 29 79  1  0  0  0  0
 30 81  1  0  0  0  0
 31 82  1  0  0  0  0
 32 63  2  0  0  0  0
 33 64  1  0  0  0  0
 33 67  1  0  0  0  0
 34 35  2  0  0  0  0
 35 37  1  0  0  0  0
 36 68  1  0  0  0  0
 36 73  2  0  0  0  0
 37 59  1  0  0  0  0
 37 74  2  0  0  0  0
 38 52  1  0  0  0  0
 38 70  1  0  0  0  0
 38 75  2  0  0  0  0
 39 60  1  0  0  0  0
 39 65  1  0  0  0  0
 39 76  2  0  0  0  0
 40 61  1  0  0  0  0
 40 71  1  0  0  0  0
 40 77  2  0  0  0  0
 41 66  1  0  0  0  0
 41 69  1  0  0  0  0
 41 78  2  0  0  0  0
 42 45  1  0  0  0  0
 43 52  1  0  0  0  0
 44 65  1  0  0  0  0
 45 47  1  0  0  0  0
 46 48  1  0  0  0  0
 46 49  1  0  0  0  0
 47 51  1  0  0  0  0
 48 53  1  0  0  0  0
 49 66  1  0  0  0  0
 50 53  1  0  0  0  0
 50 66  1  0  0  0  0
 51 70  1  0  0  0  0
 52 65  1  0  0  0  0
 53 64  1  0  0  0  0
 54 61  1  0  0  0  0
 55 62  1  0  0  0  0
 56 62  1  0  0  0  0
 57 62  1  0  0  0  0
 58 72  1  0  0  0  0
 59 80  1  0  0  0  0
 60 62  1  0  0  0  0
 60 71  1  0  0  0  0
 61 72  1  0  0  0  0
 63 64  1  0  0  0  0
M  CHG  1  72   1
M  ISO  4  41 100  59 101  69 100  80 101
M  END
> <Batch ID>
0126

> <Smiles>
CNC(C)C(=O)NC(C(=O)N1Cc2cc([101O:1][101CH2:1]C(=O)C=Cc3cccc([100NH:0][100C:0](=O)N4CCCC(n5nc(-c6ccc(Oc7ccc(F)cc7F)cc6)c(C(N)=O)c5N)C4)c3)ccc2CC1C(=O)NC1CCCc2ccccc21)C(C)(C)C

> <Shape>
0.271

> <Color>
0.090

> <Negative vol penalty>
0.000

$$$$

  -OEChem-04052302113D

 83 91  0     1  0  0  0  0  0999 V2000
  -26.6851  -33.9419   26.2420 C   0  0  0  0  0  0  0  0  0  0  0  0
  -27.1066  -32.7735   25.6155 C   0  0  0  0  0  0  0  0  0  0  0  0
  -31.3588  -20.0701   15.5509 C   0  0  0  0  0  0  0  0  0  0  0  0
  -25.3165  -14.8803   21.2286 C   0  0  0  0  0  0  0  0  0  0  0  0
  -27.3252  -14.4362   19.9618 C   0  0  0  0  0  0  0  0  0  0  0  0
  -31.4569  -21.2415   16.3016 C   0  0  0  0  0  0  0  0  0  0  0  0
  -30.1158  -19.6431   15.0837 C   0  0  0  0  0  0  0  0  0  0  0  0
  -25.3286  -34.1484   26.4897 C   0  0  0  0  0  0  0  0  0  0  0  0
  -26.1719  -31.8103   25.2374 C   0  0  0  0  0  0  0  0  0  0  0  0
  -26.9988  -30.0275   20.5702 C   0  0  0  0  0  0  0  0  0  0  0  0
  -25.0760  -13.5099   21.3276 C   0  0  0  0  0  0  0  0  0  0  0  0
  -27.0847  -13.0658   20.0608 C   0  0  0  0  0  0  0  0  0  0  0  0
  -28.0176  -29.0879   20.4188 C   0  0  0  0  0  0  0  0  0  0  0  0
  -23.8340  -11.0516   19.3684 C   0  0  0  0  0  0  0  0  0  0  0  0
  -22.5348  -10.6035   19.1301 C   0  0  0  0  0  0  0  0  0  0  0  0
  -29.0688  -21.5589   16.1182 C   0  0  0  0  0  0  0  0  0  0  0  0
  -26.3766  -27.3198   20.4036 C   0  0  0  0  0  0  0  0  0  0  0  0
  -22.4396   -9.6910   21.3651 C   0  0  0  0  0  0  0  0  0  0  0  0
  -26.4411  -15.3435   20.5457 C   0  0  0  0  0  0  0  0  0  0  0  0
  -30.3119  -21.9860   16.5853 C   0  0  0  0  0  0  0  0  0  0  0  0
  -28.9708  -20.3875   15.3674 C   0  0  0  0  0  0  0  0  0  0  0  0
  -27.4292  -17.5593   21.3340 C   0  0  0  0  0  0  0  0  0  0  0  0
  -24.3759  -33.1916   26.1058 C   0  0  0  0  0  0  0  0  0  0  0  0
  -25.6598  -29.6188   20.6505 C   0  0  0  0  0  0  0  0  0  0  0  0
  -24.8015  -32.0035   25.4814 C   0  0  0  0  0  0  0  0  0  0  0  0
  -25.3424  -28.2564   20.5534 C   0  0  0  0  0  0  0  0  0  0  0  0
  -25.9601  -12.6027   20.7437 C   0  0  0  0  0  0  0  0  0  0  0  0
  -27.7068  -27.7336   20.3383 C   0  0  0  0  0  0  0  0  0  0  0  0
  -24.4361  -10.8193   20.6050 C   0  0  0  0  0  0  0  0  0  0  0  0
  -21.8375   -9.9233   20.1284 C   0  0  0  0  0  0  0  0  0  0  0  0
  -23.7389  -10.1390   21.6034 C   0  0  0  0  0  0  0  0  0  0  0  0
  -26.6899  -16.7590   20.4426 C   0  0  0  0  0  0  0  0  0  0  0  0
  -27.3685  -18.8207   20.7941 C   0  0  0  0  0  0  0  0  0  0  0  0
  -30.4168  -23.2235   17.3784 C   0  0  0  0  0  0  0  0  0  0  0  0
  -29.3956  -23.8009   18.0267 C   0  0  0  0  0  0  0  0  0  0  0  0
  -27.6753  -19.9410   14.8798 C   0  0  0  0  0  0  0  0  0  0  0  0
  -28.1100  -17.1950   22.5421 C   0  0  0  0  0  0  0  0  0  0  0  0
  -29.6051  -25.0619   18.7959 C   0  0  0  0  0  0  0  0  0  0  0  0
  -26.4395  -20.7067   15.1623 C   0  0  0  0  0  0  0  0  0  0  0  0
  -23.3780  -29.8313   22.8531 C   0  0  0  0  0  0  0  0  0  0  0  0
  -21.5313  -28.5743   20.5011 C   0  0  0  0  0  0  0  0  0  0  0  0
  -21.3498  -26.7468   17.6246 C   0  0  0  0  0  0  0  0  0  0  0  0
  -22.9253  -33.4379   26.4372 C   0  0  0  0  0  0  0  0  0  0  0  0
  -24.5704  -30.6469   20.7870 C   0  0  0  0  0  0  0  0  0  0  0  0
  -23.9192  -27.7675   20.6139 C   0  0  0  0  0  0  0  0  0  0  0  0
  -21.9632  -32.5363   25.6680 C   0  0  0  0  0  0  0  0  0  0  0  0
  -24.5954  -21.6223   18.0979 C   0  0  0  0  0  0  0  0  0  0  0  0
  -22.4436  -31.0890   25.7040 C   0  0  0  0  0  0  0  0  0  0  0  0
  -24.9619  -20.5286   19.1005 C   0  0  0  0  0  0  0  0  0  0  0  0
  -24.5308  -21.0766   16.6751 C   0  0  0  0  0  0  0  0  0  0  0  0
  -26.1544  -19.2891   17.2385 C   0  0  0  0  0  0  0  0  0  0  0  0
  -23.8156  -30.9463   25.0340 C   0  0  1  0  0  0  0  0  0  0  0  0
  -23.2823  -30.0781   21.3741 C   0  0  1  0  0  0  0  0  0  0  0  0
  -26.2565  -19.8084   18.6833 C   0  0  2  0  0  0  0  0  0  0  0  0
  -19.6992  -25.8564   15.9573 C   0  0  0  0  0  0  0  0  0  0  0  0
  -20.7056  -26.4044   22.4809 C   0  0  0  0  0  0  0  0  0  0  0  0
  -19.8561  -25.0606   20.5468 C   0  0  0  0  0  0  0  0  0  0  0  0
  -18.8447  -27.2825   21.0595 C   0  0  0  0  0  0  0  0  0  0  0  0
  -22.5848  -28.2754   15.4117 C   0  0  0  0  0  0  0  0  0  0  0  0
  -28.3764  -25.6173   19.4847 C   0  0  0  0  0  0  0  0  0  1  0  0
  -21.1650  -27.1776   20.0607 C   0  0  1  0  0  0  0  0  0  0  0  0
  -20.6325  -27.0036   16.3116 C   0  0  2  0  0  0  0  0  0  0  0  0
  -20.1699  -26.4900   21.0378 C   0  0  0  0  0  0  0  0  0  0  0  0
  -26.1956  -17.4537   19.4145 N   0  0  0  0  0  0  0  0  0  0  0  0
  -27.5113  -18.8568   14.1709 N   0  0  0  0  0  0  0  0  0  0  0  0
  -26.6252  -18.7039   19.6565 N   0  0  0  0  0  0  0  0  0  0  0  0
  -25.7602  -20.3683   16.3243 N   0  0  0  0  0  0  0  0  0  0  0  0
  -22.8899  -28.8108   20.7542 N   0  0  0  0  0  0  0  0  0  0  0  0
  -27.8790  -20.0074   21.1861 N   0  0  0  0  0  0  0  0  0  0  0  0
  -28.0719  -15.8555   22.9527 N   0  0  0  0  0  0  0  0  0  0  0  0
  -23.6783  -30.9589   23.5934 N   0  0  0  0  0  0  0  0  0  0  0  0
  -20.6729  -27.2968   18.6925 N   0  0  0  0  0  0  0  0  0  0  0  0
  -21.6184  -27.1660   15.2059 N   0  3  0  0  0  0  0  0  0  0  0  0
  -28.7199  -18.0356   23.2457 O   0  0  0  0  0  0  0  0  0  0  0  0
  -30.7020  -25.6099   18.8640 O   0  0  0  0  0  0  0  0  0  0  0  0
  -26.1477  -21.5608   14.3355 O   0  0  0  0  0  0  0  0  0  0  0  0
  -23.1916  -28.7019   23.2905 O   0  0  0  0  0  0  0  0  0  0  0  0
  -20.6457  -29.4261   20.6093 O   0  0  0  0  0  0  0  0  0  0  0  0
  -22.4033  -26.1177   17.6962 O   0  0  0  0  0  0  0  0  0  0  0  0
  -25.7258  -11.2654   20.8403 O   0  0  0  0  0  0  0  0  0  0  0  0
  -28.6994  -26.8143   20.1912 O   0  0  0  0  0  0  0  0  0  1  0  0
  -20.5893   -9.4944   19.9000 F   0  0  0  0  0  0  0  0  0  0  0  0
  -24.3116   -9.9139   22.7938 F   0  0  0  0  0  0  0  0  0  0  0  0
  1  2  1  0  0  0  0
  1  8  2  0  0  0  0
  2  9  2  0  0  0  0
  3  6  2  0  0  0  0
  3  7  1  0  0  0  0
  4 11  2  0  0  0  0
  4 19  1  0  0  0  0
  5 12  1  0  0  0  0
  5 19  2  0  0  0  0
  6 20  1  0  0  0  0
  7 21  2  0  0  0  0
  8 23  1  0  0  0  0
  9 25  1  0  0  0  0
 10 13  2  0  0  0  0
 10 24  1  0  0  0  0
 11 27  1  0  0  0  0
 12 27  2  0  0  0  0
 13 28  1  0  0  0  0
 14 15  2  0  0  0  0
 14 29  1  0  0  0  0
 15 30  1  0  0  0  0
 16 20  2  0  0  0  0
 16 21  1  0  0  0  0
 17 26  1  0  0  0  0
 17 28  2  0  0  0  0
 18 30  2  0  0  0  0
 18 31  1  0  0  0  0
 19 32  1  0  0  0  0
 20 34  1  0  0  0  0
 21 36  1  0  0  0  0
 22 32  1  0  0  0  0
 22 33  2  0  0  0  0
 22 37  1  0  0  0  0
 23 25  2  0  0  0  0
 23 43  1  0  0  0  0
 24 26  2  0  0  0  0
 24 44  1  0  0  0  0
 25 52  1  0  0  0  0
 26 45  1  0  0  0  0
 27 80  1  0  0  0  0
 28 81  1  0  0  0  0
 29 31  2  0  0  0  0
 29 80  1  0  0  0  0
 30 82  1  0  0  0  0
 31 83  1  0  0  0  0
 32 64  2  0  0  0  0
 33 66  1  0  0  0  0
 33 69  1  0  0  0  0
 34 35  2  0  0  0  0
 35 38  1  0  0  0  0
 36 39  1  0  0  0  0
 36 65  2  0  0  0  0
 37 70  1  0  0  0  0
 37 74  2  0  0  0  0
 38 60  1  0  0  0  0
 38 75  2  0  0  0  0
 39 67  1  0  0  0  0
 39 76  2  0  0  0  0
 40 53  1  0  0  0  0
 40 71  1  0  0  0  0
 40 77  2  0  0  0  0
 41 61  1  0  0  0  0
 41 68  1  0  0  0  0
 41 78  2  0  0  0  0
 42 62  1  0  0  0  0
 42 72  1  0  0  0  0
 42 79  2  0  0  0  0
 43 46  1  0  0  0  0
 44 53  1  0  0  0  0
 45 68  1  0  0  0  0
 46 48  1  0  0  0  0
 47 49  1  0  0  0  0
 47 50  1  0  0  0  0
 48 52  1  0  0  0  0
 49 54  1  0  0  0  0
 50 67  1  0  0  0  0
 51 54  1  0  0  0  0
 51 67  1  0  0  0  0
 52 71  1  0  0  0  0
 53 68  1  0  0  0  0
 54 66  1  0  0  0  0
 55 62  1  0  0  0  0
 56 63  1  0  0  0  0
 57 63  1  0  0  0  0
 58 63  1  0  0  0  0
 59 73  1  0  0  0  0
 60 81  1  0  0  0  0
 61 63  1  0  0  0  0
 61 72  1  0  0  0  0
 62 73  1  0  0  0  0
 64 66  1  0  0  0  0
M  CHG  1  73   1
M  ISO  4  36 100  39 100  60 101  81 101
M  END
> <Batch ID>
0126

> <Smiles>
CNC(C)C(=O)NC(C(=O)N1Cc2cc([101O:1][101CH2:1]C(=O)C=Cc3cccc([100C:0](=N)[100C:0](=O)N4CCCC(n5nc(-c6ccc(Oc7ccc(F)cc7F)cc6)c(C(N)=O)c5N)C4)c3)ccc2CC1C(=O)NC1CCCc2ccccc21)C(C)(C)C

> <Shape>
0.254

> <Color>
0.083

> <Negative vol penalty>
0.000

$$$$

  -OEChem-04052302113D

 85 93  0     1  0  0  0  0  0999 V2000
  -32.0124  -14.4461   21.2281 C   0  0  0  0  0  0  0  0  0  0  0  0
  -31.0738  -15.4665   21.1128 C   0  0  0  0  0  0  0  0  0  0  0  0
  -30.0649  -25.7300   21.6070 C   0  0  0  0  0  0  0  0  0  0  0  0
  -29.8893  -25.3281   19.2311 C   0  0  0  0  0  0  0  0  0  0  0  0
  -31.6884  -13.1530   20.8197 C   0  0  0  0  0  0  0  0  0  0  0  0
  -29.8109  -15.1945   20.5878 C   0  0  0  0  0  0  0  0  0  0  0  0
  -26.0880  -17.3231   23.2811 C   0  0  0  0  0  0  0  0  0  0  0  0
  -30.7525  -24.5261   21.7598 C   0  0  0  0  0  0  0  0  0  0  0  0
  -30.5770  -24.1242   19.3839 C   0  0  0  0  0  0  0  0  0  0  0  0
  -25.8649  -18.6864   23.0925 C   0  0  0  0  0  0  0  0  0  0  0  0
  -31.9704  -20.7725   19.1995 C   0  0  0  0  0  0  0  0  0  0  0  0
  -31.4705  -19.6516   18.5365 C   0  0  0  0  0  0  0  0  0  0  0  0
  -20.8823  -27.0330   22.6039 C   0  0  0  0  0  0  0  0  0  0  0  0
  -18.5424  -26.4449   22.7275 C   0  0  0  0  0  0  0  0  0  0  0  0
  -19.1941  -28.7538   22.4430 C   0  0  0  0  0  0  0  0  0  0  0  0
  -24.0146  -18.1753   21.6315 C   0  0  0  0  0  0  0  0  0  0  0  0
  -29.3945  -19.8568   19.7552 C   0  0  0  0  0  0  0  0  0  0  0  0
  -29.6332  -26.1310   20.3426 C   0  0  0  0  0  0  0  0  0  0  0  0
  -19.8851  -26.0674   22.7400 C   0  0  0  0  0  0  0  0  0  0  0  0
  -20.5369  -28.3763   22.4555 C   0  0  0  0  0  0  0  0  0  0  0  0
  -29.4756  -28.6432   19.9284 C   0  0  0  0  0  0  0  0  0  0  0  0
  -30.4176  -12.8631   20.2984 C   0  0  0  0  0  0  0  0  0  0  0  0
  -25.2816  -16.3741   22.6366 C   0  0  0  0  0  0  0  0  0  0  0  0
  -29.4700  -13.8966   20.1708 C   0  0  0  0  0  0  0  0  0  0  0  0
  -24.2279  -16.8007   21.8156 C   0  0  0  0  0  0  0  0  0  0  0  0
  -31.0086  -23.7232   20.6483 C   0  0  0  0  0  0  0  0  0  0  0  0
  -24.8300  -19.1127   22.2654 C   0  0  0  0  0  0  0  0  0  0  0  0
  -31.1824  -21.4354   20.1403 C   0  0  0  0  0  0  0  0  0  0  0  0
  -30.1826  -19.1938   18.8144 C   0  0  0  0  0  0  0  0  0  0  0  0
  -18.1968  -27.7881   22.5791 C   0  0  0  0  0  0  0  0  0  0  0  0
  -29.8944  -20.9776   20.4181 C   0  0  0  0  0  0  0  0  0  0  0  0
  -28.9224  -27.3743   20.1841 C   0  0  0  0  0  0  0  0  0  0  0  0
  -28.3915  -29.4841   19.8654 C   0  0  0  0  0  0  0  0  0  0  0  0
  -20.2504  -24.6484   22.8962 C   0  0  0  0  0  0  0  0  0  0  0  0
  -21.4353  -24.1257   22.5481 C   0  0  0  0  0  0  0  0  0  0  0  0
  -23.0429  -22.2345   22.3159 C   0  0  0  0  0  0  0  0  0  0  0  0
  -23.3949  -20.9512   22.4419 C   0  0  0  0  0  0  0  0  0  1  0  0
  -21.5763  -29.3838   22.3146 C   0  0  0  0  0  0  0  0  0  0  0  0
  -30.8470  -29.0275   19.7625 C   0  0  0  0  0  0  0  0  0  0  0  0
  -21.6893  -22.6721   22.7459 C   0  0  0  0  0  0  0  0  0  0  0  0
  -23.0072  -29.0187   22.3244 C   0  0  0  0  0  0  0  0  0  0  0  0
  -25.7947  -14.0674   20.5107 C   0  0  0  0  0  0  0  0  0  0  0  0
  -22.6754  -13.3834   21.0804 C   0  0  0  0  0  0  0  0  0  0  0  0
  -19.6156  -14.4713   22.1296 C   0  0  0  0  0  0  0  0  0  0  0  0
  -30.1295  -11.4600   19.8262 C   0  0  0  0  0  0  0  0  0  0  0  0
  -25.5184  -14.9074   22.8716 C   0  0  0  0  0  0  0  0  0  0  0  0
  -23.3209  -15.8222   21.1169 C   0  0  0  0  0  0  0  0  0  0  0  0
  -28.6425  -11.1771   19.6287 C   0  0  0  0  0  0  0  0  0  0  0  0
  -23.7482  -29.5487   18.7745 C   0  0  0  0  0  0  0  0  0  0  0  0
  -27.9805  -12.3147   18.8577 C   0  0  0  0  0  0  0  0  0  0  0  0
  -25.2106  -29.1158   18.7120 C   0  0  0  0  0  0  0  0  0  0  0  0
  -22.9522  -28.7290   19.7888 C   0  0  0  0  0  0  0  0  0  0  0  0
  -25.0142  -28.2933   21.0921 C   0  0  0  0  0  0  0  0  0  0  0  0
  -28.0812  -13.6360   19.6293 C   0  0  1  0  0  0  0  0  0  0  0  0
  -24.9593  -14.0261   21.7589 C   0  0  1  0  0  0  0  0  0  0  0  0
  -25.8447  -29.1364   20.1119 C   0  0  1  0  0  0  0  0  0  0  0  0
  -17.2510  -13.6936   22.4474 C   0  0  0  0  0  0  0  0  0  0  0  0
  -22.2182  -13.5505   18.0683 C   0  0  0  0  0  0  0  0  0  0  0  0
  -19.7615  -13.7173   18.5208 C   0  0  0  0  0  0  0  0  0  0  0  0
  -21.0176  -11.6730   19.2032 C   0  0  0  0  0  0  0  0  0  0  0  0
  -19.7087  -15.0043   25.0393 C   0  0  0  0  0  0  0  0  0  0  0  0
  -21.3588  -13.8238   20.4875 C   0  0  1  0  0  0  0  0  0  0  0  0
  -18.6126  -13.8742   23.1002 C   0  0  2  0  0  0  0  0  0  0  0  0
  -21.1071  -13.2098   19.0814 C   0  0  0  0  0  0  0  0  0  0  0  0
  -27.5903  -27.4018   20.2774 N   0  0  0  0  0  0  0  0  0  0  0  0
  -21.3253  -30.6570   22.1701 N   0  0  0  0  0  0  0  0  0  0  0  0
  -27.2974  -28.6984   20.0793 N   0  0  0  0  0  0  0  0  0  0  0  0
  -23.6091  -28.7156   21.1044 N   0  0  0  0  0  0  0  0  0  0  0  0
  -23.5968  -14.3989   21.3733 N   0  0  0  0  0  0  0  0  0  0  0  0
  -28.2769  -30.8116   19.6486 N   0  0  0  0  0  0  0  0  0  0  0  0
  -31.8345  -28.0375   19.8577 N   0  0  0  0  0  0  0  0  0  0  0  0
  -27.1057  -13.6729   20.6978 N   0  0  0  0  0  0  0  0  0  0  0  0
  -20.3362  -13.4950   21.4748 N   0  0  0  0  0  0  0  0  0  0  0  0
  -18.4508  -14.7597   24.2879 N   0  3  0  0  0  0  0  0  0  0  0  0
  -31.1878  -30.2164   19.5528 O   0  0  0  0  0  0  0  0  0  0  0  0
  -20.8603  -21.9055   23.2203 O   0  0  0  0  0  0  0  0  0  0  0  0
  -23.5817  -28.9998   23.4144 O   0  0  0  0  0  0  0  0  0  0  0  0
  -25.2870  -14.4290   19.4556 O   0  0  0  0  0  0  0  0  0  0  0  0
  -22.8762  -12.1833   21.2831 O   0  0  0  0  0  0  0  0  0  0  0  0
  -19.7442  -15.6826   21.9658 O   0  0  0  0  0  0  0  0  0  0  0  0
  -31.6798  -22.5485   20.7970 O   0  0  0  0  0  0  0  0  0  0  0  0
  -24.6104  -20.4427   22.0790 O   0  0  0  0  0  0  0  0  0  1  0  0
  -29.7021  -18.1184   18.1766 F   0  0  0  0  0  0  0  0  0  0  0  0
  -16.9075  -28.1515   22.5662 F   0  0  0  0  0  0  0  0  0  0  0  0
  -29.1322  -21.6110   21.3201 F   0  0  0  0  0  0  0  0  0  0  0  0
  1  2  1  0  0  0  0
  1  5  2  0  0  0  0
  2  6  2  0  0  0  0
  3  8  2  0  0  0  0
  3 18  1  0  0  0  0
  4  9  1  0  0  0  0
  4 18  2  0  0  0  0
  5 22  1  0  0  0  0
  6 24  1  0  0  0  0
  7 10  2  0  0  0  0
  7 23  1  0  0  0  0
  8 26  1  0  0  0  0
  9 26  2  0  0  0  0
 10 27  1  0  0  0  0
 11 12  2  0  0  0  0
 11 28  1  0  0  0  0
 12 29  1  0  0  0  0
 13 19  2  0  0  0  0
 13 20  1  0  0  0  0
 14 19  1  0  0  0  0
 14 30  2  0  0  0  0
 15 20  2  0  0  0  0
 15 30  1  0  0  0  0
 16 25  1  0  0  0  0
 16 27  2  0  0  0  0
 17 29  2  0  0  0  0
 17 31  1  0  0  0  0
 18 32  1  0  0  0  0
 19 34  1  0  0  0  0
 20 38  1  0  0  0  0
 21 32  1  0  0  0  0
 21 33  2  0  0  0  0
 21 39  1  0  0  0  0
 22 24  2  0  0  0  0
 22 45  1  0  0  0  0
 23 25  2  0  0  0  0
 23 46  1  0  0  0  0
 24 54  1  0  0  0  0
 25 47  1  0  0  0  0
 26 81  1  0  0  0  0
 27 82  1  0  0  0  0
 28 31  2  0  0  0  0
 28 81  1  0  0  0  0
 29 83  1  0  0  0  0
 30 84  1  0  0  0  0
 31 85  1  0  0  0  0
 32 65  2  0  0  0  0
 33 67  1  0  0  0  0
 33 70  1  0  0  0  0
 34 35  2  0  0  0  0
 35 40  1  0  0  0  0
 36 37  2  0  0  0  0
 36 40  1  0  0  0  0
 37 82  1  0  0  0  0
 38 41  1  0  0  0  0
 38 66  2  0  0  0  0
 39 71  1  0  0  0  0
 39 75  2  0  0  0  0
 40 76  2  0  0  0  0
 41 68  1  0  0  0  0
 41 77  2  0  0  0  0
 42 55  1  0  0  0  0
 42 72  1  0  0  0  0
 42 78  2  0  0  0  0
 43 62  1  0  0  0  0
 43 69  1  0  0  0  0
 43 79  2  0  0  0  0
 44 63  1  0  0  0  0
 44 73  1  0  0  0  0
 44 80  2  0  0  0  0
 45 48  1  0  0  0  0
 46 55  1  0  0  0  0
 47 69  1  0  0  0  0
 48 50  1  0  0  0  0
 49 51  1  0  0  0  0
 49 52  1  0  0  0  0
 50 54  1  0  0  0  0
 51 56  1  0  0  0  0
 52 68  1  0  0  0  0
 53 56  1  0  0  0  0
 53 68  1  0  0  0  0
 54 72  1  0  0  0  0
 55 69  1  0  0  0  0
 56 67  1  0  0  0  0
 57 63  1  0  0  0  0
 58 64  1  0  0  0  0
 59 64  1  0  0  0  0
 60 64  1  0  0  0  0
 61 74  1  0  0  0  0
 62 64  1  0  0  0  0
 62 73  1  0  0  0  0
 63 74  1  0  0  0  0
 65 67  1  0  0  0  0
M  CHG  1  74   1
M  ISO  4  37 101  38 100  41 100  82 101
M  END
> <Batch ID>
0126

> <Smiles>
CNC(C)C(=O)NC(C(=O)N1Cc2cc([101O:1][101CH:1]=CC(=O)C=Cc3cc(F)cc([100C:0](=N)[100C:0](=O)N4CCCC(n5nc(-c6ccc(Oc7ccc(F)cc7F)cc6)c(C(N)=O)c5N)C4)c3)ccc2CC1C(=O)NC1CCCc2ccccc21)C(C)(C)C

> <Shape>
0.270

> <Color>
0.070

> <Negative vol penalty>
0.000

$$$$

  -OEChem-04052302113D

 84 92  0     1  0  0  0  0  0999 V2000
  -20.3089  -24.4512   23.4439 C   0  0  0  0  0  0  0  0  0  0  0  0
  -21.4403  -24.9187   22.7832 C   0  0  0  0  0  0  0  0  0  0  0  0
  -24.2473  -15.0708   25.9738 C   0  0  0  0  0  0  0  0  0  0  0  0
  -22.1126  -15.5078   24.9301 C   0  0  0  0  0  0  0  0  0  0  0  0
  -19.1790  -25.2614   23.5477 C   0  0  0  0  0  0  0  0  0  0  0  0
  -21.4422  -26.1965   22.2248 C   0  0  0  0  0  0  0  0  0  0  0  0
  -25.7034  -28.7453   23.2200 C   0  0  0  0  0  0  0  0  0  0  0  0
  -23.6005  -14.7797   27.1749 C   0  0  0  0  0  0  0  0  0  0  0  0
  -21.4658  -15.2166   26.1311 C   0  0  0  0  0  0  0  0  0  0  0  0
  -26.8299  -28.4217   22.4651 C   0  0  0  0  0  0  0  0  0  0  0  0
  -20.5583  -12.4618   27.8654 C   0  0  0  0  0  0  0  0  0  0  0  0
  -19.4296  -11.6442   27.8102 C   0  0  0  0  0  0  0  0  0  0  0  0
  -30.2702  -23.0229   18.2415 C   0  0  0  0  0  0  0  0  0  0  0  0
  -31.8286  -23.9013   16.6176 C   0  0  0  0  0  0  0  0  0  0  0  0
  -31.6792  -21.5177   16.9821 C   0  0  0  0  0  0  0  0  0  0  0  0
  -26.4406  -30.3498   21.0686 C   0  0  0  0  0  0  0  0  0  0  0  0
  -18.0978  -13.4182   28.7676 C   0  0  0  0  0  0  0  0  0  0  0  0
  -23.5034  -15.4349   24.8514 C   0  0  0  0  0  0  0  0  0  0  0  0
  -30.8395  -24.1103   17.5787 C   0  0  0  0  0  0  0  0  0  0  0  0
  -30.6901  -21.7266   17.9432 C   0  0  0  0  0  0  0  0  0  0  0  0
  -24.4917  -14.8357   22.5773 C   0  0  0  0  0  0  0  0  0  0  0  0
  -19.1703  -26.5534   22.9988 C   0  0  0  0  0  0  0  0  0  0  0  0
  -24.9294  -29.8694   22.8976 C   0  0  0  0  0  0  0  0  0  0  0  0
  -20.3106  -27.0243   22.3202 C   0  0  0  0  0  0  0  0  0  0  0  0
  -25.3062  -30.6870   21.8226 C   0  0  0  0  0  0  0  0  0  0  0  0
  -32.2484  -22.6050   16.3193 C   0  0  0  0  0  0  0  0  0  0  0  0
  -22.2097  -14.8526   27.2535 C   0  0  0  0  0  0  0  0  0  0  0  0
  -27.1971  -29.2223   21.3874 C   0  0  0  0  0  0  0  0  0  0  0  0
  -20.4568  -13.7576   28.3718 C   0  0  0  0  0  0  0  0  0  0  0  0
  -18.1993  -12.1224   28.2613 C   0  0  0  0  0  0  0  0  0  0  0  0
  -19.2266  -14.2358   28.8228 C   0  0  0  0  0  0  0  0  0  0  0  0
  -24.1710  -15.7363   23.6107 C   0  0  0  0  0  0  0  0  0  0  0  0
  -25.1133  -15.6096   21.6280 C   0  0  0  0  0  0  0  0  0  0  0  0
  -30.3956  -25.4797   17.8934 C   0  0  0  0  0  0  0  0  0  0  0  0
  -30.0962  -20.5926   18.6339 C   0  0  0  0  0  0  0  0  0  0  0  0
  -29.7624  -25.8346   19.0202 C   0  0  0  0  0  0  0  0  0  0  0  0
  -29.4376  -20.6499   19.8110 C   0  0  0  0  0  0  0  0  0  0  0  0
  -24.2493  -13.4257   22.4838 C   0  0  0  0  0  0  0  0  0  0  0  0
  -29.3451  -27.2501   19.2388 C   0  0  0  0  0  0  0  0  0  0  0  0
  -28.8805  -19.4071   20.3818 C   0  0  0  0  0  0  0  0  0  0  0  0
  -21.9186  -30.3347   21.9910 C   0  0  0  0  0  0  0  0  0  0  0  0
  -22.7189  -33.4630   22.2999 C   0  0  0  0  0  0  0  0  0  0  0  0
  -25.1709  -35.8364   22.3349 C   0  0  0  0  0  0  0  0  0  0  0  0
  -17.9090  -27.3747   23.0951 C   0  0  0  0  0  0  0  0  0  0  0  0
  -23.7324  -30.2200   23.7382 C   0  0  0  0  0  0  0  0  0  0  0  0
  -24.5206  -31.9161   21.4477 C   0  0  0  0  0  0  0  0  0  0  0  0
  -18.1236  -28.8573   22.8018 C   0  0  0  0  0  0  0  0  0  0  0  0
  -25.5174  -20.6174   21.1922 C   0  0  0  0  0  0  0  0  0  0  0  0
  -18.9696  -29.0359   21.5451 C   0  0  0  0  0  0  0  0  0  0  0  0
  -24.9129  -19.3826   21.8553 C   0  0  0  0  0  0  0  0  0  0  0  0
  -27.0111  -20.7502   21.4853 C   0  0  0  0  0  0  0  0  0  0  0  0
  -27.1935  -18.2984   21.7951 C   0  0  0  0  0  0  0  0  0  0  0  0
  -20.3599  -28.4139   21.7230 C   0  0  1  0  0  0  0  0  0  0  0  0
  -22.7235  -31.0980   23.0045 C   0  0  1  0  0  0  0  0  0  0  0  0
  -25.7013  -18.1194   21.4748 C   0  0  1  0  0  0  0  0  0  0  0  0
  -33.3054  -22.3813   15.2912 C   0  0  0  0  0  0  0  0  0  0  0  0
  -25.5139  -38.3111   22.5708 C   0  0  0  0  0  0  0  0  0  0  0  0
  -21.7205  -33.8711   19.4457 C   0  0  0  0  0  0  0  0  0  0  0  0
  -22.9361  -36.0594   19.4075 C   0  0  0  0  0  0  0  0  0  0  0  0
  -21.0883  -35.6895   21.0420 C   0  0  0  0  0  0  0  0  0  0  0  0
  -26.8350  -35.4920   24.7579 C   0  0  0  0  0  0  0  0  0  0  0  0
  -28.6385  -27.5267   20.5490 C   0  0  0  0  0  0  0  0  0  1  0  0
  -23.3000  -34.5133   21.3844 C   0  0  1  0  0  0  0  0  0  0  0  0
  -25.4562  -36.9759   23.2965 C   0  0  2  0  0  0  0  0  0  0  0  0
  -22.2751  -35.0092   20.3255 C   0  0  0  0  0  0  0  0  0  0  0  0
  -24.5571  -16.9867   23.3432 N   0  0  0  0  0  0  0  0  0  0  0  0
  -25.1270  -16.8773   22.1310 N   0  0  0  0  0  0  0  0  0  0  0  0
  -27.7343  -19.5096   21.1680 N   0  0  0  0  0  0  0  0  0  0  0  0
  -23.3547  -32.2134   22.2961 N   0  0  0  0  0  0  0  0  0  0  0  0
  -25.6442  -15.3226   20.4204 N   0  0  0  0  0  0  0  0  0  0  0  0
  -23.5988  -12.7875   23.5487 N   0  0  0  0  0  0  0  0  0  0  0  0
  -21.2022  -29.2787   22.5212 N   0  0  0  0  0  0  0  0  0  0  0  0
  -23.8216  -35.5657   22.2498 N   0  0  0  0  0  0  0  0  0  0  0  0
  -26.7599  -36.7585   23.9850 N   0  3  0  0  0  0  0  0  0  0  0  0
  -24.6138  -12.7487   21.4927 O   0  0  0  0  0  0  0  0  0  0  0  0
  -29.5621  -28.1296   18.4096 O   0  0  0  0  0  0  0  0  0  0  0  0
  -29.4678  -18.3531   20.1312 O   0  0  0  0  0  0  0  0  0  0  0  0
  -21.9444  -30.6792   20.8152 O   0  0  0  0  0  0  0  0  0  0  0  0
  -21.7414  -33.7433   22.9982 O   0  0  0  0  0  0  0  0  0  0  0  0
  -26.0562  -35.2480   21.7180 O   0  0  0  0  0  0  0  0  0  0  0  0
  -21.5782  -14.5683   28.4252 O   0  0  0  0  0  0  0  0  0  0  0  0
  -28.2959  -28.9083   20.6485 O   0  0  0  0  0  0  0  0  0  1  0  0
  -17.1151  -11.3377   28.2068 F   0  0  0  0  0  0  0  0  0  0  0  0
  -19.1226  -15.4801   29.3092 F   0  0  0  0  0  0  0  0  0  0  0  0
  1  2  1  0  0  0  0
  1  5  2  0  0  0  0
  2  6  2  0  0  0  0
  3  8  2  0  0  0  0
  3 18  1  0  0  0  0
  4  9  1  0  0  0  0
  4 18  2  0  0  0  0
  5 22  1  0  0  0  0
  6 24  1  0  0  0  0
  7 10  2  0  0  0  0
  7 23  1  0  0  0  0
  8 27  1  0  0  0  0
  9 27  2  0  0  0  0
 10 28  1  0  0  0  0
 11 12  2  0  0  0  0
 11 29  1  0  0  0  0
 12 30  1  0  0  0  0
 13 19  2  0  0  0  0
 13 20  1  0  0  0  0
 14 19  1  0  0  0  0
 14 26  2  0  0  0  0
 15 20  2  0  0  0  0
 15 26  1  0  0  0  0
 16 25  1  0  0  0  0
 16 28  2  0  0  0  0
 17 30  2  0  0  0  0
 17 31  1  0  0  0  0
 18 32  1  0  0  0  0
 19 34  1  0  0  0  0
 20 35  1  0  0  0  0
 21 32  1  0  0  0  0
 21 33  2  0  0  0  0
 21 38  1  0  0  0  0
 22 24  2  0  0  0  0
 22 44  1  0  0  0  0
 23 25  2  0  0  0  0
 23 45  1  0  0  0  0
 24 53  1  0  0  0  0
 25 46  1  0  0  0  0
 26 56  1  0  0  0  0
 27 81  1  0  0  0  0
 28 82  1  0  0  0  0
 29 31  2  0  0  0  0
 29 81  1  0  0  0  0
 30 83  1  0  0  0  0
 31 84  1  0  0  0  0
 32 66  2  0  0  0  0
 33 67  1  0  0  0  0
 33 70  1  0  0  0  0
 34 36  2  0  0  0  0
 35 37  2  0  0  0  0
 36 39  1  0  0  0  0
 37 40  1  0  0  0  0
 38 71  1  0  0  0  0
 38 75  2  0  0  0  0
 39 62  1  0  0  0  0
 39 76  2  0  0  0  0
 40 68  1  0  0  0  0
 40 77  2  0  0  0  0
 41 54  1  0  0  0  0
 41 72  1  0  0  0  0
 41 78  2  0  0  0  0
 42 63  1  0  0  0  0
 42 69  1  0  0  0  0
 42 79  2  0  0  0  0
 43 64  1  0  0  0  0
 43 73  1  0  0  0  0
 43 80  2  0  0  0  0
 44 47  1  0  0  0  0
 45 54  1  0  0  0  0
 46 69  1  0  0  0  0
 47 49  1  0  0  0  0
 48 50  1  0  0  0  0
 48 51  1  0  0  0  0
 49 53  1  0  0  0  0
 50 55  1  0  0  0  0
 51 68  1  0  0  0  0
 52 55  1  0  0  0  0
 52 68  1  0  0  0  0
 53 72  1  0  0  0  0
 54 69  1  0  0  0  0
 55 67  1  0  0  0  0
 57 64  1  0  0  0  0
 58 65  1  0  0  0  0
 59 65  1  0  0  0  0
 60 65  1  0  0  0  0
 61 74  1  0  0  0  0
 62 82  1  0  0  0  0
 63 65  1  0  0  0  0
 63 73  1  0  0  0  0
 64 74  1  0  0  0  0
 66 67  1  0  0  0  0
M  CHG  1  74   1
M  ISO  4  37 100  40 100  62 101  82 101
M  END
> <Batch ID>
0126

> <Smiles>
CNC(C)C(=O)NC(C(=O)N1Cc2cc([101O:1][101CH2:1]C(=O)C=Cc3cc(C)cc(C=[100CH:0][100C:0](=O)N4CCCC(n5nc(-c6ccc(Oc7ccc(F)cc7F)cc6)c(C(N)=O)c5N)C4)c3)ccc2CC1C(=O)NC1CCCc2ccccc21)C(C)(C)C

> <Shape>
0.218

> <Color>
0.120

> <Negative vol penalty>
0.000

$$$$

  -OEChem-04052302113D

 84 92  0     1  0  0  0  0  0999 V2000
  -23.8231  -28.0450   17.7523 C   0  0  0  0  0  0  0  0  0  0  0  0
  -24.0273  -27.3126   18.9174 C   0  0  0  0  0  0  0  0  0  0  0  0
  -32.4149  -17.7040   23.5429 C   0  0  0  0  0  0  0  0  0  0  0  0
  -23.0974   -9.8098   19.9317 C   0  0  0  0  0  0  0  0  0  0  0  0
  -23.8104   -9.8613   22.2395 C   0  0  0  0  0  0  0  0  0  0  0  0
  -31.5817  -18.5602   24.2628 C   0  0  0  0  0  0  0  0  0  0  0  0
  -23.3930  -29.3690   17.8290 C   0  0  0  0  0  0  0  0  0  0  0  0
  -23.8025  -27.9042   20.1599 C   0  0  0  0  0  0  0  0  0  0  0  0
  -21.2307  -24.8875   23.3111 C   0  0  0  0  0  0  0  0  0  0  0  0
  -31.8666  -16.7951   22.6380 C   0  0  0  0  0  0  0  0  0  0  0  0
  -22.3763   -8.6420   20.1805 C   0  0  0  0  0  0  0  0  0  0  0  0
  -23.0894   -8.6935   22.4884 C   0  0  0  0  0  0  0  0  0  0  0  0
  -21.9424  -23.8639   23.9353 C   0  0  0  0  0  0  0  0  0  0  0  0
  -23.4707   -5.3734   21.9765 C   0  0  0  0  0  0  0  0  0  0  0  0
  -24.0959   -4.3715   22.7188 C   0  0  0  0  0  0  0  0  0  0  0  0
  -29.6518  -17.5985   23.1730 C   0  0  0  0  0  0  0  0  0  0  0  0
  -22.0996  -25.2018   25.9364 C   0  0  0  0  0  0  0  0  0  0  0  0
  -22.3567   -4.5235   24.3889 C   0  0  0  0  0  0  0  0  0  0  0  0
  -23.8145  -10.4195   20.9612 C   0  0  0  0  0  0  0  0  0  0  0  0
  -30.2002  -18.5074   24.0779 C   0  0  0  0  0  0  0  0  0  0  0  0
  -24.0983  -12.9506   20.8180 C   0  0  0  0  0  0  0  0  0  0  0  0
  -23.1535  -29.9741   19.0728 C   0  0  0  0  0  0  0  0  0  0  0  0
  -20.9571  -26.0822   23.9924 C   0  0  0  0  0  0  0  0  0  0  0  0
  -23.3700  -29.2380   20.2533 C   0  0  0  0  0  0  0  0  0  0  0  0
  -21.3821  -26.2379   25.3195 C   0  0  0  0  0  0  0  0  0  0  0  0
  -30.4850  -16.7423   22.4530 C   0  0  0  0  0  0  0  0  0  0  0  0
  -22.3723   -8.0839   21.4589 C   0  0  0  0  0  0  0  0  0  0  0  0
  -22.3795  -24.0221   25.2472 C   0  0  0  0  0  0  0  0  0  0  0  0
  -22.2885   -5.9504   22.4405 C   0  0  0  0  0  0  0  0  0  0  0  0
  -23.5389   -3.9465   23.9249 C   0  0  0  0  0  0  0  0  0  0  0  0
  -21.7315   -5.5255   23.6467 C   0  0  0  0  0  0  0  0  0  0  0  0
  -24.5600  -11.6255   20.7047 C   0  0  0  0  0  0  0  0  0  0  0  0
  -25.1793  -13.7220   20.4676 C   0  0  0  0  0  0  0  0  0  0  0  0
  -29.3220  -19.4119   24.8379 C   0  0  0  0  0  0  0  0  0  0  0  0
  -28.0099  -19.2207   25.0457 C   0  0  0  0  0  0  0  0  0  0  0  0
  -22.8076  -13.4404   21.2053 C   0  0  0  0  0  0  0  0  0  0  0  0
  -21.7176  -29.1376   23.5567 C   0  0  0  0  0  0  0  0  0  0  0  0
  -25.0752  -21.6596   25.7910 C   0  0  0  0  0  0  0  0  0  0  0  0
  -19.6981  -29.5925   26.0541 C   0  0  0  0  0  0  0  0  0  0  0  0
  -18.1771  -28.3006   28.8226 C   0  0  0  0  0  0  0  0  0  0  0  0
  -30.6144  -14.9010   20.7386 C   0  0  0  0  0  0  0  0  0  0  0  0
  -22.7347  -31.4226   19.1068 C   0  0  0  0  0  0  0  0  0  0  0  0
  -20.1651  -27.1661   23.3140 C   0  0  0  0  0  0  0  0  0  0  0  0
  -21.0965  -27.4931   26.1015 C   0  0  0  0  0  0  0  0  0  0  0  0
  -22.1592  -31.8589   20.4517 C   0  0  0  0  0  0  0  0  0  0  0  0
  -29.6059  -12.4341   18.3776 C   0  0  0  0  0  0  0  0  0  0  0  0
  -23.0425  -31.3686   21.5946 C   0  0  0  0  0  0  0  0  0  0  0  0
  -28.1653  -12.1128   18.7818 C   0  0  0  0  0  0  0  0  0  0  0  0
  -30.4909  -12.6986   19.5944 C   0  0  0  0  0  0  0  0  0  0  0  0
  -28.5397  -13.3926   20.9287 C   0  0  0  0  0  0  0  0  0  0  0  0
  -23.1132  -29.8369   21.6191 C   0  0  1  0  0  0  0  0  0  0  0  0
  -20.3887  -28.5439   23.9297 C   0  0  1  0  0  0  0  0  0  0  0  0
  -27.5952  -13.1825   19.7339 C   0  0  2  0  0  0  0  0  0  0  0  0
  -16.6110  -28.9243   30.6815 C   0  0  0  0  0  0  0  0  0  0  0  0
  -21.9490  -31.1219   27.4339 C   0  0  0  0  0  0  0  0  0  0  0  0
  -20.6937  -30.8881   29.5875 C   0  0  0  0  0  0  0  0  0  0  0  0
  -19.6825  -32.1483   27.6869 C   0  0  0  0  0  0  0  0  0  0  0  0
  -16.1962  -26.2641   27.9932 C   0  0  0  0  0  0  0  0  0  0  0  0
  -27.1504  -20.1668   25.8388 C   0  0  0  0  0  0  0  0  0  0  0  0
  -25.9992  -20.7362   25.0099 C   0  0  0  0  0  0  0  0  0  0  0  0
  -23.8773  -22.1880   25.0265 C   0  0  0  0  0  0  0  0  0  1  0  0
  -19.8463  -29.6287   27.5560 C   0  0  1  0  0  0  0  0  0  0  0  0
  -16.7317  -28.3334   29.2855 C   0  0  2  0  0  0  0  0  0  0  0  0
  -20.5501  -30.9237   28.0510 C   0  0  0  0  0  0  0  0  0  0  0  0
  -25.8349  -11.5554   20.3128 N   0  0  0  0  0  0  0  0  0  0  0  0
  -26.1836  -12.8462   20.1768 N   0  0  0  0  0  0  0  0  0  0  0  0
  -20.3242  -28.5266   25.3925 N   0  0  0  0  0  0  0  0  0  0  0  0
  -29.8899  -13.7256   20.4481 N   0  0  0  0  0  0  0  0  0  0  0  0
  -25.3593  -15.0572   20.3830 N   0  0  0  0  0  0  0  0  0  0  0  0
  -21.8111  -12.5110   21.5332 N   0  0  0  0  0  0  0  0  0  0  0  0
  -29.9287  -15.8194   21.5329 N   0  0  0  0  0  0  0  0  0  0  0  0
  -21.9062  -29.2844   22.1957 N   0  0  0  0  0  0  0  0  0  0  0  0
  -18.5087  -29.4292   28.1031 N   0  0  0  0  0  0  0  0  0  0  0  0
  -16.1635  -26.9559   29.3075 N   0  3  0  0  0  0  0  0  0  0  0  0
  -22.5410  -14.6655   21.2433 O   0  0  0  0  0  0  0  0  0  0  0  0
  -22.5125  -29.4414   24.4386 O   0  0  0  0  0  0  0  0  0  0  0  0
  -25.2656  -21.9451   26.9720 O   0  0  0  0  0  0  0  0  0  0  0  0
  -19.0447  -30.4733   25.4895 O   0  0  0  0  0  0  0  0  0  0  0  0
  -18.9371  -27.3689   29.0771 O   0  0  0  0  0  0  0  0  0  0  0  0
  -31.7483  -15.0915   20.2916 O   0  0  0  0  0  0  0  0  0  0  0  0
  -21.6686   -6.9445   21.7021 O   0  0  0  0  0  0  0  0  0  0  0  0
  -23.0749  -23.0249   25.8585 O   0  0  0  0  0  0  0  0  0  1  0  0
  -24.1385   -2.9833   24.6368 F   0  0  0  0  0  0  0  0  0  0  0  0
  -20.5954   -6.0753   24.0969 F   0  0  0  0  0  0  0  0  0  0  0  0
  1  2  1  0  0  0  0
  1  7  2  0  0  0  0
  2  8  2  0  0  0  0
  3  6  2  0  0  0  0
  3 10  1  0  0  0  0
  4 11  2  0  0  0  0
  4 19  1  0  0  0  0
  5 12  1  0  0  0  0
  5 19  2  0  0  0  0
  6 20  1  0  0  0  0
  7 22  1  0  0  0  0
  8 24  1  0  0  0  0
  9 13  2  0  0  0  0
  9 23  1  0  0  0  0
 10 26  2  0  0  0  0
 11 27  1  0  0  0  0
 12 27  2  0  0  0  0
 13 28  1  0  0  0  0
 14 15  2  0  0  0  0
 14 29  1  0  0  0  0
 15 30  1  0  0  0  0
 16 20  2  0  0  0  0
 16 26  1  0  0  0  0
 17 25  1  0  0  0  0
 17 28  2  0  0  0  0
 18 30  2  0  0  0  0
 18 31  1  0  0  0  0
 19 32  1  0  0  0  0
 20 34  1  0  0  0  0
 21 32  1  0  0  0  0
 21 33  2  0  0  0  0
 21 36  1  0  0  0  0
 22 24  2  0  0  0  0
 22 42  1  0  0  0  0
 23 25  2  0  0  0  0
 23 43  1  0  0  0  0
 24 51  1  0  0  0  0
 25 44  1  0  0  0  0
 26 71  1  0  0  0  0
 27 81  1  0  0  0  0
 28 82  1  0  0  0  0
 29 31  2  0  0  0  0
 29 81  1  0  0  0  0
 30 83  1  0  0  0  0
 31 84  1  0  0  0  0
 32 65  2  0  0  0  0
 33 66  1  0  0  0  0
 33 69  1  0  0  0  0
 34 35  2  0  0  0  0
 35 59  1  0  0  0  0
 36 70  1  0  0  0  0
 36 75  2  0  0  0  0
 37 52  1  0  0  0  0
 37 72  1  0  0  0  0
 37 76  2  0  0  0  0
 38 60  1  0  0  0  0
 38 61  1  0  0  0  0
 38 77  2  0  0  0  0
 39 62  1  0  0  0  0
 39 67  1  0  0  0  0
 39 78  2  0  0  0  0
 40 63  1  0  0  0  0
 40 73  1  0  0  0  0
 40 79  2  0  0  0  0
 41 68  1  0  0  0  0
 41 71  1  0  0  0  0
 41 80  2  0  0  0  0
 42 45  1  0  0  0  0
 43 52  1  0  0  0  0
 44 67  1  0  0  0  0
 45 47  1  0  0  0  0
 46 48  1  0  0  0  0
 46 49  1  0  0  0  0
 47 51  1  0  0  0  0
 48 53  1  0  0  0  0
 49 68  1  0  0  0  0
 50 53  1  0  0  0  0
 50 68  1  0  0  0  0
 51 72  1  0  0  0  0
 52 67  1  0  0  0  0
 53 66  1  0  0  0  0
 54 63  1  0  0  0  0
 55 64  1  0  0  0  0
 56 64  1  0  0  0  0
 57 64  1  0  0  0  0
 58 74  1  0  0  0  0
 59 60  1  0  0  0  0
 61 82  1  0  0  0  0
 62 64  1  0  0  0  0
 62 73  1  0  0  0  0
 63 74  1  0  0  0  0
 65 66  1  0  0  0  0
M  CHG  1  74   1
M  ISO  4  41 100  61 101  71 100  82 101
M  END
> <Batch ID>
0126

> <Smiles>
CNC(C)C(=O)NC(C(=O)N1Cc2cc([101O:1][101CH2:1]C(=O)CCC=Cc3cccc([100NH:0][100C:0](=O)N4CCCC(n5nc(-c6ccc(Oc7ccc(F)cc7F)cc6)c(C(N)=O)c5N)C4)c3)ccc2CC1C(=O)NC1CCCc2ccccc21)C(C)(C)C

> <Shape>
0.253

> <Color>
0.220

> <Negative vol penalty>
0.000

$$$$

  -OEChem-04052302113D

 83 91  0     1  0  0  0  0  0999 V2000
  -29.0755  -23.3515   17.7954 C   0  0  0  0  0  0  0  0  0  0  0  0
  -27.7990  -23.6540   18.2587 C   0  0  0  0  0  0  0  0  0  0  0  0
  -28.1061  -15.0724   21.3170 C   0  0  0  0  0  0  0  0  0  0  0  0
  -26.0583  -15.6842   20.1904 C   0  0  0  0  0  0  0  0  0  0  0  0
  -30.1941  -23.8482   18.4632 C   0  0  0  0  0  0  0  0  0  0  0  0
  -27.6405  -24.4524   19.3908 C   0  0  0  0  0  0  0  0  0  0  0  0
  -24.0642  -27.9871   18.7899 C   0  0  0  0  0  0  0  0  0  0  0  0
  -20.8297  -23.0003   21.9038 C   0  0  0  0  0  0  0  0  0  0  0  0
  -22.1740  -22.6289   21.8791 C   0  0  0  0  0  0  0  0  0  0  0  0
  -27.7056  -13.7364   21.3196 C   0  0  0  0  0  0  0  0  0  0  0  0
  -25.6577  -14.3481   20.1930 C   0  0  0  0  0  0  0  0  0  0  0  0
  -22.7369  -27.5757   18.9031 C   0  0  0  0  0  0  0  0  0  0  0  0
  -24.3212  -12.1521   22.3889 C   0  0  0  0  0  0  0  0  0  0  0  0
  -23.0057  -11.8706   22.7572 C   0  0  0  0  0  0  0  0  0  0  0  0
  -22.6731  -28.4228   21.1609 C   0  0  0  0  0  0  0  0  0  0  0  0
  -22.4634  -23.5289   24.1025 C   0  0  0  0  0  0  0  0  0  0  0  0
  -22.6151  -10.8668   20.5945 C   0  0  0  0  0  0  0  0  0  0  0  0
  -27.2824  -16.0464   20.7525 C   0  0  0  0  0  0  0  0  0  0  0  0
  -28.4400  -18.0896   19.7560 C   0  0  0  0  0  0  0  0  0  0  0  0
  -30.0490  -24.6611   19.5985 C   0  0  0  0  0  0  0  0  0  0  0  0
  -24.7104  -28.6107   19.8670 C   0  0  0  0  0  0  0  0  0  0  0  0
  -28.7582  -24.9593   20.0753 C   0  0  0  0  0  0  0  0  0  0  0  0
  -24.0079  -28.8435   21.0580 C   0  0  0  0  0  0  0  0  0  0  0  0
  -20.3023  -23.6361   23.0278 C   0  0  0  0  0  0  0  0  0  0  0  0
  -21.1191  -23.9003   24.1271 C   0  0  0  0  0  0  0  0  0  0  0  0
  -22.9908  -22.8932   22.9785 C   0  0  0  0  0  0  0  0  0  0  0  0
  -26.4814  -13.3742   20.7576 C   0  0  0  0  0  0  0  0  0  0  0  0
  -22.0421  -27.7909   20.0897 C   0  0  0  0  0  0  0  0  0  0  0  0
  -24.7838  -11.7910   21.1235 C   0  0  0  0  0  0  0  0  0  0  0  0
  -22.1526  -11.2280   21.8600 C   0  0  0  0  0  0  0  0  0  0  0  0
  -23.9307  -11.1484   20.2263 C   0  0  0  0  0  0  0  0  0  0  0  0
  -27.6954  -17.4268   20.7500 C   0  0  0  0  0  0  0  0  0  0  0  0
  -28.5667  -19.3754   20.2220 C   0  0  0  0  0  0  0  0  0  0  0  0
  -28.9696  -17.5879   18.5217 C   0  0  0  0  0  0  0  0  0  0  0  0
  -27.2320  -27.9199   21.6747 C   0  0  0  0  0  0  0  0  0  0  0  0
  -19.1904  -25.9812   21.4130 C   0  0  0  0  0  0  0  0  0  0  0  0
  -26.6790  -30.8750   22.8928 C   0  0  0  0  0  0  0  0  0  0  0  0
  -24.4607  -33.4050   23.4632 C   0  0  0  0  0  0  0  0  0  0  0  0
  -25.3026  -22.7026   23.9611 C   0  0  0  0  0  0  0  0  0  0  0  0
  -31.2885  -25.1357   20.3147 C   0  0  0  0  0  0  0  0  0  0  0  0
  -26.1342  -29.0727   19.7197 C   0  0  0  0  0  0  0  0  0  0  0  0
  -24.6497  -29.5270   22.2366 C   0  0  0  0  0  0  0  0  0  0  0  0
  -31.0283  -26.2831   21.2873 C   0  0  0  0  0  0  0  0  0  0  0  0
  -28.7500  -21.8795   24.3001 C   0  0  0  0  0  0  0  0  0  0  0  0
  -29.8046  -25.9861   22.1481 C   0  0  0  0  0  0  0  0  0  0  0  0
  -28.9399  -20.7085   23.3332 C   0  0  0  0  0  0  0  0  0  0  0  0
  -27.3886  -21.8292   24.9912 C   0  0  0  0  0  0  0  0  0  0  0  0
  -26.4269  -20.5476   23.1199 C   0  0  0  0  0  0  0  0  0  0  0  0
  -28.5449  -25.8425   21.2854 C   0  0  1  0  0  0  0  0  0  0  0  0
  -26.8509  -29.2353   21.0566 C   0  0  1  0  0  0  0  0  0  0  0  0
  -27.7577  -20.5909   22.3513 C   0  0  2  0  0  0  0  0  0  0  0  0
  -20.5758  -24.5779   25.3422 C   0  0  0  0  0  0  0  0  0  0  0  0
  -24.2923  -35.6776   24.5140 C   0  0  0  0  0  0  0  0  0  0  0  0
  -26.6368  -29.5899   25.6598 C   0  0  0  0  0  0  0  0  0  0  0  0
  -25.5470  -31.6682   26.5320 C   0  0  0  0  0  0  0  0  0  0  0  0
  -27.8355  -31.7818   25.5458 C   0  0  0  0  0  0  0  0  0  0  0  0
  -23.7311  -34.6690   20.8886 C   0  0  0  0  0  0  0  0  0  0  0  0
  -18.8444  -24.0292   23.0307 C   0  0  0  0  0  0  0  0  0  0  0  0
  -18.6139  -25.5138   22.7416 C   0  0  0  0  0  0  0  0  0  0  0  0
  -20.2935  -27.0173   21.5039 C   0  0  0  0  0  0  0  0  0  1  0  0
  -25.8469  -31.4260   24.0255 C   0  0  1  0  0  0  0  0  0  0  0  0
  -24.5596  -34.9023   23.2334 C   0  0  2  0  0  0  0  0  0  0  0  0
  -26.4548  -31.1018   25.4194 C   0  0  0  0  0  0  0  0  0  0  0  0
  -27.3719  -18.2255   21.7705 N   0  0  0  0  0  0  0  0  0  0  0  0
  -27.9160  -19.4034   21.4203 N   0  0  0  0  0  0  0  0  0  0  0  0
  -26.0456  -29.9545   22.0458 N   0  0  0  0  0  0  0  0  0  0  0  0
  -26.3168  -21.7224   23.9988 N   0  0  0  0  0  0  0  0  0  0  0  0
  -29.1703  -20.4735   19.7196 N   0  0  0  0  0  0  0  0  0  0  0  0
  -28.7473  -16.2428   18.1969 N   0  0  0  0  0  0  0  0  0  0  0  0
  -24.3560  -22.5143   22.9546 N   0  0  0  0  0  0  0  0  0  0  0  0
  -28.0570  -27.1442   20.8829 N   0  0  0  0  0  0  0  0  0  0  0  0
  -25.6884  -32.8517   23.7597 N   0  0  0  0  0  0  0  0  0  0  0  0
  -23.5699  -35.3352   22.2067 N   0  3  0  0  0  0  0  0  0  0  0  0
  -29.6348  -18.3069   17.7380 O   0  0  0  0  0  0  0  0  0  0  0  0
  -26.8099  -27.6307   22.7883 O   0  0  0  0  0  0  0  0  0  0  0  0
  -18.8174  -25.5277   20.3324 O   0  0  0  0  0  0  0  0  0  0  0  0
  -27.8456  -31.2531   22.7599 O   0  0  0  0  0  0  0  0  0  0  0  0
  -23.3999  -32.7886   23.3910 O   0  0  0  0  0  0  0  0  0  0  0  0
  -25.2910  -23.6549   24.7453 O   0  0  0  0  0  0  0  0  0  0  0  0
  -26.0904  -12.0705   20.7597 O   0  0  0  0  0  0  0  0  0  0  0  0
  -20.7467  -27.3897   20.2030 O   0  0  0  0  0  0  0  0  0  1  0  0
  -20.8897  -10.9564   22.2143 F   0  0  0  0  0  0  0  0  0  0  0  0
  -24.3697  -10.7980   19.0096 F   0  0  0  0  0  0  0  0  0  0  0  0
  1  2  1  0  0  0  0
  1  5  2  0  0  0  0
  2  6  2  0  0  0  0
  3 10  2  0  0  0  0
  3 18  1  0  0  0  0
  4 11  1  0  0  0  0
  4 18  2  0  0  0  0
  5 20  1  0  0  0  0
  6 22  1  0  0  0  0
  7 12  2  0  0  0  0
  7 21  1  0  0  0  0
  8  9  2  0  0  0  0
  8 24  1  0  0  0  0
  9 26  1  0  0  0  0
 10 27  1  0  0  0  0
 11 27  2  0  0  0  0
 12 28  1  0  0  0  0
 13 14  2  0  0  0  0
 13 29  1  0  0  0  0
 14 30  1  0  0  0  0
 15 23  1  0  0  0  0
 15 28  2  0  0  0  0
 16 25  1  0  0  0  0
 16 26  2  0  0  0  0
 17 30  2  0  0  0  0
 17 31  1  0  0  0  0
 18 32  1  0  0  0  0
 19 32  1  0  0  0  0
 19 33  2  0  0  0  0
 19 34  1  0  0  0  0
 20 22  2  0  0  0  0
 20 40  1  0  0  0  0
 21 23  2  0  0  0  0
 21 41  1  0  0  0  0
 22 49  1  0  0  0  0
 23 42  1  0  0  0  0
 24 25  2  0  0  0  0
 24 58  1  0  0  0  0
 25 52  1  0  0  0  0
 26 70  1  0  0  0  0
 27 80  1  0  0  0  0
 28 81  1  0  0  0  0
 29 31  2  0  0  0  0
 29 80  1  0  0  0  0
 30 82  1  0  0  0  0
 31 83  1  0  0  0  0
 32 64  2  0  0  0  0
 33 65  1  0  0  0  0
 33 68  1  0  0  0  0
 34 69  1  0  0  0  0
 34 74  2  0  0  0  0
 35 50  1  0  0  0  0
 35 71  1  0  0  0  0
 35 75  2  0  0  0  0
 36 59  1  0  0  0  0
 36 60  1  0  0  0  0
 36 76  2  0  0  0  0
 37 61  1  0  0  0  0
 37 66  1  0  0  0  0
 37 77  2  0  0  0  0
 38 62  1  0  0  0  0
 38 72  1  0  0  0  0
 38 78  2  0  0  0  0
 39 67  1  0  0  0  0
 39 70  1  0  0  0  0
 39 79  2  0  0  0  0
 40 43  1  0  0  0  0
 41 50  1  0  0  0  0
 42 66  1  0  0  0  0
 43 45  1  0  0  0  0
 44 46  1  0  0  0  0
 44 47  1  0  0  0  0
 45 49  1  0  0  0  0
 46 51  1  0  0  0  0
 47 67  1  0  0  0  0
 48 51  1  0  0  0  0
 48 67  1  0  0  0  0
 49 71  1  0  0  0  0
 50 66  1  0  0  0  0
 51 65  1  0  0  0  0
 53 62  1  0  0  0  0
 54 63  1  0  0  0  0
 55 63  1  0  0  0  0
 56 63  1  0  0  0  0
 57 73  1  0  0  0  0
 58 59  1  0  0  0  0
 60 81  1  0  0  0  0
 61 63  1  0  0  0  0
 61 72  1  0  0  0  0
 62 73  1  0  0  0  0
 64 65  1  0  0  0  0
M  CHG  1  73   1
M  ISO  4  39 100  60 101  70 100  81 101
M  END
> <Batch ID>
0126

> <Smiles>
CNC(C)C(=O)NC(C(=O)N1Cc2cc([101O:1][101CH2:1]C(=O)CCc3ccc([100NH:0][100C:0](=O)N4CCCC(n5nc(-c6ccc(Oc7ccc(F)cc7F)cc6)c(C(N)=O)c5N)C4)cc3C)ccc2CC1C(=O)NC1CCCc2ccccc21)C(C)(C)C

> <Shape>
0.287

> <Color>
0.072

> <Negative vol penalty>
0.000

$$$$

  -OEChem-04052302113D

 83 91  0     1  0  0  0  0  0999 V2000
  -42.9531  -24.7780   23.2769 C   0  0  0  0  0  0  0  0  0  0  0  0
  -41.6402  -24.4678   23.6167 C   0  0  0  0  0  0  0  0  0  0  0  0
  -23.0003   -9.8943   19.9809 C   0  0  0  0  0  0  0  0  0  0  0  0
  -23.7255   -9.9449   22.2849 C   0  0  0  0  0  0  0  0  0  0  0  0
  -43.3768  -24.6571   21.9541 C   0  0  0  0  0  0  0  0  0  0  0  0
  -40.7498  -24.0377   22.6335 C   0  0  0  0  0  0  0  0  0  0  0  0
  -37.9950  -20.0552   24.1154 C   0  0  0  0  0  0  0  0  0  0  0  0
  -22.2336   -8.7599   20.2471 C   0  0  0  0  0  0  0  0  0  0  0  0
  -22.9588   -8.8105   22.5512 C   0  0  0  0  0  0  0  0  0  0  0  0
  -36.9209  -20.3059   24.9682 C   0  0  0  0  0  0  0  0  0  0  0  0
  -23.2025   -5.4716   22.0789 C   0  0  0  0  0  0  0  0  0  0  0  0
  -23.7899   -4.4542   22.8309 C   0  0  0  0  0  0  0  0  0  0  0  0
  -35.4101  -20.1842   23.0915 C   0  0  0  0  0  0  0  0  0  0  0  0
  -29.8805  -17.4481   23.0992 C   0  0  0  0  0  0  0  0  0  0  0  0
  -32.0586  -16.5506   22.5633 C   0  0  0  0  0  0  0  0  0  0  0  0
  -22.0661   -4.6972   24.5062 C   0  0  0  0  0  0  0  0  0  0  0  0
  -23.7464  -10.4868   20.9998 C   0  0  0  0  0  0  0  0  0  0  0  0
  -24.1321  -13.0023   20.8240 C   0  0  0  0  0  0  0  0  0  0  0  0
  -42.4938  -24.2161   20.9559 C   0  0  0  0  0  0  0  0  0  0  0  0
  -37.7855  -19.8777   22.7402 C   0  0  0  0  0  0  0  0  0  0  0  0
  -41.1617  -23.9121   21.2959 C   0  0  0  0  0  0  0  0  0  0  0  0
  -36.4829  -19.9288   22.2237 C   0  0  0  0  0  0  0  0  0  0  0  0
  -30.4693  -18.3452   23.9903 C   0  0  0  0  0  0  0  0  0  0  0  0
  -30.6751  -16.5507   22.3858 C   0  0  0  0  0  0  0  0  0  0  0  0
  -22.2128   -8.2180   21.5322 C   0  0  0  0  0  0  0  0  0  0  0  0
  -35.6286  -20.3733   24.4559 C   0  0  0  0  0  0  0  0  0  0  0  0
  -22.0470   -6.1019   22.5406 C   0  0  0  0  0  0  0  0  0  0  0  0
  -31.8528  -18.3451   24.1678 C   0  0  0  0  0  0  0  0  0  0  0  0
  -23.2217   -4.0670   24.0445 C   0  0  0  0  0  0  0  0  0  0  0  0
  -32.6475  -17.4478   23.4543 C   0  0  0  0  0  0  0  0  0  0  0  0
  -21.4787   -5.7147   23.7542 C   0  0  0  0  0  0  0  0  0  0  0  0
  -24.5390  -11.6583   20.7253 C   0  0  0  0  0  0  0  0  0  0  0  0
  -25.2420  -13.7247   20.4597 C   0  0  0  0  0  0  0  0  0  0  0  0
  -22.8642  -13.5489   21.2106 C   0  0  0  0  0  0  0  0  0  0  0  0
  -38.7175  -21.4059   20.1135 C   0  0  0  0  0  0  0  0  0  0  0  0
  -37.2716  -18.9151   18.6211 C   0  0  0  0  0  0  0  0  0  0  0  0
  -34.9541  -16.4130   18.7453 C   0  0  0  0  0  0  0  0  0  0  0  0
  -30.7216  -14.6849   20.6938 C   0  0  0  0  0  0  0  0  0  0  0  0
  -42.9847  -24.1464   19.5316 C   0  0  0  0  0  0  0  0  0  0  0  0
  -38.9517  -19.5815   21.8376 C   0  0  0  0  0  0  0  0  0  0  0  0
  -36.2025  -19.7250   20.7580 C   0  0  0  0  0  0  0  0  0  0  0  0
  -42.0811  -23.3253   18.6153 C   0  0  0  0  0  0  0  0  0  0  0  0
  -29.6029  -12.2324   18.3676 C   0  0  0  0  0  0  0  0  0  0  0  0
  -40.6194  -23.7085   18.8240 C   0  0  0  0  0  0  0  0  0  0  0  0
  -28.1523  -11.9750   18.7817 C   0  0  0  0  0  0  0  0  0  0  0  0
  -30.5035  -12.4755   19.5774 C   0  0  0  0  0  0  0  0  0  0  0  0
  -28.5883  -13.2646   20.9110 C   0  0  0  0  0  0  0  0  0  0  0  0
  -40.1729  -23.4186   20.2620 C   0  0  1  0  0  0  0  0  0  0  0  0
  -38.6796  -19.9271   20.3769 C   0  0  1  0  0  0  0  0  0  0  0  0
  -27.6306  -13.0785   19.7228 C   0  0  2  0  0  0  0  0  0  0  0  0
  -29.6033  -19.2978   24.7467 C   0  0  0  0  0  0  0  0  0  0  0  0
  -33.9736  -14.5654   17.3587 C   0  0  0  0  0  0  0  0  0  0  0  0
  -35.6567  -20.9635   17.0380 C   0  0  0  0  0  0  0  0  0  0  0  0
  -34.0801  -19.1256   16.4018 C   0  0  0  0  0  0  0  0  0  0  0  0
  -36.4707  -19.0153   15.6976 C   0  0  0  0  0  0  0  0  0  0  0  0
  -35.8472  -14.3430   20.6627 C   0  0  0  0  0  0  0  0  0  0  0  0
  -33.3183  -19.8493   27.1944 C   0  0  0  0  0  0  0  0  0  0  0  0
  -34.6962  -20.1645   26.6337 C   0  0  0  0  0  0  0  0  0  1  0  0
  -32.6042  -18.7808   26.3817 C   0  0  0  0  0  0  0  0  0  0  0  0
  -35.8745  -18.6315   18.1244 C   0  0  1  0  0  0  0  0  0  0  0  0
  -35.0384  -14.9428   18.3769 C   0  0  2  0  0  0  0  0  0  0  0  0
  -35.5257  -19.4398   16.8428 C   0  0  0  0  0  0  0  0  0  0  0  0
  -25.8083  -11.5316   20.3291 N   0  0  0  0  0  0  0  0  0  0  0  0
  -26.2085  -12.8053   20.1756 N   0  0  0  0  0  0  0  0  0  0  0  0
  -37.3765  -19.4445   19.9152 N   0  0  0  0  0  0  0  0  0  0  0  0
  -29.9486  -13.5365   20.4208 N   0  0  0  0  0  0  0  0  0  0  0  0
  -25.4757  -15.0504   20.3578 N   0  0  0  0  0  0  0  0  0  0  0  0
  -21.8323  -12.6649   21.5541 N   0  0  0  0  0  0  0  0  0  0  0  0
  -30.0775  -15.6401   21.4794 N   0  0  0  0  0  0  0  0  0  0  0  0
  -39.9202  -22.0044   20.4374 N   0  0  0  0  0  0  0  0  0  0  0  0
  -35.7852  -17.1845   17.9610 N   0  0  0  0  0  0  0  0  0  0  0  0
  -34.8526  -14.0939   19.5876 N   0  3  0  0  0  0  0  0  0  0  0  0
  -22.6477  -14.7842   21.2345 O   0  0  0  0  0  0  0  0  0  0  0  0
  -37.7293  -21.9625   19.6494 O   0  0  0  0  0  0  0  0  0  0  0  0
  -38.2346  -18.6692   17.8906 O   0  0  0  0  0  0  0  0  0  0  0  0
  -34.2212  -16.8353   19.6370 O   0  0  0  0  0  0  0  0  0  0  0  0
  -31.8603  -14.8236   20.2398 O   0  0  0  0  0  0  0  0  0  0  0  0
  -21.4646   -7.1112   21.7924 O   0  0  0  0  0  0  0  0  0  0  0  0
  -34.5785  -20.6185   25.2860 O   0  0  0  0  0  0  0  0  0  1  0  0
  -32.4465  -19.2205   25.0395 O   0  0  0  0  0  0  0  0  0  0  0  0
  -23.7850   -3.0889   24.7658 F   0  0  0  0  0  0  0  0  0  0  0  0
  -33.9774  -17.4425   23.6201 F   0  0  0  0  0  0  0  0  0  0  0  0
  -20.3680   -6.3156   24.2023 F   0  0  0  0  0  0  0  0  0  0  0  0
  1  2  1  0  0  0  0
  1  5  2  0  0  0  0
  2  6  2  0  0  0  0
  3  8  2  0  0  0  0
  3 17  1  0  0  0  0
  4  9  1  0  0  0  0
  4 17  2  0  0  0  0
  5 19  1  0  0  0  0
  6 21  1  0  0  0  0
  7 10  2  0  0  0  0
  7 20  1  0  0  0  0
  8 25  1  0  0  0  0
  9 25  2  0  0  0  0
 10 26  1  0  0  0  0
 11 12  2  0  0  0  0
 11 27  1  0  0  0  0
 12 29  1  0  0  0  0
 13 22  1  0  0  0  0
 13 26  2  0  0  0  0
 14 23  2  0  0  0  0
 14 24  1  0  0  0  0
 15 24  2  0  0  0  0
 15 30  1  0  0  0  0
 16 29  2  0  0  0  0
 16 31  1  0  0  0  0
 17 32  1  0  0  0  0
 18 32  1  0  0  0  0
 18 33  2  0  0  0  0
 18 34  1  0  0  0  0
 19 21  2  0  0  0  0
 19 39  1  0  0  0  0
 20 22  2  0  0  0  0
 20 40  1  0  0  0  0
 21 48  1  0  0  0  0
 22 41  1  0  0  0  0
 23 28  1  0  0  0  0
 23 51  1  0  0  0  0
 24 69  1  0  0  0  0
 25 78  1  0  0  0  0
 26 79  1  0  0  0  0
 27 31  2  0  0  0  0
 27 78  1  0  0  0  0
 28 30  2  0  0  0  0
 28 80  1  0  0  0  0
 29 81  1  0  0  0  0
 30 82  1  0  0  0  0
 31 83  1  0  0  0  0
 32 63  2  0  0  0  0
 33 64  1  0  0  0  0
 33 67  1  0  0  0  0
 34 68  1  0  0  0  0
 34 73  2  0  0  0  0
 35 49  1  0  0  0  0
 35 70  1  0  0  0  0
 35 74  2  0  0  0  0
 36 60  1  0  0  0  0
 36 65  1  0  0  0  0
 36 75  2  0  0  0  0
 37 61  1  0  0  0  0
 37 71  1  0  0  0  0
 37 76  2  0  0  0  0
 38 66  1  0  0  0  0
 38 69  1  0  0  0  0
 38 77  2  0  0  0  0
 39 42  1  0  0  0  0
 40 49  1  0  0  0  0
 41 65  1  0  0  0  0
 42 44  1  0  0  0  0
 43 45  1  0  0  0  0
 43 46  1  0  0  0  0
 44 48  1  0  0  0  0
 45 50  1  0  0  0  0
 46 66  1  0  0  0  0
 47 50  1  0  0  0  0
 47 66  1  0  0  0  0
 48 70  1  0  0  0  0
 49 65  1  0  0  0  0
 50 64  1  0  0  0  0
 52 61  1  0  0  0  0
 53 62  1  0  0  0  0
 54 62  1  0  0  0  0
 55 62  1  0  0  0  0
 56 72  1  0  0  0  0
 57 58  1  0  0  0  0
 57 59  1  0  0  0  0
 58 79  1  0  0  0  0
 59 80  1  0  0  0  0
 60 62  1  0  0  0  0
 60 71  1  0  0  0  0
 61 72  1  0  0  0  0
 63 64  1  0  0  0  0
M  CHG  1  72   1
M  ISO  4  38 100  58 101  69 100  79 101
M  END
> <Batch ID>
0126

> <Smiles>
CNC(C)C(=O)NC(C(=O)N1Cc2cc([101O:1][101CH2:1]CCOc3c(C)cc([100NH:0][100C:0](=O)N4CCCC(n5nc(-c6ccc(Oc7ccc(F)cc7F)cc6)c(C(N)=O)c5N)C4)cc3F)ccc2CC1C(=O)NC1CCCc2ccccc21)C(C)(C)C

> <Shape>
0.172

> <Color>
0.202

> <Negative vol penalty>
0.000

$$$$

  -OEChem-04052302113D

 83 91  0     1  0  0  0  0  0999 V2000
  -28.3437  -36.3556   22.8230 C   0  0  0  0  0  0  0  0  0  0  0  0
  -28.6168  -34.9951   22.7228 C   0  0  0  0  0  0  0  0  0  0  0  0
  -24.0475   -9.7937   22.2604 C   0  0  0  0  0  0  0  0  0  0  0  0
  -24.6318  -11.4295   23.9396 C   0  0  0  0  0  0  0  0  0  0  0  0
  -30.7040  -20.1462   19.0050 C   0  0  0  0  0  0  0  0  0  0  0  0
  -27.0901  -36.7836   23.2580 C   0  0  0  0  0  0  0  0  0  0  0  0
  -27.6367  -34.0618   23.0587 C   0  0  0  0  0  0  0  0  0  0  0  0
  -27.2926  -30.3049   19.6805 C   0  0  0  0  0  0  0  0  0  0  0  0
  -30.4427  -18.7786   18.9215 C   0  0  0  0  0  0  0  0  0  0  0  0
  -23.6687   -8.9004   23.2624 C   0  0  0  0  0  0  0  0  0  0  0  0
  -24.2530  -10.5362   24.9416 C   0  0  0  0  0  0  0  0  0  0  0  0
  -28.2589  -29.3019   19.7431 C   0  0  0  0  0  0  0  0  0  0  0  0
  -21.0120   -8.4211   25.2983 C   0  0  0  0  0  0  0  0  0  0  0  0
  -19.8101   -7.7328   25.1327 C   0  0  0  0  0  0  0  0  0  0  0  0
  -28.3415  -20.5820   19.2610 C   0  0  0  0  0  0  0  0  0  0  0  0
  -26.7038  -27.8857   20.9242 C   0  0  0  0  0  0  0  0  0  0  0  0
  -21.0031   -5.6330   25.2024 C   0  0  0  0  0  0  0  0  0  0  0  0
  -24.5291  -11.0583   22.5990 C   0  0  0  0  0  0  0  0  0  0  0  0
  -29.6534  -21.0479   19.1748 C   0  0  0  0  0  0  0  0  0  0  0  0
  -24.1071  -12.9328   20.9210 C   0  0  0  0  0  0  0  0  0  0  0  0
  -26.0909  -35.8551   23.5901 C   0  0  0  0  0  0  0  0  0  0  0  0
  -26.0260  -30.1096   20.2499 C   0  0  0  0  0  0  0  0  0  0  0  0
  -26.3690  -34.4778   23.4998 C   0  0  0  0  0  0  0  0  0  0  0  0
  -25.7223  -28.8868   20.8653 C   0  0  0  0  0  0  0  0  0  0  0  0
  -28.0802  -19.2144   19.1774 C   0  0  0  0  0  0  0  0  0  0  0  0
  -29.1308  -18.3127   19.0076 C   0  0  0  0  0  0  0  0  0  0  0  0
  -23.7714   -9.2716   24.6030 C   0  0  0  0  0  0  0  0  0  0  0  0
  -27.9656  -28.0931   20.3676 C   0  0  0  0  0  0  0  0  0  0  0  0
  -22.2094   -7.7154   25.4159 C   0  0  0  0  0  0  0  0  0  0  0  0
  -19.8057   -6.3388   25.0848 C   0  0  0  0  0  0  0  0  0  0  0  0
  -22.2050   -6.3214   25.3680 C   0  0  0  0  0  0  0  0  0  0  0  0
  -24.9211  -11.9813   21.5644 C   0  0  0  0  0  0  0  0  0  0  0  0
  -24.9451  -13.5529   20.0266 C   0  0  0  0  0  0  0  0  0  0  0  0
  -29.9303  -22.4926   19.2631 C   0  0  0  0  0  0  0  0  0  0  0  0
  -29.0947  -23.3966   19.7931 C   0  0  0  0  0  0  0  0  0  0  0  0
  -22.7179  -13.2297   21.1146 C   0  0  0  0  0  0  0  0  0  0  0  0
  -29.4661  -24.8411   19.8256 C   0  0  0  0  0  0  0  0  0  0  0  0
  -24.3716  -31.5101   22.5747 C   0  0  0  0  0  0  0  0  0  0  0  0
  -22.0162  -29.5209   21.5660 C   0  0  0  0  0  0  0  0  0  0  0  0
  -21.1504  -26.6259   19.9797 C   0  0  0  0  0  0  0  0  0  0  0  0
  -29.8281  -15.9054   18.7523 C   0  0  0  0  0  0  0  0  0  0  0  0
  -24.7667  -36.3653   24.1007 C   0  0  0  0  0  0  0  0  0  0  0  0
  -24.9858  -31.1914   20.1504 C   0  0  0  0  0  0  0  0  0  0  0  0
  -24.3708  -28.6196   21.4741 C   0  0  0  0  0  0  0  0  0  0  0  0
  -23.6598  -35.3142   24.0793 C   0  0  0  0  0  0  0  0  0  0  0  0
  -29.6300  -12.3575   18.5286 C   0  0  0  0  0  0  0  0  0  0  0  0
  -24.1631  -33.9971   24.6612 C   0  0  0  0  0  0  0  0  0  0  0  0
  -28.3203  -12.0216   19.2456 C   0  0  0  0  0  0  0  0  0  0  0  0
  -30.3612  -13.5197   19.1983 C   0  0  0  0  0  0  0  0  0  0  0  0
  -28.2458  -14.3964   20.1068 C   0  0  0  0  0  0  0  0  0  0  0  0
  -25.3237  -33.4350   23.8314 C   0  0  1  0  0  0  0  0  0  0  0  0
  -23.8999  -31.0760   21.2157 C   0  0  1  0  0  0  0  0  0  0  0  0
  -27.4416  -13.2744   19.4301 C   0  0  2  0  0  0  0  0  0  0  0  0
  -26.6653  -18.7431   19.2729 C   0  0  0  0  0  0  0  0  0  0  0  0
  -19.1502  -25.2501   19.3441 C   0  0  0  0  0  0  0  0  0  0  0  0
  -21.7624  -28.5614   24.4512 C   0  0  0  0  0  0  0  0  0  0  0  0
  -20.4790  -26.5843   23.6075 C   0  0  0  0  0  0  0  0  0  0  0  0
  -19.5850  -28.8878   23.2651 C   0  0  0  0  0  0  0  0  0  0  0  0
  -21.7541  -26.8709   17.0927 C   0  0  0  0  0  0  0  0  0  0  0  0
  -28.4405  -25.7642   20.4491 C   0  0  0  0  0  0  0  0  0  1  0  0
  -21.5789  -28.1186   21.9143 C   0  0  1  0  0  0  0  0  0  0  0  0
  -20.1193  -26.3364   18.9038 C   0  0  2  0  0  0  0  0  0  0  0  0
  -20.8776  -28.0435   23.2999 C   0  0  0  0  0  0  0  0  0  0  0  0
  -26.1794  -11.9922   21.1167 N   0  0  0  0  0  0  0  0  0  0  0  0
  -26.1625  -12.9580   20.1823 N   0  0  0  0  0  0  0  0  0  0  0  0
  -23.3895  -29.7108   21.3569 N   0  0  0  0  0  0  0  0  0  0  0  0
  -29.4682  -14.6723   19.3358 N   0  0  0  0  0  0  0  0  0  0  0  0
  -24.7519  -14.5434   19.1300 N   0  0  0  0  0  0  0  0  0  0  0  0
  -22.0056  -12.4977   22.0744 N   0  0  0  0  0  0  0  0  0  0  0  0
  -28.8861  -16.9197   18.9206 N   0  0  0  0  0  0  0  0  0  0  0  0
  -24.8263  -32.8141   22.6224 N   0  0  0  0  0  0  0  0  0  0  0  0
  -20.7544  -27.6599   20.8015 N   0  0  0  0  0  0  0  0  0  0  0  0
  -20.7899  -25.8881   17.6508 N   0  3  0  0  0  0  0  0  0  0  0  0
  -22.1216  -14.1066   20.4444 O   0  0  0  0  0  0  0  0  0  0  0  0
  -30.5331  -25.2506   19.3764 O   0  0  0  0  0  0  0  0  0  0  0  0
  -24.3249  -30.7209   23.5110 O   0  0  0  0  0  0  0  0  0  0  0  0
  -21.1695  -30.4135   21.4755 O   0  0  0  0  0  0  0  0  0  0  0  0
  -22.2003  -25.9954   20.0830 O   0  0  0  0  0  0  0  0  0  0  0  0
  -30.8811  -16.0435   18.1244 O   0  0  0  0  0  0  0  0  0  0  0  0
  -23.4017   -8.4002   25.5810 O   0  0  0  0  0  0  0  0  0  0  0  0
  -28.9072  -27.1127   20.4306 O   0  0  0  0  0  0  0  0  0  1  0  0
  -18.6513   -5.6779   24.9273 F   0  0  0  0  0  0  0  0  0  0  0  0
  -23.3520   -5.6379   25.4816 F   0  0  0  0  0  0  0  0  0  0  0  0
  1  2  1  0  0  0  0
  1  6  2  0  0  0  0
  2  7  2  0  0  0  0
  3 10  2  0  0  0  0
  3 18  1  0  0  0  0
  4 11  1  0  0  0  0
  4 18  2  0  0  0  0
  5  9  2  0  0  0  0
  5 19  1  0  0  0  0
  6 21  1  0  0  0  0
  7 23  1  0  0  0  0
  8 12  2  0  0  0  0
  8 22  1  0  0  0  0
  9 26  1  0  0  0  0
 10 27  1  0  0  0  0
 11 27  2  0  0  0  0
 12 28  1  0  0  0  0
 13 14  2  0  0  0  0
 13 29  1  0  0  0  0
 14 30  1  0  0  0  0
 15 19  2  0  0  0  0
 15 25  1  0  0  0  0
 16 24  1  0  0  0  0
 16 28  2  0  0  0  0
 17 30  2  0  0  0  0
 17 31  1  0  0  0  0
 18 32  1  0  0  0  0
 19 34  1  0  0  0  0
 20 32  1  0  0  0  0
 20 33  2  0  0  0  0
 20 36  1  0  0  0  0
 21 23  2  0  0  0  0
 21 42  1  0  0  0  0
 22 24  2  0  0  0  0
 22 43  1  0  0  0  0
 23 51  1  0  0  0  0
 24 44  1  0  0  0  0
 25 26  2  0  0  0  0
 25 54  1  0  0  0  0
 26 70  1  0  0  0  0
 27 80  1  0  0  0  0
 28 81  1  0  0  0  0
 29 31  2  0  0  0  0
 29 80  1  0  0  0  0
 30 82  1  0  0  0  0
 31 83  1  0  0  0  0
 32 64  2  0  0  0  0
 33 65  1  0  0  0  0
 33 68  1  0  0  0  0
 34 35  2  0  0  0  0
 35 37  1  0  0  0  0
 36 69  1  0  0  0  0
 36 74  2  0  0  0  0
 37 60  1  0  0  0  0
 37 75  2  0  0  0  0
 38 52  1  0  0  0  0
 38 71  1  0  0  0  0
 38 76  2  0  0  0  0
 39 61  1  0  0  0  0
 39 66  1  0  0  0  0
 39 77  2  0  0  0  0
 40 62  1  0  0  0  0
 40 72  1  0  0  0  0
 40 78  2  0  0  0  0
 41 67  1  0  0  0  0
 41 70  1  0  0  0  0
 41 79  2  0  0  0  0
 42 45  1  0  0  0  0
 43 52  1  0  0  0  0
 44 66  1  0  0  0  0
 45 47  1  0  0  0  0
 46 48  1  0  0  0  0
 46 49  1  0  0  0  0
 47 51  1  0  0  0  0
 48 53  1  0  0  0  0
 49 67  1  0  0  0  0
 50 53  1  0  0  0  0
 50 67  1  0  0  0  0
 51 71  1  0  0  0  0
 52 66  1  0  0  0  0
 53 65  1  0  0  0  0
 55 62  1  0  0  0  0
 56 63  1  0  0  0  0
 57 63  1  0  0  0  0
 58 63  1  0  0  0  0
 59 73  1  0  0  0  0
 60 81  1  0  0  0  0
 61 63  1  0  0  0  0
 61 72  1  0  0  0  0
 62 73  1  0  0  0  0
 64 65  1  0  0  0  0
M  CHG  1  73   1
M  ISO  4  41 100  60 101  70 100  81 101
M  END
> <Batch ID>
0126

> <Smiles>
CNC(C)C(=O)NC(C(=O)N1Cc2cc([101O:1][101CH2:1]C(=O)C=Cc3ccc([100NH:0][100C:0](=O)N4CCCC(n5nc(-c6ccc(Oc7ccc(F)cc7F)cc6)c(C(N)=O)c5N)C4)c(C)c3)ccc2CC1C(=O)NC1CCCc2ccccc21)C(C)(C)C

> <Shape>
0.349

> <Color>
0.141

> <Negative vol penalty>
0.000

$$$$

  -OEChem-04052302113D

 83 91  0     1  0  0  0  0  0999 V2000
  -18.6764  -25.9029   24.9069 C   0  0  0  0  0  0  0  0  0  0  0  0
  -19.9068  -25.5370   24.3706 C   0  0  0  0  0  0  0  0  0  0  0  0
  -24.7183   -8.4834   21.3718 C   0  0  0  0  0  0  0  0  0  0  0  0
  -23.1312  -10.2425   20.8987 C   0  0  0  0  0  0  0  0  0  0  0  0
  -17.9933  -27.0045   24.3934 C   0  0  0  0  0  0  0  0  0  0  0  0
  -20.4544  -26.2720   23.3196 C   0  0  0  0  0  0  0  0  0  0  0  0
  -25.3819  -27.2342   23.9821 C   0  0  0  0  0  0  0  0  0  0  0  0
  -23.8748   -7.9902   22.3673 C   0  0  0  0  0  0  0  0  0  0  0  0
  -22.2877   -9.7493   21.8941 C   0  0  0  0  0  0  0  0  0  0  0  0
  -26.2748  -26.1979   23.7129 C   0  0  0  0  0  0  0  0  0  0  0  0
  -21.0645   -6.1189   22.5491 C   0  0  0  0  0  0  0  0  0  0  0  0
  -20.8512   -4.7412   22.5941 C   0  0  0  0  0  0  0  0  0  0  0  0
  -27.6976  -18.4680   19.7690 C   0  0  0  0  0  0  0  0  0  0  0  0
  -25.8475  -20.0198   19.6918 C   0  0  0  0  0  0  0  0  0  0  0  0
  -26.7518  -27.1761   21.5601 C   0  0  0  0  0  0  0  0  0  0  0  0
  -25.5535  -17.7501   18.9178 C   0  0  0  0  0  0  0  0  0  0  0  0
  -21.7603   -4.6734   24.8315 C   0  0  0  0  0  0  0  0  0  0  0  0
  -24.3465   -9.6097   20.6376 C   0  0  0  0  0  0  0  0  0  0  0  0
  -27.1790  -19.7418   20.0012 C   0  0  0  0  0  0  0  0  0  0  0  0
  -25.2266   -9.7622   18.2481 C   0  0  0  0  0  0  0  0  0  0  0  0
  -18.5372  -27.7591   23.3421 C   0  0  0  0  0  0  0  0  0  0  0  0
  -25.1587  -28.2451   23.0362 C   0  0  0  0  0  0  0  0  0  0  0  0
  -19.7772  -27.3839   22.7907 C   0  0  0  0  0  0  0  0  0  0  0  0
  -25.8575  -28.2255   21.8207 C   0  0  0  0  0  0  0  0  0  0  0  0
  -26.8849  -17.4721   19.2272 C   0  0  0  0  0  0  0  0  0  0  0  0
  -22.6595   -8.6231   22.6284 C   0  0  0  0  0  0  0  0  0  0  0  0
  -26.9578  -26.1671   22.5006 C   0  0  0  0  0  0  0  0  0  0  0  0
  -21.6258   -6.7739   23.6454 C   0  0  0  0  0  0  0  0  0  0  0  0
  -21.1991   -4.0185   23.7352 C   0  0  0  0  0  0  0  0  0  0  0  0
  -25.0348  -19.0239   19.1501 C   0  0  0  0  0  0  0  0  0  0  0  0
  -21.9736   -6.0512   24.7865 C   0  0  0  0  0  0  0  0  0  0  0  0
  -25.2176  -10.1200   19.6096 C   0  0  0  0  0  0  0  0  0  0  0  0
  -26.2309  -10.5221   17.7000 C   0  0  0  0  0  0  0  0  0  0  0  0
  -27.3940  -21.8450   21.4138 C   0  0  0  0  0  0  0  0  0  0  0  0
  -28.1329  -22.8156   21.9690 C   0  0  0  0  0  0  0  0  0  0  0  0
  -28.0432  -20.8017   20.5747 C   0  0  0  0  0  0  0  0  0  0  0  0
  -24.4009   -8.8267   17.5419 C   0  0  0  0  0  0  0  0  0  0  0  0
  -22.6364  -29.2577   21.3881 C   0  0  0  0  0  0  0  0  0  0  0  0
  -24.6793  -31.5946   20.4460 C   0  0  0  0  0  0  0  0  0  0  0  0
  -27.9037  -32.6006   19.9581 C   0  0  0  0  0  0  0  0  0  0  0  0
  -28.7101  -15.7358   19.2415 C   0  0  0  0  0  0  0  0  0  0  0  0
  -17.7397  -28.9134   22.7887 C   0  0  0  0  0  0  0  0  0  0  0  0
  -24.2123  -29.3705   23.3527 C   0  0  0  0  0  0  0  0  0  0  0  0
  -25.6687  -29.2978   20.7801 C   0  0  0  0  0  0  0  0  0  0  0  0
  -18.5637  -29.8640   21.9240 C   0  0  0  0  0  0  0  0  0  0  0  0
  -30.3839  -12.6198   18.8342 C   0  0  0  0  0  0  0  0  0  0  0  0
  -19.4200  -29.0794   20.9351 C   0  0  0  0  0  0  0  0  0  0  0  0
  -29.2493  -11.5931   18.8568 C   0  0  0  0  0  0  0  0  0  0  0  0
  -30.1255  -13.7721   19.8033 C   0  0  0  0  0  0  0  0  0  0  0  0
  -27.6923  -13.4121   19.6655 C   0  0  0  0  0  0  0  0  0  0  0  0
  -20.4155  -28.1711   21.6668 C   0  0  1  0  0  0  0  0  0  0  0  0
  -23.6768  -30.0692   22.1067 C   0  0  1  0  0  0  0  0  0  0  0  0
  -27.8767  -12.2655   18.6580 C   0  0  2  0  0  0  0  0  0  0  0  0
  -29.2570  -34.5502   19.1425 C   0  0  0  0  0  0  0  0  0  0  0  0
  -23.9788  -30.8728   17.5653 C   0  0  0  0  0  0  0  0  0  0  0  0
  -26.0052  -32.1445   16.8274 C   0  0  0  0  0  0  0  0  0  0  0  0
  -24.1558  -33.3270   18.0123 C   0  0  0  0  0  0  0  0  0  0  0  0
  -29.2393  -32.9190   22.5798 C   0  0  0  0  0  0  0  0  0  0  0  0
  -27.5576  -23.8901   22.8344 C   0  0  0  0  0  0  0  0  0  1  0  0
  -25.6599  -31.7637   19.3107 C   0  0  1  0  0  0  0  0  0  0  0  0
  -28.6327  -33.8725   20.3524 C   0  0  2  0  0  0  0  0  0  0  0  0
  -24.9522  -32.0056   17.9475 C   0  0  0  0  0  0  0  0  0  0  0  0
  -26.1429  -11.0358   19.9082 N   0  0  0  0  0  0  0  0  0  0  0  0
  -26.7427  -11.2598   18.7266 N   0  0  0  0  0  0  0  0  0  0  0  0
  -24.7280  -30.3737   21.1337 N   0  0  0  0  0  0  0  0  0  0  0  0
  -28.8092  -14.3632   19.5528 N   0  0  0  0  0  0  0  0  0  0  0  0
  -26.7174  -10.6244   16.4449 N   0  0  0  0  0  0  0  0  0  0  0  0
  -23.4172   -8.1307   18.2576 N   0  0  0  0  0  0  0  0  0  0  0  0
  -27.4115  -16.1780   18.9912 N   0  0  0  0  0  0  0  0  0  0  0  0
  -21.5351  -28.9432   22.1613 N   0  0  0  0  0  0  0  0  0  0  0  0
  -26.5673  -32.8336   19.7110 N   0  0  0  0  0  0  0  0  0  0  0  0
  -29.7148  -33.5672   21.3305 N   0  3  0  0  0  0  0  0  0  0  0  0
  -29.2516  -20.7790   20.3686 O   0  0  0  0  0  0  0  0  0  0  0  0
  -24.5424   -8.6022   16.3159 O   0  0  0  0  0  0  0  0  0  0  0  0
  -22.8184  -28.9415   20.2182 O   0  0  0  0  0  0  0  0  0  0  0  0
  -23.9038  -32.5147   20.7174 O   0  0  0  0  0  0  0  0  0  0  0  0
  -28.4646  -31.5102   19.8738 O   0  0  0  0  0  0  0  0  0  0  0  0
  -29.7070  -16.4593   19.1732 O   0  0  0  0  0  0  0  0  0  0  0  0
  -21.8361   -8.1419   23.5995 O   0  0  0  0  0  0  0  0  0  0  0  0
  -27.8294  -25.1563   22.2351 O   0  0  0  0  0  0  0  0  0  1  0  0
  -20.9928   -2.6957   23.7788 F   0  0  0  0  0  0  0  0  0  0  0  0
  -23.7571  -19.2916   18.8502 F   0  0  0  0  0  0  0  0  0  0  0  0
  -22.5121   -6.6751   25.8432 F   0  0  0  0  0  0  0  0  0  0  0  0
  1  2  1  0  0  0  0
  1  5  2  0  0  0  0
  2  6  2  0  0  0  0
  3  8  2  0  0  0  0
  3 18  1  0  0  0  0
  4  9  1  0  0  0  0
  4 18  2  0  0  0  0
  5 21  1  0  0  0  0
  6 23  1  0  0  0  0
  7 10  2  0  0  0  0
  7 22  1  0  0  0  0
  8 26  1  0  0  0  0
  9 26  2  0  0  0  0
 10 27  1  0  0  0  0
 11 12  2  0  0  0  0
 11 28  1  0  0  0  0
 12 29  1  0  0  0  0
 13 19  2  0  0  0  0
 13 25  1  0  0  0  0
 14 19  1  0  0  0  0
 14 30  2  0  0  0  0
 15 24  1  0  0  0  0
 15 27  2  0  0  0  0
 16 25  2  0  0  0  0
 16 30  1  0  0  0  0
 17 29  2  0  0  0  0
 17 31  1  0  0  0  0
 18 32  1  0  0  0  0
 19 36  1  0  0  0  0
 20 32  1  0  0  0  0
 20 33  2  0  0  0  0
 20 37  1  0  0  0  0
 21 23  2  0  0  0  0
 21 42  1  0  0  0  0
 22 24  2  0  0  0  0
 22 43  1  0  0  0  0
 23 51  1  0  0  0  0
 24 44  1  0  0  0  0
 25 69  1  0  0  0  0
 26 79  1  0  0  0  0
 27 80  1  0  0  0  0
 28 31  2  0  0  0  0
 28 79  1  0  0  0  0
 29 81  1  0  0  0  0
 30 82  1  0  0  0  0
 31 83  1  0  0  0  0
 32 63  2  0  0  0  0
 33 64  1  0  0  0  0
 33 67  1  0  0  0  0
 34 35  2  0  0  0  0
 34 36  1  0  0  0  0
 35 59  1  0  0  0  0
 36 73  2  0  0  0  0
 37 68  1  0  0  0  0
 37 74  2  0  0  0  0
 38 52  1  0  0  0  0
 38 70  1  0  0  0  0
 38 75  2  0  0  0  0
 39 60  1  0  0  0  0
 39 65  1  0  0  0  0
 39 76  2  0  0  0  0
 40 61  1  0  0  0  0
 40 71  1  0  0  0  0
 40 77  2  0  0  0  0
 41 66  1  0  0  0  0
 41 69  1  0  0  0  0
 41 78  2  0  0  0  0
 42 45  1  0  0  0  0
 43 52  1  0  0  0  0
 44 65  1  0  0  0  0
 45 47  1  0  0  0  0
 46 48  1  0  0  0  0
 46 49  1  0  0  0  0
 47 51  1  0  0  0  0
 48 53  1  0  0  0  0
 49 66  1  0  0  0  0
 50 53  1  0  0  0  0
 50 66  1  0  0  0  0
 51 70  1  0  0  0  0
 52 65  1  0  0  0  0
 53 64  1  0  0  0  0
 54 61  1  0  0  0  0
 55 62  1  0  0  0  0
 56 62  1  0  0  0  0
 57 62  1  0  0  0  0
 58 72  1  0  0  0  0
 59 80  1  0  0  0  0
 60 62  1  0  0  0  0
 60 71  1  0  0  0  0
 61 72  1  0  0  0  0
 63 64  1  0  0  0  0
M  CHG  1  72   1
M  ISO  4  41 100  59 101  69 100  80 101
M  END
> <Batch ID>
0126

> <Smiles>
CNC(C)C(=O)NC(C(=O)N1Cc2cc([101O:1][101CH2:1]C=CC(=O)c3cc(F)cc([100NH:0][100C:0](=O)N4CCCC(n5nc(-c6ccc(Oc7ccc(F)cc7F)cc6)c(C(N)=O)c5N)C4)c3)ccc2CC1C(=O)NC1CCCc2ccccc21)C(C)(C)C

> <Shape>
0.238

> <Color>
0.103

> <Negative vol penalty>
0.000

$$$$

  -OEChem-04052302113D

 85 93  0     1  0  0  0  0  0999 V2000
  -18.5186  -32.6545   20.3637 C   0  0  0  0  0  0  0  0  0  0  0  0
  -19.7939  -32.3176   19.9214 C   0  0  0  0  0  0  0  0  0  0  0  0
  -23.5654  -13.3370   25.2861 C   0  0  0  0  0  0  0  0  0  0  0  0
  -22.2042  -15.3063   24.9602 C   0  0  0  0  0  0  0  0  0  0  0  0
  -26.6851  -22.4394   16.6251 C   0  0  0  0  0  0  0  0  0  0  0  0
  -18.1164  -32.3119   21.6540 C   0  0  0  0  0  0  0  0  0  0  0  0
  -20.6681  -31.6388   20.7696 C   0  0  0  0  0  0  0  0  0  0  0  0
  -24.8197  -27.4289   19.1739 C   0  0  0  0  0  0  0  0  0  0  0  0
  -25.9745  -21.2396   16.5940 C   0  0  0  0  0  0  0  0  0  0  0  0
  -22.7564  -12.9549   26.3562 C   0  0  0  0  0  0  0  0  0  0  0  0
  -21.3952  -14.9242   26.0304 C   0  0  0  0  0  0  0  0  0  0  0  0
  -26.1934  -27.5047   18.9481 C   0  0  0  0  0  0  0  0  0  0  0  0
  -18.7570  -14.2817   28.4480 C   0  0  0  0  0  0  0  0  0  0  0  0
  -17.3750  -14.3709   28.2815 C   0  0  0  0  0  0  0  0  0  0  0  0
  -27.8415  -21.7031   18.6145 C   0  0  0  0  0  0  0  0  0  0  0  0
  -26.5995  -26.7829   21.2138 C   0  0  0  0  0  0  0  0  0  0  0  0
  -17.4985  -12.8244   26.4293 C   0  0  0  0  0  0  0  0  0  0  0  0
  -23.2893  -14.5127   24.5881 C   0  0  0  0  0  0  0  0  0  0  0  0
  -27.6187  -22.6712   17.6353 C   0  0  0  0  0  0  0  0  0  0  0  0
  -23.9580  -14.5688   22.1269 C   0  0  0  0  0  0  0  0  0  0  0  0
  -18.9827  -31.6201   22.5151 C   0  0  0  0  0  0  0  0  0  0  0  0
  -24.3248  -27.0394   20.4268 C   0  0  0  0  0  0  0  0  0  0  0  0
  -20.2776  -31.2879   22.0731 C   0  0  0  0  0  0  0  0  0  0  0  0
  -25.2192  -26.7005   21.4521 C   0  0  0  0  0  0  0  0  0  0  0  0
  -26.1973  -20.2715   17.5732 C   0  0  0  0  0  0  0  0  0  0  0  0
  -27.1309  -20.5032   18.5835 C   0  0  0  0  0  0  0  0  0  0  0  0
  -21.6713  -13.7484   26.7283 C   0  0  0  0  0  0  0  0  0  0  0  0
  -27.0836  -27.1845   19.9690 C   0  0  0  0  0  0  0  0  0  0  0  0
  -19.5098  -13.4639   27.6052 C   0  0  0  0  0  0  0  0  0  0  0  0
  -16.7458  -13.6423   27.2721 C   0  0  0  0  0  0  0  0  0  0  0  0
  -18.8805  -12.7353   26.5959 C   0  0  0  0  0  0  0  0  0  0  0  0
  -24.1249  -14.9082   23.4829 C   0  0  0  0  0  0  0  0  0  0  0  0
  -25.0043  -15.1870   21.4869 C   0  0  0  0  0  0  0  0  0  0  0  0
  -28.3681  -23.9376   17.6663 C   0  0  0  0  0  0  0  0  0  0  0  0
  -29.5241  -24.1342   18.3196 C   0  0  0  0  0  0  0  0  0  0  0  0
  -22.9476  -13.7664   21.5018 C   0  0  0  0  0  0  0  0  0  0  0  0
  -22.5350  -28.4222   22.6603 C   0  0  0  0  0  0  0  0  0  0  0  0
  -22.6724  -25.4873   24.0349 C   0  0  0  0  0  0  0  0  0  0  0  0
  -24.3237  -22.5196   24.3703 C   0  0  0  0  0  0  0  0  0  0  0  0
  -28.2675  -19.6205   20.6511 C   0  0  0  0  0  0  0  0  0  0  0  0
  -18.5200  -31.3130   23.9173 C   0  0  0  0  0  0  0  0  0  0  0  0
  -22.8403  -26.9369   20.6461 C   0  0  0  0  0  0  0  0  0  0  0  0
  -24.7388  -26.2571   22.8090 C   0  0  0  0  0  0  0  0  0  0  0  0
  -19.3739  -30.2638   24.6244 C   0  0  0  0  0  0  0  0  0  0  0  0
  -29.1239  -17.4625   23.3505 C   0  0  0  0  0  0  0  0  0  0  0  0
  -20.8569  -30.5684   24.4379 C   0  0  0  0  0  0  0  0  0  0  0  0
  -27.8859  -16.5777   23.5141 C   0  0  0  0  0  0  0  0  0  0  0  0
  -28.7509  -18.8965   22.9786 C   0  0  0  0  0  0  0  0  0  0  0  0
  -26.6319  -18.1411   21.9745 C   0  0  0  0  0  0  0  0  0  0  0  0
  -21.2458  -30.5298   22.9551 C   0  0  1  0  0  0  0  0  0  0  0  0
  -22.4462  -27.0240   22.1174 C   0  0  1  0  0  0  0  0  0  0  0  0
  -26.9598  -16.6716   22.2856 C   0  0  2  0  0  0  0  0  0  0  0  0
  -25.4208  -18.9960   17.5159 C   0  0  0  0  0  0  0  0  0  0  0  0
  -24.7482  -20.1630   25.1213 C   0  0  0  0  0  0  0  0  0  0  0  0
  -23.6673  -26.8599   26.5719 C   0  0  0  0  0  0  0  0  0  0  0  0
  -24.4291  -24.6232   27.3997 C   0  0  0  0  0  0  0  0  0  0  0  0
  -22.0077  -25.0293   26.9584 C   0  0  0  0  0  0  0  0  0  0  0  0
  -31.4123  -25.0876   20.5649 C   0  0  0  0  0  0  0  0  0  0  0  0
  -31.3519  -27.3537   19.5145 C   0  0  0  0  0  0  0  0  0  0  0  0
  -22.8962  -21.3950   22.0345 C   0  0  0  0  0  0  0  0  0  0  0  0
  -30.2658  -25.4448   18.3136 C   0  0  0  0  0  0  0  0  0  0  0  0
  -29.2529  -26.3608   20.4900 C   0  0  0  0  0  0  0  0  0  1  0  0
  -23.6024  -24.8056   25.0093 C   0  0  1  0  0  0  0  0  0  0  0  0
  -23.8332  -21.0836   24.3288 C   0  0  2  0  0  0  0  0  0  0  0  0
  -23.4360  -25.3397   26.4599 C   0  0  0  0  0  0  0  0  0  0  0  0
  -30.5549  -26.0475   19.7186 C   0  0  0  0  0  0  0  0  0  0  0  0
  -25.1932  -15.6820   23.6931 N   0  0  0  0  0  0  0  0  0  0  0  0
  -25.7071  -15.8338   22.4606 N   0  0  0  0  0  0  0  0  0  0  0  0
  -23.2782  -26.1788   22.9763 N   0  0  0  0  0  0  0  0  0  0  0  0
  -27.8762  -18.9074   21.8040 N   0  0  0  0  0  0  0  0  0  0  0  0
  -25.3825  -15.2351   20.1919 N   0  0  0  0  0  0  0  0  0  0  0  0
  -21.9461  -13.2065   22.3067 N   0  0  0  0  0  0  0  0  0  0  0  0
  -27.3714  -19.5316   19.5864 N   0  0  0  0  0  0  0  0  0  0  0  0
  -21.3782  -29.1615   22.5028 N   0  0  0  0  0  0  0  0  0  0  0  0
  -23.3625  -23.3734   24.8686 N   0  0  0  0  0  0  0  0  0  0  0  0
  -23.7793  -20.5952   22.9218 N   0  3  0  0  0  0  0  0  0  0  0  0
  -22.9425  -13.5388   20.2682 O   0  0  0  0  0  0  0  0  0  0  0  0
  -23.5756  -28.8018   23.1846 O   0  0  0  0  0  0  0  0  0  0  0  0
  -21.4532  -25.4032   24.2027 O   0  0  0  0  0  0  0  0  0  0  0  0
  -25.4485  -22.8502   24.0015 O   0  0  0  0  0  0  0  0  0  0  0  0
  -29.3329  -20.2405   20.6020 O   0  0  0  0  0  0  0  0  0  0  0  0
  -20.8816  -13.3758   27.7724 O   0  0  0  0  0  0  0  0  0  0  0  0
  -28.4249  -27.2582   19.7515 O   0  0  0  0  0  0  0  0  0  1  0  0
  -15.4184  -13.7268   27.1133 F   0  0  0  0  0  0  0  0  0  0  0  0
  -19.5982  -11.9470   25.7839 F   0  0  0  0  0  0  0  0  0  0  0  0
  1  2  1  0  0  0  0
  1  6  2  0  0  0  0
  2  7  2  0  0  0  0
  3 10  2  0  0  0  0
  3 18  1  0  0  0  0
  4 11  1  0  0  0  0
  4 18  2  0  0  0  0
  5  9  2  0  0  0  0
  5 19  1  0  0  0  0
  6 21  1  0  0  0  0
  7 23  1  0  0  0  0
  8 12  2  0  0  0  0
  8 22  1  0  0  0  0
  9 25  1  0  0  0  0
 10 27  1  0  0  0  0
 11 27  2  0  0  0  0
 12 28  1  0  0  0  0
 13 14  2  0  0  0  0
 13 29  1  0  0  0  0
 14 30  1  0  0  0  0
 15 19  2  0  0  0  0
 15 26  1  0  0  0  0
 16 24  1  0  0  0  0
 16 28  2  0  0  0  0
 17 30  2  0  0  0  0
 17 31  1  0  0  0  0
 18 32  1  0  0  0  0
 19 34  1  0  0  0  0
 20 32  1  0  0  0  0
 20 33  2  0  0  0  0
 20 36  1  0  0  0  0
 21 23  2  0  0  0  0
 21 41  1  0  0  0  0
 22 24  2  0  0  0  0
 22 42  1  0  0  0  0
 23 50  1  0  0  0  0
 24 43  1  0  0  0  0
 25 26  2  0  0  0  0
 25 53  1  0  0  0  0
 26 73  1  0  0  0  0
 27 82  1  0  0  0  0
 28 83  1  0  0  0  0
 29 31  2  0  0  0  0
 29 82  1  0  0  0  0
 30 84  1  0  0  0  0
 31 85  1  0  0  0  0
 32 67  2  0  0  0  0
 33 68  1  0  0  0  0
 33 71  1  0  0  0  0
 34 35  2  0  0  0  0
 35 61  1  0  0  0  0
 36 72  1  0  0  0  0
 36 77  2  0  0  0  0
 37 51  1  0  0  0  0
 37 74  1  0  0  0  0
 37 78  2  0  0  0  0
 38 63  1  0  0  0  0
 38 69  1  0  0  0  0
 38 79  2  0  0  0  0
 39 64  1  0  0  0  0
 39 75  1  0  0  0  0
 39 80  2  0  0  0  0
 40 70  1  0  0  0  0
 40 73  1  0  0  0  0
 40 81  2  0  0  0  0
 41 44  1  0  0  0  0
 42 51  1  0  0  0  0
 43 69  1  0  0  0  0
 44 46  1  0  0  0  0
 45 47  1  0  0  0  0
 45 48  1  0  0  0  0
 46 50  1  0  0  0  0
 47 52  1  0  0  0  0
 48 70  1  0  0  0  0
 49 52  1  0  0  0  0
 49 70  1  0  0  0  0
 50 74  1  0  0  0  0
 51 69  1  0  0  0  0
 52 68  1  0  0  0  0
 54 64  1  0  0  0  0
 55 65  1  0  0  0  0
 56 65  1  0  0  0  0
 57 65  1  0  0  0  0
 58 66  1  0  0  0  0
 59 66  1  0  0  0  0
 60 76  1  0  0  0  0
 61 66  1  0  0  0  0
 62 66  1  0  0  0  0
 62 83  1  0  0  0  0
 63 65  1  0  0  0  0
 63 75  1  0  0  0  0
 64 76  1  0  0  0  0
 67 68  1  0  0  0  0
M  CHG  1  76   1
M  ISO  4  40 100  62 101  73 100  83 101
M  END
> <Batch ID>
0126

> <Smiles>
CNC(C)C(=O)NC(C(=O)N1Cc2cc([101O:1][101CH2:1]C(C)(C)CC=Cc3ccc(C)c([100NH:0][100C:0](=O)N4CCCC(n5nc(-c6ccc(Oc7ccc(F)cc7F)cc6)c(C(N)=O)c5N)C4)c3)ccc2CC1C(=O)NC1CCCc2ccccc21)C(C)(C)C

> <Shape>
0.148

> <Color>
0.131

> <Negative vol penalty>
0.000

$$$$

  -OEChem-04052302113D

 83 91  0     1  0  0  0  0  0999 V2000
  -18.9119  -24.6406   22.0360 C   0  0  0  0  0  0  0  0  0  0  0  0
  -20.1646  -24.8643   21.4739 C   0  0  0  0  0  0  0  0  0  0  0  0
  -32.7985  -20.6992   19.9206 C   0  0  0  0  0  0  0  0  0  0  0  0
  -24.8995  -13.8743   22.5985 C   0  0  0  0  0  0  0  0  0  0  0  0
  -27.1851  -13.7246   21.8299 C   0  0  0  0  0  0  0  0  0  0  0  0
  -32.7299  -21.9009   19.2158 C   0  0  0  0  0  0  0  0  0  0  0  0
  -18.1201  -25.7208   22.4237 C   0  0  0  0  0  0  0  0  0  0  0  0
  -20.6259  -26.1684   21.2981 C   0  0  0  0  0  0  0  0  0  0  0  0
  -25.4471  -26.7346   22.7406 C   0  0  0  0  0  0  0  0  0  0  0  0
  -31.7843  -20.3562   20.8147 C   0  0  0  0  0  0  0  0  0  0  0  0
  -24.5453  -12.8260   21.7492 C   0  0  0  0  0  0  0  0  0  0  0  0
  -26.8309  -12.6763   20.9806 C   0  0  0  0  0  0  0  0  0  0  0  0
  -26.4314  -26.2763   21.8661 C   0  0  0  0  0  0  0  0  0  0  0  0
  -24.7881   -9.4536   21.7194 C   0  0  0  0  0  0  0  0  0  0  0  0
  -23.9749   -8.4459   22.2378 C   0  0  0  0  0  0  0  0  0  0  0  0
  -30.6330  -22.4167   20.2993 C   0  0  0  0  0  0  0  0  0  0  0  0
  -26.7852  -28.5331   21.0910 C   0  0  0  0  0  0  0  0  0  0  0  0
  -22.2993   -8.9394   20.5687 C   0  0  0  0  0  0  0  0  0  0  0  0
  -26.2195  -14.3236   22.6388 C   0  0  0  0  0  0  0  0  0  0  0  0
  -31.6472  -22.7597   19.4052 C   0  0  0  0  0  0  0  0  0  0  0  0
  -27.0280  -15.3093   24.8484 C   0  0  0  0  0  0  0  0  0  0  0  0
  -18.5760  -27.0386   22.2615 C   0  0  0  0  0  0  0  0  0  0  0  0
  -25.1163  -28.0965   22.7892 C   0  0  0  0  0  0  0  0  0  0  0  0
  -19.8390  -27.2673   21.6828 C   0  0  0  0  0  0  0  0  0  0  0  0
  -25.7982  -29.0066   21.9689 C   0  0  0  0  0  0  0  0  0  0  0  0
  -30.7016  -21.2149   21.0041 C   0  0  0  0  0  0  0  0  0  0  0  0
  -25.5110  -12.2270   20.9403 C   0  0  0  0  0  0  0  0  0  0  0  0
  -27.0986  -27.1751   21.0390 C   0  0  0  0  0  0  0  0  0  0  0  0
  -24.3569  -10.2043   20.6257 C   0  0  0  0  0  0  0  0  0  0  0  0
  -22.7305   -8.1887   21.6624 C   0  0  0  0  0  0  0  0  0  0  0  0
  -23.1125   -9.9472   20.0503 C   0  0  0  0  0  0  0  0  0  0  0  0
  -26.5859  -15.4068   23.5155 C   0  0  0  0  0  0  0  0  0  0  0  0
  -27.2439  -16.6095   25.2346 C   0  0  0  0  0  0  0  0  0  0  0  0
  -30.2266  -24.5741   18.3307 C   0  0  0  0  0  0  0  0  0  0  0  0
  -30.0422  -25.8963   18.2109 C   0  0  0  0  0  0  0  0  0  0  0  0
  -31.5756  -24.0370   18.6551 C   0  0  0  0  0  0  0  0  0  0  0  0
  -27.2258  -14.1472   25.6646 C   0  0  0  0  0  0  0  0  0  0  0  0
  -22.4879  -29.7884   22.2123 C   0  0  0  0  0  0  0  0  0  0  0  0
  -24.2861  -32.2389   23.3452 C   0  0  0  0  0  0  0  0  0  0  0  0
  -27.3932  -33.5305   23.9151 C   0  0  0  0  0  0  0  0  0  0  0  0
  -28.5283  -21.6045   22.2171 C   0  0  0  0  0  0  0  0  0  0  0  0
  -17.6649  -28.1752   22.6521 C   0  0  0  0  0  0  0  0  0  0  0  0
  -24.0709  -28.5787   23.7572 C   0  0  0  0  0  0  0  0  0  0  0  0
  -25.4945  -30.4815   21.9973 C   0  0  0  0  0  0  0  0  0  0  0  0
  -18.3831  -29.5164   22.7766 C   0  0  0  0  0  0  0  0  0  0  0  0
  -25.7401  -21.0727   24.3665 C   0  0  0  0  0  0  0  0  0  0  0  0
  -19.2977  -29.7455   21.5775 C   0  0  0  0  0  0  0  0  0  0  0  0
  -25.6845  -19.5508   24.5184 C   0  0  0  0  0  0  0  0  0  0  0  0
  -26.1590  -21.4870   22.9571 C   0  0  0  0  0  0  0  0  0  0  0  0
  -27.3495  -19.3556   22.6272 C   0  0  0  0  0  0  0  0  0  0  0  0
  -20.3847  -28.6667   21.4987 C   0  0  1  0  0  0  0  0  0  0  0  0
  -23.4553  -29.9153   23.3550 C   0  0  1  0  0  0  0  0  0  0  0  0
  -26.9950  -18.8894   24.0487 C   0  0  2  0  0  0  0  0  0  0  0  0
  -28.5435  -35.5695   24.8187 C   0  0  0  0  0  0  0  0  0  0  0  0
  -23.6209  -33.7487   20.7785 C   0  0  0  0  0  0  0  0  0  0  0  0
  -25.5070  -35.3130   21.2924 C   0  0  0  0  0  0  0  0  0  0  0  0
  -23.5684  -35.1442   22.8532 C   0  0  0  0  0  0  0  0  0  0  0  0
  -28.7258  -31.9745   26.0509 C   0  0  0  0  0  0  0  0  0  0  0  0
  -28.7156  -26.5183   17.8720 C   0  0  0  0  0  0  0  0  0  0  0  0
  -28.2375  -27.4602   18.9708 C   0  0  0  0  0  0  0  0  0  1  0  0
  -25.2314  -33.2438   22.7323 C   0  0  1  0  0  0  0  0  0  0  0  0
  -28.0023  -34.1855   25.1416 C   0  0  2  0  0  0  0  0  0  0  0  0
  -24.4865  -34.3344   21.9119 C   0  0  0  0  0  0  0  0  0  0  0  0
  -26.5239  -16.6693   23.0839 N   0  0  0  0  0  0  0  0  0  0  0  0
  -26.9299  -17.3770   24.1518 N   0  0  0  0  0  0  0  0  0  0  0  0
  -24.4599  -30.9031   22.9562 N   0  0  0  0  0  0  0  0  0  0  0  0
  -27.4103  -20.8249   22.5819 N   0  0  0  0  0  0  0  0  0  0  0  0
  -27.6696  -17.1598   26.3915 N   0  0  0  0  0  0  0  0  0  0  0  0
  -26.9564  -12.8881   25.1109 N   0  0  0  0  0  0  0  0  0  0  0  0
  -29.6713  -20.8662   21.9122 N   0  0  0  0  0  0  0  0  0  0  0  0
  -21.4317  -28.9329   22.4616 N   0  0  0  0  0  0  0  0  0  0  0  0
  -26.0376  -33.7678   23.8295 N   0  0  0  0  0  0  0  0  0  0  0  0
  -29.1211  -33.3550   25.6705 N   0  3  0  0  0  0  0  0  0  0  0  0
  -32.6093  -24.5958   18.3050 O   0  0  0  0  0  0  0  0  0  0  0  0
  -27.6139  -14.2240   26.8549 O   0  0  0  0  0  0  0  0  0  0  0  0
  -22.6844  -30.4209   21.1813 O   0  0  0  0  0  0  0  0  0  0  0  0
  -23.4298  -32.6239   24.1453 O   0  0  0  0  0  0  0  0  0  0  0  0
  -28.0545  -32.8771   23.1112 O   0  0  0  0  0  0  0  0  0  0  0  0
  -28.4835  -22.8373   22.2045 O   0  0  0  0  0  0  0  0  0  0  0  0
  -25.1657  -11.2040   20.1117 O   0  0  0  0  0  0  0  0  0  0  0  0
  -28.0593  -26.7303   20.1840 O   0  0  0  0  0  0  0  0  0  1  0  0
  -21.9504   -7.2199   22.1594 F   0  0  0  0  0  0  0  0  0  0  0  0
  -22.6934  -10.6642   18.9987 F   0  0  0  0  0  0  0  0  0  0  0  0
  1  2  1  0  0  0  0
  1  7  2  0  0  0  0
  2  8  2  0  0  0  0
  3  6  2  0  0  0  0
  3 10  1  0  0  0  0
  4 11  2  0  0  0  0
  4 19  1  0  0  0  0
  5 12  1  0  0  0  0
  5 19  2  0  0  0  0
  6 20  1  0  0  0  0
  7 22  1  0  0  0  0
  8 24  1  0  0  0  0
  9 13  2  0  0  0  0
  9 23  1  0  0  0  0
 10 26  2  0  0  0  0
 11 27  1  0  0  0  0
 12 27  2  0  0  0  0
 13 28  1  0  0  0  0
 14 15  2  0  0  0  0
 14 29  1  0  0  0  0
 15 30  1  0  0  0  0
 16 20  2  0  0  0  0
 16 26  1  0  0  0  0
 17 25  1  0  0  0  0
 17 28  2  0  0  0  0
 18 30  2  0  0  0  0
 18 31  1  0  0  0  0
 19 32  1  0  0  0  0
 20 36  1  0  0  0  0
 21 32  1  0  0  0  0
 21 33  2  0  0  0  0
 21 37  1  0  0  0  0
 22 24  2  0  0  0  0
 22 42  1  0  0  0  0
 23 25  2  0  0  0  0
 23 43  1  0  0  0  0
 24 51  1  0  0  0  0
 25 44  1  0  0  0  0
 26 70  1  0  0  0  0
 27 80  1  0  0  0  0
 28 81  1  0  0  0  0
 29 31  2  0  0  0  0
 29 80  1  0  0  0  0
 30 82  1  0  0  0  0
 31 83  1  0  0  0  0
 32 64  2  0  0  0  0
 33 65  1  0  0  0  0
 33 68  1  0  0  0  0
 34 35  2  0  0  0  0
 34 36  1  0  0  0  0
 35 59  1  0  0  0  0
 36 74  2  0  0  0  0
 37 69  1  0  0  0  0
 37 75  2  0  0  0  0
 38 52  1  0  0  0  0
 38 71  1  0  0  0  0
 38 76  2  0  0  0  0
 39 61  1  0  0  0  0
 39 66  1  0  0  0  0
 39 77  2  0  0  0  0
 40 62  1  0  0  0  0
 40 72  1  0  0  0  0
 40 78  2  0  0  0  0
 41 67  1  0  0  0  0
 41 70  1  0  0  0  0
 41 79  2  0  0  0  0
 42 45  1  0  0  0  0
 43 52  1  0  0  0  0
 44 66  1  0  0  0  0
 45 47  1  0  0  0  0
 46 48  1  0  0  0  0
 46 49  1  0  0  0  0
 47 51  1  0  0  0  0
 48 53  1  0  0  0  0
 49 67  1  0  0  0  0
 50 53  1  0  0  0  0
 50 67  1  0  0  0  0
 51 71  1  0  0  0  0
 52 66  1  0  0  0  0
 53 65  1  0  0  0  0
 54 62  1  0  0  0  0
 55 63  1  0  0  0  0
 56 63  1  0  0  0  0
 57 63  1  0  0  0  0
 58 73  1  0  0  0  0
 59 60  1  0  0  0  0
 60 81  1  0  0  0  0
 61 63  1  0  0  0  0
 61 72  1  0  0  0  0
 62 73  1  0  0  0  0
 64 65  1  0  0  0  0
M  CHG  1  73   1
M  ISO  4  41 100  60 101  70 100  81 101
M  END
> <Batch ID>
0126

> <Smiles>
CNC(C)C(=O)NC(C(=O)N1Cc2cc([101O:1][101CH2:1]CC=CC(=O)c3cccc([100NH:0][100C:0](=O)N4CCCC(n5nc(-c6ccc(Oc7ccc(F)cc7F)cc6)c(C(N)=O)c5N)C4)c3)ccc2CC1C(=O)NC1CCCc2ccccc21)C(C)(C)C

> <Shape>
0.259

> <Color>
0.098

> <Negative vol penalty>
0.000

$$$$

  -OEChem-04052302113D

 84 92  0     1  0  0  0  0  0999 V2000
  -25.8616  -37.5382   23.2582 C   0  0  0  0  0  0  0  0  0  0  0  0
  -26.6631  -36.4914   22.8142 C   0  0  0  0  0  0  0  0  0  0  0  0
  -23.9884   -9.8484   22.3945 C   0  0  0  0  0  0  0  0  0  0  0  0
  -24.4651  -11.5690   24.0222 C   0  0  0  0  0  0  0  0  0  0  0  0
  -24.7226  -37.2696   24.0161 C   0  0  0  0  0  0  0  0  0  0  0  0
  -26.3265  -35.1752   23.1288 C   0  0  0  0  0  0  0  0  0  0  0  0
  -27.1733  -30.2215   19.6290 C   0  0  0  0  0  0  0  0  0  0  0  0
  -23.5617   -9.0000   23.4162 C   0  0  0  0  0  0  0  0  0  0  0  0
  -24.0384  -10.7206   25.0440 C   0  0  0  0  0  0  0  0  0  0  0  0
  -28.1617  -29.2383   19.6183 C   0  0  0  0  0  0  0  0  0  0  0  0
  -20.7998   -8.5902   25.3233 C   0  0  0  0  0  0  0  0  0  0  0  0
  -19.6147   -7.8818   25.1252 C   0  0  0  0  0  0  0  0  0  0  0  0
  -28.3554  -20.5267   19.1169 C   0  0  0  0  0  0  0  0  0  0  0  0
  -26.7559  -27.8189   20.9704 C   0  0  0  0  0  0  0  0  0  0  0  0
  -30.4863  -18.7311   18.9822 C   0  0  0  0  0  0  0  0  0  0  0  0
  -20.8190   -5.8008   25.3622 C   0  0  0  0  0  0  0  0  0  0  0  0
  -24.4401  -11.1329   22.6976 C   0  0  0  0  0  0  0  0  0  0  0  0
  -29.6664  -21.0017   19.0807 C   0  0  0  0  0  0  0  0  0  0  0  0
  -24.0969  -12.9202   20.9100 C   0  0  0  0  0  0  0  0  0  0  0  0
  -24.3667  -35.9490   24.3320 C   0  0  0  0  0  0  0  0  0  0  0  0
  -25.9711  -30.0147   20.3206 C   0  0  0  0  0  0  0  0  0  0  0  0
  -25.1824  -34.8888   23.8928 C   0  0  0  0  0  0  0  0  0  0  0  0
  -25.7528  -28.7999   20.9861 C   0  0  0  0  0  0  0  0  0  0  0  0
  -28.1098  -19.1539   19.0858 C   0  0  0  0  0  0  0  0  0  0  0  0
  -29.1753  -18.2562   19.0184 C   0  0  0  0  0  0  0  0  0  0  0  0
  -23.5867   -9.4361   24.7409 C   0  0  0  0  0  0  0  0  0  0  0  0
  -27.9543  -28.0379   20.2915 C   0  0  0  0  0  0  0  0  0  0  0  0
  -21.9946   -7.9039   25.5408 C   0  0  0  0  0  0  0  0  0  0  0  0
  -19.6243   -6.4871   25.1447 C   0  0  0  0  0  0  0  0  0  0  0  0
  -30.7318  -20.1039   19.0134 C   0  0  0  0  0  0  0  0  0  0  0  0
  -22.0042   -6.5092   25.5603 C   0  0  0  0  0  0  0  0  0  0  0  0
  -24.8815  -12.0095   21.6427 C   0  0  0  0  0  0  0  0  0  0  0  0
  -24.9782  -13.5057   20.0343 C   0  0  0  0  0  0  0  0  0  0  0  0
  -29.9204  -22.4528   19.1138 C   0  0  0  0  0  0  0  0  0  0  0  0
  -29.1205  -23.3522   19.7036 C   0  0  0  0  0  0  0  0  0  0  0  0
  -22.6966  -13.2110   21.0121 C   0  0  0  0  0  0  0  0  0  0  0  0
  -29.4634  -24.8038   19.6722 C   0  0  0  0  0  0  0  0  0  0  0  0
  -24.5171  -31.4335   22.7654 C   0  0  0  0  0  0  0  0  0  0  0  0
  -22.1180  -29.3794   22.0258 C   0  0  0  0  0  0  0  0  0  0  0  0
  -21.1651  -26.4353   20.5867 C   0  0  0  0  0  0  0  0  0  0  0  0
  -29.9053  -15.8471   18.9188 C   0  0  0  0  0  0  0  0  0  0  0  0
  -23.1522  -35.7109   25.1940 C   0  0  0  0  0  0  0  0  0  0  0  0
  -24.9040  -31.0745   20.3001 C   0  0  0  0  0  0  0  0  0  0  0  0
  -24.4713  -28.5205   21.7266 C   0  0  0  0  0  0  0  0  0  0  0  0
  -22.6598  -34.2662   25.1670 C   0  0  0  0  0  0  0  0  0  0  0  0
  -29.7488  -12.2906   18.8566 C   0  0  0  0  0  0  0  0  0  0  0  0
  -23.8282  -33.3007   25.3385 C   0  0  0  0  0  0  0  0  0  0  0  0
  -28.4040  -11.9753   19.5156 C   0  0  0  0  0  0  0  0  0  0  0  0
  -30.4321  -13.4914   19.5085 C   0  0  0  0  0  0  0  0  0  0  0  0
  -28.2624  -14.3877   20.2554 C   0  0  0  0  0  0  0  0  0  0  0  0
  -24.8369  -33.4463   24.1927 C   0  0  1  0  0  0  0  0  0  0  0  0
  -23.9272  -30.9616   21.4665 C   0  0  1  0  0  0  0  0  0  0  0  0
  -27.5062  -13.2259   19.5906 C   0  0  2  0  0  0  0  0  0  0  0  0
  -26.6955  -18.6726   19.1258 C   0  0  0  0  0  0  0  0  0  0  0  0
  -19.1424  -25.0089   20.1726 C   0  0  0  0  0  0  0  0  0  0  0  0
  -22.1604  -28.4774   24.9404 C   0  0  0  0  0  0  0  0  0  0  0  0
  -20.8436  -26.4589   24.2622 C   0  0  0  0  0  0  0  0  0  0  0  0
  -19.8736  -28.7374   23.9620 C   0  0  0  0  0  0  0  0  0  0  0  0
  -21.4856  -26.6295   17.6509 C   0  0  0  0  0  0  0  0  0  0  0  0
  -28.4830  -25.7207   20.3728 C   0  0  0  0  0  0  0  0  0  1  0  0
  -21.7451  -27.9769   22.4418 C   0  0  1  0  0  0  0  0  0  0  0  0
  -20.0423  -26.1034   19.6204 C   0  0  2  0  0  0  0  0  0  0  0  0
  -21.1807  -27.9184   23.8894 C   0  0  0  0  0  0  0  0  0  0  0  0
  -26.1627  -12.0124   21.2650 N   0  0  0  0  0  0  0  0  0  0  0  0
  -26.1898  -12.9322   20.2855 N   0  0  0  0  0  0  0  0  0  0  0  0
  -23.4609  -29.5904   21.6826 N   0  0  0  0  0  0  0  0  0  0  0  0
  -29.5235  -14.6395   19.5406 N   0  0  0  0  0  0  0  0  0  0  0  0
  -24.8271  -14.4500   19.0814 N   0  0  0  0  0  0  0  0  0  0  0  0
  -21.9381  -12.5182   21.9655 N   0  0  0  0  0  0  0  0  0  0  0  0
  -28.9471  -16.8581   18.9856 N   0  0  0  0  0  0  0  0  0  0  0  0
  -24.3483  -32.7844   23.0021 N   0  0  0  0  0  0  0  0  0  0  0  0
  -20.8280  -27.4790   21.4223 N   0  0  0  0  0  0  0  0  0  0  0  0
  -20.5996  -25.6410   18.3179 N   0  3  0  0  0  0  0  0  0  0  0  0
  -22.1315  -14.0482   20.2684 O   0  0  0  0  0  0  0  0  0  0  0  0
  -30.4740  -25.2235   19.1149 O   0  0  0  0  0  0  0  0  0  0  0  0
  -25.0823  -30.6311   23.4992 O   0  0  0  0  0  0  0  0  0  0  0  0
  -21.2482  -30.2537   21.9994 O   0  0  0  0  0  0  0  0  0  0  0  0
  -22.2329  -25.8269   20.6014 O   0  0  0  0  0  0  0  0  0  0  0  0
  -30.9904  -15.9663   18.3439 O   0  0  0  0  0  0  0  0  0  0  0  0
  -23.1702   -8.6087   25.7381 O   0  0  0  0  0  0  0  0  0  0  0  0
  -28.9178  -27.0769   20.2833 O   0  0  0  0  0  0  0  0  0  1  0  0
  -18.4859   -5.8070   24.9559 F   0  0  0  0  0  0  0  0  0  0  0  0
  -31.9977  -20.5454   18.9785 F   0  0  0  0  0  0  0  0  0  0  0  0
  -23.1487   -5.8444   25.7700 F   0  0  0  0  0  0  0  0  0  0  0  0
  1  2  1  0  0  0  0
  1  5  2  0  0  0  0
  2  6  2  0  0  0  0
  3  8  2  0  0  0  0
  3 17  1  0  0  0  0
  4  9  1  0  0  0  0
  4 17  2  0  0  0  0
  5 20  1  0  0  0  0
  6 22  1  0  0  0  0
  7 10  2  0  0  0  0
  7 21  1  0  0  0  0
  8 26  1  0  0  0  0
  9 26  2  0  0  0  0
 10 27  1  0  0  0  0
 11 12  2  0  0  0  0
 11 28  1  0  0  0  0
 12 29  1  0  0  0  0
 13 18  1  0  0  0  0
 13 24  2  0  0  0  0
 14 23  1  0  0  0  0
 14 27  2  0  0  0  0
 15 25  2  0  0  0  0
 15 30  1  0  0  0  0
 16 29  2  0  0  0  0
 16 31  1  0  0  0  0
 17 32  1  0  0  0  0
 18 30  2  0  0  0  0
 18 34  1  0  0  0  0
 19 32  1  0  0  0  0
 19 33  2  0  0  0  0
 19 36  1  0  0  0  0
 20 22  2  0  0  0  0
 20 42  1  0  0  0  0
 21 23  2  0  0  0  0
 21 43  1  0  0  0  0
 22 51  1  0  0  0  0
 23 44  1  0  0  0  0
 24 25  1  0  0  0  0
 24 54  1  0  0  0  0
 25 70  1  0  0  0  0
 26 80  1  0  0  0  0
 27 81  1  0  0  0  0
 28 31  2  0  0  0  0
 28 80  1  0  0  0  0
 29 82  1  0  0  0  0
 30 83  1  0  0  0  0
 31 84  1  0  0  0  0
 32 64  2  0  0  0  0
 33 65  1  0  0  0  0
 33 68  1  0  0  0  0
 34 35  2  0  0  0  0
 35 37  1  0  0  0  0
 36 69  1  0  0  0  0
 36 74  2  0  0  0  0
 37 60  1  0  0  0  0
 37 75  2  0  0  0  0
 38 52  1  0  0  0  0
 38 71  1  0  0  0  0
 38 76  2  0  0  0  0
 39 61  1  0  0  0  0
 39 66  1  0  0  0  0
 39 77  2  0  0  0  0
 40 62  1  0  0  0  0
 40 72  1  0  0  0  0
 40 78  2  0  0  0  0
 41 67  1  0  0  0  0
 41 70  1  0  0  0  0
 41 79  2  0  0  0  0
 42 45  1  0  0  0  0
 43 52  1  0  0  0  0
 44 66  1  0  0  0  0
 45 47  1  0  0  0  0
 46 48  1  0  0  0  0
 46 49  1  0  0  0  0
 47 51  1  0  0  0  0
 48 53  1  0  0  0  0
 49 67  1  0  0  0  0
 50 53  1  0  0  0  0
 50 67  1  0  0  0  0
 51 71  1  0  0  0  0
 52 66  1  0  0  0  0
 53 65  1  0  0  0  0
 55 62  1  0  0  0  0
 56 63  1  0  0  0  0
 57 63  1  0  0  0  0
 58 63  1  0  0  0  0
 59 73  1  0  0  0  0
 60 81  1  0  0  0  0
 61 63  1  0  0  0  0
 61 72  1  0  0  0  0
 62 73  1  0  0  0  0
 64 65  1  0  0  0  0
M  CHG  1  73   1
M  ISO  4  41 100  60 101  70 100  81 101
M  END
> <Batch ID>
0126

> <Smiles>
CNC(C)C(=O)NC(C(=O)N1Cc2cc([101O:1][101CH2:1]C(=O)C=Cc3cc(C)c([100NH:0][100C:0](=O)N4CCCC(n5nc(-c6ccc(Oc7ccc(F)cc7F)cc6)c(C(N)=O)c5N)C4)cc3F)ccc2CC1C(=O)NC1CCCc2ccccc21)C(C)(C)C

> <Shape>
0.344

> <Color>
0.134

> <Negative vol penalty>
0.000

$$$$

  -OEChem-04052302113D

 83 91  0     1  0  0  0  0  0999 V2000
  -25.4800  -27.7633   35.2116 C   0  0  0  0  0  0  0  0  0  0  0  0
  -25.7852  -27.2083   33.9730 C   0  0  0  0  0  0  0  0  0  0  0  0
  -22.9997   -9.8943   19.9815 C   0  0  0  0  0  0  0  0  0  0  0  0
  -23.7251   -9.9447   22.2855 C   0  0  0  0  0  0  0  0  0  0  0  0
  -26.4447  -28.4947   35.9032 C   0  0  0  0  0  0  0  0  0  0  0  0
  -27.0550  -27.3853   33.4247 C   0  0  0  0  0  0  0  0  0  0  0  0
  -28.9466  -23.1074   31.4839 C   0  0  0  0  0  0  0  0  0  0  0  0
  -22.2328   -8.7601   20.2478 C   0  0  0  0  0  0  0  0  0  0  0  0
  -22.9582   -8.8105   22.5518 C   0  0  0  0  0  0  0  0  0  0  0  0
  -28.4708  -22.7098   30.2352 C   0  0  0  0  0  0  0  0  0  0  0  0
  -23.2013   -5.4715   22.0794 C   0  0  0  0  0  0  0  0  0  0  0  0
  -23.7886   -4.4540   22.8313 C   0  0  0  0  0  0  0  0  0  0  0  0
  -31.6592  -19.3251   22.7472 C   0  0  0  0  0  0  0  0  0  0  0  0
  -30.4499  -23.6193   29.1981 C   0  0  0  0  0  0  0  0  0  0  0  0
  -31.8919  -17.2437   21.5427 C   0  0  0  0  0  0  0  0  0  0  0  0
  -22.0649   -4.6973   24.5067 C   0  0  0  0  0  0  0  0  0  0  0  0
  -23.7459  -10.4867   21.0004 C   0  0  0  0  0  0  0  0  0  0  0  0
  -30.3638  -18.9652   23.1187 C   0  0  0  0  0  0  0  0  0  0  0  0
  -24.1320  -13.0021   20.8246 C   0  0  0  0  0  0  0  0  0  0  0  0
  -27.7300  -28.6726   35.3676 C   0  0  0  0  0  0  0  0  0  0  0  0
  -30.1747  -23.7748   31.5981 C   0  0  0  0  0  0  0  0  0  0  0  0
  -28.0374  -28.1209   34.1092 C   0  0  0  0  0  0  0  0  0  0  0  0
  -30.9402  -24.0220   30.4497 C   0  0  0  0  0  0  0  0  0  0  0  0
  -29.8324  -17.7446   22.7023 C   0  0  0  0  0  0  0  0  0  0  0  0
  -30.5965  -16.8838   21.9142 C   0  0  0  0  0  0  0  0  0  0  0  0
  -22.2120   -8.2181   21.5329 C   0  0  0  0  0  0  0  0  0  0  0  0
  -29.2211  -22.9683   29.0918 C   0  0  0  0  0  0  0  0  0  0  0  0
  -22.0459   -6.1020   22.5412 C   0  0  0  0  0  0  0  0  0  0  0  0
  -23.2204   -4.0669   24.0449 C   0  0  0  0  0  0  0  0  0  0  0  0
  -32.4232  -18.4643   21.9591 C   0  0  0  0  0  0  0  0  0  0  0  0
  -21.4777   -5.7149   23.7548 C   0  0  0  0  0  0  0  0  0  0  0  0
  -24.5387  -11.6580   20.7258 C   0  0  0  0  0  0  0  0  0  0  0  0
  -25.2420  -13.7244   20.4602 C   0  0  0  0  0  0  0  0  0  0  0  0
  -29.5853  -19.8993   23.9505 C   0  0  0  0  0  0  0  0  0  0  0  0
  -29.9537  -20.3404   25.1637 C   0  0  0  0  0  0  0  0  0  0  0  0
  -29.1543  -21.2653   25.9358 C   0  0  0  0  0  0  0  0  0  0  0  0
  -29.5162  -21.7077   27.1438 C   0  0  0  0  0  0  0  0  0  1  0  0
  -22.8643  -13.5489   21.2114 C   0  0  0  0  0  0  0  0  0  0  0  0
  -31.0823  -26.6417   32.6282 C   0  0  0  0  0  0  0  0  0  0  0  0
  -34.0576  -25.4401   32.1526 C   0  0  0  0  0  0  0  0  0  0  0  0
  -36.0489  -23.1900   30.5343 C   0  0  0  0  0  0  0  0  0  0  0  0
  -30.7218  -14.6836   20.6937 C   0  0  0  0  0  0  0  0  0  0  0  0
  -28.7248  -29.5110   36.1305 C   0  0  0  0  0  0  0  0  0  0  0  0
  -30.6864  -24.1734   32.9552 C   0  0  0  0  0  0  0  0  0  0  0  0
  -32.2744  -24.7173   30.5206 C   0  0  0  0  0  0  0  0  0  0  0  0
  -30.1636  -29.3356   35.6515 C   0  0  0  0  0  0  0  0  0  0  0  0
  -29.6025  -12.2314   18.3676 C   0  0  0  0  0  0  0  0  0  0  0  0
  -30.2308  -29.3993   34.1289 C   0  0  0  0  0  0  0  0  0  0  0  0
  -28.1518  -11.9742   18.7819 C   0  0  0  0  0  0  0  0  0  0  0  0
  -30.5032  -12.4743   19.5773 C   0  0  0  0  0  0  0  0  0  0  0  0
  -28.5882  -13.2637   20.9111 C   0  0  0  0  0  0  0  0  0  0  0  0
  -29.4114  -28.2700   33.4927 C   0  0  1  0  0  0  0  0  0  0  0  0
  -31.7097  -25.3036   32.8996 C   0  0  1  0  0  0  0  0  0  0  0  0
  -27.6304  -13.0778   19.7230 C   0  0  2  0  0  0  0  0  0  0  0  0
  -28.4415  -17.3517   23.0971 C   0  0  0  0  0  0  0  0  0  0  0  0
  -38.4448  -22.4739   30.3240 C   0  0  0  0  0  0  0  0  0  0  0  0
  -34.6370  -27.8923   30.4319 C   0  0  0  0  0  0  0  0  0  0  0  0
  -36.6257  -26.6861   29.5055 C   0  0  0  0  0  0  0  0  0  0  0  0
  -36.5108  -27.2108   31.9415 C   0  0  0  0  0  0  0  0  0  0  0  0
  -35.4403  -20.4626   31.5090 C   0  0  0  0  0  0  0  0  0  0  0  0
  -35.0220  -25.4015   30.9918 C   0  0  1  0  0  0  0  0  0  0  0  0
  -37.1244  -22.2476   31.0438 C   0  0  2  0  0  0  0  0  0  0  0  0
  -35.6729  -26.7863   30.7158 C   0  0  0  0  0  0  0  0  0  0  0  0
  -25.8079  -11.5311   20.3295 N   0  0  0  0  0  0  0  0  0  0  0  0
  -26.2083  -12.8048   20.1760 N   0  0  0  0  0  0  0  0  0  0  0  0
  -32.7289  -25.0931   31.8696 N   0  0  0  0  0  0  0  0  0  0  0  0
  -29.9486  -13.5354   20.4208 N   0  0  0  0  0  0  0  0  0  0  0  0
  -25.4759  -15.0500   20.3583 N   0  0  0  0  0  0  0  0  0  0  0  0
  -21.8322  -12.6651   21.5549 N   0  0  0  0  0  0  0  0  0  0  0  0
  -30.0780  -15.6389   21.4795 N   0  0  0  0  0  0  0  0  0  0  0  0
  -30.1360  -27.0191   33.5617 N   0  0  0  0  0  0  0  0  0  0  0  0
  -35.9781  -24.3408   31.2906 N   0  0  0  0  0  0  0  0  0  0  0  0
  -36.7125  -20.8306   30.8358 N   0  3  0  0  0  0  0  0  0  0  0  0
  -22.6480  -14.7843   21.2353 O   0  0  0  0  0  0  0  0  0  0  0  0
  -31.4320  -27.2847   31.6454 O   0  0  0  0  0  0  0  0  0  0  0  0
  -34.4695  -25.7592   33.2707 O   0  0  0  0  0  0  0  0  0  0  0  0
  -35.3447  -22.9328   29.5604 O   0  0  0  0  0  0  0  0  0  0  0  0
  -31.8605  -14.8222   20.2396 O   0  0  0  0  0  0  0  0  0  0  0  0
  -21.4636   -7.1115   21.7931 O   0  0  0  0  0  0  0  0  0  0  0  0
  -28.7586  -22.5818   27.8716 O   0  0  0  0  0  0  0  0  0  1  0  0
  -23.7836   -3.0887   24.7662 F   0  0  0  0  0  0  0  0  0  0  0  0
  -33.6675  -18.8096   21.6030 F   0  0  0  0  0  0  0  0  0  0  0  0
  -20.3671   -6.3160   24.2030 F   0  0  0  0  0  0  0  0  0  0  0  0
  1  2  1  0  0  0  0
  1  5  2  0  0  0  0
  2  6  2  0  0  0  0
  3  8  2  0  0  0  0
  3 17  1  0  0  0  0
  4  9  1  0  0  0  0
  4 17  2  0  0  0  0
  5 20  1  0  0  0  0
  6 22  1  0  0  0  0
  7 10  2  0  0  0  0
  7 21  1  0  0  0  0
  8 26  1  0  0  0  0
  9 26  2  0  0  0  0
 10 27  1  0  0  0  0
 11 12  2  0  0  0  0
 11 28  1  0  0  0  0
 12 29  1  0  0  0  0
 13 18  1  0  0  0  0
 13 30  2  0  0  0  0
 14 23  1  0  0  0  0
 14 27  2  0  0  0  0
 15 25  2  0  0  0  0
 15 30  1  0  0  0  0
 16 29  2  0  0  0  0
 16 31  1  0  0  0  0
 17 32  1  0  0  0  0
 18 24  2  0  0  0  0
 18 34  1  0  0  0  0
 19 32  1  0  0  0  0
 19 33  2  0  0  0  0
 19 38  1  0  0  0  0
 20 22  2  0  0  0  0
 20 43  1  0  0  0  0
 21 23  2  0  0  0  0
 21 44  1  0  0  0  0
 22 52  1  0  0  0  0
 23 45  1  0  0  0  0
 24 25  1  0  0  0  0
 24 55  1  0  0  0  0
 25 70  1  0  0  0  0
 26 79  1  0  0  0  0
 27 80  1  0  0  0  0
 28 31  2  0  0  0  0
 28 79  1  0  0  0  0
 29 81  1  0  0  0  0
 30 82  1  0  0  0  0
 31 83  1  0  0  0  0
 32 64  2  0  0  0  0
 33 65  1  0  0  0  0
 33 68  1  0  0  0  0
 34 35  2  0  0  0  0
 35 36  1  0  0  0  0
 36 37  2  0  0  0  0
 37 80  1  0  0  0  0
 38 69  1  0  0  0  0
 38 74  2  0  0  0  0
 39 53  1  0  0  0  0
 39 71  1  0  0  0  0
 39 75  2  0  0  0  0
 40 61  1  0  0  0  0
 40 66  1  0  0  0  0
 40 76  2  0  0  0  0
 41 62  1  0  0  0  0
 41 72  1  0  0  0  0
 41 77  2  0  0  0  0
 42 67  1  0  0  0  0
 42 70  1  0  0  0  0
 42 78  2  0  0  0  0
 43 46  1  0  0  0  0
 44 53  1  0  0  0  0
 45 66  1  0  0  0  0
 46 48  1  0  0  0  0
 47 49  1  0  0  0  0
 47 50  1  0  0  0  0
 48 52  1  0  0  0  0
 49 54  1  0  0  0  0
 50 67  1  0  0  0  0
 51 54  1  0  0  0  0
 51 67  1  0  0  0  0
 52 71  1  0  0  0  0
 53 66  1  0  0  0  0
 54 65  1  0  0  0  0
 56 62  1  0  0  0  0
 57 63  1  0  0  0  0
 58 63  1  0  0  0  0
 59 63  1  0  0  0  0
 60 73  1  0  0  0  0
 61 63  1  0  0  0  0
 61 72  1  0  0  0  0
 62 73  1  0  0  0  0
 64 65  1  0  0  0  0
M  CHG  1  73   1
M  ISO  4  37 101  42 100  70 100  80 101
M  END
> <Batch ID>
0126

> <Smiles>
CNC(C)C(=O)NC(C(=O)N1Cc2cc([101O:1][101CH:1]=CC=Cc3cc(F)cc([100NH:0][100C:0](=O)N4CCCC(n5nc(-c6ccc(Oc7ccc(F)cc7F)cc6)c(C(N)=O)c5N)C4)c3C)ccc2CC1C(=O)NC1CCCc2ccccc21)C(C)(C)C

> <Shape>
0.177

> <Color>
0.206

> <Negative vol penalty>
0.000

$$$$

  -OEChem-04052302113D

 85 93  0     1  0  0  0  0  0999 V2000
  -17.8413  -30.3139   17.1515 C   0  0  0  0  0  0  0  0  0  0  0  0
  -18.9728  -29.5054   17.1137 C   0  0  0  0  0  0  0  0  0  0  0  0
  -23.8256  -10.3536   22.2768 C   0  0  0  0  0  0  0  0  0  0  0  0
  -24.0894   -9.2167   20.1614 C   0  0  0  0  0  0  0  0  0  0  0  0
  -17.9457  -31.6375   17.5770 C   0  0  0  0  0  0  0  0  0  0  0  0
  -20.2096  -30.0204   17.5004 C   0  0  0  0  0  0  0  0  0  0  0  0
  -24.7163  -27.0180   20.3607 C   0  0  0  0  0  0  0  0  0  0  0  0
  -22.5795   -9.7502   22.4457 C   0  0  0  0  0  0  0  0  0  0  0  0
  -22.8432   -8.6132   20.3303 C   0  0  0  0  0  0  0  0  0  0  0  0
  -25.8859  -26.4179   19.8963 C   0  0  0  0  0  0  0  0  0  0  0  0
  -19.4879   -8.2289   23.6045 C   0  0  0  0  0  0  0  0  0  0  0  0
  -19.1931   -7.6891   24.8564 C   0  0  0  0  0  0  0  0  0  0  0  0
  -31.3147  -20.5382   20.0885 C   0  0  0  0  0  0  0  0  0  0  0  0
  -27.1204  -28.4182   20.4387 C   0  0  0  0  0  0  0  0  0  0  0  0
  -33.2884  -20.4362   18.1196 C   0  0  0  0  0  0  0  0  0  0  0  0
  -21.0839   -6.1982   24.6588 C   0  0  0  0  0  0  0  0  0  0  0  0
  -24.5806  -10.0869   21.1345 C   0  0  0  0  0  0  0  0  0  0  0  0
  -31.7695  -19.3056   19.6202 C   0  0  0  0  0  0  0  0  0  0  0  0
  -27.1164  -10.2155   21.3805 C   0  0  0  0  0  0  0  0  0  0  0  0
  -19.1827  -32.1662   17.9783 C   0  0  0  0  0  0  0  0  0  0  0  0
  -24.7380  -28.3288   20.8583 C   0  0  0  0  0  0  0  0  0  0  0  0
  -20.3309  -31.3527   17.9304 C   0  0  0  0  0  0  0  0  0  0  0  0
  -25.9501  -29.0317   20.9112 C   0  0  0  0  0  0  0  0  0  0  0  0
  -32.7564  -19.2545   18.6357 C   0  0  0  0  0  0  0  0  0  0  0  0
  -32.8336  -21.6688   18.5879 C   0  0  0  0  0  0  0  0  0  0  0  0
  -22.0883   -8.8800   21.4726 C   0  0  0  0  0  0  0  0  0  0  0  0
  -27.0877  -27.1190   19.9326 C   0  0  0  0  0  0  0  0  0  0  0  0
  -20.5806   -7.7533   22.8796 C   0  0  0  0  0  0  0  0  0  0  0  0
  -31.8467  -21.7199   19.5723 C   0  0  0  0  0  0  0  0  0  0  0  0
  -19.9911   -6.6738   25.3836 C   0  0  0  0  0  0  0  0  0  0  0  0
  -21.3786   -6.7380   23.4068 C   0  0  0  0  0  0  0  0  0  0  0  0
  -25.8677  -10.7103   20.9592 C   0  0  0  0  0  0  0  0  0  0  0  0
  -28.0177  -11.1708   20.9785 C   0  0  0  0  0  0  0  0  0  0  0  0
  -31.1932  -18.0891   20.1778 C   0  0  0  0  0  0  0  0  0  0  0  0
  -29.8928  -17.7384   20.1086 C   0  0  0  0  0  0  0  0  0  0  0  0
  -27.4334   -9.0009   22.0733 C   0  0  0  0  0  0  0  0  0  0  0  0
  -29.4631  -16.4630   20.7167 C   0  0  0  0  0  0  0  0  0  0  0  0
  -23.3671  -31.0705   20.0172 C   0  0  0  0  0  0  0  0  0  0  0  0
  -29.7726  -24.6914   19.7638 C   0  0  0  0  0  0  0  0  0  0  0  0
  -24.7130  -32.1376   22.7689 C   0  0  0  0  0  0  0  0  0  0  0  0
  -27.1496  -31.7793   25.1313 C   0  0  0  0  0  0  0  0  0  0  0  0
  -19.2545  -33.6166   18.3857 C   0  0  0  0  0  0  0  0  0  0  0  0
  -23.4726  -28.9523   21.3803 C   0  0  0  0  0  0  0  0  0  0  0  0
  -26.0306  -30.4340   21.4548 C   0  0  0  0  0  0  0  0  0  0  0  0
  -20.5350  -33.9761   19.1349 C   0  0  0  0  0  0  0  0  0  0  0  0
  -27.4765  -15.1514   17.9301 C   0  0  0  0  0  0  0  0  0  0  0  0
  -21.7521  -33.3988   18.4193 C   0  0  0  0  0  0  0  0  0  0  0  0
  -26.9453  -13.8538   18.5334 C   0  0  0  0  0  0  0  0  0  0  0  0
  -27.6069  -16.2571   18.9765 C   0  0  0  0  0  0  0  0  0  0  0  0
  -27.8917  -14.5653   20.7646 C   0  0  0  0  0  0  0  0  0  0  0  0
  -21.6857  -31.8678   18.3654 C   0  0  1  0  0  0  0  0  0  0  0  0
  -23.5174  -30.4772   21.3894 C   0  0  1  0  0  0  0  0  0  0  0  0
  -27.7971  -13.4252   19.7387 C   0  0  1  0  0  0  0  0  0  0  0  0
  -33.2679  -17.9516   18.1106 C   0  0  0  0  0  0  0  0  0  0  0  0
  -33.4133  -22.9236   18.0232 C   0  0  0  0  0  0  0  0  0  0  0  0
  -28.0173  -32.8257   27.2407 C   0  0  0  0  0  0  0  0  0  0  0  0
  -25.9809  -34.3792   21.1325 C   0  0  0  0  0  0  0  0  0  0  0  0
  -27.5436  -34.7960   23.0437 C   0  0  0  0  0  0  0  0  0  0  0  0
  -25.0863  -35.0894   23.3573 C   0  0  0  0  0  0  0  0  0  0  0  0
  -26.6436  -29.3195   26.6973 C   0  0  0  0  0  0  0  0  0  0  0  0
  -28.3280  -25.1174   19.5999 C   0  0  0  0  0  0  0  0  0  1  0  0
  -30.0119  -23.2004   19.8845 C   0  0  0  0  0  0  0  0  0  0  0  0
  -26.0384  -32.7573   23.1406 C   0  0  1  0  0  0  0  0  0  0  0  0
  -27.0894  -31.7766   26.6482 C   0  0  2  0  0  0  0  0  0  0  0  0
  -26.1608  -34.2297   22.6564 C   0  0  0  0  0  0  0  0  0  0  0  0
  -25.9631  -11.8885   20.3373 N   0  0  0  0  0  0  0  0  0  0  0  0
  -27.2826  -12.1421   20.3650 N   0  0  0  0  0  0  0  0  0  0  0  0
  -28.3760  -15.8042   20.1453 N   0  0  0  0  0  0  0  0  0  0  0  0
  -24.7651  -31.0026   21.9474 N   0  0  0  0  0  0  0  0  0  0  0  0
  -29.3594  -11.2664   21.0936 N   0  0  0  0  0  0  0  0  0  0  0  0
  -26.3871   -8.1317   22.4109 N   0  0  0  0  0  0  0  0  0  0  0  0
  -22.0566  -31.3004   19.6441 N   0  0  0  0  0  0  0  0  0  0  0  0
  -26.1776  -32.5891   24.5830 N   0  0  0  0  0  0  0  0  0  0  0  0
  -27.4876  -30.4427   27.1800 N   0  3  0  0  0  0  0  0  0  0  0  0
  -28.6078   -8.7033   22.3984 O   0  0  0  0  0  0  0  0  0  0  0  0
  -30.0910  -16.0608   21.6978 O   0  0  0  0  0  0  0  0  0  0  0  0
  -24.3661  -31.3038   19.3470 O   0  0  0  0  0  0  0  0  0  0  0  0
  -30.6939  -25.5058   19.7974 O   0  0  0  0  0  0  0  0  0  0  0  0
  -23.6701  -32.6379   23.1977 O   0  0  0  0  0  0  0  0  0  0  0  0
  -27.9787  -31.1311   24.4965 O   0  0  0  0  0  0  0  0  0  0  0  0
  -20.8724   -8.2908   21.6372 O   0  0  0  0  0  0  0  0  0  0  0  0
  -28.2306  -26.5359   19.4793 O   0  0  0  0  0  0  0  0  0  1  0  0
  -31.3877  -22.9264   20.0454 O   0  0  0  0  0  0  0  0  0  0  0  0
  -19.7089   -6.1566   26.5865 F   0  0  0  0  0  0  0  0  0  0  0  0
  -22.4305   -6.2778   22.7156 F   0  0  0  0  0  0  0  0  0  0  0  0
  1  2  1  0  0  0  0
  1  5  2  0  0  0  0
  2  6  2  0  0  0  0
  3  8  2  0  0  0  0
  3 17  1  0  0  0  0
  4  9  1  0  0  0  0
  4 17  2  0  0  0  0
  5 20  1  0  0  0  0
  6 22  1  0  0  0  0
  7 10  2  0  0  0  0
  7 21  1  0  0  0  0
  8 26  1  0  0  0  0
  9 26  2  0  0  0  0
 10 27  1  0  0  0  0
 11 12  2  0  0  0  0
 11 28  1  0  0  0  0
 12 30  1  0  0  0  0
 13 18  2  0  0  0  0
 13 29  1  0  0  0  0
 14 23  1  0  0  0  0
 14 27  2  0  0  0  0
 15 24  2  0  0  0  0
 15 25  1  0  0  0  0
 16 30  2  0  0  0  0
 16 31  1  0  0  0  0
 17 32  1  0  0  0  0
 18 24  1  0  0  0  0
 18 34  1  0  0  0  0
 19 32  1  0  0  0  0
 19 33  2  0  0  0  0
 19 36  1  0  0  0  0
 20 22  2  0  0  0  0
 20 42  1  0  0  0  0
 21 23  2  0  0  0  0
 21 43  1  0  0  0  0
 22 51  1  0  0  0  0
 23 44  1  0  0  0  0
 24 54  1  0  0  0  0
 25 29  2  0  0  0  0
 25 55  1  0  0  0  0
 26 81  1  0  0  0  0
 27 82  1  0  0  0  0
 28 31  2  0  0  0  0
 28 81  1  0  0  0  0
 29 83  1  0  0  0  0
 30 84  1  0  0  0  0
 31 85  1  0  0  0  0
 32 66  2  0  0  0  0
 33 67  1  0  0  0  0
 33 70  1  0  0  0  0
 34 35  2  0  0  0  0
 35 37  1  0  0  0  0
 36 71  1  0  0  0  0
 36 75  2  0  0  0  0
 37 68  1  0  0  0  0
 37 76  2  0  0  0  0
 38 52  1  0  0  0  0
 38 72  1  0  0  0  0
 38 77  2  0  0  0  0
 39 61  1  0  0  0  0
 39 62  1  0  0  0  0
 39 78  2  0  0  0  0
 40 63  1  0  0  0  0
 40 69  1  0  0  0  0
 40 79  2  0  0  0  0
 41 64  1  0  0  0  0
 41 73  1  0  0  0  0
 41 80  2  0  0  0  0
 42 45  1  0  0  0  0
 43 52  1  0  0  0  0
 44 69  1  0  0  0  0
 45 47  1  0  0  0  0
 46 48  1  0  0  0  0
 46 49  1  0  0  0  0
 47 51  1  0  0  0  0
 48 53  1  0  0  0  0
 49 68  1  0  0  0  0
 50 53  1  0  0  0  0
 50 68  1  0  0  0  0
 51 72  1  0  0  0  0
 52 69  1  0  0  0  0
 53 67  1  0  0  0  0
 56 64  1  0  0  0  0
 57 65  1  0  0  0  0
 58 65  1  0  0  0  0
 59 65  1  0  0  0  0
 60 74  1  0  0  0  0
 61 82  1  0  0  0  0
 62 83  1  0  0  0  0
 63 65  1  0  0  0  0
 63 73  1  0  0  0  0
 64 74  1  0  0  0  0
 66 67  1  0  0  0  0
M  CHG  1  74   1
M  ISO  4  35 100  37 100  61 101  82 101
M  END
> <Batch ID>
0126

> <Smiles>
CNC(C)C(=O)NC(C(=O)N1Cc2cc([101O:1][101CH2:1]C(=O)COc3cc(C=[100CH:0][100C:0](=O)N4CCCC(n5nc(-c6ccc(Oc7ccc(F)cc7F)cc6)c(C(N)=O)c5N)C4)c(C)cc3C)ccc2CC1C(=O)NC1CCCc2ccccc21)C(C)(C)C

> <Shape>
0.275

> <Color>
0.112

> <Negative vol penalty>
0.000

$$$$

  -OEChem-04052302113D

 84 92  0     1  0  0  0  0  0999 V2000
  -20.8147  -26.0895   23.9554 C   0  0  0  0  0  0  0  0  0  0  0  0
  -21.7020  -25.3469   23.1828 C   0  0  0  0  0  0  0  0  0  0  0  0
  -23.0551   -9.8795   19.9580 C   0  0  0  0  0  0  0  0  0  0  0  0
  -23.8627   -9.8784   22.2350 C   0  0  0  0  0  0  0  0  0  0  0  0
  -29.0616  -18.4618   19.4754 C   0  0  0  0  0  0  0  0  0  0  0  0
  -29.7608  -17.3480   19.9402 C   0  0  0  0  0  0  0  0  0  0  0  0
  -19.5950  -25.5349   24.3409 C   0  0  0  0  0  0  0  0  0  0  0  0
  -21.3704  -24.0489   22.7961 C   0  0  0  0  0  0  0  0  0  0  0  0
  -22.4088  -23.1484   17.9221 C   0  0  0  0  0  0  0  0  0  0  0  0
  -22.3160   -8.7258   20.2195 C   0  0  0  0  0  0  0  0  0  0  0  0
  -23.1236   -8.7247   22.4966 C   0  0  0  0  0  0  0  0  0  0  0  0
  -23.7398  -22.8996   17.5901 C   0  0  0  0  0  0  0  0  0  0  0  0
  -19.3983   -7.9256   21.7294 C   0  0  0  0  0  0  0  0  0  0  0  0
  -18.0815   -7.8816   21.2714 C   0  0  0  0  0  0  0  0  0  0  0  0
  -27.6724  -18.4143   21.4515 C   0  0  0  0  0  0  0  0  0  0  0  0
  -23.2801  -20.5319   17.5468 C   0  0  0  0  0  0  0  0  0  0  0  0
  -18.6125   -5.9428   19.9312 C   0  0  0  0  0  0  0  0  0  0  0  0
  -23.8285  -10.4557   20.9657 C   0  0  0  0  0  0  0  0  0  0  0  0
  -28.0174  -18.9950   20.2311 C   0  0  0  0  0  0  0  0  0  0  0  0
  -29.4159  -16.7673   21.1606 C   0  0  0  0  0  0  0  0  0  0  0  0
  -24.1690  -12.9811   20.8471 C   0  0  0  0  0  0  0  0  0  0  0  0
  -19.2442  -24.2329   23.9507 C   0  0  0  0  0  0  0  0  0  0  0  0
  -21.5044  -22.0884   18.0799 C   0  0  0  0  0  0  0  0  0  0  0  0
  -20.1454  -23.4759   23.1779 C   0  0  0  0  0  0  0  0  0  0  0  0
  -21.9375  -20.7701   17.8783 C   0  0  0  0  0  0  0  0  0  0  0  0
  -28.3716  -17.3005   21.9163 C   0  0  0  0  0  0  0  0  0  0  0  0
  -22.3502   -8.1485   21.4888 C   0  0  0  0  0  0  0  0  0  0  0  0
  -24.1763  -21.5910   17.4053 C   0  0  0  0  0  0  0  0  0  0  0  0
  -20.3222   -6.9783   21.2882 C   0  0  0  0  0  0  0  0  0  0  0  0
  -17.6886   -6.8902   20.3723 C   0  0  0  0  0  0  0  0  0  0  0  0
  -19.9293   -5.9868   20.3892 C   0  0  0  0  0  0  0  0  0  0  0  0
  -24.5926  -11.6471   20.6960 C   0  0  0  0  0  0  0  0  0  0  0  0
  -25.2537  -13.7313   20.4636 C   0  0  0  0  0  0  0  0  0  0  0  0
  -27.2802  -20.1708   19.7395 C   0  0  0  0  0  0  0  0  0  0  0  0
  -27.2437  -20.5822   18.4621 C   0  0  0  0  0  0  0  0  0  0  0  0
  -30.1631  -15.6051   21.6225 C   0  0  0  0  0  0  0  0  0  0  0  0
  -22.9078  -13.4961   21.2942 C   0  0  0  0  0  0  0  0  0  0  0  0
  -30.7680  -14.6497   20.6662 C   0  0  0  0  0  0  0  0  0  0  0  0
  -19.7493  -20.9765   20.4855 C   0  0  0  0  0  0  0  0  0  0  0  0
  -18.5529  -19.0171   18.1938 C   0  0  0  0  0  0  0  0  0  0  0  0
  -18.9918  -17.4781   15.1796 C   0  0  0  0  0  0  0  0  0  0  0  0
  -17.9349  -23.6589   24.4313 C   0  0  0  0  0  0  0  0  0  0  0  0
  -20.0657  -22.3752   18.4120 C   0  0  0  0  0  0  0  0  0  0  0  0
  -21.0016  -19.5981   18.0160 C   0  0  0  0  0  0  0  0  0  0  0  0
  -17.4983  -22.4127   23.6654 C   0  0  0  0  0  0  0  0  0  0  0  0
  -29.5444  -12.3980   18.1583 C   0  0  0  0  0  0  0  0  0  0  0  0
  -18.6650  -21.4413   23.5170 C   0  0  0  0  0  0  0  0  0  0  0  0
  -28.1254  -12.0817   18.6299 C   0  0  0  0  0  0  0  0  0  0  0  0
  -30.4933  -12.5944   19.3362 C   0  0  0  0  0  0  0  0  0  0  0  0
  -28.6172  -13.3225   20.7849 C   0  0  0  0  0  0  0  0  0  0  0  0
  -19.8110  -22.0735   22.7179 C   0  0  1  0  0  0  0  0  0  0  0  0
  -19.3522  -21.1883   19.0519 C   0  0  1  0  0  0  0  0  0  0  0  0
  -27.6239  -13.1448   19.6233 C   0  0  2  0  0  0  0  0  0  0  0  0
  -28.4943  -17.5115   24.4117 C   0  0  0  0  0  0  0  0  0  0  0  0
  -27.3770  -22.7972   17.3197 C   0  0  0  0  0  0  0  0  0  0  0  0
  -17.8554  -15.9083   13.5853 C   0  0  0  0  0  0  0  0  0  0  0  0
  -19.2433  -16.6697   20.0168 C   0  0  0  0  0  0  0  0  0  0  0  0
  -18.9855  -15.1512   18.0430 C   0  0  0  0  0  0  0  0  0  0  0  0
  -17.0355  -16.4764   18.8580 C   0  0  0  0  0  0  0  0  0  0  0  0
  -18.9523  -19.5084   13.0266 C   0  0  0  0  0  0  0  0  0  0  0  0
  -27.9827  -16.6978   23.2271 C   0  0  0  0  0  0  0  0  0  0  0  0
  -26.4691  -21.7853   18.0063 C   0  0  1  0  0  0  0  0  0  1  0  0
  -18.9192  -17.6561   17.6529 C   0  0  1  0  0  0  0  0  0  0  0  0
  -18.0866  -17.3623   13.9665 C   0  0  2  0  0  0  0  0  0  0  0  0
  -18.5642  -16.5101   18.6419 C   0  0  0  0  0  0  0  0  0  0  0  0
  -25.8484  -11.5522   20.2510 N   0  0  0  0  0  0  0  0  0  0  0  0
  -30.3497  -15.3312   22.8840 N   0  0  0  0  0  0  0  0  0  0  0  0
  -26.2232  -12.8360   20.1192 N   0  0  0  0  0  0  0  0  0  0  0  0
  -29.9702  -13.5827   20.2773 N   0  0  0  0  0  0  0  0  0  0  0  0
  -19.6061  -19.9296   18.3480 N   0  0  0  0  0  0  0  0  0  0  0  0
  -25.4633  -15.0630   20.3907 N   0  0  0  0  0  0  0  0  0  0  0  0
  -21.9027  -12.5862   21.6494 N   0  0  0  0  0  0  0  0  0  0  0  0
  -19.5062  -22.0636   21.3032 N   0  0  0  0  0  0  0  0  0  0  0  0
  -18.2688  -17.5454   16.3517 N   0  0  0  0  0  0  0  0  0  0  0  0
  -18.6923  -18.0635   12.7993 N   0  3  0  0  0  0  0  0  0  0  0  0
  -22.6735  -14.7266   21.3606 O   0  0  0  0  0  0  0  0  0  0  0  0
  -31.9139  -14.9048   20.3195 O   0  0  0  0  0  0  0  0  0  0  0  0
  -20.2386  -19.9055   20.8249 O   0  0  0  0  0  0  0  0  0  0  0  0
  -17.3746  -19.2639   18.4627 O   0  0  0  0  0  0  0  0  0  0  0  0
  -20.2177  -17.5024   15.0960 O   0  0  0  0  0  0  0  0  0  0  0  0
  -21.6289   -7.0229   21.7445 O   0  0  0  0  0  0  0  0  0  0  0  0
  -25.4751  -21.3453   17.0818 O   0  0  0  0  0  0  0  0  0  1  0  0
  -16.4237   -6.8471   19.9338 F   0  0  0  0  0  0  0  0  0  0  0  0
  -20.8121   -5.0733   19.9627 F   0  0  0  0  0  0  0  0  0  0  0  0
  1  2  1  0  0  0  0
  1  7  2  0  0  0  0
  2  8  2  0  0  0  0
  3 10  2  0  0  0  0
  3 18  1  0  0  0  0
  4 11  1  0  0  0  0
  4 18  2  0  0  0  0
  5  6  2  0  0  0  0
  5 19  1  0  0  0  0
  6 20  1  0  0  0  0
  7 22  1  0  0  0  0
  8 24  1  0  0  0  0
  9 12  2  0  0  0  0
  9 23  1  0  0  0  0
 10 27  1  0  0  0  0
 11 27  2  0  0  0  0
 12 28  1  0  0  0  0
 13 14  2  0  0  0  0
 13 29  1  0  0  0  0
 14 30  1  0  0  0  0
 15 19  2  0  0  0  0
 15 26  1  0  0  0  0
 16 25  1  0  0  0  0
 16 28  2  0  0  0  0
 17 30  2  0  0  0  0
 17 31  1  0  0  0  0
 18 32  1  0  0  0  0
 19 34  1  0  0  0  0
 20 26  2  0  0  0  0
 20 36  1  0  0  0  0
 21 32  1  0  0  0  0
 21 33  2  0  0  0  0
 21 37  1  0  0  0  0
 22 24  2  0  0  0  0
 22 42  1  0  0  0  0
 23 25  2  0  0  0  0
 23 43  1  0  0  0  0
 24 51  1  0  0  0  0
 25 44  1  0  0  0  0
 26 61  1  0  0  0  0
 27 81  1  0  0  0  0
 28 82  1  0  0  0  0
 29 31  2  0  0  0  0
 29 81  1  0  0  0  0
 30 83  1  0  0  0  0
 31 84  1  0  0  0  0
 32 66  2  0  0  0  0
 33 68  1  0  0  0  0
 33 71  1  0  0  0  0
 34 35  2  0  0  0  0
 35 62  1  0  0  0  0
 36 38  1  0  0  0  0
 36 67  2  0  0  0  0
 37 72  1  0  0  0  0
 37 76  2  0  0  0  0
 38 69  1  0  0  0  0
 38 77  2  0  0  0  0
 39 52  1  0  0  0  0
 39 73  1  0  0  0  0
 39 78  2  0  0  0  0
 40 63  1  0  0  0  0
 40 70  1  0  0  0  0
 40 79  2  0  0  0  0
 41 64  1  0  0  0  0
 41 74  1  0  0  0  0
 41 80  2  0  0  0  0
 42 45  1  0  0  0  0
 43 52  1  0  0  0  0
 44 70  1  0  0  0  0
 45 47  1  0  0  0  0
 46 48  1  0  0  0  0
 46 49  1  0  0  0  0
 47 51  1  0  0  0  0
 48 53  1  0  0  0  0
 49 69  1  0  0  0  0
 50 53  1  0  0  0  0
 50 69  1  0  0  0  0
 51 73  1  0  0  0  0
 52 70  1  0  0  0  0
 53 68  1  0  0  0  0
 54 61  1  0  0  0  0
 55 62  1  0  0  0  0
 56 64  1  0  0  0  0
 57 65  1  0  0  0  0
 58 65  1  0  0  0  0
 59 65  1  0  0  0  0
 60 75  1  0  0  0  0
 62 82  1  0  0  0  0
 63 65  1  0  0  0  0
 63 74  1  0  0  0  0
 64 75  1  0  0  0  0
 66 68  1  0  0  0  0
M  CHG  1  75   1
M  ISO  4  36 100  38 100  62 101  82 101
M  END
> <Batch ID>
0126

> <Smiles>
CCc1cc(C=C[101CH:1](C)[101O:1]c2ccc3c(c2)CN(C(=O)C(NC(=O)C(C)NC)C(C)(C)C)C(C(=O)NC2CCCc4ccccc42)C3)ccc1[100C:0](=N)[100C:0](=O)N1CCCC(n2nc(-c3ccc(Oc4ccc(F)cc4F)cc3)c(C(N)=O)c2N)C1

> <Shape>
0.184

> <Color>
0.189

> <Negative vol penalty>
0.000

$$$$

  -OEChem-04052302113D

 83 91  0     1  0  0  0  0  0999 V2000
  -20.6246  -21.3219   24.0600 C   0  0  0  0  0  0  0  0  0  0  0  0
  -22.0046  -21.3698   24.2299 C   0  0  0  0  0  0  0  0  0  0  0  0
  -25.1546  -14.7791   22.0135 C   0  0  0  0  0  0  0  0  0  0  0  0
  -26.8482  -14.8535   20.2921 C   0  0  0  0  0  0  0  0  0  0  0  0
  -20.0064  -22.1710   23.1431 C   0  0  0  0  0  0  0  0  0  0  0  0
  -22.7673  -22.2662   23.4821 C   0  0  0  0  0  0  0  0  0  0  0  0
  -28.6715  -26.2984   23.9272 C   0  0  0  0  0  0  0  0  0  0  0  0
  -25.0923  -13.3910   21.8924 C   0  0  0  0  0  0  0  0  0  0  0  0
  -26.7860  -13.4653   20.1710 C   0  0  0  0  0  0  0  0  0  0  0  0
  -29.8585  -26.5496   23.2404 C   0  0  0  0  0  0  0  0  0  0  0  0
  -23.6991  -11.1339   19.7974 C   0  0  0  0  0  0  0  0  0  0  0  0
  -22.4360  -10.5438   19.7543 C   0  0  0  0  0  0  0  0  0  0  0  0
  -28.6732  -28.0236   21.7432 C   0  0  0  0  0  0  0  0  0  0  0  0
  -27.4624  -25.0255   17.2767 C   0  0  0  0  0  0  0  0  0  0  0  0
  -29.6796  -25.9816   17.3603 C   0  0  0  0  0  0  0  0  0  0  0  0
  -22.9632   -9.2703   21.7386 C   0  0  0  0  0  0  0  0  0  0  0  0
  -26.0324  -15.5104   21.2134 C   0  0  0  0  0  0  0  0  0  0  0  0
  -26.9333  -17.6870   22.1924 C   0  0  0  0  0  0  0  0  0  0  0  0
  -20.7608  -23.0850   22.3907 C   0  0  0  0  0  0  0  0  0  0  0  0
  -27.4724  -26.9004   23.5197 C   0  0  0  0  0  0  0  0  0  0  0  0
  -22.1587  -23.1274   22.5533 C   0  0  0  0  0  0  0  0  0  0  0  0
  -27.4729  -27.7804   22.4281 C   0  0  0  0  0  0  0  0  0  0  0  0
  -29.0452  -24.2625   18.9349 C   0  0  0  0  0  0  0  0  0  0  0  0
  -27.7785  -24.1981   18.3542 C   0  0  0  0  0  0  0  0  0  0  0  0
  -25.9081  -12.7340   20.9712 C   0  0  0  0  0  0  0  0  0  0  0  0
  -29.8590  -27.4100   22.1464 C   0  0  0  0  0  0  0  0  0  0  0  0
  -24.5944  -10.7921   20.8110 C   0  0  0  0  0  0  0  0  0  0  0  0
  -29.9957  -25.1543   18.4379 C   0  0  0  0  0  0  0  0  0  0  0  0
  -22.0680   -9.6121   20.7249 C   0  0  0  0  0  0  0  0  0  0  0  0
  -28.4130  -25.9172   16.7797 C   0  0  0  0  0  0  0  0  0  0  0  0
  -24.2264   -9.8604   21.7816 C   0  0  0  0  0  0  0  0  0  0  0  0
  -26.0968  -16.9445   21.3376 C   0  0  0  0  0  0  0  0  0  0  0  0
  -26.6132  -18.9972   21.9330 C   0  0  0  0  0  0  0  0  0  0  0  0
  -27.9121  -17.2330   23.1366 C   0  0  0  0  0  0  0  0  0  0  0  0
  -24.6746  -25.8318   22.4548 C   0  0  0  0  0  0  0  0  0  0  0  0
  -23.8422  -28.9602   22.6614 C   0  0  0  0  0  0  0  0  0  0  0  0
  -24.8340  -32.2253   22.7046 C   0  0  0  0  0  0  0  0  0  0  0  0
  -25.4995  -23.1247   18.3655 C   0  0  0  0  0  0  0  0  0  0  0  0
  -20.0534  -23.9497   21.3775 C   0  0  0  0  0  0  0  0  0  0  0  0
  -26.2055  -26.6400   24.2876 C   0  0  0  0  0  0  0  0  0  0  0  0
  -26.2160  -28.4678   21.9630 C   0  0  0  0  0  0  0  0  0  0  0  0
  -20.8905  -25.1317   20.8952 C   0  0  0  0  0  0  0  0  0  0  0  0
  -22.7970  -20.9909   19.2714 C   0  0  0  0  0  0  0  0  0  0  0  0
  -22.3049  -24.6779   20.5482 C   0  0  0  0  0  0  0  0  0  0  0  0
  -23.4834  -19.8090   19.9600 C   0  0  0  0  0  0  0  0  0  0  0  0
  -23.6207  -21.5204   18.0988 C   0  0  0  0  0  0  0  0  0  0  0  0
  -25.7012  -20.6703   19.1077 C   0  0  0  0  0  0  0  0  0  0  0  0
  -23.0174  -24.1034   21.7786 C   0  0  1  0  0  0  0  0  0  0  0  0
  -24.9456  -26.9062   23.4696 C   0  0  1  0  0  0  0  0  0  0  0  0
  -24.9402  -20.1441   20.3356 C   0  0  2  0  0  0  0  0  0  0  0  0
  -29.3943  -23.3789   20.0907 C   0  0  0  0  0  0  0  0  0  0  0  0
  -23.9227  -34.5592   22.8461 C   0  0  0  0  0  0  0  0  0  0  0  0
  -22.9501  -28.7859   19.7487 C   0  0  0  0  0  0  0  0  0  0  0  0
  -22.9563  -31.2883   19.6698 C   0  0  0  0  0  0  0  0  0  0  0  0
  -21.4202  -30.0952   21.2317 C   0  0  0  0  0  0  0  0  0  0  0  0
  -26.3033  -32.7711   25.2150 C   0  0  0  0  0  0  0  0  0  0  0  0
  -32.7839  -26.6758   20.1568 C   0  0  0  0  0  0  0  0  0  0  0  0
  -31.9893  -26.6130   21.4518 C   0  0  0  0  0  0  0  0  0  1  0  0
  -31.8964  -26.4944   18.9354 C   0  0  0  0  0  0  0  0  0  0  0  0
  -23.8987  -30.1454   21.7281 C   0  0  1  0  0  0  0  0  0  0  0  0
  -24.4727  -33.3757   23.6268 C   0  0  2  0  0  0  0  0  0  0  0  0
  -22.8298  -30.0644   20.6019 C   0  0  0  0  0  0  0  0  0  0  0  0
  -25.3047  -17.7186   20.5911 N   0  0  0  0  0  0  0  0  0  0  0  0
  -25.6420  -18.9612   20.9760 N   0  0  0  0  0  0  0  0  0  0  0  0
  -25.0016  -28.1760   22.7425 N   0  0  0  0  0  0  0  0  0  0  0  0
  -24.9877  -21.8203   18.5304 N   0  0  0  0  0  0  0  0  0  0  0  0
  -27.0705  -20.1651   22.4323 N   0  0  0  0  0  0  0  0  0  0  0  0
  -28.1149  -15.8534   23.2775 N   0  0  0  0  0  0  0  0  0  0  0  0
  -26.7982  -23.2990   18.8425 N   0  0  0  0  0  0  0  0  0  0  0  0
  -23.4755  -25.1710   22.6417 N   0  0  0  0  0  0  0  0  0  0  0  0
  -23.7918  -31.3327   22.5691 N   0  0  0  0  0  0  0  0  0  0  0  0
  -25.6735  -33.8293   24.3840 N   0  3  0  0  0  0  0  0  0  0  0  0
  -28.5754  -18.0267   23.8463 O   0  0  0  0  0  0  0  0  0  0  0  0
  -25.4921  -25.6191   21.5671 O   0  0  0  0  0  0  0  0  0  0  0  0
  -22.8098  -28.7424   23.3005 O   0  0  0  0  0  0  0  0  0  0  0  0
  -25.9297  -32.1302   22.1560 O   0  0  0  0  0  0  0  0  0  0  0  0
  -24.8249  -24.0281   17.8647 O   0  0  0  0  0  0  0  0  0  0  0  0
  -25.8478  -11.3794   20.8529 O   0  0  0  0  0  0  0  0  0  0  0  0
  -31.0161  -27.6565   21.4739 O   0  0  0  0  0  0  0  0  0  1  0  0
  -31.2455  -25.2324   18.9952 O   0  0  0  0  0  0  0  0  0  0  0  0
  -20.8544   -9.0466   20.6843 F   0  0  0  0  0  0  0  0  0  0  0  0
  -28.1090  -26.7124   15.7454 F   0  0  0  0  0  0  0  0  0  0  0  0
  -25.0818   -9.5289   22.7585 F   0  0  0  0  0  0  0  0  0  0  0  0
  1  2  1  0  0  0  0
  1  5  2  0  0  0  0
  2  6  2  0  0  0  0
  3  8  2  0  0  0  0
  3 17  1  0  0  0  0
  4  9  1  0  0  0  0
  4 17  2  0  0  0  0
  5 19  1  0  0  0  0
  6 21  1  0  0  0  0
  7 10  2  0  0  0  0
  7 20  1  0  0  0  0
  8 25  1  0  0  0  0
  9 25  2  0  0  0  0
 10 26  1  0  0  0  0
 11 12  2  0  0  0  0
 11 27  1  0  0  0  0
 12 29  1  0  0  0  0
 13 22  1  0  0  0  0
 13 26  2  0  0  0  0
 14 24  2  0  0  0  0
 14 30  1  0  0  0  0
 15 28  1  0  0  0  0
 15 30  2  0  0  0  0
 16 29  2  0  0  0  0
 16 31  1  0  0  0  0
 17 32  1  0  0  0  0
 18 32  1  0  0  0  0
 18 33  2  0  0  0  0
 18 34  1  0  0  0  0
 19 21  2  0  0  0  0
 19 39  1  0  0  0  0
 20 22  2  0  0  0  0
 20 40  1  0  0  0  0
 21 48  1  0  0  0  0
 22 41  1  0  0  0  0
 23 24  1  0  0  0  0
 23 28  2  0  0  0  0
 23 51  1  0  0  0  0
 24 69  1  0  0  0  0
 25 78  1  0  0  0  0
 26 79  1  0  0  0  0
 27 31  2  0  0  0  0
 27 78  1  0  0  0  0
 28 80  1  0  0  0  0
 29 81  1  0  0  0  0
 30 82  1  0  0  0  0
 31 83  1  0  0  0  0
 32 63  2  0  0  0  0
 33 64  1  0  0  0  0
 33 67  1  0  0  0  0
 34 68  1  0  0  0  0
 34 73  2  0  0  0  0
 35 49  1  0  0  0  0
 35 70  1  0  0  0  0
 35 74  2  0  0  0  0
 36 60  1  0  0  0  0
 36 65  1  0  0  0  0
 36 75  2  0  0  0  0
 37 61  1  0  0  0  0
 37 71  1  0  0  0  0
 37 76  2  0  0  0  0
 38 66  1  0  0  0  0
 38 69  1  0  0  0  0
 38 77  2  0  0  0  0
 39 42  1  0  0  0  0
 40 49  1  0  0  0  0
 41 65  1  0  0  0  0
 42 44  1  0  0  0  0
 43 45  1  0  0  0  0
 43 46  1  0  0  0  0
 44 48  1  0  0  0  0
 45 50  1  0  0  0  0
 46 66  1  0  0  0  0
 47 50  1  0  0  0  0
 47 66  1  0  0  0  0
 48 70  1  0  0  0  0
 49 65  1  0  0  0  0
 50 64  1  0  0  0  0
 52 61  1  0  0  0  0
 53 62  1  0  0  0  0
 54 62  1  0  0  0  0
 55 62  1  0  0  0  0
 56 72  1  0  0  0  0
 57 58  1  0  0  0  0
 57 59  1  0  0  0  0
 58 79  1  0  0  0  0
 59 80  1  0  0  0  0
 60 62  1  0  0  0  0
 60 71  1  0  0  0  0
 61 72  1  0  0  0  0
 63 64  1  0  0  0  0
M  CHG  1  72   1
M  ISO  4  38 100  58 101  69 100  79 101
M  END
> <Batch ID>
0126

> <Smiles>
CNC(C)C(=O)NC(C(=O)N1Cc2cc([101O:1][101CH2:1]CCOc3cc(F)cc([100NH:0][100C:0](=O)N4CCCC(n5nc(-c6ccc(Oc7ccc(F)cc7F)cc6)c(C(N)=O)c5N)C4)c3C)ccc2CC1C(=O)NC1CCCc2ccccc21)C(C)(C)C

> <Shape>
0.199

> <Color>
0.068

> <Negative vol penalty>
0.000

$$$$

  -OEChem-04052302113D

 84 92  0     1  0  0  0  0  0999 V2000
  -28.3437  -36.3557   22.8231 C   0  0  0  0  0  0  0  0  0  0  0  0
  -28.6168  -34.9953   22.7229 C   0  0  0  0  0  0  0  0  0  0  0  0
  -24.0476   -9.7938   22.2611 C   0  0  0  0  0  0  0  0  0  0  0  0
  -24.6320  -11.4297   23.9403 C   0  0  0  0  0  0  0  0  0  0  0  0
  -30.7039  -20.1463   19.0051 C   0  0  0  0  0  0  0  0  0  0  0  0
  -27.0902  -36.7837   23.2582 C   0  0  0  0  0  0  0  0  0  0  0  0
  -27.6368  -34.0620   23.0589 C   0  0  0  0  0  0  0  0  0  0  0  0
  -27.2925  -30.3050   19.6808 C   0  0  0  0  0  0  0  0  0  0  0  0
  -30.4426  -18.7787   18.9216 C   0  0  0  0  0  0  0  0  0  0  0  0
  -23.6689   -8.9005   23.2632 C   0  0  0  0  0  0  0  0  0  0  0  0
  -24.2533  -10.5363   24.9424 C   0  0  0  0  0  0  0  0  0  0  0  0
  -28.2588  -29.3020   19.7433 C   0  0  0  0  0  0  0  0  0  0  0  0
  -21.0123   -8.4213   25.2993 C   0  0  0  0  0  0  0  0  0  0  0  0
  -19.8105   -7.7330   25.1338 C   0  0  0  0  0  0  0  0  0  0  0  0
  -28.3414  -20.5821   19.2613 C   0  0  0  0  0  0  0  0  0  0  0  0
  -26.7037  -27.8857   20.9246 C   0  0  0  0  0  0  0  0  0  0  0  0
  -21.0035   -5.6332   25.2034 C   0  0  0  0  0  0  0  0  0  0  0  0
  -24.5292  -11.0584   22.5997 C   0  0  0  0  0  0  0  0  0  0  0  0
  -29.6533  -21.0480   19.1750 C   0  0  0  0  0  0  0  0  0  0  0  0
  -24.1071  -12.9329   20.9217 C   0  0  0  0  0  0  0  0  0  0  0  0
  -26.0911  -35.8552   23.5904 C   0  0  0  0  0  0  0  0  0  0  0  0
  -26.0260  -30.1096   20.2502 C   0  0  0  0  0  0  0  0  0  0  0  0
  -26.3691  -34.4779   23.5001 C   0  0  0  0  0  0  0  0  0  0  0  0
  -25.7222  -28.8869   20.8657 C   0  0  0  0  0  0  0  0  0  0  0  0
  -28.0800  -19.2145   19.1777 C   0  0  0  0  0  0  0  0  0  0  0  0
  -29.1306  -18.3128   19.0079 C   0  0  0  0  0  0  0  0  0  0  0  0
  -23.7717   -9.2717   24.6038 C   0  0  0  0  0  0  0  0  0  0  0  0
  -27.9655  -28.0932   20.3678 C   0  0  0  0  0  0  0  0  0  0  0  0
  -22.2098   -7.7156   25.4168 C   0  0  0  0  0  0  0  0  0  0  0  0
  -19.8060   -6.3389   25.0859 C   0  0  0  0  0  0  0  0  0  0  0  0
  -22.2053   -6.3216   25.3689 C   0  0  0  0  0  0  0  0  0  0  0  0
  -24.9211  -11.9815   21.5650 C   0  0  0  0  0  0  0  0  0  0  0  0
  -24.9450  -13.5530   20.0272 C   0  0  0  0  0  0  0  0  0  0  0  0
  -29.9301  -22.4927   19.2632 C   0  0  0  0  0  0  0  0  0  0  0  0
  -29.0946  -23.3967   19.7933 C   0  0  0  0  0  0  0  0  0  0  0  0
  -22.7179  -13.2298   21.1153 C   0  0  0  0  0  0  0  0  0  0  0  0
  -29.4660  -24.8412   19.8258 C   0  0  0  0  0  0  0  0  0  0  0  0
  -24.3716  -31.5102   22.5752 C   0  0  0  0  0  0  0  0  0  0  0  0
  -22.0162  -29.5210   21.5666 C   0  0  0  0  0  0  0  0  0  0  0  0
  -21.1503  -26.6260   19.9804 C   0  0  0  0  0  0  0  0  0  0  0  0
  -29.8280  -15.9055   18.7525 C   0  0  0  0  0  0  0  0  0  0  0  0
  -24.7668  -36.3654   24.1011 C   0  0  0  0  0  0  0  0  0  0  0  0
  -24.9857  -31.1915   20.1509 C   0  0  0  0  0  0  0  0  0  0  0  0
  -24.3708  -28.6197   21.4746 C   0  0  0  0  0  0  0  0  0  0  0  0
  -23.6600  -35.3143   24.0798 C   0  0  0  0  0  0  0  0  0  0  0  0
  -29.6299  -12.3576   18.5289 C   0  0  0  0  0  0  0  0  0  0  0  0
  -24.1633  -33.9972   24.6617 C   0  0  0  0  0  0  0  0  0  0  0  0
  -28.3202  -12.0217   19.2460 C   0  0  0  0  0  0  0  0  0  0  0  0
  -30.3611  -13.5198   19.1985 C   0  0  0  0  0  0  0  0  0  0  0  0
  -28.2458  -14.3965   20.1072 C   0  0  0  0  0  0  0  0  0  0  0  0
  -25.3238  -33.4351   23.8317 C   0  0  1  0  0  0  0  0  0  0  0  0
  -23.8999  -31.0761   21.2163 C   0  0  1  0  0  0  0  0  0  0  0  0
  -27.4415  -13.2745   19.4306 C   0  0  2  0  0  0  0  0  0  0  0  0
  -26.0879  -18.3682   17.9121 C   0  0  0  0  0  0  0  0  0  0  0  0
  -19.1501  -25.2502   19.3451 C   0  0  0  0  0  0  0  0  0  0  0  0
  -21.7627  -28.5615   24.4519 C   0  0  0  0  0  0  0  0  0  0  0  0
  -20.4792  -26.5844   23.6083 C   0  0  0  0  0  0  0  0  0  0  0  0
  -19.5852  -28.8879   23.2660 C   0  0  0  0  0  0  0  0  0  0  0  0
  -21.7538  -26.8709   17.0934 C   0  0  0  0  0  0  0  0  0  0  0  0
  -26.6652  -18.7432   19.2733 C   0  0  0  0  0  0  0  0  0  0  0  0
  -28.4405  -25.7643   20.4493 C   0  0  0  0  0  0  0  0  0  1  0  0
  -21.5790  -28.1187   21.9150 C   0  0  1  0  0  0  0  0  0  0  0  0
  -20.1191  -26.3364   18.9047 C   0  0  2  0  0  0  0  0  0  0  0  0
  -20.8777  -28.0436   23.3006 C   0  0  0  0  0  0  0  0  0  0  0  0
  -26.1795  -11.9923   21.1172 N   0  0  0  0  0  0  0  0  0  0  0  0
  -26.1624  -12.9581   20.1829 N   0  0  0  0  0  0  0  0  0  0  0  0
  -23.3895  -29.7109   21.3574 N   0  0  0  0  0  0  0  0  0  0  0  0
  -29.4681  -14.6724   19.3361 N   0  0  0  0  0  0  0  0  0  0  0  0
  -24.7518  -14.5435   19.1306 N   0  0  0  0  0  0  0  0  0  0  0  0
  -22.0057  -12.4978   22.0752 N   0  0  0  0  0  0  0  0  0  0  0  0
  -28.8859  -16.9198   18.9209 N   0  0  0  0  0  0  0  0  0  0  0  0
  -24.8263  -32.8142   22.6228 N   0  0  0  0  0  0  0  0  0  0  0  0
  -20.7544  -27.6599   20.8023 N   0  0  0  0  0  0  0  0  0  0  0  0
  -20.7897  -25.8881   17.6516 N   0  3  0  0  0  0  0  0  0  0  0  0
  -22.1216  -14.1067   20.4452 O   0  0  0  0  0  0  0  0  0  0  0  0
  -30.5330  -25.2507   19.3764 O   0  0  0  0  0  0  0  0  0  0  0  0
  -24.3251  -30.7210   23.5115 O   0  0  0  0  0  0  0  0  0  0  0  0
  -21.1695  -30.4135   21.4762 O   0  0  0  0  0  0  0  0  0  0  0  0
  -22.2002  -25.9955   20.0837 O   0  0  0  0  0  0  0  0  0  0  0  0
  -30.8809  -16.0436   18.1245 O   0  0  0  0  0  0  0  0  0  0  0  0
  -23.4020   -8.4004   25.5818 O   0  0  0  0  0  0  0  0  0  0  0  0
  -28.9071  -27.1128   20.4308 O   0  0  0  0  0  0  0  0  0  1  0  0
  -18.6516   -5.6780   24.9285 F   0  0  0  0  0  0  0  0  0  0  0  0
  -23.3524   -5.6381   25.4824 F   0  0  0  0  0  0  0  0  0  0  0  0
  1  2  1  0  0  0  0
  1  6  2  0  0  0  0
  2  7  2  0  0  0  0
  3 10  2  0  0  0  0
  3 18  1  0  0  0  0
  4 11  1  0  0  0  0
  4 18  2  0  0  0  0
  5  9  2  0  0  0  0
  5 19  1  0  0  0  0
  6 21  1  0  0  0  0
  7 23  1  0  0  0  0
  8 12  2  0  0  0  0
  8 22  1  0  0  0  0
  9 26  1  0  0  0  0
 10 27  1  0  0  0  0
 11 27  2  0  0  0  0
 12 28  1  0  0  0  0
 13 14  2  0  0  0  0
 13 29  1  0  0  0  0
 14 30  1  0  0  0  0
 15 19  2  0  0  0  0
 15 25  1  0  0  0  0
 16 24  1  0  0  0  0
 16 28  2  0  0  0  0
 17 30  2  0  0  0  0
 17 31  1  0  0  0  0
 18 32  1  0  0  0  0
 19 34  1  0  0  0  0
 20 32  1  0  0  0  0
 20 33  2  0  0  0  0
 20 36  1  0  0  0  0
 21 23  2  0  0  0  0
 21 42  1  0  0  0  0
 22 24  2  0  0  0  0
 22 43  1  0  0  0  0
 23 51  1  0  0  0  0
 24 44  1  0  0  0  0
 25 26  2  0  0  0  0
 25 60  1  0  0  0  0
 26 71  1  0  0  0  0
 27 81  1  0  0  0  0
 28 82  1  0  0  0  0
 29 31  2  0  0  0  0
 29 81  1  0  0  0  0
 30 83  1  0  0  0  0
 31 84  1  0  0  0  0
 32 65  2  0  0  0  0
 33 66  1  0  0  0  0
 33 69  1  0  0  0  0
 34 35  2  0  0  0  0
 35 37  1  0  0  0  0
 36 70  1  0  0  0  0
 36 75  2  0  0  0  0
 37 61  1  0  0  0  0
 37 76  2  0  0  0  0
 38 52  1  0  0  0  0
 38 72  1  0  0  0  0
 38 77  2  0  0  0  0
 39 62  1  0  0  0  0
 39 67  1  0  0  0  0
 39 78  2  0  0  0  0
 40 63  1  0  0  0  0
 40 73  1  0  0  0  0
 40 79  2  0  0  0  0
 41 68  1  0  0  0  0
 41 71  1  0  0  0  0
 41 80  2  0  0  0  0
 42 45  1  0  0  0  0
 43 52  1  0  0  0  0
 44 67  1  0  0  0  0
 45 47  1  0  0  0  0
 46 48  1  0  0  0  0
 46 49  1  0  0  0  0
 47 51  1  0  0  0  0
 48 53  1  0  0  0  0
 49 68  1  0  0  0  0
 50 53  1  0  0  0  0
 50 68  1  0  0  0  0
 51 72  1  0  0  0  0
 52 67  1  0  0  0  0
 53 66  1  0  0  0  0
 54 60  1  0  0  0  0
 55 63  1  0  0  0  0
 56 64  1  0  0  0  0
 57 64  1  0  0  0  0
 58 64  1  0  0  0  0
 59 74  1  0  0  0  0
 61 82  1  0  0  0  0
 62 64  1  0  0  0  0
 62 73  1  0  0  0  0
 63 74  1  0  0  0  0
 65 66  1  0  0  0  0
M  CHG  1  74   1
M  ISO  4  41 100  61 101  71 100  82 101
M  END
> <Batch ID>
0126

> <Smiles>
CCc1cc(C=CC(=O)[101CH2:1][101O:1]c2ccc3c(c2)CN(C(=O)C(NC(=O)C(C)NC)C(C)(C)C)C(C(=O)NC2CCCc4ccccc42)C3)ccc1[100NH:0][100C:0](=O)N1CCCC(n2nc(-c3ccc(Oc4ccc(F)cc4F)cc3)c(C(N)=O)c2N)C1

> <Shape>
0.348

> <Color>
0.138

> <Negative vol penalty>
0.000

$$$$

  -OEChem-04052302113D

 83 91  0     1  0  0  0  0  0999 V2000
  -32.9769  -32.1435   25.5368 C   0  0  0  0  0  0  0  0  0  0  0  0
  -32.9447  -30.7818   25.8200 C   0  0  0  0  0  0  0  0  0  0  0  0
  -23.0027   -9.9925   19.9831 C   0  0  0  0  0  0  0  0  0  0  0  0
  -23.7775   -9.9828   22.2715 C   0  0  0  0  0  0  0  0  0  0  0  0
  -32.9490  -17.1874   23.3695 C   0  0  0  0  0  0  0  0  0  0  0  0
  -31.9041  -32.7430   24.8784 C   0  0  0  0  0  0  0  0  0  0  0  0
  -31.8390  -30.0190   25.4458 C   0  0  0  0  0  0  0  0  0  0  0  0
  -33.1480  -25.6130   23.3201 C   0  0  0  0  0  0  0  0  0  0  0  0
  -32.3142  -16.3247   22.4760 C   0  0  0  0  0  0  0  0  0  0  0  0
  -22.2071   -8.8777   20.2477 C   0  0  0  0  0  0  0  0  0  0  0  0
  -22.9819   -8.8680   22.5361 C   0  0  0  0  0  0  0  0  0  0  0  0
  -33.5556  -24.5898   24.1750 C   0  0  0  0  0  0  0  0  0  0  0  0
  -19.7240   -8.2281   23.1660 C   0  0  0  0  0  0  0  0  0  0  0  0
  -18.9739   -8.2336   24.3420 C   0  0  0  0  0  0  0  0  0  0  0  0
  -30.1767  -17.2800   23.0723 C   0  0  0  0  0  0  0  0  0  0  0  0
  -31.3649  -23.5924   24.0157 C   0  0  0  0  0  0  0  0  0  0  0  0
  -20.1278   -6.2460   25.0872 C   0  0  0  0  0  0  0  0  0  0  0  0
  -23.7879  -10.5450   20.9950 C   0  0  0  0  0  0  0  0  0  0  0  0
  -32.1977  -18.0964   24.1145 C   0  0  0  0  0  0  0  0  0  0  0  0
  -30.8115  -18.1427   23.9658 C   0  0  0  0  0  0  0  0  0  0  0  0
  -24.2473  -13.0501   20.8510 C   0  0  0  0  0  0  0  0  0  0  0  0
  -30.7889  -31.9853   24.4874 C   0  0  0  0  0  0  0  0  0  0  0  0
  -31.8403  -25.6395   22.8144 C   0  0  0  0  0  0  0  0  0  0  0  0
  -30.7497  -30.6092   24.7828 C   0  0  0  0  0  0  0  0  0  0  0  0
  -30.9440  -24.6156   23.1526 C   0  0  0  0  0  0  0  0  0  0  0  0
  -30.9281  -16.3710   22.3274 C   0  0  0  0  0  0  0  0  0  0  0  0
  -22.1967   -8.3155   21.5242 C   0  0  0  0  0  0  0  0  0  0  0  0
  -32.6631  -23.5809   24.5252 C   0  0  0  0  0  0  0  0  0  0  0  0
  -20.6759   -7.2315   22.9506 C   0  0  0  0  0  0  0  0  0  0  0  0
  -19.1758   -7.2426   25.3026 C   0  0  0  0  0  0  0  0  0  0  0  0
  -20.8779   -6.2405   23.9112 C   0  0  0  0  0  0  0  0  0  0  0  0
  -24.6104  -11.6961   20.7221 C   0  0  0  0  0  0  0  0  0  0  0  0
  -25.3710  -13.7443   20.4743 C   0  0  0  0  0  0  0  0  0  0  0  0
  -29.1913  -19.9734   24.1626 C   0  0  0  0  0  0  0  0  0  0  0  0
  -32.9110  -18.9871   25.0449 C   0  0  0  0  0  0  0  0  0  0  0  0
  -29.9861  -19.0761   24.7241 C   0  0  0  0  0  0  0  0  0  0  0  0
  -33.8719  -19.8577   24.6980 C   0  0  0  0  0  0  0  0  0  0  0  0
  -23.0053  -13.6287   21.2735 C   0  0  0  0  0  0  0  0  0  0  0  0
  -29.3869  -27.6473   23.0440 C   0  0  0  0  0  0  0  0  0  0  0  0
  -28.0442  -25.6397   20.8786 C   0  0  0  0  0  0  0  0  0  0  0  0
  -27.9341  -22.5200   19.4992 C   0  0  0  0  0  0  0  0  0  0  0  0
  -30.8813  -14.5330   20.6053 C   0  0  0  0  0  0  0  0  0  0  0  0
  -29.6325  -32.6867   23.8201 C   0  0  0  0  0  0  0  0  0  0  0  0
  -31.4244  -26.7356   21.8721 C   0  0  0  0  0  0  0  0  0  0  0  0
  -29.5353  -24.5871   22.6206 C   0  0  0  0  0  0  0  0  0  0  0  0
  -28.6625  -31.7352   23.1242 C   0  0  0  0  0  0  0  0  0  0  0  0
  -29.6387  -12.1546   18.2651 C   0  0  0  0  0  0  0  0  0  0  0  0
  -28.3243  -30.5583   24.0337 C   0  0  0  0  0  0  0  0  0  0  0  0
  -28.1899  -11.9347   18.7063 C   0  0  0  0  0  0  0  0  0  0  0  0
  -30.5717  -12.3501   19.4588 C   0  0  0  0  0  0  0  0  0  0  0  0
  -28.7102  -13.1750   20.8459 C   0  0  0  0  0  0  0  0  0  0  0  0
  -29.5788  -29.7434   24.3709 C   0  0  1  0  0  0  0  0  0  0  0  0
  -29.9136  -26.9425   21.8260 C   0  0  1  0  0  0  0  0  0  0  0  0
  -27.7224  -13.0379   19.6758 C   0  0  2  0  0  0  0  0  0  0  0  0
  -26.7071  -21.1705   17.7757 C   0  0  0  0  0  0  0  0  0  0  0  0
  -25.6626  -25.3938   22.7700 C   0  0  0  0  0  0  0  0  0  0  0  0
  -24.9451  -23.3647   21.4908 C   0  0  0  0  0  0  0  0  0  0  0  0
  -25.0583  -25.5805   20.3504 C   0  0  0  0  0  0  0  0  0  0  0  0
  -30.4054  -22.0488   17.9407 C   0  0  0  0  0  0  0  0  0  0  0  0
  -34.5848  -20.7414   25.6847 C   0  0  0  0  0  0  0  0  0  0  0  0
  -34.4373  -22.2161   25.3288 C   0  0  0  0  0  0  0  0  0  1  0  0
  -27.2034  -24.3884   20.9585 C   0  0  1  0  0  0  0  0  0  0  0  0
  -27.9103  -22.0583   18.0533 C   0  0  2  0  0  0  0  0  0  0  0  0
  -25.7432  -24.6832   21.4042 C   0  0  0  0  0  0  0  0  0  0  0  0
  -25.8665  -11.5374   20.2966 N   0  0  0  0  0  0  0  0  0  0  0  0
  -26.3024  -12.8007   20.1548 N   0  0  0  0  0  0  0  0  0  0  0  0
  -29.1741  -25.6842   21.7076 N   0  0  0  0  0  0  0  0  0  0  0  0
  -30.0677  -13.4134   20.3308 N   0  0  0  0  0  0  0  0  0  0  0  0
  -25.6432  -15.0638   20.3885 N   0  0  0  0  0  0  0  0  0  0  0  0
  -21.9541  -12.7710   21.6250 N   0  0  0  0  0  0  0  0  0  0  0  0
  -30.2837  -15.4942   21.4198 N   0  0  0  0  0  0  0  0  0  0  0  0
  -29.9439  -28.8937   23.2577 N   0  0  0  0  0  0  0  0  0  0  0  0
  -27.3113  -23.7402   19.6560 N   0  0  0  0  0  0  0  0  0  0  0  0
  -29.1459  -21.2883   17.7351 N   0  3  0  0  0  0  0  0  0  0  0  0
  -22.8275  -14.8695   21.3217 O   0  0  0  0  0  0  0  0  0  0  0  0
  -28.5369  -27.1014   23.7377 O   0  0  0  0  0  0  0  0  0  0  0  0
  -27.7148  -26.5412   20.1038 O   0  0  0  0  0  0  0  0  0  0  0  0
  -28.4500  -21.8623   20.4002 O   0  0  0  0  0  0  0  0  0  0  0  0
  -32.0139  -14.6444   20.1291 O   0  0  0  0  0  0  0  0  0  0  0  0
  -21.4204   -7.2279   21.7829 O   0  0  0  0  0  0  0  0  0  0  0  0
  -33.0581  -22.5814   25.3599 O   0  0  0  0  0  0  0  0  0  1  0  0
  -18.4566   -7.2489   26.4326 F   0  0  0  0  0  0  0  0  0  0  0  0
  -21.7918   -5.2812   23.7104 F   0  0  0  0  0  0  0  0  0  0  0  0
  1  2  1  0  0  0  0
  1  6  2  0  0  0  0
  2  7  2  0  0  0  0
  3 10  2  0  0  0  0
  3 18  1  0  0  0  0
  4 11  1  0  0  0  0
  4 18  2  0  0  0  0
  5  9  2  0  0  0  0
  5 19  1  0  0  0  0
  6 22  1  0  0  0  0
  7 24  1  0  0  0  0
  8 12  2  0  0  0  0
  8 23  1  0  0  0  0
  9 26  1  0  0  0  0
 10 27  1  0  0  0  0
 11 27  2  0  0  0  0
 12 28  1  0  0  0  0
 13 14  2  0  0  0  0
 13 29  1  0  0  0  0
 14 30  1  0  0  0  0
 15 20  1  0  0  0  0
 15 26  2  0  0  0  0
 16 25  1  0  0  0  0
 16 28  2  0  0  0  0
 17 30  2  0  0  0  0
 17 31  1  0  0  0  0
 18 32  1  0  0  0  0
 19 20  2  0  0  0  0
 19 35  1  0  0  0  0
 20 36  1  0  0  0  0
 21 32  1  0  0  0  0
 21 33  2  0  0  0  0
 21 38  1  0  0  0  0
 22 24  2  0  0  0  0
 22 43  1  0  0  0  0
 23 25  2  0  0  0  0
 23 44  1  0  0  0  0
 24 52  1  0  0  0  0
 25 45  1  0  0  0  0
 26 71  1  0  0  0  0
 27 80  1  0  0  0  0
 28 81  1  0  0  0  0
 29 31  2  0  0  0  0
 29 80  1  0  0  0  0
 30 82  1  0  0  0  0
 31 83  1  0  0  0  0
 32 65  2  0  0  0  0
 33 66  1  0  0  0  0
 33 69  1  0  0  0  0
 34 36  2  0  0  0  0
 35 37  2  0  0  0  0
 37 60  1  0  0  0  0
 38 70  1  0  0  0  0
 38 75  2  0  0  0  0
 39 53  1  0  0  0  0
 39 72  1  0  0  0  0
 39 76  2  0  0  0  0
 40 62  1  0  0  0  0
 40 67  1  0  0  0  0
 40 77  2  0  0  0  0
 41 63  1  0  0  0  0
 41 73  1  0  0  0  0
 41 78  2  0  0  0  0
 42 68  1  0  0  0  0
 42 71  1  0  0  0  0
 42 79  2  0  0  0  0
 43 46  1  0  0  0  0
 44 53  1  0  0  0  0
 45 67  1  0  0  0  0
 46 48  1  0  0  0  0
 47 49  1  0  0  0  0
 47 50  1  0  0  0  0
 48 52  1  0  0  0  0
 49 54  1  0  0  0  0
 50 68  1  0  0  0  0
 51 54  1  0  0  0  0
 51 68  1  0  0  0  0
 52 72  1  0  0  0  0
 53 67  1  0  0  0  0
 54 66  1  0  0  0  0
 55 63  1  0  0  0  0
 56 64  1  0  0  0  0
 57 64  1  0  0  0  0
 58 64  1  0  0  0  0
 59 74  1  0  0  0  0
 60 61  1  0  0  0  0
 61 81  1  0  0  0  0
 62 64  1  0  0  0  0
 62 73  1  0  0  0  0
 63 74  1  0  0  0  0
 65 66  1  0  0  0  0
M  CHG  1  74   1
M  ISO  4  42 100  61 101  71 100  81 101
M  END
> <Batch ID>
0126

> <Smiles>
C=Cc1cc([100NH:0][100C:0](=O)N2CCCC(n3nc(-c4ccc(Oc5ccc(F)cc5F)cc4)c(C(N)=O)c3N)C2)ccc1C=CC[101CH2:1][101O:1]c1ccc2c(c1)CN(C(=O)C(NC(=O)C(C)NC)C(C)(C)C)C(C(=O)NC1CCCc3ccccc31)C2

> <Shape>
0.218

> <Color>
0.205

> <Negative vol penalty>
0.000

$$$$

  -OEChem-04052302113D

 84 92  0     1  0  0  0  0  0999 V2000
  -28.6729  -35.4550   21.0933 C   0  0  0  0  0  0  0  0  0  0  0  0
  -29.3557  -34.2446   21.0299 C   0  0  0  0  0  0  0  0  0  0  0  0
  -23.1454   -9.8071   21.4998 C   0  0  0  0  0  0  0  0  0  0  0  0
  -23.7842  -10.8299   23.5933 C   0  0  0  0  0  0  0  0  0  0  0  0
  -27.6392  -35.6236   22.0137 C   0  0  0  0  0  0  0  0  0  0  0  0
  -29.0060  -33.2023   21.8877 C   0  0  0  0  0  0  0  0  0  0  0  0
  -29.1286  -27.2080   20.6389 C   0  0  0  0  0  0  0  0  0  0  0  0
  -32.2595  -18.6928   21.7151 C   0  0  0  0  0  0  0  0  0  0  0  0
  -31.7340  -17.4853   21.2554 C   0  0  0  0  0  0  0  0  0  0  0  0
  -22.4324   -8.8302   22.1946 C   0  0  0  0  0  0  0  0  0  0  0  0
  -23.0711   -9.8530   24.2881 C   0  0  0  0  0  0  0  0  0  0  0  0
  -30.0596  -26.2097   20.9223 C   0  0  0  0  0  0  0  0  0  0  0  0
  -20.7407   -5.8578   23.4300 C   0  0  0  0  0  0  0  0  0  0  0  0
  -20.8904   -4.5317   23.0242 C   0  0  0  0  0  0  0  0  0  0  0  0
  -28.7917  -25.5911   22.8791 C   0  0  0  0  0  0  0  0  0  0  0  0
  -30.0311  -19.6190   21.8303 C   0  0  0  0  0  0  0  0  0  0  0  0
  -23.2586   -4.6579   23.4860 C   0  0  0  0  0  0  0  0  0  0  0  0
  -23.8214  -10.8070   22.1991 C   0  0  0  0  0  0  0  0  0  0  0  0
  -24.0761  -13.0566   21.0234 C   0  0  0  0  0  0  0  0  0  0  0  0
  -27.2703  -34.5796   22.8766 C   0  0  0  0  0  0  0  0  0  0  0  0
  -28.0261  -27.4129   21.4809 C   0  0  0  0  0  0  0  0  0  0  0  0
  -27.9673  -33.3575   22.8214 C   0  0  0  0  0  0  0  0  0  0  0  0
  -27.8467  -26.5910   22.6027 C   0  0  0  0  0  0  0  0  0  0  0  0
  -29.5055  -18.4114   21.3706 C   0  0  0  0  0  0  0  0  0  0  0  0
  -31.4081  -19.7597   22.0025 C   0  0  0  0  0  0  0  0  0  0  0  0
  -30.3570  -17.3446   21.0831 C   0  0  0  0  0  0  0  0  0  0  0  0
  -22.3952   -8.8531   23.5887 C   0  0  0  0  0  0  0  0  0  0  0  0
  -29.8929  -25.4030   22.0441 C   0  0  0  0  0  0  0  0  0  0  0  0
  -21.8498   -6.5840   23.8637 C   0  0  0  0  0  0  0  0  0  0  0  0
  -22.1494   -3.9318   23.0522 C   0  0  0  0  0  0  0  0  0  0  0  0
  -23.1088   -5.9840   23.8918 C   0  0  0  0  0  0  0  0  0  0  0  0
  -24.5586  -11.8161   21.4820 C   0  0  0  0  0  0  0  0  0  0  0  0
  -25.1574  -13.6399   20.4095 C   0  0  0  0  0  0  0  0  0  0  0  0
  -32.2482  -21.8370   21.5516 C   0  0  0  0  0  0  0  0  0  0  0  0
  -22.7674  -13.6302   21.1419 C   0  0  0  0  0  0  0  0  0  0  0  0
  -26.9932  -29.8227   23.2781 C   0  0  0  0  0  0  0  0  0  0  0  0
  -24.4225  -27.8908   23.7044 C   0  0  0  0  0  0  0  0  0  0  0  0
  -23.1441  -24.7265   23.7014 C   0  0  0  0  0  0  0  0  0  0  0  0
  -30.5650  -14.9617   20.2927 C   0  0  0  0  0  0  0  0  0  0  0  0
  -26.1778  -34.8248   23.8871 C   0  0  0  0  0  0  0  0  0  0  0  0
  -27.0164  -28.4764   21.1466 C   0  0  0  0  0  0  0  0  0  0  0  0
  -26.6693  -26.7568   23.5272 C   0  0  0  0  0  0  0  0  0  0  0  0
  -25.6205  -33.5447   24.5043 C   0  0  0  0  0  0  0  0  0  0  0  0
  -29.6647  -11.7127   19.1478 C   0  0  0  0  0  0  0  0  0  0  0  0
  -26.7557  -32.6173   24.9261 C   0  0  0  0  0  0  0  0  0  0  0  0
  -28.2163  -11.5520   19.6153 C   0  0  0  0  0  0  0  0  0  0  0  0
  -30.5070  -12.4807   20.1649 C   0  0  0  0  0  0  0  0  0  0  0  0
  -28.5055  -13.6165   21.0440 C   0  0  0  0  0  0  0  0  0  0  0  0
  -27.6008  -32.1950   23.7182 C   0  0  1  0  0  0  0  0  0  0  0  0
  -26.2073  -28.9336   22.3564 C   0  0  1  0  0  0  0  0  0  0  0  0
  -27.6023  -12.9057   20.0230 C   0  0  2  0  0  0  0  0  0  0  0  0
  -27.6072  -18.3845   19.7328 C   0  0  0  0  0  0  0  0  0  0  0  0
  -34.2134  -23.3032   21.3155 C   0  0  0  0  0  0  0  0  0  0  0  0
  -21.0200  -23.4597   24.1263 C   0  0  0  0  0  0  0  0  0  0  0  0
  -24.8284  -28.2232   26.7101 C   0  0  0  0  0  0  0  0  0  0  0  0
  -23.3385  -26.2418   27.0600 C   0  0  0  0  0  0  0  0  0  0  0  0
  -22.4421  -28.2962   25.9653 C   0  0  0  0  0  0  0  0  0  0  0  0
  -23.0618  -23.7044   20.9252 C   0  0  0  0  0  0  0  0  0  0  0  0
  -28.0263  -18.2885   21.1963 C   0  0  0  0  0  0  0  0  0  0  0  0
  -31.8997  -24.2875   21.4244 C   0  0  0  0  0  0  0  0  0  1  0  0
  -32.8243  -23.1831   21.9300 C   0  0  1  0  0  0  0  0  0  0  0  0
  -24.0469  -26.8136   24.6931 C   0  0  1  0  0  0  0  0  0  0  0  0
  -21.8838  -24.1499   23.0822 C   0  0  2  0  0  0  0  0  0  0  0  0
  -23.6873  -27.3916   26.0910 C   0  0  0  0  0  0  0  0  0  0  0  0
  -25.8462  -11.6219   21.1846 N   0  0  0  0  0  0  0  0  0  0  0  0
  -31.9376  -20.9758   22.4652 N   0  0  0  0  0  0  0  0  0  0  0  0
  -26.1819  -12.7480   20.5325 N   0  0  0  0  0  0  0  0  0  0  0  0
  -25.7129  -27.8146   23.1613 N   0  0  0  0  0  0  0  0  0  0  0  0
  -29.8657  -13.7539   20.5002 N   0  0  0  0  0  0  0  0  0  0  0  0
  -25.3223  -14.8236   19.7817 N   0  0  0  0  0  0  0  0  0  0  0  0
  -21.7734  -12.8960   21.8031 N   0  0  0  0  0  0  0  0  0  0  0  0
  -29.8424  -16.1094   20.6171 N   0  0  0  0  0  0  0  0  0  0  0  0
  -26.9214  -31.1657   22.9610 N   0  0  0  0  0  0  0  0  0  0  0  0
  -22.9749  -26.0442   24.0709 N   0  0  0  0  0  0  0  0  0  0  0  0
  -22.2326  -23.1552   22.0287 N   0  3  0  0  0  0  0  0  0  0  0  0
  -22.4835  -14.7534   20.6610 O   0  0  0  0  0  0  0  0  0  0  0  0
  -27.6174  -29.3270   24.2089 O   0  0  0  0  0  0  0  0  0  0  0  0
  -23.5987  -28.7634   23.4188 O   0  0  0  0  0  0  0  0  0  0  0  0
  -24.1744  -24.0723   23.8466 O   0  0  0  0  0  0  0  0  0  0  0  0
  -31.7099  -14.9780   19.8336 O   0  0  0  0  0  0  0  0  0  0  0  0
  -21.6993   -7.9001   24.2671 O   0  0  0  0  0  0  0  0  0  0  0  0
  -30.8005  -24.4283   22.3234 O   0  0  0  0  0  0  0  0  0  1  0  0
  -22.2928   -2.6578   22.6639 F   0  0  0  0  0  0  0  0  0  0  0  0
  -24.1778   -6.6762   24.3086 F   0  0  0  0  0  0  0  0  0  0  0  0
  1  2  1  0  0  0  0
  1  5  2  0  0  0  0
  2  6  2  0  0  0  0
  3 10  2  0  0  0  0
  3 18  1  0  0  0  0
  4 11  1  0  0  0  0
  4 18  2  0  0  0  0
  5 20  1  0  0  0  0
  6 22  1  0  0  0  0
  7 12  2  0  0  0  0
  7 21  1  0  0  0  0
  8  9  2  0  0  0  0
  8 25  1  0  0  0  0
  9 26  1  0  0  0  0
 10 27  1  0  0  0  0
 11 27  2  0  0  0  0
 12 28  1  0  0  0  0
 13 14  2  0  0  0  0
 13 29  1  0  0  0  0
 14 30  1  0  0  0  0
 15 23  1  0  0  0  0
 15 28  2  0  0  0  0
 16 24  1  0  0  0  0
 16 25  2  0  0  0  0
 17 30  2  0  0  0  0
 17 31  1  0  0  0  0
 18 32  1  0  0  0  0
 19 32  1  0  0  0  0
 19 33  2  0  0  0  0
 19 35  1  0  0  0  0
 20 22  2  0  0  0  0
 20 40  1  0  0  0  0
 21 23  2  0  0  0  0
 21 41  1  0  0  0  0
 22 49  1  0  0  0  0
 23 42  1  0  0  0  0
 24 26  2  0  0  0  0
 24 59  1  0  0  0  0
 25 66  1  0  0  0  0
 26 72  1  0  0  0  0
 27 81  1  0  0  0  0
 28 82  1  0  0  0  0
 29 31  2  0  0  0  0
 29 81  1  0  0  0  0
 30 83  1  0  0  0  0
 31 84  1  0  0  0  0
 32 65  2  0  0  0  0
 33 67  1  0  0  0  0
 33 70  1  0  0  0  0
 34 61  1  0  0  0  0
 34 66  2  0  0  0  0
 35 71  1  0  0  0  0
 35 76  2  0  0  0  0
 36 50  1  0  0  0  0
 36 73  1  0  0  0  0
 36 77  2  0  0  0  0
 37 62  1  0  0  0  0
 37 68  1  0  0  0  0
 37 78  2  0  0  0  0
 38 63  1  0  0  0  0
 38 74  1  0  0  0  0
 38 79  2  0  0  0  0
 39 69  1  0  0  0  0
 39 72  1  0  0  0  0
 39 80  2  0  0  0  0
 40 43  1  0  0  0  0
 41 50  1  0  0  0  0
 42 68  1  0  0  0  0
 43 45  1  0  0  0  0
 44 46  1  0  0  0  0
 44 47  1  0  0  0  0
 45 49  1  0  0  0  0
 46 51  1  0  0  0  0
 47 69  1  0  0  0  0
 48 51  1  0  0  0  0
 48 69  1  0  0  0  0
 49 73  1  0  0  0  0
 50 68  1  0  0  0  0
 51 67  1  0  0  0  0
 52 59  1  0  0  0  0
 53 61  1  0  0  0  0
 54 63  1  0  0  0  0
 55 64  1  0  0  0  0
 56 64  1  0  0  0  0
 57 64  1  0  0  0  0
 58 75  1  0  0  0  0
 60 61  1  0  0  0  0
 60 82  1  0  0  0  0
 62 64  1  0  0  0  0
 62 74  1  0  0  0  0
 63 75  1  0  0  0  0
 65 67  1  0  0  0  0
M  CHG  1  75   1
M  ISO  4  39 100  60 101  72 100  82 101
M  END
> <Batch ID>
0126

> <Smiles>
CCc1cc(NC=C(C)[101CH2:1][101O:1]c2ccc3c(c2)CN(C(=O)C(NC(=O)C(C)NC)C(C)(C)C)C(C(=O)NC2CCCc4ccccc42)C3)ccc1[100NH:0][100C:0](=O)N1CCCC(n2nc(-c3ccc(Oc4ccc(F)cc4F)cc3)c(C(N)=O)c2N)C1

> <Shape>
0.258

> <Color>
0.166

> <Negative vol penalty>
0.000

$$$$

  -OEChem-04052302113D

 84 92  0     1  0  0  0  0  0999 V2000
  -20.3089  -24.4512   23.4439 C   0  0  0  0  0  0  0  0  0  0  0  0
  -21.4403  -24.9187   22.7832 C   0  0  0  0  0  0  0  0  0  0  0  0
  -24.2473  -15.0708   25.9738 C   0  0  0  0  0  0  0  0  0  0  0  0
  -22.1126  -15.5078   24.9301 C   0  0  0  0  0  0  0  0  0  0  0  0
  -19.1790  -25.2614   23.5477 C   0  0  0  0  0  0  0  0  0  0  0  0
  -21.4422  -26.1965   22.2248 C   0  0  0  0  0  0  0  0  0  0  0  0
  -25.7034  -28.7453   23.2200 C   0  0  0  0  0  0  0  0  0  0  0  0
  -23.6005  -14.7797   27.1749 C   0  0  0  0  0  0  0  0  0  0  0  0
  -21.4658  -15.2166   26.1311 C   0  0  0  0  0  0  0  0  0  0  0  0
  -26.8299  -28.4217   22.4651 C   0  0  0  0  0  0  0  0  0  0  0  0
  -20.5583  -12.4618   27.8654 C   0  0  0  0  0  0  0  0  0  0  0  0
  -19.4296  -11.6442   27.8102 C   0  0  0  0  0  0  0  0  0  0  0  0
  -30.2702  -23.0229   18.2415 C   0  0  0  0  0  0  0  0  0  0  0  0
  -31.8286  -23.9013   16.6176 C   0  0  0  0  0  0  0  0  0  0  0  0
  -31.6792  -21.5177   16.9821 C   0  0  0  0  0  0  0  0  0  0  0  0
  -26.4406  -30.3498   21.0686 C   0  0  0  0  0  0  0  0  0  0  0  0
  -18.0978  -13.4182   28.7676 C   0  0  0  0  0  0  0  0  0  0  0  0
  -23.5034  -15.4349   24.8514 C   0  0  0  0  0  0  0  0  0  0  0  0
  -30.8395  -24.1103   17.5787 C   0  0  0  0  0  0  0  0  0  0  0  0
  -30.6901  -21.7266   17.9432 C   0  0  0  0  0  0  0  0  0  0  0  0
  -24.4917  -14.8357   22.5773 C   0  0  0  0  0  0  0  0  0  0  0  0
  -19.1703  -26.5534   22.9988 C   0  0  0  0  0  0  0  0  0  0  0  0
  -24.9294  -29.8694   22.8976 C   0  0  0  0  0  0  0  0  0  0  0  0
  -20.3106  -27.0243   22.3202 C   0  0  0  0  0  0  0  0  0  0  0  0
  -25.3062  -30.6870   21.8226 C   0  0  0  0  0  0  0  0  0  0  0  0
  -32.2484  -22.6050   16.3193 C   0  0  0  0  0  0  0  0  0  0  0  0
  -22.2097  -14.8526   27.2535 C   0  0  0  0  0  0  0  0  0  0  0  0
  -27.1971  -29.2223   21.3874 C   0  0  0  0  0  0  0  0  0  0  0  0
  -20.4568  -13.7576   28.3718 C   0  0  0  0  0  0  0  0  0  0  0  0
  -18.1993  -12.1224   28.2613 C   0  0  0  0  0  0  0  0  0  0  0  0
  -19.2266  -14.2358   28.8228 C   0  0  0  0  0  0  0  0  0  0  0  0
  -24.1710  -15.7363   23.6107 C   0  0  0  0  0  0  0  0  0  0  0  0
  -25.1133  -15.6096   21.6280 C   0  0  0  0  0  0  0  0  0  0  0  0
  -30.3956  -25.4797   17.8934 C   0  0  0  0  0  0  0  0  0  0  0  0
  -30.0962  -20.5926   18.6339 C   0  0  0  0  0  0  0  0  0  0  0  0
  -29.7624  -25.8346   19.0202 C   0  0  0  0  0  0  0  0  0  0  0  0
  -29.4376  -20.6499   19.8110 C   0  0  0  0  0  0  0  0  0  0  0  0
  -24.2493  -13.4257   22.4838 C   0  0  0  0  0  0  0  0  0  0  0  0
  -29.3451  -27.2501   19.2388 C   0  0  0  0  0  0  0  0  0  0  0  0
  -28.8805  -19.4071   20.3818 C   0  0  0  0  0  0  0  0  0  0  0  0
  -21.9186  -30.3347   21.9910 C   0  0  0  0  0  0  0  0  0  0  0  0
  -22.7189  -33.4630   22.2999 C   0  0  0  0  0  0  0  0  0  0  0  0
  -25.1709  -35.8364   22.3349 C   0  0  0  0  0  0  0  0  0  0  0  0
  -17.9090  -27.3747   23.0951 C   0  0  0  0  0  0  0  0  0  0  0  0
  -23.7324  -30.2200   23.7382 C   0  0  0  0  0  0  0  0  0  0  0  0
  -24.5206  -31.9161   21.4477 C   0  0  0  0  0  0  0  0  0  0  0  0
  -18.1236  -28.8573   22.8018 C   0  0  0  0  0  0  0  0  0  0  0  0
  -25.5174  -20.6174   21.1922 C   0  0  0  0  0  0  0  0  0  0  0  0
  -18.9696  -29.0359   21.5451 C   0  0  0  0  0  0  0  0  0  0  0  0
  -24.9129  -19.3826   21.8553 C   0  0  0  0  0  0  0  0  0  0  0  0
  -27.0111  -20.7502   21.4853 C   0  0  0  0  0  0  0  0  0  0  0  0
  -27.1935  -18.2984   21.7951 C   0  0  0  0  0  0  0  0  0  0  0  0
  -20.3599  -28.4139   21.7230 C   0  0  1  0  0  0  0  0  0  0  0  0
  -22.7235  -31.0980   23.0045 C   0  0  1  0  0  0  0  0  0  0  0  0
  -25.7013  -18.1194   21.4748 C   0  0  1  0  0  0  0  0  0  0  0  0
  -33.3054  -22.3813   15.2912 C   0  0  0  0  0  0  0  0  0  0  0  0
  -25.5139  -38.3111   22.5708 C   0  0  0  0  0  0  0  0  0  0  0  0
  -21.7205  -33.8711   19.4457 C   0  0  0  0  0  0  0  0  0  0  0  0
  -22.9361  -36.0594   19.4075 C   0  0  0  0  0  0  0  0  0  0  0  0
  -21.0883  -35.6895   21.0420 C   0  0  0  0  0  0  0  0  0  0  0  0
  -26.8350  -35.4920   24.7579 C   0  0  0  0  0  0  0  0  0  0  0  0
  -28.6385  -27.5267   20.5490 C   0  0  0  0  0  0  0  0  0  1  0  0
  -23.3000  -34.5133   21.3844 C   0  0  1  0  0  0  0  0  0  0  0  0
  -25.4562  -36.9759   23.2965 C   0  0  2  0  0  0  0  0  0  0  0  0
  -22.2751  -35.0092   20.3255 C   0  0  0  0  0  0  0  0  0  0  0  0
  -24.5571  -16.9867   23.3432 N   0  0  0  0  0  0  0  0  0  0  0  0
  -25.1270  -16.8773   22.1310 N   0  0  0  0  0  0  0  0  0  0  0  0
  -27.7343  -19.5096   21.1680 N   0  0  0  0  0  0  0  0  0  0  0  0
  -23.3547  -32.2134   22.2961 N   0  0  0  0  0  0  0  0  0  0  0  0
  -25.6442  -15.3226   20.4204 N   0  0  0  0  0  0  0  0  0  0  0  0
  -23.5988  -12.7875   23.5487 N   0  0  0  0  0  0  0  0  0  0  0  0
  -21.2022  -29.2787   22.5212 N   0  0  0  0  0  0  0  0  0  0  0  0
  -23.8216  -35.5657   22.2498 N   0  0  0  0  0  0  0  0  0  0  0  0
  -26.7599  -36.7585   23.9850 N   0  3  0  0  0  0  0  0  0  0  0  0
  -24.6138  -12.7487   21.4927 O   0  0  0  0  0  0  0  0  0  0  0  0
  -29.5621  -28.1296   18.4096 O   0  0  0  0  0  0  0  0  0  0  0  0
  -29.4678  -18.3531   20.1312 O   0  0  0  0  0  0  0  0  0  0  0  0
  -21.9444  -30.6792   20.8152 O   0  0  0  0  0  0  0  0  0  0  0  0
  -21.7414  -33.7433   22.9982 O   0  0  0  0  0  0  0  0  0  0  0  0
  -26.0562  -35.2480   21.7180 O   0  0  0  0  0  0  0  0  0  0  0  0
  -21.5782  -14.5683   28.4252 O   0  0  0  0  0  0  0  0  0  0  0  0
  -28.2959  -28.9083   20.6485 O   0  0  0  0  0  0  0  0  0  1  0  0
  -17.1151  -11.3377   28.2068 F   0  0  0  0  0  0  0  0  0  0  0  0
  -19.1226  -15.4801   29.3092 F   0  0  0  0  0  0  0  0  0  0  0  0
  1  2  1  0  0  0  0
  1  5  2  0  0  0  0
  2  6  2  0  0  0  0
  3  8  2  0  0  0  0
  3 18  1  0  0  0  0
  4  9  1  0  0  0  0
  4 18  2  0  0  0  0
  5 22  1  0  0  0  0
  6 24  1  0  0  0  0
  7 10  2  0  0  0  0
  7 23  1  0  0  0  0
  8 27  1  0  0  0  0
  9 27  2  0  0  0  0
 10 28  1  0  0  0  0
 11 12  2  0  0  0  0
 11 29  1  0  0  0  0
 12 30  1  0  0  0  0
 13 19  2  0  0  0  0
 13 20  1  0  0  0  0
 14 19  1  0  0  0  0
 14 26  2  0  0  0  0
 15 20  2  0  0  0  0
 15 26  1  0  0  0  0
 16 25  1  0  0  0  0
 16 28  2  0  0  0  0
 17 30  2  0  0  0  0
 17 31  1  0  0  0  0
 18 32  1  0  0  0  0
 19 34  1  0  0  0  0
 20 35  1  0  0  0  0
 21 32  1  0  0  0  0
 21 33  2  0  0  0  0
 21 38  1  0  0  0  0
 22 24  2  0  0  0  0
 22 44  1  0  0  0  0
 23 25  2  0  0  0  0
 23 45  1  0  0  0  0
 24 53  1  0  0  0  0
 25 46  1  0  0  0  0
 26 56  1  0  0  0  0
 27 81  1  0  0  0  0
 28 82  1  0  0  0  0
 29 31  2  0  0  0  0
 29 81  1  0  0  0  0
 30 83  1  0  0  0  0
 31 84  1  0  0  0  0
 32 66  2  0  0  0  0
 33 67  1  0  0  0  0
 33 70  1  0  0  0  0
 34 36  2  0  0  0  0
 35 37  2  0  0  0  0
 36 39  1  0  0  0  0
 37 40  1  0  0  0  0
 38 71  1  0  0  0  0
 38 75  2  0  0  0  0
 39 62  1  0  0  0  0
 39 76  2  0  0  0  0
 40 68  1  0  0  0  0
 40 77  2  0  0  0  0
 41 54  1  0  0  0  0
 41 72  1  0  0  0  0
 41 78  2  0  0  0  0
 42 63  1  0  0  0  0
 42 69  1  0  0  0  0
 42 79  2  0  0  0  0
 43 64  1  0  0  0  0
 43 73  1  0  0  0  0
 43 80  2  0  0  0  0
 44 47  1  0  0  0  0
 45 54  1  0  0  0  0
 46 69  1  0  0  0  0
 47 49  1  0  0  0  0
 48 50  1  0  0  0  0
 48 51  1  0  0  0  0
 49 53  1  0  0  0  0
 50 55  1  0  0  0  0
 51 68  1  0  0  0  0
 52 55  1  0  0  0  0
 52 68  1  0  0  0  0
 53 72  1  0  0  0  0
 54 69  1  0  0  0  0
 55 67  1  0  0  0  0
 57 64  1  0  0  0  0
 58 65  1  0  0  0  0
 59 65  1  0  0  0  0
 60 65  1  0  0  0  0
 61 74  1  0  0  0  0
 62 82  1  0  0  0  0
 63 65  1  0  0  0  0
 63 73  1  0  0  0  0
 64 74  1  0  0  0  0
 66 67  1  0  0  0  0
M  CHG  1  74   1
M  ISO  4  37 100  40 100  62 101  82 101
M  END
> <Batch ID>
0126

> <Smiles>
CNC(C)C(=O)NC(C(=O)N1Cc2cc([101O:1][101CH2:1]C(=O)C=Cc3cc(C)cc(C=[100CH:0][100C:0](=O)N4CCCC(n5nc(-c6ccc(Oc7ccc(F)cc7F)cc6)c(C(N)=O)c5N)C4)c3)ccc2CC1C(=O)NC1CCCc2ccccc21)C(C)(C)C

> <Shape>
0.218

> <Color>
0.120

> <Negative vol penalty>
0.000

$$$$

  -OEChem-04052302113D

 85 93  0     1  0  0  0  0  0999 V2000
  -16.6665  -30.0867   23.2370 C   0  0  0  0  0  0  0  0  0  0  0  0
  -17.8012  -30.7781   22.8250 C   0  0  0  0  0  0  0  0  0  0  0  0
  -32.2387  -24.8735   16.7960 C   0  0  0  0  0  0  0  0  0  0  0  0
  -26.1711  -13.6156   21.6287 C   0  0  0  0  0  0  0  0  0  0  0  0
  -26.1973  -12.4949   19.4885 C   0  0  0  0  0  0  0  0  0  0  0  0
  -31.8275  -26.0944   17.3308 C   0  0  0  0  0  0  0  0  0  0  0  0
  -31.7829  -23.6789   17.3536 C   0  0  0  0  0  0  0  0  0  0  0  0
  -16.7882  -28.8035   23.7685 C   0  0  0  0  0  0  0  0  0  0  0  0
  -19.0585  -30.1871   22.9453 C   0  0  0  0  0  0  0  0  0  0  0  0
  -25.4478  -29.9491   19.7149 C   0  0  0  0  0  0  0  0  0  0  0  0
  -24.9477  -13.0160   21.9277 C   0  0  0  0  0  0  0  0  0  0  0  0
  -24.9740  -11.8951   19.7876 C   0  0  0  0  0  0  0  0  0  0  0  0
  -26.8038  -30.1093   19.9967 C   0  0  0  0  0  0  0  0  0  0  0  0
  -21.6423  -12.0604   23.1045 C   0  0  0  0  0  0  0  0  0  0  0  0
  -20.6440  -12.8614   23.6588 C   0  0  0  0  0  0  0  0  0  0  0  0
  -26.8851  -27.8568   20.8562 C   0  0  0  0  0  0  0  0  0  0  0  0
  -20.6908  -14.2751   21.7001 C   0  0  0  0  0  0  0  0  0  0  0  0
  -26.7959  -13.3552   20.4091 C   0  0  0  0  0  0  0  0  0  0  0  0
  -30.9606  -26.1207   18.4232 C   0  0  0  0  0  0  0  0  0  0  0  0
  -30.9160  -23.7052   18.4460 C   0  0  0  0  0  0  0  0  0  0  0  0
  -29.3440  -13.4715   20.3785 C   0  0  0  0  0  0  0  0  0  0  0  0
  -18.0466  -28.1927   23.8866 C   0  0  0  0  0  0  0  0  0  0  0  0
  -24.7967  -28.7432   20.0122 C   0  0  0  0  0  0  0  0  0  0  0  0
  -19.1972  -28.8951   23.4803 C   0  0  0  0  0  0  0  0  0  0  0  0
  -25.5214  -27.6829   20.5749 C   0  0  0  0  0  0  0  0  0  0  0  0
  -30.5048  -24.9261   18.9808 C   0  0  0  0  0  0  0  0  0  0  0  0
  -24.3492  -12.1557   21.0072 C   0  0  0  0  0  0  0  0  0  0  0  0
  -27.5220  -29.0640   20.5700 C   0  0  0  0  0  0  0  0  0  0  0  0
  -22.1650  -12.3668   21.8481 C   0  0  0  0  0  0  0  0  0  0  0  0
  -20.1682  -13.9688   22.9566 C   0  0  0  0  0  0  0  0  0  0  0  0
  -21.6893  -13.4741   21.1459 C   0  0  0  0  0  0  0  0  0  0  0  0
  -28.0593  -13.9748   20.0993 C   0  0  0  0  0  0  0  0  0  0  0  0
  -30.2009  -14.4264   19.8880 C   0  0  0  0  0  0  0  0  0  0  0  0
  -31.9915  -30.5048   20.3965 C   0  0  0  0  0  0  0  0  0  0  0  0
  -30.5474  -27.4287   18.9622 C   0  0  0  0  0  0  0  0  0  0  0  0
  -30.4605  -22.4375   19.0028 C   0  0  0  0  0  0  0  0  0  0  0  0
  -31.3942  -28.3616   19.4294 C   0  0  0  0  0  0  0  0  0  0  0  0
  -29.7848  -21.4864   18.3270 C   0  0  0  0  0  0  0  0  0  0  0  0
  -29.7285  -12.2500   21.0233 C   0  0  0  0  0  0  0  0  0  0  0  0
  -31.0299  -29.6713   19.9628 C   0  0  0  0  0  0  0  0  0  0  0  0
  -29.3999  -20.2468   19.0312 C   0  0  0  0  0  0  0  0  0  0  0  0
  -22.3931  -27.9016   21.9144 C   0  0  0  0  0  0  0  0  0  0  0  0
  -22.7785  -25.0192   20.4772 C   0  0  0  0  0  0  0  0  0  0  0  0
  -24.8318  -22.8682   18.8027 C   0  0  0  0  0  0  0  0  0  0  0  0
  -18.1328  -26.8226   24.5111 C   0  0  0  0  0  0  0  0  0  0  0  0
  -23.3397  -28.5771   19.6775 C   0  0  0  0  0  0  0  0  0  0  0  0
  -24.8738  -26.3612   20.8946 C   0  0  0  0  0  0  0  0  0  0  0  0
  -19.4644  -26.1204   24.2578 C   0  0  0  0  0  0  0  0  0  0  0  0
  -30.5340  -17.8088   16.5408 C   0  0  0  0  0  0  0  0  0  0  0  0
  -20.6277  -27.0722   24.5178 C   0  0  0  0  0  0  0  0  0  0  0  0
  -30.0945  -16.4993   17.1905 C   0  0  0  0  0  0  0  0  0  0  0  0
  -29.5619  -18.9493   16.8388 C   0  0  0  0  0  0  0  0  0  0  0  0
  -28.8693  -17.8418   18.9445 C   0  0  0  0  0  0  0  0  0  0  0  0
  -20.5760  -28.2780   23.5718 C   0  0  1  0  0  0  0  0  0  0  0  0
  -22.6595  -27.4839   20.4959 C   0  0  1  0  0  0  0  0  0  0  0  0
  -29.8577  -16.6916   18.6968 C   0  0  1  0  0  0  0  0  0  0  0  0
  -30.3014  -25.2714   21.4559 C   0  0  0  0  0  0  0  0  0  0  0  0
  -24.8760  -20.5715   17.7923 C   0  0  0  0  0  0  0  0  0  0  0  0
  -23.0054  -23.7998   23.2650 C   0  0  0  0  0  0  0  0  0  0  0  0
  -23.9758  -21.7462   22.2118 C   0  0  0  0  0  0  0  0  0  0  0  0
  -21.6526  -22.4570   21.6460 C   0  0  0  0  0  0  0  0  0  0  0  0
  -25.3824  -23.9414   16.1001 C   0  0  0  0  0  0  0  0  0  0  0  0
  -29.5737  -24.9547   20.1553 C   0  0  0  0  0  0  0  0  0  0  0  0
  -29.5865  -30.1010   20.0055 C   0  0  0  0  0  0  0  0  0  1  0  0
  -23.6081  -23.7887   20.7545 C   0  0  1  0  0  0  0  0  0  0  0  0
  -24.6202  -22.0496   17.5419 C   0  0  2  0  0  0  0  0  0  0  0  0
  -23.0725  -22.9734   21.9652 C   0  0  0  0  0  0  0  0  0  0  0  0
  -28.0922  -15.1576   19.4798 N   0  0  0  0  0  0  0  0  0  0  0  0
  -29.4081  -15.4056   19.3656 N   0  0  0  0  0  0  0  0  0  0  0  0
  -29.3062  -19.0756   18.2815 N   0  0  0  0  0  0  0  0  0  0  0  0
  -23.4457  -26.2499   20.5545 N   0  0  0  0  0  0  0  0  0  0  0  0
  -31.5475  -14.5156   19.8570 N   0  0  0  0  0  0  0  0  0  0  0  0
  -28.7209  -11.3824   21.4662 N   0  0  0  0  0  0  0  0  0  0  0  0
  -21.0544  -27.9095   22.2566 N   0  0  0  0  0  0  0  0  0  0  0  0
  -23.6569  -23.0391   19.5039 N   0  0  0  0  0  0  0  0  0  0  0  0
  -25.5414  -22.5100   16.4647 N   0  3  0  0  0  0  0  0  0  0  0  0
  -30.9299  -11.9450   21.2163 O   0  0  0  0  0  0  0  0  0  0  0  0
  -29.1798  -20.3251   20.2412 O   0  0  0  0  0  0  0  0  0  0  0  0
  -23.3328  -28.1936   22.6449 O   0  0  0  0  0  0  0  0  0  0  0  0
  -21.5844  -24.8925   20.1952 O   0  0  0  0  0  0  0  0  0  0  0  0
  -25.9302  -23.3086   19.1344 O   0  0  0  0  0  0  0  0  0  0  0  0
  -23.1556  -11.5701   21.2988 O   0  0  0  0  0  0  0  0  0  0  0  0
  -28.8455  -29.2180   20.8467 O   0  0  0  0  0  0  0  0  0  1  0  0
  -19.2083  -14.7370   23.4883 F   0  0  0  0  0  0  0  0  0  0  0  0
  -22.1867  -13.7728   19.9379 F   0  0  0  0  0  0  0  0  0  0  0  0
  1  2  1  0  0  0  0
  1  8  2  0  0  0  0
  2  9  2  0  0  0  0
  3  6  2  0  0  0  0
  3  7  1  0  0  0  0
  4 11  2  0  0  0  0
  4 18  1  0  0  0  0
  5 12  1  0  0  0  0
  5 18  2  0  0  0  0
  6 19  1  0  0  0  0
  7 20  2  0  0  0  0
  8 22  1  0  0  0  0
  9 24  1  0  0  0  0
 10 13  2  0  0  0  0
 10 23  1  0  0  0  0
 11 27  1  0  0  0  0
 12 27  2  0  0  0  0
 13 28  1  0  0  0  0
 14 15  2  0  0  0  0
 14 29  1  0  0  0  0
 15 30  1  0  0  0  0
 16 25  1  0  0  0  0
 16 28  2  0  0  0  0
 17 30  2  0  0  0  0
 17 31  1  0  0  0  0
 18 32  1  0  0  0  0
 19 26  2  0  0  0  0
 19 35  1  0  0  0  0
 20 26  1  0  0  0  0
 20 36  1  0  0  0  0
 21 32  1  0  0  0  0
 21 33  2  0  0  0  0
 21 39  1  0  0  0  0
 22 24  2  0  0  0  0
 22 45  1  0  0  0  0
 23 25  2  0  0  0  0
 23 46  1  0  0  0  0
 24 54  1  0  0  0  0
 25 47  1  0  0  0  0
 26 63  1  0  0  0  0
 27 82  1  0  0  0  0
 28 83  1  0  0  0  0
 29 31  2  0  0  0  0
 29 82  1  0  0  0  0
 30 84  1  0  0  0  0
 31 85  1  0  0  0  0
 32 68  2  0  0  0  0
 33 69  1  0  0  0  0
 33 72  1  0  0  0  0
 34 40  2  0  0  0  0
 35 37  2  0  0  0  0
 36 38  2  0  0  0  0
 37 40  1  0  0  0  0
 38 41  1  0  0  0  0
 39 73  1  0  0  0  0
 39 77  2  0  0  0  0
 40 64  1  0  0  0  0
 41 70  1  0  0  0  0
 41 78  2  0  0  0  0
 42 55  1  0  0  0  0
 42 74  1  0  0  0  0
 42 79  2  0  0  0  0
 43 65  1  0  0  0  0
 43 71  1  0  0  0  0
 43 80  2  0  0  0  0
 44 66  1  0  0  0  0
 44 75  1  0  0  0  0
 44 81  2  0  0  0  0
 45 48  1  0  0  0  0
 46 55  1  0  0  0  0
 47 71  1  0  0  0  0
 48 50  1  0  0  0  0
 49 51  1  0  0  0  0
 49 52  1  0  0  0  0
 50 54  1  0  0  0  0
 51 56  1  0  0  0  0
 52 70  1  0  0  0  0
 53 56  1  0  0  0  0
 53 70  1  0  0  0  0
 54 74  1  0  0  0  0
 55 71  1  0  0  0  0
 56 69  1  0  0  0  0
 57 63  1  0  0  0  0
 58 66  1  0  0  0  0
 59 67  1  0  0  0  0
 60 67  1  0  0  0  0
 61 67  1  0  0  0  0
 62 76  1  0  0  0  0
 64 83  1  0  0  0  0
 65 67  1  0  0  0  0
 65 75  1  0  0  0  0
 66 76  1  0  0  0  0
 68 69  1  0  0  0  0
M  CHG  1  76   1
M  ISO  4  38 100  41 100  64 101  83 101
M  END
> <Batch ID>
0126

> <Smiles>
C=C(C=Cc1cccc(C=[100CH:0][100C:0](=O)N2CCCC(n3nc(-c4ccc(Oc5ccc(F)cc5F)cc4)c(C(N)=O)c3N)C2)c1CC)[101CH2:1][101O:1]c1ccc2c(c1)CN(C(=O)C(NC(=O)C(C)NC)C(C)(C)C)C(C(=O)NC1CCCc3ccccc31)C2

> <Shape>
0.265

> <Color>
0.100

> <Negative vol penalty>
0.000

$$$$

  -OEChem-04052302113D

 83 91  0     1  0  0  0  0  0999 V2000
  -27.2304  -28.8108    9.3088 C   0  0  0  0  0  0  0  0  0  0  0  0
  -27.5206  -27.6038    9.9368 C   0  0  0  0  0  0  0  0  0  0  0  0
  -22.9865   -9.9056   19.9973 C   0  0  0  0  0  0  0  0  0  0  0  0
  -23.7621   -9.9460   22.2850 C   0  0  0  0  0  0  0  0  0  0  0  0
  -27.7342  -30.0034    9.8263 C   0  0  0  0  0  0  0  0  0  0  0  0
  -28.3157  -27.5887   11.0823 C   0  0  0  0  0  0  0  0  0  0  0  0
  -26.4443  -24.5874   14.7065 C   0  0  0  0  0  0  0  0  0  0  0  0
  -22.2257   -8.7701   20.2752 C   0  0  0  0  0  0  0  0  0  0  0  0
  -23.0012   -8.8105   22.5630 C   0  0  0  0  0  0  0  0  0  0  0  0
  -26.6406  -23.2148   14.5609 C   0  0  0  0  0  0  0  0  0  0  0  0
  -23.2339   -5.4737   22.0708 C   0  0  0  0  0  0  0  0  0  0  0  0
  -23.8374   -4.4529   22.8052 C   0  0  0  0  0  0  0  0  0  0  0  0
  -28.4834  -23.3196   16.1140 C   0  0  0  0  0  0  0  0  0  0  0  0
  -29.1973  -17.0949   19.8655 C   0  0  0  0  0  0  0  0  0  0  0  0
  -22.1508   -4.6887   24.5189 C   0  0  0  0  0  0  0  0  0  0  0  0
  -23.7548  -10.4935   21.0022 C   0  0  0  0  0  0  0  0  0  0  0  0
  -24.1371  -13.0098   20.8291 C   0  0  0  0  0  0  0  0  0  0  0  0
  -28.5278  -30.0038   10.9842 C   0  0  0  0  0  0  0  0  0  0  0  0
  -27.2744  -25.3396   15.5501 C   0  0  0  0  0  0  0  0  0  0  0  0
  -28.8316  -28.7823   11.6150 C   0  0  0  0  0  0  0  0  0  0  0  0
  -28.2939  -24.7012   16.2706 C   0  0  0  0  0  0  0  0  0  0  0  0
  -22.2329   -8.2226   21.5581 C   0  0  0  0  0  0  0  0  0  0  0  0
  -27.6621  -22.5812   15.2624 C   0  0  0  0  0  0  0  0  0  0  0  0
  -22.0888   -6.1020   22.5605 C   0  0  0  0  0  0  0  0  0  0  0  0
  -28.4500  -18.3067   19.8079 C   0  0  0  0  0  0  0  0  0  0  0  0
  -23.2959   -4.0604   24.0293 C   0  0  0  0  0  0  0  0  0  0  0  0
  -21.5473   -5.7095   23.7845 C   0  0  0  0  0  0  0  0  0  0  0  0
  -24.5415  -11.6662   20.7155 C   0  0  0  0  0  0  0  0  0  0  0  0
  -29.4492  -16.7034   21.1619 C   0  0  0  0  0  0  0  0  0  0  0  0
  -28.1588  -18.7950   21.0628 C   0  0  0  0  0  0  0  0  0  0  0  0
  -25.2388  -13.7338   20.4437 C   0  0  0  0  0  0  0  0  0  0  0  0
  -22.8781  -13.5548   21.2458 C   0  0  0  0  0  0  0  0  0  0  0  0
  -30.1606  -15.5580   21.6287 C   0  0  0  0  0  0  0  0  0  0  0  0
  -30.7636  -14.5708   20.7039 C   0  0  0  0  0  0  0  0  0  0  0  0
  -29.2979  -27.7553   15.1337 C   0  0  0  0  0  0  0  0  0  0  0  0
  -29.4413  -27.6827   18.3735 C   0  0  0  0  0  0  0  0  0  0  0  0
  -29.0568  -25.8888   21.2511 C   0  0  0  0  0  0  0  0  0  0  0  0
  -29.0888  -31.3133   11.4793 C   0  0  0  0  0  0  0  0  0  0  0  0
  -27.0327  -26.8147   15.7168 C   0  0  0  0  0  0  0  0  0  0  0  0
  -29.1997  -25.4600   17.2045 C   0  0  0  0  0  0  0  0  0  0  0  0
  -29.6137  -31.2486   12.9113 C   0  0  0  0  0  0  0  0  0  0  0  0
  -29.5396  -12.2795   18.2324 C   0  0  0  0  0  0  0  0  0  0  0  0
  -30.4800  -30.0084   13.1068 C   0  0  0  0  0  0  0  0  0  0  0  0
  -28.1093  -11.9966   18.6908 C   0  0  0  0  0  0  0  0  0  0  0  0
  -30.4749  -12.4891   19.4188 C   0  0  0  0  0  0  0  0  0  0  0  0
  -28.5905  -13.2804   20.8229 C   0  0  0  0  0  0  0  0  0  0  0  0
  -29.6700  -28.7273   12.8737 C   0  0  1  0  0  0  0  0  0  0  0  0
  -28.2637  -27.5702   16.2079 C   0  0  1  0  0  0  0  0  0  0  0  0
  -27.6108  -13.0907   19.6517 C   0  0  2  0  0  0  0  0  0  0  0  0
  -28.2341  -21.2932   21.2629 C   0  0  0  0  0  0  0  0  0  0  0  0
  -29.2838  -26.0886   23.7423 C   0  0  0  0  0  0  0  0  0  0  0  0
  -32.4751  -27.4904   18.1101 C   0  0  0  0  0  0  0  0  0  0  0  0
  -32.5656  -26.7471   20.4991 C   0  0  0  0  0  0  0  0  0  0  0  0
  -31.6803  -29.0090   19.9312 C   0  0  0  0  0  0  0  0  0  0  0  0
  -26.1838  -25.3185   21.6751 C   0  0  0  0  0  0  0  0  0  0  0  0
  -27.4079  -20.0157   21.4327 C   0  0  0  0  0  0  0  0  0  0  0  0
  -27.8656  -19.1152   16.2618 C   0  0  0  0  0  0  0  0  0  0  0  0
  -28.3923  -20.5416   16.2436 C   0  0  0  0  0  0  0  0  0  1  0  0
  -28.4236  -18.3175   17.4299 C   0  0  0  0  0  0  0  0  0  0  0  0
  -30.2954  -26.9642   19.3900 C   0  0  1  0  0  0  0  0  0  0  0  0
  -28.3450  -26.2123   22.5523 C   0  0  2  0  0  0  0  0  0  0  0  0
  -31.7384  -27.5384   19.4636 C   0  0  0  0  0  0  0  0  0  0  0  0
  -25.8017  -11.5411   20.2910 N   0  0  0  0  0  0  0  0  0  0  0  0
  -30.3513  -15.2689   22.9035 N   0  0  0  0  0  0  0  0  0  0  0  0
  -26.1987  -12.8155   20.1344 N   0  0  0  0  0  0  0  0  0  0  0  0
  -29.9545  -13.5074   20.3288 N   0  0  0  0  0  0  0  0  0  0  0  0
  -28.9274  -26.9015   17.3288 N   0  0  0  0  0  0  0  0  0  0  0  0
  -25.4705  -15.0598   20.3426 N   0  0  0  0  0  0  0  0  0  0  0  0
  -21.8538  -12.6693   21.6079 N   0  0  0  0  0  0  0  0  0  0  0  0
  -28.8397  -28.4382   14.0232 N   0  0  0  0  0  0  0  0  0  0  0  0
  -29.5643  -27.0218   20.6512 N   0  0  0  0  0  0  0  0  0  0  0  0
  -27.1981  -25.2836   22.7600 N   0  3  0  0  0  0  0  0  0  0  0  0
  -22.6624  -14.7900   21.2799 O   0  0  0  0  0  0  0  0  0  0  0  0
  -31.9181  -14.7998   20.3678 O   0  0  0  0  0  0  0  0  0  0  0  0
  -30.4283  -27.3127   15.3006 O   0  0  0  0  0  0  0  0  0  0  0  0
  -29.2319  -28.8912   18.5056 O   0  0  0  0  0  0  0  0  0  0  0  0
  -29.1562  -24.7449   20.8128 O   0  0  0  0  0  0  0  0  0  0  0  0
  -21.4904   -7.1147   21.8297 O   0  0  0  0  0  0  0  0  0  0  0  0
  -27.8562  -21.2417   15.1216 O   0  0  0  0  0  0  0  0  0  1  0  0
  -28.0536  -18.9343   18.6557 O   0  0  0  0  0  0  0  0  0  0  0  0
  -23.8747   -3.0791   24.7337 F   0  0  0  0  0  0  0  0  0  0  0  0
  -20.4467   -6.3086   24.2595 F   0  0  0  0  0  0  0  0  0  0  0  0
  -28.7858  -17.7944   22.3030 S   0  0  0  0  0  0  0  0  0  0  0  0
  1  2  1  0  0  0  0
  1  5  2  0  0  0  0
  2  6  2  0  0  0  0
  3  8  2  0  0  0  0
  3 16  1  0  0  0  0
  4  9  1  0  0  0  0
  4 16  2  0  0  0  0
  5 18  1  0  0  0  0
  6 20  1  0  0  0  0
  7 10  2  0  0  0  0
  7 19  1  0  0  0  0
  8 22  1  0  0  0  0
  9 22  2  0  0  0  0
 10 23  1  0  0  0  0
 11 12  2  0  0  0  0
 11 24  1  0  0  0  0
 12 26  1  0  0  0  0
 13 21  1  0  0  0  0
 13 23  2  0  0  0  0
 14 25  1  0  0  0  0
 14 29  2  0  0  0  0
 15 26  2  0  0  0  0
 15 27  1  0  0  0  0
 16 28  1  0  0  0  0
 17 28  1  0  0  0  0
 17 31  2  0  0  0  0
 17 32  1  0  0  0  0
 18 20  2  0  0  0  0
 18 38  1  0  0  0  0
 19 21  2  0  0  0  0
 19 39  1  0  0  0  0
 20 47  1  0  0  0  0
 21 40  1  0  0  0  0
 22 78  1  0  0  0  0
 23 79  1  0  0  0  0
 24 27  2  0  0  0  0
 24 78  1  0  0  0  0
 25 30  2  0  0  0  0
 25 80  1  0  0  0  0
 26 81  1  0  0  0  0
 27 82  1  0  0  0  0
 28 63  2  0  0  0  0
 29 33  1  0  0  0  0
 29 83  1  0  0  0  0
 30 56  1  0  0  0  0
 30 83  1  0  0  0  0
 31 65  1  0  0  0  0
 31 68  1  0  0  0  0
 32 69  1  0  0  0  0
 32 73  2  0  0  0  0
 33 34  1  0  0  0  0
 33 64  2  0  0  0  0
 34 66  1  0  0  0  0
 34 74  2  0  0  0  0
 35 48  1  0  0  0  0
 35 70  1  0  0  0  0
 35 75  2  0  0  0  0
 36 60  1  0  0  0  0
 36 67  1  0  0  0  0
 36 76  2  0  0  0  0
 37 61  1  0  0  0  0
 37 71  1  0  0  0  0
 37 77  2  0  0  0  0
 38 41  1  0  0  0  0
 39 48  1  0  0  0  0
 40 67  1  0  0  0  0
 41 43  1  0  0  0  0
 42 44  1  0  0  0  0
 42 45  1  0  0  0  0
 43 47  1  0  0  0  0
 44 49  1  0  0  0  0
 45 66  1  0  0  0  0
 46 49  1  0  0  0  0
 46 66  1  0  0  0  0
 47 70  1  0  0  0  0
 48 67  1  0  0  0  0
 49 65  1  0  0  0  0
 50 56  1  0  0  0  0
 51 61  1  0  0  0  0
 52 62  1  0  0  0  0
 53 62  1  0  0  0  0
 54 62  1  0  0  0  0
 55 72  1  0  0  0  0
 57 58  1  0  0  0  0
 57 59  1  0  0  0  0
 58 79  1  0  0  0  0
 59 80  1  0  0  0  0
 60 62  1  0  0  0  0
 60 71  1  0  0  0  0
 61 72  1  0  0  0  0
 63 65  1  0  0  0  0
M  CHG  1  72   1
M  ISO  4  33 100  34 100  58 101  79 101
M  END
> <Batch ID>
0126

> <Smiles>
CCc1sc([100C:0](=N)[100C:0](=O)N2CCCC(n3nc(-c4ccc(Oc5ccc(F)cc5F)cc4)c(C(N)=O)c3N)C2)cc1OCC[101CH2:1][101O:1]c1ccc2c(c1)CN(C(=O)C(NC(=O)C(C)NC)C(C)(C)C)C(C(=O)NC1CCCc3ccccc31)C2

> <Shape>
0.255

> <Color>
0.191

> <Negative vol penalty>
0.000

$$$$

  -OEChem-04052302113D

 86 94  0     1  0  0  0  0  0999 V2000
  -26.8163  -37.9655   21.5728 C   0  0  0  0  0  0  0  0  0  0  0  0
  -27.4309  -36.8987   20.9250 C   0  0  0  0  0  0  0  0  0  0  0  0
  -24.7178   -8.8164   21.3984 C   0  0  0  0  0  0  0  0  0  0  0  0
  -23.1995  -10.6894   21.2446 C   0  0  0  0  0  0  0  0  0  0  0  0
  -26.0377  -37.7361   22.7064 C   0  0  0  0  0  0  0  0  0  0  0  0
  -27.2680  -35.6019   21.4111 C   0  0  0  0  0  0  0  0  0  0  0  0
  -26.8143  -28.8143   19.1664 C   0  0  0  0  0  0  0  0  0  0  0  0
  -23.9151   -8.2469   22.3868 C   0  0  0  0  0  0  0  0  0  0  0  0
  -22.3968  -10.1199   22.2330 C   0  0  0  0  0  0  0  0  0  0  0  0
  -27.3821  -27.5625   19.3995 C   0  0  0  0  0  0  0  0  0  0  0  0
  -21.0266   -6.4966   22.5478 C   0  0  0  0  0  0  0  0  0  0  0  0
  -20.7436   -5.1345   22.4479 C   0  0  0  0  0  0  0  0  0  0  0  0
  -25.9496  -27.2769   21.3193 C   0  0  0  0  0  0  0  0  0  0  0  0
  -25.8858  -18.2623   19.9805 C   0  0  0  0  0  0  0  0  0  0  0  0
  -28.1158  -18.7754   20.7558 C   0  0  0  0  0  0  0  0  0  0  0  0
  -21.7900   -4.7596   24.5930 C   0  0  0  0  0  0  0  0  0  0  0  0
  -24.3600  -10.0377   20.8273 C   0  0  0  0  0  0  0  0  0  0  0  0
  -25.0913  -10.4336   18.4157 C   0  0  0  0  0  0  0  0  0  0  0  0
  -25.8572  -36.4348   23.2010 C   0  0  0  0  0  0  0  0  0  0  0  0
  -25.8158  -29.3123   20.0158 C   0  0  0  0  0  0  0  0  0  0  0  0
  -26.4872  -35.3551   22.5531 C   0  0  0  0  0  0  0  0  0  0  0  0
  -25.3689  -28.5342   21.0933 C   0  0  0  0  0  0  0  0  0  0  0  0
  -25.4522  -19.5220   20.3939 C   0  0  0  0  0  0  0  0  0  0  0  0
  -26.3504  -20.4084   20.9882 C   0  0  0  0  0  0  0  0  0  0  0  0
  -27.2176  -17.8890   20.1615 C   0  0  0  0  0  0  0  0  0  0  0  0
  -22.7546   -8.8986   22.8041 C   0  0  0  0  0  0  0  0  0  0  0  0
  -26.9519  -26.7949   20.4778 C   0  0  0  0  0  0  0  0  0  0  0  0
  -21.6914   -6.9903   23.6703 C   0  0  0  0  0  0  0  0  0  0  0  0
  -27.6822  -20.0351   21.1692 C   0  0  0  0  0  0  0  0  0  0  0  0
  -21.1253   -4.2660   23.4705 C   0  0  0  0  0  0  0  0  0  0  0  0
  -22.0731   -6.1218   24.6929 C   0  0  0  0  0  0  0  0  0  0  0  0
  -25.1891  -10.6269   19.8067 C   0  0  0  0  0  0  0  0  0  0  0  0
  -26.0973  -11.2071   17.8901 C   0  0  0  0  0  0  0  0  0  0  0  0
  -29.9966  -23.1877   20.6591 C   0  0  0  0  0  0  0  0  0  0  0  0
  -29.4975  -24.3306   21.1522 C   0  0  0  0  0  0  0  0  0  0  0  0
  -24.1732   -9.6272   17.6657 C   0  0  0  0  0  0  0  0  0  0  0  0
  -25.5543  -31.8340   21.9332 C   0  0  0  0  0  0  0  0  0  0  0  0
  -22.5020  -30.7840   22.2542 C   0  0  0  0  0  0  0  0  0  0  0  0
  -20.3004  -28.1818   22.0853 C   0  0  0  0  0  0  0  0  0  0  0  0
  -28.9448  -16.0824   19.8466 C   0  0  0  0  0  0  0  0  0  0  0  0
  -25.0451  -36.2417   24.4571 C   0  0  0  0  0  0  0  0  0  0  0  0
  -25.1945  -30.6530   19.7350 C   0  0  0  0  0  0  0  0  0  0  0  0
  -24.2856  -29.0146   22.0229 C   0  0  0  0  0  0  0  0  0  0  0  0
  -24.6167  -34.7950   24.6890 C   0  0  0  0  0  0  0  0  0  0  0  0
  -30.4206  -12.9644   18.9650 C   0  0  0  0  0  0  0  0  0  0  0  0
  -25.7940  -33.8489   24.4758 C   0  0  0  0  0  0  0  0  0  0  0  0
  -29.2366  -11.9948   18.9482 C   0  0  0  0  0  0  0  0  0  0  0  0
  -30.2868  -14.0037   20.0766 C   0  0  0  0  0  0  0  0  0  0  0  0
  -27.8341  -13.7732   20.0693 C   0  0  0  0  0  0  0  0  0  0  0  0
  -26.3141  -33.9312   23.0355 C   0  0  1  0  0  0  0  0  0  0  0  0
  -24.5468  -31.2809   20.9653 C   0  0  1  0  0  0  0  0  0  0  0  0
  -27.8919  -12.7476   18.9254 C   0  0  2  0  0  0  0  0  0  0  0  0
  -24.0211  -19.8979   20.1893 C   0  0  0  0  0  0  0  0  0  0  0  0
  -25.7347  -22.7281   20.2628 C   0  0  0  0  0  0  0  0  0  0  0  0
  -17.8798  -27.6232   22.4402 C   0  0  0  0  0  0  0  0  0  0  0  0
  -22.9373  -30.8267   25.2739 C   0  0  0  0  0  0  0  0  0  0  0  0
  -20.8976  -29.3955   25.5181 C   0  0  0  0  0  0  0  0  0  0  0  0
  -20.7067  -31.6778   24.5294 C   0  0  0  0  0  0  0  0  0  0  0  0
  -19.9531  -27.3725   19.2598 C   0  0  0  0  0  0  0  0  0  0  0  0
  -25.8917  -21.7609   21.4313 C   0  0  0  0  0  0  0  0  0  0  0  0
  -30.6359  -22.1209   21.5025 C   0  0  0  0  0  0  0  0  0  0  0  0
  -28.8626  -25.3889   20.3090 C   0  0  0  0  0  0  0  0  0  1  0  0
  -29.9352  -20.7773   21.3398 C   0  0  0  0  0  0  0  0  0  0  0  0
  -21.7914  -29.8315   23.1852 C   0  0  1  0  0  0  0  0  0  0  0  0
  -18.9344  -28.0586   21.4348 C   0  0  2  0  0  0  0  0  0  0  0  0
  -21.6050  -30.4244   24.6105 C   0  0  0  0  0  0  0  0  0  0  0  0
  -26.1791  -11.4577   20.1435 N   0  0  0  0  0  0  0  0  0  0  0  0
  -26.7127  -11.7934   18.9567 N   0  0  0  0  0  0  0  0  0  0  0  0
  -23.7137  -30.3348   21.7104 N   0  0  0  0  0  0  0  0  0  0  0  0
  -28.9904  -14.6794   19.9893 N   0  0  0  0  0  0  0  0  0  0  0  0
  -26.5067  -11.4359   16.6242 N   0  0  0  0  0  0  0  0  0  0  0  0
  -23.2019   -8.8963   18.3634 N   0  0  0  0  0  0  0  0  0  0  0  0
  -27.6581  -16.6096   19.7410 N   0  0  0  0  0  0  0  0  0  0  0  0
  -25.4454  -33.1957   22.1417 N   0  0  0  0  0  0  0  0  0  0  0  0
  -20.5442  -29.4667   22.5221 N   0  0  0  0  0  0  0  0  0  0  0  0
  -18.9743  -27.0571   20.3319 N   0  3  0  0  0  0  0  0  0  0  0  0
  -24.2233   -9.5441   16.4151 O   0  0  0  0  0  0  0  0  0  0  0  0
  -26.3691  -31.0809   22.4534 O   0  0  0  0  0  0  0  0  0  0  0  0
  -21.9968  -31.8831   22.0126 O   0  0  0  0  0  0  0  0  0  0  0  0
  -21.0724  -27.2321   22.1984 O   0  0  0  0  0  0  0  0  0  0  0  0
  -29.9723  -16.7630   19.7927 O   0  0  0  0  0  0  0  0  0  0  0  0
  -21.9710   -8.3430   23.7684 O   0  0  0  0  0  0  0  0  0  0  0  0
  -27.5049  -25.5730   20.7080 O   0  0  0  0  0  0  0  0  0  1  0  0
  -28.5790  -20.8925   21.7510 O   0  0  0  0  0  0  0  0  0  0  0  0
  -20.8520   -2.9581   23.3751 F   0  0  0  0  0  0  0  0  0  0  0  0
  -22.7110   -6.5904   25.7743 F   0  0  0  0  0  0  0  0  0  0  0  0
  1  2  1  0  0  0  0
  1  5  2  0  0  0  0
  2  6  2  0  0  0  0
  3  8  2  0  0  0  0
  3 17  1  0  0  0  0
  4  9  1  0  0  0  0
  4 17  2  0  0  0  0
  5 19  1  0  0  0  0
  6 21  1  0  0  0  0
  7 10  2  0  0  0  0
  7 20  1  0  0  0  0
  8 26  1  0  0  0  0
  9 26  2  0  0  0  0
 10 27  1  0  0  0  0
 11 12  2  0  0  0  0
 11 28  1  0  0  0  0
 12 30  1  0  0  0  0
 13 22  1  0  0  0  0
 13 27  2  0  0  0  0
 14 23  2  0  0  0  0
 14 25  1  0  0  0  0
 15 25  2  0  0  0  0
 15 29  1  0  0  0  0
 16 30  2  0  0  0  0
 16 31  1  0  0  0  0
 17 32  1  0  0  0  0
 18 32  1  0  0  0  0
 18 33  2  0  0  0  0
 18 36  1  0  0  0  0
 19 21  2  0  0  0  0
 19 41  1  0  0  0  0
 20 22  2  0  0  0  0
 20 42  1  0  0  0  0
 21 50  1  0  0  0  0
 22 43  1  0  0  0  0
 23 24  1  0  0  0  0
 23 53  1  0  0  0  0
 24 29  2  0  0  0  0
 24 60  1  0  0  0  0
 25 73  1  0  0  0  0
 26 82  1  0  0  0  0
 27 83  1  0  0  0  0
 28 31  2  0  0  0  0
 28 82  1  0  0  0  0
 29 84  1  0  0  0  0
 30 85  1  0  0  0  0
 31 86  1  0  0  0  0
 32 67  2  0  0  0  0
 33 68  1  0  0  0  0
 33 71  1  0  0  0  0
 34 35  2  0  0  0  0
 34 61  1  0  0  0  0
 35 62  1  0  0  0  0
 36 72  1  0  0  0  0
 36 77  2  0  0  0  0
 37 51  1  0  0  0  0
 37 74  1  0  0  0  0
 37 78  2  0  0  0  0
 38 64  1  0  0  0  0
 38 69  1  0  0  0  0
 38 79  2  0  0  0  0
 39 65  1  0  0  0  0
 39 75  1  0  0  0  0
 39 80  2  0  0  0  0
 40 70  1  0  0  0  0
 40 73  1  0  0  0  0
 40 81  2  0  0  0  0
 41 44  1  0  0  0  0
 42 51  1  0  0  0  0
 43 69  1  0  0  0  0
 44 46  1  0  0  0  0
 45 47  1  0  0  0  0
 45 48  1  0  0  0  0
 46 50  1  0  0  0  0
 47 52  1  0  0  0  0
 48 70  1  0  0  0  0
 49 52  1  0  0  0  0
 49 70  1  0  0  0  0
 50 74  1  0  0  0  0
 51 69  1  0  0  0  0
 52 68  1  0  0  0  0
 54 60  1  0  0  0  0
 55 65  1  0  0  0  0
 56 66  1  0  0  0  0
 57 66  1  0  0  0  0
 58 66  1  0  0  0  0
 59 76  1  0  0  0  0
 61 63  1  0  0  0  0
 62 83  1  0  0  0  0
 63 84  1  0  0  0  0
 64 66  1  0  0  0  0
 64 75  1  0  0  0  0
 65 76  1  0  0  0  0
 67 68  1  0  0  0  0
M  CHG  1  76   1
M  ISO  4  40 100  62 101  73 100  83 101
M  END
> <Batch ID>
0126

> <Smiles>
CCc1c(C)cc([100NH:0][100C:0](=O)N2CCCC(n3nc(-c4ccc(Oc5ccc(F)cc5F)cc4)c(C(N)=O)c3N)C2)cc1OCCC=C[101CH2:1][101O:1]c1ccc2c(c1)CN(C(=O)C(NC(=O)C(C)NC)C(C)(C)C)C(C(=O)NC1CCCc3ccccc31)C2

> <Shape>
0.331

> <Color>
0.108

> <Negative vol penalty>
0.000

$$$$

  -OEChem-04052302113D

 84 92  0     1  0  0  0  0  0999 V2000
  -20.3089  -24.4512   23.4439 C   0  0  0  0  0  0  0  0  0  0  0  0
  -21.4403  -24.9187   22.7832 C   0  0  0  0  0  0  0  0  0  0  0  0
  -24.2473  -15.0708   25.9738 C   0  0  0  0  0  0  0  0  0  0  0  0
  -22.1126  -15.5078   24.9301 C   0  0  0  0  0  0  0  0  0  0  0  0
  -19.1790  -25.2614   23.5477 C   0  0  0  0  0  0  0  0  0  0  0  0
  -21.4422  -26.1965   22.2248 C   0  0  0  0  0  0  0  0  0  0  0  0
  -25.7034  -28.7453   23.2200 C   0  0  0  0  0  0  0  0  0  0  0  0
  -23.6005  -14.7797   27.1749 C   0  0  0  0  0  0  0  0  0  0  0  0
  -21.4658  -15.2166   26.1311 C   0  0  0  0  0  0  0  0  0  0  0  0
  -26.8299  -28.4217   22.4651 C   0  0  0  0  0  0  0  0  0  0  0  0
  -20.5583  -12.4618   27.8654 C   0  0  0  0  0  0  0  0  0  0  0  0
  -19.4296  -11.6442   27.8102 C   0  0  0  0  0  0  0  0  0  0  0  0
  -30.2702  -23.0229   18.2415 C   0  0  0  0  0  0  0  0  0  0  0  0
  -31.8286  -23.9013   16.6176 C   0  0  0  0  0  0  0  0  0  0  0  0
  -31.6792  -21.5177   16.9821 C   0  0  0  0  0  0  0  0  0  0  0  0
  -26.4406  -30.3498   21.0686 C   0  0  0  0  0  0  0  0  0  0  0  0
  -18.0978  -13.4182   28.7676 C   0  0  0  0  0  0  0  0  0  0  0  0
  -23.5034  -15.4349   24.8514 C   0  0  0  0  0  0  0  0  0  0  0  0
  -30.8395  -24.1103   17.5787 C   0  0  0  0  0  0  0  0  0  0  0  0
  -30.6901  -21.7266   17.9432 C   0  0  0  0  0  0  0  0  0  0  0  0
  -24.4917  -14.8357   22.5773 C   0  0  0  0  0  0  0  0  0  0  0  0
  -19.1703  -26.5534   22.9988 C   0  0  0  0  0  0  0  0  0  0  0  0
  -24.9294  -29.8694   22.8976 C   0  0  0  0  0  0  0  0  0  0  0  0
  -20.3106  -27.0243   22.3202 C   0  0  0  0  0  0  0  0  0  0  0  0
  -25.3062  -30.6870   21.8226 C   0  0  0  0  0  0  0  0  0  0  0  0
  -32.2484  -22.6050   16.3193 C   0  0  0  0  0  0  0  0  0  0  0  0
  -22.2097  -14.8526   27.2535 C   0  0  0  0  0  0  0  0  0  0  0  0
  -27.1971  -29.2223   21.3874 C   0  0  0  0  0  0  0  0  0  0  0  0
  -20.4568  -13.7576   28.3718 C   0  0  0  0  0  0  0  0  0  0  0  0
  -18.1993  -12.1224   28.2613 C   0  0  0  0  0  0  0  0  0  0  0  0
  -19.2266  -14.2358   28.8228 C   0  0  0  0  0  0  0  0  0  0  0  0
  -24.1710  -15.7363   23.6107 C   0  0  0  0  0  0  0  0  0  0  0  0
  -25.1133  -15.6096   21.6280 C   0  0  0  0  0  0  0  0  0  0  0  0
  -30.3956  -25.4797   17.8934 C   0  0  0  0  0  0  0  0  0  0  0  0
  -30.0962  -20.5926   18.6339 C   0  0  0  0  0  0  0  0  0  0  0  0
  -29.7624  -25.8346   19.0202 C   0  0  0  0  0  0  0  0  0  0  0  0
  -29.4376  -20.6499   19.8110 C   0  0  0  0  0  0  0  0  0  0  0  0
  -24.2493  -13.4257   22.4838 C   0  0  0  0  0  0  0  0  0  0  0  0
  -29.3451  -27.2501   19.2388 C   0  0  0  0  0  0  0  0  0  0  0  0
  -28.8805  -19.4071   20.3818 C   0  0  0  0  0  0  0  0  0  0  0  0
  -21.9186  -30.3347   21.9910 C   0  0  0  0  0  0  0  0  0  0  0  0
  -22.7189  -33.4630   22.2999 C   0  0  0  0  0  0  0  0  0  0  0  0
  -25.1709  -35.8364   22.3349 C   0  0  0  0  0  0  0  0  0  0  0  0
  -17.9090  -27.3747   23.0951 C   0  0  0  0  0  0  0  0  0  0  0  0
  -23.7324  -30.2200   23.7382 C   0  0  0  0  0  0  0  0  0  0  0  0
  -24.5206  -31.9161   21.4477 C   0  0  0  0  0  0  0  0  0  0  0  0
  -18.1236  -28.8573   22.8018 C   0  0  0  0  0  0  0  0  0  0  0  0
  -25.5174  -20.6174   21.1922 C   0  0  0  0  0  0  0  0  0  0  0  0
  -18.9696  -29.0359   21.5451 C   0  0  0  0  0  0  0  0  0  0  0  0
  -24.9129  -19.3826   21.8553 C   0  0  0  0  0  0  0  0  0  0  0  0
  -27.0111  -20.7502   21.4853 C   0  0  0  0  0  0  0  0  0  0  0  0
  -27.1935  -18.2984   21.7951 C   0  0  0  0  0  0  0  0  0  0  0  0
  -20.3599  -28.4139   21.7230 C   0  0  1  0  0  0  0  0  0  0  0  0
  -22.7235  -31.0980   23.0045 C   0  0  1  0  0  0  0  0  0  0  0  0
  -25.7013  -18.1194   21.4748 C   0  0  1  0  0  0  0  0  0  0  0  0
  -33.3054  -22.3813   15.2912 C   0  0  0  0  0  0  0  0  0  0  0  0
  -25.5139  -38.3111   22.5708 C   0  0  0  0  0  0  0  0  0  0  0  0
  -21.7205  -33.8711   19.4457 C   0  0  0  0  0  0  0  0  0  0  0  0
  -22.9361  -36.0594   19.4075 C   0  0  0  0  0  0  0  0  0  0  0  0
  -21.0883  -35.6895   21.0420 C   0  0  0  0  0  0  0  0  0  0  0  0
  -26.8350  -35.4920   24.7579 C   0  0  0  0  0  0  0  0  0  0  0  0
  -28.6385  -27.5267   20.5490 C   0  0  0  0  0  0  0  0  0  1  0  0
  -23.3000  -34.5133   21.3844 C   0  0  1  0  0  0  0  0  0  0  0  0
  -25.4562  -36.9759   23.2965 C   0  0  2  0  0  0  0  0  0  0  0  0
  -22.2751  -35.0092   20.3255 C   0  0  0  0  0  0  0  0  0  0  0  0
  -24.5571  -16.9867   23.3432 N   0  0  0  0  0  0  0  0  0  0  0  0
  -25.1270  -16.8773   22.1310 N   0  0  0  0  0  0  0  0  0  0  0  0
  -27.7343  -19.5096   21.1680 N   0  0  0  0  0  0  0  0  0  0  0  0
  -23.3547  -32.2134   22.2961 N   0  0  0  0  0  0  0  0  0  0  0  0
  -25.6442  -15.3226   20.4204 N   0  0  0  0  0  0  0  0  0  0  0  0
  -23.5988  -12.7875   23.5487 N   0  0  0  0  0  0  0  0  0  0  0  0
  -21.2022  -29.2787   22.5212 N   0  0  0  0  0  0  0  0  0  0  0  0
  -23.8216  -35.5657   22.2498 N   0  0  0  0  0  0  0  0  0  0  0  0
  -26.7599  -36.7585   23.9850 N   0  3  0  0  0  0  0  0  0  0  0  0
  -24.6138  -12.7487   21.4927 O   0  0  0  0  0  0  0  0  0  0  0  0
  -29.5621  -28.1296   18.4096 O   0  0  0  0  0  0  0  0  0  0  0  0
  -29.4678  -18.3531   20.1312 O   0  0  0  0  0  0  0  0  0  0  0  0
  -21.9444  -30.6792   20.8152 O   0  0  0  0  0  0  0  0  0  0  0  0
  -21.7414  -33.7433   22.9982 O   0  0  0  0  0  0  0  0  0  0  0  0
  -26.0562  -35.2480   21.7180 O   0  0  0  0  0  0  0  0  0  0  0  0
  -21.5782  -14.5683   28.4252 O   0  0  0  0  0  0  0  0  0  0  0  0
  -28.2959  -28.9083   20.6485 O   0  0  0  0  0  0  0  0  0  1  0  0
  -17.1151  -11.3377   28.2068 F   0  0  0  0  0  0  0  0  0  0  0  0
  -19.1226  -15.4801   29.3092 F   0  0  0  0  0  0  0  0  0  0  0  0
  1  2  1  0  0  0  0
  1  5  2  0  0  0  0
  2  6  2  0  0  0  0
  3  8  2  0  0  0  0
  3 18  1  0  0  0  0
  4  9  1  0  0  0  0
  4 18  2  0  0  0  0
  5 22  1  0  0  0  0
  6 24  1  0  0  0  0
  7 10  2  0  0  0  0
  7 23  1  0  0  0  0
  8 27  1  0  0  0  0
  9 27  2  0  0  0  0
 10 28  1  0  0  0  0
 11 12  2  0  0  0  0
 11 29  1  0  0  0  0
 12 30  1  0  0  0  0
 13 19  2  0  0  0  0
 13 20  1  0  0  0  0
 14 19  1  0  0  0  0
 14 26  2  0  0  0  0
 15 20  2  0  0  0  0
 15 26  1  0  0  0  0
 16 25  1  0  0  0  0
 16 28  2  0  0  0  0
 17 30  2  0  0  0  0
 17 31  1  0  0  0  0
 18 32  1  0  0  0  0
 19 34  1  0  0  0  0
 20 35  1  0  0  0  0
 21 32  1  0  0  0  0
 21 33  2  0  0  0  0
 21 38  1  0  0  0  0
 22 24  2  0  0  0  0
 22 44  1  0  0  0  0
 23 25  2  0  0  0  0
 23 45  1  0  0  0  0
 24 53  1  0  0  0  0
 25 46  1  0  0  0  0
 26 56  1  0  0  0  0
 27 81  1  0  0  0  0
 28 82  1  0  0  0  0
 29 31  2  0  0  0  0
 29 81  1  0  0  0  0
 30 83  1  0  0  0  0
 31 84  1  0  0  0  0
 32 66  2  0  0  0  0
 33 67  1  0  0  0  0
 33 70  1  0  0  0  0
 34 36  2  0  0  0  0
 35 37  2  0  0  0  0
 36 39  1  0  0  0  0
 37 40  1  0  0  0  0
 38 71  1  0  0  0  0
 38 75  2  0  0  0  0
 39 62  1  0  0  0  0
 39 76  2  0  0  0  0
 40 68  1  0  0  0  0
 40 77  2  0  0  0  0
 41 54  1  0  0  0  0
 41 72  1  0  0  0  0
 41 78  2  0  0  0  0
 42 63  1  0  0  0  0
 42 69  1  0  0  0  0
 42 79  2  0  0  0  0
 43 64  1  0  0  0  0
 43 73  1  0  0  0  0
 43 80  2  0  0  0  0
 44 47  1  0  0  0  0
 45 54  1  0  0  0  0
 46 69  1  0  0  0  0
 47 49  1  0  0  0  0
 48 50  1  0  0  0  0
 48 51  1  0  0  0  0
 49 53  1  0  0  0  0
 50 55  1  0  0  0  0
 51 68  1  0  0  0  0
 52 55  1  0  0  0  0
 52 68  1  0  0  0  0
 53 72  1  0  0  0  0
 54 69  1  0  0  0  0
 55 67  1  0  0  0  0
 57 64  1  0  0  0  0
 58 65  1  0  0  0  0
 59 65  1  0  0  0  0
 60 65  1  0  0  0  0
 61 74  1  0  0  0  0
 62 82  1  0  0  0  0
 63 65  1  0  0  0  0
 63 73  1  0  0  0  0
 64 74  1  0  0  0  0
 66 67  1  0  0  0  0
M  CHG  1  74   1
M  ISO  4  37 100  40 100  62 101  82 101
M  END
> <Batch ID>
0126

> <Smiles>
CNC(C)C(=O)NC(C(=O)N1Cc2cc([101O:1][101CH2:1]C(=O)C=Cc3cc(C)cc(C=[100CH:0][100C:0](=O)N4CCCC(n5nc(-c6ccc(Oc7ccc(F)cc7F)cc6)c(C(N)=O)c5N)C4)c3)ccc2CC1C(=O)NC1CCCc2ccccc21)C(C)(C)C

> <Shape>
0.218

> <Color>
0.120

> <Negative vol penalty>
0.000

$$$$

  -OEChem-04052302113D

 84 92  0     1  0  0  0  0  0999 V2000
  -20.4692  -24.5164   23.8854 C   0  0  0  0  0  0  0  0  0  0  0  0
  -21.6635  -24.9527   23.3208 C   0  0  0  0  0  0  0  0  0  0  0  0
  -26.0892  -10.4654   20.3014 C   0  0  0  0  0  0  0  0  0  0  0  0
  -25.6210  -10.6942   22.6605 C   0  0  0  0  0  0  0  0  0  0  0  0
  -32.5276  -21.3018   19.1280 C   0  0  0  0  0  0  0  0  0  0  0  0
  -19.3208  -25.2995   23.7761 C   0  0  0  0  0  0  0  0  0  0  0  0
  -21.7098  -26.1719   22.6456 C   0  0  0  0  0  0  0  0  0  0  0  0
  -25.7743  -28.9262   23.8859 C   0  0  0  0  0  0  0  0  0  0  0  0
  -33.4479  -22.3482   19.1881 C   0  0  0  0  0  0  0  0  0  0  0  0
  -26.0523   -9.0769   20.4287 C   0  0  0  0  0  0  0  0  0  0  0  0
  -25.5840   -9.3056   22.7878 C   0  0  0  0  0  0  0  0  0  0  0  0
  -26.9891  -28.5662   23.3043 C   0  0  0  0  0  0  0  0  0  0  0  0
  -23.4060   -6.8038   22.1417 C   0  0  0  0  0  0  0  0  0  0  0  0
  -22.3619   -6.2500   22.8824 C   0  0  0  0  0  0  0  0  0  0  0  0
  -30.7133  -22.8873   19.3059 C   0  0  0  0  0  0  0  0  0  0  0  0
  -26.7366  -30.3424   21.6917 C   0  0  0  0  0  0  0  0  0  0  0  0
  -23.9618   -5.2705   24.4050 C   0  0  0  0  0  0  0  0  0  0  0  0
  -25.8736  -11.2741   21.4173 C   0  0  0  0  0  0  0  0  0  0  0  0
  -31.1602  -21.5714   19.1869 C   0  0  0  0  0  0  0  0  0  0  0  0
  -31.6337  -23.9337   19.3660 C   0  0  0  0  0  0  0  0  0  0  0  0
  -24.8345  -13.5643   20.9898 C   0  0  0  0  0  0  0  0  0  0  0  0
  -19.3554  -26.5334   23.1075 C   0  0  0  0  0  0  0  0  0  0  0  0
  -25.0250  -29.9920   23.3672 C   0  0  0  0  0  0  0  0  0  0  0  0
  -20.5605  -26.9715   22.5261 C   0  0  0  0  0  0  0  0  0  0  0  0
  -25.5138  -30.7156   22.2701 C   0  0  0  0  0  0  0  0  0  0  0  0
  -33.0010  -23.6641   19.3071 C   0  0  0  0  0  0  0  0  0  0  0  0
  -25.7997   -8.4969   21.6719 C   0  0  0  0  0  0  0  0  0  0  0  0
  -27.4691  -29.2724   22.2052 C   0  0  0  0  0  0  0  0  0  0  0  0
  -24.7280   -6.5909   22.5325 C   0  0  0  0  0  0  0  0  0  0  0  0
  -22.6398   -5.4834   24.0141 C   0  0  0  0  0  0  0  0  0  0  0  0
  -25.0059   -5.8243   23.6642 C   0  0  0  0  0  0  0  0  0  0  0  0
  -25.9121  -12.7085   21.2865 C   0  0  0  0  0  0  0  0  0  0  0  0
  -25.3875  -14.8215   20.9785 C   0  0  0  0  0  0  0  0  0  0  0  0
  -30.2016  -20.4794   19.1243 C   0  0  0  0  0  0  0  0  0  0  0  0
  -31.1309  -25.3132   19.4921 C   0  0  0  0  0  0  0  0  0  0  0  0
  -30.4721  -19.1835   19.3894 C   0  0  0  0  0  0  0  0  0  0  0  0
  -30.3605  -25.7536   20.4965 C   0  0  0  0  0  0  0  0  0  0  0  0
  -23.4568  -13.2509   20.7463 C   0  0  0  0  0  0  0  0  0  0  0  0
  -29.8949  -27.1706   20.5263 C   0  0  0  0  0  0  0  0  0  0  0  0
  -29.3843  -18.1895   19.2912 C   0  0  0  0  0  0  0  0  0  0  0  0
  -22.1374  -30.2819   22.0704 C   0  0  0  0  0  0  0  0  0  0  0  0
  -22.8390  -33.4475   22.1677 C   0  0  0  0  0  0  0  0  0  0  0  0
  -25.2264  -35.8843   22.2623 C   0  0  0  0  0  0  0  0  0  0  0  0
  -18.0773  -27.3229   22.9743 C   0  0  0  0  0  0  0  0  0  0  0  0
  -23.7294  -30.3848   24.0226 C   0  0  0  0  0  0  0  0  0  0  0  0
  -24.7574  -31.8806   21.6879 C   0  0  0  0  0  0  0  0  0  0  0  0
  -18.2993  -28.7771   22.5664 C   0  0  0  0  0  0  0  0  0  0  0  0
  -29.9186  -16.4533   22.4743 C   0  0  0  0  0  0  0  0  0  0  0  0
  -19.2871  -28.8615   21.4071 C   0  0  0  0  0  0  0  0  0  0  0  0
  -28.8563  -15.3602   22.3944 C   0  0  0  0  0  0  0  0  0  0  0  0
  -30.5049  -16.7821   21.1022 C   0  0  0  0  0  0  0  0  0  0  0  0
  -28.4120  -16.0398   20.0026 C   0  0  0  0  0  0  0  0  0  0  0  0
  -20.6567  -28.2998   21.8073 C   0  0  1  0  0  0  0  0  0  0  0  0
  -22.8007  -31.1603   23.0933 C   0  0  1  0  0  0  0  0  0  0  0  0
  -27.7750  -15.7261   21.3654 C   0  0  1  0  0  0  0  0  0  0  0  0
  -34.0160  -24.7600   19.3697 C   0  0  0  0  0  0  0  0  0  0  0  0
  -25.4945  -38.3791   22.2966 C   0  0  0  0  0  0  0  0  0  0  0  0
  -22.1844  -33.5563   19.1895 C   0  0  0  0  0  0  0  0  0  0  0  0
  -23.3567  -35.7660   19.0836 C   0  0  0  0  0  0  0  0  0  0  0  0
  -21.3325  -35.4974   20.5164 C   0  0  0  0  0  0  0  0  0  0  0  0
  -26.5925  -35.8177   24.8868 C   0  0  0  0  0  0  0  0  0  0  0  0
  -29.0308  -27.5483   21.7109 C   0  0  0  0  0  0  0  0  0  1  0  0
  -23.5073  -34.4237   21.2299 C   0  0  1  0  0  0  0  0  0  0  0  0
  -25.3736  -37.1169   23.1361 C   0  0  2  0  0  0  0  0  0  0  0  0
  -22.6088  -34.7877   20.0144 C   0  0  0  0  0  0  0  0  0  0  0  0
  -27.0628  -13.3663   21.4516 N   0  0  0  0  0  0  0  0  0  0  0  0
  -26.7113  -14.6489   21.2579 N   0  0  0  0  0  0  0  0  0  0  0  0
  -29.4486  -17.0714   20.1207 N   0  0  0  0  0  0  0  0  0  0  0  0
  -23.4927  -32.2221   22.3599 N   0  0  0  0  0  0  0  0  0  0  0  0
  -24.8657  -16.0466   20.7569 N   0  0  0  0  0  0  0  0  0  0  0  0
  -23.0580  -11.9082   20.7966 N   0  0  0  0  0  0  0  0  0  0  0  0
  -21.3812  -29.2600   22.6119 N   0  0  0  0  0  0  0  0  0  0  0  0
  -23.9022  -35.5675   22.0449 N   0  0  0  0  0  0  0  0  0  0  0  0
  -26.5886  -37.0033   23.9916 N   0  3  0  0  0  0  0  0  0  0  0  0
  -22.6078  -14.1337   20.4755 O   0  0  0  0  0  0  0  0  0  0  0  0
  -30.1944  -27.9743   19.6474 O   0  0  0  0  0  0  0  0  0  0  0  0
  -28.4863  -18.4080   18.4760 O   0  0  0  0  0  0  0  0  0  0  0  0
  -22.2984  -30.5151   20.8782 O   0  0  0  0  0  0  0  0  0  0  0  0
  -21.7797  -33.7634   22.7151 O   0  0  0  0  0  0  0  0  0  0  0  0
  -26.1898  -35.2666   21.8141 O   0  0  0  0  0  0  0  0  0  0  0  0
  -25.7634   -7.1421   21.7964 O   0  0  0  0  0  0  0  0  0  0  0  0
  -28.6542  -28.9226   21.6351 O   0  0  0  0  0  0  0  0  0  1  0  0
  -21.6370   -4.9529   24.7263 F   0  0  0  0  0  0  0  0  0  0  0  0
  -26.2738   -5.6173   24.0453 F   0  0  0  0  0  0  0  0  0  0  0  0
  1  2  1  0  0  0  0
  1  6  2  0  0  0  0
  2  7  2  0  0  0  0
  3 10  2  0  0  0  0
  3 18  1  0  0  0  0
  4 11  1  0  0  0  0
  4 18  2  0  0  0  0
  5  9  2  0  0  0  0
  5 19  1  0  0  0  0
  6 22  1  0  0  0  0
  7 24  1  0  0  0  0
  8 12  2  0  0  0  0
  8 23  1  0  0  0  0
  9 26  1  0  0  0  0
 10 27  1  0  0  0  0
 11 27  2  0  0  0  0
 12 28  1  0  0  0  0
 13 14  2  0  0  0  0
 13 29  1  0  0  0  0
 14 30  1  0  0  0  0
 15 19  2  0  0  0  0
 15 20  1  0  0  0  0
 16 25  1  0  0  0  0
 16 28  2  0  0  0  0
 17 30  2  0  0  0  0
 17 31  1  0  0  0  0
 18 32  1  0  0  0  0
 19 34  1  0  0  0  0
 20 26  2  0  0  0  0
 20 35  1  0  0  0  0
 21 32  1  0  0  0  0
 21 33  2  0  0  0  0
 21 38  1  0  0  0  0
 22 24  2  0  0  0  0
 22 44  1  0  0  0  0
 23 25  2  0  0  0  0
 23 45  1  0  0  0  0
 24 53  1  0  0  0  0
 25 46  1  0  0  0  0
 26 56  1  0  0  0  0
 27 81  1  0  0  0  0
 28 82  1  0  0  0  0
 29 31  2  0  0  0  0
 29 81  1  0  0  0  0
 30 83  1  0  0  0  0
 31 84  1  0  0  0  0
 32 66  2  0  0  0  0
 33 67  1  0  0  0  0
 33 70  1  0  0  0  0
 34 36  2  0  0  0  0
 35 37  2  0  0  0  0
 36 40  1  0  0  0  0
 37 39  1  0  0  0  0
 38 71  1  0  0  0  0
 38 75  2  0  0  0  0
 39 62  1  0  0  0  0
 39 76  2  0  0  0  0
 40 68  1  0  0  0  0
 40 77  2  0  0  0  0
 41 54  1  0  0  0  0
 41 72  1  0  0  0  0
 41 78  2  0  0  0  0
 42 63  1  0  0  0  0
 42 69  1  0  0  0  0
 42 79  2  0  0  0  0
 43 64  1  0  0  0  0
 43 73  1  0  0  0  0
 43 80  2  0  0  0  0
 44 47  1  0  0  0  0
 45 54  1  0  0  0  0
 46 69  1  0  0  0  0
 47 49  1  0  0  0  0
 48 50  1  0  0  0  0
 48 51  1  0  0  0  0
 49 53  1  0  0  0  0
 50 55  1  0  0  0  0
 51 68  1  0  0  0  0
 52 55  1  0  0  0  0
 52 68  1  0  0  0  0
 53 72  1  0  0  0  0
 54 69  1  0  0  0  0
 55 67  1  0  0  0  0
 57 64  1  0  0  0  0
 58 65  1  0  0  0  0
 59 65  1  0  0  0  0
 60 65  1  0  0  0  0
 61 74  1  0  0  0  0
 62 82  1  0  0  0  0
 63 65  1  0  0  0  0
 63 73  1  0  0  0  0
 64 74  1  0  0  0  0
 66 67  1  0  0  0  0
M  CHG  1  74   1
M  ISO  4  36 100  40 100  62 101  82 101
M  END
> <Batch ID>
0126

> <Smiles>
CNC(C)C(=O)NC(C(=O)N1Cc2cc([101O:1][101CH2:1]C(=O)C=Cc3cc(C=[100CH:0][100C:0](=O)N4CCCC(n5nc(-c6ccc(Oc7ccc(F)cc7F)cc6)c(C(N)=O)c5N)C4)ccc3C)ccc2CC1C(=O)NC1CCCc2ccccc21)C(C)(C)C

> <Shape>
0.302

> <Color>
0.118

> <Negative vol penalty>
0.000

$$$$

  -OEChem-04052302113D

 84 92  0     1  0  0  0  0  0999 V2000
  -30.1725  -34.9720   25.7620 C   0  0  0  0  0  0  0  0  0  0  0  0
  -30.4088  -33.8649   24.9534 C   0  0  0  0  0  0  0  0  0  0  0  0
  -25.0917   -8.3074   22.1810 C   0  0  0  0  0  0  0  0  0  0  0  0
  -24.7981   -8.0142   19.8009 C   0  0  0  0  0  0  0  0  0  0  0  0
  -26.7167  -18.5641   21.7872 C   0  0  0  0  0  0  0  0  0  0  0  0
  -27.5853  -17.4787   21.9019 C   0  0  0  0  0  0  0  0  0  0  0  0
  -28.9199  -35.1516   26.3474 C   0  0  0  0  0  0  0  0  0  0  0  0
  -29.3930  -32.9360   24.7307 C   0  0  0  0  0  0  0  0  0  0  0  0
  -26.9113  -28.4741   19.7058 C   0  0  0  0  0  0  0  0  0  0  0  0
  -23.8119   -7.7985   22.4016 C   0  0  0  0  0  0  0  0  0  0  0  0
  -23.5182   -7.5053   20.0215 C   0  0  0  0  0  0  0  0  0  0  0  0
  -26.5523  -27.1379   19.5341 C   0  0  0  0  0  0  0  0  0  0  0  0
  -22.3206   -4.7656   22.5043 C   0  0  0  0  0  0  0  0  0  0  0  0
  -22.1630   -3.8273   23.5243 C   0  0  0  0  0  0  0  0  0  0  0  0
  -28.2449  -19.6240   20.2449 C   0  0  0  0  0  0  0  0  0  0  0  0
  -24.4044  -27.5928   20.5334 C   0  0  0  0  0  0  0  0  0  0  0  0
  -20.6026   -5.2987   24.6366 C   0  0  0  0  0  0  0  0  0  0  0  0
  -25.5848   -8.4153   20.8806 C   0  0  0  0  0  0  0  0  0  0  0  0
  -27.0465  -19.6367   20.9587 C   0  0  0  0  0  0  0  0  0  0  0  0
  -28.7837  -17.4660   21.1881 C   0  0  0  0  0  0  0  0  0  0  0  0
  -28.1117   -8.2160   20.5925 C   0  0  0  0  0  0  0  0  0  0  0  0
  -27.8853  -34.2295   26.1239 C   0  0  0  0  0  0  0  0  0  0  0  0
  -26.0222  -29.3788   20.3035 C   0  0  0  0  0  0  0  0  0  0  0  0
  -28.1258  -33.1027   25.3147 C   0  0  0  0  0  0  0  0  0  0  0  0
  -24.7535  -28.9405   20.7092 C   0  0  0  0  0  0  0  0  0  0  0  0
  -29.1135  -18.5387   20.3597 C   0  0  0  0  0  0  0  0  0  0  0  0
  -23.0251   -7.3975   21.3218 C   0  0  0  0  0  0  0  0  0  0  0  0
  -25.2998  -26.6965   19.9505 C   0  0  0  0  0  0  0  0  0  0  0  0
  -21.6193   -5.9705   22.5505 C   0  0  0  0  0  0  0  0  0  0  0  0
  -21.3040   -4.0939   24.5904 C   0  0  0  0  0  0  0  0  0  0  0  0
  -20.7603   -6.2370   23.6167 C   0  0  0  0  0  0  0  0  0  0  0  0
  -26.9066   -8.9413   20.6521 C   0  0  0  0  0  0  0  0  0  0  0  0
  -29.0737   -9.1673   20.3558 C   0  0  0  0  0  0  0  0  0  0  0  0
  -26.1279  -20.7827   20.8381 C   0  0  0  0  0  0  0  0  0  0  0  0
  -26.4825  -21.9998   20.4029 C   0  0  0  0  0  0  0  0  0  0  0  0
  -29.6720  -16.3197   21.3260 C   0  0  0  0  0  0  0  0  0  0  0  0
  -28.3410   -6.8082   20.7381 C   0  0  0  0  0  0  0  0  0  0  0  0
  -25.4757  -23.0981   20.3272 C   0  0  0  0  0  0  0  0  0  0  0  0
  -29.1444  -14.9702   21.6111 C   0  0  0  0  0  0  0  0  0  0  0  0
  -26.0705  -31.1672   22.9309 C   0  0  0  0  0  0  0  0  0  0  0  0
  -23.2919  -32.3264   21.7233 C   0  0  0  0  0  0  0  0  0  0  0  0
  -20.5853  -31.8405   19.7021 C   0  0  0  0  0  0  0  0  0  0  0  0
  -26.5623  -34.4411   26.8165 C   0  0  0  0  0  0  0  0  0  0  0  0
  -26.4144  -30.8228   20.4572 C   0  0  0  0  0  0  0  0  0  0  0  0
  -23.7548  -29.8763   21.3379 C   0  0  0  0  0  0  0  0  0  0  0  0
  -25.4265  -33.6081   26.2277 C   0  0  0  0  0  0  0  0  0  0  0  0
  -29.7121  -13.4386   18.3303 C   0  0  0  0  0  0  0  0  0  0  0  0
  -25.8747  -32.1648   26.0210 C   0  0  0  0  0  0  0  0  0  0  0  0
  -29.1161  -12.0503   18.5472 C   0  0  0  0  0  0  0  0  0  0  0  0
  -28.9538  -14.5141   19.1067 C   0  0  0  0  0  0  0  0  0  0  0  0
  -28.2370  -12.8344   20.7816 C   0  0  0  0  0  0  0  0  0  0  0  0
  -27.0417  -32.0861   25.0293 C   0  0  1  0  0  0  0  0  0  0  0  0
  -25.6255  -31.5436   21.5460 C   0  0  1  0  0  0  0  0  0  0  0  0
  -29.0132  -11.7303   20.0469 C   0  0  1  0  0  0  0  0  0  0  0  0
  -30.3904  -18.5494   19.5839 C   0  0  0  0  0  0  0  0  0  0  0  0
  -18.4644  -32.9506   18.9494 C   0  0  0  0  0  0  0  0  0  0  0  0
  -21.9943  -31.6587   24.4029 C   0  0  0  0  0  0  0  0  0  0  0  0
  -19.7592  -31.8848   23.2979 C   0  0  0  0  0  0  0  0  0  0  0  0
  -21.2922  -33.8488   23.4207 C   0  0  0  0  0  0  0  0  0  0  0  0
  -21.4582  -31.8519   16.8743 C   0  0  0  0  0  0  0  0  0  0  0  0
  -25.9966  -24.4263   19.8201 C   0  0  0  0  0  0  0  0  0  1  0  0
  -21.8349  -31.9497   21.8425 C   0  0  1  0  0  0  0  0  0  0  0  0
  -19.9393  -32.7276   18.6533 C   0  0  2  0  0  0  0  0  0  0  0  0
  -21.2395  -32.3172   23.2309 C   0  0  0  0  0  0  0  0  0  0  0  0
  -27.0842  -10.2523   20.4682 N   0  0  0  0  0  0  0  0  0  0  0  0
  -30.9684  -16.4025   21.2079 N   0  0  0  0  0  0  0  0  0  0  0  0
  -28.4121  -10.3583   20.2908 N   0  0  0  0  0  0  0  0  0  0  0  0
  -28.8177  -14.1575   20.5269 N   0  0  0  0  0  0  0  0  0  0  0  0
  -24.1875  -31.2771   21.4724 N   0  0  0  0  0  0  0  0  0  0  0  0
  -30.4124   -9.0930   20.1991 N   0  0  0  0  0  0  0  0  0  0  0  0
  -27.2409   -5.9733   20.9774 N   0  0  0  0  0  0  0  0  0  0  0  0
  -26.5612  -32.2257   23.6713 N   0  0  0  0  0  0  0  0  0  0  0  0
  -21.1567  -32.5808   20.7155 N   0  0  0  0  0  0  0  0  0  0  0  0
  -20.0590  -32.1060   17.3041 N   0  3  0  0  0  0  0  0  0  0  0  0
  -29.4894   -6.3075   20.6746 O   0  0  0  0  0  0  0  0  0  0  0  0
  -24.3038  -22.9326   20.6546 O   0  0  0  0  0  0  0  0  0  0  0  0
  -29.0203  -14.6463   22.7936 O   0  0  0  0  0  0  0  0  0  0  0  0
  -25.9743  -30.0029   23.3009 O   0  0  0  0  0  0  0  0  0  0  0  0
  -23.6225  -33.5089   21.8411 O   0  0  0  0  0  0  0  0  0  0  0  0
  -20.5802  -30.6135   19.6316 O   0  0  0  0  0  0  0  0  0  0  0  0
  -21.7763   -6.9007   21.5367 O   0  0  0  0  0  0  0  0  0  0  0  0
  -24.9472  -25.3926   19.7847 O   0  0  0  0  0  0  0  0  0  1  0  0
  -21.1515   -3.1921   25.5691 F   0  0  0  0  0  0  0  0  0  0  0  0
  -20.0829   -7.3923   23.6659 F   0  0  0  0  0  0  0  0  0  0  0  0
  1  2  1  0  0  0  0
  1  7  2  0  0  0  0
  2  8  2  0  0  0  0
  3 10  2  0  0  0  0
  3 18  1  0  0  0  0
  4 11  1  0  0  0  0
  4 18  2  0  0  0  0
  5  6  2  0  0  0  0
  5 19  1  0  0  0  0
  6 20  1  0  0  0  0
  7 22  1  0  0  0  0
  8 24  1  0  0  0  0
  9 12  2  0  0  0  0
  9 23  1  0  0  0  0
 10 27  1  0  0  0  0
 11 27  2  0  0  0  0
 12 28  1  0  0  0  0
 13 14  2  0  0  0  0
 13 29  1  0  0  0  0
 14 30  1  0  0  0  0
 15 19  2  0  0  0  0
 15 26  1  0  0  0  0
 16 25  1  0  0  0  0
 16 28  2  0  0  0  0
 17 30  2  0  0  0  0
 17 31  1  0  0  0  0
 18 32  1  0  0  0  0
 19 34  1  0  0  0  0
 20 26  2  0  0  0  0
 20 36  1  0  0  0  0
 21 32  1  0  0  0  0
 21 33  2  0  0  0  0
 21 37  1  0  0  0  0
 22 24  2  0  0  0  0
 22 43  1  0  0  0  0
 23 25  2  0  0  0  0
 23 44  1  0  0  0  0
 24 52  1  0  0  0  0
 25 45  1  0  0  0  0
 26 55  1  0  0  0  0
 27 81  1  0  0  0  0
 28 82  1  0  0  0  0
 29 31  2  0  0  0  0
 29 81  1  0  0  0  0
 30 83  1  0  0  0  0
 31 84  1  0  0  0  0
 32 65  2  0  0  0  0
 33 67  1  0  0  0  0
 33 70  1  0  0  0  0
 34 35  2  0  0  0  0
 35 38  1  0  0  0  0
 36 39  1  0  0  0  0
 36 66  2  0  0  0  0
 37 71  1  0  0  0  0
 37 75  2  0  0  0  0
 38 61  1  0  0  0  0
 38 76  2  0  0  0  0
 39 68  1  0  0  0  0
 39 77  2  0  0  0  0
 40 53  1  0  0  0  0
 40 72  1  0  0  0  0
 40 78  2  0  0  0  0
 41 62  1  0  0  0  0
 41 69  1  0  0  0  0
 41 79  2  0  0  0  0
 42 63  1  0  0  0  0
 42 73  1  0  0  0  0
 42 80  2  0  0  0  0
 43 46  1  0  0  0  0
 44 53  1  0  0  0  0
 45 69  1  0  0  0  0
 46 48  1  0  0  0  0
 47 49  1  0  0  0  0
 47 50  1  0  0  0  0
 48 52  1  0  0  0  0
 49 54  1  0  0  0  0
 50 68  1  0  0  0  0
 51 54  1  0  0  0  0
 51 68  1  0  0  0  0
 52 72  1  0  0  0  0
 53 69  1  0  0  0  0
 54 67  1  0  0  0  0
 56 63  1  0  0  0  0
 57 64  1  0  0  0  0
 58 64  1  0  0  0  0
 59 64  1  0  0  0  0
 60 74  1  0  0  0  0
 61 82  1  0  0  0  0
 62 64  1  0  0  0  0
 62 73  1  0  0  0  0
 63 74  1  0  0  0  0
 65 67  1  0  0  0  0
M  CHG  1  74   1
M  ISO  4  36 100  39 100  61 101  82 101
M  END
> <Batch ID>
0126

> <Smiles>
CNC(C)C(=O)NC(C(=O)N1Cc2cc([101O:1][101CH2:1]C(=O)C=Cc3ccc([100C:0](=N)[100C:0](=O)N4CCCC(n5nc(-c6ccc(Oc7ccc(F)cc7F)cc6)c(C(N)=O)c5N)C4)c(C)c3)ccc2CC1C(=O)NC1CCCc2ccccc21)C(C)(C)C

> <Shape>
0.260

> <Color>
0.089

> <Negative vol penalty>
0.000

$$$$

  -OEChem-04052302113D

 84 92  0     1  0  0  0  0  0999 V2000
  -18.3323  -31.2571   25.3358 C   0  0  0  0  0  0  0  0  0  0  0  0
  -19.1063  -30.1926   25.7866 C   0  0  0  0  0  0  0  0  0  0  0  0
  -23.1294   -9.8819   19.9129 C   0  0  0  0  0  0  0  0  0  0  0  0
  -23.8169   -9.9350   22.2284 C   0  0  0  0  0  0  0  0  0  0  0  0
  -18.1353  -31.4443   23.9683 C   0  0  0  0  0  0  0  0  0  0  0  0
  -19.6828  -29.3140   24.8700 C   0  0  0  0  0  0  0  0  0  0  0  0
  -25.0962  -26.4954   25.3763 C   0  0  0  0  0  0  0  0  0  0  0  0
  -22.3966   -8.7204   20.1571 C   0  0  0  0  0  0  0  0  0  0  0  0
  -23.0840   -8.7735   22.4726 C   0  0  0  0  0  0  0  0  0  0  0  0
  -25.4501  -25.2104   25.7855 C   0  0  0  0  0  0  0  0  0  0  0  0
  -19.8517   -7.9316   22.9866 C   0  0  0  0  0  0  0  0  0  0  0  0
  -19.0592   -7.8964   24.1339 C   0  0  0  0  0  0  0  0  0  0  0  0
  -29.7068  -17.6289   23.2050 C   0  0  0  0  0  0  0  0  0  0  0  0
  -25.4989  -24.4968   23.4817 C   0  0  0  0  0  0  0  0  0  0  0  0
  -31.9215  -16.8084   22.6962 C   0  0  0  0  0  0  0  0  0  0  0  0
  -20.3078   -5.9907   24.9379 C   0  0  0  0  0  0  0  0  0  0  0  0
  -23.8396  -10.4891   20.9486 C   0  0  0  0  0  0  0  0  0  0  0  0
  -30.2516  -18.5362   24.1135 C   0  0  0  0  0  0  0  0  0  0  0  0
  -24.1446  -13.0175   20.8009 C   0  0  0  0  0  0  0  0  0  0  0  0
  -18.7177  -30.5732   23.0342 C   0  0  0  0  0  0  0  0  0  0  0  0
  -24.9301  -26.7885   24.0151 C   0  0  0  0  0  0  0  0  0  0  0  0
  -19.4923  -29.4890   23.4888 C   0  0  0  0  0  0  0  0  0  0  0  0
  -25.1454  -25.7869   23.0577 C   0  0  0  0  0  0  0  0  0  0  0  0
  -32.4664  -17.7158   23.6047 C   0  0  0  0  0  0  0  0  0  0  0  0
  -31.6314  -18.5798   24.3133 C   0  0  0  0  0  0  0  0  0  0  0  0
  -30.5417  -16.7649   22.4963 C   0  0  0  0  0  0  0  0  0  0  0  0
  -22.3739   -8.1663   21.4370 C   0  0  0  0  0  0  0  0  0  0  0  0
  -25.6486  -24.2102   24.8383 C   0  0  0  0  0  0  0  0  0  0  0  0
  -20.8723   -6.9963   22.8149 C   0  0  0  0  0  0  0  0  0  0  0  0
  -19.2873   -6.9260   25.1095 C   0  0  0  0  0  0  0  0  0  0  0  0
  -21.1003   -6.0259   23.7905 C   0  0  0  0  0  0  0  0  0  0  0  0
  -24.5972  -11.6886   20.6968 C   0  0  0  0  0  0  0  0  0  0  0  0
  -25.2354  -13.7795   20.4604 C   0  0  0  0  0  0  0  0  0  0  0  0
  -29.3409  -19.4339   24.8458 C   0  0  0  0  0  0  0  0  0  0  0  0
  -28.5355  -20.3367   24.2690 C   0  0  0  0  0  0  0  0  0  0  0  0
  -22.8535  -13.5185   21.1723 C   0  0  0  0  0  0  0  0  0  0  0  0
  -27.6561  -21.2067   25.1029 C   0  0  0  0  0  0  0  0  0  0  0  0
  -22.5037  -27.7703   22.2118 C   0  0  0  0  0  0  0  0  0  0  0  0
  -24.7869  -27.9349   19.9135 C   0  0  0  0  0  0  0  0  0  0  0  0
  -27.8157  -26.8692   18.7570 C   0  0  0  0  0  0  0  0  0  0  0  0
  -30.6760  -14.9173   20.7890 C   0  0  0  0  0  0  0  0  0  0  0  0
  -18.4374  -30.7883   21.5679 C   0  0  0  0  0  0  0  0  0  0  0  0
  -24.5744  -28.1863   23.5884 C   0  0  0  0  0  0  0  0  0  0  0  0
  -24.9995  -26.0551   21.5828 C   0  0  0  0  0  0  0  0  0  0  0  0
  -19.3918  -30.0313   20.6479 C   0  0  0  0  0  0  0  0  0  0  0  0
  -29.6751  -12.4510   18.4242 C   0  0  0  0  0  0  0  0  0  0  0  0
  -19.5521  -28.5883   21.1158 C   0  0  0  0  0  0  0  0  0  0  0  0
  -28.2275  -12.1421   18.8132 C   0  0  0  0  0  0  0  0  0  0  0  0
  -30.5483  -12.7125   19.6501 C   0  0  0  0  0  0  0  0  0  0  0  0
  -28.5877  -13.4256   20.9602 C   0  0  0  0  0  0  0  0  0  0  0  0
  -20.1547  -28.5289   22.5246 C   0  0  1  0  0  0  0  0  0  0  0  0
  -23.9298  -28.2434   22.2069 C   0  0  1  0  0  0  0  0  0  0  0  0
  -27.6552  -13.2191   19.7555 C   0  0  2  0  0  0  0  0  0  0  0  0
  -33.9473  -17.7415   23.7992 C   0  0  0  0  0  0  0  0  0  0  0  0
  -32.2280  -19.5496   25.2858 C   0  0  0  0  0  0  0  0  0  0  0  0
  -29.4006  -27.1539   16.8323 C   0  0  0  0  0  0  0  0  0  0  0  0
  -22.9873  -26.1875   18.1764 C   0  0  0  0  0  0  0  0  0  0  0  0
  -24.9649  -25.7285   16.7113 C   0  0  0  0  0  0  0  0  0  0  0  0
  -24.1129  -28.0598   16.9591 C   0  0  0  0  0  0  0  0  0  0  0  0
  -29.9570  -27.8986   20.5217 C   0  0  0  0  0  0  0  0  0  0  0  0
  -26.7925  -22.1864   24.3367 C   0  0  0  0  0  0  0  0  0  1  0  0
  -25.3406  -26.9774   18.8861 C   0  0  1  0  0  0  0  0  0  0  0  0
  -29.0153  -27.6315   18.2238 C   0  0  2  0  0  0  0  0  0  0  0  0
  -24.3524  -26.7324   17.7110 C   0  0  0  0  0  0  0  0  0  0  0  0
  -25.8759  -11.6075   20.3195 N   0  0  0  0  0  0  0  0  0  0  0  0
  -26.2361  -12.8951   20.1835 N   0  0  0  0  0  0  0  0  0  0  0  0
  -24.6442  -27.4360   21.2160 N   0  0  0  0  0  0  0  0  0  0  0  0
  -29.9458  -13.7467   20.4939 N   0  0  0  0  0  0  0  0  0  0  0  0
  -25.4267  -15.1130   20.3738 N   0  0  0  0  0  0  0  0  0  0  0  0
  -21.8462  -12.5978   21.4917 N   0  0  0  0  0  0  0  0  0  0  0  0
  -29.9887  -15.8435   21.5728 N   0  0  0  0  0  0  0  0  0  0  0  0
  -21.5816  -28.7654   22.4744 N   0  0  0  0  0  0  0  0  0  0  0  0
  -26.6322  -27.5191   18.4775 N   0  0  0  0  0  0  0  0  0  0  0  0
  -30.1879  -27.4482   19.1250 N   0  3  0  0  0  0  0  0  0  0  0  0
  -22.5959  -14.7457   21.2036 O   0  0  0  0  0  0  0  0  0  0  0  0
  -27.6362  -21.1306   26.3284 O   0  0  0  0  0  0  0  0  0  0  0  0
  -22.2579  -26.5900   21.9920 O   0  0  0  0  0  0  0  0  0  0  0  0
  -24.4986  -29.0854   19.5745 O   0  0  0  0  0  0  0  0  0  0  0  0
  -27.9181  -25.8020   19.3579 O   0  0  0  0  0  0  0  0  0  0  0  0
  -31.8164  -15.0978   20.3542 O   0  0  0  0  0  0  0  0  0  0  0  0
  -21.6587   -7.0331   21.6757 O   0  0  0  0  0  0  0  0  0  0  0  0
  -25.9934  -22.9549   25.2351 O   0  0  0  0  0  0  0  0  0  1  0  0
  -18.5271   -6.8933   26.2119 F   0  0  0  0  0  0  0  0  0  0  0  0
  -22.0800   -5.1254   23.6317 F   0  0  0  0  0  0  0  0  0  0  0  0
  1  2  1  0  0  0  0
  1  5  2  0  0  0  0
  2  6  2  0  0  0  0
  3  8  2  0  0  0  0
  3 17  1  0  0  0  0
  4  9  1  0  0  0  0
  4 17  2  0  0  0  0
  5 20  1  0  0  0  0
  6 22  1  0  0  0  0
  7 10  2  0  0  0  0
  7 21  1  0  0  0  0
  8 27  1  0  0  0  0
  9 27  2  0  0  0  0
 10 28  1  0  0  0  0
 11 12  2  0  0  0  0
 11 29  1  0  0  0  0
 12 30  1  0  0  0  0
 13 18  1  0  0  0  0
 13 26  2  0  0  0  0
 14 23  1  0  0  0  0
 14 28  2  0  0  0  0
 15 24  2  0  0  0  0
 15 26  1  0  0  0  0
 16 30  2  0  0  0  0
 16 31  1  0  0  0  0
 17 32  1  0  0  0  0
 18 25  2  0  0  0  0
 18 34  1  0  0  0  0
 19 32  1  0  0  0  0
 19 33  2  0  0  0  0
 19 36  1  0  0  0  0
 20 22  2  0  0  0  0
 20 42  1  0  0  0  0
 21 23  2  0  0  0  0
 21 43  1  0  0  0  0
 22 51  1  0  0  0  0
 23 44  1  0  0  0  0
 24 25  1  0  0  0  0
 24 54  1  0  0  0  0
 25 55  1  0  0  0  0
 26 71  1  0  0  0  0
 27 81  1  0  0  0  0
 28 82  1  0  0  0  0
 29 31  2  0  0  0  0
 29 81  1  0  0  0  0
 30 83  1  0  0  0  0
 31 84  1  0  0  0  0
 32 65  2  0  0  0  0
 33 66  1  0  0  0  0
 33 69  1  0  0  0  0
 34 35  2  0  0  0  0
 35 37  1  0  0  0  0
 36 70  1  0  0  0  0
 36 75  2  0  0  0  0
 37 61  1  0  0  0  0
 37 76  2  0  0  0  0
 38 52  1  0  0  0  0
 38 72  1  0  0  0  0
 38 77  2  0  0  0  0
 39 62  1  0  0  0  0
 39 67  1  0  0  0  0
 39 78  2  0  0  0  0
 40 63  1  0  0  0  0
 40 73  1  0  0  0  0
 40 79  2  0  0  0  0
 41 68  1  0  0  0  0
 41 71  1  0  0  0  0
 41 80  2  0  0  0  0
 42 45  1  0  0  0  0
 43 52  1  0  0  0  0
 44 67  1  0  0  0  0
 45 47  1  0  0  0  0
 46 48  1  0  0  0  0
 46 49  1  0  0  0  0
 47 51  1  0  0  0  0
 48 53  1  0  0  0  0
 49 68  1  0  0  0  0
 50 53  1  0  0  0  0
 50 68  1  0  0  0  0
 51 72  1  0  0  0  0
 52 67  1  0  0  0  0
 53 66  1  0  0  0  0
 56 63  1  0  0  0  0
 57 64  1  0  0  0  0
 58 64  1  0  0  0  0
 59 64  1  0  0  0  0
 60 74  1  0  0  0  0
 61 82  1  0  0  0  0
 62 64  1  0  0  0  0
 62 73  1  0  0  0  0
 63 74  1  0  0  0  0
 65 66  1  0  0  0  0
M  CHG  1  74   1
M  ISO  4  41 100  61 101  71 100  82 101
M  END
> <Batch ID>
0126

> <Smiles>
CNC(C)C(=O)NC(C(=O)N1Cc2cc([101O:1][101CH2:1]C(=O)C=Cc3cc([100NH:0][100C:0](=O)N4CCCC(n5nc(-c6ccc(Oc7ccc(F)cc7F)cc6)c(C(N)=O)c5N)C4)cc(C)c3C)ccc2CC1C(=O)NC1CCCc2ccccc21)C(C)(C)C

> <Shape>
0.276

> <Color>
0.219

> <Negative vol penalty>
0.000

$$$$

  -OEChem-04052302113D

 84 92  0     1  0  0  0  0  0999 V2000
  -19.5111  -28.3775   26.7075 C   0  0  0  0  0  0  0  0  0  0  0  0
  -20.6770  -27.7992   26.2160 C   0  0  0  0  0  0  0  0  0  0  0  0
  -23.0071  -10.0299   19.8814 C   0  0  0  0  0  0  0  0  0  0  0  0
  -24.0228   -9.5941   22.0298 C   0  0  0  0  0  0  0  0  0  0  0  0
  -29.0366  -19.7350   21.3303 C   0  0  0  0  0  0  0  0  0  0  0  0
  -18.6251  -29.0074   25.8345 C   0  0  0  0  0  0  0  0  0  0  0  0
  -20.9571  -27.8496   24.8509 C   0  0  0  0  0  0  0  0  0  0  0  0
  -26.4735  -28.3617   22.2408 C   0  0  0  0  0  0  0  0  0  0  0  0
  -29.3831  -18.5329   21.9471 C   0  0  0  0  0  0  0  0  0  0  0  0
  -22.2870   -8.8394   19.9803 C   0  0  0  0  0  0  0  0  0  0  0  0
  -23.3026   -8.4036   22.1287 C   0  0  0  0  0  0  0  0  0  0  0  0
  -27.3376  -27.4212   21.6817 C   0  0  0  0  0  0  0  0  0  0  0  0
  -20.1574   -7.4556   22.9221 C   0  0  0  0  0  0  0  0  0  0  0  0
  -19.5381   -7.1739   24.1398 C   0  0  0  0  0  0  0  0  0  0  0  0
  -26.4565  -27.9222   19.4926 C   0  0  0  0  0  0  0  0  0  0  0  0
  -31.4741  -18.5146   20.7370 C   0  0  0  0  0  0  0  0  0  0  0  0
  -20.8392   -5.1473   24.3325 C   0  0  0  0  0  0  0  0  0  0  0  0
  -23.8751  -10.4072   20.9061 C   0  0  0  0  0  0  0  0  0  0  0  0
  -29.9089  -20.3269   20.4167 C   0  0  0  0  0  0  0  0  0  0  0  0
  -24.2219  -12.9109   21.2510 C   0  0  0  0  0  0  0  0  0  0  0  0
  -18.8991  -29.0739   24.4593 C   0  0  0  0  0  0  0  0  0  0  0  0
  -25.5853  -29.0829   21.4300 C   0  0  0  0  0  0  0  0  0  0  0  0
  -20.0732  -28.4798   23.9585 C   0  0  0  0  0  0  0  0  0  0  0  0
  -25.5840  -28.8730   20.0436 C   0  0  0  0  0  0  0  0  0  0  0  0
  -30.6018  -17.9227   21.6505 C   0  0  0  0  0  0  0  0  0  0  0  0
  -31.1276  -19.7167   20.1201 C   0  0  0  0  0  0  0  0  0  0  0  0
  -22.4347   -8.0263   21.1040 C   0  0  0  0  0  0  0  0  0  0  0  0
  -27.3272  -27.1993   20.3077 C   0  0  0  0  0  0  0  0  0  0  0  0
  -21.1175   -6.5832   22.4096 C   0  0  0  0  0  0  0  0  0  0  0  0
  -19.8790   -6.0197   24.8450 C   0  0  0  0  0  0  0  0  0  0  0  0
  -21.4584   -5.4290   23.1148 C   0  0  0  0  0  0  0  0  0  0  0  0
  -24.6197  -11.6366   20.8042 C   0  0  0  0  0  0  0  0  0  0  0  0
  -25.2718  -13.7332   20.9224 C   0  0  0  0  0  0  0  0  0  0  0  0
  -29.5136  -21.5967   19.7820 C   0  0  0  0  0  0  0  0  0  0  0  0
  -29.2292  -22.7244   20.4481 C   0  0  0  0  0  0  0  0  0  0  0  0
  -23.0115  -13.3152   21.9047 C   0  0  0  0  0  0  0  0  0  0  0  0
  -28.8284  -23.9574   19.7101 C   0  0  0  0  0  0  0  0  0  0  0  0
  -22.4223  -29.3310   21.2363 C   0  0  0  0  0  0  0  0  0  0  0  0
  -23.1262  -31.6350   19.0642 C   0  0  0  0  0  0  0  0  0  0  0  0
  -25.3592  -32.9237   16.8282 C   0  0  0  0  0  0  0  0  0  0  0  0
  -30.7496  -14.7742   20.6879 C   0  0  0  0  0  0  0  0  0  0  0  0
  -17.8882  -29.7241   23.5483 C   0  0  0  0  0  0  0  0  0  0  0  0
  -24.6783  -30.1130   22.0454 C   0  0  0  0  0  0  0  0  0  0  0  0
  -24.6639  -29.6358   19.1270 C   0  0  0  0  0  0  0  0  0  0  0  0
  -18.4419  -30.0615   22.1663 C   0  0  0  0  0  0  0  0  0  0  0  0
  -29.3285  -12.8927   18.0201 C   0  0  0  0  0  0  0  0  0  0  0  0
  -19.2215  -28.8788   21.6003 C   0  0  0  0  0  0  0  0  0  0  0  0
  -27.9472  -12.4984   18.5459 C   0  0  0  0  0  0  0  0  0  0  0  0
  -30.3780  -12.8849   19.1294 C   0  0  0  0  0  0  0  0  0  0  0  0
  -28.6522  -13.2996   20.8393 C   0  0  0  0  0  0  0  0  0  0  0  0
  -20.4242  -28.5354   22.4875 C   0  0  1  0  0  0  0  0  0  0  0  0
  -23.4552  -30.4211   21.1873 C   0  0  1  0  0  0  0  0  0  0  0  0
  -27.5491  -13.3473   19.7682 C   0  0  2  0  0  0  0  0  0  0  0  0
  -32.0867  -20.3220   19.1461 C   0  0  0  0  0  0  0  0  0  0  0  0
  -25.6371  -34.7917   15.1756 C   0  0  0  0  0  0  0  0  0  0  0  0
  -21.3027  -30.1698   17.1051 C   0  0  0  0  0  0  0  0  0  0  0  0
  -22.3443  -31.4941   15.2532 C   0  0  0  0  0  0  0  0  0  0  0  0
  -21.0889  -32.6612   17.0655 C   0  0  0  0  0  0  0  0  0  0  0  0
  -27.6854  -34.0254   18.2890 C   0  0  0  0  0  0  0  0  0  0  0  0
  -30.9734  -16.6383   22.3110 C   0  0  0  0  0  0  0  0  0  0  0  0
  -28.5327  -25.1664   20.5723 C   0  0  0  0  0  0  0  0  0  1  0  0
  -23.3561  -31.6636   17.5724 C   0  0  1  0  0  0  0  0  0  0  0  0
  -25.8632  -34.3389   16.6097 C   0  0  2  0  0  0  0  0  0  0  0  0
  -22.0391  -31.4813   16.7663 C   0  0  0  0  0  0  0  0  0  0  0  0
  -25.8280  -11.6437   20.2350 N   0  0  0  0  0  0  0  0  0  0  0  0
  -26.1984  -12.9326   20.3218 N   0  0  0  0  0  0  0  0  0  0  0  0
  -23.7915  -30.6276   19.7772 N   0  0  0  0  0  0  0  0  0  0  0  0
  -29.9402  -13.7097   20.2581 N   0  0  0  0  0  0  0  0  0  0  0  0
  -25.4835  -15.0557   21.0914 N   0  0  0  0  0  0  0  0  0  0  0  0
  -22.0370  -12.3427   22.1673 N   0  0  0  0  0  0  0  0  0  0  0  0
  -21.5041  -29.4714   22.2594 N   0  0  0  0  0  0  0  0  0  0  0  0
  -24.0607  -32.9099   17.2918 N   0  0  0  0  0  0  0  0  0  0  0  0
  -30.2577  -15.5093   21.7596 N   0  0  0  0  0  0  0  0  0  0  0  0
  -27.3219  -34.4205   16.9038 N   0  3  0  0  0  0  0  0  0  0  0  0
  -22.7935  -14.5066   22.2312 O   0  0  0  0  0  0  0  0  0  0  0  0
  -28.7452  -23.9864   18.4852 O   0  0  0  0  0  0  0  0  0  0  0  0
  -22.4550  -28.4299   20.4064 O   0  0  0  0  0  0  0  0  0  0  0  0
  -22.3894  -32.4800   19.5789 O   0  0  0  0  0  0  0  0  0  0  0  0
  -26.0473  -31.9299   16.6059 O   0  0  0  0  0  0  0  0  0  0  0  0
  -31.8281  -15.0524   20.1526 O   0  0  0  0  0  0  0  0  0  0  0  0
  -21.7320   -6.8647   21.2009 O   0  0  0  0  0  0  0  0  0  0  0  0
  -28.1691  -26.2814   19.7594 O   0  0  0  0  0  0  0  0  0  1  0  0
  -19.2854   -5.7501   26.0151 F   0  0  0  0  0  0  0  0  0  0  0  0
  -22.3809   -4.5877   22.6281 F   0  0  0  0  0  0  0  0  0  0  0  0
  1  2  1  0  0  0  0
  1  6  2  0  0  0  0
  2  7  2  0  0  0  0
  3 10  2  0  0  0  0
  3 18  1  0  0  0  0
  4 11  1  0  0  0  0
  4 18  2  0  0  0  0
  5  9  2  0  0  0  0
  5 19  1  0  0  0  0
  6 21  1  0  0  0  0
  7 23  1  0  0  0  0
  8 12  2  0  0  0  0
  8 22  1  0  0  0  0
  9 25  1  0  0  0  0
 10 27  1  0  0  0  0
 11 27  2  0  0  0  0
 12 28  1  0  0  0  0
 13 14  2  0  0  0  0
 13 29  1  0  0  0  0
 14 30  1  0  0  0  0
 15 24  1  0  0  0  0
 15 28  2  0  0  0  0
 16 25  2  0  0  0  0
 16 26  1  0  0  0  0
 17 30  2  0  0  0  0
 17 31  1  0  0  0  0
 18 32  1  0  0  0  0
 19 26  2  0  0  0  0
 19 34  1  0  0  0  0
 20 32  1  0  0  0  0
 20 33  2  0  0  0  0
 20 36  1  0  0  0  0
 21 23  2  0  0  0  0
 21 42  1  0  0  0  0
 22 24  2  0  0  0  0
 22 43  1  0  0  0  0
 23 51  1  0  0  0  0
 24 44  1  0  0  0  0
 25 60  1  0  0  0  0
 26 54  1  0  0  0  0
 27 81  1  0  0  0  0
 28 82  1  0  0  0  0
 29 31  2  0  0  0  0
 29 81  1  0  0  0  0
 30 83  1  0  0  0  0
 31 84  1  0  0  0  0
 32 65  2  0  0  0  0
 33 66  1  0  0  0  0
 33 69  1  0  0  0  0
 34 35  2  0  0  0  0
 35 37  1  0  0  0  0
 36 70  1  0  0  0  0
 36 75  2  0  0  0  0
 37 61  1  0  0  0  0
 37 76  2  0  0  0  0
 38 52  1  0  0  0  0
 38 71  1  0  0  0  0
 38 77  2  0  0  0  0
 39 62  1  0  0  0  0
 39 67  1  0  0  0  0
 39 78  2  0  0  0  0
 40 63  1  0  0  0  0
 40 72  1  0  0  0  0
 40 79  2  0  0  0  0
 41 68  1  0  0  0  0
 41 73  1  0  0  0  0
 41 80  2  0  0  0  0
 42 45  1  0  0  0  0
 43 52  1  0  0  0  0
 44 67  1  0  0  0  0
 45 47  1  0  0  0  0
 46 48  1  0  0  0  0
 46 49  1  0  0  0  0
 47 51  1  0  0  0  0
 48 53  1  0  0  0  0
 49 68  1  0  0  0  0
 50 53  1  0  0  0  0
 50 68  1  0  0  0  0
 51 71  1  0  0  0  0
 52 67  1  0  0  0  0
 53 66  1  0  0  0  0
 55 63  1  0  0  0  0
 56 64  1  0  0  0  0
 57 64  1  0  0  0  0
 58 64  1  0  0  0  0
 59 74  1  0  0  0  0
 60 73  1  0  0  0  0
 61 82  1  0  0  0  0
 62 64  1  0  0  0  0
 62 72  1  0  0  0  0
 63 74  1  0  0  0  0
 65 66  1  0  0  0  0
M  CHG  1  74   1
M  ISO  4  41 100  61 101  73 100  82 101
M  END
> <Batch ID>
0126

> <Smiles>
CNC(C)C(=O)NC(C(=O)N1Cc2cc([101O:1][101CH2:1]C(=O)C=Cc3ccc(C[100NH:0][100C:0](=O)N4CCCC(n5nc(-c6ccc(Oc7ccc(F)cc7F)cc6)c(C(N)=O)c5N)C4)cc3C)ccc2CC1C(=O)NC1CCCc2ccccc21)C(C)(C)C

> <Shape>
0.346

> <Color>
0.253

> <Negative vol penalty>
0.000

$$$$

  -OEChem-04052302113D

 84 92  0     1  0  0  0  0  0999 V2000
  -29.3671  -31.6876   26.5320 C   0  0  0  0  0  0  0  0  0  0  0  0
  -29.1360  -30.6537   25.6303 C   0  0  0  0  0  0  0  0  0  0  0  0
  -26.5837   -7.5548   22.7498 C   0  0  0  0  0  0  0  0  0  0  0  0
  -24.9888   -7.3664   20.9448 C   0  0  0  0  0  0  0  0  0  0  0  0
  -28.2916  -32.3749   27.0932 C   0  0  0  0  0  0  0  0  0  0  0  0
  -27.8293  -30.3058   25.2901 C   0  0  0  0  0  0  0  0  0  0  0  0
  -27.2406  -29.6009   20.3099 C   0  0  0  0  0  0  0  0  0  0  0  0
  -25.9833   -6.4726   23.3933 C   0  0  0  0  0  0  0  0  0  0  0  0
  -24.3884   -6.2841   21.5883 C   0  0  0  0  0  0  0  0  0  0  0  0
  -27.6925  -28.3931   19.7800 C   0  0  0  0  0  0  0  0  0  0  0  0
  -22.2314   -5.7895   24.1443 C   0  0  0  0  0  0  0  0  0  0  0  0
  -20.8384   -5.7663   24.2103 C   0  0  0  0  0  0  0  0  0  0  0  0
  -30.3498  -20.0724   20.1447 C   0  0  0  0  0  0  0  0  0  0  0  0
  -28.0531  -19.9499   20.8842 C   0  0  0  0  0  0  0  0  0  0  0  0
  -25.4326  -27.5494   19.7919 C   0  0  0  0  0  0  0  0  0  0  0  0
  -20.8157   -3.6779   22.9957 C   0  0  0  0  0  0  0  0  0  0  0  0
  -26.0864   -8.0017   21.5256 C   0  0  0  0  0  0  0  0  0  0  0  0
  -29.2451  -19.3154   20.5348 C   0  0  0  0  0  0  0  0  0  0  0  0
  -29.0704  -22.0985   20.4535 C   0  0  0  0  0  0  0  0  0  0  0  0
  -27.7623   -9.0774   19.9313 C   0  0  0  0  0  0  0  0  0  0  0  0
  -26.9713  -32.0417   26.7523 C   0  0  0  0  0  0  0  0  0  0  0  0
  -25.8806  -29.7884   20.5955 C   0  0  0  0  0  0  0  0  0  0  0  0
  -26.7351  -30.9885   25.8482 C   0  0  0  0  0  0  0  0  0  0  0  0
  -24.9656  -28.7614   20.3230 C   0  0  0  0  0  0  0  0  0  0  0  0
  -30.2624  -21.4640   20.1041 C   0  0  0  0  0  0  0  0  0  0  0  0
  -27.9657  -21.3414   20.8435 C   0  0  0  0  0  0  0  0  0  0  0  0
  -24.8857   -5.8373   22.8125 C   0  0  0  0  0  0  0  0  0  0  0  0
  -26.7888  -27.3661   19.5237 C   0  0  0  0  0  0  0  0  0  0  0  0
  -22.9167   -4.7570   23.5040 C   0  0  0  0  0  0  0  0  0  0  0  0
  -20.1305   -4.7105   23.6360 C   0  0  0  0  0  0  0  0  0  0  0  0
  -22.2088   -3.7012   22.9297 C   0  0  0  0  0  0  0  0  0  0  0  0
  -26.7058   -9.1199   20.8606 C   0  0  0  0  0  0  0  0  0  0  0  0
  -27.9810  -10.3922   19.5997 C   0  0  0  0  0  0  0  0  0  0  0  0
  -29.3355  -17.8642   20.5780 C   0  0  0  0  0  0  0  0  0  0  0  0
  -28.9794  -23.5675   20.4115 C   0  0  0  0  0  0  0  0  0  0  0  0
  -28.5160  -17.0489   21.2752 C   0  0  0  0  0  0  0  0  0  0  0  0
  -28.6200  -24.2905   19.3393 C   0  0  0  0  0  0  0  0  0  0  0  0
  -28.4817   -7.9502   19.4139 C   0  0  0  0  0  0  0  0  0  0  0  0
  -28.7313  -15.5894   21.2094 C   0  0  0  0  0  0  0  0  0  0  0  0
  -24.2013  -30.3703   23.2309 C   0  0  0  0  0  0  0  0  0  0  0  0
  -21.7434  -30.6559   21.1333 C   0  0  0  0  0  0  0  0  0  0  0  0
  -20.4368  -29.8783   18.0781 C   0  0  0  0  0  0  0  0  0  0  0  0
  -25.8400  -32.7819   27.4209 C   0  0  0  0  0  0  0  0  0  0  0  0
  -25.4054  -31.1068   21.1419 C   0  0  0  0  0  0  0  0  0  0  0  0
  -23.4923  -28.9197   20.5928 C   0  0  0  0  0  0  0  0  0  0  0  0
  -24.4953  -32.5993   26.7218 C   0  0  0  0  0  0  0  0  0  0  0  0
  -25.2794  -14.5389   20.5676 C   0  0  0  0  0  0  0  0  0  0  0  0
  -24.2595  -31.1284   26.3938 C   0  0  0  0  0  0  0  0  0  0  0  0
  -25.4314  -13.0201   20.5592 C   0  0  0  0  0  0  0  0  0  0  0  0
  -26.2325  -15.2034   21.5598 C   0  0  0  0  0  0  0  0  0  0  0  0
  -27.8133  -13.3068   21.3494 C   0  0  0  0  0  0  0  0  0  0  0  0
  -25.3326  -30.5981   25.4352 C   0  0  1  0  0  0  0  0  0  0  0  0
  -24.0713  -31.0039   21.8747 C   0  0  1  0  0  0  0  0  0  0  0  0
  -26.8968  -12.6211   20.3241 C   0  0  1  0  0  0  0  0  0  0  0  0
  -31.4685  -22.2400   19.6808 C   0  0  0  0  0  0  0  0  0  0  0  0
  -25.6267  -21.8808   20.1191 C   0  0  0  0  0  0  0  0  0  0  0  0
  -18.3934  -30.2252   16.6633 C   0  0  0  0  0  0  0  0  0  0  0  0
  -20.2328  -28.6086   22.8175 C   0  0  0  0  0  0  0  0  0  0  0  0
  -18.6597  -28.2919   20.8957 C   0  0  0  0  0  0  0  0  0  0  0  0
  -18.8410  -30.5200   22.0027 C   0  0  0  0  0  0  0  0  0  0  0  0
  -21.9895  -31.2549   15.9679 C   0  0  0  0  0  0  0  0  0  0  0  0
  -26.6705  -21.9843   21.2260 C   0  0  0  0  0  0  0  0  0  0  0  0
  -28.5553  -25.7843   19.3408 C   0  0  0  0  0  0  0  0  0  1  0  0
  -20.7327  -29.7074   20.5352 C   0  0  1  0  0  0  0  0  0  0  0  0
  -19.7807  -30.7398   17.0142 C   0  0  2  0  0  0  0  0  0  0  0  0
  -19.6445  -29.2780   21.5594 C   0  0  0  0  0  0  0  0  0  0  0  0
  -26.2828  -10.3632   21.1040 N   0  0  0  0  0  0  0  0  0  0  0  0
  -27.0776  -11.1142   20.3227 N   0  0  0  0  0  0  0  0  0  0  0  0
  -27.6196  -14.7611   21.3524 N   0  0  0  0  0  0  0  0  0  0  0  0
  -23.0776  -30.2250   21.1329 N   0  0  0  0  0  0  0  0  0  0  0  0
  -28.8560  -10.9896   18.7631 N   0  0  0  0  0  0  0  0  0  0  0  0
  -28.1283   -6.6697   19.8608 N   0  0  0  0  0  0  0  0  0  0  0  0
  -25.0626  -31.0356   24.0824 N   0  0  0  0  0  0  0  0  0  0  0  0
  -20.2063  -30.3686   19.3460 N   0  0  0  0  0  0  0  0  0  0  0  0
  -20.6063  -30.7491   15.7735 N   0  3  0  0  0  0  0  0  0  0  0  0
  -29.4213   -8.0762   18.5924 O   0  0  0  0  0  0  0  0  0  0  0  0
  -29.8850  -15.1921   21.0363 O   0  0  0  0  0  0  0  0  0  0  0  0
  -23.5661  -29.3540   23.4863 O   0  0  0  0  0  0  0  0  0  0  0  0
  -21.3642  -31.7423   21.5778 O   0  0  0  0  0  0  0  0  0  0  0  0
  -21.0854  -28.8690   17.8112 O   0  0  0  0  0  0  0  0  0  0  0  0
  -24.2998   -4.7811   23.4400 O   0  0  0  0  0  0  0  0  0  0  0  0
  -27.2273  -26.1859   19.0071 O   0  0  0  0  0  0  0  0  0  1  0  0
  -18.7928   -4.6875   23.7008 F   0  0  0  0  0  0  0  0  0  0  0  0
  -22.8616   -2.7058   22.3142 F   0  0  0  0  0  0  0  0  0  0  0  0
  1  2  1  0  0  0  0
  1  5  2  0  0  0  0
  2  6  2  0  0  0  0
  3  8  2  0  0  0  0
  3 17  1  0  0  0  0
  4  9  1  0  0  0  0
  4 17  2  0  0  0  0
  5 21  1  0  0  0  0
  6 23  1  0  0  0  0
  7 10  2  0  0  0  0
  7 22  1  0  0  0  0
  8 27  1  0  0  0  0
  9 27  2  0  0  0  0
 10 28  1  0  0  0  0
 11 12  2  0  0  0  0
 11 29  1  0  0  0  0
 12 30  1  0  0  0  0
 13 18  1  0  0  0  0
 13 25  2  0  0  0  0
 14 18  2  0  0  0  0
 14 26  1  0  0  0  0
 15 24  1  0  0  0  0
 15 28  2  0  0  0  0
 16 30  2  0  0  0  0
 16 31  1  0  0  0  0
 17 32  1  0  0  0  0
 18 34  1  0  0  0  0
 19 25  1  0  0  0  0
 19 26  2  0  0  0  0
 19 35  1  0  0  0  0
 20 32  1  0  0  0  0
 20 33  2  0  0  0  0
 20 38  1  0  0  0  0
 21 23  2  0  0  0  0
 21 43  1  0  0  0  0
 22 24  2  0  0  0  0
 22 44  1  0  0  0  0
 23 52  1  0  0  0  0
 24 45  1  0  0  0  0
 25 55  1  0  0  0  0
 26 62  1  0  0  0  0
 27 81  1  0  0  0  0
 28 82  1  0  0  0  0
 29 31  2  0  0  0  0
 29 81  1  0  0  0  0
 30 83  1  0  0  0  0
 31 84  1  0  0  0  0
 32 67  2  0  0  0  0
 33 68  1  0  0  0  0
 33 71  1  0  0  0  0
 34 36  2  0  0  0  0
 35 37  2  0  0  0  0
 36 39  1  0  0  0  0
 37 63  1  0  0  0  0
 38 72  1  0  0  0  0
 38 76  2  0  0  0  0
 39 69  1  0  0  0  0
 39 77  2  0  0  0  0
 40 53  1  0  0  0  0
 40 73  1  0  0  0  0
 40 78  2  0  0  0  0
 41 64  1  0  0  0  0
 41 70  1  0  0  0  0
 41 79  2  0  0  0  0
 42 65  1  0  0  0  0
 42 74  1  0  0  0  0
 42 80  2  0  0  0  0
 43 46  1  0  0  0  0
 44 53  1  0  0  0  0
 45 70  1  0  0  0  0
 46 48  1  0  0  0  0
 47 49  1  0  0  0  0
 47 50  1  0  0  0  0
 48 52  1  0  0  0  0
 49 54  1  0  0  0  0
 50 69  1  0  0  0  0
 51 54  1  0  0  0  0
 51 69  1  0  0  0  0
 52 73  1  0  0  0  0
 53 70  1  0  0  0  0
 54 68  1  0  0  0  0
 56 62  1  0  0  0  0
 57 65  1  0  0  0  0
 58 66  1  0  0  0  0
 59 66  1  0  0  0  0
 60 66  1  0  0  0  0
 61 75  1  0  0  0  0
 63 82  1  0  0  0  0
 64 66  1  0  0  0  0
 64 74  1  0  0  0  0
 65 75  1  0  0  0  0
 67 68  1  0  0  0  0
M  CHG  1  75   1
M  ISO  4  36 100  39 100  63 101  82 101
M  END
> <Batch ID>
0126

> <Smiles>
CCc1cc(C=[100CH:0][100C:0](=O)N2CCCC(n3nc(-c4ccc(Oc5ccc(F)cc5F)cc4)c(C(N)=O)c3N)C2)cc(C)c1C=C[101CH2:1][101O:1]c1ccc2c(c1)CN(C(=O)C(NC(=O)C(C)NC)C(C)(C)C)C(C(=O)NC1CCCc3ccccc31)C2

> <Shape>
0.288

> <Color>
0.069

> <Negative vol penalty>
0.000

$$$$

  -OEChem-04052302113D

 82 90  0     1  0  0  0  0  0999 V2000
  -16.5684  -30.1359   23.3986 C   0  0  0  0  0  0  0  0  0  0  0  0
  -17.6517  -30.9016   23.8175 C   0  0  0  0  0  0  0  0  0  0  0  0
  -33.3523  -27.1375   18.6545 C   0  0  0  0  0  0  0  0  0  0  0  0
  -26.8844  -16.1676   18.6715 C   0  0  0  0  0  0  0  0  0  0  0  0
  -28.9698  -16.3423   19.8787 C   0  0  0  0  0  0  0  0  0  0  0  0
  -33.0869  -27.4415   19.9897 C   0  0  0  0  0  0  0  0  0  0  0  0
  -16.7716  -28.8354   22.9389 C   0  0  0  0  0  0  0  0  0  0  0  0
  -18.9389  -30.3668   23.7779 C   0  0  0  0  0  0  0  0  0  0  0  0
  -25.7555  -32.2955   22.7150 C   0  0  0  0  0  0  0  0  0  0  0  0
  -32.6022  -26.1611   17.9991 C   0  0  0  0  0  0  0  0  0  0  0  0
  -26.9102  -14.7817   18.8274 C   0  0  0  0  0  0  0  0  0  0  0  0
  -28.9956  -14.9564   20.0347 C   0  0  0  0  0  0  0  0  0  0  0  0
  -27.0095  -32.1951   23.3159 C   0  0  0  0  0  0  0  0  0  0  0  0
  -26.2116  -12.5348   21.2556 C   0  0  0  0  0  0  0  0  0  0  0  0
  -25.0297  -11.9041   21.6439 C   0  0  0  0  0  0  0  0  0  0  0  0
  -31.3212  -25.7926   20.0141 C   0  0  0  0  0  0  0  0  0  0  0  0
  -27.2496  -29.9649   22.4283 C   0  0  0  0  0  0  0  0  0  0  0  0
  -25.0590  -10.5981   19.6115 C   0  0  0  0  0  0  0  0  0  0  0  0
  -27.9142  -16.9479   19.1971 C   0  0  0  0  0  0  0  0  0  0  0  0
  -32.0713  -26.7691   20.6695 C   0  0  0  0  0  0  0  0  0  0  0  0
  -27.3068  -19.3224   19.9044 C   0  0  0  0  0  0  0  0  0  0  0  0
  -18.0630  -28.2877   22.8847 C   0  0  0  0  0  0  0  0  0  0  0  0
  -25.2336  -31.2255   21.9740 C   0  0  0  0  0  0  0  0  0  0  0  0
  -19.1594  -29.0572   23.3184 C   0  0  0  0  0  0  0  0  0  0  0  0
  -25.9899  -30.0552   21.8168 C   0  0  0  0  0  0  0  0  0  0  0  0
  -31.5867  -25.4886   18.6789 C   0  0  0  0  0  0  0  0  0  0  0  0
  -27.9657  -14.1761   19.5090 C   0  0  0  0  0  0  0  0  0  0  0  0
  -27.7556  -31.0286   23.1751 C   0  0  0  0  0  0  0  0  0  0  0  0
  -26.8173  -12.1973   20.0452 C   0  0  0  0  0  0  0  0  0  0  0  0
  -24.4534  -10.9357   20.8218 C   0  0  0  0  0  0  0  0  0  0  0  0
  -26.2410  -11.2289   19.2232 C   0  0  0  0  0  0  0  0  0  0  0  0
  -27.8884  -18.3795   19.0359 C   0  0  0  0  0  0  0  0  0  0  0  0
  -27.5515  -20.5352   19.3080 C   0  0  0  0  0  0  0  0  0  0  0  0
  -31.7918  -27.0913   22.0788 C   0  0  0  0  0  0  0  0  0  0  0  0
  -32.1518  -28.2253   22.7002 C   0  0  0  0  0  0  0  0  0  0  0  0
  -26.6080  -19.1201   21.1399 C   0  0  0  0  0  0  0  0  0  0  0  0
  -22.6796  -29.3512   22.2344 C   0  0  0  0  0  0  0  0  0  0  0  0
  -23.6916  -28.2317   19.3630 C   0  0  0  0  0  0  0  0  0  0  0  0
  -26.2723  -27.7778   17.1766 C   0  0  0  0  0  0  0  0  0  0  0  0
  -30.9582  -24.0766   16.6895 C   0  0  0  0  0  0  0  0  0  0  0  0
  -18.2277  -26.8608   22.4247 C   0  0  0  0  0  0  0  0  0  0  0  0
  -23.8908  -31.3596   21.3097 C   0  0  0  0  0  0  0  0  0  0  0  0
  -25.4834  -28.8855   21.0145 C   0  0  0  0  0  0  0  0  0  0  0  0
  -19.6659  -26.5000   22.0619 C   0  0  0  0  0  0  0  0  0  0  0  0
  -29.3017  -21.6412   14.6890 C   0  0  0  0  0  0  0  0  0  0  0  0
  -20.6278  -26.9940   23.1377 C   0  0  0  0  0  0  0  0  0  0  0  0
  -28.7385  -20.6531   15.7130 C   0  0  0  0  0  0  0  0  0  0  0  0
  -30.6677  -22.1790   15.1116 C   0  0  0  0  0  0  0  0  0  0  0  0
  -30.1545  -21.7666   17.4856 C   0  0  0  0  0  0  0  0  0  0  0  0
  -20.5736  -28.5210   23.2672 C   0  0  1  0  0  0  0  0  0  0  0  0
  -23.2369  -30.0150   21.0070 C   0  0  1  0  0  0  0  0  0  0  0  0
  -28.7505  -21.2472   17.1351 C   0  0  2  0  0  0  0  0  0  0  0  0
  -26.7993  -26.7980   14.9272 C   0  0  0  0  0  0  0  0  0  0  0  0
  -23.6063  -25.4291   20.5665 C   0  0  0  0  0  0  0  0  0  0  0  0
  -25.0115  -24.6393   18.6508 C   0  0  0  0  0  0  0  0  0  0  0  0
  -22.7430  -25.5855   18.2246 C   0  0  0  0  0  0  0  0  0  0  0  0
  -27.1219  -30.4019   16.1036 C   0  0  0  0  0  0  0  0  0  0  0  0
  -31.8401  -28.5127   24.1416 C   0  0  0  0  0  0  0  0  0  0  0  0
  -31.0320  -29.8008   24.2873 C   0  0  0  0  0  0  0  0  0  0  0  0
  -29.6895  -29.7038   23.5758 C   0  0  0  0  0  0  0  0  0  1  0  0
  -24.6217  -27.1314   18.9121 C   0  0  1  0  0  0  0  0  0  0  0  0
  -26.3909  -28.0500   15.6878 C   0  0  2  0  0  0  0  0  0  0  0  0
  -24.0046  -25.7175   19.1053 C   0  0  0  0  0  0  0  0  0  0  0  0
  -28.4594  -18.9447   17.9688 N   0  0  0  0  0  0  0  0  0  0  0  0
  -28.2377  -20.2559   18.1629 N   0  0  0  0  0  0  0  0  0  0  0  0
  -24.1622  -29.0627   20.3895 N   0  0  0  0  0  0  0  0  0  0  0  0
  -30.6015  -22.7297   16.4671 N   0  0  0  0  0  0  0  0  0  0  0  0
  -27.2443  -21.8028   19.6566 N   0  0  0  0  0  0  0  0  0  0  0  0
  -26.4455  -17.8093   21.6087 N   0  0  0  0  0  0  0  0  0  0  0  0
  -30.8244  -24.4975   18.0122 N   0  0  0  0  0  0  0  0  0  0  0  0
  -21.3137  -29.1460   22.1919 N   0  0  0  0  0  0  0  0  0  0  0  0
  -24.9834  -27.4422   17.5333 N   0  0  0  0  0  0  0  0  0  0  0  0
  -27.4100  -29.1074   15.4341 N   0  3  0  0  0  0  0  0  0  0  0  0
  -26.1272  -20.0723   21.8000 O   0  0  0  0  0  0  0  0  0  0  0  0
  -23.4332  -29.0465   23.1514 O   0  0  0  0  0  0  0  0  0  0  0  0
  -22.5910  -28.3538   18.8195 O   0  0  0  0  0  0  0  0  0  0  0  0
  -27.2283  -27.8517   17.9454 O   0  0  0  0  0  0  0  0  0  0  0  0
  -31.3272  -24.8107   15.7693 O   0  0  0  0  0  0  0  0  0  0  0  0
  -27.9911  -12.8239   19.6616 O   0  0  0  0  0  0  0  0  0  0  0  0
  -28.9796  -30.9277   23.7612 O   0  0  0  0  0  0  0  0  0  1  0  0
  -23.3192  -10.3290   21.1955 F   0  0  0  0  0  0  0  0  0  0  0  0
  -26.8188  -10.8996   18.0598 F   0  0  0  0  0  0  0  0  0  0  0  0
  1  2  1  0  0  0  0
  1  7  2  0  0  0  0
  2  8  2  0  0  0  0
  3  6  2  0  0  0  0
  3 10  1  0  0  0  0
  4 11  2  0  0  0  0
  4 19  1  0  0  0  0
  5 12  1  0  0  0  0
  5 19  2  0  0  0  0
  6 20  1  0  0  0  0
  7 22  1  0  0  0  0
  8 24  1  0  0  0  0
  9 13  2  0  0  0  0
  9 23  1  0  0  0  0
 10 26  2  0  0  0  0
 11 27  1  0  0  0  0
 12 27  2  0  0  0  0
 13 28  1  0  0  0  0
 14 15  2  0  0  0  0
 14 29  1  0  0  0  0
 15 30  1  0  0  0  0
 16 20  2  0  0  0  0
 16 26  1  0  0  0  0
 17 25  1  0  0  0  0
 17 28  2  0  0  0  0
 18 30  2  0  0  0  0
 18 31  1  0  0  0  0
 19 32  1  0  0  0  0
 20 34  1  0  0  0  0
 21 32  1  0  0  0  0
 21 33  2  0  0  0  0
 21 36  1  0  0  0  0
 22 24  2  0  0  0  0
 22 41  1  0  0  0  0
 23 25  2  0  0  0  0
 23 42  1  0  0  0  0
 24 50  1  0  0  0  0
 25 43  1  0  0  0  0
 26 70  1  0  0  0  0
 27 79  1  0  0  0  0
 28 80  1  0  0  0  0
 29 31  2  0  0  0  0
 29 79  1  0  0  0  0
 30 81  1  0  0  0  0
 31 82  1  0  0  0  0
 32 64  2  0  0  0  0
 33 65  1  0  0  0  0
 33 68  1  0  0  0  0
 34 35  2  0  0  0  0
 35 58  1  0  0  0  0
 36 69  1  0  0  0  0
 36 74  2  0  0  0  0
 37 51  1  0  0  0  0
 37 71  1  0  0  0  0
 37 75  2  0  0  0  0
 38 61  1  0  0  0  0
 38 66  1  0  0  0  0
 38 76  2  0  0  0  0
 39 62  1  0  0  0  0
 39 72  1  0  0  0  0
 39 77  2  0  0  0  0
 40 67  1  0  0  0  0
 40 70  1  0  0  0  0
 40 78  2  0  0  0  0
 41 44  1  0  0  0  0
 42 51  1  0  0  0  0
 43 66  1  0  0  0  0
 44 46  1  0  0  0  0
 45 47  1  0  0  0  0
 45 48  1  0  0  0  0
 46 50  1  0  0  0  0
 47 52  1  0  0  0  0
 48 67  1  0  0  0  0
 49 52  1  0  0  0  0
 49 67  1  0  0  0  0
 50 71  1  0  0  0  0
 51 66  1  0  0  0  0
 52 65  1  0  0  0  0
 53 62  1  0  0  0  0
 54 63  1  0  0  0  0
 55 63  1  0  0  0  0
 56 63  1  0  0  0  0
 57 73  1  0  0  0  0
 58 59  1  0  0  0  0
 59 60  1  0  0  0  0
 60 80  1  0  0  0  0
 61 63  1  0  0  0  0
 61 72  1  0  0  0  0
 62 73  1  0  0  0  0
 64 65  1  0  0  0  0
M  CHG  1  73   1
M  ISO  4  40 100  60 101  70 100  80 101
M  END
> <Batch ID>
0126

> <Smiles>
CNC(C)C(=O)NC(C(=O)N1Cc2cc([101O:1][101CH2:1]CCC=Cc3cccc([100NH:0][100C:0](=O)N4CCCC(n5nc(-c6ccc(Oc7ccc(F)cc7F)cc6)c(C(N)=O)c5N)C4)c3)ccc2CC1C(=O)NC1CCCc2ccccc21)C(C)(C)C

> <Shape>
0.279

> <Color>
0.101

> <Negative vol penalty>
0.000

$$$$

  -OEChem-04052302113D

 83 91  0     1  0  0  0  0  0999 V2000
  -29.9197  -34.4319   23.1187 C   0  0  0  0  0  0  0  0  0  0  0  0
  -29.7422  -33.0606   22.9653 C   0  0  0  0  0  0  0  0  0  0  0  0
  -24.7846   -8.9375   21.3176 C   0  0  0  0  0  0  0  0  0  0  0  0
  -23.2624  -10.2980   20.0256 C   0  0  0  0  0  0  0  0  0  0  0  0
  -28.7809  -19.4522   14.9089 C   0  0  0  0  0  0  0  0  0  0  0  0
  -28.8598  -35.2265   23.5535 C   0  0  0  0  0  0  0  0  0  0  0  0
  -28.5049  -32.4830   23.2477 C   0  0  0  0  0  0  0  0  0  0  0  0
  -27.0592  -29.1604   19.7100 C   0  0  0  0  0  0  0  0  0  0  0  0
  -28.7068  -18.0873   14.6314 C   0  0  0  0  0  0  0  0  0  0  0  0
  -23.7125   -8.1705   21.7732 C   0  0  0  0  0  0  0  0  0  0  0  0
  -22.1902   -9.5309   20.4812 C   0  0  0  0  0  0  0  0  0  0  0  0
  -27.6485  -27.8973   19.7441 C   0  0  0  0  0  0  0  0  0  0  0  0
  -21.2698   -8.4348   24.0944 C   0  0  0  0  0  0  0  0  0  0  0  0
  -21.2259   -8.1266   25.4540 C   0  0  0  0  0  0  0  0  0  0  0  0
  -28.7548  -18.9723   17.2766 C   0  0  0  0  0  0  0  0  0  0  0  0
  -25.6885  -27.0191   20.8425 C   0  0  0  0  0  0  0  0  0  0  0  0
  -21.2913   -5.7708   24.9221 C   0  0  0  0  0  0  0  0  0  0  0  0
  -24.5596  -10.0014   20.4439 C   0  0  0  0  0  0  0  0  0  0  0  0
  -28.8050  -19.8948   16.2315 C   0  0  0  0  0  0  0  0  0  0  0  0
  -26.4440  -10.5704   18.8212 C   0  0  0  0  0  0  0  0  0  0  0  0
  -27.6061  -34.6597   23.8322 C   0  0  0  0  0  0  0  0  0  0  0  0
  -25.7824  -29.3650   20.2527 C   0  0  0  0  0  0  0  0  0  0  0  0
  -27.4276  -33.2706   23.6880 C   0  0  0  0  0  0  0  0  0  0  0  0
  -25.0842  -28.2852   20.8118 C   0  0  0  0  0  0  0  0  0  0  0  0
  -28.6566  -17.1648   15.6765 C   0  0  0  0  0  0  0  0  0  0  0  0
  -28.6807  -17.6073   16.9991 C   0  0  0  0  0  0  0  0  0  0  0  0
  -22.4152   -8.4671   21.3549 C   0  0  0  0  0  0  0  0  0  0  0  0
  -26.9644  -26.8270   20.3129 C   0  0  0  0  0  0  0  0  0  0  0  0
  -21.3244   -7.4110   23.1486 C   0  0  0  0  0  0  0  0  0  0  0  0
  -21.2367   -6.7946   25.8679 C   0  0  0  0  0  0  0  0  0  0  0  0
  -21.3352   -6.0790   23.5625 C   0  0  0  0  0  0  0  0  0  0  0  0
  -25.6667  -10.7945   19.9733 C   0  0  0  0  0  0  0  0  0  0  0  0
  -27.3592  -11.5946   18.8199 C   0  0  0  0  0  0  0  0  0  0  0  0
  -28.8838  -21.3360   16.5228 C   0  0  0  0  0  0  0  0  0  0  0  0
  -29.2885  -21.8701   17.6858 C   0  0  0  0  0  0  0  0  0  0  0  0
  -26.3474   -9.5296   17.8399 C   0  0  0  0  0  0  0  0  0  0  0  0
  -24.6057  -31.1423   22.6107 C   0  0  0  0  0  0  0  0  0  0  0  0
  -21.7629  -30.0580   21.4859 C   0  0  0  0  0  0  0  0  0  0  0  0
  -20.0532  -27.6561   19.7672 C   0  0  0  0  0  0  0  0  0  0  0  0
  -28.6477  -16.9761   19.4377 C   0  0  0  0  0  0  0  0  0  0  0  0
  -26.5037  -35.5522   24.3449 C   0  0  0  0  0  0  0  0  0  0  0  0
  -25.1497  -30.7278   20.1841 C   0  0  0  0  0  0  0  0  0  0  0  0
  -23.7028  -28.4478   21.3896 C   0  0  0  0  0  0  0  0  0  0  0  0
  -25.1182  -34.9168   24.2637 C   0  0  0  0  0  0  0  0  0  0  0  0
  -28.5042  -14.9935   22.3917 C   0  0  0  0  0  0  0  0  0  0  0  0
  -25.1540  -33.4880   24.7968 C   0  0  0  0  0  0  0  0  0  0  0  0
  -27.8171  -13.7059   21.9311 C   0  0  0  0  0  0  0  0  0  0  0  0
  -27.9280  -16.2245   21.6943 C   0  0  0  0  0  0  0  0  0  0  0  0
  -27.2160  -14.8649   19.7672 C   0  0  0  0  0  0  0  0  0  0  0  0
  -26.0933  -32.6106   23.9605 C   0  0  1  0  0  0  0  0  0  0  0  0
  -24.0562  -30.9321   21.2281 C   0  0  1  0  0  0  0  0  0  0  0  0
  -27.8068  -13.5915   20.3941 C   0  0  2  0  0  0  0  0  0  0  0  0
  -28.5763  -15.7089   15.3497 C   0  0  0  0  0  0  0  0  0  0  0  0
  -17.7342  -27.0239   19.0461 C   0  0  0  0  0  0  0  0  0  0  0  0
  -21.1356  -29.1310   24.3244 C   0  0  0  0  0  0  0  0  0  0  0  0
  -19.3066  -27.7059   23.3802 C   0  0  0  0  0  0  0  0  0  0  0  0
  -19.2126  -30.1853   23.1224 C   0  0  0  0  0  0  0  0  0  0  0  0
  -20.7813  -27.7943   16.9019 C   0  0  0  0  0  0  0  0  0  0  0  0
  -29.3569  -23.3501   17.9361 C   0  0  0  0  0  0  0  0  0  0  0  0
  -28.4141  -23.7651   19.0641 C   0  0  0  0  0  0  0  0  0  0  0  0
  -28.4466  -25.2693   19.2969 C   0  0  0  0  0  0  0  0  0  1  0  0
  -20.8877  -28.8610   21.7687 C   0  0  1  0  0  0  0  0  0  0  0  0
  -19.0132  -27.7534   18.6657 C   0  0  2  0  0  0  0  0  0  0  0  0
  -20.1624  -28.9678   23.1399 C   0  0  0  0  0  0  0  0  0  0  0  0
  -26.0544  -11.8760   20.6545 N   0  0  0  0  0  0  0  0  0  0  0  0
  -27.0853  -12.3406   19.9283 N   0  0  0  0  0  0  0  0  0  0  0  0
  -23.1293  -29.8011   21.3045 N   0  0  0  0  0  0  0  0  0  0  0  0
  -27.9544  -16.0461   20.2409 N   0  0  0  0  0  0  0  0  0  0  0  0
  -28.3634  -11.9208   17.9787 N   0  0  0  0  0  0  0  0  0  0  0  0
  -25.3495   -8.5574   17.9931 N   0  0  0  0  0  0  0  0  0  0  0  0
  -28.6312  -16.6854   18.0740 N   0  0  0  0  0  0  0  0  0  0  0  0
  -25.4551  -32.2268   22.7196 N   0  0  0  0  0  0  0  0  0  0  0  0
  -19.9897  -28.7328   20.6261 N   0  0  0  0  0  0  0  0  0  0  0  0
  -19.5371  -27.1569   17.4045 N   0  3  0  0  0  0  0  0  0  0  0  0
  -27.1333   -9.4543   16.8651 O   0  0  0  0  0  0  0  0  0  0  0  0
  -24.2819  -30.3781   23.5122 O   0  0  0  0  0  0  0  0  0  0  0  0
  -21.2520  -31.1789   21.4211 O   0  0  0  0  0  0  0  0  0  0  0  0
  -20.8405  -26.7168   19.8588 O   0  0  0  0  0  0  0  0  0  0  0  0
  -29.2373  -17.9433   19.9266 O   0  0  0  0  0  0  0  0  0  0  0  0
  -21.3688   -7.7186   21.7991 O   0  0  0  0  0  0  0  0  0  0  0  0
  -27.5375  -25.5933   20.3480 O   0  0  0  0  0  0  0  0  0  1  0  0
  -21.1960   -6.4988   27.1737 F   0  0  0  0  0  0  0  0  0  0  0  0
  -21.3888   -5.0912   22.6585 F   0  0  0  0  0  0  0  0  0  0  0  0
  1  2  1  0  0  0  0
  1  6  2  0  0  0  0
  2  7  2  0  0  0  0
  3 10  2  0  0  0  0
  3 18  1  0  0  0  0
  4 11  1  0  0  0  0
  4 18  2  0  0  0  0
  5  9  2  0  0  0  0
  5 19  1  0  0  0  0
  6 21  1  0  0  0  0
  7 23  1  0  0  0  0
  8 12  2  0  0  0  0
  8 22  1  0  0  0  0
  9 25  1  0  0  0  0
 10 27  1  0  0  0  0
 11 27  2  0  0  0  0
 12 28  1  0  0  0  0
 13 14  2  0  0  0  0
 13 29  1  0  0  0  0
 14 30  1  0  0  0  0
 15 19  2  0  0  0  0
 15 26  1  0  0  0  0
 16 24  1  0  0  0  0
 16 28  2  0  0  0  0
 17 30  2  0  0  0  0
 17 31  1  0  0  0  0
 18 32  1  0  0  0  0
 19 34  1  0  0  0  0
 20 32  1  0  0  0  0
 20 33  2  0  0  0  0
 20 36  1  0  0  0  0
 21 23  2  0  0  0  0
 21 41  1  0  0  0  0
 22 24  2  0  0  0  0
 22 42  1  0  0  0  0
 23 50  1  0  0  0  0
 24 43  1  0  0  0  0
 25 26  2  0  0  0  0
 25 53  1  0  0  0  0
 26 71  1  0  0  0  0
 27 80  1  0  0  0  0
 28 81  1  0  0  0  0
 29 31  2  0  0  0  0
 29 80  1  0  0  0  0
 30 82  1  0  0  0  0
 31 83  1  0  0  0  0
 32 65  2  0  0  0  0
 33 66  1  0  0  0  0
 33 69  1  0  0  0  0
 34 35  2  0  0  0  0
 35 59  1  0  0  0  0
 36 70  1  0  0  0  0
 36 75  2  0  0  0  0
 37 51  1  0  0  0  0
 37 72  1  0  0  0  0
 37 76  2  0  0  0  0
 38 62  1  0  0  0  0
 38 67  1  0  0  0  0
 38 77  2  0  0  0  0
 39 63  1  0  0  0  0
 39 73  1  0  0  0  0
 39 78  2  0  0  0  0
 40 68  1  0  0  0  0
 40 71  1  0  0  0  0
 40 79  2  0  0  0  0
 41 44  1  0  0  0  0
 42 51  1  0  0  0  0
 43 67  1  0  0  0  0
 44 46  1  0  0  0  0
 45 47  1  0  0  0  0
 45 48  1  0  0  0  0
 46 50  1  0  0  0  0
 47 52  1  0  0  0  0
 48 68  1  0  0  0  0
 49 52  1  0  0  0  0
 49 68  1  0  0  0  0
 50 72  1  0  0  0  0
 51 67  1  0  0  0  0
 52 66  1  0  0  0  0
 54 63  1  0  0  0  0
 55 64  1  0  0  0  0
 56 64  1  0  0  0  0
 57 64  1  0  0  0  0
 58 74  1  0  0  0  0
 59 60  1  0  0  0  0
 60 61  1  0  0  0  0
 61 81  1  0  0  0  0
 62 64  1  0  0  0  0
 62 73  1  0  0  0  0
 63 74  1  0  0  0  0
 65 66  1  0  0  0  0
M  CHG  1  74   1
M  ISO  4  40 100  61 101  71 100  81 101
M  END
> <Batch ID>
0126

> <Smiles>
CNC(C)C(=O)NC(C(=O)N1Cc2cc([101O:1][101CH2:1]CCC=Cc3ccc(C)c([100NH:0][100C:0](=O)N4CCCC(n5nc(-c6ccc(Oc7ccc(F)cc7F)cc6)c(C(N)=O)c5N)C4)c3)ccc2CC1C(=O)NC1CCCc2ccccc21)C(C)(C)C

> <Shape>
0.301

> <Color>
0.085

> <Negative vol penalty>
0.000

$$$$

  -OEChem-04052302113D

 85 93  0     1  0  0  0  0  0999 V2000
  -24.9879  -20.1772   15.7742 C   0  0  0  0  0  0  0  0  0  0  0  0
  -24.4353  -21.3371   16.3078 C   0  0  0  0  0  0  0  0  0  0  0  0
  -21.6906  -11.3777   22.3858 C   0  0  0  0  0  0  0  0  0  0  0  0
  -21.2296  -11.3440   20.0144 C   0  0  0  0  0  0  0  0  0  0  0  0
  -20.8186  -23.5077   23.4745 C   0  0  0  0  0  0  0  0  0  0  0  0
  -20.6853  -24.8956   23.5104 C   0  0  0  0  0  0  0  0  0  0  0  0
  -26.1192  -19.6115   16.3609 C   0  0  0  0  0  0  0  0  0  0  0  0
  -25.0131  -21.9314   17.4291 C   0  0  0  0  0  0  0  0  0  0  0  0
  -25.3489  -27.9214   18.6592 C   0  0  0  0  0  0  0  0  0  0  0  0
  -20.9080  -10.2354   22.5542 C   0  0  0  0  0  0  0  0  0  0  0  0
  -20.4471  -10.2017   20.1828 C   0  0  0  0  0  0  0  0  0  0  0  0
  -24.5793  -28.7577   19.4668 C   0  0  0  0  0  0  0  0  0  0  0  0
  -19.3253   -7.1193   23.5542 C   0  0  0  0  0  0  0  0  0  0  0  0
  -19.8307   -6.1001   24.3612 C   0  0  0  0  0  0  0  0  0  0  0  0
  -23.2209  -23.7351   23.5934 C   0  0  0  0  0  0  0  0  0  0  0  0
  -26.1734  -28.4859   21.2569 C   0  0  0  0  0  0  0  0  0  0  0  0
  -21.7366   -5.8823   22.8925 C   0  0  0  0  0  0  0  0  0  0  0  0
  -21.8514  -11.9320   21.1159 C   0  0  0  0  0  0  0  0  0  0  0  0
  -22.0863  -22.9274   23.5161 C   0  0  0  0  0  0  0  0  0  0  0  0
  -21.8199  -25.7034   23.5877 C   0  0  0  0  0  0  0  0  0  0  0  0
  -24.0399  -13.1653   20.6721 C   0  0  0  0  0  0  0  0  0  0  0  0
  -26.7169  -20.2046   17.4841 C   0  0  0  0  0  0  0  0  0  0  0  0
  -26.5328  -27.3514   19.1489 C   0  0  0  0  0  0  0  0  0  0  0  0
  -26.1527  -21.3724   18.0321 C   0  0  0  0  0  0  0  0  0  0  0  0
  -26.9575  -27.6448   20.4526 C   0  0  0  0  0  0  0  0  0  0  0  0
  -23.0877  -25.1232   23.6292 C   0  0  0  0  0  0  0  0  0  0  0  0
  -20.2863   -9.6474   21.4526 C   0  0  0  0  0  0  0  0  0  0  0  0
  -24.9900  -29.0377   20.7668 C   0  0  0  0  0  0  0  0  0  0  0  0
  -20.0255   -7.5200   22.4163 C   0  0  0  0  0  0  0  0  0  0  0  0
  -21.0364   -5.4816   24.0304 C   0  0  0  0  0  0  0  0  0  0  0  0
  -21.2311   -6.9015   22.0854 C   0  0  0  0  0  0  0  0  0  0  0  0
  -22.6592  -13.1123   20.9415 C   0  0  0  0  0  0  0  0  0  0  0  0
  -24.3239  -14.5070   20.5970 C   0  0  0  0  0  0  0  0  0  0  0  0
  -22.2244  -21.4800   23.4790 C   0  0  0  0  0  0  0  0  0  0  0  0
  -21.2886  -20.6151   23.0328 C   0  0  0  0  0  0  0  0  0  0  0  0
  -21.6563  -27.1705   23.6243 C   0  0  0  0  0  0  0  0  0  0  0  0
  -24.9816  -12.0972   20.5047 C   0  0  0  0  0  0  0  0  0  0  0  0
  -21.5835  -19.1682   23.0499 C   0  0  0  0  0  0  0  0  0  0  0  0
  -27.5516  -24.3832   19.6544 C   0  0  0  0  0  0  0  0  0  0  0  0
  -30.3471  -25.8762   20.3461 C   0  0  0  0  0  0  0  0  0  0  0  0
  -31.9400  -28.7206   21.3552 C   0  0  0  0  0  0  0  0  0  0  0  0
  -27.9108  -19.5303   18.1122 C   0  0  0  0  0  0  0  0  0  0  0  0
  -27.3655  -26.4727   18.2561 C   0  0  0  0  0  0  0  0  0  0  0  0
  -28.2312  -27.0743   21.0190 C   0  0  0  0  0  0  0  0  0  0  0  0
  -28.6836  -20.4307   19.0726 C   0  0  0  0  0  0  0  0  0  0  0  0
  -22.3484  -18.7069   19.4955 C   0  0  0  0  0  0  0  0  0  0  0  0
  -27.7255  -21.1547   20.0132 C   0  0  0  0  0  0  0  0  0  0  0  0
  -22.5952  -17.2016   19.4412 C   0  0  0  0  0  0  0  0  0  0  0  0
  -21.2737  -19.0735   20.5178 C   0  0  0  0  0  0  0  0  0  0  0  0
  -21.7928  -17.0369   21.8306 C   0  0  0  0  0  0  0  0  0  0  0  0
  -26.7653  -22.0605   19.2327 C   0  0  1  0  0  0  0  0  0  0  0  0
  -28.2869  -25.5357   19.0310 C   0  0  1  0  0  0  0  0  0  0  0  0
  -22.9037  -16.6497   20.8420 C   0  0  1  0  0  0  0  0  0  0  0  0
  -24.3171  -25.9676   23.7124 C   0  0  0  0  0  0  0  0  0  0  0  0
  -34.2254  -29.6237   21.8639 C   0  0  0  0  0  0  0  0  0  0  0  0
  -22.3919  -31.2635   20.9196 C   0  0  0  0  0  0  0  0  0  0  0  0
  -30.3440  -24.3793   23.0049 C   0  0  0  0  0  0  0  0  0  0  0  0
  -32.0703  -25.9916   23.8349 C   0  0  0  0  0  0  0  0  0  0  0  0
  -32.5773  -24.5169   21.8878 C   0  0  0  0  0  0  0  0  0  0  0  0
  -31.7309  -30.7689   19.2292 C   0  0  0  0  0  0  0  0  0  0  0  0
  -22.1269  -29.3578   22.5796 C   0  0  0  0  0  0  0  0  0  0  0  0
  -30.9728  -26.4488   21.5949 C   0  0  1  0  0  0  0  0  0  0  0  0
  -33.1524  -29.4468   20.8009 C   0  0  2  0  0  0  0  0  0  0  0  0
  -22.8320  -29.8645   21.3283 C   0  0  2  0  0  0  0  0  0  1  0  0
  -31.4660  -25.3435   22.5709 C   0  0  0  0  0  0  0  0  0  0  0  0
  -22.1046  -14.3241   21.0316 N   0  0  0  0  0  0  0  0  0  0  0  0
  -23.1421  -15.1511   20.8177 N   0  0  0  0  0  0  0  0  0  0  0  0
  -21.5609  -18.4857   21.8349 N   0  0  0  0  0  0  0  0  0  0  0  0
  -29.0075  -26.2158   20.1092 N   0  0  0  0  0  0  0  0  0  0  0  0
  -25.4667  -15.1869   20.3645 N   0  0  0  0  0  0  0  0  0  0  0  0
  -20.9557  -27.6996   24.6274 N   0  0  0  0  0  0  0  0  0  0  0  0
  -24.5216  -10.7777   20.6136 N   0  0  0  0  0  0  0  0  0  0  0  0
  -27.4343  -23.2794   18.8313 N   0  0  0  0  0  0  0  0  0  0  0  0
  -32.0198  -27.3601   21.1459 N   0  0  0  0  0  0  0  0  0  0  0  0
  -22.2162  -27.8967   22.6497 N   0  3  0  0  0  0  0  0  0  0  0  0
  -32.7635  -30.7943   20.2970 N   0  3  0  0  0  0  0  0  0  0  0  0
  -26.1981  -12.3068   20.2819 O   0  0  0  0  0  0  0  0  0  0  0  0
  -21.8275  -18.6505   24.1413 O   0  0  0  0  0  0  0  0  0  0  0  0
  -27.1236  -24.4870   20.7979 O   0  0  0  0  0  0  0  0  0  0  0  0
  -31.0241  -25.1600   19.6042 O   0  0  0  0  0  0  0  0  0  0  0  0
  -31.0165  -29.3017   21.9208 O   0  0  0  0  0  0  0  0  0  0  0  0
  -19.5227   -8.5326   21.6165 O   0  0  0  0  0  0  0  0  0  0  0  0
  -24.2404  -29.8532   21.5574 O   0  0  0  0  0  0  0  0  0  1  0  0
  -21.5224   -4.5039   24.8063 F   0  0  0  0  0  0  0  0  0  0  0  0
  -21.9089   -7.2830   20.9941 F   0  0  0  0  0  0  0  0  0  0  0  0
  1  2  1  0  0  0  0
  1  7  2  0  0  0  0
  2  8  2  0  0  0  0
  3 10  2  0  0  0  0
  3 18  1  0  0  0  0
  4 11  1  0  0  0  0
  4 18  2  0  0  0  0
  5  6  2  0  0  0  0
  5 19  1  0  0  0  0
  6 20  1  0  0  0  0
  7 22  1  0  0  0  0
  8 24  1  0  0  0  0
  9 12  2  0  0  0  0
  9 23  1  0  0  0  0
 10 27  1  0  0  0  0
 11 27  2  0  0  0  0
 12 28  1  0  0  0  0
 13 14  2  0  0  0  0
 13 29  1  0  0  0  0
 14 30  1  0  0  0  0
 15 19  2  0  0  0  0
 15 26  1  0  0  0  0
 16 25  1  0  0  0  0
 16 28  2  0  0  0  0
 17 30  2  0  0  0  0
 17 31  1  0  0  0  0
 18 32  1  0  0  0  0
 19 34  1  0  0  0  0
 20 26  2  0  0  0  0
 20 36  1  0  0  0  0
 21 32  1  0  0  0  0
 21 33  2  0  0  0  0
 21 37  1  0  0  0  0
 22 24  2  0  0  0  0
 22 42  1  0  0  0  0
 23 25  2  0  0  0  0
 23 43  1  0  0  0  0
 24 51  1  0  0  0  0
 25 44  1  0  0  0  0
 26 54  1  0  0  0  0
 27 82  1  0  0  0  0
 28 83  1  0  0  0  0
 29 31  2  0  0  0  0
 29 82  1  0  0  0  0
 30 84  1  0  0  0  0
 31 85  1  0  0  0  0
 32 66  2  0  0  0  0
 33 67  1  0  0  0  0
 33 70  1  0  0  0  0
 34 35  2  0  0  0  0
 35 38  1  0  0  0  0
 36 71  1  0  0  0  0
 36 75  2  0  0  0  0
 37 72  1  0  0  0  0
 37 77  2  0  0  0  0
 38 68  1  0  0  0  0
 38 78  2  0  0  0  0
 39 52  1  0  0  0  0
 39 73  1  0  0  0  0
 39 79  2  0  0  0  0
 40 62  1  0  0  0  0
 40 69  1  0  0  0  0
 40 80  2  0  0  0  0
 41 63  1  0  0  0  0
 41 74  1  0  0  0  0
 41 81  2  0  0  0  0
 42 45  1  0  0  0  0
 43 52  1  0  0  0  0
 44 69  1  0  0  0  0
 45 47  1  0  0  0  0
 46 48  1  0  0  0  0
 46 49  1  0  0  0  0
 47 51  1  0  0  0  0
 48 53  1  0  0  0  0
 49 68  1  0  0  0  0
 50 53  1  0  0  0  0
 50 68  1  0  0  0  0
 51 73  1  0  0  0  0
 52 69  1  0  0  0  0
 53 67  1  0  0  0  0
 55 63  1  0  0  0  0
 56 64  1  0  0  0  0
 57 65  1  0  0  0  0
 58 65  1  0  0  0  0
 59 65  1  0  0  0  0
 60 76  1  0  0  0  0
 61 64  1  0  0  0  0
 61 75  1  0  0  0  0
 62 65  1  0  0  0  0
 62 74  1  0  0  0  0
 63 76  1  0  0  0  0
 64 83  1  0  0  0  0
 66 67  1  0  0  0  0
M  CHG  2  75   1  76   1
M  ISO  4  35 100  38 100  64 101  83 101
M  END
> <Batch ID>
0126

> <Smiles>
CNC(C)C(=O)NC(C(=O)N1Cc2cc([101O:1][101CH:1](C)CNC(=N)c3ccc(C=[100CH:0][100C:0](=O)N4CCCC(n5nc(-c6ccc(Oc7ccc(F)cc7F)cc6)c(C(N)=O)c5N)C4)cc3C)ccc2CC1C(=O)NC1CCCc2ccccc21)C(C)(C)C

> <Shape>
0.205

> <Color>
0.103

> <Negative vol penalty>
0.000

$$$$

  -OEChem-04052302113D

 82 90  0     1  0  0  0  0  0999 V2000
  -24.3546  -21.3181   18.5020 C   0  0  0  0  0  0  0  0  0  0  0  0
  -25.4885  -21.3797   19.3056 C   0  0  0  0  0  0  0  0  0  0  0  0
  -23.0748   -9.7791   20.0677 C   0  0  0  0  0  0  0  0  0  0  0  0
  -23.7153  -10.0401   22.3825 C   0  0  0  0  0  0  0  0  0  0  0  0
  -23.9567  -22.4379   17.7728 C   0  0  0  0  0  0  0  0  0  0  0  0
  -26.2259  -22.5610   19.3797 C   0  0  0  0  0  0  0  0  0  0  0  0
  -27.5181  -23.7500   24.1295 C   0  0  0  0  0  0  0  0  0  0  0  0
  -32.4042  -17.8504   23.2117 C   0  0  0  0  0  0  0  0  0  0  0  0
  -31.8539  -16.8755   22.3797 C   0  0  0  0  0  0  0  0  0  0  0  0
  -22.3299   -8.6480   20.4013 C   0  0  0  0  0  0  0  0  0  0  0  0
  -22.9705   -8.9090   22.7162 C   0  0  0  0  0  0  0  0  0  0  0  0
  -28.5884  -23.0551   24.6911 C   0  0  0  0  0  0  0  0  0  0  0  0
  -23.3211   -5.5513   22.5310 C   0  0  0  0  0  0  0  0  0  0  0  0
  -23.9084   -4.6171   23.3841 C   0  0  0  0  0  0  0  0  0  0  0  0
  -30.0401  -24.9236   24.2213 C   0  0  0  0  0  0  0  0  0  0  0  0
  -30.1983  -18.7475   23.6195 C   0  0  0  0  0  0  0  0  0  0  0  0
  -22.1197   -4.9450   24.9747 C   0  0  0  0  0  0  0  0  0  0  0  0
  -23.7675  -10.4752   21.0583 C   0  0  0  0  0  0  0  0  0  0  0  0
  -24.0912  -12.9783   20.6875 C   0  0  0  0  0  0  0  0  0  0  0  0
  -24.6840  -23.6364   17.8455 C   0  0  0  0  0  0  0  0  0  0  0  0
  -27.7034  -25.0347   23.5989 C   0  0  0  0  0  0  0  0  0  0  0  0
  -25.8381  -23.6974   18.6497 C   0  0  0  0  0  0  0  0  0  0  0  0
  -28.9699  -25.6336   23.6558 C   0  0  0  0  0  0  0  0  0  0  0  0
  -29.6480  -17.7727   22.7873 C   0  0  0  0  0  0  0  0  0  0  0  0
  -31.5764  -18.7864   23.8317 C   0  0  0  0  0  0  0  0  0  0  0  0
  -30.4759  -16.8366   22.1674 C   0  0  0  0  0  0  0  0  0  0  0  0
  -22.2777   -8.2129   21.7255 C   0  0  0  0  0  0  0  0  0  0  0  0
  -29.8502  -23.6408   24.7345 C   0  0  0  0  0  0  0  0  0  0  0  0
  -22.1331   -6.1826   22.8998 C   0  0  0  0  0  0  0  0  0  0  0  0
  -23.3077   -4.3139   24.6059 C   0  0  0  0  0  0  0  0  0  0  0  0
  -21.5324   -5.8794   24.1217 C   0  0  0  0  0  0  0  0  0  0  0  0
  -24.5376  -11.6434   20.7142 C   0  0  0  0  0  0  0  0  0  0  0  0
  -25.1935  -13.7012   20.3018 C   0  0  0  0  0  0  0  0  0  0  0  0
  -32.4731  -20.8730   24.0908 C   0  0  0  0  0  0  0  0  0  0  0  0
  -22.7960  -13.5166   20.9847 C   0  0  0  0  0  0  0  0  0  0  0  0
  -27.3913  -26.3374   20.7163 C   0  0  0  0  0  0  0  0  0  0  0  0
  -28.0138  -29.0875   22.3199 C   0  0  0  0  0  0  0  0  0  0  0  0
  -29.4069  -30.6019   25.0425 C   0  0  0  0  0  0  0  0  0  0  0  0
  -30.6333  -14.8406   20.6386 C   0  0  0  0  0  0  0  0  0  0  0  0
  -24.2420  -24.8061   17.0023 C   0  0  0  0  0  0  0  0  0  0  0  0
  -26.5329  -25.7816   23.0207 C   0  0  0  0  0  0  0  0  0  0  0  0
  -29.2171  -27.0187   23.1182 C   0  0  0  0  0  0  0  0  0  0  0  0
  -24.8650  -26.1333   17.4272 C   0  0  0  0  0  0  0  0  0  0  0  0
  -29.6653  -12.1734   18.4878 C   0  0  0  0  0  0  0  0  0  0  0  0
  -26.3652  -25.9713   17.6512 C   0  0  0  0  0  0  0  0  0  0  0  0
  -28.2082  -11.9075   18.8731 C   0  0  0  0  0  0  0  0  0  0  0  0
  -30.5151  -12.5416   19.7027 C   0  0  0  0  0  0  0  0  0  0  0  0
  -28.5327  -13.3798   20.9014 C   0  0  0  0  0  0  0  0  0  0  0  0
  -26.6500  -24.9682   18.7755 C   0  0  1  0  0  0  0  0  0  0  0  0
  -26.9472  -26.8793   22.0455 C   0  0  1  0  0  0  0  0  0  0  0  0
  -27.6235  -13.0684   19.7013 C   0  0  2  0  0  0  0  0  0  0  0  0
  -28.1683  -17.7540   22.5789 C   0  0  0  0  0  0  0  0  0  0  0  0
  -29.7902  -32.8650   26.0568 C   0  0  0  0  0  0  0  0  0  0  0  0
  -30.2470  -29.6087   20.3072 C   0  0  0  0  0  0  0  0  0  0  0  0
  -31.1743  -31.3182   21.8839 C   0  0  0  0  0  0  0  0  0  0  0  0
  -28.8971  -31.6249   20.9129 C   0  0  0  0  0  0  0  0  0  0  0  0
  -27.8398  -29.9135   27.4569 C   0  0  0  0  0  0  0  0  0  0  0  0
  -33.0649  -22.0042   24.8882 C   0  0  0  0  0  0  0  0  0  0  0  0
  -32.1948  -23.2430   24.7581 C   0  0  0  0  0  0  0  0  0  1  0  0
  -29.2624  -29.8553   22.6812 C   0  0  1  0  0  0  0  0  0  0  0  0
  -28.8697  -31.6561   25.9937 C   0  0  2  0  0  0  0  0  0  0  0  0
  -29.8913  -30.5749   21.4548 C   0  0  0  0  0  0  0  0  0  0  0  0
  -25.8232  -11.5226   20.3726 N   0  0  0  0  0  0  0  0  0  0  0  0
  -32.1309  -19.7685   24.6695 N   0  0  0  0  0  0  0  0  0  0  0  0
  -26.1941  -12.7909   20.1274 N   0  0  0  0  0  0  0  0  0  0  0  0
  -28.0422  -27.7060   22.5571 N   0  0  0  0  0  0  0  0  0  0  0  0
  -29.9019  -13.6511   20.4361 N   0  0  0  0  0  0  0  0  0  0  0  0
  -25.3948  -15.0205   20.0981 N   0  0  0  0  0  0  0  0  0  0  0  0
  -21.7767  -12.6333   21.3656 N   0  0  0  0  0  0  0  0  0  0  0  0
  -29.9359  -15.8373   21.3203 N   0  0  0  0  0  0  0  0  0  0  0  0
  -26.4327  -25.5824   20.0678 N   0  0  0  0  0  0  0  0  0  0  0  0
  -28.8905  -30.7492   23.7725 N   0  0  0  0  0  0  0  0  0  0  0  0
  -28.7365  -31.0945   27.3676 N   0  3  0  0  0  0  0  0  0  0  0  0
  -22.5455  -14.7427   20.8988 O   0  0  0  0  0  0  0  0  0  0  0  0
  -28.5196  -26.5871   20.3085 O   0  0  0  0  0  0  0  0  0  0  0  0
  -27.0462  -29.6925   21.8515 O   0  0  0  0  0  0  0  0  0  0  0  0
  -30.2076  -29.7368   25.3905 O   0  0  0  0  0  0  0  0  0  0  0  0
  -31.7834  -14.9756   20.2130 O   0  0  0  0  0  0  0  0  0  0  0  0
  -21.5508   -7.1093   22.0515 O   0  0  0  0  0  0  0  0  0  0  0  0
  -30.8968  -22.9645   25.2815 O   0  0  0  0  0  0  0  0  0  1  0  0
  -23.8710   -3.4155   25.4243 F   0  0  0  0  0  0  0  0  0  0  0  0
  -20.3905   -6.4816   24.4809 F   0  0  0  0  0  0  0  0  0  0  0  0
  1  2  1  0  0  0  0
  1  5  2  0  0  0  0
  2  6  2  0  0  0  0
  3 10  2  0  0  0  0
  3 18  1  0  0  0  0
  4 11  1  0  0  0  0
  4 18  2  0  0  0  0
  5 20  1  0  0  0  0
  6 22  1  0  0  0  0
  7 12  2  0  0  0  0
  7 21  1  0  0  0  0
  8  9  2  0  0  0  0
  8 25  1  0  0  0  0
  9 26  1  0  0  0  0
 10 27  1  0  0  0  0
 11 27  2  0  0  0  0
 12 28  1  0  0  0  0
 13 14  2  0  0  0  0
 13 29  1  0  0  0  0
 14 30  1  0  0  0  0
 15 23  1  0  0  0  0
 15 28  2  0  0  0  0
 16 24  1  0  0  0  0
 16 25  2  0  0  0  0
 17 30  2  0  0  0  0
 17 31  1  0  0  0  0
 18 32  1  0  0  0  0
 19 32  1  0  0  0  0
 19 33  2  0  0  0  0
 19 35  1  0  0  0  0
 20 22  2  0  0  0  0
 20 40  1  0  0  0  0
 21 23  2  0  0  0  0
 21 41  1  0  0  0  0
 22 49  1  0  0  0  0
 23 42  1  0  0  0  0
 24 26  2  0  0  0  0
 24 52  1  0  0  0  0
 25 64  1  0  0  0  0
 26 70  1  0  0  0  0
 27 79  1  0  0  0  0
 28 80  1  0  0  0  0
 29 31  2  0  0  0  0
 29 79  1  0  0  0  0
 30 81  1  0  0  0  0
 31 82  1  0  0  0  0
 32 63  2  0  0  0  0
 33 65  1  0  0  0  0
 33 68  1  0  0  0  0
 34 58  1  0  0  0  0
 34 64  2  0  0  0  0
 35 69  1  0  0  0  0
 35 74  2  0  0  0  0
 36 50  1  0  0  0  0
 36 71  1  0  0  0  0
 36 75  2  0  0  0  0
 37 60  1  0  0  0  0
 37 66  1  0  0  0  0
 37 76  2  0  0  0  0
 38 61  1  0  0  0  0
 38 72  1  0  0  0  0
 38 77  2  0  0  0  0
 39 67  1  0  0  0  0
 39 70  1  0  0  0  0
 39 78  2  0  0  0  0
 40 43  1  0  0  0  0
 41 50  1  0  0  0  0
 42 66  1  0  0  0  0
 43 45  1  0  0  0  0
 44 46  1  0  0  0  0
 44 47  1  0  0  0  0
 45 49  1  0  0  0  0
 46 51  1  0  0  0  0
 47 67  1  0  0  0  0
 48 51  1  0  0  0  0
 48 67  1  0  0  0  0
 49 71  1  0  0  0  0
 50 66  1  0  0  0  0
 51 65  1  0  0  0  0
 53 61  1  0  0  0  0
 54 62  1  0  0  0  0
 55 62  1  0  0  0  0
 56 62  1  0  0  0  0
 57 73  1  0  0  0  0
 58 59  1  0  0  0  0
 59 80  1  0  0  0  0
 60 62  1  0  0  0  0
 60 72  1  0  0  0  0
 61 73  1  0  0  0  0
 63 65  1  0  0  0  0
M  CHG  1  73   1
M  ISO  4  39 100  59 101  70 100  80 101
M  END
> <Batch ID>
0126

> <Smiles>
CNC(C)C(=O)NC(C(=O)N1Cc2cc([101O:1][101CH2:1]C=CNc3ccc([100NH:0][100C:0](=O)N4CCCC(n5nc(-c6ccc(Oc7ccc(F)cc7F)cc6)c(C(N)=O)c5N)C4)c(C)c3)ccc2CC1C(=O)NC1CCCc2ccccc21)C(C)(C)C

> <Shape>
0.222

> <Color>
0.216

> <Negative vol penalty>
0.000

$$$$

  -OEChem-04052302113D

 85 93  0     1  0  0  0  0  0999 V2000
  -32.3453  -30.2310   12.5398 C   0  0  0  0  0  0  0  0  0  0  0  0
  -32.5944  -29.8888   13.8651 C   0  0  0  0  0  0  0  0  0  0  0  0
  -23.0755   -9.8692   19.9376 C   0  0  0  0  0  0  0  0  0  0  0  0
  -23.8359   -9.8707   22.2308 C   0  0  0  0  0  0  0  0  0  0  0  0
  -31.3303  -29.5868   11.8337 C   0  0  0  0  0  0  0  0  0  0  0  0
  -31.8278  -28.9029   14.4853 C   0  0  0  0  0  0  0  0  0  0  0  0
  -33.7194  -24.8674   18.6856 C   0  0  0  0  0  0  0  0  0  0  0  0
  -22.3317   -8.7154   20.1850 C   0  0  0  0  0  0  0  0  0  0  0  0
  -23.0921   -8.7169   22.4782 C   0  0  0  0  0  0  0  0  0  0  0  0
  -33.6225  -24.8460   20.0762 C   0  0  0  0  0  0  0  0  0  0  0  0
  -21.1076   -5.9766   23.8088 C   0  0  0  0  0  0  0  0  0  0  0  0
  -20.3516   -5.9302   24.9800 C   0  0  0  0  0  0  0  0  0  0  0  0
  -30.2443  -19.2161   22.6529 C   0  0  0  0  0  0  0  0  0  0  0  0
  -31.6460  -23.4729   19.9113 C   0  0  0  0  0  0  0  0  0  0  0  0
  -31.9589  -17.0777   22.1338 C   0  0  0  0  0  0  0  0  0  0  0  0
  -19.1068   -7.8692   24.2534 C   0  0  0  0  0  0  0  0  0  0  0  0
  -23.8277  -10.4468   20.9605 C   0  0  0  0  0  0  0  0  0  0  0  0
  -31.6181  -19.3612   22.8455 C   0  0  0  0  0  0  0  0  0  0  0  0
  -24.1694  -12.9723   20.8464 C   0  0  0  0  0  0  0  0  0  0  0  0
  -30.5572  -28.5858   12.4426 C   0  0  0  0  0  0  0  0  0  0  0  0
  -32.7725  -24.1997   17.8957 C   0  0  0  0  0  0  0  0  0  0  0  0
  -30.8005  -28.2457   13.7870 C   0  0  0  0  0  0  0  0  0  0  0  0
  -31.7346  -23.4853   18.5109 C   0  0  0  0  0  0  0  0  0  0  0  0
  -29.7277  -18.0018   22.2009 C   0  0  0  0  0  0  0  0  0  0  0  0
  -30.5851  -16.9326   21.9413 C   0  0  0  0  0  0  0  0  0  0  0  0
  -22.3400   -8.1393   21.4553 C   0  0  0  0  0  0  0  0  0  0  0  0
  -32.5840  -24.1511   20.6892 C   0  0  0  0  0  0  0  0  0  0  0  0
  -20.8633   -6.9693   22.8598 C   0  0  0  0  0  0  0  0  0  0  0  0
  -19.3512   -6.8764   25.2024 C   0  0  0  0  0  0  0  0  0  0  0  0
  -32.4755  -18.2920   22.5859 C   0  0  0  0  0  0  0  0  0  0  0  0
  -19.8629   -7.9156   23.0821 C   0  0  0  0  0  0  0  0  0  0  0  0
  -24.5966  -11.6383   20.7054 C   0  0  0  0  0  0  0  0  0  0  0  0
  -25.2614  -13.7226   20.4847 C   0  0  0  0  0  0  0  0  0  0  0  0
  -32.1583  -20.6452   23.3228 C   0  0  0  0  0  0  0  0  0  0  0  0
  -31.5192  -21.4994   24.1375 C   0  0  0  0  0  0  0  0  0  0  0  0
  -22.8990  -13.4870   21.2669 C   0  0  0  0  0  0  0  0  0  0  0  0
  -30.6479  -25.0919   15.7062 C   0  0  0  0  0  0  0  0  0  0  0  0
  -30.2218  -21.8928   15.3798 C   0  0  0  0  0  0  0  0  0  0  0  0
  -30.4597  -18.7822   16.7634 C   0  0  0  0  0  0  0  0  0  0  0  0
  -30.7276  -14.7680   20.6606 C   0  0  0  0  0  0  0  0  0  0  0  0
  -29.4398  -27.9507   11.6534 C   0  0  0  0  0  0  0  0  0  0  0  0
  -32.9064  -24.2102   16.3976 C   0  0  0  0  0  0  0  0  0  0  0  0
  -30.7040  -22.7352   17.7085 C   0  0  0  0  0  0  0  0  0  0  0  0
  -28.9200  -26.6540   12.2688 C   0  0  0  0  0  0  0  0  0  0  0  0
  -29.6127  -12.3598   18.2868 C   0  0  0  0  0  0  0  0  0  0  0  0
  -28.6952  -26.8270   13.7676 C   0  0  0  0  0  0  0  0  0  0  0  0
  -28.1732  -12.0672   18.7160 C   0  0  0  0  0  0  0  0  0  0  0  0
  -30.5281  -12.5858   19.4888 C   0  0  0  0  0  0  0  0  0  0  0  0
  -28.6215  -13.3069   20.8722 C   0  0  0  0  0  0  0  0  0  0  0  0
  -30.0068  -27.1639   14.4870 C   0  0  1  0  0  0  0  0  0  0  0  0
  -31.5920  -23.9233   15.6782 C   0  0  1  0  0  0  0  0  0  0  0  0
  -27.6484  -13.1364   19.6942 C   0  0  2  0  0  0  0  0  0  0  0  0
  -27.8573  -17.9494   20.5319 C   0  0  0  0  0  0  0  0  0  0  0  0
  -30.0002  -16.3654   16.2679 C   0  0  0  0  0  0  0  0  0  0  0  0
  -27.2413  -22.3707   15.8250 C   0  0  0  0  0  0  0  0  0  0  0  0
  -26.9852  -19.9195   16.2656 C   0  0  0  0  0  0  0  0  0  0  0  0
  -27.7752  -20.7081   14.0348 C   0  0  0  0  0  0  0  0  0  0  0  0
  -33.3135  -18.0579   17.0640 C   0  0  0  0  0  0  0  0  0  0  0  0
  -28.2518  -17.8740   22.0034 C   0  0  0  0  0  0  0  0  0  0  0  0
  -32.1133  -22.7987   24.6026 C   0  0  0  0  0  0  0  0  0  0  0  0
  -31.2871  -23.9896   24.1201 C   0  0  0  0  0  0  0  0  0  0  0  0
  -31.1771  -24.0171   22.6019 C   0  0  0  0  0  0  0  0  0  1  0  0
  -29.3271  -20.8621   16.0248 C   0  0  1  0  0  0  0  0  0  0  0  0
  -31.0316  -17.4823   16.2271 C   0  0  2  0  0  0  0  0  0  0  0  0
  -27.8504  -20.9807   15.5529 C   0  0  0  0  0  0  0  0  0  0  0  0
  -25.8614  -11.5435   20.2866 N   0  0  0  0  0  0  0  0  0  0  0  0
  -26.2382  -12.8274   20.1613 N   0  0  0  0  0  0  0  0  0  0  0  0
  -30.8742  -22.7807   16.2469 N   0  0  0  0  0  0  0  0  0  0  0  0
  -29.9693  -13.6145   20.3687 N   0  0  0  0  0  0  0  0  0  0  0  0
  -25.4718  -15.0543   20.4148 N   0  0  0  0  0  0  0  0  0  0  0  0
  -21.8872  -12.5770   21.6022 N   0  0  0  0  0  0  0  0  0  0  0  0
  -30.0804  -15.6910   21.4813 N   0  0  0  0  0  0  0  0  0  0  0  0
  -30.8118  -25.9729   14.6544 N   0  0  0  0  0  0  0  0  0  0  0  0
  -29.9381  -19.5651   15.7552 N   0  0  0  0  0  0  0  0  0  0  0  0
  -32.2110  -17.0626   17.0358 N   0  3  0  0  0  0  0  0  0  0  0  0
  -22.6627  -14.7175   21.3272 O   0  0  0  0  0  0  0  0  0  0  0  0
  -29.8302  -25.1864   16.6141 O   0  0  0  0  0  0  0  0  0  0  0  0
  -30.3432  -21.9049   14.1523 O   0  0  0  0  0  0  0  0  0  0  0  0
  -30.4709  -19.0724   17.9576 O   0  0  0  0  0  0  0  0  0  0  0  0
  -31.8566  -14.9379   20.1931 O   0  0  0  0  0  0  0  0  0  0  0  0
  -21.6141   -7.0136   21.6971 O   0  0  0  0  0  0  0  0  0  0  0  0
  -32.4867  -24.1290   22.0464 O   0  0  0  0  0  0  0  0  0  1  0  0
  -18.6243   -6.8308   26.3265 F   0  0  0  0  0  0  0  0  0  0  0  0
  -33.7985  -18.4161   22.7668 F   0  0  0  0  0  0  0  0  0  0  0  0
  -19.6227   -8.8710   22.1736 F   0  0  0  0  0  0  0  0  0  0  0  0
  1  2  1  0  0  0  0
  1  5  2  0  0  0  0
  2  6  2  0  0  0  0
  3  8  2  0  0  0  0
  3 17  1  0  0  0  0
  4  9  1  0  0  0  0
  4 17  2  0  0  0  0
  5 20  1  0  0  0  0
  6 22  1  0  0  0  0
  7 10  2  0  0  0  0
  7 21  1  0  0  0  0
  8 26  1  0  0  0  0
  9 26  2  0  0  0  0
 10 27  1  0  0  0  0
 11 12  2  0  0  0  0
 11 28  1  0  0  0  0
 12 29  1  0  0  0  0
 13 18  2  0  0  0  0
 13 24  1  0  0  0  0
 14 23  1  0  0  0  0
 14 27  2  0  0  0  0
 15 25  1  0  0  0  0
 15 30  2  0  0  0  0
 16 29  2  0  0  0  0
 16 31  1  0  0  0  0
 17 32  1  0  0  0  0
 18 30  1  0  0  0  0
 18 34  1  0  0  0  0
 19 32  1  0  0  0  0
 19 33  2  0  0  0  0
 19 36  1  0  0  0  0
 20 22  2  0  0  0  0
 20 41  1  0  0  0  0
 21 23  2  0  0  0  0
 21 42  1  0  0  0  0
 22 50  1  0  0  0  0
 23 43  1  0  0  0  0
 24 25  2  0  0  0  0
 24 59  1  0  0  0  0
 25 72  1  0  0  0  0
 26 81  1  0  0  0  0
 27 82  1  0  0  0  0
 28 31  2  0  0  0  0
 28 81  1  0  0  0  0
 29 83  1  0  0  0  0
 30 84  1  0  0  0  0
 31 85  1  0  0  0  0
 32 66  2  0  0  0  0
 33 67  1  0  0  0  0
 33 70  1  0  0  0  0
 34 35  2  0  0  0  0
 35 60  1  0  0  0  0
 36 71  1  0  0  0  0
 36 76  2  0  0  0  0
 37 51  1  0  0  0  0
 37 73  1  0  0  0  0
 37 77  2  0  0  0  0
 38 63  1  0  0  0  0
 38 68  1  0  0  0  0
 38 78  2  0  0  0  0
 39 64  1  0  0  0  0
 39 74  1  0  0  0  0
 39 79  2  0  0  0  0
 40 69  1  0  0  0  0
 40 72  1  0  0  0  0
 40 80  2  0  0  0  0
 41 44  1  0  0  0  0
 42 51  1  0  0  0  0
 43 68  1  0  0  0  0
 44 46  1  0  0  0  0
 45 47  1  0  0  0  0
 45 48  1  0  0  0  0
 46 50  1  0  0  0  0
 47 52  1  0  0  0  0
 48 69  1  0  0  0  0
 49 52  1  0  0  0  0
 49 69  1  0  0  0  0
 50 73  1  0  0  0  0
 51 68  1  0  0  0  0
 52 67  1  0  0  0  0
 53 59  1  0  0  0  0
 54 64  1  0  0  0  0
 55 65  1  0  0  0  0
 56 65  1  0  0  0  0
 57 65  1  0  0  0  0
 58 75  1  0  0  0  0
 60 61  1  0  0  0  0
 61 62  1  0  0  0  0
 62 82  1  0  0  0  0
 63 65  1  0  0  0  0
 63 74  1  0  0  0  0
 64 75  1  0  0  0  0
 66 67  1  0  0  0  0
M  CHG  1  75   1
M  ISO  4  40 100  62 101  72 100  82 101
M  END
> <Batch ID>
0126

> <Smiles>
CCc1cc(C=CCC[101CH2:1][101O:1]c2ccc3c(c2)CN(C(=O)C(NC(=O)C(C)NC)C(C)(C)C)C(C(=O)NC2CCCc4ccccc42)C3)c(F)cc1[100NH:0][100C:0](=O)N1CCCC(n2nc(-c3ccc(Oc4ccc(F)cc4F)cc3)c(C(N)=O)c2N)C1

> <Shape>
0.197

> <Color>
0.196

> <Negative vol penalty>
0.000

$$$$

  -OEChem-04052302113D

 84 92  0     1  0  0  0  0  0999 V2000
  -33.5085  -26.8030   16.8782 C   0  0  0  0  0  0  0  0  0  0  0  0
  -32.4236  -25.9721   17.1391 C   0  0  0  0  0  0  0  0  0  0  0  0
  -27.0146  -21.7243   23.7326 C   0  0  0  0  0  0  0  0  0  0  0  0
  -29.4205  -21.7477   23.9522 C   0  0  0  0  0  0  0  0  0  0  0  0
  -20.7075  -16.7088   19.9146 C   0  0  0  0  0  0  0  0  0  0  0  0
  -33.8217  -27.8364   17.7602 C   0  0  0  0  0  0  0  0  0  0  0  0
  -31.6519  -26.1735   18.2830 C   0  0  0  0  0  0  0  0  0  0  0  0
  -25.6166  -25.3041   18.8522 C   0  0  0  0  0  0  0  0  0  0  0  0
  -20.7993  -15.3742   19.5197 C   0  0  0  0  0  0  0  0  0  0  0  0
  -26.8959  -22.3681   24.9643 C   0  0  0  0  0  0  0  0  0  0  0  0
  -29.3018  -22.3916   25.1839 C   0  0  0  0  0  0  0  0  0  0  0  0
  -24.8655  -24.2491   19.3687 C   0  0  0  0  0  0  0  0  0  0  0  0
  -27.0539  -21.5340   28.2359 C   0  0  0  0  0  0  0  0  0  0  0  0
  -26.1003  -21.0487   29.1308 C   0  0  0  0  0  0  0  0  0  0  0  0
  -23.1131  -16.8163   20.1110 C   0  0  0  0  0  0  0  0  0  0  0  0
  -24.7154  -25.3994   21.4838 C   0  0  0  0  0  0  0  0  0  0  0  0
  -24.9930  -23.1959   29.1152 C   0  0  0  0  0  0  0  0  0  0  0  0
  -28.2769  -21.4140   23.2266 C   0  0  0  0  0  0  0  0  0  0  0  0
  -21.8644  -17.4299   20.2102 C   0  0  0  0  0  0  0  0  0  0  0  0
  -23.2050  -15.4816   19.7161 C   0  0  0  0  0  0  0  0  0  0  0  0
  -28.5102  -21.3508   20.6871 C   0  0  0  0  0  0  0  0  0  0  0  0
  -33.0476  -28.0565   18.9104 C   0  0  0  0  0  0  0  0  0  0  0  0
  -25.9325  -26.4115   19.6523 C   0  0  0  0  0  0  0  0  0  0  0  0
  -31.9559  -27.2099   19.1819 C   0  0  0  0  0  0  0  0  0  0  0  0
  -25.4685  -26.4682   20.9743 C   0  0  0  0  0  0  0  0  0  0  0  0
  -22.0480  -14.7606   19.4205 C   0  0  0  0  0  0  0  0  0  0  0  0
  -28.0395  -22.7018   25.6899 C   0  0  0  0  0  0  0  0  0  0  0  0
  -24.4172  -24.2953   20.6855 C   0  0  0  0  0  0  0  0  0  0  0  0
  -26.9771  -22.8502   27.7807 C   0  0  0  0  0  0  0  0  0  0  0  0
  -25.0699  -21.8797   29.5704 C   0  0  0  0  0  0  0  0  0  0  0  0
  -25.9466  -23.6812   28.2203 C   0  0  0  0  0  0  0  0  0  0  0  0
  -28.4002  -20.7484   21.9546 C   0  0  0  0  0  0  0  0  0  0  0  0
  -28.6011  -20.2959   19.8123 C   0  0  0  0  0  0  0  0  0  0  0  0
  -21.7655  -18.8397   20.6276 C   0  0  0  0  0  0  0  0  0  0  0  0
  -24.5366  -14.8577   19.6196 C   0  0  0  0  0  0  0  0  0  0  0  0
  -22.7711  -19.7237   20.5671 C   0  0  0  0  0  0  0  0  0  0  0  0
  -28.5286  -22.7398   20.3321 C   0  0  0  0  0  0  0  0  0  0  0  0
  -22.5702  -21.1293   21.0249 C   0  0  0  0  0  0  0  0  0  0  0  0
  -28.6303  -27.7178   20.7102 C   0  0  0  0  0  0  0  0  0  0  0  0
  -26.6259  -30.0143   21.8196 C   0  0  0  0  0  0  0  0  0  0  0  0
  -23.4781  -30.8778   22.8158 C   0  0  0  0  0  0  0  0  0  0  0  0
  -26.7409  -14.6027   20.2255 C   0  0  0  0  0  0  0  0  0  0  0  0
  -33.4534  -29.1567   19.8589 C   0  0  0  0  0  0  0  0  0  0  0  0
  -26.7210  -27.5534   19.0721 C   0  0  0  0  0  0  0  0  0  0  0  0
  -25.7634  -27.6438   21.8685 C   0  0  0  0  0  0  0  0  0  0  0  0
  -32.3601  -29.5370   20.8540 C   0  0  0  0  0  0  0  0  0  0  0  0
  -30.0852  -15.7628   19.5362 C   0  0  0  0  0  0  0  0  0  0  0  0
  -31.7415  -28.2867   21.4711 C   0  0  0  0  0  0  0  0  0  0  0  0
  -30.0485  -17.2202   19.9957 C   0  0  0  0  0  0  0  0  0  0  0  0
  -29.2131  -14.8752   20.4191 C   0  0  0  0  0  0  0  0  0  0  0  0
  -27.7561  -16.7990   20.9891 C   0  0  0  0  0  0  0  0  0  0  0  0
  -31.0800  -27.4120   20.3993 C   0  0  1  0  0  0  0  0  0  0  0  0
  -27.4204  -28.3969   20.1336 C   0  0  1  0  0  0  0  0  0  0  0  0
  -28.6003  -17.7301   20.1022 C   0  0  1  0  0  0  0  0  0  0  0  0
  -22.1181  -13.3297   18.9963 C   0  0  0  0  0  0  0  0  0  0  0  0
  -22.1556  -32.8164   23.7047 C   0  0  0  0  0  0  0  0  0  0  0  0
  -27.8871  -29.6110   24.5685 C   0  0  0  0  0  0  0  0  0  0  0  0
  -25.9400  -30.8304   25.5637 C   0  0  0  0  0  0  0  0  0  0  0  0
  -27.4527  -31.9976   23.9599 C   0  0  0  0  0  0  0  0  0  0  0  0
  -21.6705  -30.8688   20.4725 C   0  0  0  0  0  0  0  0  0  0  0  0
  -23.4117  -22.1715   20.3191 C   0  0  0  0  0  0  0  0  0  1  0  0
  -25.8572  -30.2349   23.1000 C   0  0  1  0  0  0  0  0  0  0  0  0
  -22.5986  -32.0630   22.4602 C   0  0  2  0  0  0  0  0  0  0  0  0
  -26.7802  -30.6453   24.2820 C   0  0  0  0  0  0  0  0  0  0  0  0
  -28.4191  -19.4142   21.8948 N   0  0  0  0  0  0  0  0  0  0  0  0
  -25.5193  -15.2317   20.3718 N   0  0  0  0  0  0  0  0  0  0  0  0
  -28.5420  -19.1695   20.5791 N   0  0  0  0  0  0  0  0  0  0  0  0
  -26.5432  -28.7326   21.2571 N   0  0  0  0  0  0  0  0  0  0  0  0
  -27.8546  -15.4094   20.5232 N   0  0  0  0  0  0  0  0  0  0  0  0
  -28.7250  -20.2311   18.4695 N   0  0  0  0  0  0  0  0  0  0  0  0
  -28.4252  -23.6923   21.3551 N   0  0  0  0  0  0  0  0  0  0  0  0
  -29.7989  -27.9652   20.0155 N   0  0  0  0  0  0  0  0  0  0  0  0
  -24.8164  -31.2086   22.7887 N   0  0  0  0  0  0  0  0  0  0  0  0
  -21.3827  -31.6051   21.7303 N   0  3  0  0  0  0  0  0  0  0  0  0
  -28.6171  -23.1248   19.1416 O   0  0  0  0  0  0  0  0  0  0  0  0
  -21.7745  -21.4181   21.9146 O   0  0  0  0  0  0  0  0  0  0  0  0
  -28.5127  -27.0221   21.7121 O   0  0  0  0  0  0  0  0  0  0  0  0
  -27.2699  -30.9468   21.3325 O   0  0  0  0  0  0  0  0  0  0  0  0
  -23.0232  -29.7704   23.0938 O   0  0  0  0  0  0  0  0  0  0  0  0
  -26.8716  -13.4290   19.8700 O   0  0  0  0  0  0  0  0  0  0  0  0
  -27.9241  -23.3303   26.8916 O   0  0  0  0  0  0  0  0  0  0  0  0
  -23.6845  -23.2667   21.1923 O   0  0  0  0  0  0  0  0  0  1  0  0
  -24.1533  -21.4131   30.4286 F   0  0  0  0  0  0  0  0  0  0  0  0
  -25.8669  -24.9463   27.7855 F   0  0  0  0  0  0  0  0  0  0  0  0
  1  2  1  0  0  0  0
  1  6  2  0  0  0  0
  2  7  2  0  0  0  0
  3 10  2  0  0  0  0
  3 18  1  0  0  0  0
  4 11  1  0  0  0  0
  4 18  2  0  0  0  0
  5  9  2  0  0  0  0
  5 19  1  0  0  0  0
  6 22  1  0  0  0  0
  7 24  1  0  0  0  0
  8 12  2  0  0  0  0
  8 23  1  0  0  0  0
  9 26  1  0  0  0  0
 10 27  1  0  0  0  0
 11 27  2  0  0  0  0
 12 28  1  0  0  0  0
 13 14  2  0  0  0  0
 13 29  1  0  0  0  0
 14 30  1  0  0  0  0
 15 19  2  0  0  0  0
 15 20  1  0  0  0  0
 16 25  1  0  0  0  0
 16 28  2  0  0  0  0
 17 30  2  0  0  0  0
 17 31  1  0  0  0  0
 18 32  1  0  0  0  0
 19 34  1  0  0  0  0
 20 26  2  0  0  0  0
 20 35  1  0  0  0  0
 21 32  1  0  0  0  0
 21 33  2  0  0  0  0
 21 37  1  0  0  0  0
 22 24  2  0  0  0  0
 22 43  1  0  0  0  0
 23 25  2  0  0  0  0
 23 44  1  0  0  0  0
 24 52  1  0  0  0  0
 25 45  1  0  0  0  0
 26 55  1  0  0  0  0
 27 81  1  0  0  0  0
 28 82  1  0  0  0  0
 29 31  2  0  0  0  0
 29 81  1  0  0  0  0
 30 83  1  0  0  0  0
 31 84  1  0  0  0  0
 32 65  2  0  0  0  0
 33 67  1  0  0  0  0
 33 70  1  0  0  0  0
 34 36  2  0  0  0  0
 35 66  2  0  0  0  0
 36 38  1  0  0  0  0
 37 71  1  0  0  0  0
 37 75  2  0  0  0  0
 38 61  1  0  0  0  0
 38 76  2  0  0  0  0
 39 53  1  0  0  0  0
 39 72  1  0  0  0  0
 39 77  2  0  0  0  0
 40 62  1  0  0  0  0
 40 68  1  0  0  0  0
 40 78  2  0  0  0  0
 41 63  1  0  0  0  0
 41 73  1  0  0  0  0
 41 79  2  0  0  0  0
 42 66  1  0  0  0  0
 42 69  1  0  0  0  0
 42 80  2  0  0  0  0
 43 46  1  0  0  0  0
 44 53  1  0  0  0  0
 45 68  1  0  0  0  0
 46 48  1  0  0  0  0
 47 49  1  0  0  0  0
 47 50  1  0  0  0  0
 48 52  1  0  0  0  0
 49 54  1  0  0  0  0
 50 69  1  0  0  0  0
 51 54  1  0  0  0  0
 51 69  1  0  0  0  0
 52 72  1  0  0  0  0
 53 68  1  0  0  0  0
 54 67  1  0  0  0  0
 56 63  1  0  0  0  0
 57 64  1  0  0  0  0
 58 64  1  0  0  0  0
 59 64  1  0  0  0  0
 60 74  1  0  0  0  0
 61 82  1  0  0  0  0
 62 64  1  0  0  0  0
 62 73  1  0  0  0  0
 63 74  1  0  0  0  0
 65 67  1  0  0  0  0
M  CHG  1  74   1
M  ISO  4  42 100  61 101  66 100  82 101
M  END
> <Batch ID>
0126

> <Smiles>
CNC(C)C(=O)NC(C(=O)N1Cc2cc([101O:1][101CH2:1]C(=O)C=Cc3ccc(C)c(C=[100N:0][100C:0](=O)N4CCCC(n5nc(-c6ccc(Oc7ccc(F)cc7F)cc6)c(C(N)=O)c5N)C4)c3)ccc2CC1C(=O)NC1CCCc2ccccc21)C(C)(C)C

> <Shape>
0.207

> <Color>
0.078

> <Negative vol penalty>
0.000

$$$$

  -OEChem-04052302113D

 85 93  0     1  0  0  0  0  0999 V2000
  -27.5222  -28.0967    9.5812 C   0  0  0  0  0  0  0  0  0  0  0  0
  -28.3550  -28.0012   10.6915 C   0  0  0  0  0  0  0  0  0  0  0  0
  -23.0004   -9.8957   19.9791 C   0  0  0  0  0  0  0  0  0  0  0  0
  -23.7266   -9.9427   22.2830 C   0  0  0  0  0  0  0  0  0  0  0  0
  -31.4041  -18.9658   20.5365 C   0  0  0  0  0  0  0  0  0  0  0  0
  -26.1441  -28.2190    9.7534 C   0  0  0  0  0  0  0  0  0  0  0  0
  -27.8101  -28.0291   11.9748 C   0  0  0  0  0  0  0  0  0  0  0  0
  -29.7948  -24.4906   15.0054 C   0  0  0  0  0  0  0  0  0  0  0  0
  -31.1989  -17.5867   20.5729 C   0  0  0  0  0  0  0  0  0  0  0  0
  -22.2338   -8.7609   20.2439 C   0  0  0  0  0  0  0  0  0  0  0  0
  -22.9599   -8.8079   22.5477 C   0  0  0  0  0  0  0  0  0  0  0  0
  -31.0554  -24.7467   15.5429 C   0  0  0  0  0  0  0  0  0  0  0  0
  -23.2035   -5.4697   22.0701 C   0  0  0  0  0  0  0  0  0  0  0  0
  -23.7912   -4.4511   22.8203 C   0  0  0  0  0  0  0  0  0  0  0  0
  -29.7557  -19.2570   22.2788 C   0  0  0  0  0  0  0  0  0  0  0  0
  -30.0270  -25.4203   17.6185 C   0  0  0  0  0  0  0  0  0  0  0  0
  -22.0681   -4.6915   24.4966 C   0  0  0  0  0  0  0  0  0  0  0  0
  -23.7469  -10.4866   20.9987 C   0  0  0  0  0  0  0  0  0  0  0  0
  -30.6825  -19.8010   21.3895 C   0  0  0  0  0  0  0  0  0  0  0  0
  -24.1325  -13.0024   20.8267 C   0  0  0  0  0  0  0  0  0  0  0  0
  -25.5811  -28.2387   11.0393 C   0  0  0  0  0  0  0  0  0  0  0  0
  -28.6383  -24.7080   15.7681 C   0  0  0  0  0  0  0  0  0  0  0  0
  -26.4233  -28.1532   12.1644 C   0  0  0  0  0  0  0  0  0  0  0  0
  -28.7530  -25.1636   17.0892 C   0  0  0  0  0  0  0  0  0  0  0  0
  -29.5505  -17.8778   22.3151 C   0  0  0  0  0  0  0  0  0  0  0  0
  -30.2721  -17.0426   21.4621 C   0  0  0  0  0  0  0  0  0  0  0  0
  -22.2136   -8.2170   21.5282 C   0  0  0  0  0  0  0  0  0  0  0  0
  -31.1715  -25.2144   16.8487 C   0  0  0  0  0  0  0  0  0  0  0  0
  -22.0481   -6.0993   22.5333 C   0  0  0  0  0  0  0  0  0  0  0  0
  -23.2235   -4.0620   24.0335 C   0  0  0  0  0  0  0  0  0  0  0  0
  -21.4804   -5.7101   23.7465 C   0  0  0  0  0  0  0  0  0  0  0  0
  -24.5394  -11.6585   20.7257 C   0  0  0  0  0  0  0  0  0  0  0  0
  -25.2422  -13.7254   20.4631 C   0  0  0  0  0  0  0  0  0  0  0  0
  -30.8999  -21.2582   21.3507 C   0  0  0  0  0  0  0  0  0  0  0  0
  -31.4511  -21.9177   20.3172 C   0  0  0  0  0  0  0  0  0  0  0  0
  -32.2466  -23.8607   19.1096 C   0  0  0  0  0  0  0  0  0  0  0  0
  -22.8648  -13.5484   21.2147 C   0  0  0  0  0  0  0  0  0  0  0  0
  -31.6780  -23.3633   20.2285 C   0  0  0  0  0  0  0  0  0  0  0  0
  -26.0995  -26.6021   15.5024 C   0  0  0  0  0  0  0  0  0  0  0  0
  -25.0669  -24.9283   18.0820 C   0  0  0  0  0  0  0  0  0  0  0  0
  -25.8513  -23.0306   20.8078 C   0  0  0  0  0  0  0  0  0  0  0  0
  -30.7220  -14.6852   20.6963 C   0  0  0  0  0  0  0  0  0  0  0  0
  -24.0902  -28.4201   11.1763 C   0  0  0  0  0  0  0  0  0  0  0  0
  -27.2871  -24.4014   15.1826 C   0  0  0  0  0  0  0  0  0  0  0  0
  -27.5433  -25.3940   17.9564 C   0  0  0  0  0  0  0  0  0  0  0  0
  -23.5582  -28.0649   12.5623 C   0  0  0  0  0  0  0  0  0  0  0  0
  -29.6023  -12.2364   18.3667 C   0  0  0  0  0  0  0  0  0  0  0  0
  -24.4321  -28.6889   13.6457 C   0  0  0  0  0  0  0  0  0  0  0  0
  -28.1518  -11.9783   18.7811 C   0  0  0  0  0  0  0  0  0  0  0  0
  -30.5034  -12.4776   19.5765 C   0  0  0  0  0  0  0  0  0  0  0  0
  -28.5887  -13.2646   20.9122 C   0  0  0  0  0  0  0  0  0  0  0  0
  -25.8677  -28.1548   13.5720 C   0  0  1  0  0  0  0  0  0  0  0  0
  -26.1519  -25.1479   15.8765 C   0  0  1  0  0  0  0  0  0  0  0  0
  -27.6305  -13.0804   19.7241 C   0  0  2  0  0  0  0  0  0  0  0  0
  -28.5515  -17.3221   23.2776 C   0  0  0  0  0  0  0  0  0  0  0  0
  -31.2761  -24.2085   21.4090 C   0  0  0  0  0  0  0  0  0  0  0  0
  -33.9765  -25.6581   19.1783 C   0  0  0  0  0  0  0  0  0  0  0  0
  -24.7963  -21.8384   22.7477 C   0  0  0  0  0  0  0  0  0  0  0  0
  -24.6363  -27.6019   19.4878 C   0  0  0  0  0  0  0  0  0  0  0  0
  -24.5103  -26.3610   21.6586 C   0  0  0  0  0  0  0  0  0  0  0  0
  -22.8272  -25.9183   19.8715 C   0  0  0  0  0  0  0  0  0  0  0  0
  -26.8909  -20.4086   19.9114 C   0  0  0  0  0  0  0  0  0  0  0  0
  -32.5504  -25.2972   18.7846 C   0  0  1  0  0  0  0  0  0  1  0  0
  -25.1954  -25.0829   19.5782 C   0  0  1  0  0  0  0  0  0  0  0  0
  -25.2893  -21.7145   21.3144 C   0  0  2  0  0  0  0  0  0  0  0  0
  -24.3152  -26.2386   20.1323 C   0  0  0  0  0  0  0  0  0  0  0  0
  -25.8085  -11.5325   20.3287 N   0  0  0  0  0  0  0  0  0  0  0  0
  -26.2086  -12.8064   20.1771 N   0  0  0  0  0  0  0  0  0  0  0  0
  -26.2439  -25.0857   17.3366 N   0  0  0  0  0  0  0  0  0  0  0  0
  -29.9489  -13.5372   20.4219 N   0  0  0  0  0  0  0  0  0  0  0  0
  -25.4759  -15.0512   20.3631 N   0  0  0  0  0  0  0  0  0  0  0  0
  -21.8330  -12.6638   21.5572 N   0  0  0  0  0  0  0  0  0  0  0  0
  -30.0782  -15.6392   21.4837 N   0  0  0  0  0  0  0  0  0  0  0  0
  -25.9440  -26.8295   14.1483 N   0  0  0  0  0  0  0  0  0  0  0  0
  -24.8946  -23.7753   20.1510 N   0  0  0  0  0  0  0  0  0  0  0  0
  -26.3339  -20.6527   21.2668 N   0  3  0  0  0  0  0  0  0  0  0  0
  -22.6483  -14.7837   21.2406 O   0  0  0  0  0  0  0  0  0  0  0  0
  -26.1917  -27.4549   16.3777 O   0  0  0  0  0  0  0  0  0  0  0  0
  -23.9641  -24.6701   17.5932 O   0  0  0  0  0  0  0  0  0  0  0  0
  -27.0209  -23.3661   20.9809 O   0  0  0  0  0  0  0  0  0  0  0  0
  -31.8605  -14.8247   20.2420 O   0  0  0  0  0  0  0  0  0  0  0  0
  -21.4654   -7.1098   21.7870 O   0  0  0  0  0  0  0  0  0  0  0  0
  -32.4008  -25.4659   17.3755 O   0  0  0  0  0  0  0  0  0  1  0  0
  -23.7871   -3.0828   24.7530 F   0  0  0  0  0  0  0  0  0  0  0  0
  -20.3698   -6.3104   24.1960 F   0  0  0  0  0  0  0  0  0  0  0  0
  1  2  1  0  0  0  0
  1  6  2  0  0  0  0
  2  7  2  0  0  0  0
  3 10  2  0  0  0  0
  3 18  1  0  0  0  0
  4 11  1  0  0  0  0
  4 18  2  0  0  0  0
  5  9  2  0  0  0  0
  5 19  1  0  0  0  0
  6 21  1  0  0  0  0
  7 23  1  0  0  0  0
  8 12  2  0  0  0  0
  8 22  1  0  0  0  0
  9 26  1  0  0  0  0
 10 27  1  0  0  0  0
 11 27  2  0  0  0  0
 12 28  1  0  0  0  0
 13 14  2  0  0  0  0
 13 29  1  0  0  0  0
 14 30  1  0  0  0  0
 15 19  2  0  0  0  0
 15 25  1  0  0  0  0
 16 24  1  0  0  0  0
 16 28  2  0  0  0  0
 17 30  2  0  0  0  0
 17 31  1  0  0  0  0
 18 32  1  0  0  0  0
 19 34  1  0  0  0  0
 20 32  1  0  0  0  0
 20 33  2  0  0  0  0
 20 37  1  0  0  0  0
 21 23  2  0  0  0  0
 21 43  1  0  0  0  0
 22 24  2  0  0  0  0
 22 44  1  0  0  0  0
 23 52  1  0  0  0  0
 24 45  1  0  0  0  0
 25 26  2  0  0  0  0
 25 55  1  0  0  0  0
 26 73  1  0  0  0  0
 27 82  1  0  0  0  0
 28 83  1  0  0  0  0
 29 31  2  0  0  0  0
 29 82  1  0  0  0  0
 30 84  1  0  0  0  0
 31 85  1  0  0  0  0
 32 67  2  0  0  0  0
 33 68  1  0  0  0  0
 33 71  1  0  0  0  0
 34 35  2  0  0  0  0
 35 38  1  0  0  0  0
 36 38  2  0  0  0  0
 36 63  1  0  0  0  0
 37 72  1  0  0  0  0
 37 77  2  0  0  0  0
 38 56  1  0  0  0  0
 39 53  1  0  0  0  0
 39 74  1  0  0  0  0
 39 78  2  0  0  0  0
 40 64  1  0  0  0  0
 40 69  1  0  0  0  0
 40 79  2  0  0  0  0
 41 65  1  0  0  0  0
 41 75  1  0  0  0  0
 41 80  2  0  0  0  0
 42 70  1  0  0  0  0
 42 73  1  0  0  0  0
 42 81  2  0  0  0  0
 43 46  1  0  0  0  0
 44 53  1  0  0  0  0
 45 69  1  0  0  0  0
 46 48  1  0  0  0  0
 47 49  1  0  0  0  0
 47 50  1  0  0  0  0
 48 52  1  0  0  0  0
 49 54  1  0  0  0  0
 50 70  1  0  0  0  0
 51 54  1  0  0  0  0
 51 70  1  0  0  0  0
 52 74  1  0  0  0  0
 53 69  1  0  0  0  0
 54 68  1  0  0  0  0
 57 63  1  0  0  0  0
 58 65  1  0  0  0  0
 59 66  1  0  0  0  0
 60 66  1  0  0  0  0
 61 66  1  0  0  0  0
 62 76  1  0  0  0  0
 63 83  1  0  0  0  0
 64 66  1  0  0  0  0
 64 75  1  0  0  0  0
 65 76  1  0  0  0  0
 67 68  1  0  0  0  0
M  CHG  1  76   1
M  ISO  4  42 100  63 101  73 100  83 101
M  END
> <Batch ID>
0126

> <Smiles>
CNC(C)C(=O)NC(C(=O)N1Cc2cc([101O:1][101CH:1](C)C=C(C)C=Cc3ccc([100NH:0][100C:0](=O)N4CCCC(n5nc(-c6ccc(Oc7ccc(F)cc7F)cc6)c(C(N)=O)c5N)C4)c(C)c3)ccc2CC1C(=O)NC1CCCc2ccccc21)C(C)(C)C

> <Shape>
0.230

> <Color>
0.202

> <Negative vol penalty>
0.000

$$$$

  -OEChem-04052302113D

 82 90  0     1  0  0  0  0  0999 V2000
  -16.5381  -30.6320   23.8342 C   0  0  0  0  0  0  0  0  0  0  0  0
  -17.8528  -31.0660   23.6977 C   0  0  0  0  0  0  0  0  0  0  0  0
  -25.4897  -16.2872   21.5405 C   0  0  0  0  0  0  0  0  0  0  0  0
  -25.4106  -16.1917   19.1277 C   0  0  0  0  0  0  0  0  0  0  0  0
  -16.2552  -29.2671   23.8634 C   0  0  0  0  0  0  0  0  0  0  0  0
  -18.8856  -30.1351   23.5913 C   0  0  0  0  0  0  0  0  0  0  0  0
  -24.0042  -30.6785   20.2732 C   0  0  0  0  0  0  0  0  0  0  0  0
  -24.2344  -15.6826   21.6056 C   0  0  0  0  0  0  0  0  0  0  0  0
  -24.1553  -15.5870   19.1928 C   0  0  0  0  0  0  0  0  0  0  0  0
  -25.3044  -31.0534   20.6090 C   0  0  0  0  0  0  0  0  0  0  0  0
  -21.2093  -13.8361   22.4149 C   0  0  0  0  0  0  0  0  0  0  0  0
  -21.0335  -12.8044   23.3370 C   0  0  0  0  0  0  0  0  0  0  0  0
  -32.2636  -26.6798   23.2460 C   0  0  0  0  0  0  0  0  0  0  0  0
  -30.9105  -27.2121   21.3166 C   0  0  0  0  0  0  0  0  0  0  0  0
  -25.9112  -28.7292   20.8301 C   0  0  0  0  0  0  0  0  0  0  0  0
  -32.4248  -28.8623   22.2224 C   0  0  0  0  0  0  0  0  0  0  0  0
  -22.7760  -11.5339   22.2477 C   0  0  0  0  0  0  0  0  0  0  0  0
  -26.0778  -16.5418   20.3016 C   0  0  0  0  0  0  0  0  0  0  0  0
  -31.3078  -26.3072   22.3010 C   0  0  0  0  0  0  0  0  0  0  0  0
  -28.6274  -16.5256   20.2178 C   0  0  0  0  0  0  0  0  0  0  0  0
  -17.2840  -28.3190   23.7477 C   0  0  0  0  0  0  0  0  0  0  0  0
  -23.6444  -29.3240   20.2238 C   0  0  0  0  0  0  0  0  0  0  0  0
  -18.6163  -28.7562   23.6203 C   0  0  0  0  0  0  0  0  0  0  0  0
  -24.6065  -28.3396   20.4909 C   0  0  0  0  0  0  0  0  0  0  0  0
  -32.8221  -27.9574   23.2068 C   0  0  0  0  0  0  0  0  0  0  0  0
  -31.4690  -28.4897   21.2773 C   0  0  0  0  0  0  0  0  0  0  0  0
  -23.5672  -15.3324   20.4318 C   0  0  0  0  0  0  0  0  0  0  0  0
  -26.2573  -30.0789   20.8904 C   0  0  0  0  0  0  0  0  0  0  0  0
  -22.1684  -13.7167   21.4091 C   0  0  0  0  0  0  0  0  0  0  0  0
  -21.8168  -11.6533   23.2534 C   0  0  0  0  0  0  0  0  0  0  0  0
  -22.9518  -12.5656   21.3256 C   0  0  0  0  0  0  0  0  0  0  0  0
  -27.3742  -17.1669   20.2337 C   0  0  0  0  0  0  0  0  0  0  0  0
  -29.5373  -17.5520   20.1465 C   0  0  0  0  0  0  0  0  0  0  0  0
  -30.7255  -24.9749   22.3425 C   0  0  0  0  0  0  0  0  0  0  0  0
  -29.5603  -24.6111   21.7656 C   0  0  0  0  0  0  0  0  0  0  0  0
  -28.9408  -15.1273   20.2633 C   0  0  0  0  0  0  0  0  0  0  0  0
  -29.1058  -23.2115   21.8889 C   0  0  0  0  0  0  0  0  0  0  0  0
  -21.5687  -27.4961   21.7903 C   0  0  0  0  0  0  0  0  0  0  0  0
  -22.5056  -25.2603   19.6350 C   0  0  0  0  0  0  0  0  0  0  0  0
  -24.8995  -24.1426   17.4748 C   0  0  0  0  0  0  0  0  0  0  0  0
  -16.9343  -26.8544   23.8320 C   0  0  0  0  0  0  0  0  0  0  0  0
  -22.2447  -28.9353   19.8338 C   0  0  0  0  0  0  0  0  0  0  0  0
  -24.2762  -26.8713   20.4319 C   0  0  0  0  0  0  0  0  0  0  0  0
  -18.0463  -25.9332   23.3368 C   0  0  0  0  0  0  0  0  0  0  0  0
  -30.0407  -22.0194   18.5518 C   0  0  0  0  0  0  0  0  0  0  0  0
  -19.3902  -26.3569   23.9208 C   0  0  0  0  0  0  0  0  0  0  0  0
  -29.5264  -20.5831   18.5982 C   0  0  0  0  0  0  0  0  0  0  0  0
  -29.1498  -22.9718   19.3479 C   0  0  0  0  0  0  0  0  0  0  0  0
  -28.4179  -21.1072   20.8066 C   0  0  0  0  0  0  0  0  0  0  0  0
  -19.7613  -27.7771   23.4772 C   0  0  1  0  0  0  0  0  0  0  0  0
  -21.8554  -27.5412   20.3161 C   0  0  1  0  0  0  0  0  0  0  0  0
  -29.3252  -20.1237   20.0510 C   0  0  1  0  0  0  0  0  0  0  0  0
  -33.8439  -28.3562   24.2174 C   0  0  0  0  0  0  0  0  0  0  0  0
  -25.3958  -22.2670   15.8831 C   0  0  0  0  0  0  0  0  0  0  0  0
  -23.1167  -23.4235   21.9936 C   0  0  0  0  0  0  0  0  0  0  0  0
  -24.4614  -21.9922   20.4408 C   0  0  0  0  0  0  0  0  0  0  0  0
  -22.0163  -22.2962   20.0513 C   0  0  0  0  0  0  0  0  0  0  0  0
  -25.0822  -25.9914   15.1709 C   0  0  0  0  0  0  0  0  0  0  0  0
  -31.0395  -29.4679   20.2133 C   0  0  0  0  0  0  0  0  0  0  0  0
  -29.8480  -30.3374   20.6209 C   0  0  0  0  0  0  0  0  0  0  0  0
  -28.5732  -29.5384   20.8656 C   0  0  0  0  0  0  0  0  0  1  0  0
  -23.5940  -24.2154   19.5830 C   0  0  1  0  0  0  0  0  0  0  0  0
  -24.8143  -23.6638   16.0367 C   0  0  2  0  0  0  0  0  0  0  0  0
  -23.3031  -23.0095   20.5203 C   0  0  0  0  0  0  0  0  0  0  0  0
  -27.4751  -18.4975   20.1772 N   0  0  0  0  0  0  0  0  0  0  0  0
  -28.8026  -18.7008   20.1252 N   0  0  0  0  0  0  0  0  0  0  0  0
  -28.9246  -22.4811   20.7158 N   0  0  0  0  0  0  0  0  0  0  0  0
  -22.8925  -26.5418   20.0520 N   0  0  0  0  0  0  0  0  0  0  0  0
  -30.8863  -17.5747   20.1007 N   0  0  0  0  0  0  0  0  0  0  0  0
  -27.8853  -14.2080   20.3350 N   0  0  0  0  0  0  0  0  0  0  0  0
  -20.2539  -27.7691   22.1164 N   0  0  0  0  0  0  0  0  0  0  0  0
  -23.7482  -23.8563   18.1775 N   0  0  0  0  0  0  0  0  0  0  0  0
  -25.5642  -24.5865   15.1383 N   0  3  0  0  0  0  0  0  0  0  0  0
  -30.1224  -14.7062   20.2576 O   0  0  0  0  0  0  0  0  0  0  0  0
  -28.9094  -22.7754   23.0247 O   0  0  0  0  0  0  0  0  0  0  0  0
  -22.4730  -27.2317   22.5739 O   0  0  0  0  0  0  0  0  0  0  0  0
  -21.3560  -24.9526   19.3105 O   0  0  0  0  0  0  0  0  0  0  0  0
  -25.8899  -24.7102   17.9302 O   0  0  0  0  0  0  0  0  0  0  0  0
  -22.3424  -14.7422   20.4949 O   0  0  0  0  0  0  0  0  0  0  0  0
  -27.5269  -30.4421   21.2191 O   0  0  0  0  0  0  0  0  0  1  0  0
  -21.6489  -10.6633   24.1399 F   0  0  0  0  0  0  0  0  0  0  0  0
  -23.8756  -12.4456   20.3623 F   0  0  0  0  0  0  0  0  0  0  0  0
  1  2  1  0  0  0  0
  1  5  2  0  0  0  0
  2  6  2  0  0  0  0
  3  8  2  0  0  0  0
  3 18  1  0  0  0  0
  4  9  1  0  0  0  0
  4 18  2  0  0  0  0
  5 21  1  0  0  0  0
  6 23  1  0  0  0  0
  7 10  2  0  0  0  0
  7 22  1  0  0  0  0
  8 27  1  0  0  0  0
  9 27  2  0  0  0  0
 10 28  1  0  0  0  0
 11 12  2  0  0  0  0
 11 29  1  0  0  0  0
 12 30  1  0  0  0  0
 13 19  2  0  0  0  0
 13 25  1  0  0  0  0
 14 19  1  0  0  0  0
 14 26  2  0  0  0  0
 15 24  1  0  0  0  0
 15 28  2  0  0  0  0
 16 25  2  0  0  0  0
 16 26  1  0  0  0  0
 17 30  2  0  0  0  0
 17 31  1  0  0  0  0
 18 32  1  0  0  0  0
 19 34  1  0  0  0  0
 20 32  1  0  0  0  0
 20 33  2  0  0  0  0
 20 36  1  0  0  0  0
 21 23  2  0  0  0  0
 21 41  1  0  0  0  0
 22 24  2  0  0  0  0
 22 42  1  0  0  0  0
 23 50  1  0  0  0  0
 24 43  1  0  0  0  0
 25 53  1  0  0  0  0
 26 59  1  0  0  0  0
 27 79  1  0  0  0  0
 28 80  1  0  0  0  0
 29 31  2  0  0  0  0
 29 79  1  0  0  0  0
 30 81  1  0  0  0  0
 31 82  1  0  0  0  0
 32 65  2  0  0  0  0
 33 66  1  0  0  0  0
 33 69  1  0  0  0  0
 34 35  2  0  0  0  0
 35 37  1  0  0  0  0
 36 70  1  0  0  0  0
 36 74  2  0  0  0  0
 37 67  1  0  0  0  0
 37 75  2  0  0  0  0
 38 51  1  0  0  0  0
 38 71  1  0  0  0  0
 38 76  2  0  0  0  0
 39 62  1  0  0  0  0
 39 68  1  0  0  0  0
 39 77  2  0  0  0  0
 40 63  1  0  0  0  0
 40 72  1  0  0  0  0
 40 78  2  0  0  0  0
 41 44  1  0  0  0  0
 42 51  1  0  0  0  0
 43 68  1  0  0  0  0
 44 46  1  0  0  0  0
 45 47  1  0  0  0  0
 45 48  1  0  0  0  0
 46 50  1  0  0  0  0
 47 52  1  0  0  0  0
 48 67  1  0  0  0  0
 49 52  1  0  0  0  0
 49 67  1  0  0  0  0
 50 71  1  0  0  0  0
 51 68  1  0  0  0  0
 52 66  1  0  0  0  0
 54 63  1  0  0  0  0
 55 64  1  0  0  0  0
 56 64  1  0  0  0  0
 57 64  1  0  0  0  0
 58 73  1  0  0  0  0
 59 60  1  0  0  0  0
 60 61  1  0  0  0  0
 61 80  1  0  0  0  0
 62 64  1  0  0  0  0
 62 72  1  0  0  0  0
 63 73  1  0  0  0  0
 65 66  1  0  0  0  0
M  CHG  1  73   1
M  ISO  4  35 100  37 100  61 101  80 101
M  END
> <Batch ID>
0126

> <Smiles>
CNC(C)C(=O)NC(C(=O)N1Cc2cc([101O:1][101CH2:1]CCc3cc(C)cc(C=[100CH:0][100C:0](=O)N4CCCC(n5nc(-c6ccc(Oc7ccc(F)cc7F)cc6)c(C(N)=O)c5N)C4)c3)ccc2CC1C(=O)NC1CCCc2ccccc21)C(C)(C)C

> <Shape>
0.250

> <Color>
0.068

> <Negative vol penalty>
0.000

$$$$

  -OEChem-04052302113D

 84 92  0     1  0  0  0  0  0999 V2000
  -26.8591  -35.5972   22.1569 C   0  0  0  0  0  0  0  0  0  0  0  0
  -27.2808  -34.2720   22.1183 C   0  0  0  0  0  0  0  0  0  0  0  0
  -23.6249   -8.9731   20.2062 C   0  0  0  0  0  0  0  0  0  0  0  0
  -23.0750  -10.8371   21.6415 C   0  0  0  0  0  0  0  0  0  0  0  0
  -25.5837  -35.9083   22.6266 C   0  0  0  0  0  0  0  0  0  0  0  0
  -26.4277  -33.2572   22.5504 C   0  0  0  0  0  0  0  0  0  0  0  0
  -26.3757  -29.2910   19.4021 C   0  0  0  0  0  0  0  0  0  0  0  0
  -22.7455   -8.1616   20.9231 C   0  0  0  0  0  0  0  0  0  0  0  0
  -22.1955  -10.0257   22.3584 C   0  0  0  0  0  0  0  0  0  0  0  0
  -27.4516  -28.4072   19.4736 C   0  0  0  0  0  0  0  0  0  0  0  0
  -20.9140   -5.5059   22.6012 C   0  0  0  0  0  0  0  0  0  0  0  0
  -21.3500   -4.2294   22.9560 C   0  0  0  0  0  0  0  0  0  0  0  0
  -28.6506  -19.7518   18.6687 C   0  0  0  0  0  0  0  0  0  0  0  0
  -26.1171  -26.8996   20.8022 C   0  0  0  0  0  0  0  0  0  0  0  0
  -30.5834  -18.1524   19.8889 C   0  0  0  0  0  0  0  0  0  0  0  0
  -23.1722   -5.2004   24.2106 C   0  0  0  0  0  0  0  0  0  0  0  0
  -23.7897  -10.3108   20.5655 C   0  0  0  0  0  0  0  0  0  0  0  0
  -29.7515  -20.3404   19.2909 C   0  0  0  0  0  0  0  0  0  0  0  0
  -24.4020  -11.9332   18.6945 C   0  0  0  0  0  0  0  0  0  0  0  0
  -24.7110  -34.8958   23.0556 C   0  0  0  0  0  0  0  0  0  0  0  0
  -25.1639  -28.9902   20.0404 C   0  0  0  0  0  0  0  0  0  0  0  0
  -25.1400  -33.5551   23.0275 C   0  0  0  0  0  0  0  0  0  0  0  0
  -25.0265  -27.7801   20.7352 C   0  0  0  0  0  0  0  0  0  0  0  0
  -28.5160  -18.3634   18.6567 C   0  0  0  0  0  0  0  0  0  0  0  0
  -30.7179  -19.5407   19.9009 C   0  0  0  0  0  0  0  0  0  0  0  0
  -29.4824  -17.5637   19.2667 C   0  0  0  0  0  0  0  0  0  0  0  0
  -22.0308   -8.6879   21.9991 C   0  0  0  0  0  0  0  0  0  0  0  0
  -27.3233  -27.2126   20.1761 C   0  0  0  0  0  0  0  0  0  0  0  0
  -21.6071   -6.6298   23.0511 C   0  0  0  0  0  0  0  0  0  0  0  0
  -22.4790   -4.0766   23.7606 C   0  0  0  0  0  0  0  0  0  0  0  0
  -22.7361   -6.4770   23.8558 C   0  0  0  0  0  0  0  0  0  0  0  0
  -24.6983  -11.1494   19.8257 C   0  0  0  0  0  0  0  0  0  0  0  0
  -25.5940  -12.5345   18.3717 C   0  0  0  0  0  0  0  0  0  0  0  0
  -29.8655  -21.8096   19.2871 C   0  0  0  0  0  0  0  0  0  0  0  0
  -28.9548  -22.6450   19.8059 C   0  0  0  0  0  0  0  0  0  0  0  0
  -23.1604  -12.1027   17.9979 C   0  0  0  0  0  0  0  0  0  0  0  0
  -29.1606  -24.1212   19.7421 C   0  0  0  0  0  0  0  0  0  0  0  0
  -23.4570  -30.3339   22.3609 C   0  0  0  0  0  0  0  0  0  0  0  0
  -21.3040  -28.0387   21.5743 C   0  0  0  0  0  0  0  0  0  0  0  0
  -20.7091  -24.9762   20.1909 C   0  0  0  0  0  0  0  0  0  0  0  0
  -30.2427  -15.2293   19.8314 C   0  0  0  0  0  0  0  0  0  0  0  0
  -23.3592  -35.2850   23.5996 C   0  0  0  0  0  0  0  0  0  0  0  0
  -24.0042  -29.9419   19.9313 C   0  0  0  0  0  0  0  0  0  0  0  0
  -23.7402  -27.4009   21.4207 C   0  0  0  0  0  0  0  0  0  0  0  0
  -22.3792  -34.1180   23.6878 C   0  0  0  0  0  0  0  0  0  0  0  0
  -30.2832  -11.6773   20.0740 C   0  0  0  0  0  0  0  0  0  0  0  0
  -23.0523  -32.9020   24.3162 C   0  0  0  0  0  0  0  0  0  0  0  0
  -28.8095  -11.2878   19.9380 C   0  0  0  0  0  0  0  0  0  0  0  0
  -30.4563  -12.9767   20.8585 C   0  0  0  0  0  0  0  0  0  0  0  0
  -28.1956  -13.7226   20.2246 C   0  0  0  0  0  0  0  0  0  0  0  0
  -24.2344  -32.4240   23.4644 C   0  0  1  0  0  0  0  0  0  0  0  0
  -22.9828  -29.7700   21.0514 C   0  0  1  0  0  0  0  0  0  0  0  0
  -27.9669  -12.4544   19.3861 C   0  0  2  0  0  0  0  0  0  0  0  0
  -27.3258  -17.7603   17.9838 C   0  0  0  0  0  0  0  0  0  0  0  0
  -31.9105  -20.1374   20.5771 C   0  0  0  0  0  0  0  0  0  0  0  0
  -18.8542  -23.3511   19.7264 C   0  0  0  0  0  0  0  0  0  0  0  0
  -21.2788  -27.2302   24.5164 C   0  0  0  0  0  0  0  0  0  0  0  0
  -20.1952  -25.0760   23.8432 C   0  0  0  0  0  0  0  0  0  0  0  0
  -19.0319  -27.2413   23.4183 C   0  0  0  0  0  0  0  0  0  0  0  0
  -21.1629  -25.1146   17.2696 C   0  0  0  0  0  0  0  0  0  0  0  0
  -28.0630  -24.9600   20.3620 C   0  0  0  0  0  0  0  0  0  1  0  0
  -21.0436  -26.6196   22.0188 C   0  0  1  0  0  0  0  0  0  0  0  0
  -19.6746  -24.5102   19.1823 C   0  0  2  0  0  0  0  0  0  0  0  0
  -20.4124  -26.5495   23.4380 C   0  0  0  0  0  0  0  0  0  0  0  0
  -25.9782  -11.2421   20.1965 N   0  0  0  0  0  0  0  0  0  0  0  0
  -26.4966  -12.0913   19.2930 N   0  0  0  0  0  0  0  0  0  0  0  0
  -22.6371  -28.3673   21.2907 N   0  0  0  0  0  0  0  0  0  0  0  0
  -29.6319  -14.0376   20.2758 N   0  0  0  0  0  0  0  0  0  0  0  0
  -25.9475  -13.3938   17.3924 N   0  0  0  0  0  0  0  0  0  0  0  0
  -22.0336  -11.4111   18.4630 N   0  0  0  0  0  0  0  0  0  0  0  0
  -29.3631  -16.1518   19.2657 N   0  0  0  0  0  0  0  0  0  0  0  0
  -23.7620  -31.6809   22.3159 N   0  0  0  0  0  0  0  0  0  0  0  0
  -20.2320  -26.0067   20.9729 N   0  0  0  0  0  0  0  0  0  0  0  0
  -20.3403  -24.0656   17.9253 N   0  3  0  0  0  0  0  0  0  0  0  0
  -23.0571  -12.8326   16.9830 O   0  0  0  0  0  0  0  0  0  0  0  0
  -30.1550  -24.6194   19.2213 O   0  0  0  0  0  0  0  0  0  0  0  0
  -23.5386  -29.6015   23.3400 O   0  0  0  0  0  0  0  0  0  0  0  0
  -20.3583  -28.8245   21.4754 O   0  0  0  0  0  0  0  0  0  0  0  0
  -21.8272  -24.4736   20.2788 O   0  0  0  0  0  0  0  0  0  0  0  0
  -31.4604  -15.4063   19.9195 O   0  0  0  0  0  0  0  0  0  0  0  0
  -21.1725   -7.8965   22.6987 O   0  0  0  0  0  0  0  0  0  0  0  0
  -28.3721  -26.3484   20.2480 O   0  0  0  0  0  0  0  0  0  1  0  0
  -22.8967   -2.8507   24.1025 F   0  0  0  0  0  0  0  0  0  0  0  0
  -23.4054   -7.5529   24.2920 F   0  0  0  0  0  0  0  0  0  0  0  0
  1  2  1  0  0  0  0
  1  5  2  0  0  0  0
  2  6  2  0  0  0  0
  3  8  2  0  0  0  0
  3 17  1  0  0  0  0
  4  9  1  0  0  0  0
  4 17  2  0  0  0  0
  5 20  1  0  0  0  0
  6 22  1  0  0  0  0
  7 10  2  0  0  0  0
  7 21  1  0  0  0  0
  8 27  1  0  0  0  0
  9 27  2  0  0  0  0
 10 28  1  0  0  0  0
 11 12  2  0  0  0  0
 11 29  1  0  0  0  0
 12 30  1  0  0  0  0
 13 18  1  0  0  0  0
 13 24  2  0  0  0  0
 14 23  1  0  0  0  0
 14 28  2  0  0  0  0
 15 25  1  0  0  0  0
 15 26  2  0  0  0  0
 16 30  2  0  0  0  0
 16 31  1  0  0  0  0
 17 32  1  0  0  0  0
 18 25  2  0  0  0  0
 18 34  1  0  0  0  0
 19 32  1  0  0  0  0
 19 33  2  0  0  0  0
 19 36  1  0  0  0  0
 20 22  2  0  0  0  0
 20 42  1  0  0  0  0
 21 23  2  0  0  0  0
 21 43  1  0  0  0  0
 22 51  1  0  0  0  0
 23 44  1  0  0  0  0
 24 26  1  0  0  0  0
 24 54  1  0  0  0  0
 25 55  1  0  0  0  0
 26 71  1  0  0  0  0
 27 81  1  0  0  0  0
 28 82  1  0  0  0  0
 29 31  2  0  0  0  0
 29 81  1  0  0  0  0
 30 83  1  0  0  0  0
 31 84  1  0  0  0  0
 32 65  2  0  0  0  0
 33 66  1  0  0  0  0
 33 69  1  0  0  0  0
 34 35  2  0  0  0  0
 35 37  1  0  0  0  0
 36 70  1  0  0  0  0
 36 75  2  0  0  0  0
 37 61  1  0  0  0  0
 37 76  2  0  0  0  0
 38 52  1  0  0  0  0
 38 72  1  0  0  0  0
 38 77  2  0  0  0  0
 39 62  1  0  0  0  0
 39 67  1  0  0  0  0
 39 78  2  0  0  0  0
 40 63  1  0  0  0  0
 40 73  1  0  0  0  0
 40 79  2  0  0  0  0
 41 68  1  0  0  0  0
 41 71  1  0  0  0  0
 41 80  2  0  0  0  0
 42 45  1  0  0  0  0
 43 52  1  0  0  0  0
 44 67  1  0  0  0  0
 45 47  1  0  0  0  0
 46 48  1  0  0  0  0
 46 49  1  0  0  0  0
 47 51  1  0  0  0  0
 48 53  1  0  0  0  0
 49 68  1  0  0  0  0
 50 53  1  0  0  0  0
 50 68  1  0  0  0  0
 51 72  1  0  0  0  0
 52 67  1  0  0  0  0
 53 66  1  0  0  0  0
 56 63  1  0  0  0  0
 57 64  1  0  0  0  0
 58 64  1  0  0  0  0
 59 64  1  0  0  0  0
 60 74  1  0  0  0  0
 61 82  1  0  0  0  0
 62 64  1  0  0  0  0
 62 73  1  0  0  0  0
 63 74  1  0  0  0  0
 65 66  1  0  0  0  0
M  CHG  1  74   1
M  ISO  4  41 100  61 101  71 100  82 101
M  END
> <Batch ID>
0126

> <Smiles>
CNC(C)C(=O)NC(C(=O)N1Cc2cc([101O:1][101CH2:1]C(=O)C=Cc3cc(C)c([100NH:0][100C:0](=O)N4CCCC(n5nc(-c6ccc(Oc7ccc(F)cc7F)cc6)c(C(N)=O)c5N)C4)cc3C)ccc2CC1C(=O)NC1CCCc2ccccc21)C(C)(C)C

> <Shape>
0.330

> <Color>
0.134

> <Negative vol penalty>
0.000

$$$$

  -OEChem-04052302113D

 85 93  0     1  0  0  0  0  0999 V2000
  -17.0305  -30.6631   23.9370 C   0  0  0  0  0  0  0  0  0  0  0  0
  -18.2860  -31.0057   24.4286 C   0  0  0  0  0  0  0  0  0  0  0  0
  -26.7998  -13.9651   23.2795 C   0  0  0  0  0  0  0  0  0  0  0  0
  -26.8390  -15.2149   21.2122 C   0  0  0  0  0  0  0  0  0  0  0  0
  -16.8782  -29.5204   23.1528 C   0  0  0  0  0  0  0  0  0  0  0  0
  -19.3899  -30.2051   24.1371 C   0  0  0  0  0  0  0  0  0  0  0  0
  -25.1501  -32.0704   23.2166 C   0  0  0  0  0  0  0  0  0  0  0  0
  -26.4246  -12.8186   22.5793 C   0  0  0  0  0  0  0  0  0  0  0  0
  -26.4639  -14.0683   20.5119 C   0  0  0  0  0  0  0  0  0  0  0  0
  -26.2673  -32.1110   24.0497 C   0  0  0  0  0  0  0  0  0  0  0  0
  -25.1063   -9.6487   21.3802 C   0  0  0  0  0  0  0  0  0  0  0  0
  -24.0777   -8.8704   21.9109 C   0  0  0  0  0  0  0  0  0  0  0  0
  -30.4661  -24.7222   26.5898 C   0  0  0  0  0  0  0  0  0  0  0  0
  -28.8443  -22.9921   26.1279 C   0  0  0  0  0  0  0  0  0  0  0  0
  -27.0026  -29.9942   23.1567 C   0  0  0  0  0  0  0  0  0  0  0  0
  -22.5737  -10.7552   21.7599 C   0  0  0  0  0  0  0  0  0  0  0  0
  -27.0070  -15.1633   22.5959 C   0  0  0  0  0  0  0  0  0  0  0  0
  -29.9920  -25.4568   25.5030 C   0  0  0  0  0  0  0  0  0  0  0  0
  -28.3701  -23.7267   25.0411 C   0  0  0  0  0  0  0  0  0  0  0  0
  -28.7031  -16.7800   23.6045 C   0  0  0  0  0  0  0  0  0  0  0  0
  -17.9825  -28.7107   22.8436 C   0  0  0  0  0  0  0  0  0  0  0  0
  -24.9447  -30.9842   22.3538 C   0  0  0  0  0  0  0  0  0  0  0  0
  -19.2521  -29.0498   23.3492 C   0  0  0  0  0  0  0  0  0  0  0  0
  -25.8834  -29.9433   22.3119 C   0  0  0  0  0  0  0  0  0  0  0  0
  -28.9440  -24.9591   24.7287 C   0  0  0  0  0  0  0  0  0  0  0  0
  -26.2567  -12.8702   21.1955 C   0  0  0  0  0  0  0  0  0  0  0  0
  -27.1923  -31.0715   24.0219 C   0  0  0  0  0  0  0  0  0  0  0  0
  -24.8687  -10.9803   21.0394 C   0  0  0  0  0  0  0  0  0  0  0  0
  -22.8114   -9.4236   22.1007 C   0  0  0  0  0  0  0  0  0  0  0  0
  -29.8923  -23.4898   26.9022 C   0  0  0  0  0  0  0  0  0  0  0  0
  -23.6024  -11.5335   21.2292 C   0  0  0  0  0  0  0  0  0  0  0  0
  -27.3940  -16.3481   23.3188 C   0  0  0  0  0  0  0  0  0  0  0  0
  -28.5336  -17.9483   24.3066 C   0  0  0  0  0  0  0  0  0  0  0  0
  -30.6217  -26.7534   25.2021 C   0  0  0  0  0  0  0  0  0  0  0  0
  -30.6892  -27.7958   26.0451 C   0  0  0  0  0  0  0  0  0  0  0  0
  -27.2743  -23.1796   24.2518 C   0  0  0  0  0  0  0  0  0  0  0  0
  -29.9598  -16.1789   23.2655 C   0  0  0  0  0  0  0  0  0  0  0  0
  -25.9589  -22.8829   24.8640 C   0  0  0  0  0  0  0  0  0  0  0  0
  -22.6972  -28.7577   22.0459 C   0  0  0  0  0  0  0  0  0  0  0  0
  -24.3934  -27.9661   19.3966 C   0  0  0  0  0  0  0  0  0  0  0  0
  -27.3817  -28.0115   17.7489 C   0  0  0  0  0  0  0  0  0  0  0  0
  -17.7604  -27.4594   22.0314 C   0  0  0  0  0  0  0  0  0  0  0  0
  -23.7484  -30.9682   21.4422 C   0  0  0  0  0  0  0  0  0  0  0  0
  -25.7196  -28.7645   21.3889 C   0  0  0  0  0  0  0  0  0  0  0  0
  -19.0460  -26.8698   21.4571 C   0  0  0  0  0  0  0  0  0  0  0  0
  -24.3963  -20.0118   26.3377 C   0  0  0  0  0  0  0  0  0  0  0  0
  -20.1325  -26.8151   22.5264 C   0  0  0  0  0  0  0  0  0  0  0  0
  -25.1189  -18.8384   25.6769 C   0  0  0  0  0  0  0  0  0  0  0  0
  -24.2470  -21.1876   25.3778 C   0  0  0  0  0  0  0  0  0  0  0  0
  -26.2688  -20.4823   24.1274 C   0  0  0  0  0  0  0  0  0  0  0  0
  -20.4779  -28.2202   23.0343 C   0  0  1  0  0  0  0  0  0  0  0  0
  -23.3726  -29.5657   20.9741 C   0  0  1  0  0  0  0  0  0  0  0  0
  -26.4630  -19.2859   25.0751 C   0  0  2  0  0  0  0  0  0  0  0  0
  -28.4288  -25.7414   23.5598 C   0  0  0  0  0  0  0  0  0  0  0  0
  -28.4678  -27.2525   15.6178 C   0  0  0  0  0  0  0  0  0  0  0  0
  -24.5002  -25.1121   20.4704 C   0  0  0  0  0  0  0  0  0  0  0  0
  -26.3465  -24.6441   18.8455 C   0  0  0  0  0  0  0  0  0  0  0  0
  -24.0854  -25.2863   18.0103 C   0  0  0  0  0  0  0  0  0  0  0  0
  -28.0182  -30.7886   16.9481 C   0  0  0  0  0  0  0  0  0  0  0  0
  -31.3472  -29.1004   25.6950 C   0  0  0  0  0  0  0  0  0  0  0  0
  -30.3429  -30.2512   25.7191 C   0  0  0  0  0  0  0  0  0  0  0  0
  -29.1904  -30.0096   24.7541 C   0  0  0  0  0  0  0  0  0  1  0  0
  -25.5461  -27.0365   19.1034 C   0  0  1  0  0  0  0  0  0  0  0  0
  -27.7397  -28.3867   16.3222 C   0  0  2  0  0  0  0  0  0  0  0  0
  -25.1219  -25.5409   19.1263 C   0  0  0  0  0  0  0  0  0  0  0  0
  -26.4617  -17.1746   23.8002 N   0  0  0  0  0  0  0  0  0  0  0  0
  -27.3725  -22.9202   22.9774 N   0  0  0  0  0  0  0  0  0  0  0  0
  -27.1859  -18.1376   24.3955 N   0  0  0  0  0  0  0  0  0  0  0  0
  -25.5347  -21.5632   24.7975 N   0  0  0  0  0  0  0  0  0  0  0  0
  -24.5303  -28.7917   20.5215 N   0  0  0  0  0  0  0  0  0  0  0  0
  -29.4075  -18.8218   24.8504 N   0  0  0  0  0  0  0  0  0  0  0  0
  -29.9528  -14.9792   22.5410 N   0  0  0  0  0  0  0  0  0  0  0  0
  -21.3240  -28.9078   22.0825 N   0  0  0  0  0  0  0  0  0  0  0  0
  -26.1133  -27.4774   17.8336 N   0  0  0  0  0  0  0  0  0  0  0  0
  -28.6187  -29.5900   16.3081 N   0  3  0  0  0  0  0  0  0  0  0  0
  -31.0562  -16.6820   23.6095 O   0  0  0  0  0  0  0  0  0  0  0  0
  -25.3829  -23.8395   25.3657 O   0  0  0  0  0  0  0  0  0  0  0  0
  -23.3718  -28.0493   22.7840 O   0  0  0  0  0  0  0  0  0  0  0  0
  -23.4108  -27.9650   18.6508 O   0  0  0  0  0  0  0  0  0  0  0  0
  -28.1517  -28.1724   18.6932 O   0  0  0  0  0  0  0  0  0  0  0  0
  -25.8908  -11.7515   20.5119 O   0  0  0  0  0  0  0  0  0  0  0  0
  -28.2833  -31.1083   24.8344 O   0  0  0  0  0  0  0  0  0  1  0  0
  -21.8232   -8.6756   22.6089 F   0  0  0  0  0  0  0  0  0  0  0  0
  -30.3471  -22.7845   27.9462 F   0  0  0  0  0  0  0  0  0  0  0  0
  -23.3678  -12.8118   20.9026 F   0  0  0  0  0  0  0  0  0  0  0  0
  1  2  1  0  0  0  0
  1  5  2  0  0  0  0
  2  6  2  0  0  0  0
  3  8  2  0  0  0  0
  3 17  1  0  0  0  0
  4  9  1  0  0  0  0
  4 17  2  0  0  0  0
  5 21  1  0  0  0  0
  6 23  1  0  0  0  0
  7 10  2  0  0  0  0
  7 22  1  0  0  0  0
  8 26  1  0  0  0  0
  9 26  2  0  0  0  0
 10 27  1  0  0  0  0
 11 12  2  0  0  0  0
 11 28  1  0  0  0  0
 12 29  1  0  0  0  0
 13 18  1  0  0  0  0
 13 30  2  0  0  0  0
 14 19  2  0  0  0  0
 14 30  1  0  0  0  0
 15 24  1  0  0  0  0
 15 27  2  0  0  0  0
 16 29  2  0  0  0  0
 16 31  1  0  0  0  0
 17 32  1  0  0  0  0
 18 25  2  0  0  0  0
 18 34  1  0  0  0  0
 19 25  1  0  0  0  0
 19 36  1  0  0  0  0
 20 32  1  0  0  0  0
 20 33  2  0  0  0  0
 20 37  1  0  0  0  0
 21 23  2  0  0  0  0
 21 42  1  0  0  0  0
 22 24  2  0  0  0  0
 22 43  1  0  0  0  0
 23 51  1  0  0  0  0
 24 44  1  0  0  0  0
 25 54  1  0  0  0  0
 26 81  1  0  0  0  0
 27 82  1  0  0  0  0
 28 31  2  0  0  0  0
 28 81  1  0  0  0  0
 29 83  1  0  0  0  0
 30 84  1  0  0  0  0
 31 85  1  0  0  0  0
 32 66  2  0  0  0  0
 33 68  1  0  0  0  0
 33 71  1  0  0  0  0
 34 35  2  0  0  0  0
 35 60  1  0  0  0  0
 36 38  1  0  0  0  0
 36 67  2  0  0  0  0
 37 72  1  0  0  0  0
 37 76  2  0  0  0  0
 38 69  1  0  0  0  0
 38 77  2  0  0  0  0
 39 52  1  0  0  0  0
 39 73  1  0  0  0  0
 39 78  2  0  0  0  0
 40 63  1  0  0  0  0
 40 70  1  0  0  0  0
 40 79  2  0  0  0  0
 41 64  1  0  0  0  0
 41 74  1  0  0  0  0
 41 80  2  0  0  0  0
 42 45  1  0  0  0  0
 43 52  1  0  0  0  0
 44 70  1  0  0  0  0
 45 47  1  0  0  0  0
 46 48  1  0  0  0  0
 46 49  1  0  0  0  0
 47 51  1  0  0  0  0
 48 53  1  0  0  0  0
 49 69  1  0  0  0  0
 50 53  1  0  0  0  0
 50 69  1  0  0  0  0
 51 73  1  0  0  0  0
 52 70  1  0  0  0  0
 53 68  1  0  0  0  0
 55 64  1  0  0  0  0
 56 65  1  0  0  0  0
 57 65  1  0  0  0  0
 58 65  1  0  0  0  0
 59 75  1  0  0  0  0
 60 61  1  0  0  0  0
 61 62  1  0  0  0  0
 62 82  1  0  0  0  0
 63 65  1  0  0  0  0
 63 74  1  0  0  0  0
 64 75  1  0  0  0  0
 66 68  1  0  0  0  0
M  CHG  1  75   1
M  ISO  4  36 100  38 100  62 101  82 101
M  END
> <Batch ID>
0126

> <Smiles>
CNC(C)C(=O)NC(C(=O)N1Cc2cc([101O:1][101CH2:1]CCC=Cc3cc(F)cc([100C:0](=N)[100C:0](=O)N4CCCC(n5nc(-c6ccc(Oc7ccc(F)cc7F)cc6)c(C(N)=O)c5N)C4)c3C)ccc2CC1C(=O)NC1CCCc2ccccc21)C(C)(C)C

> <Shape>
0.229

> <Color>
0.094

> <Negative vol penalty>
0.000

$$$$

  -OEChem-04052302113D

 83 91  0     1  0  0  0  0  0999 V2000
  -18.6693  -25.9038   24.8986 C   0  0  0  0  0  0  0  0  0  0  0  0
  -19.9006  -25.5377   24.3644 C   0  0  0  0  0  0  0  0  0  0  0  0
  -24.7182   -8.4831   21.3710 C   0  0  0  0  0  0  0  0  0  0  0  0
  -23.1310  -10.2423   20.8989 C   0  0  0  0  0  0  0  0  0  0  0  0
  -17.9879  -27.0064   24.3848 C   0  0  0  0  0  0  0  0  0  0  0  0
  -20.4507  -26.2734   23.3154 C   0  0  0  0  0  0  0  0  0  0  0  0
  -25.3774  -27.2319   23.9888 C   0  0  0  0  0  0  0  0  0  0  0  0
  -23.8750   -7.9894   22.3664 C   0  0  0  0  0  0  0  0  0  0  0  0
  -22.2877   -9.7486   21.8942 C   0  0  0  0  0  0  0  0  0  0  0  0
  -26.2703  -26.1952   23.7204 C   0  0  0  0  0  0  0  0  0  0  0  0
  -21.0647   -6.1179   22.5480 C   0  0  0  0  0  0  0  0  0  0  0  0
  -20.8515   -4.7402   22.5924 C   0  0  0  0  0  0  0  0  0  0  0  0
  -25.8467  -20.0204   19.6944 C   0  0  0  0  0  0  0  0  0  0  0  0
  -27.6967  -18.4686   19.7717 C   0  0  0  0  0  0  0  0  0  0  0  0
  -26.7523  -27.1753   21.5695 C   0  0  0  0  0  0  0  0  0  0  0  0
  -25.5528  -17.7508   18.9200 C   0  0  0  0  0  0  0  0  0  0  0  0
  -21.7610   -4.6715   24.8296 C   0  0  0  0  0  0  0  0  0  0  0  0
  -24.3463   -9.6096   20.6373 C   0  0  0  0  0  0  0  0  0  0  0  0
  -27.1779  -19.7424   20.0041 C   0  0  0  0  0  0  0  0  0  0  0  0
  -25.2260   -9.7631   18.2477 C   0  0  0  0  0  0  0  0  0  0  0  0
  -18.5344  -27.7617   23.3354 C   0  0  0  0  0  0  0  0  0  0  0  0
  -25.1568  -28.2439   23.0434 C   0  0  0  0  0  0  0  0  0  0  0  0
  -19.7753  -27.3863   22.7862 C   0  0  0  0  0  0  0  0  0  0  0  0
  -25.8581  -28.2251   21.8293 C   0  0  0  0  0  0  0  0  0  0  0  0
  -25.0340  -19.0245   19.1524 C   0  0  0  0  0  0  0  0  0  0  0  0
  -26.8841  -17.4727   19.2297 C   0  0  0  0  0  0  0  0  0  0  0  0
  -22.6597   -8.6221   22.6280 C   0  0  0  0  0  0  0  0  0  0  0  0
  -26.9557  -26.1653   22.5094 C   0  0  0  0  0  0  0  0  0  0  0  0
  -21.6262   -6.7725   23.6443 C   0  0  0  0  0  0  0  0  0  0  0  0
  -21.1996   -4.0170   23.7332 C   0  0  0  0  0  0  0  0  0  0  0  0
  -21.9743   -6.0493   24.7852 C   0  0  0  0  0  0  0  0  0  0  0  0
  -25.2172  -10.1204   19.6094 C   0  0  0  0  0  0  0  0  0  0  0  0
  -26.2302  -10.5233   17.6998 C   0  0  0  0  0  0  0  0  0  0  0  0
  -27.3915  -21.8440   21.4192 C   0  0  0  0  0  0  0  0  0  0  0  0
  -28.1298  -22.8136   21.9769 C   0  0  0  0  0  0  0  0  0  0  0  0
  -28.0417  -20.8011   20.5804 C   0  0  0  0  0  0  0  0  0  0  0  0
  -24.4002   -8.8279   17.5413 C   0  0  0  0  0  0  0  0  0  0  0  0
  -22.6385  -29.2597   21.3912 C   0  0  0  0  0  0  0  0  0  0  0  0
  -24.6848  -31.5962   20.4556 C   0  0  0  0  0  0  0  0  0  0  0  0
  -27.9108  -32.6007   19.9753 C   0  0  0  0  0  0  0  0  0  0  0  0
  -28.7094  -15.7365   19.2430 C   0  0  0  0  0  0  0  0  0  0  0  0
  -17.7388  -28.9171   22.7816 C   0  0  0  0  0  0  0  0  0  0  0  0
  -24.2105  -29.3696   23.3591 C   0  0  0  0  0  0  0  0  0  0  0  0
  -25.6721  -29.2985   20.7894 C   0  0  0  0  0  0  0  0  0  0  0  0
  -18.5651  -29.8680   21.9194 C   0  0  0  0  0  0  0  0  0  0  0  0
  -30.3833  -12.6207   18.8342 C   0  0  0  0  0  0  0  0  0  0  0  0
  -19.4229  -29.0839   20.9315 C   0  0  0  0  0  0  0  0  0  0  0  0
  -29.2487  -11.5939   18.8565 C   0  0  0  0  0  0  0  0  0  0  0  0
  -30.1250  -13.7726   19.8037 C   0  0  0  0  0  0  0  0  0  0  0  0
  -27.6917  -13.4125   19.6662 C   0  0  0  0  0  0  0  0  0  0  0  0
  -20.4163  -28.1742   21.6643 C   0  0  1  0  0  0  0  0  0  0  0  0
  -23.6780  -30.0698   22.1127 C   0  0  1  0  0  0  0  0  0  0  0  0
  -27.8761  -12.2664   18.6582 C   0  0  2  0  0  0  0  0  0  0  0  0
  -23.6103  -19.3215   18.8212 C   0  0  0  0  0  0  0  0  0  0  0  0
  -29.2669  -34.5503   19.1644 C   0  0  0  0  0  0  0  0  0  0  0  0
  -23.9897  -30.8777   17.5728 C   0  0  0  0  0  0  0  0  0  0  0  0
  -26.0184  -32.1489   16.8403 C   0  0  0  0  0  0  0  0  0  0  0  0
  -24.1673  -33.3314   18.0226 C   0  0  0  0  0  0  0  0  0  0  0  0
  -29.2413  -32.9157   22.6000 C   0  0  0  0  0  0  0  0  0  0  0  0
  -27.5534  -23.8876   22.8421 C   0  0  0  0  0  0  0  0  0  1  0  0
  -25.6678  -31.7659   19.3225 C   0  0  1  0  0  0  0  0  0  0  0  0
  -28.6398  -33.8717   20.3723 C   0  0  2  0  0  0  0  0  0  0  0  0
  -24.9630  -32.0095   17.9581 C   0  0  0  0  0  0  0  0  0  0  0  0
  -26.1425  -11.0361   19.9082 N   0  0  0  0  0  0  0  0  0  0  0  0
  -26.7422  -11.2606   18.7266 N   0  0  0  0  0  0  0  0  0  0  0  0
  -24.7313  -30.3746   21.1422 N   0  0  0  0  0  0  0  0  0  0  0  0
  -28.8086  -14.3638   19.5538 N   0  0  0  0  0  0  0  0  0  0  0  0
  -26.7165  -10.6261   16.4446 N   0  0  0  0  0  0  0  0  0  0  0  0
  -23.4167   -8.1315   18.2569 N   0  0  0  0  0  0  0  0  0  0  0  0
  -27.4107  -16.1787   18.9931 N   0  0  0  0  0  0  0  0  0  0  0  0
  -21.5355  -28.9452   22.1619 N   0  0  0  0  0  0  0  0  0  0  0  0
  -26.5751  -32.8348   19.7257 N   0  0  0  0  0  0  0  0  0  0  0  0
  -29.7197  -33.5649   21.3524 N   0  3  0  0  0  0  0  0  0  0  0  0
  -29.2504  -20.7779   20.3767 O   0  0  0  0  0  0  0  0  0  0  0  0
  -24.5415   -8.6039   16.3152 O   0  0  0  0  0  0  0  0  0  0  0  0
  -22.8227  -28.9445   20.2214 O   0  0  0  0  0  0  0  0  0  0  0  0
  -23.9093  -32.5165   20.7264 O   0  0  0  0  0  0  0  0  0  0  0  0
  -28.4711  -31.5101   19.8910 O   0  0  0  0  0  0  0  0  0  0  0  0
  -29.7063  -16.4601   19.1748 O   0  0  0  0  0  0  0  0  0  0  0  0
  -21.8365   -8.1404   23.5990 O   0  0  0  0  0  0  0  0  0  0  0  0
  -27.8272  -25.1542   22.2447 O   0  0  0  0  0  0  0  0  0  1  0  0
  -20.9934   -2.6942   23.7763 F   0  0  0  0  0  0  0  0  0  0  0  0
  -22.5129   -6.6728   25.8420 F   0  0  0  0  0  0  0  0  0  0  0  0
  1  2  1  0  0  0  0
  1  5  2  0  0  0  0
  2  6  2  0  0  0  0
  3  8  2  0  0  0  0
  3 18  1  0  0  0  0
  4  9  1  0  0  0  0
  4 18  2  0  0  0  0
  5 21  1  0  0  0  0
  6 23  1  0  0  0  0
  7 10  2  0  0  0  0
  7 22  1  0  0  0  0
  8 27  1  0  0  0  0
  9 27  2  0  0  0  0
 10 28  1  0  0  0  0
 11 12  2  0  0  0  0
 11 29  1  0  0  0  0
 12 30  1  0  0  0  0
 13 19  1  0  0  0  0
 13 25  2  0  0  0  0
 14 19  2  0  0  0  0
 14 26  1  0  0  0  0
 15 24  1  0  0  0  0
 15 28  2  0  0  0  0
 16 25  1  0  0  0  0
 16 26  2  0  0  0  0
 17 30  2  0  0  0  0
 17 31  1  0  0  0  0
 18 32  1  0  0  0  0
 19 36  1  0  0  0  0
 20 32  1  0  0  0  0
 20 33  2  0  0  0  0
 20 37  1  0  0  0  0
 21 23  2  0  0  0  0
 21 42  1  0  0  0  0
 22 24  2  0  0  0  0
 22 43  1  0  0  0  0
 23 51  1  0  0  0  0
 24 44  1  0  0  0  0
 25 54  1  0  0  0  0
 26 70  1  0  0  0  0
 27 80  1  0  0  0  0
 28 81  1  0  0  0  0
 29 31  2  0  0  0  0
 29 80  1  0  0  0  0
 30 82  1  0  0  0  0
 31 83  1  0  0  0  0
 32 64  2  0  0  0  0
 33 65  1  0  0  0  0
 33 68  1  0  0  0  0
 34 35  2  0  0  0  0
 34 36  1  0  0  0  0
 35 60  1  0  0  0  0
 36 74  2  0  0  0  0
 37 69  1  0  0  0  0
 37 75  2  0  0  0  0
 38 52  1  0  0  0  0
 38 71  1  0  0  0  0
 38 76  2  0  0  0  0
 39 61  1  0  0  0  0
 39 66  1  0  0  0  0
 39 77  2  0  0  0  0
 40 62  1  0  0  0  0
 40 72  1  0  0  0  0
 40 78  2  0  0  0  0
 41 67  1  0  0  0  0
 41 70  1  0  0  0  0
 41 79  2  0  0  0  0
 42 45  1  0  0  0  0
 43 52  1  0  0  0  0
 44 66  1  0  0  0  0
 45 47  1  0  0  0  0
 46 48  1  0  0  0  0
 46 49  1  0  0  0  0
 47 51  1  0  0  0  0
 48 53  1  0  0  0  0
 49 67  1  0  0  0  0
 50 53  1  0  0  0  0
 50 67  1  0  0  0  0
 51 71  1  0  0  0  0
 52 66  1  0  0  0  0
 53 65  1  0  0  0  0
 55 62  1  0  0  0  0
 56 63  1  0  0  0  0
 57 63  1  0  0  0  0
 58 63  1  0  0  0  0
 59 73  1  0  0  0  0
 60 81  1  0  0  0  0
 61 63  1  0  0  0  0
 61 72  1  0  0  0  0
 62 73  1  0  0  0  0
 64 65  1  0  0  0  0
M  CHG  1  73   1
M  ISO  4  41 100  60 101  70 100  81 101
M  END
> <Batch ID>
0126

> <Smiles>
CNC(C)C(=O)NC(C(=O)N1Cc2cc([101O:1][101CH2:1]C=CC(=O)c3cc(C)cc([100NH:0][100C:0](=O)N4CCCC(n5nc(-c6ccc(Oc7ccc(F)cc7F)cc6)c(C(N)=O)c5N)C4)c3)ccc2CC1C(=O)NC1CCCc2ccccc21)C(C)(C)C

> <Shape>
0.238

> <Color>
0.102

> <Negative vol penalty>
0.000

$$$$

  -OEChem-04052302113D

 83 91  0     1  0  0  0  0  0999 V2000
  -28.5119  -33.6724   22.7228 C   0  0  0  0  0  0  0  0  0  0  0  0
  -28.6874  -32.3458   23.1032 C   0  0  0  0  0  0  0  0  0  0  0  0
  -28.5857  -19.0097   20.4064 C   0  0  0  0  0  0  0  0  0  0  0  0
  -23.2422   -9.8205   19.7704 C   0  0  0  0  0  0  0  0  0  0  0  0
  -24.0645   -9.6790   22.0377 C   0  0  0  0  0  0  0  0  0  0  0  0
  -29.1264  -19.9841   21.2452 C   0  0  0  0  0  0  0  0  0  0  0  0
  -28.8590  -17.6613   20.6367 C   0  0  0  0  0  0  0  0  0  0  0  0
  -27.3681  -34.0494   22.0202 C   0  0  0  0  0  0  0  0  0  0  0  0
  -27.7187  -31.3956   22.7822 C   0  0  0  0  0  0  0  0  0  0  0  0
  -29.7243  -27.1079   20.9828 C   0  0  0  0  0  0  0  0  0  0  0  0
  -22.5886   -8.5989   19.9311 C   0  0  0  0  0  0  0  0  0  0  0  0
  -23.4108   -8.4573   22.1985 C   0  0  0  0  0  0  0  0  0  0  0  0
  -30.2739  -26.2237   21.9102 C   0  0  0  0  0  0  0  0  0  0  0  0
  -20.2650   -7.3772   22.7970 C   0  0  0  0  0  0  0  0  0  0  0  0
  -19.5463   -7.1787   23.9758 C   0  0  0  0  0  0  0  0  0  0  0  0
  -28.2669  -24.8886   21.8176 C   0  0  0  0  0  0  0  0  0  0  0  0
  -20.9411   -5.2787   24.5063 C   0  0  0  0  0  0  0  0  0  0  0  0
  -23.9802  -10.3606   20.8237 C   0  0  0  0  0  0  0  0  0  0  0  0
  -29.9407  -19.6103   22.3142 C   0  0  0  0  0  0  0  0  0  0  0  0
  -29.6733  -17.2875   21.7057 C   0  0  0  0  0  0  0  0  0  0  0  0
  -24.1403  -12.9045   20.9254 C   0  0  0  0  0  0  0  0  0  0  0  0
  -26.3895  -33.1015   21.6820 C   0  0  0  0  0  0  0  0  0  0  0  0
  -28.4354  -26.8946   20.4732 C   0  0  0  0  0  0  0  0  0  0  0  0
  -26.5601  -31.7605   22.0756 C   0  0  0  0  0  0  0  0  0  0  0  0
  -27.7043  -25.7701   20.8820 C   0  0  0  0  0  0  0  0  0  0  0  0
  -30.2141  -18.2619   22.5446 C   0  0  0  0  0  0  0  0  0  0  0  0
  -22.6728   -7.9172   21.1452 C   0  0  0  0  0  0  0  0  0  0  0  0
  -29.5441  -25.1155   22.3299 C   0  0  0  0  0  0  0  0  0  0  0  0
  -21.3218   -6.5264   22.4728 C   0  0  0  0  0  0  0  0  0  0  0  0
  -19.8843   -6.1295   24.8305 C   0  0  0  0  0  0  0  0  0  0  0  0
  -21.6598   -5.4771   23.3275 C   0  0  0  0  0  0  0  0  0  0  0  0
  -24.6562  -11.6222   20.6580 C   0  0  0  0  0  0  0  0  0  0  0  0
  -25.1664  -13.7605   20.6076 C   0  0  0  0  0  0  0  0  0  0  0  0
  -30.4943  -20.6648   23.1798 C   0  0  0  0  0  0  0  0  0  0  0  0
  -31.3133  -21.6476   22.7736 C   0  0  0  0  0  0  0  0  0  0  0  0
  -29.9392  -15.8709   21.9201 C   0  0  0  0  0  0  0  0  0  0  0  0
  -22.8492  -13.2876   21.4171 C   0  0  0  0  0  0  0  0  0  0  0  0
  -30.6032  -15.0477   20.8834 C   0  0  0  0  0  0  0  0  0  0  0  0
  -25.6973  -28.5071   20.5513 C   0  0  0  0  0  0  0  0  0  0  0  0
  -24.7122  -26.1666   18.5328 C   0  0  0  0  0  0  0  0  0  0  0  0
  -25.1062  -22.9782   17.3815 C   0  0  0  0  0  0  0  0  0  0  0  0
  -25.1475  -33.5653   20.9629 C   0  0  0  0  0  0  0  0  0  0  0  0
  -27.8674  -27.8430   19.4533 C   0  0  0  0  0  0  0  0  0  0  0  0
  -26.3244  -25.4850   20.3498 C   0  0  0  0  0  0  0  0  0  0  0  0
  -24.3466  -32.4276   20.3349 C   0  0  0  0  0  0  0  0  0  0  0  0
  -29.5237  -12.9411   18.1901 C   0  0  0  0  0  0  0  0  0  0  0  0
  -24.1826  -31.2797   21.3260 C   0  0  0  0  0  0  0  0  0  0  0  0
  -28.1342  -12.4849   18.6338 C   0  0  0  0  0  0  0  0  0  0  0  0
  -30.4649  -13.1014   19.3796 C   0  0  0  0  0  0  0  0  0  0  0  0
  -28.5526  -13.5655   20.8883 C   0  0  0  0  0  0  0  0  0  0  0  0
  -25.5435  -30.6960   21.7242 C   0  0  1  0  0  0  0  0  0  0  0  0
  -26.3436  -27.8084   19.3886 C   0  0  1  0  0  0  0  0  0  0  0  0
  -27.5659  -13.4193   19.7168 C   0  0  2  0  0  0  0  0  0  0  0  0
  -31.0872  -17.8512   23.6905 C   0  0  0  0  0  0  0  0  0  0  0  0
  -24.1272  -21.3355   15.7565 C   0  0  0  0  0  0  0  0  0  0  0  0
  -22.3718  -25.6874   20.4309 C   0  0  0  0  0  0  0  0  0  0  0  0
  -21.9953  -23.4860   19.2994 C   0  0  0  0  0  0  0  0  0  0  0  0
  -21.7791  -25.6060   18.0026 C   0  0  0  0  0  0  0  0  0  0  0  0
  -27.6419  -22.7884   15.8672 C   0  0  0  0  0  0  0  0  0  0  0  0
  -31.8668  -22.6992   23.6959 C   0  0  0  0  0  0  0  0  0  0  0  0
  -31.4972  -24.1039   23.2342 C   0  0  0  0  0  0  0  0  0  1  0  0
  -24.0746  -24.8086   18.7005 C   0  0  1  0  0  0  0  0  0  0  0  0
  -25.1742  -22.4172   15.9725 C   0  0  2  0  0  0  0  0  0  0  0  0
  -22.5804  -24.9032   19.1201 C   0  0  0  0  0  0  0  0  0  0  0  0
  -25.9122  -11.6558   20.2051 N   0  0  0  0  0  0  0  0  0  0  0  0
  -29.6196  -15.2427   23.0174 N   0  0  0  0  0  0  0  0  0  0  0  0
  -26.1943  -12.9697   20.1853 N   0  0  0  0  0  0  0  0  0  0  0  0
  -29.8801  -13.9645   20.4039 N   0  0  0  0  0  0  0  0  0  0  0  0
  -25.8100  -26.4451   19.3593 N   0  0  0  0  0  0  0  0  0  0  0  0
  -25.2806  -15.1049   20.6509 N   0  0  0  0  0  0  0  0  0  0  0  0
  -21.9136  -12.2811   21.6927 N   0  0  0  0  0  0  0  0  0  0  0  0
  -26.0513  -29.8369   20.6760 N   0  0  0  0  0  0  0  0  0  0  0  0
  -24.2996  -24.0945   17.4484 N   0  0  0  0  0  0  0  0  0  0  0  0
  -26.5185  -21.8285   15.7137 N   0  3  0  0  0  0  0  0  0  0  0  0
  -22.5288  -14.4879   21.5908 O   0  0  0  0  0  0  0  0  0  0  0  0
  -31.7256  -15.4128   20.5590 O   0  0  0  0  0  0  0  0  0  0  0  0
  -24.9328  -27.8859   21.2803 O   0  0  0  0  0  0  0  0  0  0  0  0
  -24.2576  -26.9487   17.6942 O   0  0  0  0  0  0  0  0  0  0  0  0
  -25.7055  -22.4742   18.3288 O   0  0  0  0  0  0  0  0  0  0  0  0
  -22.0349   -6.7252   21.3025 O   0  0  0  0  0  0  0  0  0  0  0  0
  -30.0778  -24.2513   23.2355 O   0  0  0  0  0  0  0  0  0  1  0  0
  -19.1950   -5.9399   25.9632 F   0  0  0  0  0  0  0  0  0  0  0  0
  -22.6748   -4.6572   23.0219 F   0  0  0  0  0  0  0  0  0  0  0  0
  1  2  1  0  0  0  0
  1  8  2  0  0  0  0
  2  9  2  0  0  0  0
  3  6  2  0  0  0  0
  3  7  1  0  0  0  0
  4 11  2  0  0  0  0
  4 18  1  0  0  0  0
  5 12  1  0  0  0  0
  5 18  2  0  0  0  0
  6 19  1  0  0  0  0
  7 20  2  0  0  0  0
  8 22  1  0  0  0  0
  9 24  1  0  0  0  0
 10 13  2  0  0  0  0
 10 23  1  0  0  0  0
 11 27  1  0  0  0  0
 12 27  2  0  0  0  0
 13 28  1  0  0  0  0
 14 15  2  0  0  0  0
 14 29  1  0  0  0  0
 15 30  1  0  0  0  0
 16 25  1  0  0  0  0
 16 28  2  0  0  0  0
 17 30  2  0  0  0  0
 17 31  1  0  0  0  0
 18 32  1  0  0  0  0
 19 26  2  0  0  0  0
 19 34  1  0  0  0  0
 20 26  1  0  0  0  0
 20 36  1  0  0  0  0
 21 32  1  0  0  0  0
 21 33  2  0  0  0  0
 21 37  1  0  0  0  0
 22 24  2  0  0  0  0
 22 42  1  0  0  0  0
 23 25  2  0  0  0  0
 23 43  1  0  0  0  0
 24 51  1  0  0  0  0
 25 44  1  0  0  0  0
 26 54  1  0  0  0  0
 27 80  1  0  0  0  0
 28 81  1  0  0  0  0
 29 31  2  0  0  0  0
 29 80  1  0  0  0  0
 30 82  1  0  0  0  0
 31 83  1  0  0  0  0
 32 65  2  0  0  0  0
 33 67  1  0  0  0  0
 33 70  1  0  0  0  0
 34 35  2  0  0  0  0
 35 60  1  0  0  0  0
 36 38  1  0  0  0  0
 36 66  2  0  0  0  0
 37 71  1  0  0  0  0
 37 75  2  0  0  0  0
 38 68  1  0  0  0  0
 38 76  2  0  0  0  0
 39 52  1  0  0  0  0
 39 72  1  0  0  0  0
 39 77  2  0  0  0  0
 40 62  1  0  0  0  0
 40 69  1  0  0  0  0
 40 78  2  0  0  0  0
 41 63  1  0  0  0  0
 41 73  1  0  0  0  0
 41 79  2  0  0  0  0
 42 45  1  0  0  0  0
 43 52  1  0  0  0  0
 44 69  1  0  0  0  0
 45 47  1  0  0  0  0
 46 48  1  0  0  0  0
 46 49  1  0  0  0  0
 47 51  1  0  0  0  0
 48 53  1  0  0  0  0
 49 68  1  0  0  0  0
 50 53  1  0  0  0  0
 50 68  1  0  0  0  0
 51 72  1  0  0  0  0
 52 69  1  0  0  0  0
 53 67  1  0  0  0  0
 55 63  1  0  0  0  0
 56 64  1  0  0  0  0
 57 64  1  0  0  0  0
 58 64  1  0  0  0  0
 59 74  1  0  0  0  0
 60 61  1  0  0  0  0
 61 81  1  0  0  0  0
 62 64  1  0  0  0  0
 62 73  1  0  0  0  0
 63 74  1  0  0  0  0
 65 67  1  0  0  0  0
M  CHG  1  74   1
M  ISO  4  36 100  38 100  61 101  81 101
M  END
> <Batch ID>
0126

> <Smiles>
CNC(C)C(=O)NC(C(=O)N1Cc2cc([101O:1][101CH2:1]CC=Cc3cccc([100C:0](=N)[100C:0](=O)N4CCCC(n5nc(-c6ccc(Oc7ccc(F)cc7F)cc6)c(C(N)=O)c5N)C4)c3C)ccc2CC1C(=O)NC1CCCc2ccccc21)C(C)(C)C

> <Shape>
0.301

> <Color>
0.168

> <Negative vol penalty>
0.000

$$$$

  -OEChem-04052302113D

 84 92  0     1  0  0  0  0  0999 V2000
  -25.4801  -22.6599   18.8932 C   0  0  0  0  0  0  0  0  0  0  0  0
  -24.4562  -23.5299   19.2540 C   0  0  0  0  0  0  0  0  0  0  0  0
  -24.8914  -13.8683   21.9581 C   0  0  0  0  0  0  0  0  0  0  0  0
  -25.8541  -14.1809   19.7644 C   0  0  0  0  0  0  0  0  0  0  0  0
  -26.7184  -22.7408   19.5288 C   0  0  0  0  0  0  0  0  0  0  0  0
  -24.6697  -24.4806   20.2516 C   0  0  0  0  0  0  0  0  0  0  0  0
  -22.8780  -29.0481   18.9976 C   0  0  0  0  0  0  0  0  0  0  0  0
  -24.9229  -12.4859   21.7750 C   0  0  0  0  0  0  0  0  0  0  0  0
  -25.8857  -12.7985   19.5812 C   0  0  0  0  0  0  0  0  0  0  0  0
  -21.5029  -29.2463   19.1131 C   0  0  0  0  0  0  0  0  0  0  0  0
  -24.4174   -8.8849   21.7393 C   0  0  0  0  0  0  0  0  0  0  0  0
  -23.2847   -8.1553   22.1002 C   0  0  0  0  0  0  0  0  0  0  0  0
  -19.5776  -25.3986   21.2065 C   0  0  0  0  0  0  0  0  0  0  0  0
  -18.6065  -26.8983   23.3490 C   0  0  0  0  0  0  0  0  0  0  0  0
  -21.8477  -30.3686   21.2204 C   0  0  0  0  0  0  0  0  0  0  0  0
  -21.9683   -9.4141   20.5128 C   0  0  0  0  0  0  0  0  0  0  0  0
  -25.3569  -14.7158   20.9528 C   0  0  0  0  0  0  0  0  0  0  0  0
  -19.9524  -25.0755   22.5106 C   0  0  0  0  0  0  0  0  0  0  0  0
  -18.2317  -27.2214   22.0448 C   0  0  0  0  0  0  0  0  0  0  0  0
  -26.3334  -16.9513   21.6990 C   0  0  0  0  0  0  0  0  0  0  0  0
  -26.9502  -23.6993   20.5279 C   0  0  0  0  0  0  0  0  0  0  0  0
  -23.7489  -29.4998   19.9997 C   0  0  0  0  0  0  0  0  0  0  0  0
  -25.9118  -24.5734   20.9021 C   0  0  0  0  0  0  0  0  0  0  0  0
  -23.2337  -30.1771   21.1141 C   0  0  0  0  0  0  0  0  0  0  0  0
  -19.4668  -25.8253   23.5818 C   0  0  0  0  0  0  0  0  0  0  0  0
  -18.7173  -26.4716   20.9735 C   0  0  0  0  0  0  0  0  0  0  0  0
  -25.4201  -11.9510   20.5865 C   0  0  0  0  0  0  0  0  0  0  0  0
  -20.9872  -29.9041   20.2260 C   0  0  0  0  0  0  0  0  0  0  0  0
  -24.3256   -9.8791   20.7653 C   0  0  0  0  0  0  0  0  0  0  0  0
  -22.0601   -8.4199   21.4869 C   0  0  0  0  0  0  0  0  0  0  0  0
  -23.1011  -10.1437   20.1520 C   0  0  0  0  0  0  0  0  0  0  0  0
  -25.3240  -16.1439   21.1412 C   0  0  0  0  0  0  0  0  0  0  0  0
  -25.8192  -18.2241   21.6538 C   0  0  0  0  0  0  0  0  0  0  0  0
  -20.8526  -23.9494   22.7217 C   0  0  0  0  0  0  0  0  0  0  0  0
  -17.3247  -28.3542   21.8322 C   0  0  0  0  0  0  0  0  0  0  0  0
  -20.6135  -22.6772   22.3433 C   0  0  0  0  0  0  0  0  0  0  0  0
  -27.6208  -16.5836   22.2120 C   0  0  0  0  0  0  0  0  0  0  0  0
  -17.6890  -29.6372   21.6416 C   0  0  0  0  0  0  0  0  0  0  0  0
  -21.6329  -21.6454   22.6207 C   0  0  0  0  0  0  0  0  0  0  0  0
  -25.7930  -28.1019   21.9924 C   0  0  0  0  0  0  0  0  0  0  0  0
  -26.5481  -31.1650   22.7473 C   0  0  0  0  0  0  0  0  0  0  0  0
  -25.5983  -34.4411   22.8533 C   0  0  0  0  0  0  0  0  0  0  0  0
  -28.2903  -23.7174   21.2196 C   0  0  0  0  0  0  0  0  0  0  0  0
  -25.2321  -29.3018   19.8473 C   0  0  0  0  0  0  0  0  0  0  0  0
  -24.1279  -30.6994   22.2078 C   0  0  0  0  0  0  0  0  0  0  0  0
  -28.5532  -24.9998   22.0048 C   0  0  0  0  0  0  0  0  0  0  0  0
  -21.7464  -20.0630   19.3169 C   0  0  0  0  0  0  0  0  0  0  0  0
  -27.3363  -25.3689   22.8473 C   0  0  0  0  0  0  0  0  0  0  0  0
  -22.7425  -18.9337   19.5663 C   0  0  0  0  0  0  0  0  0  0  0  0
  -20.8901  -20.3524   20.5488 C   0  0  0  0  0  0  0  0  0  0  0  0
  -22.6850  -19.4973   22.0279 C   0  0  0  0  0  0  0  0  0  0  0  0
  -26.1126  -25.6345   21.9622 C   0  0  1  0  0  0  0  0  0  0  0  0
  -25.9808  -29.3490   21.1756 C   0  0  1  0  0  0  0  0  0  0  0  0
  -23.5891  -19.2208   20.8165 C   0  0  1  0  0  0  0  0  0  0  0  0
  -19.8469  -25.5077   24.9923 C   0  0  0  0  0  0  0  0  0  0  0  0
  -18.3364  -26.7893   19.5633 C   0  0  0  0  0  0  0  0  0  0  0  0
  -16.6373  -30.6939   21.4229 C   0  0  0  0  0  0  0  0  0  0  0  0
  -26.4149  -36.7071   23.5574 C   0  0  0  0  0  0  0  0  0  0  0  0
  -26.0358  -30.4398   25.6665 C   0  0  0  0  0  0  0  0  0  0  0  0
  -25.9302  -32.8873   26.1833 C   0  0  0  0  0  0  0  0  0  0  0  0
  -28.0356  -31.8931   25.2880 C   0  0  0  0  0  0  0  0  0  0  0  0
  -25.4045  -35.4961   20.0950 C   0  0  0  0  0  0  0  0  0  0  0  0
  -19.1071  -30.1453   21.6623 C   0  0  0  0  0  0  0  0  0  1  0  0
  -26.0464  -32.1730   23.7528 C   0  0  1  0  0  0  0  0  0  0  0  0
  -26.3066  -35.7100   22.4143 C   0  0  2  0  0  0  0  0  0  0  0  0
  -26.4947  -31.8369   25.2032 C   0  0  0  0  0  0  0  0  0  0  0  0
  -24.2498  -16.8450   20.7691 N   0  0  0  0  0  0  0  0  0  0  0  0
  -24.5812  -18.1063   21.0938 N   0  0  0  0  0  0  0  0  0  0  0  0
  -21.7206  -20.5658   21.7436 N   0  0  0  0  0  0  0  0  0  0  0  0
  -25.5703  -30.4757   22.0161 N   0  0  0  0  0  0  0  0  0  0  0  0
  -26.3098  -19.4213   22.0389 N   0  0  0  0  0  0  0  0  0  0  0  0
  -27.9906  -15.2320   22.1825 N   0  0  0  0  0  0  0  0  0  0  0  0
  -26.2024  -26.9456   21.3560 N   0  0  0  0  0  0  0  0  0  0  0  0
  -26.4902  -33.4791   23.2778 N   0  0  0  0  0  0  0  0  0  0  0  0
  -25.5646  -36.3567   21.2953 N   0  3  0  0  0  0  0  0  0  0  0  0
  -28.4128  -17.4263   22.6977 O   0  0  0  0  0  0  0  0  0  0  0  0
  -22.3425  -21.8003   23.6163 O   0  0  0  0  0  0  0  0  0  0  0  0
  -25.3137  -28.1828   23.1173 O   0  0  0  0  0  0  0  0  0  0  0  0
  -27.7629  -31.0005   22.6104 O   0  0  0  0  0  0  0  0  0  0  0  0
  -24.3758  -34.3173   22.8262 O   0  0  0  0  0  0  0  0  0  0  0  0
  -25.4513  -10.6021   20.4076 O   0  0  0  0  0  0  0  0  0  0  0  0
  -19.6453  -30.0983   20.3415 O   0  0  0  0  0  0  0  0  0  1  0  0
  -20.9728   -7.7182   21.8324 F   0  0  0  0  0  0  0  0  0  0  0  0
  -23.0069  -11.0968   19.2147 F   0  0  0  0  0  0  0  0  0  0  0  0
  1  2  1  0  0  0  0
  1  5  2  0  0  0  0
  2  6  2  0  0  0  0
  3  8  2  0  0  0  0
  3 17  1  0  0  0  0
  4  9  1  0  0  0  0
  4 17  2  0  0  0  0
  5 21  1  0  0  0  0
  6 23  1  0  0  0  0
  7 10  2  0  0  0  0
  7 22  1  0  0  0  0
  8 27  1  0  0  0  0
  9 27  2  0  0  0  0
 10 28  1  0  0  0  0
 11 12  2  0  0  0  0
 11 29  1  0  0  0  0
 12 30  1  0  0  0  0
 13 18  2  0  0  0  0
 13 26  1  0  0  0  0
 14 19  1  0  0  0  0
 14 25  2  0  0  0  0
 15 24  1  0  0  0  0
 15 28  2  0  0  0  0
 16 30  2  0  0  0  0
 16 31  1  0  0  0  0
 17 32  1  0  0  0  0
 18 25  1  0  0  0  0
 18 34  1  0  0  0  0
 19 26  2  0  0  0  0
 19 35  1  0  0  0  0
 20 32  1  0  0  0  0
 20 33  2  0  0  0  0
 20 37  1  0  0  0  0
 21 23  2  0  0  0  0
 21 43  1  0  0  0  0
 22 24  2  0  0  0  0
 22 44  1  0  0  0  0
 23 52  1  0  0  0  0
 24 45  1  0  0  0  0
 25 55  1  0  0  0  0
 26 56  1  0  0  0  0
 27 81  1  0  0  0  0
 28 82  1  0  0  0  0
 29 31  2  0  0  0  0
 29 81  1  0  0  0  0
 30 83  1  0  0  0  0
 31 84  1  0  0  0  0
 32 67  2  0  0  0  0
 33 68  1  0  0  0  0
 33 71  1  0  0  0  0
 34 36  2  0  0  0  0
 35 38  2  0  0  0  0
 36 39  1  0  0  0  0
 37 72  1  0  0  0  0
 37 76  2  0  0  0  0
 38 57  1  0  0  0  0
 38 63  1  0  0  0  0
 39 69  1  0  0  0  0
 39 77  2  0  0  0  0
 40 53  1  0  0  0  0
 40 73  1  0  0  0  0
 40 78  2  0  0  0  0
 41 64  1  0  0  0  0
 41 70  1  0  0  0  0
 41 79  2  0  0  0  0
 42 65  1  0  0  0  0
 42 74  1  0  0  0  0
 42 80  2  0  0  0  0
 43 46  1  0  0  0  0
 44 53  1  0  0  0  0
 45 70  1  0  0  0  0
 46 48  1  0  0  0  0
 47 49  1  0  0  0  0
 47 50  1  0  0  0  0
 48 52  1  0  0  0  0
 49 54  1  0  0  0  0
 50 69  1  0  0  0  0
 51 54  1  0  0  0  0
 51 69  1  0  0  0  0
 52 73  1  0  0  0  0
 53 70  1  0  0  0  0
 54 68  1  0  0  0  0
 58 65  1  0  0  0  0
 59 66  1  0  0  0  0
 60 66  1  0  0  0  0
 61 66  1  0  0  0  0
 62 75  1  0  0  0  0
 63 82  1  0  0  0  0
 64 66  1  0  0  0  0
 64 74  1  0  0  0  0
 65 75  1  0  0  0  0
 67 68  1  0  0  0  0
M  CHG  1  75   1
M  ISO  4  36 100  39 100  63 101  82 101
M  END
> <Batch ID>
0126

> <Smiles>
CNC(C)C(=O)NC(C(=O)N1Cc2cc([101O:1][101CH2:1]C(C)=Cc3cc(C)c(C=[100CH:0][100C:0](=O)N4CCCC(n5nc(-c6ccc(Oc7ccc(F)cc7F)cc6)c(C(N)=O)c5N)C4)cc3C)ccc2CC1C(=O)NC1CCCc2ccccc21)C(C)(C)C

> <Shape>
0.251

> <Color>
0.079

> <Negative vol penalty>
0.000

$$$$

  -OEChem-04052302113D

 85 93  0     1  0  0  0  0  0999 V2000
  -26.0147  -35.3243   23.2282 C   0  0  0  0  0  0  0  0  0  0  0  0
  -26.5553  -34.0530   23.0642 C   0  0  0  0  0  0  0  0  0  0  0  0
  -23.7427  -10.9511   22.2820 C   0  0  0  0  0  0  0  0  0  0  0  0
  -24.1549   -9.0454   20.8554 C   0  0  0  0  0  0  0  0  0  0  0  0
  -29.3340  -20.1636   18.6927 C   0  0  0  0  0  0  0  0  0  0  0  0
  -29.3500  -18.7818   18.5031 C   0  0  0  0  0  0  0  0  0  0  0  0
  -24.6764  -35.4700   23.5908 C   0  0  0  0  0  0  0  0  0  0  0  0
  -25.7580  -32.9265   23.2638 C   0  0  0  0  0  0  0  0  0  0  0  0
  -26.3740  -29.4435   19.6397 C   0  0  0  0  0  0  0  0  0  0  0  0
  -22.4436  -10.4982   22.5117 C   0  0  0  0  0  0  0  0  0  0  0  0
  -22.8558   -8.5924   21.0851 C   0  0  0  0  0  0  0  0  0  0  0  0
  -27.5124  -28.6420   19.7138 C   0  0  0  0  0  0  0  0  0  0  0  0
  -21.1824   -6.9658   23.5294 C   0  0  0  0  0  0  0  0  0  0  0  0
  -21.0105   -5.6106   23.8112 C   0  0  0  0  0  0  0  0  0  0  0  0
  -31.7476  -20.2054   18.5930 C   0  0  0  0  0  0  0  0  0  0  0  0
  -26.1933  -26.8682   20.6795 C   0  0  0  0  0  0  0  0  0  0  0  0
  -19.5945   -5.3859   21.8665 C   0  0  0  0  0  0  0  0  0  0  0  0
  -24.5984  -10.2247   21.4539 C   0  0  0  0  0  0  0  0  0  0  0  0
  -30.5328  -20.8754   18.7375 C   0  0  0  0  0  0  0  0  0  0  0  0
  -30.5648  -18.1118   18.3585 C   0  0  0  0  0  0  0  0  0  0  0  0
  -27.0933  -10.3829   21.9619 C   0  0  0  0  0  0  0  0  0  0  0  0
  -23.8598  -34.3450   23.7856 C   0  0  0  0  0  0  0  0  0  0  0  0
  -25.1367  -28.9665   20.0958 C   0  0  0  0  0  0  0  0  0  0  0  0
  -24.4078  -33.0573   23.6307 C   0  0  0  0  0  0  0  0  0  0  0  0
  -25.0402  -27.6647   20.6078 C   0  0  0  0  0  0  0  0  0  0  0  0
  -31.7636  -18.8235   18.4034 C   0  0  0  0  0  0  0  0  0  0  0  0
  -22.0001   -9.3189   21.9132 C   0  0  0  0  0  0  0  0  0  0  0  0
  -27.4227  -27.3552   20.2364 C   0  0  0  0  0  0  0  0  0  0  0  0
  -20.5603   -7.5311   22.4162 C   0  0  0  0  0  0  0  0  0  0  0  0
  -20.2165   -4.8206   22.9798 C   0  0  0  0  0  0  0  0  0  0  0  0
  -19.7663   -6.7411   21.5848 C   0  0  0  0  0  0  0  0  0  0  0  0
  -25.9403  -10.6923   21.2158 C   0  0  0  0  0  0  0  0  0  0  0  0
  -28.1032  -11.0702   21.3342 C   0  0  0  0  0  0  0  0  0  0  0  0
  -30.5145  -22.3353   18.9376 C   0  0  0  0  0  0  0  0  0  0  0  0
  -29.4857  -23.0195   19.4571 C   0  0  0  0  0  0  0  0  0  0  0  0
  -30.5526  -16.6684   18.1613 C   0  0  0  0  0  0  0  0  0  0  0  0
  -27.2384   -9.5487   23.1190 C   0  0  0  0  0  0  0  0  0  0  0  0
  -29.5636  -24.5015   19.6090 C   0  0  0  0  0  0  0  0  0  0  0  0
  -29.9628  -15.7618   19.1667 C   0  0  0  0  0  0  0  0  0  0  0  0
  -23.0948  -29.8422   22.3689 C   0  0  0  0  0  0  0  0  0  0  0  0
  -21.2447  -27.5227   21.0577 C   0  0  0  0  0  0  0  0  0  0  0  0
  -21.0668  -24.6459   19.2303 C   0  0  0  0  0  0  0  0  0  0  0  0
  -22.4313  -34.5518   24.2231 C   0  0  0  0  0  0  0  0  0  0  0  0
  -23.9130  -29.8338   19.9843 C   0  0  0  0  0  0  0  0  0  0  0  0
  -23.7314  -27.0980   21.0921 C   0  0  0  0  0  0  0  0  0  0  0  0
  -21.5559  -33.3132   24.0500 C   0  0  0  0  0  0  0  0  0  0  0  0
  -28.2080  -13.4752   16.9030 C   0  0  0  0  0  0  0  0  0  0  0  0
  -22.2697  -32.0759   24.5852 C   0  0  0  0  0  0  0  0  0  0  0  0
  -27.5164  -12.5487   17.8996 C   0  0  0  0  0  0  0  0  0  0  0  0
  -28.3030  -14.9080   17.4253 C   0  0  0  0  0  0  0  0  0  0  0  0
  -28.2576  -14.0853   19.7623 C   0  0  0  0  0  0  0  0  0  0  0  0
  -23.5685  -31.8115   23.8140 C   0  0  1  0  0  0  0  0  0  0  0  0
  -22.8051  -29.4315   20.9529 C   0  0  1  0  0  0  0  0  0  0  0  0
  -28.1931  -12.6286   19.2772 C   0  0  1  0  0  0  0  0  0  0  0  0
  -33.6769  -18.3260   16.8612 C   0  0  0  0  0  0  0  0  0  0  0  0
  -19.4202  -22.9659   18.3565 C   0  0  0  0  0  0  0  0  0  0  0  0
  -21.0007  -26.3139   23.8486 C   0  0  0  0  0  0  0  0  0  0  0  0
  -20.1867  -24.1985   22.7854 C   0  0  0  0  0  0  0  0  0  0  0  0
  -18.8818  -26.3079   22.5203 C   0  0  0  0  0  0  0  0  0  0  0  0
  -21.7936  -25.2225   16.4199 C   0  0  0  0  0  0  0  0  0  0  0  0
  -33.0782  -18.1299   18.2505 C   0  0  0  0  0  0  0  0  0  0  0  0
  -28.3392  -25.1608   20.2079 C   0  0  0  0  0  0  0  0  0  1  0  0
  -21.0698  -26.0401   21.2823 C   0  0  1  0  0  0  0  0  0  0  0  0
  -20.1833  -24.2479   18.0618 C   0  0  2  0  0  0  0  0  0  0  0  0
  -20.3099  -25.7262   22.6019 C   0  0  0  0  0  0  0  0  0  0  0  0
  -26.1932  -11.5125   20.1924 N   0  0  0  0  0  0  0  0  0  0  0  0
  -31.0494  -16.0878   17.1041 N   0  0  0  0  0  0  0  0  0  0  0  0
  -27.5166  -11.7243   20.2910 N   0  0  0  0  0  0  0  0  0  0  0  0
  -28.9000  -14.9527   18.7686 N   0  0  0  0  0  0  0  0  0  0  0  0
  -22.5646  -27.9871   20.9680 N   0  0  0  0  0  0  0  0  0  0  0  0
  -29.4270  -11.1729   21.5783 N   0  0  0  0  0  0  0  0  0  0  0  0
  -26.0984   -8.9171   23.6346 N   0  0  0  0  0  0  0  0  0  0  0  0
  -23.2808  -31.2015   22.5336 N   0  0  0  0  0  0  0  0  0  0  0  0
  -20.4241  -25.5189   20.0824 N   0  0  0  0  0  0  0  0  0  0  0  0
  -21.0074  -24.0336   16.8387 N   0  3  0  0  0  0  0  0  0  0  0  0
  -28.3433   -9.3818   23.6889 O   0  0  0  0  0  0  0  0  0  0  0  0
  -30.5560  -25.1407   19.2704 O   0  0  0  0  0  0  0  0  0  0  0  0
  -30.4447  -15.7797   20.3008 O   0  0  0  0  0  0  0  0  0  0  0  0
  -23.1443  -28.9892   23.2474 O   0  0  0  0  0  0  0  0  0  0  0  0
  -20.2469  -28.2411   20.9582 O   0  0  0  0  0  0  0  0  0  0  0  0
  -22.2112  -24.2217   19.3749 O   0  0  0  0  0  0  0  0  0  0  0  0
  -20.7326   -8.8765   22.1373 O   0  0  0  0  0  0  0  0  0  0  0  0
  -28.5324  -26.5710   20.3105 O   0  0  0  0  0  0  0  0  0  1  0  0
  -20.0528   -3.5189   23.2496 F   0  0  0  0  0  0  0  0  0  0  0  0
  -19.1671   -7.2783   20.5132 F   0  0  0  0  0  0  0  0  0  0  0  0
  1  2  1  0  0  0  0
  1  7  2  0  0  0  0
  2  8  2  0  0  0  0
  3 10  2  0  0  0  0
  3 18  1  0  0  0  0
  4 11  1  0  0  0  0
  4 18  2  0  0  0  0
  5  6  2  0  0  0  0
  5 19  1  0  0  0  0
  6 20  1  0  0  0  0
  7 22  1  0  0  0  0
  8 24  1  0  0  0  0
  9 12  2  0  0  0  0
  9 23  1  0  0  0  0
 10 27  1  0  0  0  0
 11 27  2  0  0  0  0
 12 28  1  0  0  0  0
 13 14  2  0  0  0  0
 13 29  1  0  0  0  0
 14 30  1  0  0  0  0
 15 19  2  0  0  0  0
 15 26  1  0  0  0  0
 16 25  1  0  0  0  0
 16 28  2  0  0  0  0
 17 30  2  0  0  0  0
 17 31  1  0  0  0  0
 18 32  1  0  0  0  0
 19 34  1  0  0  0  0
 20 26  2  0  0  0  0
 20 36  1  0  0  0  0
 21 32  1  0  0  0  0
 21 33  2  0  0  0  0
 21 37  1  0  0  0  0
 22 24  2  0  0  0  0
 22 43  1  0  0  0  0
 23 25  2  0  0  0  0
 23 44  1  0  0  0  0
 24 52  1  0  0  0  0
 25 45  1  0  0  0  0
 26 61  1  0  0  0  0
 27 82  1  0  0  0  0
 28 83  1  0  0  0  0
 29 31  2  0  0  0  0
 29 82  1  0  0  0  0
 30 84  1  0  0  0  0
 31 85  1  0  0  0  0
 32 66  2  0  0  0  0
 33 68  1  0  0  0  0
 33 71  1  0  0  0  0
 34 35  2  0  0  0  0
 35 38  1  0  0  0  0
 36 39  1  0  0  0  0
 36 67  2  0  0  0  0
 37 72  1  0  0  0  0
 37 76  2  0  0  0  0
 38 62  1  0  0  0  0
 38 77  2  0  0  0  0
 39 69  1  0  0  0  0
 39 78  2  0  0  0  0
 40 53  1  0  0  0  0
 40 73  1  0  0  0  0
 40 79  2  0  0  0  0
 41 63  1  0  0  0  0
 41 70  1  0  0  0  0
 41 80  2  0  0  0  0
 42 64  1  0  0  0  0
 42 74  1  0  0  0  0
 42 81  2  0  0  0  0
 43 46  1  0  0  0  0
 44 53  1  0  0  0  0
 45 70  1  0  0  0  0
 46 48  1  0  0  0  0
 47 49  1  0  0  0  0
 47 50  1  0  0  0  0
 48 52  1  0  0  0  0
 49 54  1  0  0  0  0
 50 69  1  0  0  0  0
 51 54  1  0  0  0  0
 51 69  1  0  0  0  0
 52 73  1  0  0  0  0
 53 70  1  0  0  0  0
 54 68  1  0  0  0  0
 55 61  1  0  0  0  0
 56 64  1  0  0  0  0
 57 65  1  0  0  0  0
 58 65  1  0  0  0  0
 59 65  1  0  0  0  0
 60 75  1  0  0  0  0
 62 83  1  0  0  0  0
 63 65  1  0  0  0  0
 63 74  1  0  0  0  0
 64 75  1  0  0  0  0
 66 68  1  0  0  0  0
M  CHG  1  75   1
M  ISO  4  36 100  39 100  62 101  83 101
M  END
> <Batch ID>
0126

> <Smiles>
CCc1cc(C=CC(=O)[101CH2:1][101O:1]c2ccc3c(c2)CN(C(=O)C(NC(=O)C(C)NC)C(C)(C)C)C(C(=O)NC2CCCc4ccccc42)C3)ccc1[100C:0](=N)[100C:0](=O)N1CCCC(n2nc(-c3ccc(Oc4ccc(F)cc4F)cc3)c(C(N)=O)c2N)C1

> <Shape>
0.274

> <Color>
0.099

> <Negative vol penalty>
0.000

$$$$

  -OEChem-04052302113D

 85 93  0     1  0  0  0  0  0999 V2000
  -23.6696  -20.8043   21.8406 C   0  0  0  0  0  0  0  0  0  0  0  0
  -24.7058  -21.6543   21.4675 C   0  0  0  0  0  0  0  0  0  0  0  0
  -23.9787   -9.4698   22.2642 C   0  0  0  0  0  0  0  0  0  0  0  0
  -24.4523   -8.7497   20.0071 C   0  0  0  0  0  0  0  0  0  0  0  0
  -22.3460  -21.2250   21.7176 C   0  0  0  0  0  0  0  0  0  0  0  0
  -24.4190  -22.9250   20.9702 C   0  0  0  0  0  0  0  0  0  0  0  0
  -27.3709  -26.5120   22.9863 C   0  0  0  0  0  0  0  0  0  0  0  0
  -22.9622   -8.5189   22.3543 C   0  0  0  0  0  0  0  0  0  0  0  0
  -23.4358   -7.7988   20.0973 C   0  0  0  0  0  0  0  0  0  0  0  0
  -28.6701  -26.6197   22.4920 C   0  0  0  0  0  0  0  0  0  0  0  0
  -20.4819   -6.0377   23.3066 C   0  0  0  0  0  0  0  0  0  0  0  0
  -20.4102   -5.2735   24.4712 C   0  0  0  0  0  0  0  0  0  0  0  0
  -28.6999  -20.9579   19.5283 C   0  0  0  0  0  0  0  0  0  0  0  0
  -29.5287  -22.8726   21.3802 C   0  0  0  0  0  0  0  0  0  0  0  0
  -27.9854  -28.4777   21.1142 C   0  0  0  0  0  0  0  0  0  0  0  0
  -22.6329   -4.4247   24.0512 C   0  0  0  0  0  0  0  0  0  0  0  0
  -24.7237   -9.5853   21.0906 C   0  0  0  0  0  0  0  0  0  0  0  0
  -28.9468  -20.5883   20.8504 C   0  0  0  0  0  0  0  0  0  0  0  0
  -29.2818  -23.2421   20.0580 C   0  0  0  0  0  0  0  0  0  0  0  0
  -27.1294  -10.3980   21.3350 C   0  0  0  0  0  0  0  0  0  0  0  0
  -22.0431  -22.5051   21.2276 C   0  0  0  0  0  0  0  0  0  0  0  0
  -26.3651  -27.3809   22.5394 C   0  0  0  0  0  0  0  0  0  0  0  0
  -23.0901  -23.3627   20.8393 C   0  0  0  0  0  0  0  0  0  0  0  0
  -26.6749  -28.3806   21.6063 C   0  0  0  0  0  0  0  0  0  0  0  0
  -29.3612  -21.5456   21.7764 C   0  0  0  0  0  0  0  0  0  0  0  0
  -28.8675  -22.2847   19.1320 C   0  0  0  0  0  0  0  0  0  0  0  0
  -22.6908   -7.6834   21.2709 C   0  0  0  0  0  0  0  0  0  0  0  0
  -28.9769  -27.6007   21.5536 C   0  0  0  0  0  0  0  0  0  0  0  0
  -21.6291   -5.9953   22.5141 C   0  0  0  0  0  0  0  0  0  0  0  0
  -21.4856   -4.4670   24.8436 C   0  0  0  0  0  0  0  0  0  0  0  0
  -22.7046   -5.1889   22.8865 C   0  0  0  0  0  0  0  0  0  0  0  0
  -25.7735  -10.5678   20.9966 C   0  0  0  0  0  0  0  0  0  0  0  0
  -27.7053  -11.6157   21.0665 C   0  0  0  0  0  0  0  0  0  0  0  0
  -28.7631  -19.1946   21.2337 C   0  0  0  0  0  0  0  0  0  0  0  0
  -29.4664  -24.6512   19.6706 C   0  0  0  0  0  0  0  0  0  0  0  0
  -27.6124  -18.5000   21.1244 C   0  0  0  0  0  0  0  0  0  0  0  0
  -30.3325  -25.4973   20.2524 C   0  0  0  0  0  0  0  0  0  0  0  0
  -27.8077   -9.2430   21.8464 C   0  0  0  0  0  0  0  0  0  0  0  0
  -27.5882  -17.0856   21.5482 C   0  0  0  0  0  0  0  0  0  0  0  0
  -23.6088  -27.0176   20.9984 C   0  0  0  0  0  0  0  0  0  0  0  0
  -23.3066  -30.1924   21.5914 C   0  0  0  0  0  0  0  0  0  0  0  0
  -24.8290  -33.1725   22.2606 C   0  0  0  0  0  0  0  0  0  0  0  0
  -20.5957  -22.8977   21.0683 C   0  0  0  0  0  0  0  0  0  0  0  0
  -24.9748  -27.2689   23.1024 C   0  0  0  0  0  0  0  0  0  0  0  0
  -25.6358  -29.3511   21.1095 C   0  0  0  0  0  0  0  0  0  0  0  0
  -20.3884  -24.3989   20.8842 C   0  0  0  0  0  0  0  0  0  0  0  0
  -25.9227  -15.6474   18.6174 C   0  0  0  0  0  0  0  0  0  0  0  0
  -21.3709  -24.9513   19.8564 C   0  0  0  0  0  0  0  0  0  0  0  0
  -25.8073  -14.1836   19.0341 C   0  0  0  0  0  0  0  0  0  0  0  0
  -25.7854  -16.5937   19.8092 C   0  0  0  0  0  0  0  0  0  0  0  0
  -26.6187  -14.8298   21.3372 C   0  0  0  0  0  0  0  0  0  0  0  0
  -22.8201  -24.7578   20.3188 C   0  0  1  0  0  0  0  0  0  0  0  0
  -23.9112  -27.8769   22.1933 C   0  0  1  0  0  0  0  0  0  0  0  0
  -26.8009  -13.8583   20.1606 C   0  0  1  0  0  0  0  0  0  0  0  0
  -29.6346  -21.1857   23.2014 C   0  0  0  0  0  0  0  0  0  0  0  0
  -28.5936  -22.6453   17.7073 C   0  0  0  0  0  0  0  0  0  0  0  0
  -24.3225  -35.5983   22.6564 C   0  0  0  0  0  0  0  0  0  0  0  0
  -29.6953  -27.4948   18.7546 C   0  0  0  0  0  0  0  0  0  0  0  0
  -32.0412  -27.1707   19.5814 C   0  0  0  0  0  0  0  0  0  0  0  0
  -22.8285  -30.5778   18.6026 C   0  0  0  0  0  0  0  0  0  0  0  0
  -23.2768  -33.0209   18.9168 C   0  0  0  0  0  0  0  0  0  0  0  0
  -21.3488  -31.9486   20.0811 C   0  0  0  0  0  0  0  0  0  0  0  0
  -25.9918  -33.0910   24.9809 C   0  0  0  0  0  0  0  0  0  0  0  0
  -23.7007  -31.4574   20.8679 C   0  0  1  0  0  0  0  0  0  0  0  0
  -24.5418  -34.2389   23.3021 C   0  0  2  0  0  0  0  0  0  0  0  0
  -30.5579  -26.9523   19.8997 C   0  0  0  0  0  0  0  0  0  1  0  0
  -22.8080  -31.7318   19.6248 C   0  0  0  0  0  0  0  0  0  0  0  0
  -25.5040  -11.7965   20.5475 N   0  0  0  0  0  0  0  0  0  0  0  0
  -26.6985  -12.4099   20.6020 N   0  0  0  0  0  0  0  0  0  0  0  0
  -26.7050  -16.2267   20.8966 N   0  0  0  0  0  0  0  0  0  0  0  0
  -24.2896  -29.1970   21.6851 N   0  0  0  0  0  0  0  0  0  0  0  0
  -28.9696  -12.0738   21.1848 N   0  0  0  0  0  0  0  0  0  0  0  0
  -27.0654   -8.0743   22.0643 N   0  0  0  0  0  0  0  0  0  0  0  0
  -23.1688  -25.7468   21.3161 N   0  0  0  0  0  0  0  0  0  0  0  0
  -23.6794  -32.5217   21.8655 N   0  0  0  0  0  0  0  0  0  0  0  0
  -25.6805  -34.3504   24.2570 N   0  3  0  0  0  0  0  0  0  0  0  0
  -29.0323   -9.2521   22.1179 O   0  0  0  0  0  0  0  0  0  0  0  0
  -28.3493  -16.7516   22.4581 O   0  0  0  0  0  0  0  0  0  0  0  0
  -23.7619  -27.4742   19.8715 O   0  0  0  0  0  0  0  0  0  0  0  0
  -22.1708  -30.0940   22.0624 O   0  0  0  0  0  0  0  0  0  0  0  0
  -25.9596  -32.9426   21.8370 O   0  0  0  0  0  0  0  0  0  0  0  0
  -21.6991   -6.7552   21.3586 O   0  0  0  0  0  0  0  0  0  0  0  0
  -30.2440  -27.7075   21.0690 O   0  0  0  0  0  0  0  0  0  1  0  0
  -21.4172   -3.7344   25.9629 F   0  0  0  0  0  0  0  0  0  0  0  0
  -23.8098   -5.1450   22.1299 F   0  0  0  0  0  0  0  0  0  0  0  0
  1  2  1  0  0  0  0
  1  5  2  0  0  0  0
  2  6  2  0  0  0  0
  3  8  2  0  0  0  0
  3 17  1  0  0  0  0
  4  9  1  0  0  0  0
  4 17  2  0  0  0  0
  5 21  1  0  0  0  0
  6 23  1  0  0  0  0
  7 10  2  0  0  0  0
  7 22  1  0  0  0  0
  8 27  1  0  0  0  0
  9 27  2  0  0  0  0
 10 28  1  0  0  0  0
 11 12  2  0  0  0  0
 11 29  1  0  0  0  0
 12 30  1  0  0  0  0
 13 18  2  0  0  0  0
 13 26  1  0  0  0  0
 14 19  1  0  0  0  0
 14 25  2  0  0  0  0
 15 24  1  0  0  0  0
 15 28  2  0  0  0  0
 16 30  2  0  0  0  0
 16 31  1  0  0  0  0
 17 32  1  0  0  0  0
 18 25  1  0  0  0  0
 18 34  1  0  0  0  0
 19 26  2  0  0  0  0
 19 35  1  0  0  0  0
 20 32  1  0  0  0  0
 20 33  2  0  0  0  0
 20 38  1  0  0  0  0
 21 23  2  0  0  0  0
 21 43  1  0  0  0  0
 22 24  2  0  0  0  0
 22 44  1  0  0  0  0
 23 52  1  0  0  0  0
 24 45  1  0  0  0  0
 25 55  1  0  0  0  0
 26 56  1  0  0  0  0
 27 82  1  0  0  0  0
 28 83  1  0  0  0  0
 29 31  2  0  0  0  0
 29 82  1  0  0  0  0
 30 84  1  0  0  0  0
 31 85  1  0  0  0  0
 32 68  2  0  0  0  0
 33 69  1  0  0  0  0
 33 72  1  0  0  0  0
 34 36  2  0  0  0  0
 35 37  2  0  0  0  0
 36 39  1  0  0  0  0
 37 66  1  0  0  0  0
 38 73  1  0  0  0  0
 38 77  2  0  0  0  0
 39 70  1  0  0  0  0
 39 78  2  0  0  0  0
 40 53  1  0  0  0  0
 40 74  1  0  0  0  0
 40 79  2  0  0  0  0
 41 64  1  0  0  0  0
 41 71  1  0  0  0  0
 41 80  2  0  0  0  0
 42 65  1  0  0  0  0
 42 75  1  0  0  0  0
 42 81  2  0  0  0  0
 43 46  1  0  0  0  0
 44 53  1  0  0  0  0
 45 71  1  0  0  0  0
 46 48  1  0  0  0  0
 47 49  1  0  0  0  0
 47 50  1  0  0  0  0
 48 52  1  0  0  0  0
 49 54  1  0  0  0  0
 50 70  1  0  0  0  0
 51 54  1  0  0  0  0
 51 70  1  0  0  0  0
 52 74  1  0  0  0  0
 53 71  1  0  0  0  0
 54 69  1  0  0  0  0
 57 65  1  0  0  0  0
 58 66  1  0  0  0  0
 59 66  1  0  0  0  0
 60 67  1  0  0  0  0
 61 67  1  0  0  0  0
 62 67  1  0  0  0  0
 63 76  1  0  0  0  0
 64 67  1  0  0  0  0
 64 75  1  0  0  0  0
 65 76  1  0  0  0  0
 66 83  1  0  0  0  0
 68 69  1  0  0  0  0
M  CHG  1  76   1
M  ISO  4  36 100  39 100  66 101  83 101
M  END
> <Batch ID>
0126

> <Smiles>
CNC(C)C(=O)NC(C(=O)N1Cc2cc([101O:1][101C:1](C)(C)C=Cc3cc(C)c(C=[100CH:0][100C:0](=O)N4CCCC(n5nc(-c6ccc(Oc7ccc(F)cc7F)cc6)c(C(N)=O)c5N)C4)cc3C)ccc2CC1C(=O)NC1CCCc2ccccc21)C(C)(C)C

> <Shape>
0.276

> <Color>
0.084

> <Negative vol penalty>
0.000

$$$$

  -OEChem-04052302113D

 82 90  0     1  0  0  0  0  0999 V2000
  -18.0835  -25.2240   20.4537 C   0  0  0  0  0  0  0  0  0  0  0  0
  -19.3648  -25.4051   19.9429 C   0  0  0  0  0  0  0  0  0  0  0  0
  -25.1565  -13.6206   22.2068 C   0  0  0  0  0  0  0  0  0  0  0  0
  -25.8001  -14.1441   19.9377 C   0  0  0  0  0  0  0  0  0  0  0  0
  -17.6691  -25.9525   21.5679 C   0  0  0  0  0  0  0  0  0  0  0  0
  -20.2321  -26.3157   20.5455 C   0  0  0  0  0  0  0  0  0  0  0  0
  -24.9061  -24.4551   21.1256 C   0  0  0  0  0  0  0  0  0  0  0  0
  -24.2798  -12.6447   21.7330 C   0  0  0  0  0  0  0  0  0  0  0  0
  -24.9234  -13.1681   19.4639 C   0  0  0  0  0  0  0  0  0  0  0  0
  -25.7263  -24.4310   19.9984 C   0  0  0  0  0  0  0  0  0  0  0  0
  -24.4718   -9.4724   20.5786 C   0  0  0  0  0  0  0  0  0  0  0  0
  -24.4713   -8.2344   21.2211 C   0  0  0  0  0  0  0  0  0  0  0  0
  -26.8283  -26.4354   20.7646 C   0  0  0  0  0  0  0  0  0  0  0  0
  -30.9036  -23.4631   20.4405 C   0  0  0  0  0  0  0  0  0  0  0  0
  -33.1112  -23.4426   19.4590 C   0  0  0  0  0  0  0  0  0  0  0  0
  -32.2260  -21.4416   20.4835 C   0  0  0  0  0  0  0  0  0  0  0  0
  -22.1395   -8.5263   21.7820 C   0  0  0  0  0  0  0  0  0  0  0  0
  -25.9167  -14.3704   21.3091 C   0  0  0  0  0  0  0  0  0  0  0  0
  -28.1765  -15.2104   22.1429 C   0  0  0  0  0  0  0  0  0  0  0  0
  -18.5350  -26.8654   22.1903 C   0  0  0  0  0  0  0  0  0  0  0  0
  -25.0338  -25.4775   22.0769 C   0  0  0  0  0  0  0  0  0  0  0  0
  -19.8284  -27.0581   21.6683 C   0  0  0  0  0  0  0  0  0  0  0  0
  -26.0103  -26.4689   21.9043 C   0  0  0  0  0  0  0  0  0  0  0  0
  -31.9345  -24.1233   19.7719 C   0  0  0  0  0  0  0  0  0  0  0  0
  -31.0494  -22.1222   20.7963 C   0  0  0  0  0  0  0  0  0  0  0  0
  -24.1632  -12.4184   20.3615 C   0  0  0  0  0  0  0  0  0  0  0  0
  -26.6855  -25.4228   19.8163 C   0  0  0  0  0  0  0  0  0  0  0  0
  -23.3061  -10.2375   20.5378 C   0  0  0  0  0  0  0  0  0  0  0  0
  -23.3052   -7.7613   21.8228 C   0  0  0  0  0  0  0  0  0  0  0  0
  -22.1400   -9.7644   21.1395 C   0  0  0  0  0  0  0  0  0  0  0  0
  -33.2570  -22.1018   19.8148 C   0  0  0  0  0  0  0  0  0  0  0  0
  -26.8221  -15.3790   21.7979 C   0  0  0  0  0  0  0  0  0  0  0  0
  -28.5860  -16.4579   22.5460 C   0  0  0  0  0  0  0  0  0  0  0  0
  -28.9915  -14.0315   22.1026 C   0  0  0  0  0  0  0  0  0  0  0  0
  -23.1260  -27.7705   23.1752 C   0  0  0  0  0  0  0  0  0  0  0  0
  -25.5701  -28.2730   25.2479 C   0  0  0  0  0  0  0  0  0  0  0  0
  -28.8995  -27.9638   25.9311 C   0  0  0  0  0  0  0  0  0  0  0  0
  -28.7712  -21.9807   21.8623 C   0  0  0  0  0  0  0  0  0  0  0  0
  -18.0259  -27.6646   23.3636 C   0  0  0  0  0  0  0  0  0  0  0  0
  -24.1595  -25.4744   23.3008 C   0  0  0  0  0  0  0  0  0  0  0  0
  -26.2012  -27.5769   22.9064 C   0  0  0  0  0  0  0  0  0  0  0  0
  -19.1346  -28.3354   24.1706 C   0  0  0  0  0  0  0  0  0  0  0  0
  -25.9159  -20.6467   23.5188 C   0  0  0  0  0  0  0  0  0  0  0  0
  -20.1267  -29.0281   23.2418 C   0  0  0  0  0  0  0  0  0  0  0  0
  -26.0085  -19.1434   23.2472 C   0  0  0  0  0  0  0  0  0  0  0  0
  -26.3828  -21.4696   22.3195 C   0  0  0  0  0  0  0  0  0  0  0  0
  -27.8074  -19.6184   21.5368 C   0  0  0  0  0  0  0  0  0  0  0  0
  -20.8067  -28.0184   22.3092 C   0  0  1  0  0  0  0  0  0  0  0  0
  -24.0300  -26.8507   23.9461 C   0  0  1  0  0  0  0  0  0  0  0  0
  -27.4090  -18.7477   22.7397 C   0  0  2  0  0  0  0  0  0  0  0  0
  -30.6081  -28.5021   27.6885 C   0  0  0  0  0  0  0  0  0  0  0  0
  -25.5469  -31.1956   24.3718 C   0  0  0  0  0  0  0  0  0  0  0  0
  -27.8138  -31.4504   25.4035 C   0  0  0  0  0  0  0  0  0  0  0  0
  -25.8578  -30.8454   26.8285 C   0  0  0  0  0  0  0  0  0  0  0  0
  -29.5574  -25.1063   26.3319 C   0  0  0  0  0  0  0  0  0  0  0  0
  -31.7772  -25.5730   19.3879 C   0  0  0  0  0  0  0  0  0  0  0  0
  -31.1623  -25.7826   17.9997 C   0  0  0  0  0  0  0  0  0  0  0  0
  -29.7345  -25.2458   17.8900 C   0  0  0  0  0  0  0  0  0  0  0  0
  -28.7949  -25.9554   18.8555 C   0  0  0  0  0  0  0  0  0  1  0  0
  -26.8170  -29.1241   25.2445 C   0  0  1  0  0  0  0  0  0  0  0  0
  -29.6328  -27.4610   27.1615 C   0  0  2  0  0  0  0  0  0  0  0  0
  -26.5042  -30.6342   25.4420 C   0  0  0  0  0  0  0  0  0  0  0  0
  -26.3994  -16.6347   21.9671 N   0  0  0  0  0  0  0  0  0  0  0  0
  -27.4945  -17.2664   22.4230 N   0  0  0  0  0  0  0  0  0  0  0  0
  -25.3179  -27.5339   24.0835 N   0  0  0  0  0  0  0  0  0  0  0  0
  -27.7183  -21.0421   21.8969 N   0  0  0  0  0  0  0  0  0  0  0  0
  -29.7697  -16.9312   22.9902 N   0  0  0  0  0  0  0  0  0  0  0  0
  -28.4123  -12.8335   21.6628 N   0  0  0  0  0  0  0  0  0  0  0  0
  -30.0025  -21.4519   21.4763 N   0  0  0  0  0  0  0  0  0  0  0  0
  -21.8392  -27.2924   23.0171 N   0  0  0  0  0  0  0  0  0  0  0  0
  -27.6997  -28.5590   26.2593 N   0  0  0  0  0  0  0  0  0  0  0  0
  -30.3963  -26.2224   26.8394 N   0  3  0  0  0  0  0  0  0  0  0  0
  -30.1933  -14.0367   22.4621 O   0  0  0  0  0  0  0  0  0  0  0  0
  -23.5632  -28.8359   22.7561 O   0  0  0  0  0  0  0  0  0  0  0  0
  -24.8504  -28.2587   26.2497 O   0  0  0  0  0  0  0  0  0  0  0  0
  -29.3479  -27.8442   24.7931 O   0  0  0  0  0  0  0  0  0  0  0  0
  -28.5997  -23.1604   22.1798 O   0  0  0  0  0  0  0  0  0  0  0  0
  -23.3080  -11.4660   19.8989 O   0  0  0  0  0  0  0  0  0  0  0  0
  -27.4869  -25.4019   18.7166 O   0  0  0  0  0  0  0  0  0  1  0  0
  -23.3045   -6.5717   22.4384 F   0  0  0  0  0  0  0  0  0  0  0  0
  -21.0168  -10.4943   21.1025 F   0  0  0  0  0  0  0  0  0  0  0  0
  -34.7094  -21.2623   19.4307 Cl  0  0  0  0  0  0  0  0  0  0  0  0
  1  2  1  0  0  0  0
  1  5  2  0  0  0  0
  2  6  2  0  0  0  0
  3  8  2  0  0  0  0
  3 18  1  0  0  0  0
  4  9  1  0  0  0  0
  4 18  2  0  0  0  0
  5 20  1  0  0  0  0
  6 22  1  0  0  0  0
  7 10  2  0  0  0  0
  7 21  1  0  0  0  0
  8 26  1  0  0  0  0
  9 26  2  0  0  0  0
 10 27  1  0  0  0  0
 11 12  2  0  0  0  0
 11 28  1  0  0  0  0
 12 29  1  0  0  0  0
 13 23  1  0  0  0  0
 13 27  2  0  0  0  0
 14 24  2  0  0  0  0
 14 25  1  0  0  0  0
 15 24  1  0  0  0  0
 15 31  2  0  0  0  0
 16 25  2  0  0  0  0
 16 31  1  0  0  0  0
 17 29  2  0  0  0  0
 17 30  1  0  0  0  0
 18 32  1  0  0  0  0
 19 32  1  0  0  0  0
 19 33  2  0  0  0  0
 19 34  1  0  0  0  0
 20 22  2  0  0  0  0
 20 39  1  0  0  0  0
 21 23  2  0  0  0  0
 21 40  1  0  0  0  0
 22 48  1  0  0  0  0
 23 41  1  0  0  0  0
 24 56  1  0  0  0  0
 25 69  1  0  0  0  0
 26 78  1  0  0  0  0
 27 79  1  0  0  0  0
 28 30  2  0  0  0  0
 28 78  1  0  0  0  0
 29 80  1  0  0  0  0
 30 81  1  0  0  0  0
 31 82  1  0  0  0  0
 32 63  2  0  0  0  0
 33 64  1  0  0  0  0
 33 67  1  0  0  0  0
 34 68  1  0  0  0  0
 34 73  2  0  0  0  0
 35 49  1  0  0  0  0
 35 70  1  0  0  0  0
 35 74  2  0  0  0  0
 36 60  1  0  0  0  0
 36 65  1  0  0  0  0
 36 75  2  0  0  0  0
 37 61  1  0  0  0  0
 37 71  1  0  0  0  0
 37 76  2  0  0  0  0
 38 66  1  0  0  0  0
 38 69  1  0  0  0  0
 38 77  2  0  0  0  0
 39 42  1  0  0  0  0
 40 49  1  0  0  0  0
 41 65  1  0  0  0  0
 42 44  1  0  0  0  0
 43 45  1  0  0  0  0
 43 46  1  0  0  0  0
 44 48  1  0  0  0  0
 45 50  1  0  0  0  0
 46 66  1  0  0  0  0
 47 50  1  0  0  0  0
 47 66  1  0  0  0  0
 48 70  1  0  0  0  0
 49 65  1  0  0  0  0
 50 64  1  0  0  0  0
 51 61  1  0  0  0  0
 52 62  1  0  0  0  0
 53 62  1  0  0  0  0
 54 62  1  0  0  0  0
 55 72  1  0  0  0  0
 56 57  1  0  0  0  0
 57 58  1  0  0  0  0
 58 59  1  0  0  0  0
 59 79  1  0  0  0  0
 60 62  1  0  0  0  0
 60 71  1  0  0  0  0
 61 72  1  0  0  0  0
 63 64  1  0  0  0  0
M  CHG  1  72   1
M  ISO  4  38 100  59 101  69 100  79 101
M  END
> <Batch ID>
0126

> <Smiles>
CNC(C)C(=O)NC(C(=O)N1Cc2cc([101O:1][101CH2:1]CCCc3cc(Cl)cc([100NH:0][100C:0](=O)N4CCCC(n5nc(-c6ccc(Oc7ccc(F)cc7F)cc6)c(C(N)=O)c5N)C4)c3)ccc2CC1C(=O)NC1CCCc2ccccc21)C(C)(C)C

> <Shape>
0.235

> <Color>
0.079

> <Negative vol penalty>
0.000

$$$$

  -OEChem-04052302113D

 84 92  0     1  0  0  0  0  0999 V2000
  -25.0548  -24.2933   29.5703 C   0  0  0  0  0  0  0  0  0  0  0  0
  -30.1049  -19.2046   19.3487 C   0  0  0  0  0  0  0  0  0  0  0  0
  -29.9399  -19.9511   20.5110 C   0  0  0  0  0  0  0  0  0  0  0  0
  -23.7057  -14.1335   19.4950 C   0  0  0  0  0  0  0  0  0  0  0  0
  -25.0064  -14.3526   21.5192 C   0  0  0  0  0  0  0  0  0  0  0  0
  -22.8568  -21.9799   28.1900 C   0  0  0  0  0  0  0  0  0  0  0  0
  -30.0498  -19.8321   18.1048 C   0  0  0  0  0  0  0  0  0  0  0  0
  -29.7208  -21.3259   20.4301 C   0  0  0  0  0  0  0  0  0  0  0  0
  -26.0159  -22.8873   23.5091 C   0  0  0  0  0  0  0  0  0  0  0  0
  -22.9127  -21.3632   26.9401 C   0  0  0  0  0  0  0  0  0  0  0  0
  -24.6241  -13.2049   19.0053 C   0  0  0  0  0  0  0  0  0  0  0  0
  -25.9248  -13.4239   21.0295 C   0  0  0  0  0  0  0  0  0  0  0  0
  -26.3269  -23.0237   24.8613 C   0  0  0  0  0  0  0  0  0  0  0  0
  -28.8031  -11.3812   20.1622 C   0  0  0  0  0  0  0  0  0  0  0  0
  -30.1595  -11.6746   20.3029 C   0  0  0  0  0  0  0  0  0  0  0  0
  -26.5744  -25.4040   24.5580 C   0  0  0  0  0  0  0  0  0  0  0  0
  -22.6442  -23.5117   25.8682 C   0  0  0  0  0  0  0  0  0  0  0  0
  -29.8626  -13.6782   18.9858 C   0  0  0  0  0  0  0  0  0  0  0  0
  -23.8968  -14.7074   20.7520 C   0  0  0  0  0  0  0  0  0  0  0  0
  -22.6945  -23.3624   28.2790 C   0  0  0  0  0  0  0  0  0  0  0  0
  -21.7988  -15.4025   22.0259 C   0  0  0  0  0  0  0  0  0  0  0  0
  -29.8204  -21.2136   18.0083 C   0  0  0  0  0  0  0  0  0  0  0  0
  -25.9925  -24.0087   22.6675 C   0  0  0  0  0  0  0  0  0  0  0  0
  -29.6640  -21.9726   19.1838 C   0  0  0  0  0  0  0  0  0  0  0  0
  -26.2603  -25.2795   23.1961 C   0  0  0  0  0  0  0  0  0  0  0  0
  -22.8064  -22.1292   25.7792 C   0  0  0  0  0  0  0  0  0  0  0  0
  -25.7337  -12.8501   19.7726 C   0  0  0  0  0  0  0  0  0  0  0  0
  -26.6090  -24.2818   25.3854 C   0  0  0  0  0  0  0  0  0  0  0  0
  -27.9765  -12.2362   19.4333 C   0  0  0  0  0  0  0  0  0  0  0  0
  -30.6892  -12.8231   19.7147 C   0  0  0  0  0  0  0  0  0  0  0  0
  -22.5883  -24.1284   27.1181 C   0  0  0  0  0  0  0  0  0  0  0  0
  -28.5062  -13.3847   18.8451 C   0  0  0  0  0  0  0  0  0  0  0  0
  -22.9487  -15.6671   21.2581 C   0  0  0  0  0  0  0  0  0  0  0  0
  -21.2436  -16.6386   22.2499 C   0  0  0  0  0  0  0  0  0  0  0  0
  -23.9287  -24.4641   30.1972 C   0  0  0  0  0  0  0  0  0  0  0  0
  -26.1840  -24.1238   28.9451 C   0  0  0  0  0  0  0  0  0  0  0  0
  -22.6327  -24.0151   29.6138 C   0  0  0  0  0  0  0  0  0  0  0  0
  -21.2791  -14.1512   22.4947 C   0  0  0  0  0  0  0  0  0  0  0  0
  -27.6170  -24.9125   20.0891 C   0  0  0  0  0  0  0  0  0  0  0  0
  -25.4824  -27.3550   20.0791 C   0  0  0  0  0  0  0  0  0  0  0  0
  -23.3045  -29.3066   21.8384 C   0  0  0  0  0  0  0  0  0  0  0  0
  -22.7738  -22.1156   23.2602 C   0  0  0  0  0  0  0  0  0  0  0  0
  -29.8163  -21.8552   16.6433 C   0  0  0  0  0  0  0  0  0  0  0  0
  -25.6291  -23.8482   21.2168 C   0  0  0  0  0  0  0  0  0  0  0  0
  -26.2286  -26.5176   22.3391 C   0  0  0  0  0  0  0  0  0  0  0  0
  -29.2069  -23.2547   16.6300 C   0  0  0  0  0  0  0  0  0  0  0  0
  -21.5981  -21.0654   20.0678 C   0  0  0  0  0  0  0  0  0  0  0  0
  -29.7578  -24.0879   17.7829 C   0  0  0  0  0  0  0  0  0  0  0  0
  -21.7134  -19.5403   20.1227 C   0  0  0  0  0  0  0  0  0  0  0  0
  -22.7502  -21.7481   20.8027 C   0  0  0  0  0  0  0  0  0  0  0  0
  -23.0732  -19.7736   22.2401 C   0  0  0  0  0  0  0  0  0  0  0  0
  -29.3999  -23.4620   19.1362 C   0  0  1  0  0  0  0  0  0  0  0  0
  -26.1381  -24.9908   20.3434 C   0  0  1  0  0  0  0  0  0  0  0  0
  -21.9000  -19.0410   21.5689 C   0  0  2  0  0  0  0  0  0  0  0  0
  -21.7344  -31.2451   21.5656 C   0  0  0  0  0  0  0  0  0  0  0  0
  -27.8595  -29.2665   20.0036 C   0  0  0  0  0  0  0  0  0  0  0  0
  -26.3090  -31.1107   20.6845 C   0  0  0  0  0  0  0  0  0  0  0  0
  -25.9509  -29.9163   18.5239 C   0  0  0  0  0  0  0  0  0  0  0  0
  -20.9704  -27.6807   22.6553 C   0  0  0  0  0  0  0  0  0  0  0  0
  -26.3278  -23.4794   27.6064 C   0  0  0  0  0  0  0  0  0  1  0  0
  -25.4303  -28.7319   20.6961 C   0  0  1  0  0  0  0  0  0  0  0  0
  -21.8753  -29.7309   21.5524 C   0  0  2  0  0  0  0  0  0  0  0  0
  -26.3900  -29.7330   19.9930 C   0  0  0  0  0  0  0  0  0  0  0  0
  -23.1153  -16.9691   21.0108 N   0  0  0  0  0  0  0  0  0  0  0  0
  -21.4792  -24.1775   30.1792 N   0  0  0  0  0  0  0  0  0  0  0  0
  -22.0626  -17.5336   21.6266 N   0  0  0  0  0  0  0  0  0  0  0  0
  -25.8741  -26.3082   20.9256 N   0  0  0  0  0  0  0  0  0  0  0  0
  -22.8639  -21.2281   22.1671 N   0  0  0  0  0  0  0  0  0  0  0  0
  -20.1395  -17.0364   22.9171 N   0  0  0  0  0  0  0  0  0  0  0  0
  -21.9740  -12.9769   22.1744 N   0  0  0  0  0  0  0  0  0  0  0  0
  -22.8632  -21.5026   24.5095 N   0  0  0  0  0  0  0  0  0  0  0  0
  -28.0210  -23.7429   19.4741 N   0  0  0  0  0  0  0  0  0  0  0  0
  -24.0283  -29.1348   20.6774 N   0  0  0  0  0  0  0  0  0  0  0  0
  -20.9520  -29.1640   22.5756 N   0  3  0  0  0  0  0  0  0  0  0  0
  -20.2206  -14.0751   23.1636 O   0  0  0  0  0  0  0  0  0  0  0  0
  -28.3379  -25.8449   20.4247 O   0  0  0  0  0  0  0  0  0  0  0  0
  -25.1796  -27.2125   18.8919 O   0  0  0  0  0  0  0  0  0  0  0  0
  -23.7367  -29.1473   22.9778 O   0  0  0  0  0  0  0  0  0  0  0  0
  -22.6008  -23.3266   23.1003 O   0  0  0  0  0  0  0  0  0  0  0  0
  -26.6299  -11.9438   19.2952 O   0  0  0  0  0  0  0  0  0  0  0  0
  -26.9135  -24.4177   26.7047 O   0  0  0  0  0  0  0  0  0  1  0  0
  -31.9914  -13.1056   19.8512 F   0  0  0  0  0  0  0  0  0  0  0  0
  -22.4316  -25.4579   27.1916 F   0  0  0  0  0  0  0  0  0  0  0  0
  -27.7168  -14.2105   18.1446 F   0  0  0  0  0  0  0  0  0  0  0  0
  1 35  2  0  0  0  0
  1 36  2  0  0  0  0
  2  3  1  0  0  0  0
  2  7  2  0  0  0  0
  3  8  2  0  0  0  0
  4 11  2  0  0  0  0
  4 19  1  0  0  0  0
  5 12  1  0  0  0  0
  5 19  2  0  0  0  0
  6 10  2  0  0  0  0
  6 20  1  0  0  0  0
  7 22  1  0  0  0  0
  8 24  1  0  0  0  0
  9 13  2  0  0  0  0
  9 23  1  0  0  0  0
 10 26  1  0  0  0  0
 11 27  1  0  0  0  0
 12 27  2  0  0  0  0
 13 28  1  0  0  0  0
 14 15  2  0  0  0  0
 14 29  1  0  0  0  0
 15 30  1  0  0  0  0
 16 25  1  0  0  0  0
 16 28  2  0  0  0  0
 17 26  2  0  0  0  0
 17 31  1  0  0  0  0
 18 30  2  0  0  0  0
 18 32  1  0  0  0  0
 19 33  1  0  0  0  0
 20 31  2  0  0  0  0
 20 37  1  0  0  0  0
 21 33  1  0  0  0  0
 21 34  2  0  0  0  0
 21 38  1  0  0  0  0
 22 24  2  0  0  0  0
 22 43  1  0  0  0  0
 23 25  2  0  0  0  0
 23 44  1  0  0  0  0
 24 52  1  0  0  0  0
 25 45  1  0  0  0  0
 26 71  1  0  0  0  0
 27 80  1  0  0  0  0
 28 81  1  0  0  0  0
 29 32  2  0  0  0  0
 29 80  1  0  0  0  0
 30 82  1  0  0  0  0
 31 83  1  0  0  0  0
 32 84  1  0  0  0  0
 33 64  2  0  0  0  0
 34 66  1  0  0  0  0
 34 69  1  0  0  0  0
 35 37  1  0  0  0  0
 36 60  1  0  0  0  0
 37 65  2  0  0  0  0
 38 70  1  0  0  0  0
 38 75  2  0  0  0  0
 39 53  1  0  0  0  0
 39 72  1  0  0  0  0
 39 76  2  0  0  0  0
 40 61  1  0  0  0  0
 40 67  1  0  0  0  0
 40 77  2  0  0  0  0
 41 62  1  0  0  0  0
 41 73  1  0  0  0  0
 41 78  2  0  0  0  0
 42 68  1  0  0  0  0
 42 71  1  0  0  0  0
 42 79  2  0  0  0  0
 43 46  1  0  0  0  0
 44 53  1  0  0  0  0
 45 67  1  0  0  0  0
 46 48  1  0  0  0  0
 47 49  1  0  0  0  0
 47 50  1  0  0  0  0
 48 52  1  0  0  0  0
 49 54  1  0  0  0  0
 50 68  1  0  0  0  0
 51 54  1  0  0  0  0
 51 68  1  0  0  0  0
 52 72  1  0  0  0  0
 53 67  1  0  0  0  0
 54 66  1  0  0  0  0
 55 62  1  0  0  0  0
 56 63  1  0  0  0  0
 57 63  1  0  0  0  0
 58 63  1  0  0  0  0
 59 74  1  0  0  0  0
 60 81  1  0  0  0  0
 61 63  1  0  0  0  0
 61 73  1  0  0  0  0
 62 74  1  0  0  0  0
 64 66  1  0  0  0  0
M  CHG  1  74   1
M  ISO  4  42 100  60 101  71 100  81 101
M  END
> <Batch ID>
0126

> <Smiles>
CNC(C)C(=O)NC(C(=O)N1Cc2cc([101O:1][101CH2:1]C=C=CC(=N)c3ccc([100NH:0][100C:0](=O)N4CCCC(n5nc(-c6ccc(Oc7ccc(F)cc7F)cc6)c(C(N)=O)c5N)C4)cc3F)ccc2CC1C(=O)NC1CCCc2ccccc21)C(C)(C)C

> <Shape>
0.195

> <Color>
0.076

> <Negative vol penalty>
0.000

$$$$

  -OEChem-04052302113D

 83 91  0     1  0  0  0  0  0999 V2000
  -19.2810  -23.6300   23.6399 C   0  0  0  0  0  0  0  0  0  0  0  0
  -20.4844  -23.7420   22.9509 C   0  0  0  0  0  0  0  0  0  0  0  0
  -24.6950   -8.9195   21.3284 C   0  0  0  0  0  0  0  0  0  0  0  0
  -23.2676  -10.3472   20.0014 C   0  0  0  0  0  0  0  0  0  0  0  0
  -29.0631  -19.8670   15.9738 C   0  0  0  0  0  0  0  0  0  0  0  0
  -18.4779  -24.7545   23.8251 C   0  0  0  0  0  0  0  0  0  0  0  0
  -20.8849  -24.9785   22.4458 C   0  0  0  0  0  0  0  0  0  0  0  0
  -25.7676  -25.9617   23.3609 C   0  0  0  0  0  0  0  0  0  0  0  0
  -29.0329  -18.5225   15.6037 C   0  0  0  0  0  0  0  0  0  0  0  0
  -23.5996   -8.1143   21.6405 C   0  0  0  0  0  0  0  0  0  0  0  0
  -22.1722   -9.5421   20.3134 C   0  0  0  0  0  0  0  0  0  0  0  0
  -26.7074  -25.3325   22.5457 C   0  0  0  0  0  0  0  0  0  0  0  0
  -20.9657   -8.2038   23.7569 C   0  0  0  0  0  0  0  0  0  0  0  0
  -20.8115   -7.8071   25.0851 C   0  0  0  0  0  0  0  0  0  0  0  0
  -28.8439  -19.2332   18.2948 C   0  0  0  0  0  0  0  0  0  0  0  0
  -26.9258  -27.3538   21.2474 C   0  0  0  0  0  0  0  0  0  0  0  0
  -20.9565   -5.4917   24.4104 C   0  0  0  0  0  0  0  0  0  0  0  0
  -24.5290  -10.0360   20.5089 C   0  0  0  0  0  0  0  0  0  0  0  0
  -28.9686  -20.2224   17.3193 C   0  0  0  0  0  0  0  0  0  0  0  0
  -26.5353  -10.7272   19.0931 C   0  0  0  0  0  0  0  0  0  0  0  0
  -18.8733  -26.0073   23.3305 C   0  0  0  0  0  0  0  0  0  0  0  0
  -25.3911  -27.2906   23.1183 C   0  0  0  0  0  0  0  0  0  0  0  0
  -20.0856  -26.1206   22.6235 C   0  0  0  0  0  0  0  0  0  0  0  0
  -25.9829  -27.9985   22.0625 C   0  0  0  0  0  0  0  0  0  0  0  0
  -28.9082  -17.5333   16.5792 C   0  0  0  0  0  0  0  0  0  0  0  0
  -28.8137  -17.8886   17.9248 C   0  0  0  0  0  0  0  0  0  0  0  0
  -22.3382   -8.4256   21.1330 C   0  0  0  0  0  0  0  0  0  0  0  0
  -27.2846  -26.0276   21.4870 C   0  0  0  0  0  0  0  0  0  0  0  0
  -21.1153   -7.2445   22.7553 C   0  0  0  0  0  0  0  0  0  0  0  0
  -20.8069   -6.4511   25.4120 C   0  0  0  0  0  0  0  0  0  0  0  0
  -21.1107   -5.8885   23.0821 C   0  0  0  0  0  0  0  0  0  0  0  0
  -25.6601  -10.8684   20.1866 C   0  0  0  0  0  0  0  0  0  0  0  0
  -27.4320  -11.7578   19.2357 C   0  0  0  0  0  0  0  0  0  0  0  0
  -29.0012  -21.6432   17.7086 C   0  0  0  0  0  0  0  0  0  0  0  0
  -28.5481  -22.1234   18.8751 C   0  0  0  0  0  0  0  0  0  0  0  0
  -26.5375   -9.7519   18.0422 C   0  0  0  0  0  0  0  0  0  0  0  0
  -28.6181  -23.5843   19.1692 C   0  0  0  0  0  0  0  0  0  0  0  0
  -22.6698  -28.7485   22.3615 C   0  0  0  0  0  0  0  0  0  0  0  0
  -24.4487  -31.4311   22.7638 C   0  0  0  0  0  0  0  0  0  0  0  0
  -27.5374  -32.8822   22.7908 C   0  0  0  0  0  0  0  0  0  0  0  0
  -28.5838  -17.0992   20.3061 C   0  0  0  0  0  0  0  0  0  0  0  0
  -17.9492  -27.1850   23.5143 C   0  0  0  0  0  0  0  0  0  0  0  0
  -24.3956  -27.9635   24.0232 C   0  0  0  0  0  0  0  0  0  0  0  0
  -25.6280  -29.4332   21.7723 C   0  0  0  0  0  0  0  0  0  0  0  0
  -18.6246  -28.5326   23.2732 C   0  0  0  0  0  0  0  0  0  0  0  0
  -28.2202  -14.9267   23.1034 C   0  0  0  0  0  0  0  0  0  0  0  0
  -19.4481  -28.4949   21.9897 C   0  0  0  0  0  0  0  0  0  0  0  0
  -27.5937  -13.6656   22.5040 C   0  0  0  0  0  0  0  0  0  0  0  0
  -27.6869  -16.1952   22.4399 C   0  0  0  0  0  0  0  0  0  0  0  0
  -27.1608  -14.9578   20.3756 C   0  0  0  0  0  0  0  0  0  0  0  0
  -20.5662  -27.4495   22.0821 C   0  0  1  0  0  0  0  0  0  0  0  0
  -23.7060  -29.1572   23.3699 C   0  0  1  0  0  0  0  0  0  0  0  0
  -27.7152  -13.6516   20.9675 C   0  0  2  0  0  0  0  0  0  0  0  0
  -28.8773  -16.1010   16.1538 C   0  0  0  0  0  0  0  0  0  0  0  0
  -28.6700  -35.0982   23.1130 C   0  0  0  0  0  0  0  0  0  0  0  0
  -23.5587  -32.2889   19.9741 C   0  0  0  0  0  0  0  0  0  0  0  0
  -25.4163  -33.9674   19.9735 C   0  0  0  0  0  0  0  0  0  0  0  0
  -23.5937  -34.1273   21.6692 C   0  0  0  0  0  0  0  0  0  0  0  0
  -29.0657  -31.8927   25.1240 C   0  0  0  0  0  0  0  0  0  0  0  0
  -28.0753  -24.0045   20.5188 C   0  0  0  0  0  0  0  0  0  1  0  0
  -25.3135  -32.2847   21.8680 C   0  0  1  0  0  0  0  0  0  0  0  0
  -28.2027  -33.8166   23.7851 C   0  0  2  0  0  0  0  0  0  0  0  0
  -24.4760  -33.1394   20.8752 C   0  0  0  0  0  0  0  0  0  0  0  0
  -25.9727  -11.9066   20.9666 N   0  0  0  0  0  0  0  0  0  0  0  0
  -27.0544  -12.4272   20.3624 N   0  0  0  0  0  0  0  0  0  0  0  0
  -24.6449  -30.0453   22.6815 N   0  0  0  0  0  0  0  0  0  0  0  0
  -27.8389  -16.1123   20.9856 N   0  0  0  0  0  0  0  0  0  0  0  0
  -28.4989  -12.1475   18.5061 N   0  0  0  0  0  0  0  0  0  0  0  0
  -25.5448   -8.7625   18.0469 N   0  0  0  0  0  0  0  0  0  0  0  0
  -28.6871  -16.8980   18.9300 N   0  0  0  0  0  0  0  0  0  0  0  0
  -21.6647  -27.9534   22.8782 N   0  0  0  0  0  0  0  0  0  0  0  0
  -26.1714  -33.0657   22.7525 N   0  0  0  0  0  0  0  0  0  0  0  0
  -29.3839  -33.1547   24.4076 N   0  3  0  0  0  0  0  0  0  0  0  0
  -27.4041   -9.7477   17.1353 O   0  0  0  0  0  0  0  0  0  0  0  0
  -29.0856  -24.3893   18.3682 O   0  0  0  0  0  0  0  0  0  0  0  0
  -22.7737  -29.1277   21.2008 O   0  0  0  0  0  0  0  0  0  0  0  0
  -23.6342  -31.9743   23.5142 O   0  0  0  0  0  0  0  0  0  0  0  0
  -28.1670  -32.0732   22.1128 O   0  0  0  0  0  0  0  0  0  0  0  0
  -29.1156  -18.0378   20.9046 O   0  0  0  0  0  0  0  0  0  0  0  0
  -21.2691   -7.6400   21.4371 O   0  0  0  0  0  0  0  0  0  0  0  0
  -28.2017  -25.4156   20.6894 O   0  0  0  0  0  0  0  0  0  1  0  0
  -20.6603   -6.0703   26.6878 F   0  0  0  0  0  0  0  0  0  0  0  0
  -21.2552   -4.9623   22.1244 F   0  0  0  0  0  0  0  0  0  0  0  0
  1  2  1  0  0  0  0
  1  6  2  0  0  0  0
  2  7  2  0  0  0  0
  3 10  2  0  0  0  0
  3 18  1  0  0  0  0
  4 11  1  0  0  0  0
  4 18  2  0  0  0  0
  5  9  2  0  0  0  0
  5 19  1  0  0  0  0
  6 21  1  0  0  0  0
  7 23  1  0  0  0  0
  8 12  2  0  0  0  0
  8 22  1  0  0  0  0
  9 25  1  0  0  0  0
 10 27  1  0  0  0  0
 11 27  2  0  0  0  0
 12 28  1  0  0  0  0
 13 14  2  0  0  0  0
 13 29  1  0  0  0  0
 14 30  1  0  0  0  0
 15 19  2  0  0  0  0
 15 26  1  0  0  0  0
 16 24  1  0  0  0  0
 16 28  2  0  0  0  0
 17 30  2  0  0  0  0
 17 31  1  0  0  0  0
 18 32  1  0  0  0  0
 19 34  1  0  0  0  0
 20 32  1  0  0  0  0
 20 33  2  0  0  0  0
 20 36  1  0  0  0  0
 21 23  2  0  0  0  0
 21 42  1  0  0  0  0
 22 24  2  0  0  0  0
 22 43  1  0  0  0  0
 23 51  1  0  0  0  0
 24 44  1  0  0  0  0
 25 26  2  0  0  0  0
 25 54  1  0  0  0  0
 26 70  1  0  0  0  0
 27 80  1  0  0  0  0
 28 81  1  0  0  0  0
 29 31  2  0  0  0  0
 29 80  1  0  0  0  0
 30 82  1  0  0  0  0
 31 83  1  0  0  0  0
 32 64  2  0  0  0  0
 33 65  1  0  0  0  0
 33 68  1  0  0  0  0
 34 35  2  0  0  0  0
 35 37  1  0  0  0  0
 36 69  1  0  0  0  0
 36 74  2  0  0  0  0
 37 60  1  0  0  0  0
 37 75  2  0  0  0  0
 38 52  1  0  0  0  0
 38 71  1  0  0  0  0
 38 76  2  0  0  0  0
 39 61  1  0  0  0  0
 39 66  1  0  0  0  0
 39 77  2  0  0  0  0
 40 62  1  0  0  0  0
 40 72  1  0  0  0  0
 40 78  2  0  0  0  0
 41 67  1  0  0  0  0
 41 70  1  0  0  0  0
 41 79  2  0  0  0  0
 42 45  1  0  0  0  0
 43 52  1  0  0  0  0
 44 66  1  0  0  0  0
 45 47  1  0  0  0  0
 46 48  1  0  0  0  0
 46 49  1  0  0  0  0
 47 51  1  0  0  0  0
 48 53  1  0  0  0  0
 49 67  1  0  0  0  0
 50 53  1  0  0  0  0
 50 67  1  0  0  0  0
 51 71  1  0  0  0  0
 52 66  1  0  0  0  0
 53 65  1  0  0  0  0
 55 62  1  0  0  0  0
 56 63  1  0  0  0  0
 57 63  1  0  0  0  0
 58 63  1  0  0  0  0
 59 73  1  0  0  0  0
 60 81  1  0  0  0  0
 61 63  1  0  0  0  0
 61 72  1  0  0  0  0
 62 73  1  0  0  0  0
 64 65  1  0  0  0  0
M  CHG  1  73   1
M  ISO  4  41 100  60 101  70 100  81 101
M  END
> <Batch ID>
0126

> <Smiles>
CNC(C)C(=O)NC(C(=O)N1Cc2cc([101O:1][101CH2:1]C(=O)C=Cc3ccc(C)c([100NH:0][100C:0](=O)N4CCCC(n5nc(-c6ccc(Oc7ccc(F)cc7F)cc6)c(C(N)=O)c5N)C4)c3)ccc2CC1C(=O)NC1CCCc2ccccc21)C(C)(C)C

> <Shape>
0.273

> <Color>
0.087

> <Negative vol penalty>
0.000

$$$$

  -OEChem-04052302113D

 84 92  0     1  0  0  0  0  0999 V2000
  -28.3377  -32.8496   26.1744 C   0  0  0  0  0  0  0  0  0  0  0  0
  -28.4172  -31.7086   25.3824 C   0  0  0  0  0  0  0  0  0  0  0  0
  -24.9951   -8.5413   21.3625 C   0  0  0  0  0  0  0  0  0  0  0  0
  -23.5444  -10.4515   21.0738 C   0  0  0  0  0  0  0  0  0  0  0  0
  -27.1080  -33.2519   26.6939 C   0  0  0  0  0  0  0  0  0  0  0  0
  -27.2670  -30.9686   25.1104 C   0  0  0  0  0  0  0  0  0  0  0  0
  -26.9235  -29.6330   20.2377 C   0  0  0  0  0  0  0  0  0  0  0  0
  -23.8802   -7.7080   21.4524 C   0  0  0  0  0  0  0  0  0  0  0  0
  -22.4294   -9.6183   21.1636 C   0  0  0  0  0  0  0  0  0  0  0  0
  -27.7057  -28.5590   19.8152 C   0  0  0  0  0  0  0  0  0  0  0  0
  -21.5754   -6.8743   23.7799 C   0  0  0  0  0  0  0  0  0  0  0  0
  -21.5643   -5.9147   24.7922 C   0  0  0  0  0  0  0  0  0  0  0  0
  -25.7842  -27.1082   19.9654 C   0  0  0  0  0  0  0  0  0  0  0  0
  -29.3274  -18.2559   20.3836 C   0  0  0  0  0  0  0  0  0  0  0  0
  -29.6580  -19.0107   22.6547 C   0  0  0  0  0  0  0  0  0  0  0  0
  -21.3965   -4.1664   23.1332 C   0  0  0  0  0  0  0  0  0  0  0  0
  -24.8273   -9.9130   21.1732 C   0  0  0  0  0  0  0  0  0  0  0  0
  -26.6814  -11.1320   19.9147 C   0  0  0  0  0  0  0  0  0  0  0  0
  -25.9406  -32.5219   26.4201 C   0  0  0  0  0  0  0  0  0  0  0  0
  -25.5660  -29.4501   20.5382 C   0  0  0  0  0  0  0  0  0  0  0  0
  -26.0208  -31.3608   25.6279 C   0  0  0  0  0  0  0  0  0  0  0  0
  -24.9863  -28.1820   20.3891 C   0  0  0  0  0  0  0  0  0  0  0  0
  -29.4086  -19.5737   19.9337 C   0  0  0  0  0  0  0  0  0  0  0  0
  -29.7393  -20.3286   22.2048 C   0  0  0  0  0  0  0  0  0  0  0  0
  -29.4521  -17.9744   21.7441 C   0  0  0  0  0  0  0  0  0  0  0  0
  -22.5973   -8.2465   21.3529 C   0  0  0  0  0  0  0  0  0  0  0  0
  -27.1368  -27.2958   19.6818 C   0  0  0  0  0  0  0  0  0  0  0  0
  -21.4971   -6.4799   22.4442 C   0  0  0  0  0  0  0  0  0  0  0  0
  -29.6146  -20.6100   20.8443 C   0  0  0  0  0  0  0  0  0  0  0  0
  -21.4748   -4.5608   24.4688 C   0  0  0  0  0  0  0  0  0  0  0  0
  -21.4077   -5.1260   22.1208 C   0  0  0  0  0  0  0  0  0  0  0  0
  -25.9787  -10.7744   21.0809 C   0  0  0  0  0  0  0  0  0  0  0  0
  -27.6830  -11.9608   20.3579 C   0  0  0  0  0  0  0  0  0  0  0  0
  -26.4495  -10.7494   18.5525 C   0  0  0  0  0  0  0  0  0  0  0  0
  -23.7812  -29.7850   23.1471 C   0  0  0  0  0  0  0  0  0  0  0  0
  -28.7500  -24.0555   19.8521 C   0  0  0  0  0  0  0  0  0  0  0  0
  -21.3524  -29.1438   21.0947 C   0  0  0  0  0  0  0  0  0  0  0  0
  -20.3355  -27.7244   18.1625 C   0  0  0  0  0  0  0  0  0  0  0  0
  -29.4707  -16.1838   23.5160 C   0  0  0  0  0  0  0  0  0  0  0  0
  -24.6419  -32.9693   27.0429 C   0  0  0  0  0  0  0  0  0  0  0  0
  -24.7296  -30.6243   20.9671 C   0  0  0  0  0  0  0  0  0  0  0  0
  -23.5289  -27.9372   20.6796 C   0  0  0  0  0  0  0  0  0  0  0  0
  -23.4091  -32.3402   26.3989 C   0  0  0  0  0  0  0  0  0  0  0  0
  -29.2819  -12.9771   25.0518 C   0  0  0  0  0  0  0  0  0  0  0  0
  -23.6078  -30.8385   26.2199 C   0  0  0  0  0  0  0  0  0  0  0  0
  -28.4635  -12.1476   24.0597 C   0  0  0  0  0  0  0  0  0  0  0  0
  -28.7872  -14.4204   25.1280 C   0  0  0  0  0  0  0  0  0  0  0  0
  -27.8729  -14.2833   22.8444 C   0  0  0  0  0  0  0  0  0  0  0  0
  -24.7914  -30.5455   25.2900 C   0  0  1  0  0  0  0  0  0  0  0  0
  -23.4790  -30.2166   21.7399 C   0  0  1  0  0  0  0  0  0  0  0  0
  -28.3752  -12.8390   22.6850 C   0  0  2  0  0  0  0  0  0  0  0  0
  -29.2720  -19.8557   18.4738 C   0  0  0  0  0  0  0  0  0  0  0  0
  -29.9621  -21.4244   23.1943 C   0  0  0  0  0  0  0  0  0  0  0  0
  -18.2836  -27.3284   16.7731 C   0  0  0  0  0  0  0  0  0  0  0  0
  -20.4892  -26.9273   23.0057 C   0  0  0  0  0  0  0  0  0  0  0  0
  -19.0805  -25.9834   21.1638 C   0  0  0  0  0  0  0  0  0  0  0  0
  -18.6090  -28.2685   22.0463 C   0  0  0  0  0  0  0  0  0  0  0  0
  -21.4335  -29.2716   15.8910 C   0  0  0  0  0  0  0  0  0  0  0  0
  -27.5330  -24.9518   19.7486 C   0  0  0  0  0  0  0  0  0  1  0  0
  -28.4908  -22.6427   20.3333 C   0  0  0  0  0  0  0  0  0  0  0  0
  -20.6595  -27.8908   20.6164 C   0  0  1  0  0  0  0  0  0  0  0  0
  -19.4629  -28.2514   17.0376 C   0  0  2  0  0  0  0  0  0  0  0  0
  -19.7375  -27.2714   21.7044 C   0  0  0  0  0  0  0  0  0  0  0  0
  -26.4906  -11.3302   22.1823 N   0  0  0  0  0  0  0  0  0  0  0  0
  -27.5257  -12.0455   21.7101 N   0  0  0  0  0  0  0  0  0  0  0  0
  -22.7542  -29.1157   21.1020 N   0  0  0  0  0  0  0  0  0  0  0  0
  -28.7336  -15.0121   23.7894 N   0  0  0  0  0  0  0  0  0  0  0  0
  -28.6742  -12.6179   19.7191 N   0  0  0  0  0  0  0  0  0  0  0  0
  -25.3769   -9.8917   18.2728 N   0  0  0  0  0  0  0  0  0  0  0  0
  -29.3683  -16.6356   22.2007 N   0  0  0  0  0  0  0  0  0  0  0  0
  -24.4116  -30.7505   23.9086 N   0  0  0  0  0  0  0  0  0  0  0  0
  -19.9692  -28.2516   19.3828 N   0  0  0  0  0  0  0  0  0  0  0  0
  -20.2551  -28.3736   15.7813 N   0  3  0  0  0  0  0  0  0  0  0  0
  -27.1818  -11.1431   17.6133 O   0  0  0  0  0  0  0  0  0  0  0  0
  -23.4645  -28.6599   23.5152 O   0  0  0  0  0  0  0  0  0  0  0  0
  -29.8786  -24.4508   19.5637 O   0  0  0  0  0  0  0  0  0  0  0  0
  -20.6750  -30.1144   21.4421 O   0  0  0  0  0  0  0  0  0  0  0  0
  -21.2481  -26.9223   17.9776 O   0  0  0  0  0  0  0  0  0  0  0  0
  -30.1649  -16.7295   24.3775 O   0  0  0  0  0  0  0  0  0  0  0  0
  -21.5090   -7.4337   21.4403 O   0  0  0  0  0  0  0  0  0  0  0  0
  -27.8981  -26.2457   19.2702 O   0  0  0  0  0  0  0  0  0  1  0  0
  -29.6954  -21.9091   20.4016 O   0  0  0  0  0  0  0  0  0  0  0  0
  -21.4657   -3.6394   25.4410 F   0  0  0  0  0  0  0  0  0  0  0  0
  -21.3333   -4.7410   20.8394 F   0  0  0  0  0  0  0  0  0  0  0  0
  1  2  1  0  0  0  0
  1  5  2  0  0  0  0
  2  6  2  0  0  0  0
  3  8  2  0  0  0  0
  3 17  1  0  0  0  0
  4  9  1  0  0  0  0
  4 17  2  0  0  0  0
  5 19  1  0  0  0  0
  6 21  1  0  0  0  0
  7 10  2  0  0  0  0
  7 20  1  0  0  0  0
  8 26  1  0  0  0  0
  9 26  2  0  0  0  0
 10 27  1  0  0  0  0
 11 12  2  0  0  0  0
 11 28  1  0  0  0  0
 12 30  1  0  0  0  0
 13 22  1  0  0  0  0
 13 27  2  0  0  0  0
 14 23  2  0  0  0  0
 14 25  1  0  0  0  0
 15 24  1  0  0  0  0
 15 25  2  0  0  0  0
 16 30  2  0  0  0  0
 16 31  1  0  0  0  0
 17 32  1  0  0  0  0
 18 32  1  0  0  0  0
 18 33  2  0  0  0  0
 18 34  1  0  0  0  0
 19 21  2  0  0  0  0
 19 40  1  0  0  0  0
 20 22  2  0  0  0  0
 20 41  1  0  0  0  0
 21 49  1  0  0  0  0
 22 42  1  0  0  0  0
 23 29  1  0  0  0  0
 23 52  1  0  0  0  0
 24 29  2  0  0  0  0
 24 53  1  0  0  0  0
 25 70  1  0  0  0  0
 26 80  1  0  0  0  0
 27 81  1  0  0  0  0
 28 31  2  0  0  0  0
 28 80  1  0  0  0  0
 29 82  1  0  0  0  0
 30 83  1  0  0  0  0
 31 84  1  0  0  0  0
 32 64  2  0  0  0  0
 33 65  1  0  0  0  0
 33 68  1  0  0  0  0
 34 69  1  0  0  0  0
 34 74  2  0  0  0  0
 35 50  1  0  0  0  0
 35 71  1  0  0  0  0
 35 75  2  0  0  0  0
 36 59  1  0  0  0  0
 36 60  1  0  0  0  0
 36 76  2  0  0  0  0
 37 61  1  0  0  0  0
 37 66  1  0  0  0  0
 37 77  2  0  0  0  0
 38 62  1  0  0  0  0
 38 72  1  0  0  0  0
 38 78  2  0  0  0  0
 39 67  1  0  0  0  0
 39 70  1  0  0  0  0
 39 79  2  0  0  0  0
 40 43  1  0  0  0  0
 41 50  1  0  0  0  0
 42 66  1  0  0  0  0
 43 45  1  0  0  0  0
 44 46  1  0  0  0  0
 44 47  1  0  0  0  0
 45 49  1  0  0  0  0
 46 51  1  0  0  0  0
 47 67  1  0  0  0  0
 48 51  1  0  0  0  0
 48 67  1  0  0  0  0
 49 71  1  0  0  0  0
 50 66  1  0  0  0  0
 51 65  1  0  0  0  0
 54 62  1  0  0  0  0
 55 63  1  0  0  0  0
 56 63  1  0  0  0  0
 57 63  1  0  0  0  0
 58 73  1  0  0  0  0
 59 81  1  0  0  0  0
 60 82  1  0  0  0  0
 61 63  1  0  0  0  0
 61 72  1  0  0  0  0
 62 73  1  0  0  0  0
 64 65  1  0  0  0  0
M  CHG  1  73   1
M  ISO  4  39 100  59 101  70 100  81 101
M  END
> <Batch ID>
0126

> <Smiles>
CNC(C)C(=O)NC(C(=O)N1Cc2cc([101O:1][101CH2:1]C(=O)COc3c(C)cc([100NH:0][100C:0](=O)N4CCCC(n5nc(-c6ccc(Oc7ccc(F)cc7F)cc6)c(C(N)=O)c5N)C4)cc3C)ccc2CC1C(=O)NC1CCCc2ccccc21)C(C)(C)C

> <Shape>
0.346

> <Color>
0.104

> <Negative vol penalty>
0.000

$$$$

  -OEChem-04052302113D

 86 94  0     1  0  0  0  0  0999 V2000
  -17.1145  -29.0542   19.9952 C   0  0  0  0  0  0  0  0  0  0  0  0
  -18.1821  -29.9453   19.9570 C   0  0  0  0  0  0  0  0  0  0  0  0
  -23.1122  -12.2826   23.3513 C   0  0  0  0  0  0  0  0  0  0  0  0
  -22.1589  -13.8391   21.7684 C   0  0  0  0  0  0  0  0  0  0  0  0
  -27.4708  -21.6047   17.7291 C   0  0  0  0  0  0  0  0  0  0  0  0
  -17.1236  -27.9958   20.9027 C   0  0  0  0  0  0  0  0  0  0  0  0
  -19.2590  -29.7792   20.8272 C   0  0  0  0  0  0  0  0  0  0  0  0
  -25.9524  -28.8916   18.3170 C   0  0  0  0  0  0  0  0  0  0  0  0
  -26.5607  -20.6029   17.3919 C   0  0  0  0  0  0  0  0  0  0  0  0
  -21.9769  -12.4023   24.1528 C   0  0  0  0  0  0  0  0  0  0  0  0
  -21.0235  -13.9587   22.5698 C   0  0  0  0  0  0  0  0  0  0  0  0
  -27.2892  -28.9273   17.9197 C   0  0  0  0  0  0  0  0  0  0  0  0
  -17.7185  -14.3973   24.0200 C   0  0  0  0  0  0  0  0  0  0  0  0
  -16.4735  -14.3532   23.3928 C   0  0  0  0  0  0  0  0  0  0  0  0
  -28.7867  -19.9950   18.9598 C   0  0  0  0  0  0  0  0  0  0  0  0
  -27.9906  -28.6571   20.2182 C   0  0  0  0  0  0  0  0  0  0  0  0
  -16.9691  -12.1381   22.5650 C   0  0  0  0  0  0  0  0  0  0  0  0
  -23.2032  -13.0011   22.1592 C   0  0  0  0  0  0  0  0  0  0  0  0
  -28.5839  -21.3007   18.5130 C   0  0  0  0  0  0  0  0  0  0  0  0
  -24.5900  -11.9531   20.2920 C   0  0  0  0  0  0  0  0  0  0  0  0
  -18.2055  -27.8110   21.7779 C   0  0  0  0  0  0  0  0  0  0  0  0
  -25.6292  -28.7229   19.6662 C   0  0  0  0  0  0  0  0  0  0  0  0
  -19.2819  -28.7181   21.7482 C   0  0  0  0  0  0  0  0  0  0  0  0
  -26.6533  -28.6081   20.6206 C   0  0  0  0  0  0  0  0  0  0  0  0
  -26.7635  -19.2972   17.8387 C   0  0  0  0  0  0  0  0  0  0  0  0
  -27.8765  -18.9932   18.6226 C   0  0  0  0  0  0  0  0  0  0  0  0
  -20.9325  -13.2403   23.7620 C   0  0  0  0  0  0  0  0  0  0  0  0
  -28.3058  -28.8105   18.8680 C   0  0  0  0  0  0  0  0  0  0  0  0
  -18.5889  -13.3120   23.9197 C   0  0  0  0  0  0  0  0  0  0  0  0
  -16.0987  -13.2236   22.6653 C   0  0  0  0  0  0  0  0  0  0  0  0
  -18.2142  -12.1824   23.1923 C   0  0  0  0  0  0  0  0  0  0  0  0
  -24.3760  -12.8784   21.3312 C   0  0  0  0  0  0  0  0  0  0  0  0
  -25.8470  -12.2477   19.8234 C   0  0  0  0  0  0  0  0  0  0  0  0
  -29.5447  -22.3600   18.8678 C   0  0  0  0  0  0  0  0  0  0  0  0
  -29.6744  -23.5214   18.2108 C   0  0  0  0  0  0  0  0  0  0  0  0
  -23.7294  -10.9197   19.7949 C   0  0  0  0  0  0  0  0  0  0  0  0
  -30.6720  -24.5133   18.6723 C   0  0  0  0  0  0  0  0  0  0  0  0
  -22.9283  -28.3937   22.2494 C   0  0  0  0  0  0  0  0  0  0  0  0
  -25.1253  -26.3874   22.9967 C   0  0  0  0  0  0  0  0  0  0  0  0
  -27.5709  -24.0210   23.2340 C   0  0  0  0  0  0  0  0  0  0  0  0
  -29.1597  -17.2205   19.8706 C   0  0  0  0  0  0  0  0  0  0  0  0
  -18.1486  -26.6798   22.7738 C   0  0  0  0  0  0  0  0  0  0  0  0
  -24.2035  -28.7404   20.1470 C   0  0  0  0  0  0  0  0  0  0  0  0
  -26.2587  -28.4629   22.0650 C   0  0  0  0  0  0  0  0  0  0  0  0
  -19.5002  -26.3555   23.4050 C   0  0  0  0  0  0  0  0  0  0  0  0
  -30.0453  -14.0587   21.2475 C   0  0  0  0  0  0  0  0  0  0  0  0
  -20.2012  -27.6344   23.8521 C   0  0  0  0  0  0  0  0  0  0  0  0
  -28.7124  -13.3108   21.3250 C   0  0  0  0  0  0  0  0  0  0  0  0
  -29.8805  -15.5453   21.5585 C   0  0  0  0  0  0  0  0  0  0  0  0
  -27.5245  -15.4883   20.8407 C   0  0  0  0  0  0  0  0  0  0  0  0
  -20.4795  -28.5568   22.6591 C   0  0  1  0  0  0  0  0  0  0  0  0
  -23.9557  -27.7938   21.3351 C   0  0  1  0  0  0  0  0  0  0  0  0
  -27.6293  -13.9995   20.4716 C   0  0  2  0  0  0  0  0  0  0  0  0
  -25.7715  -18.2445   17.4632 C   0  0  0  0  0  0  0  0  0  0  0  0
  -28.7702  -21.9897   24.0902 C   0  0  0  0  0  0  0  0  0  0  0  0
  -26.1540  -28.3331   25.1085 C   0  0  0  0  0  0  0  0  0  0  0  0
  -27.6519  -26.5136   25.9533 C   0  0  0  0  0  0  0  0  0  0  0  0
  -25.1755  -26.2213   26.0236 C   0  0  0  0  0  0  0  0  0  0  0  0
  -26.1017  -22.2331   21.3891 C   0  0  0  0  0  0  0  0  0  0  0  0
  -31.3154  -27.7846   17.1343 C   0  0  0  0  0  0  0  0  0  0  0  0
  -29.9024  -28.3456   17.1674 C   0  0  0  0  0  0  0  0  0  1  0  0
  -31.5034  -26.6570   18.1370 C   0  0  0  0  0  0  0  0  0  0  0  0
  -26.3731  -26.1187   23.7993 C   0  0  1  0  0  0  0  0  0  0  0  0
  -27.5024  -22.5182   23.4374 C   0  0  2  0  0  0  0  0  0  0  0  0
  -26.3399  -26.8050   25.1940 C   0  0  0  0  0  0  0  0  0  0  0  0
  -25.4140  -13.6993   21.5124 N   0  0  0  0  0  0  0  0  0  0  0  0
  -26.2923  -13.2907   20.5810 N   0  0  0  0  0  0  0  0  0  0  0  0
  -25.1285  -27.5286   22.1855 N   0  0  0  0  0  0  0  0  0  0  0  0
  -28.8412  -16.1315   20.7093 N   0  0  0  0  0  0  0  0  0  0  0  0
  -26.6038  -11.7136   18.8413 N   0  0  0  0  0  0  0  0  0  0  0  0
  -22.4716  -10.7537   20.3904 N   0  0  0  0  0  0  0  0  0  0  0  0
  -28.0997  -17.6726   19.0853 N   0  0  0  0  0  0  0  0  0  0  0  0
  -21.6248  -28.0841   21.9111 N   0  0  0  0  0  0  0  0  0  0  0  0
  -26.5210  -24.6682   23.8505 N   0  0  0  0  0  0  0  0  0  0  0  0
  -27.3236  -21.8262   22.1297 N   0  3  0  0  0  0  0  0  0  0  0  0
  -24.0724  -10.1552   18.8614 O   0  0  0  0  0  0  0  0  0  0  0  0
  -31.4181  -24.3752   19.6287 O   0  0  0  0  0  0  0  0  0  0  0  0
  -23.2904  -29.0856   23.1938 O   0  0  0  0  0  0  0  0  0  0  0  0
  -24.1700  -25.6114   23.0889 O   0  0  0  0  0  0  0  0  0  0  0  0
  -28.4682  -24.5666   22.5956 O   0  0  0  0  0  0  0  0  0  0  0  0
  -30.2965  -17.6980   19.8305 O   0  0  0  0  0  0  0  0  0  0  0  0
  -19.8244  -13.3570   24.5437 O   0  0  0  0  0  0  0  0  0  0  0  0
  -29.6087  -28.8417   18.4728 O   0  0  0  0  0  0  0  0  0  1  0  0
  -30.6061  -25.5950   17.8425 O   0  0  0  0  0  0  0  0  0  0  0  0
  -14.9024  -13.1806   22.0643 F   0  0  0  0  0  0  0  0  0  0  0  0
  -19.0456  -11.1361   23.0933 F   0  0  0  0  0  0  0  0  0  0  0  0
  1  2  1  0  0  0  0
  1  6  2  0  0  0  0
  2  7  2  0  0  0  0
  3 10  2  0  0  0  0
  3 18  1  0  0  0  0
  4 11  1  0  0  0  0
  4 18  2  0  0  0  0
  5  9  2  0  0  0  0
  5 19  1  0  0  0  0
  6 21  1  0  0  0  0
  7 23  1  0  0  0  0
  8 12  2  0  0  0  0
  8 22  1  0  0  0  0
  9 25  1  0  0  0  0
 10 27  1  0  0  0  0
 11 27  2  0  0  0  0
 12 28  1  0  0  0  0
 13 14  2  0  0  0  0
 13 29  1  0  0  0  0
 14 30  1  0  0  0  0
 15 19  2  0  0  0  0
 15 26  1  0  0  0  0
 16 24  1  0  0  0  0
 16 28  2  0  0  0  0
 17 30  2  0  0  0  0
 17 31  1  0  0  0  0
 18 32  1  0  0  0  0
 19 34  1  0  0  0  0
 20 32  1  0  0  0  0
 20 33  2  0  0  0  0
 20 36  1  0  0  0  0
 21 23  2  0  0  0  0
 21 42  1  0  0  0  0
 22 24  2  0  0  0  0
 22 43  1  0  0  0  0
 23 51  1  0  0  0  0
 24 44  1  0  0  0  0
 25 26  2  0  0  0  0
 25 54  1  0  0  0  0
 26 72  1  0  0  0  0
 27 82  1  0  0  0  0
 28 83  1  0  0  0  0
 29 31  2  0  0  0  0
 29 82  1  0  0  0  0
 30 85  1  0  0  0  0
 31 86  1  0  0  0  0
 32 66  2  0  0  0  0
 33 67  1  0  0  0  0
 33 70  1  0  0  0  0
 34 35  2  0  0  0  0
 35 37  1  0  0  0  0
 36 71  1  0  0  0  0
 36 76  2  0  0  0  0
 37 77  2  0  0  0  0
 37 84  1  0  0  0  0
 38 52  1  0  0  0  0
 38 73  1  0  0  0  0
 38 78  2  0  0  0  0
 39 63  1  0  0  0  0
 39 68  1  0  0  0  0
 39 79  2  0  0  0  0
 40 64  1  0  0  0  0
 40 74  1  0  0  0  0
 40 80  2  0  0  0  0
 41 69  1  0  0  0  0
 41 72  1  0  0  0  0
 41 81  2  0  0  0  0
 42 45  1  0  0  0  0
 43 52  1  0  0  0  0
 44 68  1  0  0  0  0
 45 47  1  0  0  0  0
 46 48  1  0  0  0  0
 46 49  1  0  0  0  0
 47 51  1  0  0  0  0
 48 53  1  0  0  0  0
 49 69  1  0  0  0  0
 50 53  1  0  0  0  0
 50 69  1  0  0  0  0
 51 73  1  0  0  0  0
 52 68  1  0  0  0  0
 53 67  1  0  0  0  0
 55 64  1  0  0  0  0
 56 65  1  0  0  0  0
 57 65  1  0  0  0  0
 58 65  1  0  0  0  0
 59 75  1  0  0  0  0
 60 61  1  0  0  0  0
 60 62  1  0  0  0  0
 61 83  1  0  0  0  0
 62 84  1  0  0  0  0
 63 65  1  0  0  0  0
 63 74  1  0  0  0  0
 64 75  1  0  0  0  0
 66 67  1  0  0  0  0
M  CHG  1  75   1
M  ISO  4  41 100  61 101  72 100  83 101
M  END
> <Batch ID>
0126

> <Smiles>
CNC(C)C(=O)NC(C(=O)N1Cc2cc([101O:1][101CH2:1]CCOC(=O)C=Cc3ccc(C)c([100NH:0][100C:0](=O)N4CCCC(n5nc(-c6ccc(Oc7ccc(F)cc7F)cc6)c(C(N)=O)c5N)C4)c3)ccc2CC1C(=O)NC1CCCc2ccccc21)C(C)(C)C

> <Shape>
0.230

> <Color>
0.095

> <Negative vol penalty>
0.000

$$$$

  -OEChem-04052302113D

 84 92  0     1  0  0  0  0  0999 V2000
  -18.9143  -24.6388   22.0390 C   0  0  0  0  0  0  0  0  0  0  0  0
  -20.1666  -24.8631   21.4763 C   0  0  0  0  0  0  0  0  0  0  0  0
  -24.9033  -13.8828   22.6082 C   0  0  0  0  0  0  0  0  0  0  0  0
  -27.1885  -13.7325   21.8383 C   0  0  0  0  0  0  0  0  0  0  0  0
  -18.1220  -25.7186   22.4267 C   0  0  0  0  0  0  0  0  0  0  0  0
  -20.6270  -26.1675   21.2998 C   0  0  0  0  0  0  0  0  0  0  0  0
  -25.4484  -26.7375   22.7399 C   0  0  0  0  0  0  0  0  0  0  0  0
  -24.5486  -12.8338   21.7602 C   0  0  0  0  0  0  0  0  0  0  0  0
  -26.8337  -12.6834   20.9903 C   0  0  0  0  0  0  0  0  0  0  0  0
  -26.4326  -26.2795   21.8650 C   0  0  0  0  0  0  0  0  0  0  0  0
  -24.7914   -9.4613   21.7333 C   0  0  0  0  0  0  0  0  0  0  0  0
  -23.9786   -8.4541   22.2532 C   0  0  0  0  0  0  0  0  0  0  0  0
  -32.7323  -21.9066   19.2142 C   0  0  0  0  0  0  0  0  0  0  0  0
  -30.6356  -22.4234   20.2974 C   0  0  0  0  0  0  0  0  0  0  0  0
  -26.7846  -28.5363   21.0891 C   0  0  0  0  0  0  0  0  0  0  0  0
  -31.7868  -20.3632   20.8144 C   0  0  0  0  0  0  0  0  0  0  0  0
  -22.3020   -8.9460   20.5847 C   0  0  0  0  0  0  0  0  0  0  0  0
  -26.2233  -14.3323   22.6473 C   0  0  0  0  0  0  0  0  0  0  0  0
  -31.6497  -22.7656   19.4029 C   0  0  0  0  0  0  0  0  0  0  0  0
  -27.0332  -15.3200   24.8555 C   0  0  0  0  0  0  0  0  0  0  0  0
  -18.5769  -27.0366   22.2639 C   0  0  0  0  0  0  0  0  0  0  0  0
  -25.1167  -28.0991   22.7882 C   0  0  0  0  0  0  0  0  0  0  0  0
  -19.8395  -27.2660   21.6845 C   0  0  0  0  0  0  0  0  0  0  0  0
  -25.7976  -29.0094   21.9672 C   0  0  0  0  0  0  0  0  0  0  0  0
  -32.8009  -20.7054   19.9199 C   0  0  0  0  0  0  0  0  0  0  0  0
  -30.7041  -21.2221   21.0032 C   0  0  0  0  0  0  0  0  0  0  0  0
  -25.5138  -12.2340   20.9512 C   0  0  0  0  0  0  0  0  0  0  0  0
  -27.0988  -27.1785   21.0374 C   0  0  0  0  0  0  0  0  0  0  0  0
  -24.3595  -10.2110   20.6392 C   0  0  0  0  0  0  0  0  0  0  0  0
  -22.7339   -8.1963   21.6789 C   0  0  0  0  0  0  0  0  0  0  0  0
  -23.1148   -9.9533   20.0648 C   0  0  0  0  0  0  0  0  0  0  0  0
  -26.5902  -15.4163   23.5227 C   0  0  0  0  0  0  0  0  0  0  0  0
  -27.2492  -16.6206   25.2403 C   0  0  0  0  0  0  0  0  0  0  0  0
  -30.2274  -24.5787   18.3285 C   0  0  0  0  0  0  0  0  0  0  0  0
  -30.0419  -25.9007   18.2083 C   0  0  0  0  0  0  0  0  0  0  0  0
  -31.5769  -24.0426   18.6525 C   0  0  0  0  0  0  0  0  0  0  0  0
  -27.2316  -14.1587   25.6725 C   0  0  0  0  0  0  0  0  0  0  0  0
  -22.4869  -29.7890   22.2119 C   0  0  0  0  0  0  0  0  0  0  0  0
  -24.2840  -32.2411   23.3432 C   0  0  0  0  0  0  0  0  0  0  0  0
  -27.3905  -33.5350   23.9112 C   0  0  0  0  0  0  0  0  0  0  0  0
  -28.5316  -21.6128   22.2172 C   0  0  0  0  0  0  0  0  0  0  0  0
  -17.6652  -28.1728   22.6545 C   0  0  0  0  0  0  0  0  0  0  0  0
  -24.0714  -28.5809   23.7565 C   0  0  0  0  0  0  0  0  0  0  0  0
  -25.4930  -30.4841   21.9953 C   0  0  0  0  0  0  0  0  0  0  0  0
  -18.3826  -29.5145   22.7782 C   0  0  0  0  0  0  0  0  0  0  0  0
  -25.7448  -21.0829   24.3689 C   0  0  0  0  0  0  0  0  0  0  0  0
  -19.2965  -29.7438   21.5786 C   0  0  0  0  0  0  0  0  0  0  0  0
  -25.6893  -19.5612   24.5223 C   0  0  0  0  0  0  0  0  0  0  0  0
  -26.1628  -21.4959   22.9588 C   0  0  0  0  0  0  0  0  0  0  0  0
  -27.3531  -19.3642   22.6302 C   0  0  0  0  0  0  0  0  0  0  0  0
  -20.3841  -28.6657   21.4997 C   0  0  1  0  0  0  0  0  0  0  0  0
  -23.4547  -29.9170   23.3541 C   0  0  1  0  0  0  0  0  0  0  0  0
  -26.9996  -18.8993   24.0524 C   0  0  2  0  0  0  0  0  0  0  0  0
  -33.9584  -19.7866   19.7181 C   0  0  0  0  0  0  0  0  0  0  0  0
  -28.5399  -35.5751   24.8136 C   0  0  0  0  0  0  0  0  0  0  0  0
  -23.6166  -33.7496   20.7763 C   0  0  0  0  0  0  0  0  0  0  0  0
  -25.5018  -35.3153   21.2887 C   0  0  0  0  0  0  0  0  0  0  0  0
  -23.5641  -35.1458   22.8505 C   0  0  0  0  0  0  0  0  0  0  0  0
  -28.7251  -31.9806   26.0469 C   0  0  0  0  0  0  0  0  0  0  0  0
  -28.7148  -26.5217   17.8698 C   0  0  0  0  0  0  0  0  0  0  0  0
  -28.2366  -27.4636   18.9685 C   0  0  0  0  0  0  0  0  0  1  0  0
  -25.2284  -33.2464   22.7295 C   0  0  1  0  0  0  0  0  0  0  0  0
  -27.9998  -34.1908   25.1372 C   0  0  2  0  0  0  0  0  0  0  0  0
  -24.4823  -34.3363   21.9091 C   0  0  0  0  0  0  0  0  0  0  0  0
  -26.5280  -16.6784   23.0899 N   0  0  0  0  0  0  0  0  0  0  0  0
  -26.9345  -17.3871   24.1569 N   0  0  0  0  0  0  0  0  0  0  0  0
  -24.4586  -30.9054   22.9545 N   0  0  0  0  0  0  0  0  0  0  0  0
  -27.4139  -20.8335   22.5835 N   0  0  0  0  0  0  0  0  0  0  0  0
  -27.6758  -17.1720   26.3963 N   0  0  0  0  0  0  0  0  0  0  0  0
  -26.9619  -12.8991   25.1202 N   0  0  0  0  0  0  0  0  0  0  0  0
  -29.6744  -20.8742   21.9122 N   0  0  0  0  0  0  0  0  0  0  0  0
  -21.4314  -28.9329   22.4620 N   0  0  0  0  0  0  0  0  0  0  0  0
  -26.0347  -33.7714   23.8261 N   0  0  0  0  0  0  0  0  0  0  0  0
  -29.1193  -33.3613   25.6659 N   0  3  0  0  0  0  0  0  0  0  0  0
  -32.6100  -24.6020   18.3016 O   0  0  0  0  0  0  0  0  0  0  0  0
  -27.6204  -14.2367   26.8626 O   0  0  0  0  0  0  0  0  0  0  0  0
  -22.6825  -30.4213   21.1806 O   0  0  0  0  0  0  0  0  0  0  0  0
  -23.4279  -32.6258   24.1436 O   0  0  0  0  0  0  0  0  0  0  0  0
  -28.0518  -32.8818   23.1072 O   0  0  0  0  0  0  0  0  0  0  0  0
  -28.4868  -22.8456   22.2035 O   0  0  0  0  0  0  0  0  0  0  0  0
  -25.1680  -11.2102   20.1237 O   0  0  0  0  0  0  0  0  0  0  0  0
  -28.0595  -26.7340   20.1821 O   0  0  0  0  0  0  0  0  0  1  0  0
  -21.9541   -7.2280   22.1772 F   0  0  0  0  0  0  0  0  0  0  0  0
  -22.6950  -10.6693   19.0128 F   0  0  0  0  0  0  0  0  0  0  0  0
  1  2  1  0  0  0  0
  1  5  2  0  0  0  0
  2  6  2  0  0  0  0
  3  8  2  0  0  0  0
  3 18  1  0  0  0  0
  4  9  1  0  0  0  0
  4 18  2  0  0  0  0
  5 21  1  0  0  0  0
  6 23  1  0  0  0  0
  7 10  2  0  0  0  0
  7 22  1  0  0  0  0
  8 27  1  0  0  0  0
  9 27  2  0  0  0  0
 10 28  1  0  0  0  0
 11 12  2  0  0  0  0
 11 29  1  0  0  0  0
 12 30  1  0  0  0  0
 13 19  1  0  0  0  0
 13 25  2  0  0  0  0
 14 19  2  0  0  0  0
 14 26  1  0  0  0  0
 15 24  1  0  0  0  0
 15 28  2  0  0  0  0
 16 25  1  0  0  0  0
 16 26  2  0  0  0  0
 17 30  2  0  0  0  0
 17 31  1  0  0  0  0
 18 32  1  0  0  0  0
 19 36  1  0  0  0  0
 20 32  1  0  0  0  0
 20 33  2  0  0  0  0
 20 37  1  0  0  0  0
 21 23  2  0  0  0  0
 21 42  1  0  0  0  0
 22 24  2  0  0  0  0
 22 43  1  0  0  0  0
 23 51  1  0  0  0  0
 24 44  1  0  0  0  0
 25 54  1  0  0  0  0
 26 71  1  0  0  0  0
 27 81  1  0  0  0  0
 28 82  1  0  0  0  0
 29 31  2  0  0  0  0
 29 81  1  0  0  0  0
 30 83  1  0  0  0  0
 31 84  1  0  0  0  0
 32 65  2  0  0  0  0
 33 66  1  0  0  0  0
 33 69  1  0  0  0  0
 34 35  2  0  0  0  0
 34 36  1  0  0  0  0
 35 60  1  0  0  0  0
 36 75  2  0  0  0  0
 37 70  1  0  0  0  0
 37 76  2  0  0  0  0
 38 52  1  0  0  0  0
 38 72  1  0  0  0  0
 38 77  2  0  0  0  0
 39 62  1  0  0  0  0
 39 67  1  0  0  0  0
 39 78  2  0  0  0  0
 40 63  1  0  0  0  0
 40 73  1  0  0  0  0
 40 79  2  0  0  0  0
 41 68  1  0  0  0  0
 41 71  1  0  0  0  0
 41 80  2  0  0  0  0
 42 45  1  0  0  0  0
 43 52  1  0  0  0  0
 44 67  1  0  0  0  0
 45 47  1  0  0  0  0
 46 48  1  0  0  0  0
 46 49  1  0  0  0  0
 47 51  1  0  0  0  0
 48 53  1  0  0  0  0
 49 68  1  0  0  0  0
 50 53  1  0  0  0  0
 50 68  1  0  0  0  0
 51 72  1  0  0  0  0
 52 67  1  0  0  0  0
 53 66  1  0  0  0  0
 55 63  1  0  0  0  0
 56 64  1  0  0  0  0
 57 64  1  0  0  0  0
 58 64  1  0  0  0  0
 59 74  1  0  0  0  0
 60 61  1  0  0  0  0
 61 82  1  0  0  0  0
 62 64  1  0  0  0  0
 62 73  1  0  0  0  0
 63 74  1  0  0  0  0
 65 66  1  0  0  0  0
M  CHG  1  74   1
M  ISO  4  41 100  61 101  71 100  82 101
M  END
> <Batch ID>
0126

> <Smiles>
CNC(C)C(=O)NC(C(=O)N1Cc2cc([101O:1][101CH2:1]CC=CC(=O)c3cc(C)cc([100NH:0][100C:0](=O)N4CCCC(n5nc(-c6ccc(Oc7ccc(F)cc7F)cc6)c(C(N)=O)c5N)C4)c3)ccc2CC1C(=O)NC1CCCc2ccccc21)C(C)(C)C

> <Shape>
0.258

> <Color>
0.098

> <Negative vol penalty>
0.000

$$$$

  -OEChem-04052302113D

 83 91  0     1  0  0  0  0  0999 V2000
  -26.5773  -35.2236   22.2171 C   0  0  0  0  0  0  0  0  0  0  0  0
  -27.0286  -33.9124   22.1057 C   0  0  0  0  0  0  0  0  0  0  0  0
  -22.3337  -10.5717   22.2378 C   0  0  0  0  0  0  0  0  0  0  0  0
  -23.2409  -10.2976   20.0155 C   0  0  0  0  0  0  0  0  0  0  0  0
  -26.1563  -21.8579   18.8707 C   0  0  0  0  0  0  0  0  0  0  0  0
  -25.3268  -35.4841   22.7760 C   0  0  0  0  0  0  0  0  0  0  0  0
  -26.2301  -32.8609   22.5541 C   0  0  0  0  0  0  0  0  0  0  0  0
  -26.0782  -29.0027   19.2776 C   0  0  0  0  0  0  0  0  0  0  0  0
  -25.1922  -20.8698   18.6710 C   0  0  0  0  0  0  0  0  0  0  0  0
  -21.9137   -9.2417   22.2305 C   0  0  0  0  0  0  0  0  0  0  0  0
  -22.8209   -8.9674   20.0081 C   0  0  0  0  0  0  0  0  0  0  0  0
  -27.1781  -28.1464   19.2508 C   0  0  0  0  0  0  0  0  0  0  0  0
  -20.9221   -5.8169   22.9399 C   0  0  0  0  0  0  0  0  0  0  0  0
  -21.1630   -5.0545   24.0828 C   0  0  0  0  0  0  0  0  0  0  0  0
  -25.9680  -26.5595   20.6061 C   0  0  0  0  0  0  0  0  0  0  0  0
  -26.9381  -19.2392   18.3104 C   0  0  0  0  0  0  0  0  0  0  0  0
  -23.5369   -5.4265   23.8306 C   0  0  0  0  0  0  0  0  0  0  0  0
  -22.9972  -11.0997   21.1303 C   0  0  0  0  0  0  0  0  0  0  0  0
  -27.5113  -21.5366   18.7900 C   0  0  0  0  0  0  0  0  0  0  0  0
  -24.6703  -12.9719   21.5813 C   0  0  0  0  0  0  0  0  0  0  0  0
  -24.5085  -34.4347   23.2226 C   0  0  0  0  0  0  0  0  0  0  0  0
  -24.9169  -28.6480   19.9791 C   0  0  0  0  0  0  0  0  0  0  0  0
  -24.9680  -33.1077   23.1207 C   0  0  0  0  0  0  0  0  0  0  0  0
  -24.8538  -27.4119   20.6381 C   0  0  0  0  0  0  0  0  0  0  0  0
  -27.9022  -20.2273   18.5099 C   0  0  0  0  0  0  0  0  0  0  0  0
  -25.5831  -19.5605   18.3909 C   0  0  0  0  0  0  0  0  0  0  0  0
  -22.1573   -8.4395   21.1157 C   0  0  0  0  0  0  0  0  0  0  0  0
  -27.1242  -26.9258   19.9175 C   0  0  0  0  0  0  0  0  0  0  0  0
  -21.9886   -6.3841   22.2423 C   0  0  0  0  0  0  0  0  0  0  0  0
  -22.4703   -4.8593   24.5282 C   0  0  0  0  0  0  0  0  0  0  0  0
  -23.2960   -6.1889   22.6877 C   0  0  0  0  0  0  0  0  0  0  0  0
  -23.4308  -12.4738   21.1370 C   0  0  0  0  0  0  0  0  0  0  0  0
  -24.5877  -14.3279   21.3794 C   0  0  0  0  0  0  0  0  0  0  0  0
  -28.5046  -22.6017   19.0062 C   0  0  0  0  0  0  0  0  0  0  0  0
  -28.6254  -23.7095   18.2579 C   0  0  0  0  0  0  0  0  0  0  0  0
  -25.7957  -12.2714   22.1276 C   0  0  0  0  0  0  0  0  0  0  0  0
  -23.3270  -29.8663   22.4472 C   0  0  0  0  0  0  0  0  0  0  0  0
  -21.1864  -27.5414   21.7159 C   0  0  0  0  0  0  0  0  0  0  0  0
  -20.5818  -24.5121   20.2653 C   0  0  0  0  0  0  0  0  0  0  0  0
  -23.2179  -18.7086   18.2272 C   0  0  0  0  0  0  0  0  0  0  0  0
  -23.1844  -34.7687   23.8630 C   0  0  0  0  0  0  0  0  0  0  0  0
  -23.7293  -29.5710   19.9760 C   0  0  0  0  0  0  0  0  0  0  0  0
  -23.6232  -26.9753   21.3886 C   0  0  0  0  0  0  0  0  0  0  0  0
  -22.2413  -33.5732   23.9709 C   0  0  0  0  0  0  0  0  0  0  0  0
  -20.6277  -17.2449   20.1830 C   0  0  0  0  0  0  0  0  0  0  0  0
  -22.9828  -32.3554   24.5131 C   0  0  0  0  0  0  0  0  0  0  0  0
  -21.2280  -15.9141   20.6421 C   0  0  0  0  0  0  0  0  0  0  0  0
  -21.0586  -17.6010   18.7613 C   0  0  0  0  0  0  0  0  0  0  0  0
  -23.1089  -16.2543   18.9888 C   0  0  0  0  0  0  0  0  0  0  0  0
  -24.1203  -31.9385   23.5730 C   0  0  1  0  0  0  0  0  0  0  0  0
  -22.7853  -29.3340   21.1507 C   0  0  1  0  0  0  0  0  0  0  0  0
  -22.7555  -15.8849   20.4387 C   0  0  2  0  0  0  0  0  0  0  0  0
  -29.8308  -19.1155   19.6637 C   0  0  0  0  0  0  0  0  0  0  0  0
  -18.7423  -22.8539   19.8603 C   0  0  0  0  0  0  0  0  0  0  0  0
  -21.3672  -26.6343   24.6236 C   0  0  0  0  0  0  0  0  0  0  0  0
  -20.2973  -24.4753   23.9438 C   0  0  0  0  0  0  0  0  0  0  0  0
  -19.0559  -26.6214   23.6686 C   0  0  0  0  0  0  0  0  0  0  0  0
  -20.8467  -24.7607   17.3281 C   0  0  0  0  0  0  0  0  0  0  0  0
  -29.3448  -19.8467   18.4165 C   0  0  0  0  0  0  0  0  0  0  0  0
  -29.6646  -24.7682   18.5068 C   0  0  0  0  0  0  0  0  0  0  0  0
  -29.0315  -26.1353   18.7373 C   0  0  0  0  0  0  0  0  0  1  0  0
  -20.9901  -26.1017   22.1256 C   0  0  1  0  0  0  0  0  0  0  0  0
  -19.4977  -24.0524   19.3073 C   0  0  2  0  0  0  0  0  0  0  0  0
  -20.4517  -25.9670   23.5779 C   0  0  0  0  0  0  0  0  0  0  0  0
  -22.6202  -13.4352   20.6870 N   0  0  0  0  0  0  0  0  0  0  0  0
  -23.3518  -14.5510   20.8475 N   0  0  0  0  0  0  0  0  0  0  0  0
  -22.4904  -27.9153   21.3616 N   0  0  0  0  0  0  0  0  0  0  0  0
  -22.5178  -17.5570   18.6449 N   0  0  0  0  0  0  0  0  0  0  0  0
  -25.4524  -15.3394   21.6068 N   0  0  0  0  0  0  0  0  0  0  0  0
  -25.7130  -10.8792   22.2664 N   0  0  0  0  0  0  0  0  0  0  0  0
  -24.6036  -18.5574   18.1854 N   0  0  0  0  0  0  0  0  0  0  0  0
  -23.5950  -31.2218   22.4307 N   0  0  0  0  0  0  0  0  0  0  0  0
  -20.1295  -25.5025   21.1113 N   0  0  0  0  0  0  0  0  0  0  0  0
  -20.0935  -23.6684   17.9964 N   0  3  0  0  0  0  0  0  0  0  0  0
  -26.8374  -12.8644   22.4974 O   0  0  0  0  0  0  0  0  0  0  0  0
  -23.4885  -29.1040   23.3929 O   0  0  0  0  0  0  0  0  0  0  0  0
  -20.2171  -28.3042   21.7038 O   0  0  0  0  0  0  0  0  0  0  0  0
  -21.7154  -24.0372   20.2657 O   0  0  0  0  0  0  0  0  0  0  0  0
  -22.6334  -19.7603   17.9549 O   0  0  0  0  0  0  0  0  0  0  0  0
  -21.7478   -7.1415   21.1082 O   0  0  0  0  0  0  0  0  0  0  0  0
  -28.1966  -26.0884   19.8936 O   0  0  0  0  0  0  0  0  0  1  0  0
  -22.7014   -4.1283   25.6266 F   0  0  0  0  0  0  0  0  0  0  0  0
  -24.3245   -6.7323   22.0224 F   0  0  0  0  0  0  0  0  0  0  0  0
  1  2  1  0  0  0  0
  1  6  2  0  0  0  0
  2  7  2  0  0  0  0
  3 10  2  0  0  0  0
  3 18  1  0  0  0  0
  4 11  1  0  0  0  0
  4 18  2  0  0  0  0
  5  9  2  0  0  0  0
  5 19  1  0  0  0  0
  6 21  1  0  0  0  0
  7 23  1  0  0  0  0
  8 12  2  0  0  0  0
  8 22  1  0  0  0  0
  9 26  1  0  0  0  0
 10 27  1  0  0  0  0
 11 27  2  0  0  0  0
 12 28  1  0  0  0  0
 13 14  2  0  0  0  0
 13 29  1  0  0  0  0
 14 30  1  0  0  0  0
 15 24  1  0  0  0  0
 15 28  2  0  0  0  0
 16 25  1  0  0  0  0
 16 26  2  0  0  0  0
 17 30  2  0  0  0  0
 17 31  1  0  0  0  0
 18 32  1  0  0  0  0
 19 25  2  0  0  0  0
 19 34  1  0  0  0  0
 20 32  1  0  0  0  0
 20 33  2  0  0  0  0
 20 36  1  0  0  0  0
 21 23  2  0  0  0  0
 21 41  1  0  0  0  0
 22 24  2  0  0  0  0
 22 42  1  0  0  0  0
 23 50  1  0  0  0  0
 24 43  1  0  0  0  0
 25 59  1  0  0  0  0
 26 71  1  0  0  0  0
 27 80  1  0  0  0  0
 28 81  1  0  0  0  0
 29 31  2  0  0  0  0
 29 80  1  0  0  0  0
 30 82  1  0  0  0  0
 31 83  1  0  0  0  0
 32 65  2  0  0  0  0
 33 66  1  0  0  0  0
 33 69  1  0  0  0  0
 34 35  2  0  0  0  0
 35 60  1  0  0  0  0
 36 70  1  0  0  0  0
 36 75  2  0  0  0  0
 37 51  1  0  0  0  0
 37 72  1  0  0  0  0
 37 76  2  0  0  0  0
 38 62  1  0  0  0  0
 38 67  1  0  0  0  0
 38 77  2  0  0  0  0
 39 63  1  0  0  0  0
 39 73  1  0  0  0  0
 39 78  2  0  0  0  0
 40 68  1  0  0  0  0
 40 71  1  0  0  0  0
 40 79  2  0  0  0  0
 41 44  1  0  0  0  0
 42 51  1  0  0  0  0
 43 67  1  0  0  0  0
 44 46  1  0  0  0  0
 45 47  1  0  0  0  0
 45 48  1  0  0  0  0
 46 50  1  0  0  0  0
 47 52  1  0  0  0  0
 48 68  1  0  0  0  0
 49 52  1  0  0  0  0
 49 68  1  0  0  0  0
 50 72  1  0  0  0  0
 51 67  1  0  0  0  0
 52 66  1  0  0  0  0
 53 59  1  0  0  0  0
 54 63  1  0  0  0  0
 55 64  1  0  0  0  0
 56 64  1  0  0  0  0
 57 64  1  0  0  0  0
 58 74  1  0  0  0  0
 60 61  1  0  0  0  0
 61 81  1  0  0  0  0
 62 64  1  0  0  0  0
 62 73  1  0  0  0  0
 63 74  1  0  0  0  0
 65 66  1  0  0  0  0
M  CHG  1  74   1
M  ISO  4  40 100  61 101  71 100  81 101
M  END
> <Batch ID>
0126

> <Smiles>
CCc1cc([100NH:0][100C:0](=O)N2CCCC(n3nc(-c4ccc(Oc5ccc(F)cc5F)cc4)c(C(N)=O)c3N)C2)ccc1C=CC[101CH2:1][101O:1]c1ccc2c(c1)CN(C(=O)C(NC(=O)C(C)NC)C(C)(C)C)C(C(=O)NC1CCCc3ccccc31)C2

> <Shape>
0.267

> <Color>
0.100

> <Negative vol penalty>
0.000

$$$$

  -OEChem-04052302113D

 84 92  0     1  0  0  0  0  0999 V2000
  -31.9718  -33.6007   19.7167 C   0  0  0  0  0  0  0  0  0  0  0  0
  -31.4484  -32.3144   19.7992 C   0  0  0  0  0  0  0  0  0  0  0  0
  -23.1917   -9.6722   21.4256 C   0  0  0  0  0  0  0  0  0  0  0  0
  -23.8592  -10.6276   23.5419 C   0  0  0  0  0  0  0  0  0  0  0  0
  -31.5666  -34.5766   20.6263 C   0  0  0  0  0  0  0  0  0  0  0  0
  -30.5201  -32.0030   20.7921 C   0  0  0  0  0  0  0  0  0  0  0  0
  -26.6087  -29.3176   19.0215 C   0  0  0  0  0  0  0  0  0  0  0  0
  -22.4965   -8.6675   22.0985 C   0  0  0  0  0  0  0  0  0  0  0  0
  -23.1640   -9.6229   24.2148 C   0  0  0  0  0  0  0  0  0  0  0  0
  -26.8184  -27.9571   18.8008 C   0  0  0  0  0  0  0  0  0  0  0  0
  -23.2203   -5.7730   23.6867 C   0  0  0  0  0  0  0  0  0  0  0  0
  -23.3750   -4.4632   23.2326 C   0  0  0  0  0  0  0  0  0  0  0  0
  -25.7360  -27.4563   20.8977 C   0  0  0  0  0  0  0  0  0  0  0  0
  -31.3620  -19.6742   22.1291 C   0  0  0  0  0  0  0  0  0  0  0  0
  -31.7244  -17.4313   21.3077 C   0  0  0  0  0  0  0  0  0  0  0  0
  -29.4794  -18.3078   21.4767 C   0  0  0  0  0  0  0  0  0  0  0  0
  -21.0010   -4.3314   22.8042 C   0  0  0  0  0  0  0  0  0  0  0  0
  -23.8731  -10.6523   22.1474 C   0  0  0  0  0  0  0  0  0  0  0  0
  -24.0941  -12.9421   21.0449 C   0  0  0  0  0  0  0  0  0  0  0  0
  -30.6257  -34.2796   21.6249 C   0  0  0  0  0  0  0  0  0  0  0  0
  -25.9698  -29.7592   20.1891 C   0  0  0  0  0  0  0  0  0  0  0  0
  -30.1030  -32.9755   21.7167 C   0  0  0  0  0  0  0  0  0  0  0  0
  -25.5171  -28.8229   21.1296 C   0  0  0  0  0  0  0  0  0  0  0  0
  -32.2311  -18.6344   21.7990 C   0  0  0  0  0  0  0  0  0  0  0  0
  -29.9861  -19.5109   21.9680 C   0  0  0  0  0  0  0  0  0  0  0  0
  -30.3486  -17.2680   21.1465 C   0  0  0  0  0  0  0  0  0  0  0  0
  -22.4826   -8.6428   23.4930 C   0  0  0  0  0  0  0  0  0  0  0  0
  -26.3846  -27.0264   19.7403 C   0  0  0  0  0  0  0  0  0  0  0  0
  -21.9560   -6.3619   23.6996 C   0  0  0  0  0  0  0  0  0  0  0  0
  -22.2654   -3.7424   22.7913 C   0  0  0  0  0  0  0  0  0  0  0  0
  -20.8463   -5.6411   23.2583 C   0  0  0  0  0  0  0  0  0  0  0  0
  -24.5919  -11.6901   21.4529 C   0  0  0  0  0  0  0  0  0  0  0  0
  -25.1613  -13.5533   20.4333 C   0  0  0  0  0  0  0  0  0  0  0  0
  -22.7841  -13.5026   21.2046 C   0  0  0  0  0  0  0  0  0  0  0  0
  -26.8070  -31.5898   22.6491 C   0  0  0  0  0  0  0  0  0  0  0  0
  -27.6315  -23.6778   20.3648 C   0  0  0  0  0  0  0  0  0  0  0  0
  -23.6914  -31.2284   23.4767 C   0  0  0  0  0  0  0  0  0  0  0  0
  -20.8329  -29.3763   23.2626 C   0  0  0  0  0  0  0  0  0  0  0  0
  -30.5580  -14.9147   20.2720 C   0  0  0  0  0  0  0  0  0  0  0  0
  -30.2538  -35.3549   22.6149 C   0  0  0  0  0  0  0  0  0  0  0  0
  -25.7274  -31.2286   20.3997 C   0  0  0  0  0  0  0  0  0  0  0  0
  -24.8078  -29.2440   22.3898 C   0  0  0  0  0  0  0  0  0  0  0  0
  -28.9848  -35.0436   23.4042 C   0  0  0  0  0  0  0  0  0  0  0  0
  -29.6587  -11.7005   19.0322 C   0  0  0  0  0  0  0  0  0  0  0  0
  -29.0168  -33.6092   23.9223 C   0  0  0  0  0  0  0  0  0  0  0  0
  -28.2194  -11.5143   19.5179 C   0  0  0  0  0  0  0  0  0  0  0  0
  -30.5132  -12.4392   20.0607 C   0  0  0  0  0  0  0  0  0  0  0  0
  -28.5197  -13.5309   21.0111 C   0  0  0  0  0  0  0  0  0  0  0  0
  -29.0754  -32.6056   22.7643 C   0  0  1  0  0  0  0  0  0  0  0  0
  -25.5245  -31.5966   21.8662 C   0  0  1  0  0  0  0  0  0  0  0  0
  -27.6039  -12.8491   19.9816 C   0  0  2  0  0  0  0  0  0  0  0  0
  -33.7022  -18.8091   21.9716 C   0  0  0  0  0  0  0  0  0  0  0  0
  -18.4604  -29.3141   24.0777 C   0  0  0  0  0  0  0  0  0  0  0  0
  -24.6577  -30.2741   26.2090 C   0  0  0  0  0  0  0  0  0  0  0  0
  -22.3679  -29.3478   26.6178 C   0  0  0  0  0  0  0  0  0  0  0  0
  -22.6771  -31.7996   26.2772 C   0  0  0  0  0  0  0  0  0  0  0  0
  -19.7604  -29.5423   20.5093 C   0  0  0  0  0  0  0  0  0  0  0  0
  -29.0470  -20.6346   22.3246 C   0  0  0  0  0  0  0  0  0  0  0  0
  -27.8710  -22.7152   21.5161 C   0  0  0  0  0  0  0  0  0  0  0  0
  -26.7545  -24.8735   20.6806 C   0  0  0  0  0  0  0  0  0  1  0  0
  -28.7903  -21.5580   21.1322 C   0  0  0  0  0  0  0  0  0  0  0  0
  -22.9137  -30.2348   24.3055 C   0  0  1  0  0  0  0  0  0  0  0  0
  -19.3966  -29.7709   22.9698 C   0  0  2  0  0  0  0  0  0  0  0  0
  -23.1691  -30.4059   25.8297 C   0  0  0  0  0  0  0  0  0  0  0  0
  -25.8755  -11.5148   21.1277 N   0  0  0  0  0  0  0  0  0  0  0  0
  -26.1932  -12.6647   20.5089 N   0  0  0  0  0  0  0  0  0  0  0  0
  -24.6001  -30.6923   22.5532 N   0  0  0  0  0  0  0  0  0  0  0  0
  -29.8697  -13.6959   20.4498 N   0  0  0  0  0  0  0  0  0  0  0  0
  -25.3084  -14.7587   19.8436 N   0  0  0  0  0  0  0  0  0  0  0  0
  -21.8059  -12.7397   21.8567 N   0  0  0  0  0  0  0  0  0  0  0  0
  -29.8338  -16.0458   20.6473 N   0  0  0  0  0  0  0  0  0  0  0  0
  -27.7689  -32.4534   22.1608 N   0  0  0  0  0  0  0  0  0  0  0  0
  -21.5161  -30.3816   23.9137 N   0  0  0  0  0  0  0  0  0  0  0  0
  -18.9424  -29.1595   21.6888 N   0  3  0  0  0  0  0  0  0  0  0  0
  -22.4852  -14.6396   20.7669 O   0  0  0  0  0  0  0  0  0  0  0  0
  -26.9153  -30.8564   23.6249 O   0  0  0  0  0  0  0  0  0  0  0  0
  -28.1124  -23.5045   19.2460 O   0  0  0  0  0  0  0  0  0  0  0  0
  -23.4946  -32.4354   23.6375 O   0  0  0  0  0  0  0  0  0  0  0  0
  -21.3009  -28.2840   22.9488 O   0  0  0  0  0  0  0  0  0  0  0  0
  -31.6949  -14.9543   19.7948 O   0  0  0  0  0  0  0  0  0  0  0  0
  -21.8041   -7.6626   24.1500 O   0  0  0  0  0  0  0  0  0  0  0  0
  -26.5885  -25.6978   19.5277 O   0  0  0  0  0  0  0  0  0  1  0  0
  -22.4143   -2.4852   22.3539 F   0  0  0  0  0  0  0  0  0  0  0  0
  -19.6293   -6.2020   23.2672 F   0  0  0  0  0  0  0  0  0  0  0  0
  1  2  1  0  0  0  0
  1  5  2  0  0  0  0
  2  6  2  0  0  0  0
  3  8  2  0  0  0  0
  3 18  1  0  0  0  0
  4  9  1  0  0  0  0
  4 18  2  0  0  0  0
  5 20  1  0  0  0  0
  6 22  1  0  0  0  0
  7 10  2  0  0  0  0
  7 21  1  0  0  0  0
  8 27  1  0  0  0  0
  9 27  2  0  0  0  0
 10 28  1  0  0  0  0
 11 12  2  0  0  0  0
 11 29  1  0  0  0  0
 12 30  1  0  0  0  0
 13 23  1  0  0  0  0
 13 28  2  0  0  0  0
 14 24  2  0  0  0  0
 14 25  1  0  0  0  0
 15 24  1  0  0  0  0
 15 26  2  0  0  0  0
 16 25  2  0  0  0  0
 16 26  1  0  0  0  0
 17 30  2  0  0  0  0
 17 31  1  0  0  0  0
 18 32  1  0  0  0  0
 19 32  1  0  0  0  0
 19 33  2  0  0  0  0
 19 34  1  0  0  0  0
 20 22  2  0  0  0  0
 20 40  1  0  0  0  0
 21 23  2  0  0  0  0
 21 41  1  0  0  0  0
 22 49  1  0  0  0  0
 23 42  1  0  0  0  0
 24 52  1  0  0  0  0
 25 58  1  0  0  0  0
 26 71  1  0  0  0  0
 27 81  1  0  0  0  0
 28 82  1  0  0  0  0
 29 31  2  0  0  0  0
 29 81  1  0  0  0  0
 30 83  1  0  0  0  0
 31 84  1  0  0  0  0
 32 65  2  0  0  0  0
 33 66  1  0  0  0  0
 33 69  1  0  0  0  0
 34 70  1  0  0  0  0
 34 75  2  0  0  0  0
 35 50  1  0  0  0  0
 35 72  1  0  0  0  0
 35 76  2  0  0  0  0
 36 59  1  0  0  0  0
 36 60  1  0  0  0  0
 36 77  2  0  0  0  0
 37 62  1  0  0  0  0
 37 67  1  0  0  0  0
 37 78  2  0  0  0  0
 38 63  1  0  0  0  0
 38 73  1  0  0  0  0
 38 79  2  0  0  0  0
 39 68  1  0  0  0  0
 39 71  1  0  0  0  0
 39 80  2  0  0  0  0
 40 43  1  0  0  0  0
 41 50  1  0  0  0  0
 42 67  1  0  0  0  0
 43 45  1  0  0  0  0
 44 46  1  0  0  0  0
 44 47  1  0  0  0  0
 45 49  1  0  0  0  0
 46 51  1  0  0  0  0
 47 68  1  0  0  0  0
 48 51  1  0  0  0  0
 48 68  1  0  0  0  0
 49 72  1  0  0  0  0
 50 67  1  0  0  0  0
 51 66  1  0  0  0  0
 53 63  1  0  0  0  0
 54 64  1  0  0  0  0
 55 64  1  0  0  0  0
 56 64  1  0  0  0  0
 57 74  1  0  0  0  0
 58 61  1  0  0  0  0
 59 61  1  0  0  0  0
 60 82  1  0  0  0  0
 62 64  1  0  0  0  0
 62 73  1  0  0  0  0
 63 74  1  0  0  0  0
 65 66  1  0  0  0  0
M  CHG  1  74   1
M  ISO  4  39 100  60 101  71 100  82 101
M  END
> <Batch ID>
0126

> <Smiles>
CNC(C)C(=O)NC(C(=O)N1Cc2cc([101O:1][101CH2:1]C(=O)CCCc3cc(C)cc([100NH:0][100C:0](=O)N4CCCC(n5nc(-c6ccc(Oc7ccc(F)cc7F)cc6)c(C(N)=O)c5N)C4)c3)ccc2CC1C(=O)NC1CCCc2ccccc21)C(C)(C)C

> <Shape>
0.315

> <Color>
0.219

> <Negative vol penalty>
0.000

$$$$

  -OEChem-04052302113D

 85 93  0     1  0  0  0  0  0999 V2000
  -25.7462  -37.9534   21.3088 C   0  0  0  0  0  0  0  0  0  0  0  0
  -26.5159  -36.8357   21.0029 C   0  0  0  0  0  0  0  0  0  0  0  0
  -24.0774   -8.9764   20.0486 C   0  0  0  0  0  0  0  0  0  0  0  0
  -23.0337  -10.5172   21.5893 C   0  0  0  0  0  0  0  0  0  0  0  0
  -24.7107  -37.8525   22.2370 C   0  0  0  0  0  0  0  0  0  0  0  0
  -26.2514  -35.6166   21.6260 C   0  0  0  0  0  0  0  0  0  0  0  0
  -26.8057  -30.0321   19.1741 C   0  0  0  0  0  0  0  0  0  0  0  0
  -23.2159   -7.9659   20.4756 C   0  0  0  0  0  0  0  0  0  0  0  0
  -22.1722   -9.5067   22.0163 C   0  0  0  0  0  0  0  0  0  0  0  0
  -27.8103  -29.0686   19.2529 C   0  0  0  0  0  0  0  0  0  0  0  0
  -22.9579   -5.8602   23.1069 C   0  0  0  0  0  0  0  0  0  0  0  0
  -23.5098   -4.6058   23.3664 C   0  0  0  0  0  0  0  0  0  0  0  0
  -26.6081  -27.9694   21.0322 C   0  0  0  0  0  0  0  0  0  0  0  0
  -30.2408  -18.8029   21.1759 C   0  0  0  0  0  0  0  0  0  0  0  0
  -28.0113  -18.9613   20.2586 C   0  0  0  0  0  0  0  0  0  0  0  0
  -22.0838   -3.6291   21.6783 C   0  0  0  0  0  0  0  0  0  0  0  0
  -23.9863  -10.2521   20.6055 C   0  0  0  0  0  0  0  0  0  0  0  0
  -29.4462  -20.9048   20.2885 C   0  0  0  0  0  0  0  0  0  0  0  0
  -24.6643  -12.2060   19.1121 C   0  0  0  0  0  0  0  0  0  0  0  0
  -24.4272  -36.6293   22.8647 C   0  0  0  0  0  0  0  0  0  0  0  0
  -25.6983  -29.9776   20.0326 C   0  0  0  0  0  0  0  0  0  0  0  0
  -25.2121  -35.4996   22.5646 C   0  0  0  0  0  0  0  0  0  0  0  0
  -25.5896  -28.9320   20.9606 C   0  0  0  0  0  0  0  0  0  0  0  0
  -30.4542  -20.1514   20.8900 C   0  0  0  0  0  0  0  0  0  0  0  0
  -29.0194  -18.2079   20.8601 C   0  0  0  0  0  0  0  0  0  0  0  0
  -22.2633   -8.2311   21.4594 C   0  0  0  0  0  0  0  0  0  0  0  0
  -27.7130  -28.0387   20.1840 C   0  0  0  0  0  0  0  0  0  0  0  0
  -21.9688   -5.9991   22.1331 C   0  0  0  0  0  0  0  0  0  0  0  0
  -28.2247  -20.3098   19.9728 C   0  0  0  0  0  0  0  0  0  0  0  0
  -23.0728   -3.4902   22.6521 C   0  0  0  0  0  0  0  0  0  0  0  0
  -21.5318   -4.8836   21.4188 C   0  0  0  0  0  0  0  0  0  0  0  0
  -24.8763  -11.2962   20.1652 C   0  0  0  0  0  0  0  0  0  0  0  0
  -25.7948  -12.9859   19.0993 C   0  0  0  0  0  0  0  0  0  0  0  0
  -29.6661  -22.3298   19.9841 C   0  0  0  0  0  0  0  0  0  0  0  0
  -28.9187  -23.3343   20.4623 C   0  0  0  0  0  0  0  0  0  0  0  0
  -23.5455  -12.3347   18.2248 C   0  0  0  0  0  0  0  0  0  0  0  0
  -29.2193  -24.7459   20.0847 C   0  0  0  0  0  0  0  0  0  0  0  0
  -24.5056  -31.8840   22.2791 C   0  0  0  0  0  0  0  0  0  0  0  0
  -22.0882  -29.7210   22.2820 C   0  0  0  0  0  0  0  0  0  0  0  0
  -21.0470  -26.5389   21.6207 C   0  0  0  0  0  0  0  0  0  0  0  0
  -29.6990  -15.9482   21.7423 C   0  0  0  0  0  0  0  0  0  0  0  0
  -23.3282  -36.5804   23.8965 C   0  0  0  0  0  0  0  0  0  0  0  0
  -24.6100  -31.0094   19.9169 C   0  0  0  0  0  0  0  0  0  0  0  0
  -24.4110  -28.8169   21.8912 C   0  0  0  0  0  0  0  0  0  0  0  0
  -22.8722  -35.1632   24.2339 C   0  0  0  0  0  0  0  0  0  0  0  0
  -30.2068  -12.4312   21.5176 C   0  0  0  0  0  0  0  0  0  0  0  0
  -24.0763  -34.2555   24.4641 C   0  0  0  0  0  0  0  0  0  0  0  0
  -28.8479  -11.8973   21.0591 C   0  0  0  0  0  0  0  0  0  0  0  0
  -30.0582  -13.6042   22.4850 C   0  0  0  0  0  0  0  0  0  0  0  0
  -27.8523  -14.1688   21.5448 C   0  0  0  0  0  0  0  0  0  0  0  0
  -24.9400  -34.1538   23.2010 C   0  0  1  0  0  0  0  0  0  0  0  0
  -23.7796  -31.1473   21.1892 C   0  0  1  0  0  0  0  0  0  0  0  0
  -27.9512  -13.0283   20.5185 C   0  0  2  0  0  0  0  0  0  0  0  0
  -31.7766  -20.7533   21.2438 C   0  0  0  0  0  0  0  0  0  0  0  0
  -19.0259  -25.0582   21.7619 C   0  0  0  0  0  0  0  0  0  0  0  0
  -22.4939  -29.4585   25.2947 C   0  0  0  0  0  0  0  0  0  0  0  0
  -21.1575  -27.3427   25.2201 C   0  0  0  0  0  0  0  0  0  0  0  0
  -20.1025  -29.5060   24.5644 C   0  0  0  0  0  0  0  0  0  0  0  0
  -21.0168  -26.1051   18.6933 C   0  0  0  0  0  0  0  0  0  0  0  0
  -27.1945  -21.0441   17.9590 C   0  0  0  0  0  0  0  0  0  0  0  0
  -28.3051  -25.7912   20.6883 C   0  0  0  0  0  0  0  0  0  1  0  0
  -21.8016  -28.4390   23.0259 C   0  0  1  0  0  0  0  0  0  0  0  0
  -19.8275  -26.0100   20.8876 C   0  0  2  0  0  0  0  0  0  0  0  0
  -21.4122  -28.6896   24.5102 C   0  0  0  0  0  0  0  0  0  0  0  0
  -26.0494  -11.4799   20.7770 N   0  0  0  0  0  0  0  0  0  0  0  0
  -26.5847  -12.5140   20.1061 N   0  0  0  0  0  0  0  0  0  0  0  0
  -23.3761  -29.8536   21.7438 N   0  0  0  0  0  0  0  0  0  0  0  0
  -29.1996  -14.6385   21.9039 N   0  0  0  0  0  0  0  0  0  0  0  0
  -26.1804  -14.0224   18.3250 N   0  0  0  0  0  0  0  0  0  0  0  0
  -22.4675  -11.4518   18.3764 N   0  0  0  0  0  0  0  0  0  0  0  0
  -28.8035  -16.8376   21.1493 N   0  0  0  0  0  0  0  0  0  0  0  0
  -24.3320  -33.2545   22.2440 N   0  0  0  0  0  0  0  0  0  0  0  0
  -20.7841  -27.7365   22.2516 N   0  0  0  0  0  0  0  0  0  0  0  0
  -20.2398  -25.2813   19.6548 N   0  3  0  0  0  0  0  0  0  0  0  0
  -23.5100  -13.1961   17.3137 O   0  0  0  0  0  0  0  0  0  0  0  0
  -30.1470  -25.0371   19.3345 O   0  0  0  0  0  0  0  0  0  0  0  0
  -25.1725  -31.2555   23.0926 O   0  0  0  0  0  0  0  0  0  0  0  0
  -21.1999  -30.5702   22.1760 O   0  0  0  0  0  0  0  0  0  0  0  0
  -22.1240  -25.9470   21.6355 O   0  0  0  0  0  0  0  0  0  0  0  0
  -30.8467  -16.2511   22.0784 O   0  0  0  0  0  0  0  0  0  0  0  0
  -21.4224   -7.2453   21.8761 O   0  0  0  0  0  0  0  0  0  0  0  0
  -27.2210  -21.0212   19.3841 O   0  0  0  0  0  0  0  0  0  0  0  0
  -28.6925  -27.0973   20.2634 O   0  0  0  0  0  0  0  0  0  1  0  0
  -23.6040   -2.2859   22.9004 F   0  0  0  0  0  0  0  0  0  0  0  0
  -20.5828   -5.0109   20.4813 F   0  0  0  0  0  0  0  0  0  0  0  0
  1  2  1  0  0  0  0
  1  5  2  0  0  0  0
  2  6  2  0  0  0  0
  3  8  2  0  0  0  0
  3 17  1  0  0  0  0
  4  9  1  0  0  0  0
  4 17  2  0  0  0  0
  5 20  1  0  0  0  0
  6 22  1  0  0  0  0
  7 10  2  0  0  0  0
  7 21  1  0  0  0  0
  8 26  1  0  0  0  0
  9 26  2  0  0  0  0
 10 27  1  0  0  0  0
 11 12  2  0  0  0  0
 11 28  1  0  0  0  0
 12 30  1  0  0  0  0
 13 23  1  0  0  0  0
 13 27  2  0  0  0  0
 14 24  2  0  0  0  0
 14 25  1  0  0  0  0
 15 25  2  0  0  0  0
 15 29  1  0  0  0  0
 16 30  2  0  0  0  0
 16 31  1  0  0  0  0
 17 32  1  0  0  0  0
 18 24  1  0  0  0  0
 18 29  2  0  0  0  0
 18 34  1  0  0  0  0
 19 32  1  0  0  0  0
 19 33  2  0  0  0  0
 19 36  1  0  0  0  0
 20 22  2  0  0  0  0
 20 42  1  0  0  0  0
 21 23  2  0  0  0  0
 21 43  1  0  0  0  0
 22 51  1  0  0  0  0
 23 44  1  0  0  0  0
 24 54  1  0  0  0  0
 25 71  1  0  0  0  0
 26 81  1  0  0  0  0
 27 83  1  0  0  0  0
 28 31  2  0  0  0  0
 28 81  1  0  0  0  0
 29 82  1  0  0  0  0
 30 84  1  0  0  0  0
 31 85  1  0  0  0  0
 32 65  2  0  0  0  0
 33 66  1  0  0  0  0
 33 69  1  0  0  0  0
 34 35  2  0  0  0  0
 35 37  1  0  0  0  0
 36 70  1  0  0  0  0
 36 75  2  0  0  0  0
 37 61  1  0  0  0  0
 37 76  2  0  0  0  0
 38 52  1  0  0  0  0
 38 72  1  0  0  0  0
 38 77  2  0  0  0  0
 39 62  1  0  0  0  0
 39 67  1  0  0  0  0
 39 78  2  0  0  0  0
 40 63  1  0  0  0  0
 40 73  1  0  0  0  0
 40 79  2  0  0  0  0
 41 68  1  0  0  0  0
 41 71  1  0  0  0  0
 41 80  2  0  0  0  0
 42 45  1  0  0  0  0
 43 52  1  0  0  0  0
 44 67  1  0  0  0  0
 45 47  1  0  0  0  0
 46 48  1  0  0  0  0
 46 49  1  0  0  0  0
 47 51  1  0  0  0  0
 48 53  1  0  0  0  0
 49 68  1  0  0  0  0
 50 53  1  0  0  0  0
 50 68  1  0  0  0  0
 51 72  1  0  0  0  0
 52 67  1  0  0  0  0
 53 66  1  0  0  0  0
 55 63  1  0  0  0  0
 56 64  1  0  0  0  0
 57 64  1  0  0  0  0
 58 64  1  0  0  0  0
 59 74  1  0  0  0  0
 60 82  1  0  0  0  0
 61 83  1  0  0  0  0
 62 64  1  0  0  0  0
 62 73  1  0  0  0  0
 63 74  1  0  0  0  0
 65 66  1  0  0  0  0
M  CHG  1  74   1
M  ISO  4  41 100  61 101  71 100  83 101
M  END
> <Batch ID>
0126

> <Smiles>
CNC(C)C(=O)NC(C(=O)N1Cc2cc([101O:1][101CH2:1]C(=O)C=Cc3c(C)cc([100NH:0][100C:0](=O)N4CCCC(n5nc(-c6ccc(Oc7ccc(F)cc7F)cc6)c(C(N)=O)c5N)C4)cc3OC)ccc2CC1C(=O)NC1CCCc2ccccc21)C(C)(C)C

> <Shape>
0.352

> <Color>
0.116

> <Negative vol penalty>
0.000

$$$$

  -OEChem-04052302113D

 84 92  0     1  0  0  0  0  0999 V2000
  -29.6178  -32.4146   26.2244 C   0  0  0  0  0  0  0  0  0  0  0  0
  -29.3555  -31.3014   25.4324 C   0  0  0  0  0  0  0  0  0  0  0  0
  -24.3536  -10.3184   23.1443 C   0  0  0  0  0  0  0  0  0  0  0  0
  -24.2434  -12.0791   24.7950 C   0  0  0  0  0  0  0  0  0  0  0  0
  -28.5626  -33.1509   26.7613 C   0  0  0  0  0  0  0  0  0  0  0  0
  -28.0378  -30.9231   25.1777 C   0  0  0  0  0  0  0  0  0  0  0  0
  -27.2567  -29.7582   20.3117 C   0  0  0  0  0  0  0  0  0  0  0  0
  -23.8503   -9.4120   24.0774 C   0  0  0  0  0  0  0  0  0  0  0  0
  -23.7401  -11.1727   25.7282 C   0  0  0  0  0  0  0  0  0  0  0  0
  -27.6921  -28.5065   19.8789 C   0  0  0  0  0  0  0  0  0  0  0  0
  -20.8425   -8.6042   25.3939 C   0  0  0  0  0  0  0  0  0  0  0  0
  -19.8334   -7.7366   24.9760 C   0  0  0  0  0  0  0  0  0  0  0  0
  -27.7625  -21.5267   20.5764 C   0  0  0  0  0  0  0  0  0  0  0  0
  -25.4376  -27.6671   20.0582 C   0  0  0  0  0  0  0  0  0  0  0  0
  -30.1054  -20.0513   20.9175 C   0  0  0  0  0  0  0  0  0  0  0  0
  -21.2426   -5.8453   25.4997 C   0  0  0  0  0  0  0  0  0  0  0  0
  -24.5502  -11.6520   23.5031 C   0  0  0  0  0  0  0  0  0  0  0  0
  -28.9738  -22.1824   20.7958 C   0  0  0  0  0  0  0  0  0  0  0  0
  -24.3325  -13.3838   21.6427 C   0  0  0  0  0  0  0  0  0  0  0  0
  -27.2311  -32.7872   26.5052 C   0  0  0  0  0  0  0  0  0  0  0  0
  -25.9082  -29.9712   20.6320 C   0  0  0  0  0  0  0  0  0  0  0  0
  -26.9637  -31.6545   25.7128 C   0  0  0  0  0  0  0  0  0  0  0  0
  -24.9873  -28.9232   20.4924 C   0  0  0  0  0  0  0  0  0  0  0  0
  -27.7225  -20.1332   20.5275 C   0  0  0  0  0  0  0  0  0  0  0  0
  -28.8940  -19.3955   20.6981 C   0  0  0  0  0  0  0  0  0  0  0  0
  -23.5435   -9.8391   25.3693 C   0  0  0  0  0  0  0  0  0  0  0  0
  -26.7830  -27.4599   19.7548 C   0  0  0  0  0  0  0  0  0  0  0  0
  -22.0517   -8.0924   25.8647 C   0  0  0  0  0  0  0  0  0  0  0  0
  -20.0335   -6.3572   25.0289 C   0  0  0  0  0  0  0  0  0  0  0  0
  -30.1453  -21.4448   20.9664 C   0  0  0  0  0  0  0  0  0  0  0  0
  -22.2517   -6.7130   25.9176 C   0  0  0  0  0  0  0  0  0  0  0  0
  -25.0706  -12.5886   22.5398 C   0  0  0  0  0  0  0  0  0  0  0  0
  -25.2833  -14.0933   20.9506 C   0  0  0  0  0  0  0  0  0  0  0  0
  -28.6139  -24.3778   19.7727 C   0  0  0  0  0  0  0  0  0  0  0  0
  -29.0108  -23.6660   20.8469 C   0  0  0  0  0  0  0  0  0  0  0  0
  -22.9142  -13.4731   21.4521 C   0  0  0  0  0  0  0  0  0  0  0  0
  -24.3315  -30.7952   23.2662 C   0  0  0  0  0  0  0  0  0  0  0  0
  -21.7921  -30.8842   21.2498 C   0  0  0  0  0  0  0  0  0  0  0  0
  -20.3695  -29.8257   18.3339 C   0  0  0  0  0  0  0  0  0  0  0  0
  -29.9581  -17.1145   20.8036 C   0  0  0  0  0  0  0  0  0  0  0  0
  -26.1242  -33.5861   27.1463 C   0  0  0  0  0  0  0  0  0  0  0  0
  -25.4498  -31.3346   21.0720 C   0  0  0  0  0  0  0  0  0  0  0  0
  -23.5251  -29.1055   20.8043 C   0  0  0  0  0  0  0  0  0  0  0  0
  -24.7538  -33.3391   26.5207 C   0  0  0  0  0  0  0  0  0  0  0  0
  -30.3157  -13.5721   20.7924 C   0  0  0  0  0  0  0  0  0  0  0  0
  -24.5110  -31.8440   26.3403 C   0  0  0  0  0  0  0  0  0  0  0  0
  -28.9222  -13.0658   21.1722 C   0  0  0  0  0  0  0  0  0  0  0  0
  -30.6773  -14.8533   21.5417 C   0  0  0  0  0  0  0  0  0  0  0  0
  -28.2974  -15.4294   21.8126 C   0  0  0  0  0  0  0  0  0  0  0  0
  -25.5476  -31.2271   25.3935 C   0  0  1  0  0  0  0  0  0  0  0  0
  -24.1459  -31.3000   21.8632 C   0  0  1  0  0  0  0  0  0  0  0  0
  -27.8624  -14.1764   21.0350 C   0  0  2  0  0  0  0  0  0  0  0  0
  -29.4868  -24.2718   22.1391 C   0  0  0  0  0  0  0  0  0  0  0  0
  -26.2711  -18.9529   18.8582 C   0  0  0  0  0  0  0  0  0  0  0  0
  -18.2708  -30.0392   16.9748 C   0  0  0  0  0  0  0  0  0  0  0  0
  -20.3567  -29.0020   23.1751 C   0  0  0  0  0  0  0  0  0  0  0  0
  -18.7105  -28.5077   21.3546 C   0  0  0  0  0  0  0  0  0  0  0  0
  -18.9266  -30.8291   22.2418 C   0  0  0  0  0  0  0  0  0  0  0  0
  -21.8328  -31.0005   16.0454 C   0  0  0  0  0  0  0  0  0  0  0  0
  -26.4111  -19.4566   20.2911 C   0  0  0  0  0  0  0  0  0  0  0  0
  -28.5471  -25.8683   19.6501 C   0  0  0  0  0  0  0  0  0  1  0  0
  -20.7623  -29.8840   20.7827 C   0  0  1  0  0  0  0  0  0  0  0  0
  -19.6689  -30.5845   17.2213 C   0  0  2  0  0  0  0  0  0  0  0  0
  -19.7169  -29.5514   21.8844 C   0  0  0  0  0  0  0  0  0  0  0  0
  -26.3886  -12.7750   22.4297 N   0  0  0  0  0  0  0  0  0  0  0  0
  -26.4862  -13.6953   21.4552 N   0  0  0  0  0  0  0  0  0  0  0  0
  -23.1269  -30.4553   21.2368 N   0  0  0  0  0  0  0  0  0  0  0  0
  -29.6300  -15.8613   21.3627 N   0  0  0  0  0  0  0  0  0  0  0  0
  -25.1993  -15.0126   19.9655 N   0  0  0  0  0  0  0  0  0  0  0  0
  -22.0816  -12.6742   22.2476 N   0  0  0  0  0  0  0  0  0  0  0  0
  -28.8748  -17.9795   20.6517 N   0  0  0  0  0  0  0  0  0  0  0  0
  -25.2230  -31.5369   24.0176 N   0  0  0  0  0  0  0  0  0  0  0  0
  -20.1871  -30.4317   19.5590 N   0  0  0  0  0  0  0  0  0  0  0  0
  -20.4450  -30.4786   15.9535 N   0  3  0  0  0  0  0  0  0  0  0  0
  -22.4013  -14.2266   20.5903 O   0  0  0  0  0  0  0  0  0  0  0  0
  -23.7107  -29.8069   23.6398 O   0  0  0  0  0  0  0  0  0  0  0  0
  -21.4264  -32.0071   21.6061 O   0  0  0  0  0  0  0  0  0  0  0  0
  -21.0111  -28.7961   18.1365 O   0  0  0  0  0  0  0  0  0  0  0  0
  -31.1100  -17.3895   20.4581 O   0  0  0  0  0  0  0  0  0  0  0  0
  -23.0522   -8.9550   26.2801 O   0  0  0  0  0  0  0  0  0  0  0  0
  -27.2054  -26.2369   19.3332 O   0  0  0  0  0  0  0  0  0  1  0  0
  -19.0638   -5.5242   24.6289 F   0  0  0  0  0  0  0  0  0  0  0  0
  -31.3174  -22.0610   21.1787 F   0  0  0  0  0  0  0  0  0  0  0  0
  -23.4108   -6.2153   26.3701 F   0  0  0  0  0  0  0  0  0  0  0  0
  1  2  1  0  0  0  0
  1  5  2  0  0  0  0
  2  6  2  0  0  0  0
  3  8  2  0  0  0  0
  3 17  1  0  0  0  0
  4  9  1  0  0  0  0
  4 17  2  0  0  0  0
  5 20  1  0  0  0  0
  6 22  1  0  0  0  0
  7 10  2  0  0  0  0
  7 21  1  0  0  0  0
  8 26  1  0  0  0  0
  9 26  2  0  0  0  0
 10 27  1  0  0  0  0
 11 12  2  0  0  0  0
 11 28  1  0  0  0  0
 12 29  1  0  0  0  0
 13 18  2  0  0  0  0
 13 24  1  0  0  0  0
 14 23  1  0  0  0  0
 14 27  2  0  0  0  0
 15 25  1  0  0  0  0
 15 30  2  0  0  0  0
 16 29  2  0  0  0  0
 16 31  1  0  0  0  0
 17 32  1  0  0  0  0
 18 30  1  0  0  0  0
 18 35  1  0  0  0  0
 19 32  1  0  0  0  0
 19 33  2  0  0  0  0
 19 36  1  0  0  0  0
 20 22  2  0  0  0  0
 20 41  1  0  0  0  0
 21 23  2  0  0  0  0
 21 42  1  0  0  0  0
 22 50  1  0  0  0  0
 23 43  1  0  0  0  0
 24 25  2  0  0  0  0
 24 60  1  0  0  0  0
 25 71  1  0  0  0  0
 26 80  1  0  0  0  0
 27 81  1  0  0  0  0
 28 31  2  0  0  0  0
 28 80  1  0  0  0  0
 29 82  1  0  0  0  0
 30 83  1  0  0  0  0
 31 84  1  0  0  0  0
 32 65  2  0  0  0  0
 33 66  1  0  0  0  0
 33 69  1  0  0  0  0
 34 35  2  0  0  0  0
 34 61  1  0  0  0  0
 35 53  1  0  0  0  0
 36 70  1  0  0  0  0
 36 75  2  0  0  0  0
 37 51  1  0  0  0  0
 37 72  1  0  0  0  0
 37 76  2  0  0  0  0
 38 62  1  0  0  0  0
 38 67  1  0  0  0  0
 38 77  2  0  0  0  0
 39 63  1  0  0  0  0
 39 73  1  0  0  0  0
 39 78  2  0  0  0  0
 40 68  1  0  0  0  0
 40 71  1  0  0  0  0
 40 79  2  0  0  0  0
 41 44  1  0  0  0  0
 42 51  1  0  0  0  0
 43 67  1  0  0  0  0
 44 46  1  0  0  0  0
 45 47  1  0  0  0  0
 45 48  1  0  0  0  0
 46 50  1  0  0  0  0
 47 52  1  0  0  0  0
 48 68  1  0  0  0  0
 49 52  1  0  0  0  0
 49 68  1  0  0  0  0
 50 72  1  0  0  0  0
 51 67  1  0  0  0  0
 52 66  1  0  0  0  0
 54 60  1  0  0  0  0
 55 63  1  0  0  0  0
 56 64  1  0  0  0  0
 57 64  1  0  0  0  0
 58 64  1  0  0  0  0
 59 74  1  0  0  0  0
 61 81  1  0  0  0  0
 62 64  1  0  0  0  0
 62 73  1  0  0  0  0
 63 74  1  0  0  0  0
 65 66  1  0  0  0  0
M  CHG  1  74   1
M  ISO  4  40 100  61 101  71 100  81 101
M  END
> <Batch ID>
0126

> <Smiles>
CCc1cc(C(C)=C[101CH2:1][101O:1]c2ccc3c(c2)CN(C(=O)C(NC(=O)C(C)NC)C(C)(C)C)C(C(=O)NC2CCCc4ccccc42)C3)c(F)cc1[100NH:0][100C:0](=O)N1CCCC(n2nc(-c3ccc(Oc4ccc(F)cc4F)cc3)c(C(N)=O)c2N)C1

> <Shape>
0.305

> <Color>
0.121

> <Negative vol penalty>
0.000

$$$$

  -OEChem-04052302113D

 84 92  0     1  0  0  0  0  0999 V2000
  -26.4638  -35.1705   23.7719 C   0  0  0  0  0  0  0  0  0  0  0  0
  -26.9278  -33.8827   23.5237 C   0  0  0  0  0  0  0  0  0  0  0  0
  -25.3083  -10.0579   23.0655 C   0  0  0  0  0  0  0  0  0  0  0  0
  -23.9882  -11.4179   21.5673 C   0  0  0  0  0  0  0  0  0  0  0  0
  -25.1306  -35.3739   24.1258 C   0  0  0  0  0  0  0  0  0  0  0  0
  -26.0590  -32.7972   23.6303 C   0  0  0  0  0  0  0  0  0  0  0  0
  -26.5246  -29.5500   19.7724 C   0  0  0  0  0  0  0  0  0  0  0  0
  -24.1717   -9.3212   23.3984 C   0  0  0  0  0  0  0  0  0  0  0  0
  -22.8515  -10.6812   21.9002 C   0  0  0  0  0  0  0  0  0  0  0  0
  -27.6098  -28.6752   19.8039 C   0  0  0  0  0  0  0  0  0  0  0  0
  -22.3299   -6.8324   22.0395 C   0  0  0  0  0  0  0  0  0  0  0  0
  -22.4470   -5.4431   22.0811 C   0  0  0  0  0  0  0  0  0  0  0  0
  -29.9639  -19.9252   19.3578 C   0  0  0  0  0  0  0  0  0  0  0  0
  -26.1664  -26.9235   20.6205 C   0  0  0  0  0  0  0  0  0  0  0  0
  -30.2244  -18.9840   16.7446 C   0  0  0  0  0  0  0  0  0  0  0  0
  -21.8049   -5.4587   24.4102 C   0  0  0  0  0  0  0  0  0  0  0  0
  -25.2166  -11.1063   22.1500 C   0  0  0  0  0  0  0  0  0  0  0  0
  -30.1623  -20.8237   18.3095 C   0  0  0  0  0  0  0  0  0  0  0  0
  -27.3000  -11.6041   20.7646 C   0  0  0  0  0  0  0  0  0  0  0  0
  -24.2427  -34.2913   24.2273 C   0  0  0  0  0  0  0  0  0  0  0  0
  -25.2522  -29.1203   20.1758 C   0  0  0  0  0  0  0  0  0  0  0  0
  -24.7130  -32.9861   23.9872 C   0  0  0  0  0  0  0  0  0  0  0  0
  -25.0662  -27.7940   20.5908 C   0  0  0  0  0  0  0  0  0  0  0  0
  -30.2925  -20.3531   17.0029 C   0  0  0  0  0  0  0  0  0  0  0  0
  -30.0260  -18.0855   17.7929 C   0  0  0  0  0  0  0  0  0  0  0  0
  -29.8958  -18.5561   19.0995 C   0  0  0  0  0  0  0  0  0  0  0  0
  -22.9432   -9.6329   22.8158 C   0  0  0  0  0  0  0  0  0  0  0  0
  -27.4314  -27.3626   20.2307 C   0  0  0  0  0  0  0  0  0  0  0  0
  -21.9504   -7.5349   23.1833 C   0  0  0  0  0  0  0  0  0  0  0  0
  -22.1845   -4.7562   23.2663 C   0  0  0  0  0  0  0  0  0  0  0  0
  -21.6879   -6.8480   24.3686 C   0  0  0  0  0  0  0  0  0  0  0  0
  -26.3904  -11.8680   21.8061 C   0  0  0  0  0  0  0  0  0  0  0  0
  -28.2299  -12.6107   20.8577 C   0  0  0  0  0  0  0  0  0  0  0  0
  -30.2306  -22.2638   18.6144 C   0  0  0  0  0  0  0  0  0  0  0  0
  -29.2367  -22.9725   19.1679 C   0  0  0  0  0  0  0  0  0  0  0  0
  -27.3041  -10.5439   19.7994 C   0  0  0  0  0  0  0  0  0  0  0  0
  -29.4032  -24.4320   19.4278 C   0  0  0  0  0  0  0  0  0  0  0  0
  -23.2271  -29.9582   22.4781 C   0  0  0  0  0  0  0  0  0  0  0  0
  -21.2616  -27.8592   20.9772 C   0  0  0  0  0  0  0  0  0  0  0  0
  -20.9398  -25.1371   18.9440 C   0  0  0  0  0  0  0  0  0  0  0  0
  -29.5460  -17.9794   21.5267 C   0  0  0  0  0  0  0  0  0  0  0  0
  -22.8220  -34.5558   24.6590 C   0  0  0  0  0  0  0  0  0  0  0  0
  -24.0865  -30.0687   20.1106 C   0  0  0  0  0  0  0  0  0  0  0  0
  -23.7163  -27.2776   21.0148 C   0  0  0  0  0  0  0  0  0  0  0  0
  -21.8751  -33.3902   24.3847 C   0  0  0  0  0  0  0  0  0  0  0  0
  -28.9936  -16.0653   24.4777 C   0  0  0  0  0  0  0  0  0  0  0  0
  -22.5013  -32.0755   24.8387 C   0  0  0  0  0  0  0  0  0  0  0  0
  -28.3419  -14.7809   23.9600 C   0  0  0  0  0  0  0  0  0  0  0  0
  -28.5351  -17.2912   23.6899 C   0  0  0  0  0  0  0  0  0  0  0  0
  -28.0397  -15.9031   21.7158 C   0  0  0  0  0  0  0  0  0  0  0  0
  -23.7951  -31.7856   24.0683 C   0  0  1  0  0  0  0  0  0  0  0  0
  -22.9385  -29.6687   21.0322 C   0  0  1  0  0  0  0  0  0  0  0  0
  -28.5205  -14.6329   22.4363 C   0  0  2  0  0  0  0  0  0  0  0  0
  -30.5069  -21.2869   15.8551 C   0  0  0  0  0  0  0  0  0  0  0  0
  -29.9563  -16.6245   17.4870 C   0  0  0  0  0  0  0  0  0  0  0  0
  -19.2088  -23.6306   17.9285 C   0  0  0  0  0  0  0  0  0  0  0  0
  -20.8927  -26.4720   23.6697 C   0  0  0  0  0  0  0  0  0  0  0  0
  -19.9691  -24.4932   22.4450 C   0  0  0  0  0  0  0  0  0  0  0  0
  -18.8019  -26.6940   22.3154 C   0  0  0  0  0  0  0  0  0  0  0  0
  -21.7518  -25.8660   16.1930 C   0  0  0  0  0  0  0  0  0  0  0  0
  -28.2111  -25.1226   20.0560 C   0  0  0  0  0  0  0  0  0  1  0  0
  -20.9915  -26.3783   21.0914 C   0  0  1  0  0  0  0  0  0  0  0  0
  -20.0548  -24.8798   17.7378 C   0  0  2  0  0  0  0  0  0  0  0  0
  -20.1898  -26.0193   22.3743 C   0  0  0  0  0  0  0  0  0  0  0  0
  -26.7132  -12.9568   22.5092 N   0  0  0  0  0  0  0  0  0  0  0  0
  -27.8362  -13.3859   21.9085 N   0  0  0  0  0  0  0  0  0  0  0  0
  -22.6090  -28.2449   20.9394 N   0  0  0  0  0  0  0  0  0  0  0  0
  -28.7385  -17.0804   22.2550 N   0  0  0  0  0  0  0  0  0  0  0  0
  -29.3378  -12.8994   20.1424 N   0  0  0  0  0  0  0  0  0  0  0  0
  -26.2745   -9.5942   19.8457 N   0  0  0  0  0  0  0  0  0  0  0  0
  -29.6933  -17.6591   20.1775 N   0  0  0  0  0  0  0  0  0  0  0  0
  -23.4936  -31.2880   22.7432 N   0  0  0  0  0  0  0  0  0  0  0  0
  -20.3367  -25.9857   19.8482 N   0  0  0  0  0  0  0  0  0  0  0  0
  -20.8862  -24.7020   16.5138 N   0  3  0  0  0  0  0  0  0  0  0  0
  -28.2035  -10.4325   18.9321 O   0  0  0  0  0  0  0  0  0  0  0  0
  -30.4391  -25.0301   19.1499 O   0  0  0  0  0  0  0  0  0  0  0  0
  -23.2079  -29.0433   23.2931 O   0  0  0  0  0  0  0  0  0  0  0  0
  -20.3120  -28.6441   20.9162 O   0  0  0  0  0  0  0  0  0  0  0  0
  -22.0530  -24.6326   19.0732 O   0  0  0  0  0  0  0  0  0  0  0  0
  -30.0907  -18.9458   22.0665 O   0  0  0  0  0  0  0  0  0  0  0  0
  -21.8339   -8.9141   23.1402 O   0  0  0  0  0  0  0  0  0  0  0  0
  -28.4890  -26.5069   20.2630 O   0  0  0  0  0  0  0  0  0  1  0  0
  -22.2954   -3.4220   23.3057 F   0  0  0  0  0  0  0  0  0  0  0  0
  -21.3218   -7.5173   25.4703 F   0  0  0  0  0  0  0  0  0  0  0  0
  1  2  1  0  0  0  0
  1  5  2  0  0  0  0
  2  6  2  0  0  0  0
  3  8  2  0  0  0  0
  3 17  1  0  0  0  0
  4  9  1  0  0  0  0
  4 17  2  0  0  0  0
  5 20  1  0  0  0  0
  6 22  1  0  0  0  0
  7 10  2  0  0  0  0
  7 21  1  0  0  0  0
  8 27  1  0  0  0  0
  9 27  2  0  0  0  0
 10 28  1  0  0  0  0
 11 12  2  0  0  0  0
 11 29  1  0  0  0  0
 12 30  1  0  0  0  0
 13 18  1  0  0  0  0
 13 26  2  0  0  0  0
 14 23  1  0  0  0  0
 14 28  2  0  0  0  0
 15 24  1  0  0  0  0
 15 25  2  0  0  0  0
 16 30  2  0  0  0  0
 16 31  1  0  0  0  0
 17 32  1  0  0  0  0
 18 24  2  0  0  0  0
 18 34  1  0  0  0  0
 19 32  1  0  0  0  0
 19 33  2  0  0  0  0
 19 36  1  0  0  0  0
 20 22  2  0  0  0  0
 20 42  1  0  0  0  0
 21 23  2  0  0  0  0
 21 43  1  0  0  0  0
 22 51  1  0  0  0  0
 23 44  1  0  0  0  0
 24 54  1  0  0  0  0
 25 26  1  0  0  0  0
 25 55  1  0  0  0  0
 26 71  1  0  0  0  0
 27 81  1  0  0  0  0
 28 82  1  0  0  0  0
 29 31  2  0  0  0  0
 29 81  1  0  0  0  0
 30 83  1  0  0  0  0
 31 84  1  0  0  0  0
 32 65  2  0  0  0  0
 33 66  1  0  0  0  0
 33 69  1  0  0  0  0
 34 35  2  0  0  0  0
 35 37  1  0  0  0  0
 36 70  1  0  0  0  0
 36 75  2  0  0  0  0
 37 61  1  0  0  0  0
 37 76  2  0  0  0  0
 38 52  1  0  0  0  0
 38 72  1  0  0  0  0
 38 77  2  0  0  0  0
 39 62  1  0  0  0  0
 39 67  1  0  0  0  0
 39 78  2  0  0  0  0
 40 63  1  0  0  0  0
 40 73  1  0  0  0  0
 40 79  2  0  0  0  0
 41 68  1  0  0  0  0
 41 71  1  0  0  0  0
 41 80  2  0  0  0  0
 42 45  1  0  0  0  0
 43 52  1  0  0  0  0
 44 67  1  0  0  0  0
 45 47  1  0  0  0  0
 46 48  1  0  0  0  0
 46 49  1  0  0  0  0
 47 51  1  0  0  0  0
 48 53  1  0  0  0  0
 49 68  1  0  0  0  0
 50 53  1  0  0  0  0
 50 68  1  0  0  0  0
 51 72  1  0  0  0  0
 52 67  1  0  0  0  0
 53 66  1  0  0  0  0
 56 63  1  0  0  0  0
 57 64  1  0  0  0  0
 58 64  1  0  0  0  0
 59 64  1  0  0  0  0
 60 74  1  0  0  0  0
 61 82  1  0  0  0  0
 62 64  1  0  0  0  0
 62 73  1  0  0  0  0
 63 74  1  0  0  0  0
 65 66  1  0  0  0  0
M  CHG  1  74   1
M  ISO  4  41 100  61 101  71 100  82 101
M  END
> <Batch ID>
0126

> <Smiles>
CNC(C)C(=O)NC(C(=O)N1Cc2cc([101O:1][101CH2:1]C(=O)C=Cc3cc([100NH:0][100C:0](=O)N4CCCC(n5nc(-c6ccc(Oc7ccc(F)cc7F)cc6)c(C(N)=O)c5N)C4)c(C)cc3C)ccc2CC1C(=O)NC1CCCc2ccccc21)C(C)(C)C

> <Shape>
0.312

> <Color>
0.075

> <Negative vol penalty>
0.000

$$$$

  -OEChem-04052302113D

 81 89  0     1  0  0  0  0  0999 V2000
  -29.6792  -33.5146   15.4940 C   0  0  0  0  0  0  0  0  0  0  0  0
  -30.3947  -32.4991   16.1202 C   0  0  0  0  0  0  0  0  0  0  0  0
  -23.0714   -9.8696   19.9406 C   0  0  0  0  0  0  0  0  0  0  0  0
  -23.8335   -9.8719   22.2333 C   0  0  0  0  0  0  0  0  0  0  0  0
  -28.3646  -33.7778   15.8768 C   0  0  0  0  0  0  0  0  0  0  0  0
  -29.7964  -31.7468   17.1304 C   0  0  0  0  0  0  0  0  0  0  0  0
  -30.6928  -25.8063   18.3191 C   0  0  0  0  0  0  0  0  0  0  0  0
  -22.3257   -8.7175   20.1896 C   0  0  0  0  0  0  0  0  0  0  0  0
  -23.0877   -8.7197   22.4823 C   0  0  0  0  0  0  0  0  0  0  0  0
  -31.4935  -25.1465   19.2504 C   0  0  0  0  0  0  0  0  0  0  0  0
  -19.8587   -7.9269   23.0867 C   0  0  0  0  0  0  0  0  0  0  0  0
  -19.1028   -7.8866   24.2582 C   0  0  0  0  0  0  0  0  0  0  0  0
  -29.6055  -24.9734   20.7420 C   0  0  0  0  0  0  0  0  0  0  0  0
  -31.8079  -17.5364   21.7105 C   0  0  0  0  0  0  0  0  0  0  0  0
  -20.3413   -5.9459   24.9907 C   0  0  0  0  0  0  0  0  0  0  0  0
  -23.8254  -10.4468   20.9624 C   0  0  0  0  0  0  0  0  0  0  0  0
  -24.1717  -12.9715   20.8457 C   0  0  0  0  0  0  0  0  0  0  0  0
  -27.7466  -33.0219   16.8854 C   0  0  0  0  0  0  0  0  0  0  0  0
  -29.3428  -26.0647   18.5973 C   0  0  0  0  0  0  0  0  0  0  0  0
  -28.4727  -32.0009   17.5279 C   0  0  0  0  0  0  0  0  0  0  0  0
  -28.7892  -25.6344   19.8115 C   0  0  0  0  0  0  0  0  0  0  0  0
  -31.8985  -18.7945   22.3731 C   0  0  0  0  0  0  0  0  0  0  0  0
  -22.3338   -8.1425   21.4604 C   0  0  0  0  0  0  0  0  0  0  0  0
  -30.9506  -24.7325   20.4632 C   0  0  0  0  0  0  0  0  0  0  0  0
  -20.8559   -6.9766   22.8670 C   0  0  0  0  0  0  0  0  0  0  0  0
  -19.3441   -6.8961   25.2102 C   0  0  0  0  0  0  0  0  0  0  0  0
  -21.0972   -5.9861   23.8191 C   0  0  0  0  0  0  0  0  0  0  0  0
  -24.5964  -11.6367   20.7057 C   0  0  0  0  0  0  0  0  0  0  0  0
  -30.7521  -19.0929   23.0761 C   0  0  0  0  0  0  0  0  0  0  0  0
  -25.2649  -13.7195   20.4825 C   0  0  0  0  0  0  0  0  0  0  0  0
  -30.5955  -16.9209   21.9326 C   0  0  0  0  0  0  0  0  0  0  0  0
  -32.9124  -20.8567   21.3867 C   0  0  0  0  0  0  0  0  0  0  0  0
  -33.0183  -22.1356   21.7770 C   0  0  0  0  0  0  0  0  0  0  0  0
  -22.9025  -13.4890   21.2666 C   0  0  0  0  0  0  0  0  0  0  0  0
  -27.5790  -28.6910   18.9057 C   0  0  0  0  0  0  0  0  0  0  0  0
  -25.1430  -26.5598   19.1207 C   0  0  0  0  0  0  0  0  0  0  0  0
  -24.1260  -23.3872   19.8604 C   0  0  0  0  0  0  0  0  0  0  0  0
  -30.7331  -14.7548   20.6536 C   0  0  0  0  0  0  0  0  0  0  0  0
  -26.3393  -33.3745   17.2977 C   0  0  0  0  0  0  0  0  0  0  0  0
  -28.4858  -26.7538   17.5711 C   0  0  0  0  0  0  0  0  0  0  0  0
  -27.3405  -25.8695   20.1501 C   0  0  0  0  0  0  0  0  0  0  0  0
  -25.6538  -32.2847   18.1179 C   0  0  0  0  0  0  0  0  0  0  0  0
  -29.6121  -12.3466   18.2828 C   0  0  0  0  0  0  0  0  0  0  0  0
  -26.5862  -31.7737   19.2117 C   0  0  0  0  0  0  0  0  0  0  0  0
  -28.1723  -12.0571   18.7133 C   0  0  0  0  0  0  0  0  0  0  0  0
  -30.5287  -12.5719   19.4839 C   0  0  0  0  0  0  0  0  0  0  0  0
  -28.6244  -13.2978   20.8681 C   0  0  0  0  0  0  0  0  0  0  0  0
  -27.8500  -31.1467   18.6107 C   0  0  1  0  0  0  0  0  0  0  0  0
  -27.2526  -27.4205   18.1729 C   0  0  1  0  0  0  0  0  0  0  0  0
  -27.6502  -13.1281   19.6909 C   0  0  2  0  0  0  0  0  0  0  0  0
  -30.4466  -20.2909   23.8906 C   0  0  0  0  0  0  0  0  0  0  0  0
  -22.0685  -21.9552   19.9785 C   0  0  0  0  0  0  0  0  0  0  0  0
  -24.3482  -27.9215   21.7330 C   0  0  0  0  0  0  0  0  0  0  0  0
  -22.9408  -25.9208   22.2666 C   0  0  0  0  0  0  0  0  0  0  0  0
  -22.4293  -27.3022   20.2535 C   0  0  0  0  0  0  0  0  0  0  0  0
  -25.1662  -21.5210   17.8124 C   0  0  0  0  0  0  0  0  0  0  0  0
  -33.1130  -19.6862   22.3050 C   0  0  0  0  0  0  0  0  0  0  0  0
  -32.8062  -23.3008   20.8669 C   0  0  0  0  0  0  0  0  0  1  0  0
  -24.4723  -25.8129   20.2483 C   0  0  1  0  0  0  0  0  0  0  0  0
  -23.2303  -22.4163   19.1123 C   0  0  2  0  0  0  0  0  0  0  0  0
  -23.5755  -26.7365   21.1201 C   0  0  0  0  0  0  0  0  0  0  0  0
  -25.8607  -11.5391   20.2861 N   0  0  0  0  0  0  0  0  0  0  0  0
  -26.2398  -12.8222   20.1592 N   0  0  0  0  0  0  0  0  0  0  0  0
  -26.5450  -26.5529   19.1168 N   0  0  0  0  0  0  0  0  0  0  0  0
  -29.9725  -13.6025   20.3634 N   0  0  0  0  0  0  0  0  0  0  0  0
  -25.4776  -15.0507   20.4112 N   0  0  0  0  0  0  0  0  0  0  0  0
  -21.8893  -12.5812   21.6035 N   0  0  0  0  0  0  0  0  0  0  0  0
  -30.0882  -15.6798   21.4741 N   0  0  0  0  0  0  0  0  0  0  0  0
  -27.5660  -29.8195   18.1083 N   0  0  0  0  0  0  0  0  0  0  0  0
  -23.7614  -24.6974   19.6330 N   0  0  0  0  0  0  0  0  0  0  0  0
  -24.0064  -21.2164   18.6894 N   0  3  0  0  0  0  0  0  0  0  0  0
  -22.6686  -14.7200   21.3259 O   0  0  0  0  0  0  0  0  0  0  0  0
  -27.8230  -28.6507   20.1059 O   0  0  0  0  0  0  0  0  0  0  0  0
  -24.4484  -27.1223   18.2706 O   0  0  0  0  0  0  0  0  0  0  0  0
  -25.0537  -23.0199   20.5780 O   0  0  0  0  0  0  0  0  0  0  0  0
  -31.8621  -14.9222   20.1852 O   0  0  0  0  0  0  0  0  0  0  0  0
  -21.6061   -7.0184   21.7038 O   0  0  0  0  0  0  0  0  0  0  0  0
  -31.7302  -24.0888   21.3743 O   0  0  0  0  0  0  0  0  0  1  0  0
  -18.6191   -6.8585   26.3359 F   0  0  0  0  0  0  0  0  0  0  0  0
  -22.0547   -5.0712   23.6142 F   0  0  0  0  0  0  0  0  0  0  0  0
  -29.5730  -17.8589   22.9360 S   0  0  0  0  0  0  0  0  0  0  0  0
  1  2  1  0  0  0  0
  1  5  2  0  0  0  0
  2  6  2  0  0  0  0
  3  8  2  0  0  0  0
  3 16  1  0  0  0  0
  4  9  1  0  0  0  0
  4 16  2  0  0  0  0
  5 18  1  0  0  0  0
  6 20  1  0  0  0  0
  7 10  2  0  0  0  0
  7 19  1  0  0  0  0
  8 23  1  0  0  0  0
  9 23  2  0  0  0  0
 10 24  1  0  0  0  0
 11 12  2  0  0  0  0
 11 25  1  0  0  0  0
 12 26  1  0  0  0  0
 13 21  1  0  0  0  0
 13 24  2  0  0  0  0
 14 22  1  0  0  0  0
 14 31  2  0  0  0  0
 15 26  2  0  0  0  0
 15 27  1  0  0  0  0
 16 28  1  0  0  0  0
 17 28  1  0  0  0  0
 17 30  2  0  0  0  0
 17 34  1  0  0  0  0
 18 20  2  0  0  0  0
 18 39  1  0  0  0  0
 19 21  2  0  0  0  0
 19 40  1  0  0  0  0
 20 48  1  0  0  0  0
 21 41  1  0  0  0  0
 22 29  2  0  0  0  0
 22 57  1  0  0  0  0
 23 77  1  0  0  0  0
 24 78  1  0  0  0  0
 25 27  2  0  0  0  0
 25 77  1  0  0  0  0
 26 79  1  0  0  0  0
 27 80  1  0  0  0  0
 28 62  2  0  0  0  0
 29 51  1  0  0  0  0
 29 81  1  0  0  0  0
 30 63  1  0  0  0  0
 30 66  1  0  0  0  0
 31 68  1  0  0  0  0
 31 81  1  0  0  0  0
 32 33  2  0  0  0  0
 32 57  1  0  0  0  0
 33 58  1  0  0  0  0
 34 67  1  0  0  0  0
 34 72  2  0  0  0  0
 35 49  1  0  0  0  0
 35 69  1  0  0  0  0
 35 73  2  0  0  0  0
 36 59  1  0  0  0  0
 36 64  1  0  0  0  0
 36 74  2  0  0  0  0
 37 60  1  0  0  0  0
 37 70  1  0  0  0  0
 37 75  2  0  0  0  0
 38 65  1  0  0  0  0
 38 68  1  0  0  0  0
 38 76  2  0  0  0  0
 39 42  1  0  0  0  0
 40 49  1  0  0  0  0
 41 64  1  0  0  0  0
 42 44  1  0  0  0  0
 43 45  1  0  0  0  0
 43 46  1  0  0  0  0
 44 48  1  0  0  0  0
 45 50  1  0  0  0  0
 46 65  1  0  0  0  0
 47 50  1  0  0  0  0
 47 65  1  0  0  0  0
 48 69  1  0  0  0  0
 49 64  1  0  0  0  0
 50 63  1  0  0  0  0
 52 60  1  0  0  0  0
 53 61  1  0  0  0  0
 54 61  1  0  0  0  0
 55 61  1  0  0  0  0
 56 71  1  0  0  0  0
 58 78  1  0  0  0  0
 59 61  1  0  0  0  0
 59 70  1  0  0  0  0
 60 71  1  0  0  0  0
 62 63  1  0  0  0  0
M  CHG  1  71   1
M  ISO  4  38 100  58 101  68 100  78 101
M  END
> <Batch ID>
0126

> <Smiles>
CNC(C)C(=O)NC(C(=O)N1Cc2cc([101O:1][101CH2:1]C=CCc3cc([100NH:0][100C:0](=O)N4CCCC(n5nc(-c6ccc(Oc7ccc(F)cc7F)cc6)c(C(N)=O)c5N)C4)sc3C)ccc2CC1C(=O)NC1CCCc2ccccc21)C(C)(C)C

> <Shape>
0.242

> <Color>
0.201

> <Negative vol penalty>
0.000

$$$$

  -OEChem-04052302113D

 87 95  0     1  0  0  0  0  0999 V2000
  -29.1232  -24.1525   17.4407 C   0  0  0  0  0  0  0  0  0  0  0  0
  -27.9359  -24.2520   18.1590 C   0  0  0  0  0  0  0  0  0  0  0  0
  -24.8585  -12.0741   20.8305 C   0  0  0  0  0  0  0  0  0  0  0  0
  -23.0372  -13.5095   21.5085 C   0  0  0  0  0  0  0  0  0  0  0  0
  -25.6341  -23.3579   23.4291 C   0  0  0  0  0  0  0  0  0  0  0  0
  -30.2421  -24.8816   17.8411 C   0  0  0  0  0  0  0  0  0  0  0  0
  -27.8673  -25.0801   19.2789 C   0  0  0  0  0  0  0  0  0  0  0  0
  -23.6466  -27.8770   19.3709 C   0  0  0  0  0  0  0  0  0  0  0  0
  -26.1759  -22.3843   22.5900 C   0  0  0  0  0  0  0  0  0  0  0  0
  -24.4255  -11.0998   21.7298 C   0  0  0  0  0  0  0  0  0  0  0  0
  -22.6041  -12.5351   22.4079 C   0  0  0  0  0  0  0  0  0  0  0  0
  -22.4722  -27.2442   19.7757 C   0  0  0  0  0  0  0  0  0  0  0  0
  -22.0160   -8.7316   21.8674 C   0  0  0  0  0  0  0  0  0  0  0  0
  -21.9654   -7.4119   21.4186 C   0  0  0  0  0  0  0  0  0  0  0  0
  -22.7171  -28.2087   21.9732 C   0  0  0  0  0  0  0  0  0  0  0  0
  -23.9545  -21.5697   22.1010 C   0  0  0  0  0  0  0  0  0  0  0  0
  -23.5361   -6.7672   23.1374 C   0  0  0  0  0  0  0  0  0  0  0  0
  -24.1644  -13.2790   20.7199 C   0  0  0  0  0  0  0  0  0  0  0  0
  -24.2525  -23.4374   23.6042 C   0  0  0  0  0  0  0  0  0  0  0  0
  -24.2258  -14.4329   18.4456 C   0  0  0  0  0  0  0  0  0  0  0  0
  -30.1843  -25.7264   18.9607 C   0  0  0  0  0  0  0  0  0  0  0  0
  -24.3722  -28.6730   20.2689 C   0  0  0  0  0  0  0  0  0  0  0  0
  -28.9868  -25.8202   19.6954 C   0  0  0  0  0  0  0  0  0  0  0  0
  -23.8991  -28.8525   21.5766 C   0  0  0  0  0  0  0  0  0  0  0  0
  -25.3361  -21.4902   21.9259 C   0  0  0  0  0  0  0  0  0  0  0  0
  -23.2983  -11.3303   22.5185 C   0  0  0  0  0  0  0  0  0  0  0  0
  -22.0088  -27.4076   21.0779 C   0  0  0  0  0  0  0  0  0  0  0  0
  -22.8267   -9.0691   22.9511 C   0  0  0  0  0  0  0  0  0  0  0  0
  -23.4127  -22.5433   22.9401 C   0  0  0  0  0  0  0  0  0  0  0  0
  -22.7254   -6.4297   22.0536 C   0  0  0  0  0  0  0  0  0  0  0  0
  -23.5867   -8.0869   23.5862 C   0  0  0  0  0  0  0  0  0  0  0  0
  -24.6115  -14.2861   19.7915 C   0  0  0  0  0  0  0  0  0  0  0  0
  -24.9254  -15.5299   18.0056 C   0  0  0  0  0  0  0  0  0  0  0  0
  -19.7073  -24.7427   21.7894 C   0  0  0  0  0  0  0  0  0  0  0  0
  -23.7077  -24.4612   24.4847 C   0  0  0  0  0  0  0  0  0  0  0  0
  -23.3164  -13.6478   17.6631 C   0  0  0  0  0  0  0  0  0  0  0  0
  -19.9919  -23.5289   22.3018 C   0  0  0  0  0  0  0  0  0  0  0  0
  -27.2958  -28.5581   21.5112 C   0  0  0  0  0  0  0  0  0  0  0  0
  -26.4621  -31.4394   22.7463 C   0  0  0  0  0  0  0  0  0  0  0  0
  -23.9752  -33.5658   23.7161 C   0  0  0  0  0  0  0  0  0  0  0  0
  -27.2351  -20.2851   20.7910 C   0  0  0  0  0  0  0  0  0  0  0  0
  -31.4334  -26.4585   19.3830 C   0  0  0  0  0  0  0  0  0  0  0  0
  -25.6230  -29.3704   19.8089 C   0  0  0  0  0  0  0  0  0  0  0  0
  -24.6304  -29.7130   22.5733 C   0  0  0  0  0  0  0  0  0  0  0  0
  -31.1689  -27.6010   20.3603 C   0  0  0  0  0  0  0  0  0  0  0  0
  -28.9949  -17.9333   18.7787 C   0  0  0  0  0  0  0  0  0  0  0  0
  -30.2264  -27.1466   21.4702 C   0  0  0  0  0  0  0  0  0  0  0  0
  -28.0329  -16.7469   18.6826 C   0  0  0  0  0  0  0  0  0  0  0  0
  -28.9426  -18.5957   20.1543 C   0  0  0  0  0  0  0  0  0  0  0  0
  -26.6385  -17.7991   20.5089 C   0  0  0  0  0  0  0  0  0  0  0  0
  -28.8657  -26.7267   20.9011 C   0  0  1  0  0  0  0  0  0  0  0  0
  -26.5562  -29.7427   20.9569 C   0  0  1  0  0  0  0  0  0  0  0  0
  -26.6082  -17.1396   19.1204 C   0  0  2  0  0  0  0  0  0  0  0  0
  -24.5568  -24.9033   25.6399 C   0  0  0  0  0  0  0  0  0  0  0  0
  -18.1022  -21.8804   22.5212 C   0  0  0  0  0  0  0  0  0  0  0  0
  -23.6042  -35.8345   24.7224 C   0  0  0  0  0  0  0  0  0  0  0  0
  -27.2320  -30.3462   25.4889 C   0  0  0  0  0  0  0  0  0  0  0  0
  -25.9756  -32.2490   26.5229 C   0  0  0  0  0  0  0  0  0  0  0  0
  -27.9493  -32.7045   25.0670 C   0  0  0  0  0  0  0  0  0  0  0  0
  -22.5075  -34.5132   21.3271 C   0  0  0  0  0  0  0  0  0  0  0  0
  -20.5401  -25.5515   20.8459 C   0  0  0  0  0  0  0  0  0  1  0  0
  -19.0886  -22.7778   23.2546 C   0  0  0  0  0  0  0  0  0  0  0  0
  -21.2803  -22.8370   21.9291 C   0  0  0  0  0  0  0  0  0  0  0  0
  -25.7930  -31.9046   24.0171 C   0  0  1  0  0  0  0  0  0  0  0  0
  -23.7424  -35.0390   23.4336 C   0  0  2  0  0  0  0  0  0  0  0  0
  -26.7245  -31.7832   25.2560 C   0  0  0  0  0  0  0  0  0  0  0  0
  -25.4882  -15.2155   20.1809 N   0  0  0  0  0  0  0  0  0  0  0  0
  -25.6593  -15.9567   19.0730 N   0  0  0  0  0  0  0  0  0  0  0  0
  -25.8517  -30.3688   22.0776 N   0  0  0  0  0  0  0  0  0  0  0  0
  -27.5628  -18.9439   20.5002 N   0  0  0  0  0  0  0  0  0  0  0  0
  -24.9784  -16.1613   16.8136 N   0  0  0  0  0  0  0  0  0  0  0  0
  -22.6829  -12.5554   18.2711 N   0  0  0  0  0  0  0  0  0  0  0  0
  -25.8867  -20.5009   21.0740 N   0  0  0  0  0  0  0  0  0  0  0  0
  -28.0705  -27.8926   20.5804 N   0  0  0  0  0  0  0  0  0  0  0  0
  -25.3190  -33.2595   23.7563 N   0  0  0  0  0  0  0  0  0  0  0  0
  -22.4994  -35.2227   22.6323 N   0  3  0  0  0  0  0  0  0  0  0  0
  -22.6014  -24.9869   24.3544 O   0  0  0  0  0  0  0  0  0  0  0  0
  -23.0853  -13.8975   16.4557 O   0  0  0  0  0  0  0  0  0  0  0  0
  -27.1739  -28.2701   22.6961 O   0  0  0  0  0  0  0  0  0  0  0  0
  -27.4845  -32.0096   22.3574 O   0  0  0  0  0  0  0  0  0  0  0  0
  -23.0568  -32.7673   23.8879 O   0  0  0  0  0  0  0  0  0  0  0  0
  -28.0827  -21.1811   20.7624 O   0  0  0  0  0  0  0  0  0  0  0  0
  -22.8753  -10.3796   23.3959 O   0  0  0  0  0  0  0  0  0  0  0  0
  -20.8630  -26.7906   21.4758 O   0  0  0  0  0  0  0  0  0  1  0  0
  -22.0529  -22.6051   23.0995 O   0  0  0  0  0  0  0  0  0  0  0  0
  -22.6755   -5.1621   21.6236 F   0  0  0  0  0  0  0  0  0  0  0  0
  -24.3665   -8.4049   24.6286 F   0  0  0  0  0  0  0  0  0  0  0  0
  1  2  1  0  0  0  0
  1  6  2  0  0  0  0
  2  7  2  0  0  0  0
  3 10  2  0  0  0  0
  3 18  1  0  0  0  0
  4 11  1  0  0  0  0
  4 18  2  0  0  0  0
  5  9  2  0  0  0  0
  5 19  1  0  0  0  0
  6 21  1  0  0  0  0
  7 23  1  0  0  0  0
  8 12  2  0  0  0  0
  8 22  1  0  0  0  0
  9 25  1  0  0  0  0
 10 26  1  0  0  0  0
 11 26  2  0  0  0  0
 12 27  1  0  0  0  0
 13 14  2  0  0  0  0
 13 28  1  0  0  0  0
 14 30  1  0  0  0  0
 15 24  1  0  0  0  0
 15 27  2  0  0  0  0
 16 25  2  0  0  0  0
 16 29  1  0  0  0  0
 17 30  2  0  0  0  0
 17 31  1  0  0  0  0
 18 32  1  0  0  0  0
 19 29  2  0  0  0  0
 19 35  1  0  0  0  0
 20 32  1  0  0  0  0
 20 33  2  0  0  0  0
 20 36  1  0  0  0  0
 21 23  2  0  0  0  0
 21 42  1  0  0  0  0
 22 24  2  0  0  0  0
 22 43  1  0  0  0  0
 23 51  1  0  0  0  0
 24 44  1  0  0  0  0
 25 73  1  0  0  0  0
 26 83  1  0  0  0  0
 27 84  1  0  0  0  0
 28 31  2  0  0  0  0
 28 83  1  0  0  0  0
 29 85  1  0  0  0  0
 30 86  1  0  0  0  0
 31 87  1  0  0  0  0
 32 67  2  0  0  0  0
 33 68  1  0  0  0  0
 33 71  1  0  0  0  0
 34 37  2  0  0  0  0
 34 61  1  0  0  0  0
 35 54  1  0  0  0  0
 35 77  2  0  0  0  0
 36 72  1  0  0  0  0
 36 78  2  0  0  0  0
 37 62  1  0  0  0  0
 37 63  1  0  0  0  0
 38 52  1  0  0  0  0
 38 74  1  0  0  0  0
 38 79  2  0  0  0  0
 39 64  1  0  0  0  0
 39 69  1  0  0  0  0
 39 80  2  0  0  0  0
 40 65  1  0  0  0  0
 40 75  1  0  0  0  0
 40 81  2  0  0  0  0
 41 70  1  0  0  0  0
 41 73  1  0  0  0  0
 41 82  2  0  0  0  0
 42 45  1  0  0  0  0
 43 52  1  0  0  0  0
 44 69  1  0  0  0  0
 45 47  1  0  0  0  0
 46 48  1  0  0  0  0
 46 49  1  0  0  0  0
 47 51  1  0  0  0  0
 48 53  1  0  0  0  0
 49 70  1  0  0  0  0
 50 53  1  0  0  0  0
 50 70  1  0  0  0  0
 51 74  1  0  0  0  0
 52 69  1  0  0  0  0
 53 68  1  0  0  0  0
 55 62  1  0  0  0  0
 56 65  1  0  0  0  0
 57 66  1  0  0  0  0
 58 66  1  0  0  0  0
 59 66  1  0  0  0  0
 60 76  1  0  0  0  0
 61 84  1  0  0  0  0
 63 85  1  0  0  0  0
 64 66  1  0  0  0  0
 64 75  1  0  0  0  0
 65 76  1  0  0  0  0
 67 68  1  0  0  0  0
M  CHG  1  76   1
M  ISO  4  41 100  61 101  73 100  84 101
M  END
> <Batch ID>
0126

> <Smiles>
CCC(=C[101CH2:1][101O:1]c1ccc2c(c1)CN(C(=O)C(NC(=O)C(C)NC)C(C)(C)C)C(C(=O)NC1CCCc3ccccc31)C2)COc1cc([100NH:0][100C:0](=O)N2CCCC(n3nc(-c4ccc(Oc5ccc(F)cc5F)cc4)c(C(N)=O)c3N)C2)ccc1C(C)=O

> <Shape>
0.288

> <Color>
0.063

> <Negative vol penalty>
0.000

$$$$

  -OEChem-04052302113D

 84 92  0     1  0  0  0  0  0999 V2000
  -18.4446  -27.5782   23.6647 C   0  0  0  0  0  0  0  0  0  0  0  0
  -18.8550  -26.2545   23.5429 C   0  0  0  0  0  0  0  0  0  0  0  0
  -26.9069  -19.5083   24.1705 C   0  0  0  0  0  0  0  0  0  0  0  0
  -29.1320  -19.5612   25.1103 C   0  0  0  0  0  0  0  0  0  0  0  0
  -18.8645  -28.5256   22.7319 C   0  0  0  0  0  0  0  0  0  0  0  0
  -19.6846  -25.8772   22.4875 C   0  0  0  0  0  0  0  0  0  0  0  0
  -24.0936  -21.6284   22.6082 C   0  0  0  0  0  0  0  0  0  0  0  0
  -26.4438  -20.2984   25.2225 C   0  0  0  0  0  0  0  0  0  0  0  0
  -28.6689  -20.3513   26.1623 C   0  0  0  0  0  0  0  0  0  0  0  0
  -24.1232  -20.2956   22.2002 C   0  0  0  0  0  0  0  0  0  0  0  0
  -25.5713  -19.8725   28.4601 C   0  0  0  0  0  0  0  0  0  0  0  0
  -24.3742  -19.4997   29.0713 C   0  0  0  0  0  0  0  0  0  0  0  0
  -25.1582  -12.6380   22.0461 C   0  0  0  0  0  0  0  0  0  0  0  0
  -25.0811  -20.9687   20.0911 C   0  0  0  0  0  0  0  0  0  0  0  0
  -24.7992  -13.6659   19.4776 C   0  0  0  0  0  0  0  0  0  0  0  0
  -23.4029  -21.6276   28.4664 C   0  0  0  0  0  0  0  0  0  0  0  0
  -28.2511  -19.1396   24.1143 C   0  0  0  0  0  0  0  0  0  0  0  0
  -26.2063  -12.5991   21.1266 C   0  0  0  0  0  0  0  0  0  0  0  0
  -29.2412  -18.7654   21.7933 C   0  0  0  0  0  0  0  0  0  0  0  0
  -19.7075  -28.1617   21.6701 C   0  0  0  0  0  0  0  0  0  0  0  0
  -24.5482  -22.6442   21.7549 C   0  0  0  0  0  0  0  0  0  0  0  0
  -20.1150  -26.8204   21.5389 C   0  0  0  0  0  0  0  0  0  0  0  0
  -25.0586  -22.3134   20.4915 C   0  0  0  0  0  0  0  0  0  0  0  0
  -26.0267  -13.1130   19.8423 C   0  0  0  0  0  0  0  0  0  0  0  0
  -23.7511  -13.7048   20.3972 C   0  0  0  0  0  0  0  0  0  0  0  0
  -27.3247  -20.7199   26.2185 C   0  0  0  0  0  0  0  0  0  0  0  0
  -24.6144  -19.9658   20.9404 C   0  0  0  0  0  0  0  0  0  0  0  0
  -25.6843  -21.1228   27.8521 C   0  0  0  0  0  0  0  0  0  0  0  0
  -23.2900  -20.3772   29.0744 C   0  0  0  0  0  0  0  0  0  0  0  0
  -23.9306  -13.1908   21.6814 C   0  0  0  0  0  0  0  0  0  0  0  0
  -24.6000  -22.0003   27.8552 C   0  0  0  0  0  0  0  0  0  0  0  0
  -28.7300  -18.3230   23.0281 C   0  0  0  0  0  0  0  0  0  0  0  0
  -29.5547  -17.6111   21.1182 C   0  0  0  0  0  0  0  0  0  0  0  0
  -27.4880  -12.0116   21.5373 C   0  0  0  0  0  0  0  0  0  0  0  0
  -29.4171  -20.1003   21.3007 C   0  0  0  0  0  0  0  0  0  0  0  0
  -23.2159  -25.1804   20.3778 C   0  0  0  0  0  0  0  0  0  0  0  0
  -23.2926  -16.7095   20.0735 C   0  0  0  0  0  0  0  0  0  0  0  0
  -26.2634  -25.7905   19.4491 C   0  0  0  0  0  0  0  0  0  0  0  0
  -29.3874  -24.5854   18.7895 C   0  0  0  0  0  0  0  0  0  0  0  0
  -20.0969  -29.2115   20.6597 C   0  0  0  0  0  0  0  0  0  0  0  0
  -24.5343  -24.0745   22.2202 C   0  0  0  0  0  0  0  0  0  0  0  0
  -25.5774  -23.3645   19.5458 C   0  0  0  0  0  0  0  0  0  0  0  0
  -21.2793  -28.8051   19.7838 C   0  0  0  0  0  0  0  0  0  0  0  0
  -30.8813  -13.0722   21.8566 C   0  0  0  0  0  0  0  0  0  0  0  0
  -21.0954  -27.3823   19.2654 C   0  0  0  0  0  0  0  0  0  0  0  0
  -30.7637  -14.5784   22.0972 C   0  0  0  0  0  0  0  0  0  0  0  0
  -29.7384  -12.3051   22.5168 C   0  0  0  0  0  0  0  0  0  0  0  0
  -28.2672  -14.2858   22.3846 C   0  0  0  0  0  0  0  0  0  0  0  0
  -21.0349  -26.3772   20.4220 C   0  0  1  0  0  0  0  0  0  0  0  0
  -24.5453  -25.0770   21.0704 C   0  0  1  0  0  0  0  0  0  0  0  0
  -29.3723  -15.1008   21.6928 C   0  0  1  0  0  0  0  0  0  0  0  0
  -26.9441  -11.9798   17.8025 C   0  0  0  0  0  0  0  0  0  0  0  0
  -31.8311  -24.6374   18.2211 C   0  0  0  0  0  0  0  0  0  0  0  0
  -25.2226  -25.9698   16.5865 C   0  0  0  0  0  0  0  0  0  0  0  0
  -27.5851  -25.7491   15.7877 C   0  0  0  0  0  0  0  0  0  0  0  0
  -26.9217  -27.7031   17.1893 C   0  0  0  0  0  0  0  0  0  0  0  0
  -30.1611  -24.8723   21.6317 C   0  0  0  0  0  0  0  0  0  0  0  0
  -27.1325  -13.0840   18.8381 C   0  0  0  0  0  0  0  0  0  0  0  0
  -22.4234  -14.3041   19.9996 C   0  0  0  0  0  0  0  0  0  0  0  0
  -22.2184  -15.7282   20.5198 C   0  0  0  0  0  0  0  0  0  0  0  0
  -23.6396  -17.8003   21.0677 C   0  0  0  0  0  0  0  0  0  1  0  0
  -27.1125  -25.4194   18.2573 C   0  0  1  0  0  0  0  0  0  0  0  0
  -30.7631  -25.0658   19.2153 C   0  0  2  0  0  0  0  0  0  0  0  0
  -26.6990  -26.1905   16.9720 C   0  0  0  0  0  0  0  0  0  0  0  0
  -28.7175  -16.9916   23.1338 N   0  0  0  0  0  0  0  0  0  0  0  0
  -29.2247  -16.5874   21.9568 N   0  0  0  0  0  0  0  0  0  0  0  0
  -28.4448  -12.8529   22.1101 N   0  0  0  0  0  0  0  0  0  0  0  0
  -25.5370  -24.7492   20.0441 N   0  0  0  0  0  0  0  0  0  0  0  0
  -30.0776  -17.3821   19.8948 N   0  0  0  0  0  0  0  0  0  0  0  0
  -29.0431  -21.1711   22.1241 N   0  0  0  0  0  0  0  0  0  0  0  0
  -22.3631  -26.1149   20.9336 N   0  0  0  0  0  0  0  0  0  0  0  0
  -28.4982  -25.6314   18.6614 N   0  0  0  0  0  0  0  0  0  0  0  0
  -31.1151  -24.5095   20.5523 N   0  3  0  0  0  0  0  0  0  0  0  0
  -27.6249  -10.8068   21.3300 O   0  0  0  0  0  0  0  0  0  0  0  0
  -29.8766  -20.3363   20.1576 O   0  0  0  0  0  0  0  0  0  0  0  0
  -22.9817  -24.4662   19.4098 O   0  0  0  0  0  0  0  0  0  0  0  0
  -23.8726  -16.6113   18.9934 O   0  0  0  0  0  0  0  0  0  0  0  0
  -26.2509  -26.9596   19.8422 O   0  0  0  0  0  0  0  0  0  0  0  0
  -29.1287  -23.4011   18.5869 O   0  0  0  0  0  0  0  0  0  0  0  0
  -26.8732  -21.4911   27.2451 O   0  0  0  0  0  0  0  0  0  0  0  0
  -24.6438  -18.6657   20.5395 O   0  0  0  0  0  0  0  0  0  1  0  0
  -22.1399  -20.0185   29.6600 F   0  0  0  0  0  0  0  0  0  0  0  0
  -22.9293  -13.2241   22.5719 F   0  0  0  0  0  0  0  0  0  0  0  0
  -24.7022  -23.2024   27.2717 F   0  0  0  0  0  0  0  0  0  0  0  0
  1  2  1  0  0  0  0
  1  5  2  0  0  0  0
  2  6  2  0  0  0  0
  3  8  2  0  0  0  0
  3 17  1  0  0  0  0
  4  9  1  0  0  0  0
  4 17  2  0  0  0  0
  5 20  1  0  0  0  0
  6 22  1  0  0  0  0
  7 10  2  0  0  0  0
  7 21  1  0  0  0  0
  8 26  1  0  0  0  0
  9 26  2  0  0  0  0
 10 27  1  0  0  0  0
 11 12  2  0  0  0  0
 11 28  1  0  0  0  0
 12 29  1  0  0  0  0
 13 18  1  0  0  0  0
 13 30  2  0  0  0  0
 14 23  1  0  0  0  0
 14 27  2  0  0  0  0
 15 24  1  0  0  0  0
 15 25  2  0  0  0  0
 16 29  2  0  0  0  0
 16 31  1  0  0  0  0
 17 32  1  0  0  0  0
 18 24  2  0  0  0  0
 18 34  1  0  0  0  0
 19 32  1  0  0  0  0
 19 33  2  0  0  0  0
 19 35  1  0  0  0  0
 20 22  2  0  0  0  0
 20 40  1  0  0  0  0
 21 23  2  0  0  0  0
 21 41  1  0  0  0  0
 22 49  1  0  0  0  0
 23 42  1  0  0  0  0
 24 58  1  0  0  0  0
 25 30  1  0  0  0  0
 25 59  1  0  0  0  0
 26 80  1  0  0  0  0
 27 81  1  0  0  0  0
 28 31  2  0  0  0  0
 28 80  1  0  0  0  0
 29 82  1  0  0  0  0
 30 83  1  0  0  0  0
 31 84  1  0  0  0  0
 32 65  2  0  0  0  0
 33 66  1  0  0  0  0
 33 69  1  0  0  0  0
 34 67  1  0  0  0  0
 34 74  2  0  0  0  0
 35 70  1  0  0  0  0
 35 75  2  0  0  0  0
 36 50  1  0  0  0  0
 36 71  1  0  0  0  0
 36 76  2  0  0  0  0
 37 60  1  0  0  0  0
 37 61  1  0  0  0  0
 37 77  2  0  0  0  0
 38 62  1  0  0  0  0
 38 68  1  0  0  0  0
 38 78  2  0  0  0  0
 39 63  1  0  0  0  0
 39 72  1  0  0  0  0
 39 79  2  0  0  0  0
 40 43  1  0  0  0  0
 41 50  1  0  0  0  0
 42 68  1  0  0  0  0
 43 45  1  0  0  0  0
 44 46  1  0  0  0  0
 44 47  1  0  0  0  0
 45 49  1  0  0  0  0
 46 51  1  0  0  0  0
 47 67  1  0  0  0  0
 48 51  1  0  0  0  0
 48 67  1  0  0  0  0
 49 71  1  0  0  0  0
 50 68  1  0  0  0  0
 51 66  1  0  0  0  0
 52 58  1  0  0  0  0
 53 63  1  0  0  0  0
 54 64  1  0  0  0  0
 55 64  1  0  0  0  0
 56 64  1  0  0  0  0
 57 73  1  0  0  0  0
 59 60  1  0  0  0  0
 61 81  1  0  0  0  0
 62 64  1  0  0  0  0
 62 72  1  0  0  0  0
 63 73  1  0  0  0  0
 65 66  1  0  0  0  0
M  CHG  1  73   1
M  ISO  4  18 100  34 100  61 101  81 101
M  END
> <Batch ID>
0126

> <Smiles>
CCc1cc(CCC(=O)[101CH2:1][101O:1]c2ccc3c(c2)CN(C(=O)C(NC(=O)C(C)NC)C(C)(C)C)C(C(=O)NC2CCCc4ccccc42)C3)c(F)c[100c:0]1[100C:0](=O)N1CCCC(n2nc(-c3ccc(Oc4ccc(F)cc4F)cc3)c(C(N)=O)c2N)C1

> <Shape>
0.180

> <Color>
0.076

> <Negative vol penalty>
0.000

$$$$

  -OEChem-04052302113D

 83 91  0     1  0  0  0  0  0999 V2000
  -26.6485  -27.7414   33.3653 C   0  0  0  0  0  0  0  0  0  0  0  0
  -27.4631  -26.7867   32.7649 C   0  0  0  0  0  0  0  0  0  0  0  0
  -23.0788   -9.8677   19.9442 C   0  0  0  0  0  0  0  0  0  0  0  0
  -23.8398   -9.8747   22.2372 C   0  0  0  0  0  0  0  0  0  0  0  0
  -25.3088  -27.4518   33.6208 C   0  0  0  0  0  0  0  0  0  0  0  0
  -26.9386  -25.5413   32.4207 C   0  0  0  0  0  0  0  0  0  0  0  0
  -28.3536  -24.0492   27.7929 C   0  0  0  0  0  0  0  0  0  0  0  0
  -22.3351   -8.7145   20.1945 C   0  0  0  0  0  0  0  0  0  0  0  0
  -23.0961   -8.7215   22.4875 C   0  0  0  0  0  0  0  0  0  0  0  0
  -29.6427  -23.5362   27.6557 C   0  0  0  0  0  0  0  0  0  0  0  0
  -19.8683   -7.9233   23.0916 C   0  0  0  0  0  0  0  0  0  0  0  0
  -19.1120   -7.8833   24.2629 C   0  0  0  0  0  0  0  0  0  0  0  0
  -30.5053  -18.3416   24.0482 C   0  0  0  0  0  0  0  0  0  0  0  0
  -28.7496  -21.2958   27.7018 C   0  0  0  0  0  0  0  0  0  0  0  0
  -32.0682  -16.5953   22.5347 C   0  0  0  0  0  0  0  0  0  0  0  0
  -20.3539   -5.9459   24.9987 C   0  0  0  0  0  0  0  0  0  0  0  0
  -23.8312  -10.4478   20.9656 C   0  0  0  0  0  0  0  0  0  0  0  0
  -31.8927  -18.3449   24.1916 C   0  0  0  0  0  0  0  0  0  0  0  0
  -24.1727  -12.9730   20.8454 C   0  0  0  0  0  0  0  0  0  0  0  0
  -24.7653  -26.2057   33.2708 C   0  0  0  0  0  0  0  0  0  0  0  0
  -27.2521  -23.1877   27.8967 C   0  0  0  0  0  0  0  0  0  0  0  0
  -25.5908  -25.2343   32.6730 C   0  0  0  0  0  0  0  0  0  0  0  0
  -27.4473  -21.8004   27.8377 C   0  0  0  0  0  0  0  0  0  0  0  0
  -29.8993  -17.4650   23.1481 C   0  0  0  0  0  0  0  0  0  0  0  0
  -32.6742  -17.4719   23.4348 C   0  0  0  0  0  0  0  0  0  0  0  0
  -30.6807  -16.5919   22.3913 C   0  0  0  0  0  0  0  0  0  0  0  0
  -22.3438   -8.1414   21.4661 C   0  0  0  0  0  0  0  0  0  0  0  0
  -29.8412  -22.1593   27.6131 C   0  0  0  0  0  0  0  0  0  0  0  0
  -20.8675   -6.9746   22.8738 C   0  0  0  0  0  0  0  0  0  0  0  0
  -19.3548   -6.8946   25.2164 C   0  0  0  0  0  0  0  0  0  0  0  0
  -21.1103   -5.9860   23.8273 C   0  0  0  0  0  0  0  0  0  0  0  0
  -24.6000  -11.6388   20.7075 C   0  0  0  0  0  0  0  0  0  0  0  0
  -25.2646  -13.7226   20.4816 C   0  0  0  0  0  0  0  0  0  0  0  0
  -32.5029  -19.2816   25.1498 C   0  0  0  0  0  0  0  0  0  0  0  0
  -32.4115  -20.6193   25.0882 C   0  0  0  0  0  0  0  0  0  0  0  0
  -22.9024  -13.4887   21.2650 C   0  0  0  0  0  0  0  0  0  0  0  0
  -25.0466  -22.6238   30.1153 C   0  0  0  0  0  0  0  0  0  0  0  0
  -23.7779  -20.7217   27.8143 C   0  0  0  0  0  0  0  0  0  0  0  0
  -24.2681  -18.8734   24.9875 C   0  0  0  0  0  0  0  0  0  0  0  0
  -30.7308  -14.7687   20.6537 C   0  0  0  0  0  0  0  0  0  0  0  0
  -23.3234  -25.9216   33.6099 C   0  0  0  0  0  0  0  0  0  0  0  0
  -25.8652  -23.7574   28.0174 C   0  0  0  0  0  0  0  0  0  0  0  0
  -26.2960  -20.8332   27.9245 C   0  0  0  0  0  0  0  0  0  0  0  0
  -22.7512  -24.7131   32.8734 C   0  0  0  0  0  0  0  0  0  0  0  0
  -29.6154  -12.3548   18.2859 C   0  0  0  0  0  0  0  0  0  0  0  0
  -23.7212  -23.5378   32.9419 C   0  0  0  0  0  0  0  0  0  0  0  0
  -28.1760  -12.0631   18.7162 C   0  0  0  0  0  0  0  0  0  0  0  0
  -30.5311  -12.5837   19.4871 C   0  0  0  0  0  0  0  0  0  0  0  0
  -28.6248  -13.3079   20.8693 C   0  0  0  0  0  0  0  0  0  0  0  0
  -25.0524  -23.8809   32.2625 C   0  0  1  0  0  0  0  0  0  0  0  0
  -24.8687  -22.7789   28.6314 C   0  0  1  0  0  0  0  0  0  0  0  0
  -27.6514  -13.1346   19.6920 C   0  0  2  0  0  0  0  0  0  0  0  0
  -28.4108  -17.4825   23.0160 C   0  0  0  0  0  0  0  0  0  0  0  0
  -34.1636  -17.4481   23.5629 C   0  0  0  0  0  0  0  0  0  0  0  0
  -23.0498  -17.4026   23.3597 C   0  0  0  0  0  0  0  0  0  0  0  0
  -23.7898  -18.4552   29.8570 C   0  0  0  0  0  0  0  0  0  0  0  0
  -23.4824  -16.8430   27.9664 C   0  0  0  0  0  0  0  0  0  0  0  0
  -21.7377  -18.5642   28.4317 C   0  0  0  0  0  0  0  0  0  0  0  0
  -24.8692  -20.6831   22.7242 C   0  0  0  0  0  0  0  0  0  0  0  0
  -33.0624  -21.5409   26.0831 C   0  0  0  0  0  0  0  0  0  0  0  0
  -32.0426  -22.4484   26.7609 C   0  0  0  0  0  0  0  0  0  1  0  0
  -23.9399  -19.2753   27.4135 C   0  0  1  0  0  0  0  0  0  0  0  0
  -23.5067  -18.8183   23.6754 C   0  0  2  0  0  0  0  0  0  0  0  0
  -23.2596  -18.3023   28.4174 C   0  0  0  0  0  0  0  0  0  0  0  0
  -25.8647  -11.5430   20.2886 N   0  0  0  0  0  0  0  0  0  0  0  0
  -26.2414  -12.8267   20.1601 N   0  0  0  0  0  0  0  0  0  0  0  0
  -24.9598  -21.4389   28.0481 N   0  0  0  0  0  0  0  0  0  0  0  0
  -29.9725  -13.6144   20.3648 N   0  0  0  0  0  0  0  0  0  0  0  0
  -25.4749  -15.0541   20.4086 N   0  0  0  0  0  0  0  0  0  0  0  0
  -21.8907  -12.5794   21.6027 N   0  0  0  0  0  0  0  0  0  0  0  0
  -30.0837  -15.6936   21.4724 N   0  0  0  0  0  0  0  0  0  0  0  0
  -24.9201  -23.8036   30.8234 N   0  0  0  0  0  0  0  0  0  0  0  0
  -23.4381  -19.1715   26.0475 N   0  0  0  0  0  0  0  0  0  0  0  0
  -24.3679  -19.2948   22.5564 N   0  3  0  0  0  0  0  0  0  0  0  0
  -22.6661  -14.7193   21.3225 O   0  0  0  0  0  0  0  0  0  0  0  0
  -25.2800  -21.5156   30.5832 O   0  0  0  0  0  0  0  0  0  0  0  0
  -22.6447  -21.1996   27.9092 O   0  0  0  0  0  0  0  0  0  0  0  0
  -25.4775  -18.6686   25.0650 O   0  0  0  0  0  0  0  0  0  0  0  0
  -31.8596  -14.9375   20.1855 O   0  0  0  0  0  0  0  0  0  0  0  0
  -21.6181   -7.0162   21.7108 O   0  0  0  0  0  0  0  0  0  0  0  0
  -31.0984  -21.6559   27.4799 O   0  0  0  0  0  0  0  0  0  1  0  0
  -18.6294   -6.8572   26.3419 F   0  0  0  0  0  0  0  0  0  0  0  0
  -22.0696   -5.0726   23.6242 F   0  0  0  0  0  0  0  0  0  0  0  0
  1  2  1  0  0  0  0
  1  5  2  0  0  0  0
  2  6  2  0  0  0  0
  3  8  2  0  0  0  0
  3 17  1  0  0  0  0
  4  9  1  0  0  0  0
  4 17  2  0  0  0  0
  5 20  1  0  0  0  0
  6 22  1  0  0  0  0
  7 10  2  0  0  0  0
  7 21  1  0  0  0  0
  8 27  1  0  0  0  0
  9 27  2  0  0  0  0
 10 28  1  0  0  0  0
 11 12  2  0  0  0  0
 11 29  1  0  0  0  0
 12 30  1  0  0  0  0
 13 18  1  0  0  0  0
 13 24  2  0  0  0  0
 14 23  1  0  0  0  0
 14 28  2  0  0  0  0
 15 25  1  0  0  0  0
 15 26  2  0  0  0  0
 16 30  2  0  0  0  0
 16 31  1  0  0  0  0
 17 32  1  0  0  0  0
 18 25  2  0  0  0  0
 18 34  1  0  0  0  0
 19 32  1  0  0  0  0
 19 33  2  0  0  0  0
 19 36  1  0  0  0  0
 20 22  2  0  0  0  0
 20 41  1  0  0  0  0
 21 23  2  0  0  0  0
 21 42  1  0  0  0  0
 22 50  1  0  0  0  0
 23 43  1  0  0  0  0
 24 26  1  0  0  0  0
 24 53  1  0  0  0  0
 25 54  1  0  0  0  0
 26 71  1  0  0  0  0
 27 80  1  0  0  0  0
 28 81  1  0  0  0  0
 29 31  2  0  0  0  0
 29 80  1  0  0  0  0
 30 82  1  0  0  0  0
 31 83  1  0  0  0  0
 32 65  2  0  0  0  0
 33 66  1  0  0  0  0
 33 69  1  0  0  0  0
 34 35  2  0  0  0  0
 35 60  1  0  0  0  0
 36 70  1  0  0  0  0
 36 75  2  0  0  0  0
 37 51  1  0  0  0  0
 37 72  1  0  0  0  0
 37 76  2  0  0  0  0
 38 62  1  0  0  0  0
 38 67  1  0  0  0  0
 38 77  2  0  0  0  0
 39 63  1  0  0  0  0
 39 73  1  0  0  0  0
 39 78  2  0  0  0  0
 40 68  1  0  0  0  0
 40 71  1  0  0  0  0
 40 79  2  0  0  0  0
 41 44  1  0  0  0  0
 42 51  1  0  0  0  0
 43 67  1  0  0  0  0
 44 46  1  0  0  0  0
 45 47  1  0  0  0  0
 45 48  1  0  0  0  0
 46 50  1  0  0  0  0
 47 52  1  0  0  0  0
 48 68  1  0  0  0  0
 49 52  1  0  0  0  0
 49 68  1  0  0  0  0
 50 72  1  0  0  0  0
 51 67  1  0  0  0  0
 52 66  1  0  0  0  0
 55 63  1  0  0  0  0
 56 64  1  0  0  0  0
 57 64  1  0  0  0  0
 58 64  1  0  0  0  0
 59 74  1  0  0  0  0
 60 61  1  0  0  0  0
 61 81  1  0  0  0  0
 62 64  1  0  0  0  0
 62 73  1  0  0  0  0
 63 74  1  0  0  0  0
 65 66  1  0  0  0  0
M  CHG  1  74   1
M  ISO  4  40 100  61 101  71 100  81 101
M  END
> <Batch ID>
0126

> <Smiles>
CNC(C)C(=O)NC(C(=O)N1Cc2cc([101O:1][101CH2:1]CC=Cc3cc(C)c([100NH:0][100C:0](=O)N4CCCC(n5nc(-c6ccc(Oc7ccc(F)cc7F)cc6)c(C(N)=O)c5N)C4)cc3C)ccc2CC1C(=O)NC1CCCc2ccccc21)C(C)(C)C

> <Shape>
0.168

> <Color>
0.200

> <Negative vol penalty>
0.000

$$$$
