
  -OEChem-04052302143D

 84 92  0     1  0  0  0  0  0999 V2000
  -29.6953  -23.9940   25.3839 C   0  0  0  0  0  0  0  0  0  0  0  0
  -28.3212  -24.0380   25.1706 C   0  0  0  0  0  0  0  0  0  0  0  0
  -29.6222  -27.6166   18.5842 C   0  0  0  0  0  0  0  0  0  0  0  0
  -29.1202  -26.1873   20.4663 C   0  0  0  0  0  0  0  0  0  0  0  0
  -18.2453  -26.6568   20.9998 C   0  0  0  0  0  0  0  0  0  0  0  0
  -30.5042  -23.2213   24.5518 C   0  0  0  0  0  0  0  0  0  0  0  0
  -27.7555  -23.3102   24.1244 C   0  0  0  0  0  0  0  0  0  0  0  0
  -22.2753  -20.5767   24.0827 C   0  0  0  0  0  0  0  0  0  0  0  0
  -18.7500  -27.9047   21.3652 C   0  0  0  0  0  0  0  0  0  0  0  0
  -30.9414  -27.1635   18.5920 C   0  0  0  0  0  0  0  0  0  0  0  0
  -30.4393  -25.7341   20.4740 C   0  0  0  0  0  0  0  0  0  0  0  0
  -21.0386  -20.9625   23.5674 C   0  0  0  0  0  0  0  0  0  0  0  0
  -33.5838  -23.9318   20.7612 C   0  0  0  0  0  0  0  0  0  0  0  0
  -33.7984  -22.5605   20.8987 C   0  0  0  0  0  0  0  0  0  0  0  0
  -21.4841  -19.6939   21.5646 C   0  0  0  0  0  0  0  0  0  0  0  0
  -19.7984  -26.9134   23.3030 C   0  0  0  0  0  0  0  0  0  0  0  0
  -32.5428  -22.1610   18.8736 C   0  0  0  0  0  0  0  0  0  0  0  0
  -28.7116  -27.1286   19.5214 C   0  0  0  0  0  0  0  0  0  0  0  0
  -18.5170  -25.5371   21.7861 C   0  0  0  0  0  0  0  0  0  0  0  0
  -26.2643  -27.0452   18.8064 C   0  0  0  0  0  0  0  0  0  0  0  0
  -29.9470  -22.4759   23.5008 C   0  0  0  0  0  0  0  0  0  0  0  0
  -23.1318  -19.7541   23.3370 C   0  0  0  0  0  0  0  0  0  0  0  0
  -28.5579  -22.5278   23.2766 C   0  0  0  0  0  0  0  0  0  0  0  0
  -22.7301  -19.2971   22.0737 C   0  0  0  0  0  0  0  0  0  0  0  0
  -19.5266  -28.0330   22.5167 C   0  0  0  0  0  0  0  0  0  0  0  0
  -19.2936  -25.6654   22.9377 C   0  0  0  0  0  0  0  0  0  0  0  0
  -31.3499  -26.2222   19.5368 C   0  0  0  0  0  0  0  0  0  0  0  0
  -20.6441  -20.5235   22.3070 C   0  0  0  0  0  0  0  0  0  0  0  0
  -32.8486  -24.4178   19.6800 C   0  0  0  0  0  0  0  0  0  0  0  0
  -33.2779  -21.6751   19.9549 C   0  0  0  0  0  0  0  0  0  0  0  0
  -32.3281  -23.5324   18.7362 C   0  0  0  0  0  0  0  0  0  0  0  0
  -27.3489  -27.5967   19.5143 C   0  0  0  0  0  0  0  0  0  0  0  0
  -25.1980  -27.8473   19.1323 C   0  0  0  0  0  0  0  0  0  0  0  0
  -18.6858  -23.4277   20.5541 C   0  0  0  0  0  0  0  0  0  0  0  0
  -17.9649  -24.2231   21.3701 C   0  0  0  0  0  0  0  0  0  0  0  0
  -26.2241  -25.9092   17.9325 C   0  0  0  0  0  0  0  0  0  0  0  0
  -26.0502  -20.0737   22.1185 C   0  0  0  0  0  0  0  0  0  0  0  0
  -25.6604  -16.9402   21.3759 C   0  0  0  0  0  0  0  0  0  0  0  0
  -23.5217  -14.3544   20.7540 C   0  0  0  0  0  0  0  0  0  0  0  0
  -22.1916  -30.6508   22.9068 C   0  0  0  0  0  0  0  0  0  0  0  0
  -30.8674  -21.6927   22.5985 C   0  0  0  0  0  0  0  0  0  0  0  0
  -24.4512  -19.3251   23.9181 C   0  0  0  0  0  0  0  0  0  0  0  0
  -23.6042  -18.3960   21.2415 C   0  0  0  0  0  0  0  0  0  0  0  0
  -30.1445  -20.6548   21.7439 C   0  0  0  0  0  0  0  0  0  0  0  0
  -25.0378  -32.2943   21.5375 C   0  0  0  0  0  0  0  0  0  0  0  0
  -28.9020  -21.2637   21.1019 C   0  0  0  0  0  0  0  0  0  0  0  0
  -25.8059  -31.1724   20.8365 C   0  0  0  0  0  0  0  0  0  0  0  0
  -24.3805  -31.8079   22.8273 C   0  0  0  0  0  0  0  0  0  0  0  0
  -24.2881  -29.4980   21.9729 C   0  0  0  0  0  0  0  0  0  0  0  0
  -27.9039  -21.7326   22.1676 C   0  0  1  0  0  0  0  0  0  0  0  0
  -25.4630  -18.9042   22.8568 C   0  0  1  0  0  0  0  0  0  0  0  0
  -24.9219  -29.9264   20.6384 C   0  0  2  0  0  0  0  0  0  0  0  0
  -19.6047  -24.4876   23.8043 C   0  0  0  0  0  0  0  0  0  0  0  0
  -16.5999  -23.8801   21.9023 C   0  0  0  0  0  0  0  0  0  0  0  0
  -23.4985  -11.9217   20.1386 C   0  0  0  0  0  0  0  0  0  0  0  0
  -26.3604  -17.6647   18.4958 C   0  0  0  0  0  0  0  0  0  0  0  0
  -25.4112  -15.4600   17.7840 C   0  0  0  0  0  0  0  0  0  0  0  0
  -27.3811  -15.5327   19.3127 C   0  0  0  0  0  0  0  0  0  0  0  0
  -22.1223  -13.6158   23.2551 C   0  0  0  0  0  0  0  0  0  0  0  0
  -20.0678  -29.3668   22.9069 C   0  0  0  0  0  0  0  0  0  0  0  0
  -18.2978  -22.0715   20.0276 C   0  0  0  0  0  0  0  0  0  0  0  0
  -19.3353  -21.0135   20.3827 C   0  0  0  0  0  0  0  0  0  1  0  0
  -25.1027  -16.1826   20.1951 C   0  0  1  0  0  0  0  0  0  0  0  0
  -23.4846  -12.9298   21.2771 C   0  0  2  0  0  0  0  0  0  0  0  0
  -26.0480  -16.2285   18.9615 C   0  0  0  0  0  0  0  0  0  0  0  0
  -27.0035  -28.6666   20.2354 N   0  0  0  0  0  0  0  0  0  0  0  0
  -25.6898  -28.7939   19.9822 N   0  0  0  0  0  0  0  0  0  0  0  0
  -24.8875  -18.0093   21.8507 N   0  0  0  0  0  0  0  0  0  0  0  0
  -23.5550  -30.6253   22.5701 N   0  0  0  0  0  0  0  0  0  0  0  0
  -23.8972  -27.8283   18.7718 N   0  0  0  0  0  0  0  0  0  0  0  0
  -27.4101  -25.1973   17.7072 N   0  0  0  0  0  0  0  0  0  0  0  0
  -27.1792  -20.6046   22.7125 N   0  0  0  0  0  0  0  0  0  0  0  0
  -24.8113  -14.8360   20.6748 N   0  0  0  0  0  0  0  0  0  0  0  0
  -21.4803  -29.4911   22.6239 N   0  0  0  0  0  0  0  0  0  0  0  0
  -22.2536  -12.7072   22.0870 N   0  3  0  0  0  0  0  0  0  0  0  0
  -25.1712  -25.5464   17.3551 O   0  0  0  0  0  0  0  0  0  0  0  0
  -25.5192  -20.4644   21.0855 O   0  0  0  0  0  0  0  0  0  0  0  0
  -26.7384  -16.5915   21.8636 O   0  0  0  0  0  0  0  0  0  0  0  0
  -22.5083  -14.9764   20.4430 O   0  0  0  0  0  0  0  0  0  0  0  0
  -21.6471  -31.6361   23.4164 O   0  0  0  0  0  0  0  0  0  0  0  0
  -32.6370  -25.7796   19.5445 O   0  0  0  0  0  0  0  0  0  0  0  0
  -19.4377  -20.8990   21.8014 O   0  0  0  0  0  0  0  0  0  1  0  0
  -33.4854  -20.3583   20.0861 F   0  0  0  0  0  0  0  0  0  0  0  0
  -31.6220  -23.9934   17.6947 F   0  0  0  0  0  0  0  0  0  0  0  0
  1  2  1  0  0  0  0
  1  6  2  0  0  0  0
  2  7  2  0  0  0  0
  3 10  2  0  0  0  0
  3 18  1  0  0  0  0
  4 11  1  0  0  0  0
  4 18  2  0  0  0  0
  5  9  2  0  0  0  0
  5 19  1  0  0  0  0
  6 21  1  0  0  0  0
  7 23  1  0  0  0  0
  8 12  2  0  0  0  0
  8 22  1  0  0  0  0
  9 25  1  0  0  0  0
 10 27  1  0  0  0  0
 11 27  2  0  0  0  0
 12 28  1  0  0  0  0
 13 14  2  0  0  0  0
 13 29  1  0  0  0  0
 14 30  1  0  0  0  0
 15 24  1  0  0  0  0
 15 28  2  0  0  0  0
 16 25  2  0  0  0  0
 16 26  1  0  0  0  0
 17 30  2  0  0  0  0
 17 31  1  0  0  0  0
 18 32  1  0  0  0  0
 19 26  2  0  0  0  0
 19 35  1  0  0  0  0
 20 32  1  0  0  0  0
 20 33  2  0  0  0  0
 20 36  1  0  0  0  0
 21 23  2  0  0  0  0
 21 41  1  0  0  0  0
 22 24  2  0  0  0  0
 22 42  1  0  0  0  0
 23 50  1  0  0  0  0
 24 43  1  0  0  0  0
 25 60  1  0  0  0  0
 26 53  1  0  0  0  0
 27 81  1  0  0  0  0
 28 82  1  0  0  0  0
 29 31  2  0  0  0  0
 29 81  1  0  0  0  0
 30 83  1  0  0  0  0
 31 84  1  0  0  0  0
 32 66  2  0  0  0  0
 33 67  1  0  0  0  0
 33 70  1  0  0  0  0
 34 35  2  0  0  0  0
 34 61  1  0  0  0  0
 35 54  1  0  0  0  0
 36 71  1  0  0  0  0
 36 76  2  0  0  0  0
 37 51  1  0  0  0  0
 37 72  1  0  0  0  0
 37 77  2  0  0  0  0
 38 63  1  0  0  0  0
 38 68  1  0  0  0  0
 38 78  2  0  0  0  0
 39 64  1  0  0  0  0
 39 73  1  0  0  0  0
 39 79  2  0  0  0  0
 40 69  1  0  0  0  0
 40 74  1  0  0  0  0
 40 80  2  0  0  0  0
 41 44  1  0  0  0  0
 42 51  1  0  0  0  0
 43 68  1  0  0  0  0
 44 46  1  0  0  0  0
 45 47  1  0  0  0  0
 45 48  1  0  0  0  0
 46 50  1  0  0  0  0
 47 52  1  0  0  0  0
 48 69  1  0  0  0  0
 49 52  1  0  0  0  0
 49 69  1  0  0  0  0
 50 72  1  0  0  0  0
 51 68  1  0  0  0  0
 52 67  1  0  0  0  0
 55 64  1  0  0  0  0
 56 65  1  0  0  0  0
 57 65  1  0  0  0  0
 58 65  1  0  0  0  0
 59 75  1  0  0  0  0
 60 74  1  0  0  0  0
 61 62  1  0  0  0  0
 62 82  1  0  0  0  0
 63 65  1  0  0  0  0
 63 73  1  0  0  0  0
 64 75  1  0  0  0  0
 66 67  1  0  0  0  0
M  CHG  1  75   1
M  ISO  4  40 100  62 101  74 100  82 101
M  END
> <Batch ID>
0127

> <Smiles>
CNC(C)C(=O)NC(C(=O)N1Cc2cc([101O:1][101CH2:1]CC=C(C)c3ccc(C[100NH:0][100C:0](=O)N4CCCC(n5nc(-c6ccc(Oc7ccc(F)cc7F)cc6)c(C(N)=O)c5N)C4)cc3C)ccc2CC1C(=O)NC1CCCc2ccccc21)C(C)(C)C

> <Shape>
0.202

> <Color>
0.091

> <Negative vol penalty>
0.000

$$$$

  -OEChem-04052302143D

 82 90  0     1  0  0  0  0  0999 V2000
  -25.0808  -19.2934   23.7582 C   0  0  0  0  0  0  0  0  0  0  0  0
  -25.9484  -20.1880   23.1399 C   0  0  0  0  0  0  0  0  0  0  0  0
  -24.1709   -9.6776   22.6278 C   0  0  0  0  0  0  0  0  0  0  0  0
  -24.3050   -9.4492   20.2264 C   0  0  0  0  0  0  0  0  0  0  0  0
  -28.7372  -21.4828   19.7736 C   0  0  0  0  0  0  0  0  0  0  0  0
  -31.0660  -21.0421   20.2422 C   0  0  0  0  0  0  0  0  0  0  0  0
  -23.7128  -19.5608   23.7916 C   0  0  0  0  0  0  0  0  0  0  0  0
  -25.4483  -21.3502   22.5537 C   0  0  0  0  0  0  0  0  0  0  0  0
  -28.2101  -25.4410   23.6864 C   0  0  0  0  0  0  0  0  0  0  0  0
  -23.0925   -8.7932   22.6517 C   0  0  0  0  0  0  0  0  0  0  0  0
  -23.2267   -8.5648   20.2502 C   0  0  0  0  0  0  0  0  0  0  0  0
  -29.0799  -22.7241   19.2376 C   0  0  0  0  0  0  0  0  0  0  0  0
  -31.4088  -22.2834   19.7061 C   0  0  0  0  0  0  0  0  0  0  0  0
  -29.4064  -25.6139   22.9916 C   0  0  0  0  0  0  0  0  0  0  0  0
  -22.6084   -5.4506   22.4918 C   0  0  0  0  0  0  0  0  0  0  0  0
  -22.6117   -4.4505   23.4641 C   0  0  0  0  0  0  0  0  0  0  0  0
  -28.3240  -27.2039   21.5357 C   0  0  0  0  0  0  0  0  0  0  0  0
  -20.5391   -5.3127   24.3576 C   0  0  0  0  0  0  0  0  0  0  0  0
  -24.7771  -10.0057   21.4151 C   0  0  0  0  0  0  0  0  0  0  0  0
  -29.7303  -20.6418   20.2760 C   0  0  0  0  0  0  0  0  0  0  0  0
  -27.1310  -10.7666   22.0378 C   0  0  0  0  0  0  0  0  0  0  0  0
  -23.1969  -20.7316   23.2140 C   0  0  0  0  0  0  0  0  0  0  0  0
  -27.0571  -26.1412   23.3036 C   0  0  0  0  0  0  0  0  0  0  0  0
  -24.0720  -21.6329   22.5782 C   0  0  0  0  0  0  0  0  0  0  0  0
  -27.1150  -27.0400   22.2289 C   0  0  0  0  0  0  0  0  0  0  0  0
  -22.6205   -8.2367   21.4629 C   0  0  0  0  0  0  0  0  0  0  0  0
  -30.4157  -23.1243   19.2038 C   0  0  0  0  0  0  0  0  0  0  0  0
  -29.4628  -26.4933   21.9143 C   0  0  0  0  0  0  0  0  0  0  0  0
  -21.5706   -6.3817   22.4523 C   0  0  0  0  0  0  0  0  0  0  0  0
  -21.5770   -4.3816   24.3970 C   0  0  0  0  0  0  0  0  0  0  0  0
  -20.5359   -6.3127   23.3852 C   0  0  0  0  0  0  0  0  0  0  0  0
  -25.8907  -10.9197   21.3898 C   0  0  0  0  0  0  0  0  0  0  0  0
  -27.8354  -11.8971   21.7026 C   0  0  0  0  0  0  0  0  0  0  0  0
  -29.3728  -19.3476   20.8350 C   0  0  0  0  0  0  0  0  0  0  0  0
  -28.2229  -18.6817   20.5962 C   0  0  0  0  0  0  0  0  0  0  0  0
  -27.6042   -9.6981   22.8686 C   0  0  0  0  0  0  0  0  0  0  0  0
  -28.0104  -17.3665   21.2333 C   0  0  0  0  0  0  0  0  0  0  0  0
  -24.1754  -25.3117   22.2491 C   0  0  0  0  0  0  0  0  0  0  0  0
  -23.5882  -28.4901   22.5242 C   0  0  0  0  0  0  0  0  0  0  0  0
  -24.8286  -31.6680   22.6187 C   0  0  0  0  0  0  0  0  0  0  0  0
  -21.7053  -20.9544   23.2336 C   0  0  0  0  0  0  0  0  0  0  0  0
  -25.7812  -25.9636   24.0801 C   0  0  0  0  0  0  0  0  0  0  0  0
  -25.9104  -27.8309   21.7907 C   0  0  0  0  0  0  0  0  0  0  0  0
  -21.3000  -22.3917   22.9173 C   0  0  0  0  0  0  0  0  0  0  0  0
  -26.8926  -15.4891   18.2909 C   0  0  0  0  0  0  0  0  0  0  0  0
  -22.0586  -22.9041   21.6972 C   0  0  0  0  0  0  0  0  0  0  0  0
  -26.5892  -14.1271   18.9095 C   0  0  0  0  0  0  0  0  0  0  0  0
  -26.5783  -16.6357   19.2506 C   0  0  0  0  0  0  0  0  0  0  0  0
  -26.9480  -15.1434   21.1939 C   0  0  0  0  0  0  0  0  0  0  0  0
  -23.5706  -22.9165   21.9528 C   0  0  1  0  0  0  0  0  0  0  0  0
  -24.5378  -26.3419   23.2811 C   0  0  1  0  0  0  0  0  0  0  0  0
  -27.3012  -13.9731   20.2628 C   0  0  1  0  0  0  0  0  0  0  0  0
  -24.1010  -34.0616   22.8145 C   0  0  0  0  0  0  0  0  0  0  0  0
  -22.6581  -28.4425   19.6186 C   0  0  0  0  0  0  0  0  0  0  0  0
  -22.8560  -30.9381   19.5872 C   0  0  0  0  0  0  0  0  0  0  0  0
  -21.2474  -29.8357   21.1428 C   0  0  0  0  0  0  0  0  0  0  0  0
  -26.3591  -32.0496   25.1229 C   0  0  0  0  0  0  0  0  0  0  0  0
  -31.7581  -26.4892   19.1088 C   0  0  0  0  0  0  0  0  0  0  0  0
  -31.9039  -24.9793   19.2161 C   0  0  0  0  0  0  0  0  0  0  0  0
  -30.5309  -26.9963   19.8498 C   0  0  0  0  0  0  0  0  0  1  0  0
  -23.7270  -29.6857   21.6130 C   0  0  1  0  0  0  0  0  0  0  0  0
  -24.5656  -32.8242   23.5665 C   0  0  2  0  0  0  0  0  0  0  0  0
  -22.6445  -29.7093   20.4972 C   0  0  0  0  0  0  0  0  0  0  0  0
  -25.8087  -12.0577   20.6954 N   0  0  0  0  0  0  0  0  0  0  0  0
  -27.0063  -12.6301   20.9054 N   0  0  0  0  0  0  0  0  0  0  0  0
  -27.2231  -16.4362   20.5572 N   0  0  0  0  0  0  0  0  0  0  0  0
  -24.6846  -27.6178   22.5777 N   0  0  0  0  0  0  0  0  0  0  0  0
  -29.0768  -12.3257   22.0149 N   0  0  0  0  0  0  0  0  0  0  0  0
  -28.2730   -8.6262   22.2620 N   0  0  0  0  0  0  0  0  0  0  0  0
  -23.9358  -24.0542   22.7693 N   0  0  0  0  0  0  0  0  0  0  0  0
  -23.7196  -30.8608   22.4776 N   0  0  0  0  0  0  0  0  0  0  0  0
  -25.8048  -33.1692   24.3191 N   0  3  0  0  0  0  0  0  0  0  0  0
  -27.4242   -9.6861   24.1099 O   0  0  0  0  0  0  0  0  0  0  0  0
  -28.5399  -17.1734   22.3292 O   0  0  0  0  0  0  0  0  0  0  0  0
  -24.1161  -25.6343   21.0683 O   0  0  0  0  0  0  0  0  0  0  0  0
  -22.5482  -28.3396   23.1702 O   0  0  0  0  0  0  0  0  0  0  0  0
  -25.9086  -31.5000   22.0565 O   0  0  0  0  0  0  0  0  0  0  0  0
  -21.5684   -7.3735   21.4859 O   0  0  0  0  0  0  0  0  0  0  0  0
  -30.7525  -24.3441   18.6770 O   0  0  0  0  0  0  0  0  0  0  0  0
  -30.6290  -26.6634   21.2340 O   0  0  0  0  0  0  0  0  0  1  0  0
  -21.5794   -3.4202   25.3298 F   0  0  0  0  0  0  0  0  0  0  0  0
  -19.5355   -7.2037   23.3516 F   0  0  0  0  0  0  0  0  0  0  0  0
  1  2  1  0  0  0  0
  1  7  2  0  0  0  0
  2  8  2  0  0  0  0
  3 10  2  0  0  0  0
  3 19  1  0  0  0  0
  4 11  1  0  0  0  0
  4 19  2  0  0  0  0
  5 12  2  0  0  0  0
  5 20  1  0  0  0  0
  6 13  1  0  0  0  0
  6 20  2  0  0  0  0
  7 22  1  0  0  0  0
  8 24  1  0  0  0  0
  9 14  2  0  0  0  0
  9 23  1  0  0  0  0
 10 26  1  0  0  0  0
 11 26  2  0  0  0  0
 12 27  1  0  0  0  0
 13 27  2  0  0  0  0
 14 28  1  0  0  0  0
 15 16  2  0  0  0  0
 15 29  1  0  0  0  0
 16 30  1  0  0  0  0
 17 25  1  0  0  0  0
 17 28  2  0  0  0  0
 18 30  2  0  0  0  0
 18 31  1  0  0  0  0
 19 32  1  0  0  0  0
 20 34  1  0  0  0  0
 21 32  1  0  0  0  0
 21 33  2  0  0  0  0
 21 36  1  0  0  0  0
 22 24  2  0  0  0  0
 22 41  1  0  0  0  0
 23 25  2  0  0  0  0
 23 42  1  0  0  0  0
 24 50  1  0  0  0  0
 25 43  1  0  0  0  0
 26 78  1  0  0  0  0
 27 79  1  0  0  0  0
 28 80  1  0  0  0  0
 29 31  2  0  0  0  0
 29 78  1  0  0  0  0
 30 81  1  0  0  0  0
 31 82  1  0  0  0  0
 32 64  2  0  0  0  0
 33 65  1  0  0  0  0
 33 68  1  0  0  0  0
 34 35  2  0  0  0  0
 35 37  1  0  0  0  0
 36 69  1  0  0  0  0
 36 73  2  0  0  0  0
 37 66  1  0  0  0  0
 37 74  2  0  0  0  0
 38 51  1  0  0  0  0
 38 70  1  0  0  0  0
 38 75  2  0  0  0  0
 39 61  1  0  0  0  0
 39 67  1  0  0  0  0
 39 76  2  0  0  0  0
 40 62  1  0  0  0  0
 40 71  1  0  0  0  0
 40 77  2  0  0  0  0
 41 44  1  0  0  0  0
 42 51  1  0  0  0  0
 43 67  1  0  0  0  0
 44 46  1  0  0  0  0
 45 47  1  0  0  0  0
 45 48  1  0  0  0  0
 46 50  1  0  0  0  0
 47 52  1  0  0  0  0
 48 66  1  0  0  0  0
 49 52  1  0  0  0  0
 49 66  1  0  0  0  0
 50 70  1  0  0  0  0
 51 67  1  0  0  0  0
 52 65  1  0  0  0  0
 53 62  1  0  0  0  0
 54 63  1  0  0  0  0
 55 63  1  0  0  0  0
 56 63  1  0  0  0  0
 57 72  1  0  0  0  0
 58 59  1  0  0  0  0
 58 60  1  0  0  0  0
 59 79  1  0  0  0  0
 60 80  1  0  0  0  0
 61 63  1  0  0  0  0
 61 71  1  0  0  0  0
 62 72  1  0  0  0  0
 64 65  1  0  0  0  0
M  CHG  1  72   1
M  ISO  4  35 100  37 100  60 101  80 101
M  END
> <Batch ID>
0127

> <Smiles>
CNC(C)C(=O)NC(C(=O)N1Cc2cc([101O:1][101CH2:1]CCOc3ccc(C=[100CH:0][100C:0](=O)N4CCCC(n5nc(-c6ccc(Oc7ccc(F)cc7F)cc6)c(C(N)=O)c5N)C4)cc3)ccc2CC1C(=O)NC1CCCc2ccccc21)C(C)(C)C

> <Shape>
0.263

> <Color>
0.090

> <Negative vol penalty>
0.000

$$$$

  -OEChem-04052302143D

 82 90  0     1  0  0  0  0  0999 V2000
  -17.7174  -32.4134   23.5391 C   0  0  0  0  0  0  0  0  0  0  0  0
  -18.9627  -32.7333   23.0077 C   0  0  0  0  0  0  0  0  0  0  0  0
  -24.9021  -11.6857   21.5710 C   0  0  0  0  0  0  0  0  0  0  0  0
  -22.9371  -12.4365   20.3825 C   0  0  0  0  0  0  0  0  0  0  0  0
  -31.5130  -22.7644   20.7539 C   0  0  0  0  0  0  0  0  0  0  0  0
  -17.5280  -31.1902   24.1807 C   0  0  0  0  0  0  0  0  0  0  0  0
  -20.0196  -31.8305   23.1186 C   0  0  0  0  0  0  0  0  0  0  0  0
  -25.8512  -29.6029   19.6049 C   0  0  0  0  0  0  0  0  0  0  0  0
  -31.8842  -24.0974   20.9297 C   0  0  0  0  0  0  0  0  0  0  0  0
  -24.1382  -10.7171   22.2220 C   0  0  0  0  0  0  0  0  0  0  0  0
  -22.1733  -11.4677   21.0334 C   0  0  0  0  0  0  0  0  0  0  0  0
  -27.2172  -29.4052   19.8015 C   0  0  0  0  0  0  0  0  0  0  0  0
  -22.7775   -7.8101   23.9288 C   0  0  0  0  0  0  0  0  0  0  0  0
  -23.3049   -6.5221   24.0205 C   0  0  0  0  0  0  0  0  0  0  0  0
  -26.7522  -27.2887   20.8614 C   0  0  0  0  0  0  0  0  0  0  0  0
  -29.9699  -24.8011   19.6346 C   0  0  0  0  0  0  0  0  0  0  0  0
  -23.3800   -6.3811   21.6098 C   0  0  0  0  0  0  0  0  0  0  0  0
  -24.3015  -12.5455   20.6513 C   0  0  0  0  0  0  0  0  0  0  0  0
  -30.3703  -22.4497   20.0184 C   0  0  0  0  0  0  0  0  0  0  0  0
  -25.7761  -13.4095   18.7574 C   0  0  0  0  0  0  0  0  0  0  0  0
  -18.5805  -30.2679   24.2911 C   0  0  0  0  0  0  0  0  0  0  0  0
  -24.9232  -28.6484   20.0455 C   0  0  0  0  0  0  0  0  0  0  0  0
  -19.8444  -30.5943   23.7636 C   0  0  0  0  0  0  0  0  0  0  0  0
  -25.3751  -27.4754   20.6668 C   0  0  0  0  0  0  0  0  0  0  0  0
  -31.1126  -25.1158   20.3700 C   0  0  0  0  0  0  0  0  0  0  0  0
  -29.5988  -23.4681   19.4588 C   0  0  0  0  0  0  0  0  0  0  0  0
  -22.7739  -10.6080   21.9532 C   0  0  0  0  0  0  0  0  0  0  0  0
  -27.6678  -28.2493   20.4324 C   0  0  0  0  0  0  0  0  0  0  0  0
  -22.5512   -8.3836   22.6775 C   0  0  0  0  0  0  0  0  0  0  0  0
  -23.6062   -5.8076   22.8611 C   0  0  0  0  0  0  0  0  0  0  0  0
  -22.8525   -7.6691   21.5180 C   0  0  0  0  0  0  0  0  0  0  0  0
  -25.0899  -13.5468   19.9789 C   0  0  0  0  0  0  0  0  0  0  0  0
  -26.3652  -14.6337   18.5551 C   0  0  0  0  0  0  0  0  0  0  0  0
  -30.0094  -21.0479   19.8526 C   0  0  0  0  0  0  0  0  0  0  0  0
  -29.7113  -20.1947   20.8536 C   0  0  0  0  0  0  0  0  0  0  0  0
  -25.8724  -12.2768   17.8837 C   0  0  0  0  0  0  0  0  0  0  0  0
  -29.3536  -18.8008   20.5222 C   0  0  0  0  0  0  0  0  0  0  0  0
  -22.5295  -28.6457   22.1369 C   0  0  0  0  0  0  0  0  0  0  0  0
  -22.0167  -25.6683   20.9561 C   0  0  0  0  0  0  0  0  0  0  0  0
  -23.2849  -22.9158   19.3868 C   0  0  0  0  0  0  0  0  0  0  0  0
  -18.3405  -28.9781   25.0351 C   0  0  0  0  0  0  0  0  0  0  0  0
  -23.4547  -28.8641   19.8019 C   0  0  0  0  0  0  0  0  0  0  0  0
  -24.4210  -26.4106   21.1403 C   0  0  0  0  0  0  0  0  0  0  0  0
  -19.4111  -27.9200   24.7810 C   0  0  0  0  0  0  0  0  0  0  0  0
  -25.7177  -19.0440   20.9132 C   0  0  0  0  0  0  0  0  0  0  0  0
  -20.8038  -28.5324   24.8921 C   0  0  0  0  0  0  0  0  0  0  0  0
  -25.2967  -17.6010   20.6482 C   0  0  0  0  0  0  0  0  0  0  0  0
  -27.0709  -19.1245   21.6181 C   0  0  0  0  0  0  0  0  0  0  0  0
  -27.7361  -16.9456   20.6431 C   0  0  0  0  0  0  0  0  0  0  0  0
  -21.0088  -29.6310   23.8421 C   0  0  1  0  0  0  0  0  0  0  0  0
  -22.5677  -28.0650   20.7517 C   0  0  1  0  0  0  0  0  0  0  0  0
  -26.3992  -16.8423   19.8925 C   0  0  1  0  0  0  0  0  0  0  0  0
  -28.3684  -23.1681   18.6643 C   0  0  0  0  0  0  0  0  0  0  0  0
  -22.6339  -20.6259   18.5933 C   0  0  0  0  0  0  0  0  0  0  0  0
  -22.1126  -24.6478   23.8300 C   0  0  0  0  0  0  0  0  0  0  0  0
  -22.4132  -22.3331   22.9243 C   0  0  0  0  0  0  0  0  0  0  0  0
  -20.3321  -23.6100   22.4133 C   0  0  0  0  0  0  0  0  0  0  0  0
  -23.9024  -23.5891   16.5718 C   0  0  0  0  0  0  0  0  0  0  0  0
  -31.5125  -26.5570   20.5612 C   0  0  0  0  0  0  0  0  0  0  0  0
  -30.9071  -27.2039   21.8088 C   0  0  0  0  0  0  0  0  0  0  0  0
  -29.3857  -27.2886   21.7672 C   0  0  0  0  0  0  0  0  0  1  0  0
  -22.5023  -24.2819   21.3041 C   0  0  1  0  0  0  0  0  0  0  0  0
  -22.7678  -22.0940   18.2199 C   0  0  2  0  0  0  0  0  0  0  0  0
  -21.8582  -23.7389   22.6109 C   0  0  0  0  0  0  0  0  0  0  0  0
  -25.2294  -14.7622   20.5150 N   0  0  0  0  0  0  0  0  0  0  0  0
  -26.0101  -15.3998   19.6262 N   0  0  0  0  0  0  0  0  0  0  0  0
  -28.0949  -18.3433   20.9081 N   0  0  0  0  0  0  0  0  0  0  0  0
  -22.9946  -26.6706   20.8849 N   0  0  0  0  0  0  0  0  0  0  0  0
  -27.1471  -15.1187   17.5673 N   0  0  0  0  0  0  0  0  0  0  0  0
  -25.2055  -11.0975   18.2428 N   0  0  0  0  0  0  0  0  0  0  0  0
  -21.2715  -29.0469   22.5443 N   0  0  0  0  0  0  0  0  0  0  0  0
  -22.2547  -23.4554   20.1277 N   0  0  0  0  0  0  0  0  0  0  0  0
  -23.6965  -22.2009   17.0592 N   0  3  0  0  0  0  0  0  0  0  0  0
  -26.5437  -12.3043   16.8244 O   0  0  0  0  0  0  0  0  0  0  0  0
  -30.1943  -18.1242   19.9272 O   0  0  0  0  0  0  0  0  0  0  0  0
  -23.5645  -28.7226   22.7886 O   0  0  0  0  0  0  0  0  0  0  0  0
  -20.8151  -25.8536   20.7479 O   0  0  0  0  0  0  0  0  0  0  0  0
  -24.4827  -23.0613   19.6201 O   0  0  0  0  0  0  0  0  0  0  0  0
  -22.0283   -9.6627   22.5880 O   0  0  0  0  0  0  0  0  0  0  0  0
  -29.0005  -28.0542   20.6262 O   0  0  0  0  0  0  0  0  0  1  0  0
  -24.1141   -4.5713   22.9494 F   0  0  0  0  0  0  0  0  0  0  0  0
  -22.6384   -8.2152   20.3132 F   0  0  0  0  0  0  0  0  0  0  0  0
  1  2  1  0  0  0  0
  1  6  2  0  0  0  0
  2  7  2  0  0  0  0
  3 10  2  0  0  0  0
  3 18  1  0  0  0  0
  4 11  1  0  0  0  0
  4 18  2  0  0  0  0
  5  9  2  0  0  0  0
  5 19  1  0  0  0  0
  6 21  1  0  0  0  0
  7 23  1  0  0  0  0
  8 12  2  0  0  0  0
  8 22  1  0  0  0  0
  9 25  1  0  0  0  0
 10 27  1  0  0  0  0
 11 27  2  0  0  0  0
 12 28  1  0  0  0  0
 13 14  2  0  0  0  0
 13 29  1  0  0  0  0
 14 30  1  0  0  0  0
 15 24  1  0  0  0  0
 15 28  2  0  0  0  0
 16 25  2  0  0  0  0
 16 26  1  0  0  0  0
 17 30  2  0  0  0  0
 17 31  1  0  0  0  0
 18 32  1  0  0  0  0
 19 26  2  0  0  0  0
 19 34  1  0  0  0  0
 20 32  1  0  0  0  0
 20 33  2  0  0  0  0
 20 36  1  0  0  0  0
 21 23  2  0  0  0  0
 21 41  1  0  0  0  0
 22 24  2  0  0  0  0
 22 42  1  0  0  0  0
 23 50  1  0  0  0  0
 24 43  1  0  0  0  0
 25 59  1  0  0  0  0
 26 53  1  0  0  0  0
 27 79  1  0  0  0  0
 28 80  1  0  0  0  0
 29 31  2  0  0  0  0
 29 79  1  0  0  0  0
 30 81  1  0  0  0  0
 31 82  1  0  0  0  0
 32 65  2  0  0  0  0
 33 66  1  0  0  0  0
 33 69  1  0  0  0  0
 34 35  2  0  0  0  0
 35 37  1  0  0  0  0
 36 70  1  0  0  0  0
 36 74  2  0  0  0  0
 37 67  1  0  0  0  0
 37 75  2  0  0  0  0
 38 51  1  0  0  0  0
 38 71  1  0  0  0  0
 38 76  2  0  0  0  0
 39 62  1  0  0  0  0
 39 68  1  0  0  0  0
 39 77  2  0  0  0  0
 40 63  1  0  0  0  0
 40 72  1  0  0  0  0
 40 78  2  0  0  0  0
 41 44  1  0  0  0  0
 42 51  1  0  0  0  0
 43 68  1  0  0  0  0
 44 46  1  0  0  0  0
 45 47  1  0  0  0  0
 45 48  1  0  0  0  0
 46 50  1  0  0  0  0
 47 52  1  0  0  0  0
 48 67  1  0  0  0  0
 49 52  1  0  0  0  0
 49 67  1  0  0  0  0
 50 71  1  0  0  0  0
 51 68  1  0  0  0  0
 52 66  1  0  0  0  0
 54 63  1  0  0  0  0
 55 64  1  0  0  0  0
 56 64  1  0  0  0  0
 57 64  1  0  0  0  0
 58 73  1  0  0  0  0
 59 60  1  0  0  0  0
 60 61  1  0  0  0  0
 61 80  1  0  0  0  0
 62 64  1  0  0  0  0
 62 72  1  0  0  0  0
 63 73  1  0  0  0  0
 65 66  1  0  0  0  0
M  CHG  1  73   1
M  ISO  4  35 100  37 100  61 101  80 101
M  END
> <Batch ID>
0127

> <Smiles>
CNC(C)C(=O)NC(C(=O)N1Cc2cc([101O:1][101CH2:1]CCc3ccc(C=[100CH:0][100C:0](=O)N4CCCC(n5nc(-c6ccc(Oc7ccc(F)cc7F)cc6)c(C(N)=O)c5N)C4)c(C)c3)ccc2CC1C(=O)NC1CCCc2ccccc21)C(C)(C)C

> <Shape>
0.244

> <Color>
0.087

> <Negative vol penalty>
0.000

$$$$

  -OEChem-04052302143D

 82 90  0     1  0  0  0  0  0999 V2000
  -28.4400  -24.2204   16.9149 C   0  0  0  0  0  0  0  0  0  0  0  0
  -27.2730  -24.3525   17.6606 C   0  0  0  0  0  0  0  0  0  0  0  0
  -26.9654  -13.3066   20.1844 C   0  0  0  0  0  0  0  0  0  0  0  0
  -24.6311  -13.9169   20.3096 C   0  0  0  0  0  0  0  0  0  0  0  0
  -18.6476  -21.8514   19.4170 C   0  0  0  0  0  0  0  0  0  0  0  0
  -29.6088  -24.8552   17.3332 C   0  0  0  0  0  0  0  0  0  0  0  0
  -27.2743  -25.1186   18.8257 C   0  0  0  0  0  0  0  0  0  0  0  0
  -23.2399  -28.1617   19.1547 C   0  0  0  0  0  0  0  0  0  0  0  0
  -19.0596  -20.7573   18.6563 C   0  0  0  0  0  0  0  0  0  0  0  0
  -26.6956  -12.1308   20.8844 C   0  0  0  0  0  0  0  0  0  0  0  0
  -24.3612  -12.7410   21.0095 C   0  0  0  0  0  0  0  0  0  0  0  0
  -22.0346  -27.5809   19.5466 C   0  0  0  0  0  0  0  0  0  0  0  0
  -22.9951   -9.7268   22.5150 C   0  0  0  0  0  0  0  0  0  0  0  0
  -21.8766   -8.9860   22.1331 C   0  0  0  0  0  0  0  0  0  0  0  0
  -20.9425  -22.2868   20.0341 C   0  0  0  0  0  0  0  0  0  0  0  0
  -22.3747  -28.4025   21.7890 C   0  0  0  0  0  0  0  0  0  0  0  0
  -22.8071   -8.7225   19.9191 C   0  0  0  0  0  0  0  0  0  0  0  0
  -25.9332  -14.1998   19.8970 C   0  0  0  0  0  0  0  0  0  0  0  0
  -19.5890  -22.6162   20.1059 C   0  0  0  0  0  0  0  0  0  0  0  0
  -26.7524  -15.5293   17.8798 C   0  0  0  0  0  0  0  0  0  0  0  0
  -29.6220  -25.6373   18.4989 C   0  0  0  0  0  0  0  0  0  0  0  0
  -24.0283  -28.8591   20.0811 C   0  0  0  0  0  0  0  0  0  0  0  0
  -28.4447  -25.7633   19.2607 C   0  0  0  0  0  0  0  0  0  0  0  0
  -23.5884  -28.9935   21.4057 C   0  0  0  0  0  0  0  0  0  0  0  0
  -20.4131  -20.4278   18.5846 C   0  0  0  0  0  0  0  0  0  0  0  0
  -21.3546  -21.1926   19.2735 C   0  0  0  0  0  0  0  0  0  0  0  0
  -25.3935  -11.8479   21.2970 C   0  0  0  0  0  0  0  0  0  0  0  0
  -21.6032  -27.6988   20.8646 C   0  0  0  0  0  0  0  0  0  0  0  0
  -24.0196   -9.9655   21.5989 C   0  0  0  0  0  0  0  0  0  0  0  0
  -21.7826   -8.4839   20.8352 C   0  0  0  0  0  0  0  0  0  0  0  0
  -23.9256   -9.4633   20.3010 C   0  0  0  0  0  0  0  0  0  0  0  0
  -26.2115  -15.4149   19.1745 C   0  0  0  0  0  0  0  0  0  0  0  0
  -26.8192  -16.8824   17.6539 C   0  0  0  0  0  0  0  0  0  0  0  0
  -19.1525  -23.7712   20.9079 C   0  0  0  0  0  0  0  0  0  0  0  0
  -19.8639  -24.3416   21.8929 C   0  0  0  0  0  0  0  0  0  0  0  0
  -27.1581  -14.5040   16.9634 C   0  0  0  0  0  0  0  0  0  0  0  0
  -26.9583  -28.4936   21.2581 C   0  0  0  0  0  0  0  0  0  0  0  0
  -26.3272  -31.3465   22.6669 C   0  0  0  0  0  0  0  0  0  0  0  0
  -23.9947  -33.5645   23.8013 C   0  0  0  0  0  0  0  0  0  0  0  0
  -23.7840  -21.5413   19.8417 C   0  0  0  0  0  0  0  0  0  0  0  0
  -30.9213  -26.2657   18.9367 C   0  0  0  0  0  0  0  0  0  0  0  0
  -25.3130  -29.5027   19.6362 C   0  0  0  0  0  0  0  0  0  0  0  0
  -24.3881  -29.7493   22.4341 C   0  0  0  0  0  0  0  0  0  0  0  0
  -30.7448  -27.3653   19.9807 C   0  0  0  0  0  0  0  0  0  0  0  0
  -27.3075  -21.0460   19.9691 C   0  0  0  0  0  0  0  0  0  0  0  0
  -29.7933  -26.9081   21.0819 C   0  0  0  0  0  0  0  0  0  0  0  0
  -27.4760  -19.5574   19.6560 C   0  0  0  0  0  0  0  0  0  0  0  0
  -26.0605  -21.3109   20.8109 C   0  0  0  0  0  0  0  0  0  0  0  0
  -24.9829  -19.2684   19.9528 C   0  0  0  0  0  0  0  0  0  0  0  0
  -28.4001  -26.6060   20.5169 C   0  0  1  0  0  0  0  0  0  0  0  0
  -26.2859  -29.7511   20.7847 C   0  0  1  0  0  0  0  0  0  0  0  0
  -26.1900  -18.9596   19.0522 C   0  0  2  0  0  0  0  0  0  0  0  0
  -20.8257  -19.2496   17.7631 C   0  0  0  0  0  0  0  0  0  0  0  0
  -23.7832  -35.7913   24.9387 C   0  0  0  0  0  0  0  0  0  0  0  0
  -27.0705  -30.0545   25.3293 C   0  0  0  0  0  0  0  0  0  0  0  0
  -25.9529  -31.9699   26.4913 C   0  0  0  0  0  0  0  0  0  0  0  0
  -27.9279  -32.3840   25.0248 C   0  0  0  0  0  0  0  0  0  0  0  0
  -22.5516  -34.7344   21.4974 C   0  0  0  0  0  0  0  0  0  0  0  0
  -19.3735  -25.5146   22.6969 C   0  0  0  0  0  0  0  0  0  0  0  0
  -20.3291  -26.6985   22.6058 C   0  0  0  0  0  0  0  0  0  1  0  0
  -25.7090  -31.7797   23.9743 C   0  0  1  0  0  0  0  0  0  0  0  0
  -23.8505  -35.0629   23.6054 C   0  0  2  0  0  0  0  0  0  0  0  0
  -26.6507  -31.5311   25.1862 C   0  0  0  0  0  0  0  0  0  0  0  0
  -25.9532  -16.6009   19.7320 N   0  0  0  0  0  0  0  0  0  0  0  0
  -26.3336  -17.4733   18.7831 N   0  0  0  0  0  0  0  0  0  0  0  0
  -25.6401  -30.3553   21.9518 N   0  0  0  0  0  0  0  0  0  0  0  0
  -24.8813  -20.7193   20.1751 N   0  0  0  0  0  0  0  0  0  0  0  0
  -27.2456  -17.6125   16.6015 N   0  0  0  0  0  0  0  0  0  0  0  0
  -26.2113  -14.0028   16.0596 N   0  0  0  0  0  0  0  0  0  0  0  0
  -22.7339  -20.8738   19.2121 N   0  0  0  0  0  0  0  0  0  0  0  0
  -27.6747  -27.8351   20.2769 N   0  0  0  0  0  0  0  0  0  0  0  0
  -25.3171  -33.1739   23.7983 N   0  0  0  0  0  0  0  0  0  0  0  0
  -22.6089  -35.3682   22.8398 N   0  3  0  0  0  0  0  0  0  0  0  0
  -28.3212  -14.0342   16.9574 O   0  0  0  0  0  0  0  0  0  0  0  0
  -26.8375  -28.1471   22.4273 O   0  0  0  0  0  0  0  0  0  0  0  0
  -27.3771  -31.8734   22.2904 O   0  0  0  0  0  0  0  0  0  0  0  0
  -23.0308  -32.8159   23.9463 O   0  0  0  0  0  0  0  0  0  0  0  0
  -23.7876  -22.7534   20.0715 O   0  0  0  0  0  0  0  0  0  0  0  0
  -25.1297  -10.7004   21.9798 O   0  0  0  0  0  0  0  0  0  0  0  0
  -20.4274  -27.1323   21.2499 O   0  0  0  0  0  0  0  0  0  1  0  0
  -20.7092   -7.7712   20.4690 F   0  0  0  0  0  0  0  0  0  0  0  0
  -24.9071   -9.6883   19.4169 F   0  0  0  0  0  0  0  0  0  0  0  0
  1  2  1  0  0  0  0
  1  6  2  0  0  0  0
  2  7  2  0  0  0  0
  3 10  2  0  0  0  0
  3 18  1  0  0  0  0
  4 11  1  0  0  0  0
  4 18  2  0  0  0  0
  5  9  2  0  0  0  0
  5 19  1  0  0  0  0
  6 21  1  0  0  0  0
  7 23  1  0  0  0  0
  8 12  2  0  0  0  0
  8 22  1  0  0  0  0
  9 25  1  0  0  0  0
 10 27  1  0  0  0  0
 11 27  2  0  0  0  0
 12 28  1  0  0  0  0
 13 14  2  0  0  0  0
 13 29  1  0  0  0  0
 14 30  1  0  0  0  0
 15 19  2  0  0  0  0
 15 26  1  0  0  0  0
 16 24  1  0  0  0  0
 16 28  2  0  0  0  0
 17 30  2  0  0  0  0
 17 31  1  0  0  0  0
 18 32  1  0  0  0  0
 19 34  1  0  0  0  0
 20 32  1  0  0  0  0
 20 33  2  0  0  0  0
 20 36  1  0  0  0  0
 21 23  2  0  0  0  0
 21 41  1  0  0  0  0
 22 24  2  0  0  0  0
 22 42  1  0  0  0  0
 23 50  1  0  0  0  0
 24 43  1  0  0  0  0
 25 26  2  0  0  0  0
 25 53  1  0  0  0  0
 26 70  1  0  0  0  0
 27 79  1  0  0  0  0
 28 80  1  0  0  0  0
 29 31  2  0  0  0  0
 29 79  1  0  0  0  0
 30 81  1  0  0  0  0
 31 82  1  0  0  0  0
 32 64  2  0  0  0  0
 33 65  1  0  0  0  0
 33 68  1  0  0  0  0
 34 35  2  0  0  0  0
 35 59  1  0  0  0  0
 36 69  1  0  0  0  0
 36 74  2  0  0  0  0
 37 51  1  0  0  0  0
 37 71  1  0  0  0  0
 37 75  2  0  0  0  0
 38 61  1  0  0  0  0
 38 66  1  0  0  0  0
 38 76  2  0  0  0  0
 39 62  1  0  0  0  0
 39 72  1  0  0  0  0
 39 77  2  0  0  0  0
 40 67  1  0  0  0  0
 40 70  1  0  0  0  0
 40 78  2  0  0  0  0
 41 44  1  0  0  0  0
 42 51  1  0  0  0  0
 43 66  1  0  0  0  0
 44 46  1  0  0  0  0
 45 47  1  0  0  0  0
 45 48  1  0  0  0  0
 46 50  1  0  0  0  0
 47 52  1  0  0  0  0
 48 67  1  0  0  0  0
 49 52  1  0  0  0  0
 49 67  1  0  0  0  0
 50 71  1  0  0  0  0
 51 66  1  0  0  0  0
 52 65  1  0  0  0  0
 54 62  1  0  0  0  0
 55 63  1  0  0  0  0
 56 63  1  0  0  0  0
 57 63  1  0  0  0  0
 58 73  1  0  0  0  0
 59 60  1  0  0  0  0
 60 80  1  0  0  0  0
 61 63  1  0  0  0  0
 61 72  1  0  0  0  0
 62 73  1  0  0  0  0
 64 65  1  0  0  0  0
M  CHG  1  73   1
M  ISO  4  40 100  60 101  70 100  80 101
M  END
> <Batch ID>
0127

> <Smiles>
CNC(C)C(=O)NC(C(=O)N1Cc2cc([101O:1][101CH2:1]CC=Cc3ccc(C)c([100NH:0][100C:0](=O)N4CCCC(n5nc(-c6ccc(Oc7ccc(F)cc7F)cc6)c(C(N)=O)c5N)C4)c3)ccc2CC1C(=O)NC1CCCc2ccccc21)C(C)(C)C

> <Shape>
0.278

> <Color>
0.087

> <Negative vol penalty>
0.000

$$$$

  -OEChem-04052302143D

 86 94  0     1  0  0  0  0  0999 V2000
  -15.4658  -26.9576   24.3489 C   0  0  0  0  0  0  0  0  0  0  0  0
  -16.6070  -26.3974   23.7839 C   0  0  0  0  0  0  0  0  0  0  0  0
  -22.7821  -10.1789   20.1045 C   0  0  0  0  0  0  0  0  0  0  0  0
  -23.7541   -9.9452   22.3040 C   0  0  0  0  0  0  0  0  0  0  0  0
  -29.6340  -18.1024   19.6200 C   0  0  0  0  0  0  0  0  0  0  0  0
  -30.2409  -16.8940   19.9619 C   0  0  0  0  0  0  0  0  0  0  0  0
  -15.2909  -28.3408   24.3379 C   0  0  0  0  0  0  0  0  0  0  0  0
  -17.5735  -27.2201   23.2064 C   0  0  0  0  0  0  0  0  0  0  0  0
  -22.2824  -25.9132   24.5343 C   0  0  0  0  0  0  0  0  0  0  0  0
  -21.9436   -9.0938   20.3598 C   0  0  0  0  0  0  0  0  0  0  0  0
  -22.9155   -8.8601   22.5593 C   0  0  0  0  0  0  0  0  0  0  0  0
  -22.8438  -24.8125   23.8884 C   0  0  0  0  0  0  0  0  0  0  0  0
  -22.7857   -5.5736   21.7763 C   0  0  0  0  0  0  0  0  0  0  0  0
  -23.3508   -4.4421   22.3643 C   0  0  0  0  0  0  0  0  0  0  0  0
  -28.4009  -18.0710   21.6974 C   0  0  0  0  0  0  0  0  0  0  0  0
  -24.0634  -26.2978   22.4305 C   0  0  0  0  0  0  0  0  0  0  0  0
  -21.8499   -4.6691   24.2438 C   0  0  0  0  0  0  0  0  0  0  0  0
  -23.6874  -10.6045   21.0766 C   0  0  0  0  0  0  0  0  0  0  0  0
  -28.7141  -18.6910   20.4878 C   0  0  0  0  0  0  0  0  0  0  0  0
  -29.9277  -16.2739   21.1715 C   0  0  0  0  0  0  0  0  0  0  0  0
  -24.2911  -13.0831   21.0742 C   0  0  0  0  0  0  0  0  0  0  0  0
  -16.2603  -29.1815   23.7686 C   0  0  0  0  0  0  0  0  0  0  0  0
  -22.5994  -27.2165   24.1253 C   0  0  0  0  0  0  0  0  0  0  0  0
  -17.4107  -28.6158   23.1866 C   0  0  0  0  0  0  0  0  0  0  0  0
  -23.5066  -27.4133   23.0745 C   0  0  0  0  0  0  0  0  0  0  0  0
  -29.0077  -16.8625   22.0393 C   0  0  0  0  0  0  0  0  0  0  0  0
  -22.0103   -8.4345   21.5871 C   0  0  0  0  0  0  0  0  0  0  0  0
  -23.7322  -25.0047   22.8345 C   0  0  0  0  0  0  0  0  0  0  0  0
  -21.7526   -6.2530   22.4221 C   0  0  0  0  0  0  0  0  0  0  0  0
  -22.8829   -3.9898   23.5980 C   0  0  0  0  0  0  0  0  0  0  0  0
  -21.2847   -5.8007   23.6558 C   0  0  0  0  0  0  0  0  0  0  0  0
  -24.5542  -11.7250   20.8133 C   0  0  0  0  0  0  0  0  0  0  0  0
  -25.4190  -13.7397   20.6464 C   0  0  0  0  0  0  0  0  0  0  0  0
  -28.0737  -19.9681   20.1255 C   0  0  0  0  0  0  0  0  0  0  0  0
  -27.4924  -20.8037   21.0033 C   0  0  0  0  0  0  0  0  0  0  0  0
  -26.3013  -22.7918   21.7036 C   0  0  0  0  0  0  0  0  0  0  0  0
  -30.5765  -15.0127   21.5039 C   0  0  0  0  0  0  0  0  0  0  0  0
  -23.1308  -13.6963   21.6516 C   0  0  0  0  0  0  0  0  0  0  0  0
  -26.8348  -22.0769   20.6906 C   0  0  0  0  0  0  0  0  0  0  0  0
  -31.0000  -14.0639   20.4485 C   0  0  0  0  0  0  0  0  0  0  0  0
  -20.9463  -29.6620   22.9461 C   0  0  0  0  0  0  0  0  0  0  0  0
  -23.7706  -31.2238   23.2723 C   0  0  0  0  0  0  0  0  0  0  0  0
  -27.1720  -31.0456   23.4857 C   0  0  0  0  0  0  0  0  0  0  0  0
  -16.0048  -30.6676   23.7382 C   0  0  0  0  0  0  0  0  0  0  0  0
  -22.0059  -28.3935   24.8498 C   0  0  0  0  0  0  0  0  0  0  0  0
  -23.8955  -28.7924   22.6103 C   0  0  0  0  0  0  0  0  0  0  0  0
  -17.2530  -31.4943   23.4403 C   0  0  0  0  0  0  0  0  0  0  0  0
  -29.3528  -12.1202   17.9255 C   0  0  0  0  0  0  0  0  0  0  0  0
  -18.0174  -30.9008   22.2612 C   0  0  0  0  0  0  0  0  0  0  0  0
  -27.9475  -11.9233   18.4929 C   0  0  0  0  0  0  0  0  0  0  0  0
  -30.4036  -12.1395   19.0308 C   0  0  0  0  0  0  0  0  0  0  0  0
  -28.7325  -12.9629   20.6674 C   0  0  0  0  0  0  0  0  0  0  0  0
  -18.4934  -29.4767   22.5727 C   0  0  1  0  0  0  0  0  0  0  0  0
  -22.0030  -29.6699   24.0143 C   0  0  1  0  0  0  0  0  0  0  0  0
  -27.6410  -12.9657   19.5829 C   0  0  2  0  0  0  0  0  0  0  0  0
  -26.8021  -22.5080   19.2475 C   0  0  0  0  0  0  0  0  0  0  0  0
  -29.3403  -16.8963   24.5242 C   0  0  0  0  0  0  0  0  0  0  0  0
  -29.2103  -32.4924   23.7095 C   0  0  0  0  0  0  0  0  0  0  0  0
  -23.5318  -32.0106   20.3340 C   0  0  0  0  0  0  0  0  0  0  0  0
  -25.9638  -32.6044   20.3674 C   0  0  0  0  0  0  0  0  0  0  0  0
  -24.3624  -33.8290   21.8366 C   0  0  0  0  0  0  0  0  0  0  0  0
  -27.9291  -29.7826   26.0529 C   0  0  0  0  0  0  0  0  0  0  0  0
  -28.6554  -16.2194   23.3412 C   0  0  0  0  0  0  0  0  0  0  0  0
  -25.5829  -24.1038   21.6433 C   0  0  0  0  0  0  0  0  0  1  0  0
  -24.9795  -31.4415   22.3947 C   0  0  1  0  0  0  0  0  0  0  0  0
  -28.1557  -31.6843   24.4495 C   0  0  2  0  0  0  0  0  0  0  0  0
  -24.7007  -32.4452   21.2404 C   0  0  0  0  0  0  0  0  0  0  0  0
  -25.7551  -11.5290   20.2624 N   0  0  0  0  0  0  0  0  0  0  0  0
  -30.8267  -14.6391   22.7283 N   0  0  0  0  0  0  0  0  0  0  0  0
  -26.2565  -12.7727   20.1734 N   0  0  0  0  0  0  0  0  0  0  0  0
  -30.0637  -13.1134   20.0663 N   0  0  0  0  0  0  0  0  0  0  0  0
  -23.2836  -29.9111   23.3463 N   0  0  0  0  0  0  0  0  0  0  0  0
  -25.7662  -15.0442   20.6324 N   0  0  0  0  0  0  0  0  0  0  0  0
  -22.0622  -12.8747   22.0358 N   0  0  0  0  0  0  0  0  0  0  0  0
  -19.6603  -29.5096   23.4281 N   0  0  0  0  0  0  0  0  0  0  0  0
  -26.0638  -31.8411   23.2852 N   0  0  0  0  0  0  0  0  0  0  0  0
  -28.8455  -30.6374   25.2551 N   0  3  0  0  0  0  0  0  0  0  0  0
  -23.0375  -14.9375   21.8068 O   0  0  0  0  0  0  0  0  0  0  0  0
  -32.1374  -14.2204   20.0241 O   0  0  0  0  0  0  0  0  0  0  0  0
  -21.2734  -29.7865   21.7717 O   0  0  0  0  0  0  0  0  0  0  0  0
  -23.2810  -32.1818   23.8758 O   0  0  0  0  0  0  0  0  0  0  0  0
  -27.3690  -29.9522   22.9601 O   0  0  0  0  0  0  0  0  0  0  0  0
  -21.1920   -7.3758   21.8366 O   0  0  0  0  0  0  0  0  0  0  0  0
  -24.2811  -23.9321   22.2019 O   0  0  0  0  0  0  0  0  0  1  0  0
  -23.4247   -2.9023   24.1618 F   0  0  0  0  0  0  0  0  0  0  0  0
  -20.2918   -6.4485   24.2805 F   0  0  0  0  0  0  0  0  0  0  0  0
  1  2  1  0  0  0  0
  1  7  2  0  0  0  0
  2  8  2  0  0  0  0
  3 10  2  0  0  0  0
  3 18  1  0  0  0  0
  4 11  1  0  0  0  0
  4 18  2  0  0  0  0
  5  6  2  0  0  0  0
  5 19  1  0  0  0  0
  6 20  1  0  0  0  0
  7 22  1  0  0  0  0
  8 24  1  0  0  0  0
  9 12  2  0  0  0  0
  9 23  1  0  0  0  0
 10 27  1  0  0  0  0
 11 27  2  0  0  0  0
 12 28  1  0  0  0  0
 13 14  2  0  0  0  0
 13 29  1  0  0  0  0
 14 30  1  0  0  0  0
 15 19  2  0  0  0  0
 15 26  1  0  0  0  0
 16 25  1  0  0  0  0
 16 28  2  0  0  0  0
 17 30  2  0  0  0  0
 17 31  1  0  0  0  0
 18 32  1  0  0  0  0
 19 34  1  0  0  0  0
 20 26  2  0  0  0  0
 20 37  1  0  0  0  0
 21 32  1  0  0  0  0
 21 33  2  0  0  0  0
 21 38  1  0  0  0  0
 22 24  2  0  0  0  0
 22 44  1  0  0  0  0
 23 25  2  0  0  0  0
 23 45  1  0  0  0  0
 24 53  1  0  0  0  0
 25 46  1  0  0  0  0
 26 63  1  0  0  0  0
 27 83  1  0  0  0  0
 28 84  1  0  0  0  0
 29 31  2  0  0  0  0
 29 83  1  0  0  0  0
 30 85  1  0  0  0  0
 31 86  1  0  0  0  0
 32 68  2  0  0  0  0
 33 70  1  0  0  0  0
 33 73  1  0  0  0  0
 34 35  2  0  0  0  0
 35 39  1  0  0  0  0
 36 39  2  0  0  0  0
 36 64  1  0  0  0  0
 37 40  1  0  0  0  0
 37 69  2  0  0  0  0
 38 74  1  0  0  0  0
 38 78  2  0  0  0  0
 39 56  1  0  0  0  0
 40 71  1  0  0  0  0
 40 79  2  0  0  0  0
 41 54  1  0  0  0  0
 41 75  1  0  0  0  0
 41 80  2  0  0  0  0
 42 65  1  0  0  0  0
 42 72  1  0  0  0  0
 42 81  2  0  0  0  0
 43 66  1  0  0  0  0
 43 76  1  0  0  0  0
 43 82  2  0  0  0  0
 44 47  1  0  0  0  0
 45 54  1  0  0  0  0
 46 72  1  0  0  0  0
 47 49  1  0  0  0  0
 48 50  1  0  0  0  0
 48 51  1  0  0  0  0
 49 53  1  0  0  0  0
 50 55  1  0  0  0  0
 51 71  1  0  0  0  0
 52 55  1  0  0  0  0
 52 71  1  0  0  0  0
 53 75  1  0  0  0  0
 54 72  1  0  0  0  0
 55 70  1  0  0  0  0
 57 63  1  0  0  0  0
 58 66  1  0  0  0  0
 59 67  1  0  0  0  0
 60 67  1  0  0  0  0
 61 67  1  0  0  0  0
 62 77  1  0  0  0  0
 64 84  1  0  0  0  0
 65 67  1  0  0  0  0
 65 76  1  0  0  0  0
 66 77  1  0  0  0  0
 68 70  1  0  0  0  0
M  CHG  1  77   1
M  ISO  4  37 100  40 100  64 101  84 101
M  END
> <Batch ID>
0127

> <Smiles>
CCc1cc(C=CC(C)=C[101CH2:1][101O:1]c2ccc3c(c2)CN(C(=O)C(NC(=O)C(C)NC)C(C)(C)C)C(C(=O)NC2CCCc4ccccc42)C3)ccc1[100C:0](=N)[100C:0](=O)N1CCCC(n2nc(-c3ccc(Oc4ccc(F)cc4F)cc3)c(C(N)=O)c2N)C1

> <Shape>
0.369

> <Color>
0.197

> <Negative vol penalty>
0.000

$$$$

  -OEChem-04052302143D

 83 91  0     1  0  0  0  0  0999 V2000
  -23.8848  -22.0895   20.6749 C   0  0  0  0  0  0  0  0  0  0  0  0
  -25.0529  -21.4646   20.2501 C   0  0  0  0  0  0  0  0  0  0  0  0
  -25.9193  -27.4472   19.2653 C   0  0  0  0  0  0  0  0  0  0  0  0
  -26.8901  -28.6467   21.1243 C   0  0  0  0  0  0  0  0  0  0  0  0
  -30.5155  -16.6133   22.9945 C   0  0  0  0  0  0  0  0  0  0  0  0
  -32.0424  -16.2536   21.1570 C   0  0  0  0  0  0  0  0  0  0  0  0
  -30.9294  -15.4136   23.5733 C   0  0  0  0  0  0  0  0  0  0  0  0
  -32.4563  -15.0539   21.7358 C   0  0  0  0  0  0  0  0  0  0  0  0
  -23.0890  -21.4889   21.6495 C   0  0  0  0  0  0  0  0  0  0  0  0
  -25.4265  -20.2391   20.8005 C   0  0  0  0  0  0  0  0  0  0  0  0
  -28.7334  -14.1220   19.0798 C   0  0  0  0  0  0  0  0  0  0  0  0
  -24.8236  -28.3101   19.2806 C   0  0  0  0  0  0  0  0  0  0  0  0
  -25.7944  -29.5097   21.1395 C   0  0  0  0  0  0  0  0  0  0  0  0
  -29.7635  -13.2931   19.5221 C   0  0  0  0  0  0  0  0  0  0  0  0
  -23.0833  -31.8075   21.9013 C   0  0  0  0  0  0  0  0  0  0  0  0
  -22.5151  -32.1121   23.1382 C   0  0  0  0  0  0  0  0  0  0  0  0
  -28.2698  -12.3113   21.1420 C   0  0  0  0  0  0  0  0  0  0  0  0
  -22.0345  -29.7713   23.4939 C   0  0  0  0  0  0  0  0  0  0  0  0
  -26.9525  -27.6154   20.1872 C   0  0  0  0  0  0  0  0  0  0  0  0
  -31.0720  -17.0333   21.7863 C   0  0  0  0  0  0  0  0  0  0  0  0
  -31.8998  -14.6339   22.9440 C   0  0  0  0  0  0  0  0  0  0  0  0
  -29.2806  -26.8807   19.4468 C   0  0  0  0  0  0  0  0  0  0  0  0
  -23.4480  -20.2508   22.2052 C   0  0  0  0  0  0  0  0  0  0  0  0
  -27.4646  -14.0592   19.6736 C   0  0  0  0  0  0  0  0  0  0  0  0
  -24.6355  -19.6220   21.7845 C   0  0  0  0  0  0  0  0  0  0  0  0
  -27.2246  -13.1386   20.7037 C   0  0  0  0  0  0  0  0  0  0  0  0
  -24.7611  -29.3414   20.2177 C   0  0  0  0  0  0  0  0  0  0  0  0
  -29.5326  -12.3896   20.5553 C   0  0  0  0  0  0  0  0  0  0  0  0
  -23.1271  -30.4848   21.4606 C   0  0  0  0  0  0  0  0  0  0  0  0
  -21.9907  -31.0940   23.9345 C   0  0  0  0  0  0  0  0  0  0  0  0
  -22.6027  -29.4667   22.2569 C   0  0  0  0  0  0  0  0  0  0  0  0
  -28.0844  -26.7239   20.1723 C   0  0  0  0  0  0  0  0  0  0  0  0
  -30.0269  -25.7745   19.7719 C   0  0  0  0  0  0  0  0  0  0  0  0
  -30.6405  -18.2841   21.1821 C   0  0  0  0  0  0  0  0  0  0  0  0
  -29.4858  -18.9282   21.4546 C   0  0  0  0  0  0  0  0  0  0  0  0
  -32.3441  -13.3495   23.5653 C   0  0  0  0  0  0  0  0  0  0  0  0
  -29.6812  -27.9323   18.5584 C   0  0  0  0  0  0  0  0  0  0  0  0
  -29.1938  -20.1997   20.7627 C   0  0  0  0  0  0  0  0  0  0  0  0
  -25.6399  -16.1011   21.2877 C   0  0  0  0  0  0  0  0  0  0  0  0
  -23.4620  -13.7050   21.0921 C   0  0  0  0  0  0  0  0  0  0  0  0
  -22.8511  -10.3690   20.7123 C   0  0  0  0  0  0  0  0  0  0  0  0
  -22.5806  -19.6632   23.2901 C   0  0  0  0  0  0  0  0  0  0  0  0
  -26.3566  -14.9414   19.1670 C   0  0  0  0  0  0  0  0  0  0  0  0
  -25.8747  -13.0179   21.3608 C   0  0  0  0  0  0  0  0  0  0  0  0
  -22.8521  -18.1841   23.5528 C   0  0  0  0  0  0  0  0  0  0  0  0
  -30.0289  -22.5208   23.4732 C   0  0  0  0  0  0  0  0  0  0  0  0
  -24.3522  -17.9262   23.6526 C   0  0  0  0  0  0  0  0  0  0  0  0
  -29.6764  -23.8603   22.8318 C   0  0  0  0  0  0  0  0  0  0  0  0
  -29.0952  -21.4027   23.0119 C   0  0  0  0  0  0  0  0  0  0  0  0
  -28.6664  -22.6037   20.8873 C   0  0  0  0  0  0  0  0  0  0  0  0
  -25.0614  -18.2803   22.3399 C   0  0  1  0  0  0  0  0  0  0  0  0
  -25.2456  -15.1528   20.1909 C   0  0  1  0  0  0  0  0  0  0  0  0
  -29.6224  -23.7334   21.3011 C   0  0  1  0  0  0  0  0  0  0  0  0
  -20.9727   -8.7069   20.6325 C   0  0  0  0  0  0  0  0  0  0  0  0
  -23.1767  -13.8855   24.1246 C   0  0  0  0  0  0  0  0  0  0  0  0
  -22.0613  -11.6445   24.0832 C   0  0  0  0  0  0  0  0  0  0  0  0
  -21.0237  -13.5744   22.8909 C   0  0  0  0  0  0  0  0  0  0  0  0
  -23.5345   -9.5548   17.9502 C   0  0  0  0  0  0  0  0  0  0  0  0
  -32.8228  -12.1918   22.6990 C   0  0  0  0  0  0  0  0  0  0  0  0
  -31.9373  -10.9555   22.8339 C   0  0  0  0  0  0  0  0  0  0  0  0
  -30.5074  -11.1877   22.3611 C   0  0  0  0  0  0  0  0  0  1  0  0
  -23.1104  -12.5080   21.9419 C   0  0  1  0  0  0  0  0  0  0  0  0
  -21.8794   -9.6181   19.8199 C   0  0  2  0  0  0  0  0  0  0  0  0
  -22.3691  -12.9065   23.2493 C   0  0  0  0  0  0  0  0  0  0  0  0
  -28.0674  -25.6060   20.9031 N   0  0  0  0  0  0  0  0  0  0  0  0
  -32.3280  -13.2107   24.8540 N   0  0  0  0  0  0  0  0  0  0  0  0
  -29.2621  -25.0503   20.6384 N   0  0  0  0  0  0  0  0  0  0  0  0
  -29.0150  -21.3393   21.5449 N   0  0  0  0  0  0  0  0  0  0  0  0
  -24.8254  -13.9065   20.8345 N   0  0  0  0  0  0  0  0  0  0  0  0
  -31.2562  -25.3602   19.3982 N   0  0  0  0  0  0  0  0  0  0  0  0
  -28.7934  -28.9937   18.3361 N   0  0  0  0  0  0  0  0  0  0  0  0
  -24.8567  -17.2374   21.3576 N   0  0  0  0  0  0  0  0  0  0  0  0
  -22.3575  -11.6027   21.0804 N   0  0  0  0  0  0  0  0  0  0  0  0
  -22.6215   -8.7838   18.8328 N   0  3  0  0  0  0  0  0  0  0  0  0
  -30.7869  -27.9225   17.9661 O   0  0  0  0  0  0  0  0  0  0  0  0
  -29.1210  -20.1741   19.5328 O   0  0  0  0  0  0  0  0  0  0  0  0
  -26.5838  -15.8217   22.0175 O   0  0  0  0  0  0  0  0  0  0  0  0
  -22.5597  -14.4305   20.6664 O   0  0  0  0  0  0  0  0  0  0  0  0
  -23.9376   -9.9058   21.0521 O   0  0  0  0  0  0  0  0  0  0  0  0
  -23.6922  -30.1839   20.2327 O   0  0  0  0  0  0  0  0  0  0  0  0
  -30.5365  -11.5799   20.9894 O   0  0  0  0  0  0  0  0  0  1  0  0
  -21.4465  -31.3865   25.1229 F   0  0  0  0  0  0  0  0  0  0  0  0
  -22.6430  -28.1939   21.8394 F   0  0  0  0  0  0  0  0  0  0  0  0
  1  2  1  0  0  0  0
  1  9  2  0  0  0  0
  2 10  2  0  0  0  0
  3 12  2  0  0  0  0
  3 19  1  0  0  0  0
  4 13  1  0  0  0  0
  4 19  2  0  0  0  0
  5  7  2  0  0  0  0
  5 20  1  0  0  0  0
  6  8  1  0  0  0  0
  6 20  2  0  0  0  0
  7 21  1  0  0  0  0
  8 21  2  0  0  0  0
  9 23  1  0  0  0  0
 10 25  1  0  0  0  0
 11 14  2  0  0  0  0
 11 24  1  0  0  0  0
 12 27  1  0  0  0  0
 13 27  2  0  0  0  0
 14 28  1  0  0  0  0
 15 16  2  0  0  0  0
 15 29  1  0  0  0  0
 16 30  1  0  0  0  0
 17 26  1  0  0  0  0
 17 28  2  0  0  0  0
 18 30  2  0  0  0  0
 18 31  1  0  0  0  0
 19 32  1  0  0  0  0
 20 34  1  0  0  0  0
 21 36  1  0  0  0  0
 22 32  1  0  0  0  0
 22 33  2  0  0  0  0
 22 37  1  0  0  0  0
 23 25  2  0  0  0  0
 23 42  1  0  0  0  0
 24 26  2  0  0  0  0
 24 43  1  0  0  0  0
 25 51  1  0  0  0  0
 26 44  1  0  0  0  0
 27 80  1  0  0  0  0
 28 81  1  0  0  0  0
 29 31  2  0  0  0  0
 29 80  1  0  0  0  0
 30 82  1  0  0  0  0
 31 83  1  0  0  0  0
 32 65  2  0  0  0  0
 33 67  1  0  0  0  0
 33 70  1  0  0  0  0
 34 35  2  0  0  0  0
 35 38  1  0  0  0  0
 36 59  1  0  0  0  0
 36 66  2  0  0  0  0
 37 71  1  0  0  0  0
 37 75  2  0  0  0  0
 38 68  1  0  0  0  0
 38 76  2  0  0  0  0
 39 52  1  0  0  0  0
 39 72  1  0  0  0  0
 39 77  2  0  0  0  0
 40 62  1  0  0  0  0
 40 69  1  0  0  0  0
 40 78  2  0  0  0  0
 41 63  1  0  0  0  0
 41 73  1  0  0  0  0
 41 79  2  0  0  0  0
 42 45  1  0  0  0  0
 43 52  1  0  0  0  0
 44 69  1  0  0  0  0
 45 47  1  0  0  0  0
 46 48  1  0  0  0  0
 46 49  1  0  0  0  0
 47 51  1  0  0  0  0
 48 53  1  0  0  0  0
 49 68  1  0  0  0  0
 50 53  1  0  0  0  0
 50 68  1  0  0  0  0
 51 72  1  0  0  0  0
 52 69  1  0  0  0  0
 53 67  1  0  0  0  0
 54 63  1  0  0  0  0
 55 64  1  0  0  0  0
 56 64  1  0  0  0  0
 57 64  1  0  0  0  0
 58 74  1  0  0  0  0
 59 60  1  0  0  0  0
 60 61  1  0  0  0  0
 61 81  1  0  0  0  0
 62 64  1  0  0  0  0
 62 73  1  0  0  0  0
 63 74  1  0  0  0  0
 65 67  1  0  0  0  0
M  CHG  1  74   1
M  ISO  4  35 100  38 100  61 101  81 101
M  END
> <Batch ID>
0127

> <Smiles>
CNC(C)C(=O)NC(C(=O)N1Cc2cc([101O:1][101CH2:1]CCC(=N)c3ccc(C=[100CH:0][100C:0](=O)N4CCCC(n5nc(-c6ccc(Oc7ccc(F)cc7F)cc6)c(C(N)=O)c5N)C4)cc3)ccc2CC1C(=O)NC1CCCc2ccccc21)C(C)(C)C

> <Shape>
0.282

> <Color>
0.082

> <Negative vol penalty>
0.000

$$$$

  -OEChem-04052302143D

 80 88  0     1  0  0  0  0  0999 V2000
  -30.4007  -24.2876   17.6068 C   0  0  0  0  0  0  0  0  0  0  0  0
  -29.0270  -24.2107   17.8130 C   0  0  0  0  0  0  0  0  0  0  0  0
  -27.3970  -16.4780   18.9782 C   0  0  0  0  0  0  0  0  0  0  0  0
  -27.0835  -17.7170   21.0285 C   0  0  0  0  0  0  0  0  0  0  0  0
  -31.2087  -24.9396   18.5373 C   0  0  0  0  0  0  0  0  0  0  0  0
  -28.4606  -24.7851   18.9504 C   0  0  0  0  0  0  0  0  0  0  0  0
  -22.9736  -27.4718   19.3751 C   0  0  0  0  0  0  0  0  0  0  0  0
  -18.8184  -23.9797   21.1691 C   0  0  0  0  0  0  0  0  0  0  0  0
  -19.1007  -22.7870   20.5031 C   0  0  0  0  0  0  0  0  0  0  0  0
  -28.7485  -16.8229   18.9763 C   0  0  0  0  0  0  0  0  0  0  0  0
  -28.4351  -18.0619   21.0267 C   0  0  0  0  0  0  0  0  0  0  0  0
  -21.7385  -27.0150   19.8329 C   0  0  0  0  0  0  0  0  0  0  0  0
  -31.8796  -18.9693   21.7550 C   0  0  0  0  0  0  0  0  0  0  0  0
  -32.5789  -18.8609   22.9570 C   0  0  0  0  0  0  0  0  0  0  0  0
  -22.1832  -27.9949   21.9919 C   0  0  0  0  0  0  0  0  0  0  0  0
  -20.0005  -23.1727   23.1155 C   0  0  0  0  0  0  0  0  0  0  0  0
  -32.0786  -16.4986   23.0351 C   0  0  0  0  0  0  0  0  0  0  0  0
  -26.5644  -16.9251   20.0042 C   0  0  0  0  0  0  0  0  0  0  0  0
  -24.5801  -15.4373   20.6010 C   0  0  0  0  0  0  0  0  0  0  0  0
  -30.6508  -25.5306   19.6819 C   0  0  0  0  0  0  0  0  0  0  0  0
  -23.8290  -28.1853   20.2269 C   0  0  0  0  0  0  0  0  0  0  0  0
  -29.2621  -25.4445   19.8978 C   0  0  0  0  0  0  0  0  0  0  0  0
  -23.4276  -28.4618   21.5417 C   0  0  0  0  0  0  0  0  0  0  0  0
  -19.2684  -24.1725   22.4752 C   0  0  0  0  0  0  0  0  0  0  0  0
  -20.2828  -21.9800   22.4495 C   0  0  0  0  0  0  0  0  0  0  0  0
  -19.8328  -21.7872   21.1433 C   0  0  0  0  0  0  0  0  0  0  0  0
  -29.2676  -17.6148   20.0006 C   0  0  0  0  0  0  0  0  0  0  0  0
  -21.3444  -27.2741   21.1424 C   0  0  0  0  0  0  0  0  0  0  0  0
  -31.2797  -17.8423   21.1930 C   0  0  0  0  0  0  0  0  0  0  0  0
  -32.6784  -17.6256   23.5970 C   0  0  0  0  0  0  0  0  0  0  0  0
  -31.3792  -16.6069   21.8331 C   0  0  0  0  0  0  0  0  0  0  0  0
  -25.1681  -16.5697   20.0063 C   0  0  0  0  0  0  0  0  0  0  0  0
  -23.2406  -15.5600   20.3231 C   0  0  0  0  0  0  0  0  0  0  0  0
  -25.1901  -14.3699   21.3387 C   0  0  0  0  0  0  0  0  0  0  0  0
  -26.7496  -27.7077   21.3870 C   0  0  0  0  0  0  0  0  0  0  0  0
  -26.3527  -30.7070   22.5570 C   0  0  0  0  0  0  0  0  0  0  0  0
  -24.2083  -33.1760   23.5330 C   0  0  0  0  0  0  0  0  0  0  0  0
  -19.7278  -20.2494   19.1507 C   0  0  0  0  0  0  0  0  0  0  0  0
  -31.5703  -26.1837   20.6832 C   0  0  0  0  0  0  0  0  0  0  0  0
  -25.1465  -28.6942   19.7098 C   0  0  0  0  0  0  0  0  0  0  0  0
  -24.3004  -29.2411   22.4900 C   0  0  0  0  0  0  0  0  0  0  0  0
  -30.8458  -27.0912   21.6740 C   0  0  0  0  0  0  0  0  0  0  0  0
  -20.2438  -17.4036   17.0742 C   0  0  0  0  0  0  0  0  0  0  0  0
  -29.6055  -26.3959   22.2264 C   0  0  0  0  0  0  0  0  0  0  0  0
  -21.5082  -16.7603   17.6484 C   0  0  0  0  0  0  0  0  0  0  0  0
  -20.3091  -18.9289   17.1275 C   0  0  0  0  0  0  0  0  0  0  0  0
  -21.8808  -18.8481   19.0230 C   0  0  0  0  0  0  0  0  0  0  0  0
  -28.6075  -26.0766   21.1069 C   0  0  1  0  0  0  0  0  0  0  0  0
  -26.1585  -28.9667   20.8183 C   0  0  1  0  0  0  0  0  0  0  0  0
  -21.8341  -17.3116   19.0503 C   0  0  2  0  0  0  0  0  0  0  0  0
  -21.0666  -20.9250   23.1609 C   0  0  0  0  0  0  0  0  0  0  0  0
  -24.1797  -35.4998   24.4797 C   0  0  0  0  0  0  0  0  0  0  0  0
  -27.0579  -29.5922   25.3084 C   0  0  0  0  0  0  0  0  0  0  0  0
  -26.1041  -31.6745   26.3196 C   0  0  0  0  0  0  0  0  0  0  0  0
  -28.0723  -31.8195   24.7939 C   0  0  0  0  0  0  0  0  0  0  0  0
  -22.8041  -34.2504   21.1597 C   0  0  0  0  0  0  0  0  0  0  0  0
  -18.9608  -25.4622   23.1966 C   0  0  0  0  0  0  0  0  0  0  0  0
  -20.0391  -26.5185   22.9812 C   0  0  0  0  0  0  0  0  0  1  0  0
  -25.7945  -31.2921   23.8318 C   0  0  1  0  0  0  0  0  0  0  0  0
  -24.1670  -34.6592   23.2125 C   0  0  2  0  0  0  0  0  0  0  0  0
  -26.7414  -31.0782   25.0464 C   0  0  0  0  0  0  0  0  0  0  0  0
  -24.2754  -17.3540   19.3965 N   0  0  0  0  0  0  0  0  0  0  0  0
  -23.1128  -16.7134   19.6064 N   0  0  0  0  0  0  0  0  0  0  0  0
  -25.5820  -29.7119   21.9393 N   0  0  0  0  0  0  0  0  0  0  0  0
  -20.6175  -19.3786   18.4868 N   0  0  0  0  0  0  0  0  0  0  0  0
  -22.1715  -14.7928   20.6241 N   0  0  0  0  0  0  0  0  0  0  0  0
  -26.5779  -14.3993   21.5323 N   0  0  0  0  0  0  0  0  0  0  0  0
  -20.1092  -20.5828   20.4499 N   0  0  0  0  0  0  0  0  0  0  0  0
  -27.8792  -27.2672   20.7242 N   0  0  0  0  0  0  0  0  0  0  0  0
  -25.4991  -32.6914   23.5436 N   0  0  0  0  0  0  0  0  0  0  0  0
  -22.9345  -34.9886   22.4422 N   0  3  0  0  0  0  0  0  0  0  0  0
  -24.5263  -13.4098   21.7982 O   0  0  0  0  0  0  0  0  0  0  0  0
  -26.2207  -27.1762   22.3563 O   0  0  0  0  0  0  0  0  0  0  0  0
  -27.4293  -31.1228   22.1215 O   0  0  0  0  0  0  0  0  0  0  0  0
  -23.1968  -32.5142   23.7556 O   0  0  0  0  0  0  0  0  0  0  0  0
  -18.6891  -20.6469   18.6166 O   0  0  0  0  0  0  0  0  0  0  0  0
  -30.5864  -17.9513   19.9993 O   0  0  0  0  0  0  0  0  0  0  0  0
  -20.1396  -26.8288   21.5920 O   0  0  0  0  0  0  0  0  0  1  0  0
  -33.3513  -17.5214   24.7505 F   0  0  0  0  0  0  0  0  0  0  0  0
  -30.8060  -15.5205   21.2975 F   0  0  0  0  0  0  0  0  0  0  0  0
  1  2  1  0  0  0  0
  1  5  2  0  0  0  0
  2  6  2  0  0  0  0
  3 10  2  0  0  0  0
  3 18  1  0  0  0  0
  4 11  1  0  0  0  0
  4 18  2  0  0  0  0
  5 20  1  0  0  0  0
  6 22  1  0  0  0  0
  7 12  2  0  0  0  0
  7 21  1  0  0  0  0
  8  9  2  0  0  0  0
  8 24  1  0  0  0  0
  9 26  1  0  0  0  0
 10 27  1  0  0  0  0
 11 27  2  0  0  0  0
 12 28  1  0  0  0  0
 13 14  2  0  0  0  0
 13 29  1  0  0  0  0
 14 30  1  0  0  0  0
 15 23  1  0  0  0  0
 15 28  2  0  0  0  0
 16 24  2  0  0  0  0
 16 25  1  0  0  0  0
 17 30  2  0  0  0  0
 17 31  1  0  0  0  0
 18 32  1  0  0  0  0
 19 32  1  0  0  0  0
 19 33  2  0  0  0  0
 19 34  1  0  0  0  0
 20 22  2  0  0  0  0
 20 39  1  0  0  0  0
 21 23  2  0  0  0  0
 21 40  1  0  0  0  0
 22 48  1  0  0  0  0
 23 41  1  0  0  0  0
 24 57  1  0  0  0  0
 25 26  2  0  0  0  0
 25 51  1  0  0  0  0
 26 68  1  0  0  0  0
 27 77  1  0  0  0  0
 28 78  1  0  0  0  0
 29 31  2  0  0  0  0
 29 77  1  0  0  0  0
 30 79  1  0  0  0  0
 31 80  1  0  0  0  0
 32 62  2  0  0  0  0
 33 63  1  0  0  0  0
 33 66  1  0  0  0  0
 34 67  1  0  0  0  0
 34 72  2  0  0  0  0
 35 49  1  0  0  0  0
 35 69  1  0  0  0  0
 35 73  2  0  0  0  0
 36 59  1  0  0  0  0
 36 64  1  0  0  0  0
 36 74  2  0  0  0  0
 37 60  1  0  0  0  0
 37 70  1  0  0  0  0
 37 75  2  0  0  0  0
 38 65  1  0  0  0  0
 38 68  1  0  0  0  0
 38 76  2  0  0  0  0
 39 42  1  0  0  0  0
 40 49  1  0  0  0  0
 41 64  1  0  0  0  0
 42 44  1  0  0  0  0
 43 45  1  0  0  0  0
 43 46  1  0  0  0  0
 44 48  1  0  0  0  0
 45 50  1  0  0  0  0
 46 65  1  0  0  0  0
 47 50  1  0  0  0  0
 47 65  1  0  0  0  0
 48 69  1  0  0  0  0
 49 64  1  0  0  0  0
 50 63  1  0  0  0  0
 52 60  1  0  0  0  0
 53 61  1  0  0  0  0
 54 61  1  0  0  0  0
 55 61  1  0  0  0  0
 56 71  1  0  0  0  0
 57 58  1  0  0  0  0
 58 78  1  0  0  0  0
 59 61  1  0  0  0  0
 59 70  1  0  0  0  0
 60 71  1  0  0  0  0
 62 63  1  0  0  0  0
M  CHG  1  71   1
M  ISO  4  38 100  58 101  68 100  78 101
M  END
> <Batch ID>
0127

> <Smiles>
CNC(C)C(=O)NC(C(=O)N1Cc2cc([101O:1][101CH2:1]Cc3ccc([100NH:0][100C:0](=O)N4CCCC(n5nc(-c6ccc(Oc7ccc(F)cc7F)cc6)c(C(N)=O)c5N)C4)c(C)c3)ccc2CC1C(=O)NC1CCCc2ccccc21)C(C)(C)C

> <Shape>
0.252

> <Color>
0.075

> <Negative vol penalty>
0.000

$$$$

  -OEChem-04052302143D

 88 97  0     1  0  0  0  0  0999 V2000
  -27.1129  -38.5992   23.3822 C   0  0  0  0  0  0  0  0  0  0  0  0
  -27.8841  -37.5059   23.7633 C   0  0  0  0  0  0  0  0  0  0  0  0
  -24.8840   -6.8195   21.9548 C   0  0  0  0  0  0  0  0  0  0  0  0
  -22.6772   -7.8011   21.8972 C   0  0  0  0  0  0  0  0  0  0  0  0
  -27.5262  -19.1782   19.2453 C   0  0  0  0  0  0  0  0  0  0  0  0
  -29.2859  -18.8815   17.6167 C   0  0  0  0  0  0  0  0  0  0  0  0
  -25.7216  -38.5124   23.4084 C   0  0  0  0  0  0  0  0  0  0  0  0
  -27.2645  -36.3254   24.1718 C   0  0  0  0  0  0  0  0  0  0  0  0
  -28.5065  -30.1090   20.7505 C   0  0  0  0  0  0  0  0  0  0  0  0
  -27.6685  -20.5623   19.1469 C   0  0  0  0  0  0  0  0  0  0  0  0
  -29.4282  -20.2655   17.5182 C   0  0  0  0  0  0  0  0  0  0  0  0
  -24.4341   -5.8610   22.8628 C   0  0  0  0  0  0  0  0  0  0  0  0
  -22.2271   -6.8425   22.8051 C   0  0  0  0  0  0  0  0  0  0  0  0
  -28.8542  -28.8423   20.2807 C   0  0  0  0  0  0  0  0  0  0  0  0
  -21.2751   -3.6007   22.7348 C   0  0  0  0  0  0  0  0  0  0  0  0
  -20.0519   -2.9844   22.4712 C   0  0  0  0  0  0  0  0  0  0  0  0
  -27.2357  -27.8345   21.7682 C   0  0  0  0  0  0  0  0  0  0  0  0
  -19.1810   -3.8173   24.5653 C   0  0  0  0  0  0  0  0  0  0  0  0
  -24.0056   -7.7896   21.4721 C   0  0  0  0  0  0  0  0  0  0  0  0
  -28.3350  -18.3378   18.4803 C   0  0  0  0  0  0  0  0  0  0  0  0
  -25.0158   -8.5522   19.2572 C   0  0  0  0  0  0  0  0  0  0  0  0
  -25.0846  -37.3271   23.8082 C   0  0  0  0  0  0  0  0  0  0  0  0
  -27.5099  -30.2445   21.7210 C   0  0  0  0  0  0  0  0  0  0  0  0
  -25.8633  -36.2231   24.2046 C   0  0  0  0  0  0  0  0  0  0  0  0
  -26.8743  -29.1017   22.2336 C   0  0  0  0  0  0  0  0  0  0  0  0
  -28.6194  -21.1060   18.2833 C   0  0  0  0  0  0  0  0  0  0  0  0
  -23.1056   -5.8725   23.2879 C   0  0  0  0  0  0  0  0  0  0  0  0
  -28.2206  -27.7079   20.7885 C   0  0  0  0  0  0  0  0  0  0  0  0
  -21.4513   -4.3252   23.9137 C   0  0  0  0  0  0  0  0  0  0  0  0
  -19.0048   -3.0927   23.3864 C   0  0  0  0  0  0  0  0  0  0  0  0
  -20.4043   -4.4335   24.8289 C   0  0  0  0  0  0  0  0  0  0  0  0
  -24.4700   -8.7804   20.5346 C   0  0  0  0  0  0  0  0  0  0  0  0
  -25.2959   -9.8071   18.7743 C   0  0  0  0  0  0  0  0  0  0  0  0
  -27.7526  -24.5199   19.1731 C   0  0  0  0  0  0  0  0  0  0  0  0
  -28.4945  -23.3832   19.2608 C   0  0  0  0  0  0  0  0  0  0  0  0
  -27.6490  -23.2607   16.1562 C   0  0  0  0  0  0  0  0  0  0  0  0
  -28.1866  -16.8946   18.5831 C   0  0  0  0  0  0  0  0  0  0  0  0
  -27.6087  -16.2379   19.6115 C   0  0  0  0  0  0  0  0  0  0  0  0
  -25.2488   -7.3163   18.5687 C   0  0  0  0  0  0  0  0  0  0  0  0
  -27.5247  -14.7643   19.5643 C   0  0  0  0  0  0  0  0  0  0  0  0
  -25.4879  -32.5626   23.8690 C   0  0  0  0  0  0  0  0  0  0  0  0
  -23.5771  -30.3817   22.8675 C   0  0  0  0  0  0  0  0  0  0  0  0
  -20.8820  -28.5733   21.8170 C   0  0  0  0  0  0  0  0  0  0  0  0
  -23.5778  -37.2964   23.8654 C   0  0  0  0  0  0  0  0  0  0  0  0
  -27.1462  -31.5846   22.3006 C   0  0  0  0  0  0  0  0  0  0  0  0
  -25.8324  -29.2930   23.3017 C   0  0  0  0  0  0  0  0  0  0  0  0
  -27.0082  -24.9689   17.9201 C   0  0  0  0  0  0  0  0  0  0  0  0
  -26.5288  -23.8742   16.9671 C   0  0  0  0  0  0  0  0  0  0  0  0
  -28.9821  -23.0534   16.8322 C   0  0  0  0  0  0  0  0  0  0  0  0
  -23.0001  -35.8861   23.9530 C   0  0  0  0  0  0  0  0  0  0  0  0
  -23.9979  -14.3715   20.4808 C   0  0  0  0  0  0  0  0  0  0  0  0
  -23.7477  -35.0672   25.0006 C   0  0  0  0  0  0  0  0  0  0  0  0
  -23.8713  -12.8508   20.5160 C   0  0  0  0  0  0  0  0  0  0  0  0
  -25.3769  -14.8412   20.9417 C   0  0  0  0  0  0  0  0  0  0  0  0
  -26.3756  -12.6882   20.2295 C   0  0  0  0  0  0  0  0  0  0  0  0
  -25.2281  -34.9172   24.6302 C   0  0  1  0  0  0  0  0  0  0  0  0
  -25.6516  -31.7064   22.6478 C   0  0  1  0  0  0  0  0  0  0  0  0
  -25.0120  -12.1911   19.7249 C   0  0  1  0  0  0  0  0  0  0  0  0
  -29.1803  -23.0110   20.5632 C   0  0  0  0  0  0  0  0  0  0  0  0
  -18.5656  -27.9051   22.5136 C   0  0  0  0  0  0  0  0  0  0  0  0
  -24.7532  -28.3659   24.8314 C   0  0  0  0  0  0  0  0  0  0  0  0
  -22.5738  -27.1355   24.7638 C   0  0  0  0  0  0  0  0  0  0  0  0
  -22.6545  -29.4803   25.6112 C   0  0  0  0  0  0  0  0  0  0  0  0
  -19.6676  -29.8971   19.4650 C   0  0  0  0  0  0  0  0  0  0  0  0
  -27.5437  -25.4747   20.3279 C   0  0  0  0  0  0  0  0  0  1  0  0
  -22.9293  -29.0469   23.1356 C   0  0  1  0  0  0  0  0  0  0  0  0
  -19.4047  -28.9153   21.7466 C   0  0  2  0  0  0  0  0  0  0  0  0
  -23.2423  -28.5120   24.5616 C   0  0  0  0  0  0  0  0  0  0  0  0
  -24.4064  -10.0782   20.8438 N   0  0  0  0  0  0  0  0  0  0  0  0
  -24.9159  -10.6768   19.7538 N   0  0  0  0  0  0  0  0  0  0  0  0
  -28.7648  -22.5190   18.1826 N   0  0  0  0  0  0  0  0  0  0  0  0
  -26.4519  -14.1533   20.2111 N   0  0  0  0  0  0  0  0  0  0  0  0
  -24.9727  -30.4386   22.9653 N   0  0  0  0  0  0  0  0  0  0  0  0
  -25.8278  -10.2404   17.6117 N   0  0  0  0  0  0  0  0  0  0  0  0
  -24.2298   -6.8025   17.7550 N   0  0  0  0  0  0  0  0  0  0  0  0
  -25.3921  -33.9145   23.5995 N   0  0  0  0  0  0  0  0  0  0  0  0
  -21.5070  -29.2210   22.8616 N   0  0  0  0  0  0  0  0  0  0  0  0
  -18.9433  -28.9302   20.3296 N   0  3  0  0  0  0  0  0  0  0  0  0
  -27.4750  -22.9312   14.9822 O   0  0  0  0  0  0  0  0  0  0  0  0
  -26.3223   -6.6780   18.6849 O   0  0  0  0  0  0  0  0  0  0  0  0
  -28.4135  -14.1631   18.9582 O   0  0  0  0  0  0  0  0  0  0  0  0
  -25.4495  -32.0365   24.9751 O   0  0  0  0  0  0  0  0  0  0  0  0
  -22.8670  -31.3507   22.5843 O   0  0  0  0  0  0  0  0  0  0  0  0
  -21.4263  -27.8054   21.0268 O   0  0  0  0  0  0  0  0  0  0  0  0
  -22.6661   -4.9371   24.1736 O   0  0  0  0  0  0  0  0  0  0  0  0
  -28.5617  -26.4746   20.3222 O   0  0  0  0  0  0  0  0  0  1  0  0
  -17.8297   -2.5022   23.1324 F   0  0  0  0  0  0  0  0  0  0  0  0
  -20.5672   -5.1292   25.9626 F   0  0  0  0  0  0  0  0  0  0  0  0
  1  2  1  0  0  0  0
  1  7  2  0  0  0  0
  2  8  2  0  0  0  0
  3 12  2  0  0  0  0
  3 19  1  0  0  0  0
  4 13  1  0  0  0  0
  4 19  2  0  0  0  0
  5 10  2  0  0  0  0
  5 20  1  0  0  0  0
  6 11  1  0  0  0  0
  6 20  2  0  0  0  0
  7 22  1  0  0  0  0
  8 24  1  0  0  0  0
  9 14  2  0  0  0  0
  9 23  1  0  0  0  0
 10 26  1  0  0  0  0
 11 26  2  0  0  0  0
 12 27  1  0  0  0  0
 13 27  2  0  0  0  0
 14 28  1  0  0  0  0
 15 16  2  0  0  0  0
 15 29  1  0  0  0  0
 16 30  1  0  0  0  0
 17 25  1  0  0  0  0
 17 28  2  0  0  0  0
 18 30  2  0  0  0  0
 18 31  1  0  0  0  0
 19 32  1  0  0  0  0
 20 37  1  0  0  0  0
 21 32  1  0  0  0  0
 21 33  2  0  0  0  0
 21 39  1  0  0  0  0
 22 24  2  0  0  0  0
 22 44  1  0  0  0  0
 23 25  2  0  0  0  0
 23 45  1  0  0  0  0
 24 56  1  0  0  0  0
 25 46  1  0  0  0  0
 26 71  1  0  0  0  0
 27 85  1  0  0  0  0
 28 86  1  0  0  0  0
 29 31  2  0  0  0  0
 29 85  1  0  0  0  0
 30 87  1  0  0  0  0
 31 88  1  0  0  0  0
 32 69  2  0  0  0  0
 33 70  1  0  0  0  0
 33 74  1  0  0  0  0
 34 35  2  0  0  0  0
 34 47  1  0  0  0  0
 34 65  1  0  0  0  0
 35 59  1  0  0  0  0
 35 71  1  0  0  0  0
 36 48  1  0  0  0  0
 36 49  1  0  0  0  0
 36 79  2  0  0  0  0
 37 38  2  0  0  0  0
 38 40  1  0  0  0  0
 39 75  1  0  0  0  0
 39 80  2  0  0  0  0
 40 72  1  0  0  0  0
 40 81  2  0  0  0  0
 41 57  1  0  0  0  0
 41 76  1  0  0  0  0
 41 82  2  0  0  0  0
 42 66  1  0  0  0  0
 42 73  1  0  0  0  0
 42 83  2  0  0  0  0
 43 67  1  0  0  0  0
 43 77  1  0  0  0  0
 43 84  2  0  0  0  0
 44 50  1  0  0  0  0
 45 57  1  0  0  0  0
 46 73  1  0  0  0  0
 47 48  1  0  0  0  0
 49 71  1  0  0  0  0
 50 52  1  0  0  0  0
 51 53  1  0  0  0  0
 51 54  1  0  0  0  0
 52 56  1  0  0  0  0
 53 58  1  0  0  0  0
 54 72  1  0  0  0  0
 55 58  1  0  0  0  0
 55 72  1  0  0  0  0
 56 76  1  0  0  0  0
 57 73  1  0  0  0  0
 58 70  1  0  0  0  0
 60 67  1  0  0  0  0
 61 68  1  0  0  0  0
 62 68  1  0  0  0  0
 63 68  1  0  0  0  0
 64 78  1  0  0  0  0
 65 86  1  0  0  0  0
 66 68  1  0  0  0  0
 66 77  1  0  0  0  0
 67 78  1  0  0  0  0
 69 70  1  0  0  0  0
M  CHG  1  78   1
M  ISO  4  38 100  40 100  65 101  86 101
M  END
> <Batch ID>
0127

> <Smiles>
CNC(C)C(=O)NC(C(=O)N1Cc2cc([101O:1][101CH2:1]C3=C(C)N(c4ccc(C=[100CH:0][100C:0](=O)N5CCCC(n6nc(-c7ccc(Oc8ccc(F)cc8F)cc7)c(C(N)=O)c6N)C5)cc4)CC(=O)CC3)ccc2CC1C(=O)NC1CCCc2ccccc21)C(C)(C)C

> <Shape>
0.309

> <Color>
0.054

> <Negative vol penalty>
0.000

$$$$

  -OEChem-04052302143D

 84 92  0     1  0  0  0  0  0999 V2000
  -30.6558  -35.2384   19.9975 C   0  0  0  0  0  0  0  0  0  0  0  0
  -30.4998  -33.8871   19.7058 C   0  0  0  0  0  0  0  0  0  0  0  0
  -24.2984   -9.6557   22.0981 C   0  0  0  0  0  0  0  0  0  0  0  0
  -24.0358   -9.1987   19.7403 C   0  0  0  0  0  0  0  0  0  0  0  0
  -31.6323  -20.5173   19.8850 C   0  0  0  0  0  0  0  0  0  0  0  0
  -30.1283  -35.7610   21.1776 C   0  0  0  0  0  0  0  0  0  0  0  0
  -29.8171  -33.0574   20.5945 C   0  0  0  0  0  0  0  0  0  0  0  0
  -26.2503  -28.2855   19.1755 C   0  0  0  0  0  0  0  0  0  0  0  0
  -31.9122  -21.8570   19.6158 C   0  0  0  0  0  0  0  0  0  0  0  0
  -23.2059   -8.8352   22.3789 C   0  0  0  0  0  0  0  0  0  0  0  0
  -22.9432   -8.3782   20.0210 C   0  0  0  0  0  0  0  0  0  0  0  0
  -26.4869  -26.9117   19.1526 C   0  0  0  0  0  0  0  0  0  0  0  0
  -22.5785   -5.5224   22.6318 C   0  0  0  0  0  0  0  0  0  0  0  0
  -22.7010   -4.6181   23.6867 C   0  0  0  0  0  0  0  0  0  0  0  0
  -29.4448  -21.1384   20.7011 C   0  0  0  0  0  0  0  0  0  0  0  0
  -25.5514  -26.7198   21.3678 C   0  0  0  0  0  0  0  0  0  0  0  0
  -20.8327   -5.6673   24.8030 C   0  0  0  0  0  0  0  0  0  0  0  0
  -24.7134   -9.8374   20.7788 C   0  0  0  0  0  0  0  0  0  0  0  0
  -30.3985  -20.1580   20.4276 C   0  0  0  0  0  0  0  0  0  0  0  0
  -27.1944  -10.3035   20.4112 C   0  0  0  0  0  0  0  0  0  0  0  0
  -29.4304  -34.9392   22.0766 C   0  0  0  0  0  0  0  0  0  0  0  0
  -25.6716  -28.8894   20.3011 C   0  0  0  0  0  0  0  0  0  0  0  0
  -29.2809  -33.5692   21.7883 C   0  0  0  0  0  0  0  0  0  0  0  0
  -25.3062  -28.1010   21.4015 C   0  0  0  0  0  0  0  0  0  0  0  0
  -30.9585  -22.8374   19.8893 C   0  0  0  0  0  0  0  0  0  0  0  0
  -22.5283   -8.1965   21.3403 C   0  0  0  0  0  0  0  0  0  0  0  0
  -26.1401  -26.1291   20.2500 C   0  0  0  0  0  0  0  0  0  0  0  0
  -21.5831   -6.4991   22.6624 C   0  0  0  0  0  0  0  0  0  0  0  0
  -29.7247  -22.4781   20.4319 C   0  0  0  0  0  0  0  0  0  0  0  0
  -21.8281   -4.6905   24.7723 C   0  0  0  0  0  0  0  0  0  0  0  0
  -20.7103   -6.5716   23.7480 C   0  0  0  0  0  0  0  0  0  0  0  0
  -25.8416  -10.6853   20.4881 C   0  0  0  0  0  0  0  0  0  0  0  0
  -27.8625  -11.4653   20.1107 C   0  0  0  0  0  0  0  0  0  0  0  0
  -31.2459  -25.2081   17.2638 C   0  0  0  0  0  0  0  0  0  0  0  0
  -30.1069  -18.7614   20.7090 C   0  0  0  0  0  0  0  0  0  0  0  0
  -28.8734  -18.2342   20.8628 C   0  0  0  0  0  0  0  0  0  0  0  0
  -30.5965  -24.7752   18.3504 C   0  0  0  0  0  0  0  0  0  0  0  0
  -27.7935   -9.0139   20.5949 C   0  0  0  0  0  0  0  0  0  0  0  0
  -28.7403  -16.7891   21.1363 C   0  0  0  0  0  0  0  0  0  0  0  0
  -26.6034  -31.0953   22.3914 C   0  0  0  0  0  0  0  0  0  0  0  0
  -23.5571  -30.8033   23.4671 C   0  0  0  0  0  0  0  0  0  0  0  0
  -20.7480  -28.8828   23.7272 C   0  0  0  0  0  0  0  0  0  0  0  0
  -28.9189  -35.5398   23.3621 C   0  0  0  0  0  0  0  0  0  0  0  0
  -25.3985  -30.3685   20.2995 C   0  0  0  0  0  0  0  0  0  0  0  0
  -24.6636  -28.6977   22.6261 C   0  0  0  0  0  0  0  0  0  0  0  0
  -27.8844  -34.6700   24.0715 C   0  0  0  0  0  0  0  0  0  0  0  0
  -26.1511  -15.9849   18.6703 C   0  0  0  0  0  0  0  0  0  0  0  0
  -28.3533  -33.2195   24.1256 C   0  0  0  0  0  0  0  0  0  0  0  0
  -25.9215  -14.5036   18.9580 C   0  0  0  0  0  0  0  0  0  0  0  0
  -26.4862  -16.7684   19.9386 C   0  0  0  0  0  0  0  0  0  0  0  0
  -27.4070  -14.7218   20.9893 C   0  0  0  0  0  0  0  0  0  0  0  0
  -28.5251  -32.6422   22.7154 C   0  0  1  0  0  0  0  0  0  0  0  0
  -25.2754  -30.9549   21.7025 C   0  0  1  0  0  0  0  0  0  0  0  0
  -27.1147  -13.9059   19.7204 C   0  0  1  0  0  0  0  0  0  0  0  0
  -18.4331  -28.8994   24.6960 C   0  0  0  0  0  0  0  0  0  0  0  0
  -24.7183  -30.3033   26.2440 C   0  0  0  0  0  0  0  0  0  0  0  0
  -22.4871  -29.4052   26.9391 C   0  0  0  0  0  0  0  0  0  0  0  0
  -22.7006  -31.7804   26.2075 C   0  0  0  0  0  0  0  0  0  0  0  0
  -19.5032  -28.5988   21.0572 C   0  0  0  0  0  0  0  0  0  0  0  0
  -31.2752  -24.2665   19.5950 C   0  0  0  0  0  0  0  0  0  0  0  0
  -26.6321  -24.1556   21.4826 C   0  0  0  0  0  0  0  0  0  1  0  0
  -27.5486  -22.9689   21.2562 C   0  0  0  0  0  0  0  0  0  0  0  0
  -22.8623  -29.9344   24.4876 C   0  0  1  0  0  0  0  0  0  0  0  0
  -19.2851  -29.1981   23.4722 C   0  0  2  0  0  0  0  0  0  0  0  0
  -23.2060  -30.3446   25.9474 C   0  0  0  0  0  0  0  0  0  0  0  0
  -25.6594  -11.9878   20.2554 N   0  0  0  0  0  0  0  0  0  0  0  0
  -26.9065  -12.4347   20.0295 N   0  0  0  0  0  0  0  0  0  0  0  0
  -27.5919  -16.1442   20.6806 N   0  0  0  0  0  0  0  0  0  0  0  0
  -24.4228  -30.1493   22.5790 N   0  0  0  0  0  0  0  0  0  0  0  0
  -29.1686  -11.7420   19.9109 N   0  0  0  0  0  0  0  0  0  0  0  0
  -26.9614   -7.9278   20.8988 N   0  0  0  0  0  0  0  0  0  0  0  0
  -27.2381  -32.2987   22.1497 N   0  0  0  0  0  0  0  0  0  0  0  0
  -21.4394  -29.9904   24.1704 N   0  0  0  0  0  0  0  0  0  0  0  0
  -18.7714  -28.3867   22.3326 N   0  3  0  0  0  0  0  0  0  0  0  0
  -29.0318   -8.8333   20.5086 O   0  0  0  0  0  0  0  0  0  0  0  0
  -29.6533  -16.2414   21.7569 O   0  0  0  0  0  0  0  0  0  0  0  0
  -27.0205  -30.1802   23.0916 O   0  0  0  0  0  0  0  0  0  0  0  0
  -23.3342  -32.0165   23.4537 O   0  0  0  0  0  0  0  0  0  0  0  0
  -21.2284  -27.7649   23.5544 O   0  0  0  0  0  0  0  0  0  0  0  0
  -21.4623   -7.3957   21.6139 O   0  0  0  0  0  0  0  0  0  0  0  0
  -26.3705  -24.7880   20.2304 O   0  0  0  0  0  0  0  0  0  1  0  0
  -28.7767  -23.4288   20.7053 O   0  0  0  0  0  0  0  0  0  0  0  0
  -21.9449   -3.8211   25.7845 F   0  0  0  0  0  0  0  0  0  0  0  0
  -19.7513   -7.5070   23.7825 F   0  0  0  0  0  0  0  0  0  0  0  0
  1  2  1  0  0  0  0
  1  6  2  0  0  0  0
  2  7  2  0  0  0  0
  3 10  2  0  0  0  0
  3 18  1  0  0  0  0
  4 11  1  0  0  0  0
  4 18  2  0  0  0  0
  5  9  2  0  0  0  0
  5 19  1  0  0  0  0
  6 21  1  0  0  0  0
  7 23  1  0  0  0  0
  8 12  2  0  0  0  0
  8 22  1  0  0  0  0
  9 25  1  0  0  0  0
 10 26  1  0  0  0  0
 11 26  2  0  0  0  0
 12 27  1  0  0  0  0
 13 14  2  0  0  0  0
 13 28  1  0  0  0  0
 14 30  1  0  0  0  0
 15 19  2  0  0  0  0
 15 29  1  0  0  0  0
 16 24  1  0  0  0  0
 16 27  2  0  0  0  0
 17 30  2  0  0  0  0
 17 31  1  0  0  0  0
 18 32  1  0  0  0  0
 19 35  1  0  0  0  0
 20 32  1  0  0  0  0
 20 33  2  0  0  0  0
 20 38  1  0  0  0  0
 21 23  2  0  0  0  0
 21 43  1  0  0  0  0
 22 24  2  0  0  0  0
 22 44  1  0  0  0  0
 23 52  1  0  0  0  0
 24 45  1  0  0  0  0
 25 29  2  0  0  0  0
 25 60  1  0  0  0  0
 26 80  1  0  0  0  0
 27 81  1  0  0  0  0
 28 31  2  0  0  0  0
 28 80  1  0  0  0  0
 29 82  1  0  0  0  0
 30 83  1  0  0  0  0
 31 84  1  0  0  0  0
 32 66  2  0  0  0  0
 33 67  1  0  0  0  0
 33 70  1  0  0  0  0
 34 37  2  0  0  0  0
 35 36  2  0  0  0  0
 36 39  1  0  0  0  0
 37 60  1  0  0  0  0
 38 71  1  0  0  0  0
 38 75  2  0  0  0  0
 39 68  1  0  0  0  0
 39 76  2  0  0  0  0
 40 53  1  0  0  0  0
 40 72  1  0  0  0  0
 40 77  2  0  0  0  0
 41 63  1  0  0  0  0
 41 69  1  0  0  0  0
 41 78  2  0  0  0  0
 42 64  1  0  0  0  0
 42 73  1  0  0  0  0
 42 79  2  0  0  0  0
 43 46  1  0  0  0  0
 44 53  1  0  0  0  0
 45 69  1  0  0  0  0
 46 48  1  0  0  0  0
 47 49  1  0  0  0  0
 47 50  1  0  0  0  0
 48 52  1  0  0  0  0
 49 54  1  0  0  0  0
 50 68  1  0  0  0  0
 51 54  1  0  0  0  0
 51 68  1  0  0  0  0
 52 72  1  0  0  0  0
 53 69  1  0  0  0  0
 54 67  1  0  0  0  0
 55 64  1  0  0  0  0
 56 65  1  0  0  0  0
 57 65  1  0  0  0  0
 58 65  1  0  0  0  0
 59 74  1  0  0  0  0
 61 62  1  0  0  0  0
 61 81  1  0  0  0  0
 62 82  1  0  0  0  0
 63 65  1  0  0  0  0
 63 73  1  0  0  0  0
 64 74  1  0  0  0  0
 66 67  1  0  0  0  0
M  CHG  1  74   1
M  ISO  4  36 100  39 100  61 101  81 101
M  END
> <Batch ID>
0127

> <Smiles>
C=CCc1ccc(C=[100CH:0][100C:0](=O)N2CCCC(n3nc(-c4ccc(Oc5ccc(F)cc5F)cc4)c(C(N)=O)c3N)C2)cc1OC[101CH2:1][101O:1]c1ccc2c(c1)CN(C(=O)C(NC(=O)C(C)NC)C(C)(C)C)C(C(=O)NC1CCCc3ccccc31)C2

> <Shape>
0.298

> <Color>
0.102

> <Negative vol penalty>
0.000

$$$$

  -OEChem-04052302143D

 85 93  0     1  0  0  0  0  0999 V2000
  -26.4825  -39.6123   24.9370 C   0  0  0  0  0  0  0  0  0  0  0  0
  -27.2717  -38.9133   24.0292 C   0  0  0  0  0  0  0  0  0  0  0  0
  -24.5298   -8.8100   21.8909 C   0  0  0  0  0  0  0  0  0  0  0  0
  -24.0686   -8.3690   19.5607 C   0  0  0  0  0  0  0  0  0  0  0  0
  -29.4864  -20.2464   21.9089 C   0  0  0  0  0  0  0  0  0  0  0  0
  -29.8571  -21.5706   21.6750 C   0  0  0  0  0  0  0  0  0  0  0  0
  -25.8637  -38.9352   25.9870 C   0  0  0  0  0  0  0  0  0  0  0  0
  -27.4435  -37.5369   24.1717 C   0  0  0  0  0  0  0  0  0  0  0  0
  -28.3688  -31.5940   20.2803 C   0  0  0  0  0  0  0  0  0  0  0  0
  -23.3681   -8.1268   22.2502 C   0  0  0  0  0  0  0  0  0  0  0  0
  -22.9069   -7.6856   19.9200 C   0  0  0  0  0  0  0  0  0  0  0  0
  -29.2210  -30.4954   20.1780 C   0  0  0  0  0  0  0  0  0  0  0  0
  -22.3726   -4.9134   22.5909 C   0  0  0  0  0  0  0  0  0  0  0  0
  -22.4536   -4.0093   23.6499 C   0  0  0  0  0  0  0  0  0  0  0  0
  -28.8172  -20.0256   19.5979 C   0  0  0  0  0  0  0  0  0  0  0  0
  -28.0393  -29.4182   21.9843 C   0  0  0  0  0  0  0  0  0  0  0  0
  -20.7949   -5.2807   24.8622 C   0  0  0  0  0  0  0  0  0  0  0  0
  -24.8801   -8.9312   20.5461 C   0  0  0  0  0  0  0  0  0  0  0  0
  -28.9665  -19.4739   20.8703 C   0  0  0  0  0  0  0  0  0  0  0  0
  -29.7078  -22.1223   20.4026 C   0  0  0  0  0  0  0  0  0  0  0  0
  -27.3709   -9.0976   20.0207 C   0  0  0  0  0  0  0  0  0  0  0  0
  -26.0202  -37.5482   26.1367 C   0  0  0  0  0  0  0  0  0  0  0  0
  -27.3506  -31.6177   21.2442 C   0  0  0  0  0  0  0  0  0  0  0  0
  -26.8273  -36.8407   25.2255 C   0  0  0  0  0  0  0  0  0  0  0  0
  -27.1739  -30.5173   22.0950 C   0  0  0  0  0  0  0  0  0  0  0  0
  -29.1878  -21.3498   19.3641 C   0  0  0  0  0  0  0  0  0  0  0  0
  -22.5566   -7.5646   21.2647 C   0  0  0  0  0  0  0  0  0  0  0  0
  -29.0582  -29.4085   21.0320 C   0  0  0  0  0  0  0  0  0  0  0  0
  -21.5029   -6.0012   22.6675 C   0  0  0  0  0  0  0  0  0  0  0  0
  -21.6647   -4.1928   24.7856 C   0  0  0  0  0  0  0  0  0  0  0  0
  -20.7140   -6.1848   23.8032 C   0  0  0  0  0  0  0  0  0  0  0  0
  -26.0798   -9.6373   20.1743 C   0  0  0  0  0  0  0  0  0  0  0  0
  -28.1508  -10.1699   19.6625 C   0  0  0  0  0  0  0  0  0  0  0  0
  -28.5795  -18.0934   21.1153 C   0  0  0  0  0  0  0  0  0  0  0  0
  -30.1089  -23.5239   20.1875 C   0  0  0  0  0  0  0  0  0  0  0  0
  -27.7377  -17.3680   20.3484 C   0  0  0  0  0  0  0  0  0  0  0  0
  -29.5679  -24.5757   20.8180 C   0  0  0  0  0  0  0  0  0  0  0  0
  -27.8245   -7.7477   20.1869 C   0  0  0  0  0  0  0  0  0  0  0  0
  -30.0395  -25.9594   20.5206 C   0  0  0  0  0  0  0  0  0  0  0  0
  -27.4503  -15.9693   20.7249 C   0  0  0  0  0  0  0  0  0  0  0  0
  -26.6709  -33.4592   23.7443 C   0  0  0  0  0  0  0  0  0  0  0  0
  -23.9684  -31.6675   23.8358 C   0  0  0  0  0  0  0  0  0  0  0  0
  -22.4062  -28.7382   23.0449 C   0  0  0  0  0  0  0  0  0  0  0  0
  -25.3699  -36.8673   27.3150 C   0  0  0  0  0  0  0  0  0  0  0  0
  -26.4228  -32.7989   21.3239 C   0  0  0  0  0  0  0  0  0  0  0  0
  -26.0833  -30.4847   23.1334 C   0  0  0  0  0  0  0  0  0  0  0  0
  -25.2986  -35.3486   27.1778 C   0  0  0  0  0  0  0  0  0  0  0  0
  -27.9426  -14.3926   17.4533 C   0  0  0  0  0  0  0  0  0  0  0  0
  -26.6399  -34.7912   26.7120 C   0  0  0  0  0  0  0  0  0  0  0  0
  -27.5875  -12.9423   17.7699 C   0  0  0  0  0  0  0  0  0  0  0  0
  -27.1033  -15.3772   18.2662 C   0  0  0  0  0  0  0  0  0  0  0  0
  -26.8072  -13.6870   20.0539 C   0  0  0  0  0  0  0  0  0  0  0  0
  -27.0176  -35.3432   25.3321 C   0  0  1  0  0  0  0  0  0  0  0  0
  -25.7446  -32.9353   22.6836 C   0  0  1  0  0  0  0  0  0  0  0  0
  -27.6723  -12.6787   19.2817 C   0  0  1  0  0  0  0  0  0  0  0  0
  -27.7920  -22.8163   17.8850 C   0  0  0  0  0  0  0  0  0  0  0  0
  -20.2086  -27.5506   23.2842 C   0  0  0  0  0  0  0  0  0  0  0  0
  -24.6095  -31.0754   26.7595 C   0  0  0  0  0  0  0  0  0  0  0  0
  -22.9707  -29.1851   26.6636 C   0  0  0  0  0  0  0  0  0  0  0  0
  -22.1945  -31.5264   26.2917 C   0  0  0  0  0  0  0  0  0  0  0  0
  -22.0387  -28.5831   20.1123 C   0  0  0  0  0  0  0  0  0  0  0  0
  -29.0129  -21.9082   17.9883 C   0  0  0  0  0  0  0  0  0  0  0  0
  -29.3522  -27.0633   21.2962 C   0  0  0  0  0  0  0  0  0  1  0  0
  -23.5640  -30.3760   24.5048 C   0  0  1  0  0  0  0  0  0  0  0  0
  -21.0584  -28.4559   22.4061 C   0  0  2  0  0  0  0  0  0  0  0  0
  -23.3566  -30.5419   26.0367 C   0  0  0  0  0  0  0  0  0  0  0  0
  -26.0378  -10.9505   19.9335 N   0  0  0  0  0  0  0  0  0  0  0  0
  -27.3123  -11.2449   19.6251 N   0  0  0  0  0  0  0  0  0  0  0  0
  -27.1536  -15.0689   19.7033 N   0  0  0  0  0  0  0  0  0  0  0  0
  -25.2057  -31.6660   23.1764 N   0  0  0  0  0  0  0  0  0  0  0  0
  -29.4654  -10.2887   19.3791 N   0  0  0  0  0  0  0  0  0  0  0  0
  -26.8912   -6.7700   20.5575 N   0  0  0  0  0  0  0  0  0  0  0  0
  -26.2730  -34.6628   24.2944 N   0  0  0  0  0  0  0  0  0  0  0  0
  -22.3853  -29.8979   23.7904 N   0  0  0  0  0  0  0  0  0  0  0  0
  -21.2404  -27.7924   21.0842 N   0  3  0  0  0  0  0  0  0  0  0  0
  -29.0252   -7.4213   20.0280 O   0  0  0  0  0  0  0  0  0  0  0  0
  -30.9263  -26.1844   19.7014 O   0  0  0  0  0  0  0  0  0  0  0  0
  -27.4857  -15.6843   21.9234 O   0  0  0  0  0  0  0  0  0  0  0  0
  -27.6718  -32.8182   24.0427 O   0  0  0  0  0  0  0  0  0  0  0  0
  -23.2110  -32.6396   23.8900 O   0  0  0  0  0  0  0  0  0  0  0  0
  -23.3793  -28.0015   22.9002 O   0  0  0  0  0  0  0  0  0  0  0  0
  -21.4230   -6.8976   21.6150 O   0  0  0  0  0  0  0  0  0  0  0  0
  -29.8891  -28.3351   20.9348 O   0  0  0  0  0  0  0  0  0  1  0  0
  -21.7415   -3.3237   25.8018 F   0  0  0  0  0  0  0  0  0  0  0  0
  -19.8757   -7.2274   23.8821 F   0  0  0  0  0  0  0  0  0  0  0  0
  1  2  1  0  0  0  0
  1  7  2  0  0  0  0
  2  8  2  0  0  0  0
  3 10  2  0  0  0  0
  3 18  1  0  0  0  0
  4 11  1  0  0  0  0
  4 18  2  0  0  0  0
  5  6  2  0  0  0  0
  5 19  1  0  0  0  0
  6 20  1  0  0  0  0
  7 22  1  0  0  0  0
  8 24  1  0  0  0  0
  9 12  2  0  0  0  0
  9 23  1  0  0  0  0
 10 27  1  0  0  0  0
 11 27  2  0  0  0  0
 12 28  1  0  0  0  0
 13 14  2  0  0  0  0
 13 29  1  0  0  0  0
 14 30  1  0  0  0  0
 15 19  2  0  0  0  0
 15 26  1  0  0  0  0
 16 25  1  0  0  0  0
 16 28  2  0  0  0  0
 17 30  2  0  0  0  0
 17 31  1  0  0  0  0
 18 32  1  0  0  0  0
 19 34  1  0  0  0  0
 20 26  2  0  0  0  0
 20 35  1  0  0  0  0
 21 32  1  0  0  0  0
 21 33  2  0  0  0  0
 21 38  1  0  0  0  0
 22 24  2  0  0  0  0
 22 44  1  0  0  0  0
 23 25  2  0  0  0  0
 23 45  1  0  0  0  0
 24 53  1  0  0  0  0
 25 46  1  0  0  0  0
 26 62  1  0  0  0  0
 27 82  1  0  0  0  0
 28 83  1  0  0  0  0
 29 31  2  0  0  0  0
 29 82  1  0  0  0  0
 30 84  1  0  0  0  0
 31 85  1  0  0  0  0
 32 67  2  0  0  0  0
 33 68  1  0  0  0  0
 33 71  1  0  0  0  0
 34 36  2  0  0  0  0
 35 37  2  0  0  0  0
 36 40  1  0  0  0  0
 37 39  1  0  0  0  0
 38 72  1  0  0  0  0
 38 76  2  0  0  0  0
 39 63  1  0  0  0  0
 39 77  2  0  0  0  0
 40 69  1  0  0  0  0
 40 78  2  0  0  0  0
 41 54  1  0  0  0  0
 41 73  1  0  0  0  0
 41 79  2  0  0  0  0
 42 64  1  0  0  0  0
 42 70  1  0  0  0  0
 42 80  2  0  0  0  0
 43 65  1  0  0  0  0
 43 74  1  0  0  0  0
 43 81  2  0  0  0  0
 44 47  1  0  0  0  0
 45 54  1  0  0  0  0
 46 70  1  0  0  0  0
 47 49  1  0  0  0  0
 48 50  1  0  0  0  0
 48 51  1  0  0  0  0
 49 53  1  0  0  0  0
 50 55  1  0  0  0  0
 51 69  1  0  0  0  0
 52 55  1  0  0  0  0
 52 69  1  0  0  0  0
 53 73  1  0  0  0  0
 54 70  1  0  0  0  0
 55 68  1  0  0  0  0
 56 62  1  0  0  0  0
 57 65  1  0  0  0  0
 58 66  1  0  0  0  0
 59 66  1  0  0  0  0
 60 66  1  0  0  0  0
 61 75  1  0  0  0  0
 63 83  1  0  0  0  0
 64 66  1  0  0  0  0
 64 74  1  0  0  0  0
 65 75  1  0  0  0  0
 67 68  1  0  0  0  0
M  CHG  1  75   1
M  ISO  4  36 100  40 100  63 101  83 101
M  END
> <Batch ID>
0127

> <Smiles>
CCc1cc(C=[100CH:0][100C:0](=O)N2CCCC(n3nc(-c4ccc(Oc5ccc(F)cc5F)cc4)c(C(N)=O)c3N)C2)ccc1C=CC(=O)[101CH2:1][101O:1]c1ccc2c(c1)CN(C(=O)C(NC(=O)C(C)NC)C(C)(C)C)C(C(=O)NC1CCCc3ccccc31)C2

> <Shape>
0.312

> <Color>
0.089

> <Negative vol penalty>
0.000

$$$$

  -OEChem-04052302143D

 83 91  0     1  0  0  0  0  0999 V2000
  -33.7499  -34.1512   20.5936 C   0  0  0  0  0  0  0  0  0  0  0  0
  -33.9610  -33.0297   21.3893 C   0  0  0  0  0  0  0  0  0  0  0  0
  -23.0955   -9.8857   19.9305 C   0  0  0  0  0  0  0  0  0  0  0  0
  -23.8596   -9.8870   22.2225 C   0  0  0  0  0  0  0  0  0  0  0  0
  -32.5555  -34.2889   19.8877 C   0  0  0  0  0  0  0  0  0  0  0  0
  -32.9772  -32.0457   21.4803 C   0  0  0  0  0  0  0  0  0  0  0  0
  -33.8482  -26.0123   22.0688 C   0  0  0  0  0  0  0  0  0  0  0  0
  -32.6224  -17.5621   23.4509 C   0  0  0  0  0  0  0  0  0  0  0  0
  -32.0233  -16.6845   22.5474 C   0  0  0  0  0  0  0  0  0  0  0  0
  -22.3634   -8.7240   20.1752 C   0  0  0  0  0  0  0  0  0  0  0  0
  -23.1274   -8.7252   22.4672 C   0  0  0  0  0  0  0  0  0  0  0  0
  -33.8246  -25.1648   23.1756 C   0  0  0  0  0  0  0  0  0  0  0  0
  -19.4257   -7.8904   21.6272 C   0  0  0  0  0  0  0  0  0  0  0  0
  -18.1185   -7.8343   21.1440 C   0  0  0  0  0  0  0  0  0  0  0  0
  -31.5300  -24.6021   22.6882 C   0  0  0  0  0  0  0  0  0  0  0  0
  -30.4464  -18.4084   24.0720 C   0  0  0  0  0  0  0  0  0  0  0  0
  -18.6946   -5.9043   19.8096 C   0  0  0  0  0  0  0  0  0  0  0  0
  -23.8437  -10.4672   20.9542 C   0  0  0  0  0  0  0  0  0  0  0  0
  -24.1607  -12.9962   20.8480 C   0  0  0  0  0  0  0  0  0  0  0  0
  -31.5605  -33.3014   19.9625 C   0  0  0  0  0  0  0  0  0  0  0  0
  -32.7076  -26.1698   21.2685 C   0  0  0  0  0  0  0  0  0  0  0  0
  -31.7678  -32.1709   20.7758 C   0  0  0  0  0  0  0  0  0  0  0  0
  -31.5425  -25.4503   21.5704 C   0  0  0  0  0  0  0  0  0  0  0  0
  -31.8340  -18.4241   24.2133 C   0  0  0  0  0  0  0  0  0  0  0  0
  -29.8472  -17.5308   23.1684 C   0  0  0  0  0  0  0  0  0  0  0  0
  -30.6357  -16.6689   22.4061 C   0  0  0  0  0  0  0  0  0  0  0  0
  -22.3793   -8.1437   21.4435 C   0  0  0  0  0  0  0  0  0  0  0  0
  -32.6646  -24.4617   23.4871 C   0  0  0  0  0  0  0  0  0  0  0  0
  -20.3675   -6.9536   21.2015 C   0  0  0  0  0  0  0  0  0  0  0  0
  -17.7529   -6.8412   20.2353 C   0  0  0  0  0  0  0  0  0  0  0  0
  -20.0019   -5.9605   20.2928 C   0  0  0  0  0  0  0  0  0  0  0  0
  -24.6007  -11.6670   20.7019 C   0  0  0  0  0  0  0  0  0  0  0  0
  -25.2449  -13.7584   20.4871 C   0  0  0  0  0  0  0  0  0  0  0  0
  -22.8861  -13.4972   21.2722 C   0  0  0  0  0  0  0  0  0  0  0  0
  -30.8156  -28.6103   20.5147 C   0  0  0  0  0  0  0  0  0  0  0  0
  -29.4674  -26.4416   18.5143 C   0  0  0  0  0  0  0  0  0  0  0  0
  -28.8721  -23.1647   17.7701 C   0  0  0  0  0  0  0  0  0  0  0  0
  -30.7010  -14.8561   20.6579 C   0  0  0  0  0  0  0  0  0  0  0  0
  -30.2664  -33.5170   19.2186 C   0  0  0  0  0  0  0  0  0  0  0  0
  -32.7575  -27.0674   20.0626 C   0  0  0  0  0  0  0  0  0  0  0  0
  -30.2975  -25.5687   20.7312 C   0  0  0  0  0  0  0  0  0  0  0  0
  -29.4287  -32.2492   19.0737 C   0  0  0  0  0  0  0  0  0  0  0  0
  -29.6057  -12.4451   18.2779 C   0  0  0  0  0  0  0  0  0  0  0  0
  -29.3447  -31.5097   20.4052 C   0  0  0  0  0  0  0  0  0  0  0  0
  -28.1697  -12.1371   18.7083 C   0  0  0  0  0  0  0  0  0  0  0  0
  -30.5207  -12.6760   19.4792 C   0  0  0  0  0  0  0  0  0  0  0  0
  -28.6094  -13.3739   20.8680 C   0  0  0  0  0  0  0  0  0  0  0  0
  -30.7347  -31.0700   20.8807 C   0  0  1  0  0  0  0  0  0  0  0  0
  -31.3793  -27.5459   19.6164 C   0  0  1  0  0  0  0  0  0  0  0  0
  -27.6361  -13.1979   19.6909 C   0  0  2  0  0  0  0  0  0  0  0  0
  -27.8944  -18.2645   21.7774 C   0  0  0  0  0  0  0  0  0  0  0  0
  -27.7086  -21.7056   16.0924 C   0  0  0  0  0  0  0  0  0  0  0  0
  -26.7803  -27.1222   19.7895 C   0  0  0  0  0  0  0  0  0  0  0  0
  -25.8519  -25.0245   18.7867 C   0  0  0  0  0  0  0  0  0  0  0  0
  -26.7140  -26.8373   17.3058 C   0  0  0  0  0  0  0  0  0  0  0  0
  -31.4073  -21.8642   16.9700 C   0  0  0  0  0  0  0  0  0  0  0  0
  -32.4820  -19.3745   25.1883 C   0  0  0  0  0  0  0  0  0  0  0  0
  -28.3587  -17.5377   23.0355 C   0  0  0  0  0  0  0  0  0  0  0  0
  -32.8397  -20.7356   24.5813 C   0  0  0  0  0  0  0  0  0  0  0  0
  -33.5648  -21.6571   25.5632 C   0  0  0  0  0  0  0  0  0  0  0  0
  -33.8680  -23.0121   24.9384 C   0  0  0  0  0  0  0  0  0  1  0  0
  -28.3496  -25.4333   18.6272 C   0  0  1  0  0  0  0  0  0  0  0  0
  -29.0146  -22.3836   16.4762 C   0  0  2  0  0  0  0  0  0  0  0  0
  -26.9467  -26.1034   18.6445 C   0  0  0  0  0  0  0  0  0  0  0  0
  -25.8656  -11.5859   20.2808 N   0  0  0  0  0  0  0  0  0  0  0  0
  -26.2298  -12.8737   20.1591 N   0  0  0  0  0  0  0  0  0  0  0  0
  -30.3942  -26.4637   19.5662 N   0  0  0  0  0  0  0  0  0  0  0  0
  -29.9534  -13.6963   20.3634 N   0  0  0  0  0  0  0  0  0  0  0  0
  -25.4422  -15.0922   20.4213 N   0  0  0  0  0  0  0  0  0  0  0  0
  -21.8837  -12.5763   21.6060 N   0  0  0  0  0  0  0  0  0  0  0  0
  -30.0461  -15.7701   21.4828 N   0  0  0  0  0  0  0  0  0  0  0  0
  -31.1696  -29.8964   20.1541 N   0  0  0  0  0  0  0  0  0  0  0  0
  -28.5448  -24.4837   17.5370 N   0  0  0  0  0  0  0  0  0  0  0  0
  -30.0646  -21.3355   16.6169 N   0  3  0  0  0  0  0  0  0  0  0  0
  -22.6380  -14.7251   21.3370 O   0  0  0  0  0  0  0  0  0  0  0  0
  -30.1104  -28.2886   21.4639 O   0  0  0  0  0  0  0  0  0  0  0  0
  -29.5206  -27.1775   17.5257 O   0  0  0  0  0  0  0  0  0  0  0  0
  -29.0312  -22.6547   18.8770 O   0  0  0  0  0  0  0  0  0  0  0  0
  -31.8275  -15.0385   20.1893 O   0  0  0  0  0  0  0  0  0  0  0  0
  -21.6648   -7.0102   21.6827 O   0  0  0  0  0  0  0  0  0  0  0  0
  -32.6386  -23.6343   24.5672 O   0  0  0  0  0  0  0  0  0  1  0  0
  -16.4970   -6.7864   19.7726 F   0  0  0  0  0  0  0  0  0  0  0  0
  -20.9019   -5.0571   19.8811 F   0  0  0  0  0  0  0  0  0  0  0  0
  1  2  1  0  0  0  0
  1  5  2  0  0  0  0
  2  6  2  0  0  0  0
  3 10  2  0  0  0  0
  3 18  1  0  0  0  0
  4 11  1  0  0  0  0
  4 18  2  0  0  0  0
  5 20  1  0  0  0  0
  6 22  1  0  0  0  0
  7 12  2  0  0  0  0
  7 21  1  0  0  0  0
  8  9  2  0  0  0  0
  8 24  1  0  0  0  0
  9 26  1  0  0  0  0
 10 27  1  0  0  0  0
 11 27  2  0  0  0  0
 12 28  1  0  0  0  0
 13 14  2  0  0  0  0
 13 29  1  0  0  0  0
 14 30  1  0  0  0  0
 15 23  1  0  0  0  0
 15 28  2  0  0  0  0
 16 24  2  0  0  0  0
 16 25  1  0  0  0  0
 17 30  2  0  0  0  0
 17 31  1  0  0  0  0
 18 32  1  0  0  0  0
 19 32  1  0  0  0  0
 19 33  2  0  0  0  0
 19 34  1  0  0  0  0
 20 22  2  0  0  0  0
 20 39  1  0  0  0  0
 21 23  2  0  0  0  0
 21 40  1  0  0  0  0
 22 48  1  0  0  0  0
 23 41  1  0  0  0  0
 24 57  1  0  0  0  0
 25 26  2  0  0  0  0
 25 58  1  0  0  0  0
 26 71  1  0  0  0  0
 27 80  1  0  0  0  0
 28 81  1  0  0  0  0
 29 31  2  0  0  0  0
 29 80  1  0  0  0  0
 30 82  1  0  0  0  0
 31 83  1  0  0  0  0
 32 65  2  0  0  0  0
 33 66  1  0  0  0  0
 33 69  1  0  0  0  0
 34 70  1  0  0  0  0
 34 75  2  0  0  0  0
 35 49  1  0  0  0  0
 35 72  1  0  0  0  0
 35 76  2  0  0  0  0
 36 62  1  0  0  0  0
 36 67  1  0  0  0  0
 36 77  2  0  0  0  0
 37 63  1  0  0  0  0
 37 73  1  0  0  0  0
 37 78  2  0  0  0  0
 38 68  1  0  0  0  0
 38 71  1  0  0  0  0
 38 79  2  0  0  0  0
 39 42  1  0  0  0  0
 40 49  1  0  0  0  0
 41 67  1  0  0  0  0
 42 44  1  0  0  0  0
 43 45  1  0  0  0  0
 43 46  1  0  0  0  0
 44 48  1  0  0  0  0
 45 50  1  0  0  0  0
 46 68  1  0  0  0  0
 47 50  1  0  0  0  0
 47 68  1  0  0  0  0
 48 72  1  0  0  0  0
 49 67  1  0  0  0  0
 50 66  1  0  0  0  0
 51 58  1  0  0  0  0
 52 63  1  0  0  0  0
 53 64  1  0  0  0  0
 54 64  1  0  0  0  0
 55 64  1  0  0  0  0
 56 74  1  0  0  0  0
 57 59  1  0  0  0  0
 59 60  1  0  0  0  0
 60 61  1  0  0  0  0
 61 81  1  0  0  0  0
 62 64  1  0  0  0  0
 62 73  1  0  0  0  0
 63 74  1  0  0  0  0
 65 66  1  0  0  0  0
M  CHG  1  74   1
M  ISO  4  38 100  61 101  71 100  81 101
M  END
> <Batch ID>
0127

> <Smiles>
CCc1cc(CCC[101CH2:1][101O:1]c2ccc3c(c2)CN(C(=O)C(NC(=O)C(C)NC)C(C)(C)C)C(C(=O)NC2CCCc4ccccc42)C3)ccc1[100NH:0][100C:0](=O)N1CCCC(n2nc(-c3ccc(Oc4ccc(F)cc4F)cc3)c(C(N)=O)c2N)C1

> <Shape>
0.224

> <Color>
0.218

> <Negative vol penalty>
0.000

$$$$

  -OEChem-04052302143D

 85 93  0     1  0  0  0  0  0999 V2000
  -25.5374  -17.4876   14.2039 C   0  0  0  0  0  0  0  0  0  0  0  0
  -26.0902  -16.4101   14.8868 C   0  0  0  0  0  0  0  0  0  0  0  0
  -27.9112  -29.6498   20.0827 C   0  0  0  0  0  0  0  0  0  0  0  0
  -27.2764  -28.4846   22.1017 C   0  0  0  0  0  0  0  0  0  0  0  0
  -24.6871  -18.3678   14.8698 C   0  0  0  0  0  0  0  0  0  0  0  0
  -25.7835  -16.2057   16.2326 C   0  0  0  0  0  0  0  0  0  0  0  0
  -27.4280  -12.0522   18.2936 C   0  0  0  0  0  0  0  0  0  0  0  0
  -30.5476  -16.8033   22.7034 C   0  0  0  0  0  0  0  0  0  0  0  0
  -27.2260  -30.7828   20.5212 C   0  0  0  0  0  0  0  0  0  0  0  0
  -26.5912  -29.6177   22.5402 C   0  0  0  0  0  0  0  0  0  0  0  0
  -28.7738  -11.8389   18.5890 C   0  0  0  0  0  0  0  0  0  0  0  0
  -31.3796  -15.9078   22.0316 C   0  0  0  0  0  0  0  0  0  0  0  0
  -27.7466  -33.3255   22.6884 C   0  0  0  0  0  0  0  0  0  0  0  0
  -28.3838  -34.5594   22.5576 C   0  0  0  0  0  0  0  0  0  0  0  0
  -28.3236  -12.2656   20.9202 C   0  0  0  0  0  0  0  0  0  0  0  0
  -30.2442  -16.4080   19.9586 C   0  0  0  0  0  0  0  0  0  0  0  0
  -26.5860  -35.3378   21.1437 C   0  0  0  0  0  0  0  0  0  0  0  0
  -27.9363  -28.5006   20.8730 C   0  0  0  0  0  0  0  0  0  0  0  0
  -29.9928  -27.0065   20.6583 C   0  0  0  0  0  0  0  0  0  0  0  0
  -24.3803  -18.1805   16.2276 C   0  0  0  0  0  0  0  0  0  0  0  0
  -26.5205  -12.3852   19.3095 C   0  0  0  0  0  0  0  0  0  0  0  0
  -24.9085  -17.0694   16.9160 C   0  0  0  0  0  0  0  0  0  0  0  0
  -26.9664  -12.4802   20.6355 C   0  0  0  0  0  0  0  0  0  0  0  0
  -29.5638  -17.5012   22.0028 C   0  0  0  0  0  0  0  0  0  0  0  0
  -26.5660  -30.7668   21.7499 C   0  0  0  0  0  0  0  0  0  0  0  0
  -29.2223  -11.9483   19.9019 C   0  0  0  0  0  0  0  0  0  0  0  0
  -31.2279  -15.7101   20.6592 C   0  0  0  0  0  0  0  0  0  0  0  0
  -26.5292  -33.0977   22.0468 C   0  0  0  0  0  0  0  0  0  0  0  0
  -29.4121  -17.3035   20.6304 C   0  0  0  0  0  0  0  0  0  0  0  0
  -27.8035  -35.5655   21.7853 C   0  0  0  0  0  0  0  0  0  0  0  0
  -25.9489  -34.1038   21.2744 C   0  0  0  0  0  0  0  0  0  0  0  0
  -28.6435  -27.3296   20.4203 C   0  0  0  0  0  0  0  0  0  0  0  0
  -30.1750  -25.8030   20.0220 C   0  0  0  0  0  0  0  0  0  0  0  0
  -30.9921  -27.7295   21.3893 C   0  0  0  0  0  0  0  0  0  0  0  0
  -24.6589  -14.8876   19.9227 C   0  0  0  0  0  0  0  0  0  0  0  0
  -28.4358  -20.6853   18.9911 C   0  0  0  0  0  0  0  0  0  0  0  0
  -23.5760  -12.9995   22.3279 C   0  0  0  0  0  0  0  0  0  0  0  0
  -24.1590  -10.3915   24.4504 C   0  0  0  0  0  0  0  0  0  0  0  0
  -23.4481  -19.1592   16.8972 C   0  0  0  0  0  0  0  0  0  0  0  0
  -25.0671  -12.5860   18.9784 C   0  0  0  0  0  0  0  0  0  0  0  0
  -26.0286  -12.8152   21.7654 C   0  0  0  0  0  0  0  0  0  0  0  0
  -23.5354  -19.1173   18.4193 C   0  0  0  0  0  0  0  0  0  0  0  0
  -27.2215  -23.3026   16.7769 C   0  0  0  0  0  0  0  0  0  0  0  0
  -23.4357  -17.6795   18.9063 C   0  0  0  0  0  0  0  0  0  0  0  0
  -27.5718  -24.5608   17.5701 C   0  0  0  0  0  0  0  0  0  0  0  0
  -26.8146  -22.1544   17.6967 C   0  0  0  0  0  0  0  0  0  0  0  0
  -28.1846  -23.0858   19.5352 C   0  0  0  0  0  0  0  0  0  0  0  0
  -24.6135  -16.8445   18.3880 C   0  0  1  0  0  0  0  0  0  0  0  0
  -24.3281  -13.4249   20.0164 C   0  0  1  0  0  0  0  0  0  0  0  0
  -28.6299  -24.2585   18.6456 C   0  0  2  0  0  0  0  0  0  0  0  0
  -28.6829  -18.4562   22.7381 C   0  0  0  0  0  0  0  0  0  0  0  0
  -23.1025   -9.1070   26.3296 C   0  0  0  0  0  0  0  0  0  0  0  0
  -33.8316  -12.8948   18.7445 C   0  0  0  0  0  0  0  0  0  0  0  0
  -24.1881  -15.2976   24.2394 C   0  0  0  0  0  0  0  0  0  0  0  0
  -24.0268  -13.6710   26.1358 C   0  0  0  0  0  0  0  0  0  0  0  0
  -22.0371  -14.1061   24.6954 C   0  0  0  0  0  0  0  0  0  0  0  0
  -24.2134   -7.8656   22.9090 C   0  0  0  0  0  0  0  0  0  0  0  0
  -27.9906  -19.5183   18.1463 C   0  0  0  0  0  0  0  0  0  0  0  0
  -28.7348  -18.2616   18.5618 C   0  0  0  0  0  0  0  0  0  0  0  0
  -31.4844  -12.0630   19.1769 C   0  0  0  0  0  0  0  0  0  1  0  0
  -32.5302  -13.7221   20.7473 C   0  0  0  0  0  0  0  0  0  0  0  0
  -23.9712  -12.7687   23.7665 C   0  0  1  0  0  0  0  0  0  0  0  0
  -23.3114   -9.1892   24.8255 C   0  0  2  0  0  0  0  0  0  0  0  0
  -32.7936  -12.5363   19.8148 C   0  0  2  0  0  0  0  0  0  0  0  0
  -23.5741  -13.9564   24.6879 C   0  0  0  0  0  0  0  0  0  0  0  0
  -28.0132  -26.4061   19.6897 N   0  0  0  0  0  0  0  0  0  0  0  0
  -28.9707  -25.4908   19.4631 N   0  0  0  0  0  0  0  0  0  0  0  0
  -24.6182  -13.0087   21.3900 N   0  0  0  0  0  0  0  0  0  0  0  0
  -27.8358  -21.9161   18.7238 N   0  0  0  0  0  0  0  0  0  0  0  0
  -31.2463  -24.9919   19.8917 N   0  0  0  0  0  0  0  0  0  0  0  0
  -30.6358  -28.9493   21.9803 N   0  0  0  0  0  0  0  0  0  0  0  0
  -24.3749  -15.4511   18.6934 N   0  0  0  0  0  0  0  0  0  0  0  0
  -23.3821  -11.4908   24.1516 N   0  0  0  0  0  0  0  0  0  0  0  0
  -23.9686   -7.9306   24.3728 N   0  3  0  0  0  0  0  0  0  0  0  0
  -32.1706  -27.3143   21.5007 O   0  0  0  0  0  0  0  0  0  0  0  0
  -25.1352  -15.4628   20.8943 O   0  0  0  0  0  0  0  0  0  0  0  0
  -29.2932  -20.5070   19.8601 O   0  0  0  0  0  0  0  0  0  0  0  0
  -22.3858  -13.1584   22.0457 O   0  0  0  0  0  0  0  0  0  0  0  0
  -25.3874  -10.3597   24.4285 O   0  0  0  0  0  0  0  0  0  0  0  0
  -25.8975  -31.8724   22.1782 O   0  0  0  0  0  0  0  0  0  0  0  0
  -30.5354  -11.7412   20.1929 O   0  0  0  0  0  0  0  0  0  1  0  0
  -32.0451  -14.8296   19.9996 O   0  0  0  0  0  0  0  0  0  0  0  0
  -28.4562  -17.9772   19.9312 O   0  0  0  0  0  0  0  0  0  0  0  0
  -28.4147  -36.7509   21.6610 F   0  0  0  0  0  0  0  0  0  0  0  0
  -24.7789  -33.8913   20.6566 F   0  0  0  0  0  0  0  0  0  0  0  0
  1  2  1  0  0  0  0
  1  5  2  0  0  0  0
  2  6  2  0  0  0  0
  3  9  2  0  0  0  0
  3 18  1  0  0  0  0
  4 10  1  0  0  0  0
  4 18  2  0  0  0  0
  5 20  1  0  0  0  0
  6 22  1  0  0  0  0
  7 11  2  0  0  0  0
  7 21  1  0  0  0  0
  8 12  2  0  0  0  0
  8 24  1  0  0  0  0
  9 25  1  0  0  0  0
 10 25  2  0  0  0  0
 11 26  1  0  0  0  0
 12 27  1  0  0  0  0
 13 14  2  0  0  0  0
 13 28  1  0  0  0  0
 14 30  1  0  0  0  0
 15 23  1  0  0  0  0
 15 26  2  0  0  0  0
 16 27  2  0  0  0  0
 16 29  1  0  0  0  0
 17 30  2  0  0  0  0
 17 31  1  0  0  0  0
 18 32  1  0  0  0  0
 19 32  1  0  0  0  0
 19 33  2  0  0  0  0
 19 34  1  0  0  0  0
 20 22  2  0  0  0  0
 20 39  1  0  0  0  0
 21 23  2  0  0  0  0
 21 40  1  0  0  0  0
 22 48  1  0  0  0  0
 23 41  1  0  0  0  0
 24 29  2  0  0  0  0
 24 51  1  0  0  0  0
 25 80  1  0  0  0  0
 26 81  1  0  0  0  0
 27 82  1  0  0  0  0
 28 31  2  0  0  0  0
 28 80  1  0  0  0  0
 29 83  1  0  0  0  0
 30 84  1  0  0  0  0
 31 85  1  0  0  0  0
 32 66  2  0  0  0  0
 33 67  1  0  0  0  0
 33 70  1  0  0  0  0
 34 71  1  0  0  0  0
 34 75  2  0  0  0  0
 35 49  1  0  0  0  0
 35 72  1  0  0  0  0
 35 76  2  0  0  0  0
 36 58  1  0  0  0  0
 36 69  1  0  0  0  0
 36 77  2  0  0  0  0
 37 62  1  0  0  0  0
 37 68  1  0  0  0  0
 37 78  2  0  0  0  0
 38 63  1  0  0  0  0
 38 73  1  0  0  0  0
 38 79  2  0  0  0  0
 39 42  1  0  0  0  0
 40 49  1  0  0  0  0
 41 68  1  0  0  0  0
 42 44  1  0  0  0  0
 43 45  1  0  0  0  0
 43 46  1  0  0  0  0
 44 48  1  0  0  0  0
 45 50  1  0  0  0  0
 46 69  1  0  0  0  0
 47 50  1  0  0  0  0
 47 69  1  0  0  0  0
 48 72  1  0  0  0  0
 49 68  1  0  0  0  0
 50 67  1  0  0  0  0
 52 63  1  0  0  0  0
 53 64  1  0  0  0  0
 54 65  1  0  0  0  0
 55 65  1  0  0  0  0
 56 65  1  0  0  0  0
 57 74  1  0  0  0  0
 58 59  1  0  0  0  0
 59 83  1  0  0  0  0
 60 64  1  0  0  0  0
 60 81  1  0  0  0  0
 61 64  1  0  0  0  0
 61 82  1  0  0  0  0
 62 65  1  0  0  0  0
 62 73  1  0  0  0  0
 63 74  1  0  0  0  0
 66 67  1  0  0  0  0
M  CHG  1  74   1
M  ISO  4  36 100  58 100  60 101  81 101
M  END
> <Batch ID>
0127

> <Smiles>
CNC(C)C(=O)NC(C(=O)N1Cc2cc([101O:1][101CH2:1]C(C)COc3ccc(C)c(OC[100CH2:0][100C:0](=O)N4CCCC(n5nc(-c6ccc(Oc7ccc(F)cc7F)cc6)c(C(N)=O)c5N)C4)c3)ccc2CC1C(=O)NC1CCCc2ccccc21)C(C)(C)C

> <Shape>
0.245

> <Color>
0.096

> <Negative vol penalty>
0.000

$$$$

  -OEChem-04052302143D

 85 93  0     1  0  0  0  0  0999 V2000
  -28.2119  -33.6452   25.0445 C   0  0  0  0  0  0  0  0  0  0  0  0
  -28.3106  -32.3802   24.4741 C   0  0  0  0  0  0  0  0  0  0  0  0
  -23.0898   -9.9863   21.5042 C   0  0  0  0  0  0  0  0  0  0  0  0
  -23.7812  -10.9753   23.5973 C   0  0  0  0  0  0  0  0  0  0  0  0
  -26.9996  -34.0726   25.5843 C   0  0  0  0  0  0  0  0  0  0  0  0
  -27.1971  -31.5413   24.4442 C   0  0  0  0  0  0  0  0  0  0  0  0
  -26.5841  -29.2856   19.9519 C   0  0  0  0  0  0  0  0  0  0  0  0
  -22.3411   -9.0372   22.2000 C   0  0  0  0  0  0  0  0  0  0  0  0
  -23.0324  -10.0262   24.2931 C   0  0  0  0  0  0  0  0  0  0  0  0
  -27.4048  -28.1943   19.6701 C   0  0  0  0  0  0  0  0  0  0  0  0
  -20.5355   -6.1326   23.4357 C   0  0  0  0  0  0  0  0  0  0  0  0
  -20.6286   -4.8029   23.0252 C   0  0  0  0  0  0  0  0  0  0  0  0
  -25.6044  -26.6978   20.2519 C   0  0  0  0  0  0  0  0  0  0  0  0
  -31.9849  -17.3046   21.2351 C   0  0  0  0  0  0  0  0  0  0  0  0
  -31.7604  -19.5890   21.9891 C   0  0  0  0  0  0  0  0  0  0  0  0
  -23.0023   -4.8303   23.4744 C   0  0  0  0  0  0  0  0  0  0  0  0
  -23.8100  -10.9553   22.2029 C   0  0  0  0  0  0  0  0  0  0  0  0
  -24.1504  -13.1963   21.0325 C   0  0  0  0  0  0  0  0  0  0  0  0
  -25.8681  -33.2423   25.5524 C   0  0  0  0  0  0  0  0  0  0  0  0
  -25.2687  -29.0908   20.3970 C   0  0  0  0  0  0  0  0  0  0  0  0
  -25.9688  -31.9575   24.9853 C   0  0  0  0  0  0  0  0  0  0  0  0
  -24.7683  -27.7883   20.5362 C   0  0  0  0  0  0  0  0  0  0  0  0
  -29.7986  -18.3244   21.3653 C   0  0  0  0  0  0  0  0  0  0  0  0
  -30.6022  -17.2230   21.0706 C   0  0  0  0  0  0  0  0  0  0  0  0
  -22.3123   -9.0571   23.5944 C   0  0  0  0  0  0  0  0  0  0  0  0
  -26.9159  -26.9002   19.8229 C   0  0  0  0  0  0  0  0  0  0  0  0
  -21.6758   -6.8113   23.8656 C   0  0  0  0  0  0  0  0  0  0  0  0
  -30.3776  -19.5074   21.8245 C   0  0  0  0  0  0  0  0  0  0  0  0
  -21.8619   -4.1517   23.0445 C   0  0  0  0  0  0  0  0  0  0  0  0
  -32.5640  -18.4876   21.6944 C   0  0  0  0  0  0  0  0  0  0  0  0
  -22.9092   -6.1602   23.8850 C   0  0  0  0  0  0  0  0  0  0  0  0
  -24.5841  -11.9357   21.4847 C   0  0  0  0  0  0  0  0  0  0  0  0
  -25.2514  -13.7368   20.4144 C   0  0  0  0  0  0  0  0  0  0  0  0
  -22.8671  -13.8228   21.1599 C   0  0  0  0  0  0  0  0  0  0  0  0
  -23.6645  -29.8203   23.0423 C   0  0  0  0  0  0  0  0  0  0  0  0
  -21.1394  -28.6707   21.3616 C   0  0  0  0  0  0  0  0  0  0  0  0
  -20.0070  -26.6663   18.8423 C   0  0  0  0  0  0  0  0  0  0  0  0
  -30.7080  -14.8361   20.2720 C   0  0  0  0  0  0  0  0  0  0  0  0
  -24.5917  -33.7298   26.1909 C   0  0  0  0  0  0  0  0  0  0  0  0
  -24.3877  -30.2786   20.6711 C   0  0  0  0  0  0  0  0  0  0  0  0
  -23.3569  -27.5255   20.9915 C   0  0  0  0  0  0  0  0  0  0  0  0
  -23.3606  -32.9245   25.7834 C   0  0  0  0  0  0  0  0  0  0  0  0
  -29.6691  -11.6305   19.1223 C   0  0  0  0  0  0  0  0  0  0  0  0
  -23.6484  -31.4290   25.8697 C   0  0  0  0  0  0  0  0  0  0  0  0
  -28.2179  -11.5278   19.5972 C   0  0  0  0  0  0  0  0  0  0  0  0
  -30.5477  -12.3600   20.1370 C   0  0  0  0  0  0  0  0  0  0  0  0
  -28.5991  -13.5741   21.0305 C   0  0  0  0  0  0  0  0  0  0  0  0
  -24.7768  -31.0281   24.9118 C   0  0  1  0  0  0  0  0  0  0  0  0
  -23.2292  -29.9591   21.6109 C   0  0  1  0  0  0  0  0  0  0  0  0
  -27.6621  -12.9042   20.0123 C   0  0  2  0  0  0  0  0  0  0  0  0
  -27.8982  -18.3564   19.7300 C   0  0  0  0  0  0  0  0  0  0  0  0
  -17.8895  -25.9034   17.7326 C   0  0  0  0  0  0  0  0  0  0  0  0
  -20.5758  -26.8157   23.7178 C   0  0  0  0  0  0  0  0  0  0  0  0
  -19.1021  -25.4641   22.2112 C   0  0  0  0  0  0  0  0  0  0  0  0
  -18.5414  -27.8468   22.6919 C   0  0  0  0  0  0  0  0  0  0  0  0
  -20.8235  -27.8090   16.2373 C   0  0  0  0  0  0  0  0  0  0  0  0
  -28.3143  -18.2468   21.1927 C   0  0  0  0  0  0  0  0  0  0  0  0
  -28.7814  -23.8721   20.4698 C   0  0  0  0  0  0  0  0  0  0  0  0
  -28.5700  -22.5729   21.2392 C   0  0  0  0  0  0  0  0  0  0  0  0
  -27.4766  -24.6365   20.2889 C   0  0  0  0  0  0  0  0  0  1  0  0
  -29.8659  -21.7875   21.3832 C   0  0  0  0  0  0  0  0  0  0  0  0
  -20.5008  -27.3141   21.1856 C   0  0  1  0  0  0  0  0  0  0  0  0
  -19.0188  -26.9218   17.7187 C   0  0  2  0  0  0  0  0  0  0  0  0
  -19.7073  -26.8648   22.4449 C   0  0  0  0  0  0  0  0  0  0  0  0
  -25.8610  -11.6897   21.1797 N   0  0  0  0  0  0  0  0  0  0  0  0
  -26.2391  -12.8033   20.5292 N   0  0  0  0  0  0  0  0  0  0  0  0
  -22.5365  -28.7197   21.2532 N   0  0  0  0  0  0  0  0  0  0  0  0
  -29.9609  -13.6574   20.4797 N   0  0  0  0  0  0  0  0  0  0  0  0
  -25.4614  -14.9147   19.7893 N   0  0  0  0  0  0  0  0  0  0  0  0
  -21.8473  -13.1278   21.8243 N   0  0  0  0  0  0  0  0  0  0  0  0
  -30.0349  -16.0114   20.6038 N   0  0  0  0  0  0  0  0  0  0  0  0
  -24.2818  -30.9456   23.5543 N   0  0  0  0  0  0  0  0  0  0  0  0
  -19.6973  -27.3958   19.9706 N   0  0  0  0  0  0  0  0  0  0  0  0
  -19.7049  -26.8448   16.3980 N   0  3  0  0  0  0  0  0  0  0  0  0
  -22.6269  -14.9582   20.6839 O   0  0  0  0  0  0  0  0  0  0  0  0
  -23.4544  -28.7706   23.6386 O   0  0  0  0  0  0  0  0  0  0  0  0
  -20.4245  -29.6519   21.5800 O   0  0  0  0  0  0  0  0  0  0  0  0
  -20.9564  -25.8937   18.7315 O   0  0  0  0  0  0  0  0  0  0  0  0
  -31.8502  -14.8069   19.8066 O   0  0  0  0  0  0  0  0  0  0  0  0
  -21.5816   -8.1313   24.2737 O   0  0  0  0  0  0  0  0  0  0  0  0
  -27.7151  -25.8332   19.5492 O   0  0  0  0  0  0  0  0  0  1  0  0
  -29.6047  -20.6004   22.1191 O   0  0  0  0  0  0  0  0  0  0  0  0
  -21.9509   -2.8742   22.6516 F   0  0  0  0  0  0  0  0  0  0  0  0
  -33.8920  -18.5663   21.8515 F   0  0  0  0  0  0  0  0  0  0  0  0
  -24.0079   -6.8066   24.2980 F   0  0  0  0  0  0  0  0  0  0  0  0
  1  2  1  0  0  0  0
  1  5  2  0  0  0  0
  2  6  2  0  0  0  0
  3  8  2  0  0  0  0
  3 17  1  0  0  0  0
  4  9  1  0  0  0  0
  4 17  2  0  0  0  0
  5 19  1  0  0  0  0
  6 21  1  0  0  0  0
  7 10  2  0  0  0  0
  7 20  1  0  0  0  0
  8 25  1  0  0  0  0
  9 25  2  0  0  0  0
 10 26  1  0  0  0  0
 11 12  2  0  0  0  0
 11 27  1  0  0  0  0
 12 29  1  0  0  0  0
 13 22  1  0  0  0  0
 13 26  2  0  0  0  0
 14 24  2  0  0  0  0
 14 30  1  0  0  0  0
 15 28  1  0  0  0  0
 15 30  2  0  0  0  0
 16 29  2  0  0  0  0
 16 31  1  0  0  0  0
 17 32  1  0  0  0  0
 18 32  1  0  0  0  0
 18 33  2  0  0  0  0
 18 34  1  0  0  0  0
 19 21  2  0  0  0  0
 19 39  1  0  0  0  0
 20 22  2  0  0  0  0
 20 40  1  0  0  0  0
 21 48  1  0  0  0  0
 22 41  1  0  0  0  0
 23 24  1  0  0  0  0
 23 28  2  0  0  0  0
 23 57  1  0  0  0  0
 24 71  1  0  0  0  0
 25 80  1  0  0  0  0
 26 81  1  0  0  0  0
 27 31  2  0  0  0  0
 27 80  1  0  0  0  0
 28 82  1  0  0  0  0
 29 83  1  0  0  0  0
 30 84  1  0  0  0  0
 31 85  1  0  0  0  0
 32 65  2  0  0  0  0
 33 66  1  0  0  0  0
 33 69  1  0  0  0  0
 34 70  1  0  0  0  0
 34 75  2  0  0  0  0
 35 49  1  0  0  0  0
 35 72  1  0  0  0  0
 35 76  2  0  0  0  0
 36 62  1  0  0  0  0
 36 67  1  0  0  0  0
 36 77  2  0  0  0  0
 37 63  1  0  0  0  0
 37 73  1  0  0  0  0
 37 78  2  0  0  0  0
 38 68  1  0  0  0  0
 38 71  1  0  0  0  0
 38 79  2  0  0  0  0
 39 42  1  0  0  0  0
 40 49  1  0  0  0  0
 41 67  1  0  0  0  0
 42 44  1  0  0  0  0
 43 45  1  0  0  0  0
 43 46  1  0  0  0  0
 44 48  1  0  0  0  0
 45 50  1  0  0  0  0
 46 68  1  0  0  0  0
 47 50  1  0  0  0  0
 47 68  1  0  0  0  0
 48 72  1  0  0  0  0
 49 67  1  0  0  0  0
 50 66  1  0  0  0  0
 51 57  1  0  0  0  0
 52 63  1  0  0  0  0
 53 64  1  0  0  0  0
 54 64  1  0  0  0  0
 55 64  1  0  0  0  0
 56 74  1  0  0  0  0
 58 59  1  0  0  0  0
 58 60  1  0  0  0  0
 59 61  1  0  0  0  0
 60 81  1  0  0  0  0
 61 82  1  0  0  0  0
 62 64  1  0  0  0  0
 62 73  1  0  0  0  0
 63 74  1  0  0  0  0
 65 66  1  0  0  0  0
M  CHG  1  74   1
M  ISO  4  38 100  60 101  71 100  81 101
M  END
> <Batch ID>
0127

> <Smiles>
CCc1c([100NH:0][100C:0](=O)N2CCCC(n3nc(-c4ccc(Oc5ccc(F)cc5F)cc4)c(C(N)=O)c3N)C2)cc(F)cc1OCCC[101CH2:1][101O:1]c1ccc2c(c1)CN(C(=O)C(NC(=O)C(C)NC)C(C)(C)C)C(C(=O)NC1CCCc3ccccc31)C2

> <Shape>
0.373

> <Color>
0.199

> <Negative vol penalty>
0.000

$$$$

  -OEChem-04052302143D

 83 91  0     1  0  0  0  0  0999 V2000
  -28.5834  -17.9699   19.8419 C   0  0  0  0  0  0  0  0  0  0  0  0
  -27.5159  -18.8276   19.5966 C   0  0  0  0  0  0  0  0  0  0  0  0
  -23.4924  -15.1473   22.2753 C   0  0  0  0  0  0  0  0  0  0  0  0
  -25.8592  -15.6328   22.2811 C   0  0  0  0  0  0  0  0  0  0  0  0
  -18.7332  -28.9777   22.5432 C   0  0  0  0  0  0  0  0  0  0  0  0
  -29.6298  -18.3795   20.6673 C   0  0  0  0  0  0  0  0  0  0  0  0
  -27.4936  -20.0950   20.1776 C   0  0  0  0  0  0  0  0  0  0  0  0
  -25.2802  -26.7862   18.8946 C   0  0  0  0  0  0  0  0  0  0  0  0
  -17.7118  -28.0296   22.5992 C   0  0  0  0  0  0  0  0  0  0  0  0
  -23.7311  -13.9927   21.5300 C   0  0  0  0  0  0  0  0  0  0  0  0
  -26.0978  -14.4781   21.5358 C   0  0  0  0  0  0  0  0  0  0  0  0
  -24.5254  -27.8018   19.4799 C   0  0  0  0  0  0  0  0  0  0  0  0
  -24.8324  -10.8462   22.0953 C   0  0  0  0  0  0  0  0  0  0  0  0
  -24.1815   -9.6762   22.4863 C   0  0  0  0  0  0  0  0  0  0  0  0
  -20.3676  -27.2395   22.9233 C   0  0  0  0  0  0  0  0  0  0  0  0
  -26.4264  -28.4313   20.8249 C   0  0  0  0  0  0  0  0  0  0  0  0
  -23.1046   -9.5537   20.3270 C   0  0  0  0  0  0  0  0  0  0  0  0
  -24.5565  -15.9674   22.6508 C   0  0  0  0  0  0  0  0  0  0  0  0
  -20.0612  -28.5827   22.7052 C   0  0  0  0  0  0  0  0  0  0  0  0
  -19.3461  -26.2913   22.9793 C   0  0  0  0  0  0  0  0  0  0  0  0
  -24.2834  -17.2770   24.8229 C   0  0  0  0  0  0  0  0  0  0  0  0
  -29.6251  -19.6562   21.2509 C   0  0  0  0  0  0  0  0  0  0  0  0
  -26.6128  -26.5782   19.2786 C   0  0  0  0  0  0  0  0  0  0  0  0
  -28.5403  -20.5216   21.0126 C   0  0  0  0  0  0  0  0  0  0  0  0
  -27.1968  -27.4140   20.2411 C   0  0  0  0  0  0  0  0  0  0  0  0
  -18.0182  -26.6864   22.8173 C   0  0  0  0  0  0  0  0  0  0  0  0
  -25.0338  -13.6581   21.1603 C   0  0  0  0  0  0  0  0  0  0  0  0
  -25.0976  -28.6227   20.4473 C   0  0  0  0  0  0  0  0  0  0  0  0
  -24.6194  -11.3701   20.8202 C   0  0  0  0  0  0  0  0  0  0  0  0
  -23.3176   -9.0299   21.6022 C   0  0  0  0  0  0  0  0  0  0  0  0
  -23.7556  -10.7238   19.9361 C   0  0  0  0  0  0  0  0  0  0  0  0
  -24.3105  -17.1606   23.4202 C   0  0  0  0  0  0  0  0  0  0  0  0
  -24.0116  -18.6037   25.0521 C   0  0  0  0  0  0  0  0  0  0  0  0
  -21.1385  -29.5846   22.6460 C   0  0  0  0  0  0  0  0  0  0  0  0
  -19.6974  -24.8959   23.2088 C   0  0  0  0  0  0  0  0  0  0  0  0
  -20.5089  -24.1563   22.4259 C   0  0  0  0  0  0  0  0  0  0  0  0
  -22.3731  -29.4228   23.1473 C   0  0  0  0  0  0  0  0  0  0  0  0
  -24.4859  -16.2756   25.8287 C   0  0  0  0  0  0  0  0  0  0  0  0
  -20.7771  -22.7528   22.7987 C   0  0  0  0  0  0  0  0  0  0  0  0
  -28.2129  -24.1809   20.6190 C   0  0  0  0  0  0  0  0  0  0  0  0
  -30.7763  -26.0820   20.0381 C   0  0  0  0  0  0  0  0  0  0  0  0
  -31.9896  -29.2272   19.5073 C   0  0  0  0  0  0  0  0  0  0  0  0
  -30.7555  -20.0367   22.1739 C   0  0  0  0  0  0  0  0  0  0  0  0
  -27.4216  -25.4954   18.6185 C   0  0  0  0  0  0  0  0  0  0  0  0
  -28.6295  -27.2452   20.6737 C   0  0  0  0  0  0  0  0  0  0  0  0
  -30.8381  -21.5357   22.4500 C   0  0  0  0  0  0  0  0  0  0  0  0
  -24.4242  -22.7610   22.4382 C   0  0  0  0  0  0  0  0  0  0  0  0
  -29.4580  -22.0943   22.7818 C   0  0  0  0  0  0  0  0  0  0  0  0
  -24.7531  -21.3028   22.7466 C   0  0  0  0  0  0  0  0  0  0  0  0
  -23.0846  -22.9050   21.7177 C   0  0  0  0  0  0  0  0  0  0  0  0
  -22.2779  -20.7990   22.7446 C   0  0  0  0  0  0  0  0  0  0  0  0
  -28.4921  -21.9135   21.6046 C   0  0  1  0  0  0  0  0  0  0  0  0
  -28.6139  -25.0448   19.4569 C   0  0  1  0  0  0  0  0  0  0  0  0
  -23.5995  -20.6346   23.5113 C   0  0  1  0  0  0  0  0  0  0  0  0
  -16.8977  -25.6982   22.8723 C   0  0  0  0  0  0  0  0  0  0  0  0
  -34.1318  -30.4697   19.1012 C   0  0  0  0  0  0  0  0  0  0  0  0
  -31.4963  -25.8002   22.9898 C   0  0  0  0  0  0  0  0  0  0  0  0
  -33.0263  -27.7651   22.7323 C   0  0  0  0  0  0  0  0  0  0  0  0
  -33.4436  -25.6820   21.4250 C   0  0  0  0  0  0  0  0  0  0  0  0
  -31.0580  -30.2066   16.8744 C   0  0  0  0  0  0  0  0  0  0  0  0
  -23.4413  -30.4794   23.0758 C   0  0  0  0  0  0  0  0  0  0  0  0
  -24.6891  -29.9711   22.3632 C   0  0  0  0  0  0  0  0  0  1  0  0
  -31.4962  -27.1683   20.8001 C   0  0  1  0  0  0  0  0  0  0  0  0
  -32.9403  -29.7765   18.4589 C   0  0  2  0  0  0  0  0  0  0  0  0
  -32.3380  -26.6061   21.9803 C   0  0  0  0  0  0  0  0  0  0  0  0
  -24.0746  -18.3207   22.8018 N   0  0  0  0  0  0  0  0  0  0  0  0
  -23.8966  -19.1788   23.8207 N   0  0  0  0  0  0  0  0  0  0  0  0
  -22.0083  -22.2082   22.4382 N   0  0  0  0  0  0  0  0  0  0  0  0
  -29.3773  -26.1685   20.0035 N   0  0  0  0  0  0  0  0  0  0  0  0
  -23.8620  -19.3228   26.1847 N   0  0  0  0  0  0  0  0  0  0  0  0
  -24.7554  -14.9625   25.4195 N   0  0  0  0  0  0  0  0  0  0  0  0
  -28.7475  -22.9072   20.5840 N   0  0  0  0  0  0  0  0  0  0  0  0
  -32.2720  -27.9130   19.8143 N   0  0  0  0  0  0  0  0  0  0  0  0
  -32.2379  -30.7603   17.5873 N   0  3  0  0  0  0  0  0  0  0  0  0
  -24.4132  -16.5340   27.0541 O   0  0  0  0  0  0  0  0  0  0  0  0
  -19.8912  -22.1458   23.4033 O   0  0  0  0  0  0  0  0  0  0  0  0
  -27.4743  -24.6367   21.4842 O   0  0  0  0  0  0  0  0  0  0  0  0
  -31.4314  -25.1935   19.4877 O   0  0  0  0  0  0  0  0  0  0  0  0
  -31.0892  -29.8982   20.0068 O   0  0  0  0  0  0  0  0  0  0  0  0
  -25.2670  -12.5313   20.4332 O   0  0  0  0  0  0  0  0  0  0  0  0
  -24.3629  -29.6144   21.0206 O   0  0  0  0  0  0  0  0  0  1  0  0
  -22.6938   -7.9055   21.9773 F   0  0  0  0  0  0  0  0  0  0  0  0
  -23.5479  -11.2216   18.7093 F   0  0  0  0  0  0  0  0  0  0  0  0
  1  2  1  0  0  0  0
  1  6  2  0  0  0  0
  2  7  2  0  0  0  0
  3 10  2  0  0  0  0
  3 18  1  0  0  0  0
  4 11  1  0  0  0  0
  4 18  2  0  0  0  0
  5  9  2  0  0  0  0
  5 19  1  0  0  0  0
  6 22  1  0  0  0  0
  7 24  1  0  0  0  0
  8 12  2  0  0  0  0
  8 23  1  0  0  0  0
  9 26  1  0  0  0  0
 10 27  1  0  0  0  0
 11 27  2  0  0  0  0
 12 28  1  0  0  0  0
 13 14  2  0  0  0  0
 13 29  1  0  0  0  0
 14 30  1  0  0  0  0
 15 19  2  0  0  0  0
 15 20  1  0  0  0  0
 16 25  1  0  0  0  0
 16 28  2  0  0  0  0
 17 30  2  0  0  0  0
 17 31  1  0  0  0  0
 18 32  1  0  0  0  0
 19 34  1  0  0  0  0
 20 26  2  0  0  0  0
 20 35  1  0  0  0  0
 21 32  1  0  0  0  0
 21 33  2  0  0  0  0
 21 38  1  0  0  0  0
 22 24  2  0  0  0  0
 22 43  1  0  0  0  0
 23 25  2  0  0  0  0
 23 44  1  0  0  0  0
 24 52  1  0  0  0  0
 25 45  1  0  0  0  0
 26 55  1  0  0  0  0
 27 80  1  0  0  0  0
 28 81  1  0  0  0  0
 29 31  2  0  0  0  0
 29 80  1  0  0  0  0
 30 82  1  0  0  0  0
 31 83  1  0  0  0  0
 32 66  2  0  0  0  0
 33 67  1  0  0  0  0
 33 70  1  0  0  0  0
 34 37  2  0  0  0  0
 35 36  2  0  0  0  0
 36 39  1  0  0  0  0
 37 61  1  0  0  0  0
 38 71  1  0  0  0  0
 38 75  2  0  0  0  0
 39 68  1  0  0  0  0
 39 76  2  0  0  0  0
 40 53  1  0  0  0  0
 40 72  1  0  0  0  0
 40 77  2  0  0  0  0
 41 63  1  0  0  0  0
 41 69  1  0  0  0  0
 41 78  2  0  0  0  0
 42 64  1  0  0  0  0
 42 73  1  0  0  0  0
 42 79  2  0  0  0  0
 43 46  1  0  0  0  0
 44 53  1  0  0  0  0
 45 69  1  0  0  0  0
 46 48  1  0  0  0  0
 47 49  1  0  0  0  0
 47 50  1  0  0  0  0
 48 52  1  0  0  0  0
 49 54  1  0  0  0  0
 50 68  1  0  0  0  0
 51 54  1  0  0  0  0
 51 68  1  0  0  0  0
 52 72  1  0  0  0  0
 53 69  1  0  0  0  0
 54 67  1  0  0  0  0
 56 64  1  0  0  0  0
 57 65  1  0  0  0  0
 58 65  1  0  0  0  0
 59 65  1  0  0  0  0
 60 74  1  0  0  0  0
 61 62  1  0  0  0  0
 62 81  1  0  0  0  0
 63 65  1  0  0  0  0
 63 73  1  0  0  0  0
 64 74  1  0  0  0  0
 66 67  1  0  0  0  0
M  CHG  1  74   1
M  ISO  4  36 100  39 100  62 101  81 101
M  END
> <Batch ID>
0127

> <Smiles>
CNC(C)C(=O)NC(C(=O)N1Cc2cc([101O:1][101CH2:1]CC=Cc3ccc(C)c(C=[100CH:0][100C:0](=O)N4CCCC(n5nc(-c6ccc(Oc7ccc(F)cc7F)cc6)c(C(N)=O)c5N)C4)c3)ccc2CC1C(=O)NC1CCCc2ccccc21)C(C)(C)C

> <Shape>
0.246

> <Color>
0.052

> <Negative vol penalty>
0.000

$$$$

  -OEChem-04052302143D

 81 89  0     1  0  0  0  0  0999 V2000
  -16.7122  -30.4715   23.2740 C   0  0  0  0  0  0  0  0  0  0  0  0
  -17.8265  -30.9356   22.5823 C   0  0  0  0  0  0  0  0  0  0  0  0
  -27.4001  -11.5569   20.9922 C   0  0  0  0  0  0  0  0  0  0  0  0
  -27.7193  -11.2447   18.6178 C   0  0  0  0  0  0  0  0  0  0  0  0
  -30.3135  -23.8194   20.3238 C   0  0  0  0  0  0  0  0  0  0  0  0
  -32.3753  -23.9078   21.5800 C   0  0  0  0  0  0  0  0  0  0  0  0
  -16.8456  -29.4266   24.1875 C   0  0  0  0  0  0  0  0  0  0  0  0
  -19.0750  -30.3557   22.8044 C   0  0  0  0  0  0  0  0  0  0  0  0
  -25.1789  -28.7711   19.4062 C   0  0  0  0  0  0  0  0  0  0  0  0
  -30.3493  -25.2050   20.1674 C   0  0  0  0  0  0  0  0  0  0  0  0
  -32.4112  -25.2934   21.4236 C   0  0  0  0  0  0  0  0  0  0  0  0
  -26.4743  -10.5137   21.0049 C   0  0  0  0  0  0  0  0  0  0  0  0
  -26.7935  -10.2015   18.6305 C   0  0  0  0  0  0  0  0  0  0  0  0
  -26.5564  -28.9484   19.5274 C   0  0  0  0  0  0  0  0  0  0  0  0
  -23.2303  -10.0529   20.1750 C   0  0  0  0  0  0  0  0  0  0  0  0
  -22.0416  -10.2509   20.8774 C   0  0  0  0  0  0  0  0  0  0  0  0
  -26.6529  -27.0967   21.0705 C   0  0  0  0  0  0  0  0  0  0  0  0
  -22.5674   -8.3687   22.2979 C   0  0  0  0  0  0  0  0  0  0  0  0
  -28.0226  -11.9224   19.7986 C   0  0  0  0  0  0  0  0  0  0  0  0
  -31.3264  -23.1708   21.0302 C   0  0  0  0  0  0  0  0  0  0  0  0
  -30.3691  -12.9059   19.9838 C   0  0  0  0  0  0  0  0  0  0  0  0
  -18.0947  -28.8273   24.4139 C   0  0  0  0  0  0  0  0  0  0  0  0
  -24.5252  -27.7605   20.1259 C   0  0  0  0  0  0  0  0  0  0  0  0
  -19.2255  -29.3028   23.7228 C   0  0  0  0  0  0  0  0  0  0  0  0
  -25.2673  -26.9071   20.9547 C   0  0  0  0  0  0  0  0  0  0  0  0
  -31.3982  -25.9420   20.7173 C   0  0  0  0  0  0  0  0  0  0  0  0
  -26.1709   -9.8360   19.8241 C   0  0  0  0  0  0  0  0  0  0  0  0
  -27.2932  -28.1130   20.3619 C   0  0  0  0  0  0  0  0  0  0  0  0
  -24.0876   -9.0127   20.5340 C   0  0  0  0  0  0  0  0  0  0  0  0
  -21.7102   -9.4088   21.9389 C   0  0  0  0  0  0  0  0  0  0  0  0
  -23.7561   -8.1706   21.5955 C   0  0  0  0  0  0  0  0  0  0  0  0
  -28.9787  -13.0003   19.7847 C   0  0  0  0  0  0  0  0  0  0  0  0
  -30.8203  -14.1985   19.8737 C   0  0  0  0  0  0  0  0  0  0  0  0
  -31.2892  -21.7260   21.1935 C   0  0  0  0  0  0  0  0  0  0  0  0
  -30.1915  -20.9510   21.0627 C   0  0  0  0  0  0  0  0  0  0  0  0
  -31.1804  -11.7529   20.2449 C   0  0  0  0  0  0  0  0  0  0  0  0
  -30.3178  -19.4917   21.2503 C   0  0  0  0  0  0  0  0  0  0  0  0
  -22.2619  -27.7006   22.3569 C   0  0  0  0  0  0  0  0  0  0  0  0
  -22.4633  -24.4924   21.9219 C   0  0  0  0  0  0  0  0  0  0  0  0
  -24.3251  -21.8170   20.9105 C   0  0  0  0  0  0  0  0  0  0  0  0
  -18.1981  -27.7323   25.4458 C   0  0  0  0  0  0  0  0  0  0  0  0
  -23.0427  -27.5653   19.9636 C   0  0  0  0  0  0  0  0  0  0  0  0
  -24.6163  -25.7942   21.7332 C   0  0  0  0  0  0  0  0  0  0  0  0
  -19.4882  -26.9223   25.3473 C   0  0  0  0  0  0  0  0  0  0  0  0
  -28.5082  -18.3808   18.2631 C   0  0  0  0  0  0  0  0  0  0  0  0
  -20.6907  -27.8494   25.2014 C   0  0  0  0  0  0  0  0  0  0  0  0
  -28.5472  -16.8655   18.4428 C   0  0  0  0  0  0  0  0  0  0  0  0
  -28.4071  -19.1127   19.6005 C   0  0  0  0  0  0  0  0  0  0  0  0
  -29.5136  -17.2167   20.7499 C   0  0  0  0  0  0  0  0  0  0  0  0
  -20.5922  -28.6831   23.9181 C   0  0  1  0  0  0  0  0  0  0  0  0
  -22.4044  -26.8319   21.1392 C   0  0  1  0  0  0  0  0  0  0  0  0
  -29.6627  -16.4617   19.4198 C   0  0  1  0  0  0  0  0  0  0  0  0
  -24.2344  -19.3174   20.7087 C   0  0  0  0  0  0  0  0  0  0  0  0
  -22.8831  -24.2365   24.9332 C   0  0  0  0  0  0  0  0  0  0  0  0
  -23.7176  -21.9076   24.5487 C   0  0  0  0  0  0  0  0  0  0  0  0
  -21.3741  -22.5073   23.9396 C   0  0  0  0  0  0  0  0  0  0  0  0
  -24.6835  -21.9250   17.9747 C   0  0  0  0  0  0  0  0  0  0  0  0
  -31.4375  -27.4395   20.5458 C   0  0  0  0  0  0  0  0  0  0  0  0
  -30.7255  -28.2063   21.6623 C   0  0  0  0  0  0  0  0  0  0  0  0
  -29.2292  -27.9233   21.7300 C   0  0  0  0  0  0  0  0  0  1  0  0
  -23.2831  -23.3804   22.5305 C   0  0  1  0  0  0  0  0  0  0  0  0
  -23.9944  -20.6442   20.0053 C   0  0  2  0  0  0  0  0  0  0  0  0
  -22.8267  -23.0300   23.9750 C   0  0  0  0  0  0  0  0  0  0  0  0
  -28.5732  -14.2538   19.5649 N   0  0  0  0  0  0  0  0  0  0  0  0
  -29.7156  -14.9590   19.6253 N   0  0  0  0  0  0  0  0  0  0  0  0
  -29.4487  -18.6671   20.5382 N   0  0  0  0  0  0  0  0  0  0  0  0
  -23.1634  -25.6476   21.5460 N   0  0  0  0  0  0  0  0  0  0  0  0
  -32.0501  -14.7475   19.9661 N   0  0  0  0  0  0  0  0  0  0  0  0
  -30.5556  -10.5010   20.3263 N   0  0  0  0  0  0  0  0  0  0  0  0
  -20.9553  -27.8842   22.7673 N   0  0  0  0  0  0  0  0  0  0  0  0
  -23.2143  -22.2633   21.5947 N   0  0  0  0  0  0  0  0  0  0  0  0
  -24.8372  -20.6841   18.7769 N   0  3  0  0  0  0  0  0  0  0  0  0
  -32.4202  -11.8327   20.4177 O   0  0  0  0  0  0  0  0  0  0  0  0
  -31.1832  -19.0916   22.0311 O   0  0  0  0  0  0  0  0  0  0  0  0
  -23.2635  -28.1684   22.8858 O   0  0  0  0  0  0  0  0  0  0  0  0
  -21.2478  -24.3389   21.7785 O   0  0  0  0  0  0  0  0  0  0  0  0
  -25.4566  -22.2877   21.0043 O   0  0  0  0  0  0  0  0  0  0  0  0
  -25.2677   -8.8179   19.8362 O   0  0  0  0  0  0  0  0  0  0  0  0
  -28.6378  -28.2843   20.4825 O   0  0  0  0  0  0  0  0  0  1  0  0
  -20.5694   -9.6001   22.6143 F   0  0  0  0  0  0  0  0  0  0  0  0
  -24.5763   -7.1704   21.9457 F   0  0  0  0  0  0  0  0  0  0  0  0
  1  2  1  0  0  0  0
  1  7  2  0  0  0  0
  2  8  2  0  0  0  0
  3 12  2  0  0  0  0
  3 19  1  0  0  0  0
  4 13  1  0  0  0  0
  4 19  2  0  0  0  0
  5 10  2  0  0  0  0
  5 20  1  0  0  0  0
  6 11  1  0  0  0  0
  6 20  2  0  0  0  0
  7 22  1  0  0  0  0
  8 24  1  0  0  0  0
  9 14  2  0  0  0  0
  9 23  1  0  0  0  0
 10 26  1  0  0  0  0
 11 26  2  0  0  0  0
 12 27  1  0  0  0  0
 13 27  2  0  0  0  0
 14 28  1  0  0  0  0
 15 16  2  0  0  0  0
 15 29  1  0  0  0  0
 16 30  1  0  0  0  0
 17 25  1  0  0  0  0
 17 28  2  0  0  0  0
 18 30  2  0  0  0  0
 18 31  1  0  0  0  0
 19 32  1  0  0  0  0
 20 34  1  0  0  0  0
 21 32  1  0  0  0  0
 21 33  2  0  0  0  0
 21 36  1  0  0  0  0
 22 24  2  0  0  0  0
 22 41  1  0  0  0  0
 23 25  2  0  0  0  0
 23 42  1  0  0  0  0
 24 50  1  0  0  0  0
 25 43  1  0  0  0  0
 26 58  1  0  0  0  0
 27 78  1  0  0  0  0
 28 79  1  0  0  0  0
 29 31  2  0  0  0  0
 29 78  1  0  0  0  0
 30 80  1  0  0  0  0
 31 81  1  0  0  0  0
 32 64  2  0  0  0  0
 33 65  1  0  0  0  0
 33 68  1  0  0  0  0
 34 35  2  0  0  0  0
 35 37  1  0  0  0  0
 36 69  1  0  0  0  0
 36 73  2  0  0  0  0
 37 66  1  0  0  0  0
 37 74  2  0  0  0  0
 38 51  1  0  0  0  0
 38 70  1  0  0  0  0
 38 75  2  0  0  0  0
 39 61  1  0  0  0  0
 39 67  1  0  0  0  0
 39 76  2  0  0  0  0
 40 62  1  0  0  0  0
 40 71  1  0  0  0  0
 40 77  2  0  0  0  0
 41 44  1  0  0  0  0
 42 51  1  0  0  0  0
 43 67  1  0  0  0  0
 44 46  1  0  0  0  0
 45 47  1  0  0  0  0
 45 48  1  0  0  0  0
 46 50  1  0  0  0  0
 47 52  1  0  0  0  0
 48 66  1  0  0  0  0
 49 52  1  0  0  0  0
 49 66  1  0  0  0  0
 50 70  1  0  0  0  0
 51 67  1  0  0  0  0
 52 65  1  0  0  0  0
 53 62  1  0  0  0  0
 54 63  1  0  0  0  0
 55 63  1  0  0  0  0
 56 63  1  0  0  0  0
 57 72  1  0  0  0  0
 58 59  1  0  0  0  0
 59 60  1  0  0  0  0
 60 79  1  0  0  0  0
 61 63  1  0  0  0  0
 61 71  1  0  0  0  0
 62 72  1  0  0  0  0
 64 65  1  0  0  0  0
M  CHG  1  72   1
M  ISO  4  35 100  37 100  60 101  79 101
M  END
> <Batch ID>
0127

> <Smiles>
CNC(C)C(=O)NC(C(=O)N1Cc2cc([101O:1][101CH2:1]CCc3ccc(C=[100CH:0][100C:0](=O)N4CCCC(n5nc(-c6ccc(Oc7ccc(F)cc7F)cc6)c(C(N)=O)c5N)C4)cc3)ccc2CC1C(=O)NC1CCCc2ccccc21)C(C)(C)C

> <Shape>
0.241

> <Color>
0.090

> <Negative vol penalty>
0.000

$$$$

  -OEChem-04052302143D

 84 92  0     1  0  0  0  0  0999 V2000
  -27.6220  -37.2959   21.1312 C   0  0  0  0  0  0  0  0  0  0  0  0
  -28.1173  -36.0082   20.9521 C   0  0  0  0  0  0  0  0  0  0  0  0
  -24.7846   -8.8017   20.7495 C   0  0  0  0  0  0  0  0  0  0  0  0
  -23.2018  -10.5204   20.1348 C   0  0  0  0  0  0  0  0  0  0  0  0
  -26.4911  -37.5030   21.9199 C   0  0  0  0  0  0  0  0  0  0  0  0
  -27.4826  -34.9271   21.5626 C   0  0  0  0  0  0  0  0  0  0  0  0
  -26.9059  -29.2548   19.3268 C   0  0  0  0  0  0  0  0  0  0  0  0
  -29.8767  -18.3988   15.4510 C   0  0  0  0  0  0  0  0  0  0  0  0
  -23.7396   -8.0091   21.2243 C   0  0  0  0  0  0  0  0  0  0  0  0
  -22.1568   -9.7278   20.6095 C   0  0  0  0  0  0  0  0  0  0  0  0
  -27.6195  -28.0792   19.5559 C   0  0  0  0  0  0  0  0  0  0  0  0
  -30.1793  -19.6935   15.8727 C   0  0  0  0  0  0  0  0  0  0  0  0
  -21.3612   -5.9851   19.9284 C   0  0  0  0  0  0  0  0  0  0  0  0
  -21.3614   -4.6347   19.5789 C   0  0  0  0  0  0  0  0  0  0  0  0
  -25.9761  -27.4071   21.1889 C   0  0  0  0  0  0  0  0  0  0  0  0
  -29.5380  -19.1090   18.1275 C   0  0  0  0  0  0  0  0  0  0  0  0
  -21.4526   -4.0298   21.9162 C   0  0  0  0  0  0  0  0  0  0  0  0
  -24.5157  -10.0574   20.2048 C   0  0  0  0  0  0  0  0  0  0  0  0
  -26.1225  -10.8963   18.4098 C   0  0  0  0  0  0  0  0  0  0  0  0
  -25.8366  -36.4228   22.5326 C   0  0  0  0  0  0  0  0  0  0  0  0
  -25.7258  -29.5209   20.0361 C   0  0  0  0  0  0  0  0  0  0  0  0
  -26.3427  -35.1202   22.3614 C   0  0  0  0  0  0  0  0  0  0  0  0
  -25.2480  -28.5856   20.9651 C   0  0  0  0  0  0  0  0  0  0  0  0
  -29.4046  -17.4592   16.3676 C   0  0  0  0  0  0  0  0  0  0  0  0
  -29.2354  -17.8143   17.7058 C   0  0  0  0  0  0  0  0  0  0  0  0
  -22.4257   -8.4721   21.1543 C   0  0  0  0  0  0  0  0  0  0  0  0
  -27.1562  -27.1565   20.4892 C   0  0  0  0  0  0  0  0  0  0  0  0
  -30.0100  -20.0486   17.2109 C   0  0  0  0  0  0  0  0  0  0  0  0
  -21.4068   -6.3578   21.2718 C   0  0  0  0  0  0  0  0  0  0  0  0
  -21.4070   -3.6571   20.5728 C   0  0  0  0  0  0  0  0  0  0  0  0
  -21.4524   -5.3802   22.2657 C   0  0  0  0  0  0  0  0  0  0  0  0
  -25.5948  -10.8768   19.7148 C   0  0  0  0  0  0  0  0  0  0  0  0
  -27.1230  -11.8361   18.4580 C   0  0  0  0  0  0  0  0  0  0  0  0
  -25.7422  -10.1332   17.2571 C   0  0  0  0  0  0  0  0  0  0  0  0
  -24.7903  -31.7801   22.0670 C   0  0  0  0  0  0  0  0  0  0  0  0
  -21.9249  -30.2824   21.8055 C   0  0  0  0  0  0  0  0  0  0  0  0
  -20.2048  -27.4241   21.0858 C   0  0  0  0  0  0  0  0  0  0  0  0
  -29.0511  -16.8225   20.0142 C   0  0  0  0  0  0  0  0  0  0  0  0
  -24.6454  -36.7015   23.4146 C   0  0  0  0  0  0  0  0  0  0  0  0
  -24.9534  -30.7812   19.7580 C   0  0  0  0  0  0  0  0  0  0  0  0
  -23.9758  -28.8145   21.7381 C   0  0  0  0  0  0  0  0  0  0  0  0
  -23.8111  -35.4605   23.7216 C   0  0  0  0  0  0  0  0  0  0  0  0
  -29.2426  -14.1914   22.4054 C   0  0  0  0  0  0  0  0  0  0  0  0
  -24.7124  -34.2979   24.1253 C   0  0  0  0  0  0  0  0  0  0  0  0
  -28.3540  -13.0961   21.8112 C   0  0  0  0  0  0  0  0  0  0  0  0
  -28.6795  -15.5860   22.1374 C   0  0  0  0  0  0  0  0  0  0  0  0
  -27.4928  -14.7797   20.1347 C   0  0  0  0  0  0  0  0  0  0  0  0
  -25.6674  -33.9190   22.9870 C   0  0  1  0  0  0  0  0  0  0  0  0
  -24.0383  -31.1875   20.9090 C   0  0  1  0  0  0  0  0  0  0  0  0
  -28.0529  -13.3604   20.3229 C   0  0  2  0  0  0  0  0  0  0  0  0
  -30.1726  -15.0747   16.2634 C   0  0  0  0  0  0  0  0  0  0  0  0
  -17.8747  -26.4965   20.9974 C   0  0  0  0  0  0  0  0  0  0  0  0
  -21.8886  -30.0901   24.8504 C   0  0  0  0  0  0  0  0  0  0  0  0
  -20.0825  -28.3678   24.6506 C   0  0  0  0  0  0  0  0  0  0  0  0
  -19.6907  -30.6859   23.8165 C   0  0  0  0  0  0  0  0  0  0  0  0
  -20.4168  -26.8546   18.1893 C   0  0  0  0  0  0  0  0  0  0  0  0
  -29.0886  -16.0799   15.8876 C   0  0  0  0  0  0  0  0  0  0  0  0
  -28.6568  -23.9567   19.7296 C   0  0  0  0  0  0  0  0  0  0  0  0
  -29.4631  -23.3435   18.5901 C   0  0  0  0  0  0  0  0  0  0  0  0
  -28.5967  -25.4746   19.6219 C   0  0  0  0  0  0  0  0  0  1  0  0
  -29.5599  -21.8301   18.7207 C   0  0  0  0  0  0  0  0  0  0  0  0
  -21.2387  -29.1523   22.5343 C   0  0  1  0  0  0  0  0  0  0  0  0
  -18.9881  -27.1733   20.2132 C   0  0  2  0  0  0  0  0  0  0  0  0
  -20.7502  -29.5703   23.9500 C   0  0  0  0  0  0  0  0  0  0  0  0
  -26.2094  -11.7359   20.5323 N   0  0  0  0  0  0  0  0  0  0  0  0
  -27.1336  -12.3039   19.7391 N   0  0  0  0  0  0  0  0  0  0  0  0
  -23.2596  -30.0646   21.4353 N   0  0  0  0  0  0  0  0  0  0  0  0
  -28.4229  -15.7658   20.7068 N   0  0  0  0  0  0  0  0  0  0  0  0
  -27.9859  -12.2996   17.5291 N   0  0  0  0  0  0  0  0  0  0  0  0
  -24.6939   -9.2114   17.3821 N   0  0  0  0  0  0  0  0  0  0  0  0
  -28.7572  -16.8742   18.6520 N   0  0  0  0  0  0  0  0  0  0  0  0
  -24.9720  -33.1471   21.9796 N   0  0  0  0  0  0  0  0  0  0  0  0
  -20.1775  -28.6815   21.6508 N   0  0  0  0  0  0  0  0  0  0  0  0
  -19.3486  -26.3003   19.0603 N   0  3  0  0  0  0  0  0  0  0  0  0
  -26.3259  -10.2531   16.1533 O   0  0  0  0  0  0  0  0  0  0  0  0
  -25.1759  -31.0512   22.9735 O   0  0  0  0  0  0  0  0  0  0  0  0
  -21.2975  -31.3173   21.5669 O   0  0  0  0  0  0  0  0  0  0  0  0
  -21.0888  -26.5867   21.2526 O   0  0  0  0  0  0  0  0  0  0  0  0
  -29.8163  -17.6061   20.5818 O   0  0  0  0  0  0  0  0  0  0  0  0
  -21.4058   -7.6989   21.6172 O   0  0  0  0  0  0  0  0  0  0  0  0
  -27.8511  -26.0085   20.7152 O   0  0  0  0  0  0  0  0  0  1  0  0
  -30.3077  -21.3210   17.6249 O   0  0  0  0  0  0  0  0  0  0  0  0
  -21.4056   -2.3604   20.2371 F   0  0  0  0  0  0  0  0  0  0  0  0
  -21.4951   -5.7322   23.5580 F   0  0  0  0  0  0  0  0  0  0  0  0
  1  2  1  0  0  0  0
  1  5  2  0  0  0  0
  2  6  2  0  0  0  0
  3  9  2  0  0  0  0
  3 18  1  0  0  0  0
  4 10  1  0  0  0  0
  4 18  2  0  0  0  0
  5 20  1  0  0  0  0
  6 22  1  0  0  0  0
  7 11  2  0  0  0  0
  7 21  1  0  0  0  0
  8 12  2  0  0  0  0
  8 24  1  0  0  0  0
  9 26  1  0  0  0  0
 10 26  2  0  0  0  0
 11 27  1  0  0  0  0
 12 28  1  0  0  0  0
 13 14  2  0  0  0  0
 13 29  1  0  0  0  0
 14 30  1  0  0  0  0
 15 23  1  0  0  0  0
 15 27  2  0  0  0  0
 16 25  1  0  0  0  0
 16 28  2  0  0  0  0
 17 30  2  0  0  0  0
 17 31  1  0  0  0  0
 18 32  1  0  0  0  0
 19 32  1  0  0  0  0
 19 33  2  0  0  0  0
 19 34  1  0  0  0  0
 20 22  2  0  0  0  0
 20 39  1  0  0  0  0
 21 23  2  0  0  0  0
 21 40  1  0  0  0  0
 22 48  1  0  0  0  0
 23 41  1  0  0  0  0
 24 25  2  0  0  0  0
 24 57  1  0  0  0  0
 25 71  1  0  0  0  0
 26 80  1  0  0  0  0
 27 81  1  0  0  0  0
 28 82  1  0  0  0  0
 29 31  2  0  0  0  0
 29 80  1  0  0  0  0
 30 83  1  0  0  0  0
 31 84  1  0  0  0  0
 32 65  2  0  0  0  0
 33 66  1  0  0  0  0
 33 69  1  0  0  0  0
 34 70  1  0  0  0  0
 34 75  2  0  0  0  0
 35 49  1  0  0  0  0
 35 72  1  0  0  0  0
 35 76  2  0  0  0  0
 36 62  1  0  0  0  0
 36 67  1  0  0  0  0
 36 77  2  0  0  0  0
 37 63  1  0  0  0  0
 37 73  1  0  0  0  0
 37 78  2  0  0  0  0
 38 68  1  0  0  0  0
 38 71  1  0  0  0  0
 38 79  2  0  0  0  0
 39 42  1  0  0  0  0
 40 49  1  0  0  0  0
 41 67  1  0  0  0  0
 42 44  1  0  0  0  0
 43 45  1  0  0  0  0
 43 46  1  0  0  0  0
 44 48  1  0  0  0  0
 45 50  1  0  0  0  0
 46 68  1  0  0  0  0
 47 50  1  0  0  0  0
 47 68  1  0  0  0  0
 48 72  1  0  0  0  0
 49 67  1  0  0  0  0
 50 66  1  0  0  0  0
 51 57  1  0  0  0  0
 52 63  1  0  0  0  0
 53 64  1  0  0  0  0
 54 64  1  0  0  0  0
 55 64  1  0  0  0  0
 56 74  1  0  0  0  0
 58 59  1  0  0  0  0
 58 60  1  0  0  0  0
 59 61  1  0  0  0  0
 60 81  1  0  0  0  0
 61 82  1  0  0  0  0
 62 64  1  0  0  0  0
 62 73  1  0  0  0  0
 63 74  1  0  0  0  0
 65 66  1  0  0  0  0
M  CHG  1  74   1
M  ISO  4  38 100  60 101  71 100  81 101
M  END
> <Batch ID>
0127

> <Smiles>
CCc1ccc(OCCC[101CH2:1][101O:1]c2ccc3c(c2)CN(C(=O)C(NC(=O)C(C)NC)C(C)(C)C)C(C(=O)NC2CCCc4ccccc42)C3)cc1[100NH:0][100C:0](=O)N1CCCC(n2nc(-c3ccc(Oc4ccc(F)cc4F)cc3)c(C(N)=O)c2N)C1

> <Shape>
0.314

> <Color>
0.091

> <Negative vol penalty>
0.000

$$$$

  -OEChem-04052302143D

 83 91  0     1  0  0  0  0  0999 V2000
  -19.6076  -33.9168   21.3081 C   0  0  0  0  0  0  0  0  0  0  0  0
  -20.8950  -33.5081   20.9750 C   0  0  0  0  0  0  0  0  0  0  0  0
  -24.2603   -9.5145   22.1371 C   0  0  0  0  0  0  0  0  0  0  0  0
  -23.4880   -9.5233   19.8478 C   0  0  0  0  0  0  0  0  0  0  0  0
  -30.6396  -20.6123   19.4373 C   0  0  0  0  0  0  0  0  0  0  0  0
  -30.8780  -21.9799   19.3009 C   0  0  0  0  0  0  0  0  0  0  0  0
  -18.8887  -33.2264   22.2830 C   0  0  0  0  0  0  0  0  0  0  0  0
  -21.4646  -32.4093   21.6173 C   0  0  0  0  0  0  0  0  0  0  0  0
  -25.2899  -28.2948   19.1792 C   0  0  0  0  0  0  0  0  0  0  0  0
  -23.2123   -8.6633   22.4873 C   0  0  0  0  0  0  0  0  0  0  0  0
  -22.4400   -8.6720   20.1981 C   0  0  0  0  0  0  0  0  0  0  0  0
  -26.6775  -28.1654   19.2186 C   0  0  0  0  0  0  0  0  0  0  0  0
  -22.4920   -5.3686   22.2448 C   0  0  0  0  0  0  0  0  0  0  0  0
  -22.7887   -4.2768   23.0606 C   0  0  0  0  0  0  0  0  0  0  0  0
  -29.6512  -21.0010   21.6073 C   0  0  0  0  0  0  0  0  0  0  0  0
  -26.4748  -26.6175   21.0577 C   0  0  0  0  0  0  0  0  0  0  0  0
  -21.2485   -5.1042   24.7281 C   0  0  0  0  0  0  0  0  0  0  0  0
  -24.3981   -9.9446   20.8173 C   0  0  0  0  0  0  0  0  0  0  0  0
  -30.0262  -20.1229   20.5905 C   0  0  0  0  0  0  0  0  0  0  0  0
  -30.5031  -22.8580   20.3177 C   0  0  0  0  0  0  0  0  0  0  0  0
  -26.7668  -10.4548   20.0194 C   0  0  0  0  0  0  0  0  0  0  0  0
  -19.4461  -32.1128   22.9308 C   0  0  0  0  0  0  0  0  0  0  0  0
  -24.4835  -27.5938   20.0874 C   0  0  0  0  0  0  0  0  0  0  0  0
  -20.7530  -31.7042   22.6028 C   0  0  0  0  0  0  0  0  0  0  0  0
  -25.0771  -26.7378   21.0260 C   0  0  0  0  0  0  0  0  0  0  0  0
  -29.8897  -22.3686   21.4710 C   0  0  0  0  0  0  0  0  0  0  0  0
  -22.3022   -8.2420   21.5179 C   0  0  0  0  0  0  0  0  0  0  0  0
  -27.2703  -27.3289   20.1598 C   0  0  0  0  0  0  0  0  0  0  0  0
  -21.5736   -6.3283   22.6707 C   0  0  0  0  0  0  0  0  0  0  0  0
  -22.1669   -4.1446   24.3022 C   0  0  0  0  0  0  0  0  0  0  0  0
  -20.9519   -6.1961   23.9123 C   0  0  0  0  0  0  0  0  0  0  0  0
  -25.4802  -10.8244   20.4550 C   0  0  0  0  0  0  0  0  0  0  0  0
  -27.4127  -11.6479   19.8052 C   0  0  0  0  0  0  0  0  0  0  0  0
  -29.7787  -18.6967   20.7321 C   0  0  0  0  0  0  0  0  0  0  0  0
  -30.7680  -24.2958   20.1437 C   0  0  0  0  0  0  0  0  0  0  0  0
  -28.8852  -18.1367   21.5752 C   0  0  0  0  0  0  0  0  0  0  0  0
  -30.2938  -25.0536   19.1425 C   0  0  0  0  0  0  0  0  0  0  0  0
  -27.3279   -9.1497   19.8255 C   0  0  0  0  0  0  0  0  0  0  0  0
  -28.7425  -16.6670   21.5956 C   0  0  0  0  0  0  0  0  0  0  0  0
  -22.4362  -28.4229   22.3732 C   0  0  0  0  0  0  0  0  0  0  0  0
  -21.8867  -25.2285   22.4997 C   0  0  0  0  0  0  0  0  0  0  0  0
  -23.0267  -22.0669   21.9070 C   0  0  0  0  0  0  0  0  0  0  0  0
  -18.6484  -31.4271   24.0116 C   0  0  0  0  0  0  0  0  0  0  0  0
  -22.9868  -27.7237   20.0144 C   0  0  0  0  0  0  0  0  0  0  0  0
  -24.2549  -25.9476   22.0099 C   0  0  0  0  0  0  0  0  0  0  0  0
  -19.1821  -30.0448   24.3786 C   0  0  0  0  0  0  0  0  0  0  0  0
  -25.6586  -16.3729   19.6373 C   0  0  0  0  0  0  0  0  0  0  0  0
  -20.6961  -30.0879   24.5599 C   0  0  0  0  0  0  0  0  0  0  0  0
  -25.4229  -14.8656   19.6853 C   0  0  0  0  0  0  0  0  0  0  0  0
  -26.2893  -16.8943   20.9276 C   0  0  0  0  0  0  0  0  0  0  0  0
  -27.3094  -14.6767   21.3543 C   0  0  0  0  0  0  0  0  0  0  0  0
  -21.3958  -30.5020   23.2597 C   0  0  1  0  0  0  0  0  0  0  0  0
  -22.2909  -27.3591   21.3221 C   0  0  1  0  0  0  0  0  0  0  0  0
  -26.7188  -14.1233   20.0480 C   0  0  1  0  0  0  0  0  0  0  0  0
  -29.4753  -23.2800   22.5812 C   0  0  0  0  0  0  0  0  0  0  0  0
  -22.3680  -19.6576   22.1493 C   0  0  0  0  0  0  0  0  0  0  0  0
  -22.4623  -25.3746   25.4926 C   0  0  0  0  0  0  0  0  0  0  0  0
  -22.7274  -22.8850   25.4924 C   0  0  0  0  0  0  0  0  0  0  0  0
  -20.5370  -23.9044   24.8711 C   0  0  0  0  0  0  0  0  0  0  0  0
  -23.1803  -21.6108   18.9869 C   0  0  0  0  0  0  0  0  0  0  0  0
  -30.6003  -26.5190   18.9957 C   0  0  0  0  0  0  0  0  0  0  0  0
  -29.3295  -27.3601   18.9704 C   0  0  0  0  0  0  0  0  0  1  0  0
  -22.4818  -24.0708   23.2642 C   0  0  1  0  0  0  0  0  0  0  0  0
  -22.3771  -20.8716   21.2334 C   0  0  2  0  0  0  0  0  0  0  0  0
  -22.0680  -24.0749   24.7629 C   0  0  0  0  0  0  0  0  0  0  0  0
  -25.3166  -12.1486   20.5147 N   0  0  0  0  0  0  0  0  0  0  0  0
  -26.5090  -12.6216   20.1139 N   0  0  0  0  0  0  0  0  0  0  0  0
  -27.4942  -16.1306   21.2847 N   0  0  0  0  0  0  0  0  0  0  0  0
  -22.7959  -26.1133   21.9028 N   0  0  0  0  0  0  0  0  0  0  0  0
  -28.6598  -11.9485   19.3849 N   0  0  0  0  0  0  0  0  0  0  0  0
  -26.5263   -8.0314   20.0924 N   0  0  0  0  0  0  0  0  0  0  0  0
  -21.4481  -29.3882   22.3371 N   0  0  0  0  0  0  0  0  0  0  0  0
  -22.0970  -22.8634   22.5414 N   0  0  0  0  0  0  0  0  0  0  0  0
  -23.1138  -20.5152   19.9880 N   0  3  0  0  0  0  0  0  0  0  0  0
  -28.5105   -8.9802   19.4432 O   0  0  0  0  0  0  0  0  0  0  0  0
  -29.7376  -16.0031   21.8920 O   0  0  0  0  0  0  0  0  0  0  0  0
  -23.3746  -28.3710   23.1597 O   0  0  0  0  0  0  0  0  0  0  0  0
  -20.6602  -25.3396   22.4286 O   0  0  0  0  0  0  0  0  0  0  0  0
  -24.2383  -22.2714   21.8769 O   0  0  0  0  0  0  0  0  0  0  0  0
  -21.2795   -7.4112   21.8592 O   0  0  0  0  0  0  0  0  0  0  0  0
  -28.6245  -27.2012   20.2009 O   0  0  0  0  0  0  0  0  0  1  0  0
  -22.4508   -3.0953   25.0849 F   0  0  0  0  0  0  0  0  0  0  0  0
  -20.0679   -7.1142   24.3263 F   0  0  0  0  0  0  0  0  0  0  0  0
  1  2  1  0  0  0  0
  1  7  2  0  0  0  0
  2  8  2  0  0  0  0
  3 10  2  0  0  0  0
  3 18  1  0  0  0  0
  4 11  1  0  0  0  0
  4 18  2  0  0  0  0
  5  6  2  0  0  0  0
  5 19  1  0  0  0  0
  6 20  1  0  0  0  0
  7 22  1  0  0  0  0
  8 24  1  0  0  0  0
  9 12  2  0  0  0  0
  9 23  1  0  0  0  0
 10 27  1  0  0  0  0
 11 27  2  0  0  0  0
 12 28  1  0  0  0  0
 13 14  2  0  0  0  0
 13 29  1  0  0  0  0
 14 30  1  0  0  0  0
 15 19  2  0  0  0  0
 15 26  1  0  0  0  0
 16 25  1  0  0  0  0
 16 28  2  0  0  0  0
 17 30  2  0  0  0  0
 17 31  1  0  0  0  0
 18 32  1  0  0  0  0
 19 34  1  0  0  0  0
 20 26  2  0  0  0  0
 20 35  1  0  0  0  0
 21 32  1  0  0  0  0
 21 33  2  0  0  0  0
 21 38  1  0  0  0  0
 22 24  2  0  0  0  0
 22 43  1  0  0  0  0
 23 25  2  0  0  0  0
 23 44  1  0  0  0  0
 24 52  1  0  0  0  0
 25 45  1  0  0  0  0
 26 55  1  0  0  0  0
 27 80  1  0  0  0  0
 28 81  1  0  0  0  0
 29 31  2  0  0  0  0
 29 80  1  0  0  0  0
 30 82  1  0  0  0  0
 31 83  1  0  0  0  0
 32 66  2  0  0  0  0
 33 67  1  0  0  0  0
 33 70  1  0  0  0  0
 34 36  2  0  0  0  0
 35 37  2  0  0  0  0
 36 39  1  0  0  0  0
 37 61  1  0  0  0  0
 38 71  1  0  0  0  0
 38 75  2  0  0  0  0
 39 68  1  0  0  0  0
 39 76  2  0  0  0  0
 40 53  1  0  0  0  0
 40 72  1  0  0  0  0
 40 77  2  0  0  0  0
 41 63  1  0  0  0  0
 41 69  1  0  0  0  0
 41 78  2  0  0  0  0
 42 64  1  0  0  0  0
 42 73  1  0  0  0  0
 42 79  2  0  0  0  0
 43 46  1  0  0  0  0
 44 53  1  0  0  0  0
 45 69  1  0  0  0  0
 46 48  1  0  0  0  0
 47 49  1  0  0  0  0
 47 50  1  0  0  0  0
 48 52  1  0  0  0  0
 49 54  1  0  0  0  0
 50 68  1  0  0  0  0
 51 54  1  0  0  0  0
 51 68  1  0  0  0  0
 52 72  1  0  0  0  0
 53 69  1  0  0  0  0
 54 67  1  0  0  0  0
 56 64  1  0  0  0  0
 57 65  1  0  0  0  0
 58 65  1  0  0  0  0
 59 65  1  0  0  0  0
 60 74  1  0  0  0  0
 61 62  1  0  0  0  0
 62 81  1  0  0  0  0
 63 65  1  0  0  0  0
 63 73  1  0  0  0  0
 64 74  1  0  0  0  0
 66 67  1  0  0  0  0
M  CHG  1  74   1
M  ISO  4  36 100  39 100  62 101  81 101
M  END
> <Batch ID>
0127

> <Smiles>
CNC(C)C(=O)NC(C(=O)N1Cc2cc([101O:1][101CH2:1]CC=Cc3ccc(C=[100CH:0][100C:0](=O)N4CCCC(n5nc(-c6ccc(Oc7ccc(F)cc7F)cc6)c(C(N)=O)c5N)C4)cc3C)ccc2CC1C(=O)NC1CCCc2ccccc21)C(C)(C)C

> <Shape>
0.262

> <Color>
0.131

> <Negative vol penalty>
0.000

$$$$

  -OEChem-04052302143D

 83 91  0     1  0  0  0  0  0999 V2000
  -30.5500  -24.4215   17.9957 C   0  0  0  0  0  0  0  0  0  0  0  0
  -29.1710  -24.3452   18.1630 C   0  0  0  0  0  0  0  0  0  0  0  0
  -26.4850  -13.8601   19.7360 C   0  0  0  0  0  0  0  0  0  0  0  0
  -24.3067  -14.1694   20.7342 C   0  0  0  0  0  0  0  0  0  0  0  0
  -31.3286  -25.0968   18.9346 C   0  0  0  0  0  0  0  0  0  0  0  0
  -28.5699  -24.9433   19.2699 C   0  0  0  0  0  0  0  0  0  0  0  0
  -23.0665  -27.6223   19.4716 C   0  0  0  0  0  0  0  0  0  0  0  0
  -22.0702  -24.4209   22.9961 C   0  0  0  0  0  0  0  0  0  0  0  0
  -23.1980  -23.6085   22.8800 C   0  0  0  0  0  0  0  0  0  0  0  0
  -26.5210  -12.5524   20.2198 C   0  0  0  0  0  0  0  0  0  0  0  0
  -24.3427  -12.8616   21.2180 C   0  0  0  0  0  0  0  0  0  0  0  0
  -21.8194  -27.1723   19.9030 C   0  0  0  0  0  0  0  0  0  0  0  0
  -23.8409   -9.7458   20.0096 C   0  0  0  0  0  0  0  0  0  0  0  0
  -22.6927   -8.9685   19.8583 C   0  0  0  0  0  0  0  0  0  0  0  0
  -22.1978  -28.2021   22.0514 C   0  0  0  0  0  0  0  0  0  0  0  0
  -20.7018  -22.4668   23.3783 C   0  0  0  0  0  0  0  0  0  0  0  0
  -22.5524   -8.7088   22.2562 C   0  0  0  0  0  0  0  0  0  0  0  0
  -25.3778  -14.6687   19.9932 C   0  0  0  0  0  0  0  0  0  0  0  0
  -24.8337  -16.4545   18.2547 C   0  0  0  0  0  0  0  0  0  0  0  0
  -30.7357  -25.7118   20.0486 C   0  0  0  0  0  0  0  0  0  0  0  0
  -23.8946  -28.3575   20.3319 C   0  0  0  0  0  0  0  0  0  0  0  0
  -29.3415  -25.6264   20.2253 C   0  0  0  0  0  0  0  0  0  0  0  0
  -23.4538  -28.6625   21.6276 C   0  0  0  0  0  0  0  0  0  0  0  0
  -20.8220  -23.8501   23.2452 C   0  0  0  0  0  0  0  0  0  0  0  0
  -21.8297  -21.6543   23.2622 C   0  0  0  0  0  0  0  0  0  0  0  0
  -23.0778  -22.2252   23.0131 C   0  0  0  0  0  0  0  0  0  0  0  0
  -25.4499  -12.0531   20.9608 C   0  0  0  0  0  0  0  0  0  0  0  0
  -21.3861  -27.4597   21.1941 C   0  0  0  0  0  0  0  0  0  0  0  0
  -24.3450  -10.0045   21.2843 C   0  0  0  0  0  0  0  0  0  0  0  0
  -22.0484   -8.4500   20.9816 C   0  0  0  0  0  0  0  0  0  0  0  0
  -23.7008   -9.4861   22.4075 C   0  0  0  0  0  0  0  0  0  0  0  0
  -25.3402  -16.0198   19.4942 C   0  0  0  0  0  0  0  0  0  0  0  0
  -25.0289  -17.8140   18.2616 C   0  0  0  0  0  0  0  0  0  0  0  0
  -24.2397  -15.6970   17.1921 C   0  0  0  0  0  0  0  0  0  0  0  0
  -26.7807  -27.9151   21.5881 C   0  0  0  0  0  0  0  0  0  0  0  0
  -26.3424  -30.9388   22.6776 C   0  0  0  0  0  0  0  0  0  0  0  0
  -24.1642  -33.4227   23.5337 C   0  0  0  0  0  0  0  0  0  0  0  0
  -25.5404  -21.8422   22.6454 C   0  0  0  0  0  0  0  0  0  0  0  0
  -31.6237  -26.3901   21.0615 C   0  0  0  0  0  0  0  0  0  0  0  0
  -25.2256  -28.8586   19.8424 C   0  0  0  0  0  0  0  0  0  0  0  0
  -24.2964  -29.4656   22.5834 C   0  0  0  0  0  0  0  0  0  0  0  0
  -30.8681  -27.3176   22.0097 C   0  0  0  0  0  0  0  0  0  0  0  0
  -27.9174  -21.1730   20.0804 C   0  0  0  0  0  0  0  0  0  0  0  0
  -29.6137  -26.6312   22.5409 C   0  0  0  0  0  0  0  0  0  0  0  0
  -27.4766  -19.8180   19.5221 C   0  0  0  0  0  0  0  0  0  0  0  0
  -27.7137  -21.2570   21.5920 C   0  0  0  0  0  0  0  0  0  0  0  0
  -25.9190  -19.5721   21.4970 C   0  0  0  0  0  0  0  0  0  0  0  0
  -28.6499  -26.2836   21.4000 C   0  0  1  0  0  0  0  0  0  0  0  0
  -26.2038  -29.1591   20.9739 C   0  0  1  0  0  0  0  0  0  0  0  0
  -26.0446  -19.4634   19.9686 C   0  0  2  0  0  0  0  0  0  0  0  0
  -21.6709  -20.1753   23.4062 C   0  0  0  0  0  0  0  0  0  0  0  0
  -24.1022  -35.7672   24.4263 C   0  0  0  0  0  0  0  0  0  0  0  0
  -26.9686  -29.8886   25.4731 C   0  0  0  0  0  0  0  0  0  0  0  0
  -25.9804  -31.9903   26.4083 C   0  0  0  0  0  0  0  0  0  0  0  0
  -27.9925  -32.1068   24.9385 C   0  0  0  0  0  0  0  0  0  0  0  0
  -18.2883  -23.7317   21.4118 C   0  0  0  0  0  0  0  0  0  0  0  0
  -17.5845  -25.8884   22.4420 C   0  0  0  0  0  0  0  0  0  0  0  0
  -22.8283  -34.4390   21.0963 C   0  0  0  0  0  0  0  0  0  0  0  0
  -19.6001  -24.7300   23.3685 C   0  0  0  0  0  0  0  0  0  0  0  0
  -19.6825  -25.8067   21.0484 C   0  0  0  0  0  0  0  0  0  1  0  0
  -25.7454  -31.5509   23.9218 C   0  0  1  0  0  0  0  0  0  0  0  0
  -24.1290  -34.8982   23.1786 C   0  0  2  0  0  0  0  0  0  0  0  0
  -26.6564  -31.3673   25.1683 C   0  0  0  0  0  0  0  0  0  0  0  0
  -18.8107  -25.0286   22.0598 C   0  0  0  0  0  0  0  0  0  0  0  0
  -25.8212  -17.0220   20.2346 N   0  0  0  0  0  0  0  0  0  0  0  0
  -25.6179  -18.0999   19.4581 N   0  0  0  0  0  0  0  0  0  0  0  0
  -25.5927  -29.9277   22.0601 N   0  0  0  0  0  0  0  0  0  0  0  0
  -26.3335  -20.9124   21.9403 N   0  0  0  0  0  0  0  0  0  0  0  0
  -24.7526  -18.7808   17.3609 N   0  0  0  0  0  0  0  0  0  0  0  0
  -24.1154  -14.3098   17.3488 N   0  0  0  0  0  0  0  0  0  0  0  0
  -24.2354  -21.4171   22.8918 N   0  0  0  0  0  0  0  0  0  0  0  0
  -27.9305  -27.4632   20.9691 N   0  0  0  0  0  0  0  0  0  0  0  0
  -25.4554  -32.9424   23.5934 N   0  0  0  0  0  0  0  0  0  0  0  0
  -22.9190  -35.2064   22.3651 N   0  3  0  0  0  0  0  0  0  0  0  0
  -23.8462  -16.2323   16.1280 O   0  0  0  0  0  0  0  0  0  0  0  0
  -26.2247  -27.4040   22.5532 O   0  0  0  0  0  0  0  0  0  0  0  0
  -27.4304  -31.3479   22.2647 O   0  0  0  0  0  0  0  0  0  0  0  0
  -23.1482  -32.7631   23.7414 O   0  0  0  0  0  0  0  0  0  0  0  0
  -25.9778  -22.9460   22.9803 O   0  0  0  0  0  0  0  0  0  0  0  0
  -25.4847  -10.7770   21.4329 O   0  0  0  0  0  0  0  0  0  0  0  0
  -20.1697  -27.0211   21.6179 O   0  0  0  0  0  0  0  0  0  1  0  0
  -20.9448   -7.7049   20.8362 F   0  0  0  0  0  0  0  0  0  0  0  0
  -24.1796   -9.7322   23.6347 F   0  0  0  0  0  0  0  0  0  0  0  0
  1  2  1  0  0  0  0
  1  5  2  0  0  0  0
  2  6  2  0  0  0  0
  3 10  2  0  0  0  0
  3 18  1  0  0  0  0
  4 11  1  0  0  0  0
  4 18  2  0  0  0  0
  5 20  1  0  0  0  0
  6 22  1  0  0  0  0
  7 12  2  0  0  0  0
  7 21  1  0  0  0  0
  8  9  2  0  0  0  0
  8 24  1  0  0  0  0
  9 26  1  0  0  0  0
 10 27  1  0  0  0  0
 11 27  2  0  0  0  0
 12 28  1  0  0  0  0
 13 14  2  0  0  0  0
 13 29  1  0  0  0  0
 14 30  1  0  0  0  0
 15 23  1  0  0  0  0
 15 28  2  0  0  0  0
 16 24  2  0  0  0  0
 16 25  1  0  0  0  0
 17 30  2  0  0  0  0
 17 31  1  0  0  0  0
 18 32  1  0  0  0  0
 19 32  1  0  0  0  0
 19 33  2  0  0  0  0
 19 34  1  0  0  0  0
 20 22  2  0  0  0  0
 20 39  1  0  0  0  0
 21 23  2  0  0  0  0
 21 40  1  0  0  0  0
 22 48  1  0  0  0  0
 23 41  1  0  0  0  0
 24 59  1  0  0  0  0
 25 26  2  0  0  0  0
 25 51  1  0  0  0  0
 26 71  1  0  0  0  0
 27 80  1  0  0  0  0
 28 81  1  0  0  0  0
 29 31  2  0  0  0  0
 29 80  1  0  0  0  0
 30 82  1  0  0  0  0
 31 83  1  0  0  0  0
 32 65  2  0  0  0  0
 33 66  1  0  0  0  0
 33 69  1  0  0  0  0
 34 70  1  0  0  0  0
 34 75  2  0  0  0  0
 35 49  1  0  0  0  0
 35 72  1  0  0  0  0
 35 76  2  0  0  0  0
 36 61  1  0  0  0  0
 36 67  1  0  0  0  0
 36 77  2  0  0  0  0
 37 62  1  0  0  0  0
 37 73  1  0  0  0  0
 37 78  2  0  0  0  0
 38 68  1  0  0  0  0
 38 71  1  0  0  0  0
 38 79  2  0  0  0  0
 39 42  1  0  0  0  0
 40 49  1  0  0  0  0
 41 67  1  0  0  0  0
 42 44  1  0  0  0  0
 43 45  1  0  0  0  0
 43 46  1  0  0  0  0
 44 48  1  0  0  0  0
 45 50  1  0  0  0  0
 46 68  1  0  0  0  0
 47 50  1  0  0  0  0
 47 68  1  0  0  0  0
 48 72  1  0  0  0  0
 49 67  1  0  0  0  0
 50 66  1  0  0  0  0
 52 62  1  0  0  0  0
 53 63  1  0  0  0  0
 54 63  1  0  0  0  0
 55 63  1  0  0  0  0
 56 64  1  0  0  0  0
 57 64  1  0  0  0  0
 58 74  1  0  0  0  0
 59 64  1  0  0  0  0
 60 64  1  0  0  0  0
 60 81  1  0  0  0  0
 61 63  1  0  0  0  0
 61 73  1  0  0  0  0
 62 74  1  0  0  0  0
 65 66  1  0  0  0  0
M  CHG  1  74   1
M  ISO  4  38 100  60 101  71 100  81 101
M  END
> <Batch ID>
0127

> <Smiles>
CNC(C)C(=O)NC(C(=O)N1Cc2cc([101O:1][101CH2:1]C(C)(C)Cc3ccc([100NH:0][100C:0](=O)N4CCCC(n5nc(-c6ccc(Oc7ccc(F)cc7F)cc6)c(C(N)=O)c5N)C4)c(C)c3)ccc2CC1C(=O)NC1CCCc2ccccc21)C(C)(C)C

> <Shape>
0.282

> <Color>
0.076

> <Negative vol penalty>
0.000

$$$$

  -OEChem-04052302143D

 86 95  0     1  0  0  0  0  0999 V2000
  -16.5189  -29.4651   23.9189 C   0  0  0  0  0  0  0  0  0  0  0  0
  -17.2424  -28.4053   23.3817 C   0  0  0  0  0  0  0  0  0  0  0  0
  -24.5365   -8.9736   22.3866 C   0  0  0  0  0  0  0  0  0  0  0  0
  -23.8842   -9.2133   20.0727 C   0  0  0  0  0  0  0  0  0  0  0  0
  -16.9880  -30.7705   23.7778 C   0  0  0  0  0  0  0  0  0  0  0  0
  -18.4351  -28.6504   22.7020 C   0  0  0  0  0  0  0  0  0  0  0  0
  -23.4225  -25.0974   22.6196 C   0  0  0  0  0  0  0  0  0  0  0  0
  -23.4206   -8.1692   22.6178 C   0  0  0  0  0  0  0  0  0  0  0  0
  -22.7684   -8.4088   20.3039 C   0  0  0  0  0  0  0  0  0  0  0  0
  -23.8930  -24.1624   21.6986 C   0  0  0  0  0  0  0  0  0  0  0  0
  -22.5085   -4.9589   22.0745 C   0  0  0  0  0  0  0  0  0  0  0  0
  -22.6941   -3.7892   22.8113 C   0  0  0  0  0  0  0  0  0  0  0  0
  -31.5829  -20.4057   20.5585 C   0  0  0  0  0  0  0  0  0  0  0  0
  -29.4633  -20.5454   19.4076 C   0  0  0  0  0  0  0  0  0  0  0  0
  -25.3033  -25.8527   20.7121 C   0  0  0  0  0  0  0  0  0  0  0  0
  -30.9810  -22.4249   19.3762 C   0  0  0  0  0  0  0  0  0  0  0  0
  -21.1257   -4.5840   24.4683 C   0  0  0  0  0  0  0  0  0  0  0  0
  -24.7683   -9.4957   21.1140 C   0  0  0  0  0  0  0  0  0  0  0  0
  -30.3704  -19.8258   20.1854 C   0  0  0  0  0  0  0  0  0  0  0  0
  -27.2729   -9.9744   21.0425 C   0  0  0  0  0  0  0  0  0  0  0  0
  -18.1919  -31.0308   23.1044 C   0  0  0  0  0  0  0  0  0  0  0  0
  -23.8816  -26.4220   22.5868 C   0  0  0  0  0  0  0  0  0  0  0  0
  -18.9200  -29.9606   22.5506 C   0  0  0  0  0  0  0  0  0  0  0  0
  -24.8390  -26.8019   21.6354 C   0  0  0  0  0  0  0  0  0  0  0  0
  -31.8882  -21.7053   20.1540 C   0  0  0  0  0  0  0  0  0  0  0  0
  -29.7686  -21.8450   19.0030 C   0  0  0  0  0  0  0  0  0  0  0  0
  -22.5366   -7.8868   21.5765 C   0  0  0  0  0  0  0  0  0  0  0  0
  -24.8314  -24.5407   20.7428 C   0  0  0  0  0  0  0  0  0  0  0  0
  -21.6316   -5.9413   22.5347 C   0  0  0  0  0  0  0  0  0  0  0  0
  -22.0027   -3.6017   24.0082 C   0  0  0  0  0  0  0  0  0  0  0  0
  -20.9402   -5.7538   23.7315 C   0  0  0  0  0  0  0  0  0  0  0  0
  -25.9204  -10.3271   20.8747 C   0  0  0  0  0  0  0  0  0  0  0  0
  -27.9690  -11.1035   20.6860 C   0  0  0  0  0  0  0  0  0  0  0  0
  -26.6286  -23.4912   17.8758 C   0  0  0  0  0  0  0  0  0  0  0  0
  -30.0513  -18.4713   20.6082 C   0  0  0  0  0  0  0  0  0  0  0  0
  -25.6731  -24.0806   18.6096 C   0  0  0  0  0  0  0  0  0  1  0  0
  -28.8123  -17.9368   20.6551 C   0  0  0  0  0  0  0  0  0  0  0  0
  -27.8486   -8.7368   21.4812 C   0  0  0  0  0  0  0  0  0  0  0  0
  -28.6517  -16.5376   21.0992 C   0  0  0  0  0  0  0  0  0  0  0  0
  -22.5214  -29.2563   22.1177 C   0  0  0  0  0  0  0  0  0  0  0  0
  -25.4746  -30.3636   22.8758 C   0  0  0  0  0  0  0  0  0  0  0  0
  -28.8321  -29.7773   23.0495 C   0  0  0  0  0  0  0  0  0  0  0  0
  -18.6346  -32.4627   22.9362 C   0  0  0  0  0  0  0  0  0  0  0  0
  -23.3841  -27.4119   23.6042 C   0  0  0  0  0  0  0  0  0  0  0  0
  -25.3788  -28.2065   21.5708 C   0  0  0  0  0  0  0  0  0  0  0  0
  -27.0045  -23.9841   16.5065 C   0  0  0  0  0  0  0  0  0  0  0  0
  -27.4177  -22.3073   18.3758 C   0  0  0  0  0  0  0  0  0  0  0  0
  -20.0985  -32.6036   22.5269 C   0  0  0  0  0  0  0  0  0  0  0  0
  -28.5034  -24.2594   16.4598 C   0  0  0  0  0  0  0  0  0  0  0  0
  -26.4505  -15.3461   18.4220 C   0  0  0  0  0  0  0  0  0  0  0  0
  -20.4305  -31.6403   21.3917 C   0  0  0  0  0  0  0  0  0  0  0  0
  -26.1926  -13.9103   18.8711 C   0  0  0  0  0  0  0  0  0  0  0  0
  -29.3173  -23.0457   16.9108 C   0  0  0  0  0  0  0  0  0  0  0  0
  -26.5938  -16.2990   19.6077 C   0  0  0  0  0  0  0  0  0  0  0  0
  -27.3683  -14.4345   21.0444 C   0  0  0  0  0  0  0  0  0  0  0  0
  -20.2308  -30.1838   21.8279 C   0  0  1  0  0  0  0  0  0  0  0  0
  -23.5368  -28.8610   23.1523 C   0  0  1  0  0  0  0  0  0  0  0  0
  -27.2677  -13.4504   19.8684 C   0  0  1  0  0  0  0  0  0  0  0  0
  -33.1840  -22.3259   20.5545 C   0  0  0  0  0  0  0  0  0  0  0  0
  -30.9956  -30.8853   23.6734 C   0  0  0  0  0  0  0  0  0  0  0  0
  -25.4151  -31.9438   20.2663 C   0  0  0  0  0  0  0  0  0  0  0  0
  -27.8916  -32.2468   20.4745 C   0  0  0  0  0  0  0  0  0  0  0  0
  -26.3713  -33.1847   22.2158 C   0  0  0  0  0  0  0  0  0  0  0  0
  -29.3720  -27.7886   25.1738 C   0  0  0  0  0  0  0  0  0  0  0  0
  -26.7282  -30.6845   22.0983 C   0  0  1  0  0  0  0  0  0  0  0  0
  -29.8413  -30.0213   24.1570 C   0  0  2  0  0  0  0  0  0  0  0  0
  -26.5901  -31.9889   21.2634 C   0  0  0  0  0  0  0  0  0  0  0  0
  -25.7643  -11.5822   20.4452 N   0  0  0  0  0  0  0  0  0  0  0  0
  -27.0278  -12.0280   20.3402 N   0  0  0  0  0  0  0  0  0  0  0  0
  -28.8559  -22.5697   18.2250 N   0  0  2  0  0  0  0  0  0  0  0  0
  -27.5855  -15.8079   20.5762 N   0  0  0  0  0  0  0  0  0  0  0  0
  -24.8569  -29.1394   22.5831 N   0  0  0  0  0  0  0  0  0  0  0  0
  -29.2882  -11.3859   20.6379 N   0  0  0  0  0  0  0  0  0  0  0  0
  -28.1588   -7.7660   20.5191 N   0  0  0  0  0  0  0  0  0  0  0  0
  -21.3412  -29.7443   22.6455 N   0  0  0  0  0  0  0  0  0  0  0  0
  -27.8161  -30.7093   23.0700 N   0  0  0  0  0  0  0  0  0  0  0  0
  -30.3956  -28.7276   24.6468 N   0  3  0  0  0  0  0  0  0  0  0  0
  -28.0658   -8.4923   22.6923 O   0  0  0  0  0  0  0  0  0  0  0  0
  -29.4697  -16.1011   21.9109 O   0  0  0  0  0  0  0  0  0  0  0  0
  -22.7894  -29.1295   20.9287 O   0  0  0  0  0  0  0  0  0  0  0  0
  -25.0627  -31.1662   23.7172 O   0  0  0  0  0  0  0  0  0  0  0  0
  -28.9368  -28.8547   22.2443 O   0  0  0  0  0  0  0  0  0  0  0  0
  -21.4478   -7.1017   21.8017 O   0  0  0  0  0  0  0  0  0  0  0  0
  -25.2918  -23.6302   19.8423 O   0  0  0  0  0  0  0  0  0  1  0  0
  -22.1798   -2.4777   24.7148 F   0  0  0  0  0  0  0  0  0  0  0  0
  -20.0955   -6.6935   24.1780 F   0  0  0  0  0  0  0  0  0  0  0  0
  1  2  1  0  0  0  0
  1  5  2  0  0  0  0
  2  6  2  0  0  0  0
  3  8  2  0  0  0  0
  3 18  1  0  0  0  0
  4  9  1  0  0  0  0
  4 18  2  0  0  0  0
  5 21  1  0  0  0  0
  6 23  1  0  0  0  0
  7 10  2  0  0  0  0
  7 22  1  0  0  0  0
  8 27  1  0  0  0  0
  9 27  2  0  0  0  0
 10 28  1  0  0  0  0
 11 12  2  0  0  0  0
 11 29  1  0  0  0  0
 12 30  1  0  0  0  0
 13 19  2  0  0  0  0
 13 25  1  0  0  0  0
 14 19  1  0  0  0  0
 14 26  2  0  0  0  0
 15 24  1  0  0  0  0
 15 28  2  0  0  0  0
 16 25  2  0  0  0  0
 16 26  1  0  0  0  0
 17 30  2  0  0  0  0
 17 31  1  0  0  0  0
 18 32  1  0  0  0  0
 19 35  1  0  0  0  0
 20 32  1  0  0  0  0
 20 33  2  0  0  0  0
 20 38  1  0  0  0  0
 21 23  2  0  0  0  0
 21 43  1  0  0  0  0
 22 24  2  0  0  0  0
 22 44  1  0  0  0  0
 23 56  1  0  0  0  0
 24 45  1  0  0  0  0
 25 59  1  0  0  0  0
 26 70  1  0  0  0  0
 27 83  1  0  0  0  0
 28 84  1  0  0  0  0
 29 31  2  0  0  0  0
 29 83  1  0  0  0  0
 30 85  1  0  0  0  0
 31 86  1  0  0  0  0
 32 68  2  0  0  0  0
 33 69  1  0  0  0  0
 33 73  1  0  0  0  0
 34 36  2  0  0  0  0
 34 46  1  0  0  0  0
 34 47  1  0  0  0  0
 35 37  2  0  0  0  0
 36 84  1  0  0  0  0
 37 39  1  0  0  0  0
 38 74  1  0  0  0  0
 38 78  2  0  0  0  0
 39 71  1  0  0  0  0
 39 79  2  0  0  0  0
 40 57  1  0  0  0  0
 40 75  1  0  0  0  0
 40 80  2  0  0  0  0
 41 65  1  0  0  0  0
 41 72  1  0  0  0  0
 41 81  2  0  0  0  0
 42 66  1  0  0  0  0
 42 76  1  0  0  0  0
 42 82  2  0  0  0  0
 43 48  1  0  0  0  0
 44 57  1  0  0  0  0
 45 72  1  0  0  0  0
 46 49  1  0  0  0  0
 47 70  1  0  0  0  0
 48 51  1  0  0  0  0
 49 53  1  0  0  0  0
 50 52  1  0  0  0  0
 50 54  1  0  0  0  0
 51 56  1  0  0  0  0
 52 58  1  0  0  0  0
 53 70  1  0  0  0  0
 54 71  1  0  0  0  0
 55 58  1  0  0  0  0
 55 71  1  0  0  0  0
 56 75  1  0  0  0  0
 57 72  1  0  0  0  0
 58 69  1  0  0  0  0
 60 66  1  0  0  0  0
 61 67  1  0  0  0  0
 62 67  1  0  0  0  0
 63 67  1  0  0  0  0
 64 77  1  0  0  0  0
 65 67  1  0  0  0  0
 65 76  1  0  0  0  0
 66 77  1  0  0  0  0
 68 69  1  0  0  0  0
M  CHG  1  77   1
M  ISO  4  36 101  37 100  39 100  84 101
M  END
> <Batch ID>
0127

> <Smiles>
CNC(C)C(=O)NC(C(=O)N1Cc2cc([101O:1][101CH:1]=C3CCCN(c4cc(C)cc(C=[100CH:0][100C:0](=O)N5CCCC(n6nc(-c7ccc(Oc8ccc(F)cc8F)cc7)c(C(N)=O)c6N)C5)c4)C3)ccc2CC1C(=O)NC1CCCc2ccccc21)C(C)(C)C

> <Shape>
0.263

> <Color>
0.096

> <Negative vol penalty>
0.000

$$$$

  -OEChem-04052302143D

 83 91  0     1  0  0  0  0  0999 V2000
  -30.3588  -25.1376   17.5565 C   0  0  0  0  0  0  0  0  0  0  0  0
  -28.9722  -25.1238   17.6686 C   0  0  0  0  0  0  0  0  0  0  0  0
  -25.5340  -15.5803   18.1496 C   0  0  0  0  0  0  0  0  0  0  0  0
  -23.4764  -15.1836   19.3521 C   0  0  0  0  0  0  0  0  0  0  0  0
  -31.1349  -25.6708   18.5847 C   0  0  0  0  0  0  0  0  0  0  0  0
  -28.3610  -25.6422   18.8097 C   0  0  0  0  0  0  0  0  0  0  0  0
  -23.0046  -28.5973   19.0966 C   0  0  0  0  0  0  0  0  0  0  0  0
  -26.1239  -14.4976   18.8018 C   0  0  0  0  0  0  0  0  0  0  0  0
  -24.0663  -14.1009   20.0043 C   0  0  0  0  0  0  0  0  0  0  0  0
  -21.7193  -28.1784   19.4379 C   0  0  0  0  0  0  0  0  0  0  0  0
  -27.4906  -13.8555   21.8258 C   0  0  0  0  0  0  0  0  0  0  0  0
  -28.7784  -14.0286   22.3328 C   0  0  0  0  0  0  0  0  0  0  0  0
  -22.0675  -28.9663   21.6912 C   0  0  0  0  0  0  0  0  0  0  0  0
  -18.1158  -22.6422   23.8321 C   0  0  0  0  0  0  0  0  0  0  0  0
  -18.7954  -21.3156   21.9308 C   0  0  0  0  0  0  0  0  0  0  0  0
  -19.9002  -23.4130   22.3972 C   0  0  0  0  0  0  0  0  0  0  0  0
  -29.5739  -12.2334   20.9250 C   0  0  0  0  0  0  0  0  0  0  0  0
  -24.2103  -15.9233   18.4248 C   0  0  0  0  0  0  0  0  0  0  0  0
  -22.8934  -17.0193   16.5347 C   0  0  0  0  0  0  0  0  0  0  0  0
  -30.5325  -26.2048   19.7347 C   0  0  0  0  0  0  0  0  0  0  0  0
  -23.8363  -29.1949   20.0544 C   0  0  0  0  0  0  0  0  0  0  0  0
  -29.1298  -26.1818   19.8549 C   0  0  0  0  0  0  0  0  0  0  0  0
  -23.3620  -29.3941   21.3588 C   0  0  0  0  0  0  0  0  0  0  0  0
  -17.9741  -21.5010   23.0428 C   0  0  0  0  0  0  0  0  0  0  0  0
  -19.0789  -23.5983   23.5092 C   0  0  0  0  0  0  0  0  0  0  0  0
  -19.7585  -22.2716   21.6079 C   0  0  0  0  0  0  0  0  0  0  0  0
  -25.3901  -13.7579   19.7292 C   0  0  0  0  0  0  0  0  0  0  0  0
  -21.2517  -28.3603   20.7361 C   0  0  0  0  0  0  0  0  0  0  0  0
  -27.2443  -12.8713   20.8685 C   0  0  0  0  0  0  0  0  0  0  0  0
  -29.8201  -13.2176   21.8823 C   0  0  0  0  0  0  0  0  0  0  0  0
  -28.2860  -12.0603   20.4181 C   0  0  0  0  0  0  0  0  0  0  0  0
  -23.6005  -17.0420   17.7518 C   0  0  0  0  0  0  0  0  0  0  0  0
  -22.5208  -18.3253   16.3297 C   0  0  0  0  0  0  0  0  0  0  0  0
  -22.5995  -15.9163   15.6671 C   0  0  0  0  0  0  0  0  0  0  0  0
  -26.6432  -28.4660   21.3557 C   0  0  0  0  0  0  0  0  0  0  0  0
  -18.6852  -26.5069   22.5071 C   0  0  0  0  0  0  0  0  0  0  0  0
  -26.3244  -31.3865   22.7310 C   0  0  0  0  0  0  0  0  0  0  0  0
  -24.2499  -33.8930   23.7608 C   0  0  0  0  0  0  0  0  0  0  0  0
  -21.5977  -22.9342   20.0190 C   0  0  0  0  0  0  0  0  0  0  0  0
  -31.4149  -26.7273   20.8406 C   0  0  0  0  0  0  0  0  0  0  0  0
  -25.2104  -29.6655   19.6634 C   0  0  0  0  0  0  0  0  0  0  0  0
  -24.2080  -30.0490   22.4189 C   0  0  0  0  0  0  0  0  0  0  0  0
  -30.6733  -27.5974   21.8520 C   0  0  0  0  0  0  0  0  0  0  0  0
  -23.8956  -22.8084   17.3022 C   0  0  0  0  0  0  0  0  0  0  0  0
  -29.3642  -26.9343   22.2683 C   0  0  0  0  0  0  0  0  0  0  0  0
  -24.0117  -21.3138   16.9945 C   0  0  0  0  0  0  0  0  0  0  0  0
  -23.7595  -23.0699   18.8012 C   0  0  0  0  0  0  0  0  0  0  0  0
  -22.7997  -20.8294   19.1586 C   0  0  0  0  0  0  0  0  0  0  0  0
  -28.4287  -26.7574   21.0662 C   0  0  1  0  0  0  0  0  0  0  0  0
  -26.1580  -29.7957   20.8518 C   0  0  1  0  0  0  0  0  0  0  0  0
  -22.8736  -20.5122   17.6561 C   0  0  2  0  0  0  0  0  0  0  0  0
  -16.9442  -20.4789   23.3880 C   0  0  0  0  0  0  0  0  0  0  0  0
  -24.2780  -36.1369   24.8839 C   0  0  0  0  0  0  0  0  0  0  0  0
  -26.7836  -30.0295   25.4250 C   0  0  0  0  0  0  0  0  0  0  0  0
  -25.8729  -32.0807   26.5348 C   0  0  0  0  0  0  0  0  0  0  0  0
  -27.9445  -32.2279   25.1529 C   0  0  0  0  0  0  0  0  0  0  0  0
  -23.0667  -35.2211   21.3954 C   0  0  0  0  0  0  0  0  0  0  0  0
  -19.2323  -24.8336   24.3638 C   0  0  0  0  0  0  0  0  0  0  0  0
  -18.3588  -26.0030   23.9055 C   0  0  0  0  0  0  0  0  0  0  0  0
  -19.7879  -27.5441   22.4234 C   0  0  0  0  0  0  0  0  0  1  0  0
  -25.7126  -31.9048   24.0100 C   0  0  1  0  0  0  0  0  0  0  0  0
  -24.3074  -35.3961   23.5561 C   0  0  2  0  0  0  0  0  0  0  0  0
  -26.5629  -31.5466   25.2615 C   0  0  0  0  0  0  0  0  0  0  0  0
  -23.6743  -18.2654   18.2826 N   0  0  0  0  0  0  0  0  0  0  0  0
  -23.0087  -19.0237   17.3948 N   0  0  0  0  0  0  0  0  0  0  0  0
  -25.5466  -30.4861   21.9892 N   0  0  0  0  0  0  0  0  0  0  0  0
  -22.6592  -22.2803   19.3585 N   0  0  0  0  0  0  0  0  0  0  0  0
  -21.8268  -18.9329   15.3441 N   0  0  0  0  0  0  0  0  0  0  0  0
  -23.0572  -14.6418   16.0283 N   0  0  0  0  0  0  0  0  0  0  0  0
  -20.5929  -22.0833   20.4783 N   0  0  0  0  0  0  0  0  0  0  0  0
  -27.7907  -28.0130   20.7332 N   0  0  0  0  0  0  0  0  0  0  0  0
  -25.5103  -33.3364   23.8149 N   0  0  0  0  0  0  0  0  0  0  0  0
  -23.1484  -35.8521   22.7378 N   0  3  0  0  0  0  0  0  0  0  0  0
  -21.9645  -16.0595   14.5949 O   0  0  0  0  0  0  0  0  0  0  0  0
  -26.0233  -27.8940   22.2447 O   0  0  0  0  0  0  0  0  0  0  0  0
  -18.1216  -26.0804   21.5005 O   0  0  0  0  0  0  0  0  0  0  0  0
  -27.4481  -31.7719   22.3986 O   0  0  0  0  0  0  0  0  0  0  0  0
  -23.1928  -33.2751   23.8661 O   0  0  0  0  0  0  0  0  0  0  0  0
  -21.5679  -24.1614   20.1424 O   0  0  0  0  0  0  0  0  0  0  0  0
  -25.9653  -12.7012   20.3656 O   0  0  0  0  0  0  0  0  0  0  0  0
  -19.9978  -27.9518   21.0721 O   0  0  0  0  0  0  0  0  0  1  0  0
  -31.0571  -13.3850   22.3681 F   0  0  0  0  0  0  0  0  0  0  0  0
  -28.0558  -11.1139   19.4977 F   0  0  0  0  0  0  0  0  0  0  0  0
  1  2  1  0  0  0  0
  1  5  2  0  0  0  0
  2  6  2  0  0  0  0
  3  8  2  0  0  0  0
  3 18  1  0  0  0  0
  4  9  1  0  0  0  0
  4 18  2  0  0  0  0
  5 20  1  0  0  0  0
  6 22  1  0  0  0  0
  7 10  2  0  0  0  0
  7 21  1  0  0  0  0
  8 27  1  0  0  0  0
  9 27  2  0  0  0  0
 10 28  1  0  0  0  0
 11 12  2  0  0  0  0
 11 29  1  0  0  0  0
 12 30  1  0  0  0  0
 13 23  1  0  0  0  0
 13 28  2  0  0  0  0
 14 24  2  0  0  0  0
 14 25  1  0  0  0  0
 15 24  1  0  0  0  0
 15 26  2  0  0  0  0
 16 25  2  0  0  0  0
 16 26  1  0  0  0  0
 17 30  2  0  0  0  0
 17 31  1  0  0  0  0
 18 32  1  0  0  0  0
 19 32  1  0  0  0  0
 19 33  2  0  0  0  0
 19 34  1  0  0  0  0
 20 22  2  0  0  0  0
 20 40  1  0  0  0  0
 21 23  2  0  0  0  0
 21 41  1  0  0  0  0
 22 49  1  0  0  0  0
 23 42  1  0  0  0  0
 24 52  1  0  0  0  0
 25 58  1  0  0  0  0
 26 70  1  0  0  0  0
 27 80  1  0  0  0  0
 28 81  1  0  0  0  0
 29 31  2  0  0  0  0
 29 80  1  0  0  0  0
 30 82  1  0  0  0  0
 31 83  1  0  0  0  0
 32 64  2  0  0  0  0
 33 65  1  0  0  0  0
 33 68  1  0  0  0  0
 34 69  1  0  0  0  0
 34 74  2  0  0  0  0
 35 50  1  0  0  0  0
 35 71  1  0  0  0  0
 35 75  2  0  0  0  0
 36 59  1  0  0  0  0
 36 60  1  0  0  0  0
 36 76  2  0  0  0  0
 37 61  1  0  0  0  0
 37 66  1  0  0  0  0
 37 77  2  0  0  0  0
 38 62  1  0  0  0  0
 38 72  1  0  0  0  0
 38 78  2  0  0  0  0
 39 67  1  0  0  0  0
 39 70  1  0  0  0  0
 39 79  2  0  0  0  0
 40 43  1  0  0  0  0
 41 50  1  0  0  0  0
 42 66  1  0  0  0  0
 43 45  1  0  0  0  0
 44 46  1  0  0  0  0
 44 47  1  0  0  0  0
 45 49  1  0  0  0  0
 46 51  1  0  0  0  0
 47 67  1  0  0  0  0
 48 51  1  0  0  0  0
 48 67  1  0  0  0  0
 49 71  1  0  0  0  0
 50 66  1  0  0  0  0
 51 65  1  0  0  0  0
 53 62  1  0  0  0  0
 54 63  1  0  0  0  0
 55 63  1  0  0  0  0
 56 63  1  0  0  0  0
 57 73  1  0  0  0  0
 58 59  1  0  0  0  0
 60 81  1  0  0  0  0
 61 63  1  0  0  0  0
 61 72  1  0  0  0  0
 62 73  1  0  0  0  0
 64 65  1  0  0  0  0
M  CHG  1  73   1
M  ISO  4  39 100  60 101  70 100  81 101
M  END
> <Batch ID>
0127

> <Smiles>
CNC(C)C(=O)NC(C(=O)N1Cc2cc([101O:1][101CH2:1]C(=O)CCc3cc(C)cc([100NH:0][100C:0](=O)N4CCCC(n5nc(-c6ccc(Oc7ccc(F)cc7F)cc6)c(C(N)=O)c5N)C4)c3)ccc2CC1C(=O)NC1CCCc2ccccc21)C(C)(C)C

> <Shape>
0.260

> <Color>
0.059

> <Negative vol penalty>
0.000

$$$$

  -OEChem-04052302143D

 81 89  0     1  0  0  0  0  0999 V2000
  -16.5599  -29.7281   22.5078 C   0  0  0  0  0  0  0  0  0  0  0  0
  -17.5195  -30.6732   22.8564 C   0  0  0  0  0  0  0  0  0  0  0  0
  -33.2084  -28.4466   26.8571 C   0  0  0  0  0  0  0  0  0  0  0  0
  -26.5910  -18.2317   20.1780 C   0  0  0  0  0  0  0  0  0  0  0  0
  -27.1982  -18.7676   17.9018 C   0  0  0  0  0  0  0  0  0  0  0  0
  -32.6548  -27.2516   26.3978 C   0  0  0  0  0  0  0  0  0  0  0  0
  -16.9091  -28.3811   22.4208 C   0  0  0  0  0  0  0  0  0  0  0  0
  -18.8287  -30.2716   23.1191 C   0  0  0  0  0  0  0  0  0  0  0  0
  -25.5955  -32.5377   22.4927 C   0  0  0  0  0  0  0  0  0  0  0  0
  -33.1111  -29.6031   26.0833 C   0  0  0  0  0  0  0  0  0  0  0  0
  -25.3658  -17.7344   19.7341 C   0  0  0  0  0  0  0  0  0  0  0  0
  -25.9730  -18.2702   17.4578 C   0  0  0  0  0  0  0  0  0  0  0  0
  -26.7498  -32.7066   23.2561 C   0  0  0  0  0  0  0  0  0  0  0  0
  -24.2019  -14.9107   18.2833 C   0  0  0  0  0  0  0  0  0  0  0  0
  -23.7690  -13.6922   18.8064 C   0  0  0  0  0  0  0  0  0  0  0  0
  -31.9066  -28.3695   24.3909 C   0  0  0  0  0  0  0  0  0  0  0  0
  -27.2566  -30.3623   22.9974 C   0  0  0  0  0  0  0  0  0  0  0  0
  -21.7937  -14.7710   19.6847 C   0  0  0  0  0  0  0  0  0  0  0  0
  -27.5073  -18.7484   19.2618 C   0  0  0  0  0  0  0  0  0  0  0  0
  -32.0039  -27.2130   25.1647 C   0  0  0  0  0  0  0  0  0  0  0  0
  -29.9760  -18.5481   19.8723 C   0  0  0  0  0  0  0  0  0  0  0  0
  -18.2255  -27.9641   22.6732 C   0  0  0  0  0  0  0  0  0  0  0  0
  -25.2567  -31.2755   21.9842 C   0  0  0  0  0  0  0  0  0  0  0  0
  -19.1956  -28.9176   23.0367 C   0  0  0  0  0  0  0  0  0  0  0  0
  -26.0987  -30.1806   22.2257 C   0  0  0  0  0  0  0  0  0  0  0  0
  -32.4602  -29.5645   24.8502 C   0  0  0  0  0  0  0  0  0  0  0  0
  -25.0568  -17.7536   18.3740 C   0  0  0  0  0  0  0  0  0  0  0  0
  -27.5790  -31.6182   23.5110 C   0  0  0  0  0  0  0  0  0  0  0  0
  -23.4307  -16.0593   18.4610 C   0  0  0  0  0  0  0  0  0  0  0  0
  -22.5649  -13.6224   19.5070 C   0  0  0  0  0  0  0  0  0  0  0  0
  -22.2266  -15.9895   19.1617 C   0  0  0  0  0  0  0  0  0  0  0  0
  -28.7728  -19.2628   19.7198 C   0  0  0  0  0  0  0  0  0  0  0  0
  -30.8739  -19.4810   20.3305 C   0  0  0  0  0  0  0  0  0  0  0  0
  -31.4272  -25.9665   24.6853 C   0  0  0  0  0  0  0  0  0  0  0  0
  -30.4715  -25.8592   23.7379 C   0  0  0  0  0  0  0  0  0  0  0  0
  -30.2570  -17.1645   19.6220 C   0  0  0  0  0  0  0  0  0  0  0  0
  -29.9939  -24.5166   23.3506 C   0  0  0  0  0  0  0  0  0  0  0  0
  -22.8130  -29.2811   22.3768 C   0  0  0  0  0  0  0  0  0  0  0  0
  -24.3083  -27.6067   20.0353 C   0  0  0  0  0  0  0  0  0  0  0  0
  -27.2089  -26.8917   18.3853 C   0  0  0  0  0  0  0  0  0  0  0  0
  -18.5446  -26.4912   22.6127 C   0  0  0  0  0  0  0  0  0  0  0  0
  -24.0221  -31.1153   21.1401 C   0  0  0  0  0  0  0  0  0  0  0  0
  -25.7905  -28.8088   21.6856 C   0  0  0  0  0  0  0  0  0  0  0  0
  -20.0403  -26.1945   22.5411 C   0  0  0  0  0  0  0  0  0  0  0  0
  -31.8301  -24.1525   20.1998 C   0  0  0  0  0  0  0  0  0  0  0  0
  -20.7990  -27.0235   23.5725 C   0  0  0  0  0  0  0  0  0  0  0  0
  -31.3166  -22.7992   19.7154 C   0  0  0  0  0  0  0  0  0  0  0  0
  -30.7548  -24.9366   20.9505 C   0  0  0  0  0  0  0  0  0  0  0  0
  -29.6306  -22.8248   21.5960 C   0  0  0  0  0  0  0  0  0  0  0  0
  -20.6320  -28.5242   23.3050 C   0  0  1  0  0  0  0  0  0  0  0  0
  -23.5048  -29.6806   21.1042 C   0  0  1  0  0  0  0  0  0  0  0  0
  -30.7100  -21.9990   20.8789 C   0  0  1  0  0  0  0  0  0  0  0  0
  -28.1243  -25.4551   16.5427 C   0  0  0  0  0  0  0  0  0  0  0  0
  -24.2180  -25.1814   21.8846 C   0  0  0  0  0  0  0  0  0  0  0  0
  -25.9387  -24.0934   20.4274 C   0  0  0  0  0  0  0  0  0  0  0  0
  -23.7050  -24.6853   19.4877 C   0  0  0  0  0  0  0  0  0  0  0  0
  -28.0452  -29.2499   16.8047 C   0  0  0  0  0  0  0  0  0  0  0  0
  -32.3542  -30.8153   24.0147 C   0  0  0  0  0  0  0  0  0  0  0  0
  -31.1009  -31.6445   24.3035 C   0  0  0  0  0  0  0  0  0  0  0  0
  -29.8045  -30.9159   23.9690 C   0  0  0  0  0  0  0  0  0  1  0  0
  -25.3613  -26.5255   19.9999 C   0  0  1  0  0  0  0  0  0  0  0  0
  -27.5308  -26.8078   16.9042 C   0  0  2  0  0  0  0  0  0  0  0  0
  -24.8108  -25.1467   20.4618 C   0  0  0  0  0  0  0  0  0  0  0  0
  -28.8921  -20.5504   20.0542 N   0  0  0  0  0  0  0  0  0  0  0  0
  -30.1808  -20.6521   20.4215 N   0  0  0  0  0  0  0  0  0  0  0  0
  -30.1488  -24.1301   22.0206 N   0  0  0  0  0  0  0  0  0  0  0  0
  -24.5687  -28.7018   20.8712 N   0  0  0  0  0  0  0  0  0  0  0  0
  -32.1807  -19.4055   20.6606 N   0  0  0  0  0  0  0  0  0  0  0  0
  -29.2200  -16.3463   19.1536 N   0  0  0  0  0  0  0  0  0  0  0  0
  -21.4840  -28.9406   22.2117 N   0  0  0  0  0  0  0  0  0  0  0  0
  -25.9044  -26.5288   18.6458 N   0  0  0  0  0  0  0  0  0  0  0  0
  -28.5091  -27.8664   16.5259 N   0  3  0  0  0  0  0  0  0  0  0  0
  -31.3897  -16.6649   19.8239 O   0  0  0  0  0  0  0  0  0  0  0  0
  -29.4817  -23.8200   24.2288 O   0  0  0  0  0  0  0  0  0  0  0  0
  -23.4390  -29.2803   23.4303 O   0  0  0  0  0  0  0  0  0  0  0  0
  -23.2955  -27.4874   19.3413 O   0  0  0  0  0  0  0  0  0  0  0  0
  -28.0333  -27.2405   19.2274 O   0  0  0  0  0  0  0  0  0  0  0  0
  -23.8614  -17.2681   17.9405 O   0  0  0  0  0  0  0  0  0  0  0  0
  -28.7060  -31.7802   24.2564 O   0  0  0  0  0  0  0  0  0  1  0  0
  -22.1486  -12.4519   20.0079 F   0  0  0  0  0  0  0  0  0  0  0  0
  -21.4808  -17.0894   19.3346 F   0  0  0  0  0  0  0  0  0  0  0  0
  1  2  1  0  0  0  0
  1  7  2  0  0  0  0
  2  8  2  0  0  0  0
  3  6  1  0  0  0  0
  3 10  2  0  0  0  0
  4 11  2  0  0  0  0
  4 19  1  0  0  0  0
  5 12  1  0  0  0  0
  5 19  2  0  0  0  0
  6 20  2  0  0  0  0
  7 22  1  0  0  0  0
  8 24  1  0  0  0  0
  9 13  2  0  0  0  0
  9 23  1  0  0  0  0
 10 26  1  0  0  0  0
 11 27  1  0  0  0  0
 12 27  2  0  0  0  0
 13 28  1  0  0  0  0
 14 15  2  0  0  0  0
 14 29  1  0  0  0  0
 15 30  1  0  0  0  0
 16 20  1  0  0  0  0
 16 26  2  0  0  0  0
 17 25  1  0  0  0  0
 17 28  2  0  0  0  0
 18 30  2  0  0  0  0
 18 31  1  0  0  0  0
 19 32  1  0  0  0  0
 20 34  1  0  0  0  0
 21 32  1  0  0  0  0
 21 33  2  0  0  0  0
 21 36  1  0  0  0  0
 22 24  2  0  0  0  0
 22 41  1  0  0  0  0
 23 25  2  0  0  0  0
 23 42  1  0  0  0  0
 24 50  1  0  0  0  0
 25 43  1  0  0  0  0
 26 58  1  0  0  0  0
 27 78  1  0  0  0  0
 28 79  1  0  0  0  0
 29 31  2  0  0  0  0
 29 78  1  0  0  0  0
 30 80  1  0  0  0  0
 31 81  1  0  0  0  0
 32 64  2  0  0  0  0
 33 65  1  0  0  0  0
 33 68  1  0  0  0  0
 34 35  2  0  0  0  0
 35 37  1  0  0  0  0
 36 69  1  0  0  0  0
 36 73  2  0  0  0  0
 37 66  1  0  0  0  0
 37 74  2  0  0  0  0
 38 51  1  0  0  0  0
 38 70  1  0  0  0  0
 38 75  2  0  0  0  0
 39 61  1  0  0  0  0
 39 67  1  0  0  0  0
 39 76  2  0  0  0  0
 40 62  1  0  0  0  0
 40 71  1  0  0  0  0
 40 77  2  0  0  0  0
 41 44  1  0  0  0  0
 42 51  1  0  0  0  0
 43 67  1  0  0  0  0
 44 46  1  0  0  0  0
 45 47  1  0  0  0  0
 45 48  1  0  0  0  0
 46 50  1  0  0  0  0
 47 52  1  0  0  0  0
 48 66  1  0  0  0  0
 49 52  1  0  0  0  0
 49 66  1  0  0  0  0
 50 70  1  0  0  0  0
 51 67  1  0  0  0  0
 52 65  1  0  0  0  0
 53 62  1  0  0  0  0
 54 63  1  0  0  0  0
 55 63  1  0  0  0  0
 56 63  1  0  0  0  0
 57 72  1  0  0  0  0
 58 59  1  0  0  0  0
 59 60  1  0  0  0  0
 60 79  1  0  0  0  0
 61 63  1  0  0  0  0
 61 71  1  0  0  0  0
 62 72  1  0  0  0  0
 64 65  1  0  0  0  0
M  CHG  1  72   1
M  ISO  4  35 100  37 100  60 101  79 101
M  END
> <Batch ID>
0127

> <Smiles>
CNC(C)C(=O)NC(C(=O)N1Cc2cc([101O:1][101CH2:1]CCc3cccc(C=[100CH:0][100C:0](=O)N4CCCC(n5nc(-c6ccc(Oc7ccc(F)cc7F)cc6)c(C(N)=O)c5N)C4)c3)ccc2CC1C(=O)NC1CCCc2ccccc21)C(C)(C)C

> <Shape>
0.221

> <Color>
0.106

> <Negative vol penalty>
0.000

$$$$

  -OEChem-04052302143D

 81 89  0     1  0  0  0  0  0999 V2000
  -22.2829  -19.9495   22.6170 C   0  0  0  0  0  0  0  0  0  0  0  0
  -23.1355  -20.8082   21.9307 C   0  0  0  0  0  0  0  0  0  0  0  0
  -26.3638  -12.4479   21.7086 C   0  0  0  0  0  0  0  0  0  0  0  0
  -25.8505  -13.1997   19.4706 C   0  0  0  0  0  0  0  0  0  0  0  0
  -21.0956  -20.4365   23.1621 C   0  0  0  0  0  0  0  0  0  0  0  0
  -22.8007  -22.1543   21.7881 C   0  0  0  0  0  0  0  0  0  0  0  0
  -26.7134  -25.2367   22.7021 C   0  0  0  0  0  0  0  0  0  0  0  0
  -28.1832  -23.1145   16.1094 C   0  0  0  0  0  0  0  0  0  0  0  0
  -27.3213  -22.0178   16.1156 C   0  0  0  0  0  0  0  0  0  0  0  0
  -25.2013  -11.6773   21.7164 C   0  0  0  0  0  0  0  0  0  0  0  0
  -24.6879  -12.4290   19.4784 C   0  0  0  0  0  0  0  0  0  0  0  0
  -27.6652  -25.3739   21.6926 C   0  0  0  0  0  0  0  0  0  0  0  0
  -21.8876  -12.1733   22.1610 C   0  0  0  0  0  0  0  0  0  0  0  0
  -21.0875  -12.2202   23.3026 C   0  0  0  0  0  0  0  0  0  0  0  0
  -26.6528  -27.4608   21.0300 C   0  0  0  0  0  0  0  0  0  0  0  0
  -29.1686  -22.3517   18.1792 C   0  0  0  0  0  0  0  0  0  0  0  0
  -21.3808   -9.8412   23.6058 C   0  0  0  0  0  0  0  0  0  0  0  0
  -26.6885  -13.2092   20.5857 C   0  0  0  0  0  0  0  0  0  0  0  0
  -29.1700  -13.6085   20.1497 C   0  0  0  0  0  0  0  0  0  0  0  0
  -20.7508  -21.7913   23.0344 C   0  0  0  0  0  0  0  0  0  0  0  0
  -25.7159  -26.2067   22.8764 C   0  0  0  0  0  0  0  0  0  0  0  0
  -21.6071  -22.6596   22.3308 C   0  0  0  0  0  0  0  0  0  0  0  0
  -25.6910  -27.3348   22.0441 C   0  0  0  0  0  0  0  0  0  0  0  0
  -29.1069  -23.2814   17.1412 C   0  0  0  0  0  0  0  0  0  0  0  0
  -27.3830  -21.0881   17.1536 C   0  0  0  0  0  0  0  0  0  0  0  0
  -28.3067  -21.2551   18.1855 C   0  0  0  0  0  0  0  0  0  0  0  0
  -24.3633  -11.6678   20.6013 C   0  0  0  0  0  0  0  0  0  0  0  0
  -27.6332  -26.4846   20.8545 C   0  0  0  0  0  0  0  0  0  0  0  0
  -22.4342  -10.9604   21.7417 C   0  0  0  0  0  0  0  0  0  0  0  0
  -20.8342  -11.0541   24.0250 C   0  0  0  0  0  0  0  0  0  0  0  0
  -22.1809   -9.7944   22.4641 C   0  0  0  0  0  0  0  0  0  0  0  0
  -27.8890  -14.0060   20.5773 C   0  0  0  0  0  0  0  0  0  0  0  0
  -29.9557  -14.7186   20.3415 C   0  0  0  0  0  0  0  0  0  0  0  0
  -29.6103  -12.3486   19.6259 C   0  0  0  0  0  0  0  0  0  0  0  0
  -22.5413  -26.2138   22.7154 C   0  0  0  0  0  0  0  0  0  0  0  0
  -22.8823  -29.2550   23.7912 C   0  0  0  0  0  0  0  0  0  0  0  0
  -24.8614  -32.0198   24.0837 C   0  0  0  0  0  0  0  0  0  0  0  0
  -28.7689  -20.5707   20.5655 C   0  0  0  0  0  0  0  0  0  0  0  0
  -19.4340  -22.2616   23.5998 C   0  0  0  0  0  0  0  0  0  0  0  0
  -24.7126  -26.0573   23.9871 C   0  0  0  0  0  0  0  0  0  0  0  0
  -24.6531  -28.4146   22.2027 C   0  0  0  0  0  0  0  0  0  0  0  0
  -19.3334  -23.7794   23.7277 C   0  0  0  0  0  0  0  0  0  0  0  0
  -30.3236  -18.6146   23.1020 C   0  0  0  0  0  0  0  0  0  0  0  0
  -19.8170  -24.4561   22.4491 C   0  0  0  0  0  0  0  0  0  0  0  0
  -29.9974  -17.1744   22.7001 C   0  0  0  0  0  0  0  0  0  0  0  0
  -29.1643  -19.5634   22.8024 C   0  0  0  0  0  0  0  0  0  0  0  0
  -28.3381  -18.0761   21.0207 C   0  0  0  0  0  0  0  0  0  0  0  0
  -21.2907  -24.1314   22.1764 C   0  0  1  0  0  0  0  0  0  0  0  0
  -23.4314  -26.8496   23.7455 C   0  0  1  0  0  0  0  0  0  0  0  0
  -29.5003  -17.0946   21.2434 C   0  0  2  0  0  0  0  0  0  0  0  0
  -26.4468  -19.9235   17.1348 C   0  0  0  0  0  0  0  0  0  0  0  0
  -24.8512  -34.3638   24.9798 C   0  0  0  0  0  0  0  0  0  0  0  0
  -21.1826  -30.1511   21.4210 C   0  0  0  0  0  0  0  0  0  0  0  0
  -21.9891  -32.4882   21.8156 C   0  0  0  0  0  0  0  0  0  0  0  0
  -20.6659  -31.3137   23.5741 C   0  0  0  0  0  0  0  0  0  0  0  0
  -27.0864  -31.4409   25.9473 C   0  0  0  0  0  0  0  0  0  0  0  0
  -30.0384  -24.4671   17.1336 C   0  0  0  0  0  0  0  0  0  0  0  0
  -29.4774  -25.6957   17.8530 C   0  0  0  0  0  0  0  0  0  0  0  0
  -29.0858  -25.4214   19.3004 C   0  0  0  0  0  0  0  0  0  1  0  0
  -23.0541  -30.6062   23.1404 C   0  0  1  0  0  0  0  0  0  0  0  0
  -25.1813  -32.9084   25.2722 C   0  0  2  0  0  0  0  0  0  0  0  0
  -21.7414  -31.1187   22.4833 C   0  0  0  0  0  0  0  0  0  0  0  0
  -27.8583  -15.2698   21.0083 N   0  0  0  0  0  0  0  0  0  0  0  0
  -29.1298  -15.6761   20.8527 N   0  0  0  0  0  0  0  0  0  0  0  0
  -23.6900  -28.2200   23.2991 N   0  0  0  0  0  0  0  0  0  0  0  0
  -28.7497  -19.4358   21.4036 N   0  0  0  0  0  0  0  0  0  0  0  0
  -31.2656  -14.9594   20.1211 N   0  0  0  0  0  0  0  0  0  0  0  0
  -28.6727  -11.3152   19.4946 N   0  0  0  0  0  0  0  0  0  0  0  0
  -28.3852  -20.3212   19.2482 N   0  0  0  0  0  0  0  0  0  0  0  0
  -22.1493  -24.9262   23.0283 N   0  0  0  0  0  0  0  0  0  0  0  0
  -23.5914  -31.4896   24.1696 N   0  0  0  0  0  0  0  0  0  0  0  0
  -26.6287  -32.8145   25.6144 N   0  3  0  0  0  0  0  0  0  0  0  0
  -30.8035  -12.1401   19.2998 O   0  0  0  0  0  0  0  0  0  0  0  0
  -22.2318  -26.8453   21.7119 O   0  0  0  0  0  0  0  0  0  0  0  0
  -22.0668  -29.1243   24.7075 O   0  0  0  0  0  0  0  0  0  0  0  0
  -25.6570  -31.8193   23.1686 O   0  0  0  0  0  0  0  0  0  0  0  0
  -29.1273  -21.6765   20.9785 O   0  0  0  0  0  0  0  0  0  0  0  0
  -23.2289  -10.9157   20.6085 O   0  0  0  0  0  0  0  0  0  0  0  0
  -28.5607  -26.6207   19.8680 O   0  0  0  0  0  0  0  0  0  1  0  0
  -20.0672  -11.0995   25.1222 F   0  0  0  0  0  0  0  0  0  0  0  0
  -22.7042   -8.6265   22.0668 F   0  0  0  0  0  0  0  0  0  0  0  0
  1  2  1  0  0  0  0
  1  5  2  0  0  0  0
  2  6  2  0  0  0  0
  3 10  2  0  0  0  0
  3 18  1  0  0  0  0
  4 11  1  0  0  0  0
  4 18  2  0  0  0  0
  5 20  1  0  0  0  0
  6 22  1  0  0  0  0
  7 12  2  0  0  0  0
  7 21  1  0  0  0  0
  8  9  2  0  0  0  0
  8 24  1  0  0  0  0
  9 25  1  0  0  0  0
 10 27  1  0  0  0  0
 11 27  2  0  0  0  0
 12 28  1  0  0  0  0
 13 14  2  0  0  0  0
 13 29  1  0  0  0  0
 14 30  1  0  0  0  0
 15 23  1  0  0  0  0
 15 28  2  0  0  0  0
 16 24  2  0  0  0  0
 16 26  1  0  0  0  0
 17 30  2  0  0  0  0
 17 31  1  0  0  0  0
 18 32  1  0  0  0  0
 19 32  1  0  0  0  0
 19 33  2  0  0  0  0
 19 34  1  0  0  0  0
 20 22  2  0  0  0  0
 20 39  1  0  0  0  0
 21 23  2  0  0  0  0
 21 40  1  0  0  0  0
 22 48  1  0  0  0  0
 23 41  1  0  0  0  0
 24 57  1  0  0  0  0
 25 26  2  0  0  0  0
 25 51  1  0  0  0  0
 26 69  1  0  0  0  0
 27 78  1  0  0  0  0
 28 79  1  0  0  0  0
 29 31  2  0  0  0  0
 29 78  1  0  0  0  0
 30 80  1  0  0  0  0
 31 81  1  0  0  0  0
 32 63  2  0  0  0  0
 33 64  1  0  0  0  0
 33 67  1  0  0  0  0
 34 68  1  0  0  0  0
 34 73  2  0  0  0  0
 35 49  1  0  0  0  0
 35 70  1  0  0  0  0
 35 74  2  0  0  0  0
 36 60  1  0  0  0  0
 36 65  1  0  0  0  0
 36 75  2  0  0  0  0
 37 61  1  0  0  0  0
 37 71  1  0  0  0  0
 37 76  2  0  0  0  0
 38 66  1  0  0  0  0
 38 69  1  0  0  0  0
 38 77  2  0  0  0  0
 39 42  1  0  0  0  0
 40 49  1  0  0  0  0
 41 65  1  0  0  0  0
 42 44  1  0  0  0  0
 43 45  1  0  0  0  0
 43 46  1  0  0  0  0
 44 48  1  0  0  0  0
 45 50  1  0  0  0  0
 46 66  1  0  0  0  0
 47 50  1  0  0  0  0
 47 66  1  0  0  0  0
 48 70  1  0  0  0  0
 49 65  1  0  0  0  0
 50 64  1  0  0  0  0
 52 61  1  0  0  0  0
 53 62  1  0  0  0  0
 54 62  1  0  0  0  0
 55 62  1  0  0  0  0
 56 72  1  0  0  0  0
 57 58  1  0  0  0  0
 58 59  1  0  0  0  0
 59 79  1  0  0  0  0
 60 62  1  0  0  0  0
 60 71  1  0  0  0  0
 61 72  1  0  0  0  0
 63 64  1  0  0  0  0
M  CHG  1  72   1
M  ISO  4  38 100  59 101  69 100  79 101
M  END
> <Batch ID>
0127

> <Smiles>
CNC(C)C(=O)NC(C(=O)N1Cc2cc([101O:1][101CH2:1]CCc3ccc(C)c([100NH:0][100C:0](=O)N4CCCC(n5nc(-c6ccc(Oc7ccc(F)cc7F)cc6)c(C(N)=O)c5N)C4)c3)ccc2CC1C(=O)NC1CCCc2ccccc21)C(C)(C)C

> <Shape>
0.260

> <Color>
0.052

> <Negative vol penalty>
0.000

$$$$

  -OEChem-04052302143D

 85 93  0     1  0  0  0  0  0999 V2000
  -23.1290  -35.5873   25.5795 C   0  0  0  0  0  0  0  0  0  0  0  0
  -24.1612  -34.9029   24.9458 C   0  0  0  0  0  0  0  0  0  0  0  0
  -23.9664   -9.1279   22.5936 C   0  0  0  0  0  0  0  0  0  0  0  0
  -24.0130   -9.0308   20.1800 C   0  0  0  0  0  0  0  0  0  0  0  0
  -30.3196  -20.7964   22.9395 C   0  0  0  0  0  0  0  0  0  0  0  0
  -30.4863  -22.1809   22.9069 C   0  0  0  0  0  0  0  0  0  0  0  0
  -21.9902  -34.8990   25.9956 C   0  0  0  0  0  0  0  0  0  0  0  0
  -24.0556  -33.5295   24.7288 C   0  0  0  0  0  0  0  0  0  0  0  0
  -26.2157  -30.3821   19.9399 C   0  0  0  0  0  0  0  0  0  0  0  0
  -22.9418   -8.1817   22.6119 C   0  0  0  0  0  0  0  0  0  0  0  0
  -22.9884   -8.0846   20.1983 C   0  0  0  0  0  0  0  0  0  0  0  0
  -27.3719  -29.6241   19.7601 C   0  0  0  0  0  0  0  0  0  0  0  0
  -22.6413   -4.8290   22.2924 C   0  0  0  0  0  0  0  0  0  0  0  0
  -22.7416   -3.7825   23.2091 C   0  0  0  0  0  0  0  0  0  0  0  0
  -28.0029  -21.0900   23.5589 C   0  0  0  0  0  0  0  0  0  0  0  0
  -26.1336  -27.6217   20.2860 C   0  0  0  0  0  0  0  0  0  0  0  0
  -20.6627   -4.4747   24.2270 C   0  0  0  0  0  0  0  0  0  0  0  0
  -24.5020   -9.5525   21.3777 C   0  0  0  0  0  0  0  0  0  0  0  0
  -29.0778  -20.2510   23.2654 C   0  0  0  0  0  0  0  0  0  0  0  0
  -29.4114  -23.0199   23.2003 C   0  0  0  0  0  0  0  0  0  0  0  0
  -26.9458  -10.2844   21.3945 C   0  0  0  0  0  0  0  0  0  0  0  0
  -21.8664  -33.5182   25.7750 C   0  0  0  0  0  0  0  0  0  0  0  0
  -25.0102  -29.7658   20.3054 C   0  0  0  0  0  0  0  0  0  0  0  0
  -22.9146  -32.8219   25.1436 C   0  0  0  0  0  0  0  0  0  0  0  0
  -24.9630  -28.3739   20.4673 C   0  0  0  0  0  0  0  0  0  0  0  0
  -28.1696  -22.4745   23.5263 C   0  0  0  0  0  0  0  0  0  0  0  0
  -22.4528   -7.6600   21.4143 C   0  0  0  0  0  0  0  0  0  0  0  0
  -27.3317  -28.2440   19.9360 C   0  0  0  0  0  0  0  0  0  0  0  0
  -21.5517   -5.6984   22.3430 C   0  0  0  0  0  0  0  0  0  0  0  0
  -21.7523   -3.6053   24.1764 C   0  0  0  0  0  0  0  0  0  0  0  0
  -20.5624   -5.5213   23.3103 C   0  0  0  0  0  0  0  0  0  0  0  0
  -25.5601  -10.5304   21.3581 C   0  0  0  0  0  0  0  0  0  0  0  0
  -27.5173  -11.5327   21.3545 C   0  0  0  0  0  0  0  0  0  0  0  0
  -28.9051  -18.8071   23.2989 C   0  0  0  0  0  0  0  0  0  0  0  0
  -27.7244  -18.1575   23.2184 C   0  0  0  0  0  0  0  0  0  0  0  0
  -30.0486  -25.0888   21.8668 C   0  0  0  0  0  0  0  0  0  0  0  0
  -30.2626  -26.4091   21.7799 C   0  0  0  0  0  0  0  0  0  0  0  0
  -29.6168  -24.4879   23.1576 C   0  0  0  0  0  0  0  0  0  0  0  0
  -27.6530   -9.0389   21.4587 C   0  0  0  0  0  0  0  0  0  0  0  0
  -27.7144  -16.6813   23.2567 C   0  0  0  0  0  0  0  0  0  0  0  0
  -23.0572  -29.9644   22.8054 C   0  0  0  0  0  0  0  0  0  0  0  0
  -21.1955  -28.0038   21.0131 C   0  0  0  0  0  0  0  0  0  0  0  0
  -20.9914  -25.6893   18.5134 C   0  0  0  0  0  0  0  0  0  0  0  0
  -20.6369  -32.8090   26.2850 C   0  0  0  0  0  0  0  0  0  0  0  0
  -23.7657  -30.5945   20.4694 C   0  0  0  0  0  0  0  0  0  0  0  0
  -23.6892  -27.6616   20.8396 C   0  0  0  0  0  0  0  0  0  0  0  0
  -20.4406  -31.4204   25.6820 C   0  0  0  0  0  0  0  0  0  0  0  0
  -25.5096  -16.0583   20.3962 C   0  0  0  0  0  0  0  0  0  0  0  0
  -21.7495  -30.6376   25.7069 C   0  0  0  0  0  0  0  0  0  0  0  0
  -25.4065  -14.5359   20.4310 C   0  0  0  0  0  0  0  0  0  0  0  0
  -25.6197  -16.6561   21.7980 C   0  0  0  0  0  0  0  0  0  0  0  0
  -26.6294  -14.5561   22.6410 C   0  0  0  0  0  0  0  0  0  0  0  0
  -22.8264  -31.3365   24.8681 C   0  0  1  0  0  0  0  0  0  0  0  0
  -22.7114  -29.9227   21.3438 C   0  0  1  0  0  0  0  0  0  0  0  0
  -26.5650  -13.9302   21.2391 C   0  0  1  0  0  0  0  0  0  0  0  0
  -27.0020  -23.3511   23.8439 C   0  0  0  0  0  0  0  0  0  0  0  0
  -19.3402  -24.2402   17.3006 C   0  0  0  0  0  0  0  0  0  0  0  0
  -21.1032  -26.1113   23.4048 C   0  0  0  0  0  0  0  0  0  0  0  0
  -20.2835  -24.3161   21.8641 C   0  0  0  0  0  0  0  0  0  0  0  0
  -18.9264  -26.3815   22.2036 C   0  0  0  0  0  0  0  0  0  0  0  0
  -21.5775  -26.9911   15.9210 C   0  0  0  0  0  0  0  0  0  0  0  0
  -30.7131  -27.0920   20.5181 C   0  0  0  0  0  0  0  0  0  0  0  0
  -29.7046  -28.1350   20.0509 C   0  0  0  0  0  0  0  0  0  1  0  0
  -21.0605  -26.5086   20.8540 C   0  0  1  0  0  0  0  0  0  0  0  0
  -20.0635  -25.5779   17.3172 C   0  0  2  0  0  0  0  0  0  0  0  0
  -20.3680  -25.8427   22.0765 C   0  0  0  0  0  0  0  0  0  0  0  0
  -25.2690  -11.8326   21.2996 N   0  0  0  0  0  0  0  0  0  0  0  0
  -26.4796  -12.4161   21.2991 N   0  0  0  0  0  0  0  0  0  0  0  0
  -26.6968  -16.0201   22.5713 N   0  0  0  0  0  0  0  0  0  0  0  0
  -22.5005  -28.5162   20.9949 N   0  0  0  0  0  0  0  0  0  0  0  0
  -28.8011  -11.9499   21.3618 N   0  0  0  0  0  0  0  0  0  0  0  0
  -26.9112   -7.8502   21.4929 N   0  0  0  0  0  0  0  0  0  0  0  0
  -22.6048  -31.0950   23.4585 N   0  0  0  0  0  0  0  0  0  0  0  0
  -20.3711  -26.2936   19.5864 N   0  0  0  0  0  0  0  0  0  0  0  0
  -20.8350  -25.7107   16.0491 N   0  3  0  0  0  0  0  0  0  0  0  0
  -29.4538  -25.1551   24.1733 O   0  0  0  0  0  0  0  0  0  0  0  0
  -28.9054   -8.9823   21.5015 O   0  0  0  0  0  0  0  0  0  0  0  0
  -28.6063  -16.1231   23.8982 O   0  0  0  0  0  0  0  0  0  0  0  0
  -23.6866  -29.0387   23.3040 O   0  0  0  0  0  0  0  0  0  0  0  0
  -20.1802  -28.6924   21.1414 O   0  0  0  0  0  0  0  0  0  0  0  0
  -22.1494  -25.2778   18.4988 O   0  0  0  0  0  0  0  0  0  0  0  0
  -21.4531   -6.7365   21.4317 O   0  0  0  0  0  0  0  0  0  0  0  0
  -28.4589  -27.5018   19.7617 O   0  0  0  0  0  0  0  0  0  1  0  0
  -21.8480   -2.5994   25.0556 F   0  0  0  0  0  0  0  0  0  0  0  0
  -19.5126   -6.3526   23.3631 F   0  0  0  0  0  0  0  0  0  0  0  0
  1  2  1  0  0  0  0
  1  7  2  0  0  0  0
  2  8  2  0  0  0  0
  3 10  2  0  0  0  0
  3 18  1  0  0  0  0
  4 11  1  0  0  0  0
  4 18  2  0  0  0  0
  5  6  2  0  0  0  0
  5 19  1  0  0  0  0
  6 20  1  0  0  0  0
  7 22  1  0  0  0  0
  8 24  1  0  0  0  0
  9 12  2  0  0  0  0
  9 23  1  0  0  0  0
 10 27  1  0  0  0  0
 11 27  2  0  0  0  0
 12 28  1  0  0  0  0
 13 14  2  0  0  0  0
 13 29  1  0  0  0  0
 14 30  1  0  0  0  0
 15 19  2  0  0  0  0
 15 26  1  0  0  0  0
 16 25  1  0  0  0  0
 16 28  2  0  0  0  0
 17 30  2  0  0  0  0
 17 31  1  0  0  0  0
 18 32  1  0  0  0  0
 19 34  1  0  0  0  0
 20 26  2  0  0  0  0
 20 38  1  0  0  0  0
 21 32  1  0  0  0  0
 21 33  2  0  0  0  0
 21 39  1  0  0  0  0
 22 24  2  0  0  0  0
 22 44  1  0  0  0  0
 23 25  2  0  0  0  0
 23 45  1  0  0  0  0
 24 53  1  0  0  0  0
 25 46  1  0  0  0  0
 26 56  1  0  0  0  0
 27 82  1  0  0  0  0
 28 83  1  0  0  0  0
 29 31  2  0  0  0  0
 29 82  1  0  0  0  0
 30 84  1  0  0  0  0
 31 85  1  0  0  0  0
 32 67  2  0  0  0  0
 33 68  1  0  0  0  0
 33 71  1  0  0  0  0
 34 35  2  0  0  0  0
 35 40  1  0  0  0  0
 36 37  2  0  0  0  0
 36 38  1  0  0  0  0
 37 62  1  0  0  0  0
 38 76  2  0  0  0  0
 39 72  1  0  0  0  0
 39 77  2  0  0  0  0
 40 69  1  0  0  0  0
 40 78  2  0  0  0  0
 41 54  1  0  0  0  0
 41 73  1  0  0  0  0
 41 79  2  0  0  0  0
 42 64  1  0  0  0  0
 42 70  1  0  0  0  0
 42 80  2  0  0  0  0
 43 65  1  0  0  0  0
 43 74  1  0  0  0  0
 43 81  2  0  0  0  0
 44 47  1  0  0  0  0
 45 54  1  0  0  0  0
 46 70  1  0  0  0  0
 47 49  1  0  0  0  0
 48 50  1  0  0  0  0
 48 51  1  0  0  0  0
 49 53  1  0  0  0  0
 50 55  1  0  0  0  0
 51 69  1  0  0  0  0
 52 55  1  0  0  0  0
 52 69  1  0  0  0  0
 53 73  1  0  0  0  0
 54 70  1  0  0  0  0
 55 68  1  0  0  0  0
 57 65  1  0  0  0  0
 58 66  1  0  0  0  0
 59 66  1  0  0  0  0
 60 66  1  0  0  0  0
 61 75  1  0  0  0  0
 62 63  1  0  0  0  0
 63 83  1  0  0  0  0
 64 66  1  0  0  0  0
 64 74  1  0  0  0  0
 65 75  1  0  0  0  0
 67 68  1  0  0  0  0
M  CHG  1  75   1
M  ISO  4  35 100  40 100  63 101  83 101
M  END
> <Batch ID>
0127

> <Smiles>
CNC(C)C(=O)NC(C(=O)N1Cc2cc([101O:1][101CH2:1]CC=CC(=O)c3ccc(C=[100CH:0][100C:0](=O)N4CCCC(n5nc(-c6ccc(Oc7ccc(F)cc7F)cc6)c(C(N)=O)c5N)C4)cc3C)ccc2CC1C(=O)NC1CCCc2ccccc21)C(C)(C)C

> <Shape>
0.230

> <Color>
0.096

> <Negative vol penalty>
0.000

$$$$

  -OEChem-04052302143D

 83 91  0     1  0  0  0  0  0999 V2000
  -28.2073   -8.3300   30.3892 C   0  0  0  0  0  0  0  0  0  0  0  0
  -29.0127   -9.4109   30.0451 C   0  0  0  0  0  0  0  0  0  0  0  0
  -23.2881   -9.7998   19.9132 C   0  0  0  0  0  0  0  0  0  0  0  0
  -23.7394   -9.9398   22.2825 C   0  0  0  0  0  0  0  0  0  0  0  0
  -26.8332   -8.3851   30.1601 C   0  0  0  0  0  0  0  0  0  0  0  0
  -28.4443  -10.5474   29.4707 C   0  0  0  0  0  0  0  0  0  0  0  0
  -30.2061  -16.3562   30.2828 C   0  0  0  0  0  0  0  0  0  0  0  0
  -22.5617   -8.6272   20.1208 C   0  0  0  0  0  0  0  0  0  0  0  0
  -23.0130   -8.7672   22.4902 C   0  0  0  0  0  0  0  0  0  0  0  0
  -31.0006  -17.2108   29.5198 C   0  0  0  0  0  0  0  0  0  0  0  0
  -20.9742   -6.0068   23.6908 C   0  0  0  0  0  0  0  0  0  0  0  0
  -20.0728   -5.9812   24.7549 C   0  0  0  0  0  0  0  0  0  0  0  0
  -29.0177  -18.1441   28.5116 C   0  0  0  0  0  0  0  0  0  0  0  0
  -30.7716  -16.5533   25.1407 C   0  0  0  0  0  0  0  0  0  0  0  0
  -32.8199  -15.3435   23.6835 C   0  0  0  0  0  0  0  0  0  0  0  0
  -18.8631   -7.8286   23.7747 C   0  0  0  0  0  0  0  0  0  0  0  0
  -23.8769  -10.4561   20.9940 C   0  0  0  0  0  0  0  0  0  0  0  0
  -24.1363  -12.9861   20.7960 C   0  0  0  0  0  0  0  0  0  0  0  0
  -26.2464   -9.5266   29.5915 C   0  0  0  0  0  0  0  0  0  0  0  0
  -28.8096  -16.3816   30.1578 C   0  0  0  0  0  0  0  0  0  0  0  0
  -27.0612  -10.6173   29.2326 C   0  0  0  0  0  0  0  0  0  0  0  0
  -28.2077  -17.2906   29.2760 C   0  0  0  0  0  0  0  0  0  0  0  0
  -30.7009  -15.1943   24.8345 C   0  0  0  0  0  0  0  0  0  0  0  0
  -32.8905  -16.7025   23.9897 C   0  0  0  0  0  0  0  0  0  0  0  0
  -31.8664  -17.3074   24.7183 C   0  0  0  0  0  0  0  0  0  0  0  0
  -31.7250  -14.5894   24.1059 C   0  0  0  0  0  0  0  0  0  0  0  0
  -22.4242   -8.1109   21.4093 C   0  0  0  0  0  0  0  0  0  0  0  0
  -30.4066  -18.1029   28.6319 C   0  0  0  0  0  0  0  0  0  0  0  0
  -20.8201   -6.9433   22.6685 C   0  0  0  0  0  0  0  0  0  0  0  0
  -19.0173   -6.8921   24.7969 C   0  0  0  0  0  0  0  0  0  0  0  0
  -19.7645   -7.8542   22.7105 C   0  0  0  0  0  0  0  0  0  0  0  0
  -24.6278  -11.6670   20.7801 C   0  0  0  0  0  0  0  0  0  0  0  0
  -25.2377  -13.7661   20.5410 C   0  0  0  0  0  0  0  0  0  0  0  0
  -22.8033  -13.4637   21.0213 C   0  0  0  0  0  0  0  0  0  0  0  0
  -26.6001  -14.2834   29.2527 C   0  0  0  0  0  0  0  0  0  0  0  0
  -24.5552  -16.6199   30.1916 C   0  0  0  0  0  0  0  0  0  0  0  0
  -24.0200  -19.9398   30.7737 C   0  0  0  0  0  0  0  0  0  0  0  0
  -31.1089  -12.9228   21.3590 C   0  0  0  0  0  0  0  0  0  0  0  0
  -24.7629   -9.5212   29.3194 C   0  0  0  0  0  0  0  0  0  0  0  0
  -27.9654  -15.4718   31.0075 C   0  0  0  0  0  0  0  0  0  0  0  0
  -26.7119  -17.3714   29.1194 C   0  0  0  0  0  0  0  0  0  0  0  0
  -24.1877  -10.9096   29.0516 C   0  0  0  0  0  0  0  0  0  0  0  0
  -29.4593  -13.6630   18.2918 C   0  0  0  0  0  0  0  0  0  0  0  0
  -25.0679  -11.6709   28.0653 C   0  0  0  0  0  0  0  0  0  0  0  0
  -27.9896  -13.3544   18.5832 C   0  0  0  0  0  0  0  0  0  0  0  0
  -30.3927  -12.6834   18.9997 C   0  0  0  0  0  0  0  0  0  0  0  0
  -28.7065  -12.2536   20.7449 C   0  0  0  0  0  0  0  0  0  0  0  0
  -26.4784  -11.8774   28.6303 C   0  0  1  0  0  0  0  0  0  0  0  0
  -26.5779  -15.2255   30.4230 C   0  0  1  0  0  0  0  0  0  0  0  0
  -27.7284  -13.2490   20.0977 C   0  0  2  0  0  0  0  0  0  0  0  0
  -29.5194  -14.4071   25.2979 C   0  0  0  0  0  0  0  0  0  0  0  0
  -34.0720  -17.4898   23.5262 C   0  0  0  0  0  0  0  0  0  0  0  0
  -22.2370  -21.5504   31.4979 C   0  0  0  0  0  0  0  0  0  0  0  0
  -23.2576  -16.4179   27.4374 C   0  0  0  0  0  0  0  0  0  0  0  0
  -22.1626  -18.6278   27.8681 C   0  0  0  0  0  0  0  0  0  0  0  0
  -21.6469  -16.6758   29.3331 C   0  0  0  0  0  0  0  0  0  0  0  0
  -25.5822  -20.7848   33.1411 C   0  0  0  0  0  0  0  0  0  0  0  0
  -31.9204  -18.7749   25.0605 C   0  0  0  0  0  0  0  0  0  0  0  0
  -31.6713  -13.1359   23.7668 C   0  0  0  0  0  0  0  0  0  0  0  0
  -32.8824  -19.1058   26.2036 C   0  0  0  0  0  0  0  0  0  0  0  0
  -32.4821  -18.4740   27.5317 C   0  0  0  0  0  0  0  0  0  1  0  0
  -23.9023  -17.8031   29.5187 C   0  0  1  0  0  0  0  0  0  0  0  0
  -23.3910  -20.6679   31.9478 C   0  0  2  0  0  0  0  0  0  0  0  0
  -22.7706  -17.3785   28.5406 C   0  0  0  0  0  0  0  0  0  0  0  0
  -25.9394  -11.6084   20.5343 N   0  0  0  0  0  0  0  0  0  0  0  0
  -26.2813  -12.9004   20.3932 N   0  0  0  0  0  0  0  0  0  0  0  0
  -25.9297  -16.4569   29.9676 N   0  0  0  0  0  0  0  0  0  0  0  0
  -30.0938  -12.6316   20.4328 N   0  0  0  0  0  0  0  0  0  0  0  0
  -25.4056  -15.1010   20.4308 N   0  0  0  0  0  0  0  0  0  0  0  0
  -21.7908  -12.5267   21.2687 N   0  0  0  0  0  0  0  0  0  0  0  0
  -26.4821  -12.9512   29.6005 N   0  0  0  0  0  0  0  0  0  0  0  0
  -23.4642  -18.6914   30.5899 N   0  0  0  0  0  0  0  0  0  0  0  0
  -30.7395  -12.8569   22.6969 N   0  0  0  0  0  0  0  0  0  0  0  0
  -24.4022  -21.5266   32.6268 N   0  3  0  0  0  0  0  0  0  0  0  0
  -22.5154  -14.6841   20.9873 O   0  0  0  0  0  0  0  0  0  0  0  0
  -26.7141  -14.7319   28.1180 O   0  0  0  0  0  0  0  0  0  0  0  0
  -23.8724  -15.8721   30.8959 O   0  0  0  0  0  0  0  0  0  0  0  0
  -24.9124  -20.4309   30.0860 O   0  0  0  0  0  0  0  0  0  0  0  0
  -32.2578  -13.2247   21.0187 O   0  0  0  0  0  0  0  0  0  0  0  0
  -21.7153   -6.9669   21.6123 O   0  0  0  0  0  0  0  0  0  0  0  0
  -31.1797  -18.9378   27.8855 O   0  0  0  0  0  0  0  0  0  1  0  0
  -18.1509   -6.8664   25.8181 F   0  0  0  0  0  0  0  0  0  0  0  0
  -19.6106   -8.7554   21.7307 F   0  0  0  0  0  0  0  0  0  0  0  0
  1  2  1  0  0  0  0
  1  5  2  0  0  0  0
  2  6  2  0  0  0  0
  3  8  2  0  0  0  0
  3 17  1  0  0  0  0
  4  9  1  0  0  0  0
  4 17  2  0  0  0  0
  5 19  1  0  0  0  0
  6 21  1  0  0  0  0
  7 10  2  0  0  0  0
  7 20  1  0  0  0  0
  8 27  1  0  0  0  0
  9 27  2  0  0  0  0
 10 28  1  0  0  0  0
 11 12  2  0  0  0  0
 11 29  1  0  0  0  0
 12 30  1  0  0  0  0
 13 22  1  0  0  0  0
 13 28  2  0  0  0  0
 14 23  2  0  0  0  0
 14 25  1  0  0  0  0
 15 24  1  0  0  0  0
 15 26  2  0  0  0  0
 16 30  2  0  0  0  0
 16 31  1  0  0  0  0
 17 32  1  0  0  0  0
 18 32  1  0  0  0  0
 18 33  2  0  0  0  0
 18 34  1  0  0  0  0
 19 21  2  0  0  0  0
 19 39  1  0  0  0  0
 20 22  2  0  0  0  0
 20 40  1  0  0  0  0
 21 48  1  0  0  0  0
 22 41  1  0  0  0  0
 23 26  1  0  0  0  0
 23 51  1  0  0  0  0
 24 25  2  0  0  0  0
 24 52  1  0  0  0  0
 25 58  1  0  0  0  0
 26 59  1  0  0  0  0
 27 80  1  0  0  0  0
 28 81  1  0  0  0  0
 29 31  2  0  0  0  0
 29 80  1  0  0  0  0
 30 82  1  0  0  0  0
 31 83  1  0  0  0  0
 32 65  2  0  0  0  0
 33 66  1  0  0  0  0
 33 69  1  0  0  0  0
 34 70  1  0  0  0  0
 34 75  2  0  0  0  0
 35 49  1  0  0  0  0
 35 71  1  0  0  0  0
 35 76  2  0  0  0  0
 36 62  1  0  0  0  0
 36 67  1  0  0  0  0
 36 77  2  0  0  0  0
 37 63  1  0  0  0  0
 37 72  1  0  0  0  0
 37 78  2  0  0  0  0
 38 68  1  0  0  0  0
 38 73  1  0  0  0  0
 38 79  2  0  0  0  0
 39 42  1  0  0  0  0
 40 49  1  0  0  0  0
 41 67  1  0  0  0  0
 42 44  1  0  0  0  0
 43 45  1  0  0  0  0
 43 46  1  0  0  0  0
 44 48  1  0  0  0  0
 45 50  1  0  0  0  0
 46 68  1  0  0  0  0
 47 50  1  0  0  0  0
 47 68  1  0  0  0  0
 48 71  1  0  0  0  0
 49 67  1  0  0  0  0
 50 66  1  0  0  0  0
 53 63  1  0  0  0  0
 54 64  1  0  0  0  0
 55 64  1  0  0  0  0
 56 64  1  0  0  0  0
 57 74  1  0  0  0  0
 58 60  1  0  0  0  0
 59 73  1  0  0  0  0
 60 61  1  0  0  0  0
 61 81  1  0  0  0  0
 62 64  1  0  0  0  0
 62 72  1  0  0  0  0
 63 74  1  0  0  0  0
 65 66  1  0  0  0  0
M  CHG  1  74   1
M  ISO  4  38 100  61 101  73 100  81 101
M  END
> <Batch ID>
0127

> <Smiles>
CNC(C)C(=O)NC(C(=O)N1Cc2cc([101O:1][101CH2:1]CCc3cc(C)c(C[100NH:0][100C:0](=O)N4CCCC(n5nc(-c6ccc(Oc7ccc(F)cc7F)cc6)c(C(N)=O)c5N)C4)cc3C)ccc2CC1C(=O)NC1CCCc2ccccc21)C(C)(C)C

> <Shape>
0.131

> <Color>
0.182

> <Negative vol penalty>
0.000

$$$$

  -OEChem-04052302143D

 82 90  0     1  0  0  0  0  0999 V2000
  -28.8922  -28.6712   28.9544 C   0  0  0  0  0  0  0  0  0  0  0  0
  -28.6466  -28.2716   27.6447 C   0  0  0  0  0  0  0  0  0  0  0  0
  -24.3667   -9.3964   21.3295 C   0  0  0  0  0  0  0  0  0  0  0  0
  -24.8501  -10.3697   23.4873 C   0  0  0  0  0  0  0  0  0  0  0  0
  -28.3156  -29.8421   29.4446 C   0  0  0  0  0  0  0  0  0  0  0  0
  -27.8233  -29.0424   26.8246 C   0  0  0  0  0  0  0  0  0  0  0  0
  -29.7469  -29.6728   22.1826 C   0  0  0  0  0  0  0  0  0  0  0  0
  -29.0309  -20.5913   18.8557 C   0  0  0  0  0  0  0  0  0  0  0  0
  -29.3149  -19.3043   19.3123 C   0  0  0  0  0  0  0  0  0  0  0  0
  -24.0233   -8.1946   21.9485 C   0  0  0  0  0  0  0  0  0  0  0  0
  -24.5067   -9.1678   24.1064 C   0  0  0  0  0  0  0  0  0  0  0  0
  -29.6238  -28.6070   21.2923 C   0  0  0  0  0  0  0  0  0  0  0  0
  -21.3734   -6.9208   23.6184 C   0  0  0  0  0  0  0  0  0  0  0  0
  -20.2098   -6.2811   23.1915 C   0  0  0  0  0  0  0  0  0  0  0  0
  -27.7377  -29.6976   20.2569 C   0  0  0  0  0  0  0  0  0  0  0  0
  -27.2538  -20.7761   20.4820 C   0  0  0  0  0  0  0  0  0  0  0  0
  -21.5067   -4.3428   22.5607 C   0  0  0  0  0  0  0  0  0  0  0  0
  -24.7801  -10.4840   22.0989 C   0  0  0  0  0  0  0  0  0  0  0  0
  -24.2811  -12.8048   21.1649 C   0  0  0  0  0  0  0  0  0  0  0  0
  -27.4926  -30.6327   28.6271 C   0  0  0  0  0  0  0  0  0  0  0  0
  -28.8580  -30.7557   22.1237 C   0  0  0  0  0  0  0  0  0  0  0  0
  -27.2341  -30.2243   27.3047 C   0  0  0  0  0  0  0  0  0  0  0  0
  -27.8531  -30.7771   21.1460 C   0  0  0  0  0  0  0  0  0  0  0  0
  -28.0003  -21.3272   19.4406 C   0  0  0  0  0  0  0  0  0  0  0  0
  -27.5379  -19.4891   20.9387 C   0  0  0  0  0  0  0  0  0  0  0  0
  -28.5684  -18.7532   20.3538 C   0  0  0  0  0  0  0  0  0  0  0  0
  -24.0933   -8.0803   23.3369 C   0  0  0  0  0  0  0  0  0  0  0  0
  -28.6173  -28.6179   20.3311 C   0  0  0  0  0  0  0  0  0  0  0  0
  -22.6038   -6.2716   23.5164 C   0  0  0  0  0  0  0  0  0  0  0  0
  -20.2764   -4.9921   22.6627 C   0  0  0  0  0  0  0  0  0  0  0  0
  -22.6704   -4.9825   22.9876 C   0  0  0  0  0  0  0  0  0  0  0  0
  -25.1355  -11.7256   21.4600 C   0  0  0  0  0  0  0  0  0  0  0  0
  -25.0957  -13.7335   20.5644 C   0  0  0  0  0  0  0  0  0  0  0  0
  -22.8767  -12.9546   21.4115 C   0  0  0  0  0  0  0  0  0  0  0  0
  -26.7272  -32.0197   24.1152 C   0  0  0  0  0  0  0  0  0  0  0  0
  -26.5020  -34.2927   21.8119 C   0  0  0  0  0  0  0  0  0  0  0  0
  -26.9001  -35.1416   18.5305 C   0  0  0  0  0  0  0  0  0  0  0  0
  -29.8663  -16.5943   20.3192 C   0  0  0  0  0  0  0  0  0  0  0  0
  -26.8536  -31.8654   29.2160 C   0  0  0  0  0  0  0  0  0  0  0  0
  -29.0207  -31.9102   23.0741 C   0  0  0  0  0  0  0  0  0  0  0  0
  -26.8860  -31.9256   21.0278 C   0  0  0  0  0  0  0  0  0  0  0  0
  -26.2949  -32.8225   28.1662 C   0  0  0  0  0  0  0  0  0  0  0  0
  -29.8504  -13.3408   18.8730 C   0  0  0  0  0  0  0  0  0  0  0  0
  -25.4872  -32.0577   27.1224 C   0  0  0  0  0  0  0  0  0  0  0  0
  -28.5520  -12.7194   19.3928 C   0  0  0  0  0  0  0  0  0  0  0  0
  -30.5149  -14.2283   19.9239 C   0  0  0  0  0  0  0  0  0  0  0  0
  -28.3485  -14.6404   21.0223 C   0  0  0  0  0  0  0  0  0  0  0  0
  -26.3665  -31.0466   26.3766 C   0  0  1  0  0  0  0  0  0  0  0  0
  -27.7406  -32.7202   23.2550 C   0  0  1  0  0  0  0  0  0  0  0  0
  -27.6092  -13.7897   19.9766 C   0  0  2  0  0  0  0  0  0  0  0  0
  -26.7199  -18.9227   22.0539 C   0  0  0  0  0  0  0  0  0  0  0  0
  -26.5975  -37.0601   16.9414 C   0  0  0  0  0  0  0  0  0  0  0  0
  -23.4898  -33.8063   21.8020 C   0  0  0  0  0  0  0  0  0  0  0  0
  -23.3737  -35.0056   19.6074 C   0  0  0  0  0  0  0  0  0  0  0  0
  -24.1588  -36.2110   21.6454 C   0  0  0  0  0  0  0  0  0  0  0  0
  -29.7859  -35.2068   17.8773 C   0  0  0  0  0  0  0  0  0  0  0  0
  -27.6918  -22.7176   18.9452 C   0  0  0  0  0  0  0  0  0  0  0  0
  -28.4696  -23.8206   19.6716 C   0  0  0  0  0  0  0  0  0  0  0  0
  -28.0869  -25.2271   19.2090 C   0  0  0  0  0  0  0  0  0  0  0  0
  -28.9071  -26.2930   19.9231 C   0  0  0  0  0  0  0  0  0  1  0  0
  -25.6586  -34.4804   20.5740 C   0  0  1  0  0  0  0  0  0  0  0  0
  -27.5601  -36.3402   17.8731 C   0  0  2  0  0  0  0  0  0  0  0  0
  -24.1871  -34.8531   20.9104 C   0  0  0  0  0  0  0  0  0  0  0  0
  -26.3962  -11.9468   21.0783 N   0  0  0  0  0  0  0  0  0  0  0  0
  -26.3400  -13.1756   20.5372 N   0  0  0  0  0  0  0  0  0  0  0  0
  -27.0821  -33.0279   21.9839 N   0  0  0  0  0  0  0  0  0  0  0  0
  -29.5633  -15.2206   20.4285 N   0  0  0  0  0  0  0  0  0  0  0  0
  -24.8619  -14.9646   20.0623 N   0  0  0  0  0  0  0  0  0  0  0  0
  -22.1926  -11.9038   22.0379 N   0  0  0  0  0  0  0  0  0  0  0  0
  -28.8724  -17.4443   20.8034 N   0  0  0  0  0  0  0  0  0  0  0  0
  -27.1797  -31.7183   25.3856 N   0  0  0  0  0  0  0  0  0  0  0  0
  -26.3522  -35.4672   19.7533 N   0  0  0  0  0  0  0  0  0  0  0  0
  -28.7464  -35.9085   17.0810 N   0  3  0  0  0  0  0  0  0  0  0  0
  -22.2437  -13.9827   21.0713 O   0  0  0  0  0  0  0  0  0  0  0  0
  -25.6165  -31.7724   23.6605 O   0  0  0  0  0  0  0  0  0  0  0  0
  -26.6468  -35.2358   22.5938 O   0  0  0  0  0  0  0  0  0  0  0  0
  -26.8700  -34.0288   18.0096 O   0  0  0  0  0  0  0  0  0  0  0  0
  -30.9173  -16.9883   19.8072 O   0  0  0  0  0  0  0  0  0  0  0  0
  -23.7581   -6.9077   23.9413 O   0  0  0  0  0  0  0  0  0  0  0  0
  -28.4946  -27.5786   19.4612 O   0  0  0  0  0  0  0  0  0  1  0  0
  -19.1586   -4.3773   22.2543 F   0  0  0  0  0  0  0  0  0  0  0  0
  -23.8494   -4.3533   22.8881 F   0  0  0  0  0  0  0  0  0  0  0  0
  1  2  1  0  0  0  0
  1  5  2  0  0  0  0
  2  6  2  0  0  0  0
  3 10  2  0  0  0  0
  3 18  1  0  0  0  0
  4 11  1  0  0  0  0
  4 18  2  0  0  0  0
  5 20  1  0  0  0  0
  6 22  1  0  0  0  0
  7 12  2  0  0  0  0
  7 21  1  0  0  0  0
  8  9  2  0  0  0  0
  8 24  1  0  0  0  0
  9 26  1  0  0  0  0
 10 27  1  0  0  0  0
 11 27  2  0  0  0  0
 12 28  1  0  0  0  0
 13 14  2  0  0  0  0
 13 29  1  0  0  0  0
 14 30  1  0  0  0  0
 15 23  1  0  0  0  0
 15 28  2  0  0  0  0
 16 24  2  0  0  0  0
 16 25  1  0  0  0  0
 17 30  2  0  0  0  0
 17 31  1  0  0  0  0
 18 32  1  0  0  0  0
 19 32  1  0  0  0  0
 19 33  2  0  0  0  0
 19 34  1  0  0  0  0
 20 22  2  0  0  0  0
 20 39  1  0  0  0  0
 21 23  2  0  0  0  0
 21 40  1  0  0  0  0
 22 48  1  0  0  0  0
 23 41  1  0  0  0  0
 24 57  1  0  0  0  0
 25 26  2  0  0  0  0
 25 51  1  0  0  0  0
 26 70  1  0  0  0  0
 27 79  1  0  0  0  0
 28 80  1  0  0  0  0
 29 31  2  0  0  0  0
 29 79  1  0  0  0  0
 30 81  1  0  0  0  0
 31 82  1  0  0  0  0
 32 64  2  0  0  0  0
 33 65  1  0  0  0  0
 33 68  1  0  0  0  0
 34 69  1  0  0  0  0
 34 74  2  0  0  0  0
 35 49  1  0  0  0  0
 35 71  1  0  0  0  0
 35 75  2  0  0  0  0
 36 61  1  0  0  0  0
 36 66  1  0  0  0  0
 36 76  2  0  0  0  0
 37 62  1  0  0  0  0
 37 72  1  0  0  0  0
 37 77  2  0  0  0  0
 38 67  1  0  0  0  0
 38 70  1  0  0  0  0
 38 78  2  0  0  0  0
 39 42  1  0  0  0  0
 40 49  1  0  0  0  0
 41 66  1  0  0  0  0
 42 44  1  0  0  0  0
 43 45  1  0  0  0  0
 43 46  1  0  0  0  0
 44 48  1  0  0  0  0
 45 50  1  0  0  0  0
 46 67  1  0  0  0  0
 47 50  1  0  0  0  0
 47 67  1  0  0  0  0
 48 71  1  0  0  0  0
 49 66  1  0  0  0  0
 50 65  1  0  0  0  0
 52 62  1  0  0  0  0
 53 63  1  0  0  0  0
 54 63  1  0  0  0  0
 55 63  1  0  0  0  0
 56 73  1  0  0  0  0
 57 58  1  0  0  0  0
 58 59  1  0  0  0  0
 59 60  1  0  0  0  0
 60 80  1  0  0  0  0
 61 63  1  0  0  0  0
 61 72  1  0  0  0  0
 62 73  1  0  0  0  0
 64 65  1  0  0  0  0
M  CHG  1  73   1
M  ISO  4  38 100  60 101  70 100  80 101
M  END
> <Batch ID>
0127

> <Smiles>
CNC(C)C(=O)NC(C(=O)N1Cc2cc([101O:1][101CH2:1]CCCc3ccc([100NH:0][100C:0](=O)N4CCCC(n5nc(-c6ccc(Oc7ccc(F)cc7F)cc6)c(C(N)=O)c5N)C4)c(C)c3)ccc2CC1C(=O)NC1CCCc2ccccc21)C(C)(C)C

> <Shape>
0.274

> <Color>
0.131

> <Negative vol penalty>
0.000

$$$$

  -OEChem-04052302143D

 82 90  0     1  0  0  0  0  0999 V2000
  -16.5381  -30.6320   23.8342 C   0  0  0  0  0  0  0  0  0  0  0  0
  -17.8528  -31.0660   23.6977 C   0  0  0  0  0  0  0  0  0  0  0  0
  -25.4897  -16.2872   21.5405 C   0  0  0  0  0  0  0  0  0  0  0  0
  -25.4106  -16.1917   19.1277 C   0  0  0  0  0  0  0  0  0  0  0  0
  -16.2552  -29.2671   23.8634 C   0  0  0  0  0  0  0  0  0  0  0  0
  -18.8856  -30.1351   23.5913 C   0  0  0  0  0  0  0  0  0  0  0  0
  -24.0042  -30.6785   20.2732 C   0  0  0  0  0  0  0  0  0  0  0  0
  -24.2344  -15.6826   21.6056 C   0  0  0  0  0  0  0  0  0  0  0  0
  -24.1553  -15.5870   19.1928 C   0  0  0  0  0  0  0  0  0  0  0  0
  -25.3044  -31.0534   20.6090 C   0  0  0  0  0  0  0  0  0  0  0  0
  -21.2093  -13.8361   22.4149 C   0  0  0  0  0  0  0  0  0  0  0  0
  -21.0335  -12.8044   23.3370 C   0  0  0  0  0  0  0  0  0  0  0  0
  -32.2636  -26.6798   23.2460 C   0  0  0  0  0  0  0  0  0  0  0  0
  -30.9105  -27.2121   21.3166 C   0  0  0  0  0  0  0  0  0  0  0  0
  -25.9112  -28.7292   20.8301 C   0  0  0  0  0  0  0  0  0  0  0  0
  -32.4248  -28.8623   22.2224 C   0  0  0  0  0  0  0  0  0  0  0  0
  -22.7760  -11.5339   22.2477 C   0  0  0  0  0  0  0  0  0  0  0  0
  -26.0778  -16.5418   20.3016 C   0  0  0  0  0  0  0  0  0  0  0  0
  -31.3078  -26.3072   22.3010 C   0  0  0  0  0  0  0  0  0  0  0  0
  -28.6274  -16.5256   20.2178 C   0  0  0  0  0  0  0  0  0  0  0  0
  -17.2840  -28.3190   23.7477 C   0  0  0  0  0  0  0  0  0  0  0  0
  -23.6444  -29.3240   20.2238 C   0  0  0  0  0  0  0  0  0  0  0  0
  -18.6163  -28.7562   23.6203 C   0  0  0  0  0  0  0  0  0  0  0  0
  -24.6065  -28.3396   20.4909 C   0  0  0  0  0  0  0  0  0  0  0  0
  -32.8221  -27.9574   23.2068 C   0  0  0  0  0  0  0  0  0  0  0  0
  -31.4690  -28.4897   21.2773 C   0  0  0  0  0  0  0  0  0  0  0  0
  -23.5672  -15.3324   20.4318 C   0  0  0  0  0  0  0  0  0  0  0  0
  -26.2573  -30.0789   20.8904 C   0  0  0  0  0  0  0  0  0  0  0  0
  -22.1684  -13.7167   21.4091 C   0  0  0  0  0  0  0  0  0  0  0  0
  -21.8168  -11.6533   23.2534 C   0  0  0  0  0  0  0  0  0  0  0  0
  -22.9518  -12.5656   21.3256 C   0  0  0  0  0  0  0  0  0  0  0  0
  -27.3742  -17.1669   20.2337 C   0  0  0  0  0  0  0  0  0  0  0  0
  -29.5373  -17.5520   20.1465 C   0  0  0  0  0  0  0  0  0  0  0  0
  -30.7255  -24.9749   22.3425 C   0  0  0  0  0  0  0  0  0  0  0  0
  -29.5603  -24.6111   21.7656 C   0  0  0  0  0  0  0  0  0  0  0  0
  -28.9408  -15.1273   20.2633 C   0  0  0  0  0  0  0  0  0  0  0  0
  -29.1058  -23.2115   21.8889 C   0  0  0  0  0  0  0  0  0  0  0  0
  -21.5687  -27.4961   21.7903 C   0  0  0  0  0  0  0  0  0  0  0  0
  -22.5056  -25.2603   19.6350 C   0  0  0  0  0  0  0  0  0  0  0  0
  -24.8995  -24.1426   17.4748 C   0  0  0  0  0  0  0  0  0  0  0  0
  -16.9343  -26.8544   23.8320 C   0  0  0  0  0  0  0  0  0  0  0  0
  -22.2447  -28.9353   19.8338 C   0  0  0  0  0  0  0  0  0  0  0  0
  -24.2762  -26.8713   20.4319 C   0  0  0  0  0  0  0  0  0  0  0  0
  -18.0463  -25.9332   23.3368 C   0  0  0  0  0  0  0  0  0  0  0  0
  -30.0407  -22.0194   18.5518 C   0  0  0  0  0  0  0  0  0  0  0  0
  -19.3902  -26.3569   23.9208 C   0  0  0  0  0  0  0  0  0  0  0  0
  -29.5264  -20.5831   18.5982 C   0  0  0  0  0  0  0  0  0  0  0  0
  -29.1498  -22.9718   19.3479 C   0  0  0  0  0  0  0  0  0  0  0  0
  -28.4179  -21.1072   20.8066 C   0  0  0  0  0  0  0  0  0  0  0  0
  -19.7613  -27.7771   23.4772 C   0  0  1  0  0  0  0  0  0  0  0  0
  -21.8554  -27.5412   20.3161 C   0  0  1  0  0  0  0  0  0  0  0  0
  -29.3252  -20.1237   20.0510 C   0  0  1  0  0  0  0  0  0  0  0  0
  -33.8439  -28.3562   24.2174 C   0  0  0  0  0  0  0  0  0  0  0  0
  -25.3958  -22.2670   15.8831 C   0  0  0  0  0  0  0  0  0  0  0  0
  -23.1167  -23.4235   21.9936 C   0  0  0  0  0  0  0  0  0  0  0  0
  -24.4614  -21.9922   20.4408 C   0  0  0  0  0  0  0  0  0  0  0  0
  -22.0163  -22.2962   20.0513 C   0  0  0  0  0  0  0  0  0  0  0  0
  -25.0822  -25.9914   15.1709 C   0  0  0  0  0  0  0  0  0  0  0  0
  -31.0395  -29.4679   20.2133 C   0  0  0  0  0  0  0  0  0  0  0  0
  -29.8480  -30.3374   20.6209 C   0  0  0  0  0  0  0  0  0  0  0  0
  -28.5732  -29.5384   20.8656 C   0  0  0  0  0  0  0  0  0  1  0  0
  -23.5940  -24.2154   19.5830 C   0  0  1  0  0  0  0  0  0  0  0  0
  -24.8143  -23.6638   16.0367 C   0  0  2  0  0  0  0  0  0  0  0  0
  -23.3031  -23.0095   20.5203 C   0  0  0  0  0  0  0  0  0  0  0  0
  -27.4751  -18.4975   20.1772 N   0  0  0  0  0  0  0  0  0  0  0  0
  -28.8026  -18.7008   20.1252 N   0  0  0  0  0  0  0  0  0  0  0  0
  -28.9246  -22.4811   20.7158 N   0  0  0  0  0  0  0  0  0  0  0  0
  -22.8925  -26.5418   20.0520 N   0  0  0  0  0  0  0  0  0  0  0  0
  -30.8863  -17.5747   20.1007 N   0  0  0  0  0  0  0  0  0  0  0  0
  -27.8853  -14.2080   20.3350 N   0  0  0  0  0  0  0  0  0  0  0  0
  -20.2539  -27.7691   22.1164 N   0  0  0  0  0  0  0  0  0  0  0  0
  -23.7482  -23.8563   18.1775 N   0  0  0  0  0  0  0  0  0  0  0  0
  -25.5642  -24.5865   15.1383 N   0  3  0  0  0  0  0  0  0  0  0  0
  -30.1224  -14.7062   20.2576 O   0  0  0  0  0  0  0  0  0  0  0  0
  -28.9094  -22.7754   23.0247 O   0  0  0  0  0  0  0  0  0  0  0  0
  -22.4730  -27.2317   22.5739 O   0  0  0  0  0  0  0  0  0  0  0  0
  -21.3560  -24.9526   19.3105 O   0  0  0  0  0  0  0  0  0  0  0  0
  -25.8899  -24.7102   17.9302 O   0  0  0  0  0  0  0  0  0  0  0  0
  -22.3424  -14.7422   20.4949 O   0  0  0  0  0  0  0  0  0  0  0  0
  -27.5269  -30.4421   21.2191 O   0  0  0  0  0  0  0  0  0  1  0  0
  -21.6489  -10.6633   24.1399 F   0  0  0  0  0  0  0  0  0  0  0  0
  -23.8756  -12.4456   20.3623 F   0  0  0  0  0  0  0  0  0  0  0  0
  1  2  1  0  0  0  0
  1  5  2  0  0  0  0
  2  6  2  0  0  0  0
  3  8  2  0  0  0  0
  3 18  1  0  0  0  0
  4  9  1  0  0  0  0
  4 18  2  0  0  0  0
  5 21  1  0  0  0  0
  6 23  1  0  0  0  0
  7 10  2  0  0  0  0
  7 22  1  0  0  0  0
  8 27  1  0  0  0  0
  9 27  2  0  0  0  0
 10 28  1  0  0  0  0
 11 12  2  0  0  0  0
 11 29  1  0  0  0  0
 12 30  1  0  0  0  0
 13 19  2  0  0  0  0
 13 25  1  0  0  0  0
 14 19  1  0  0  0  0
 14 26  2  0  0  0  0
 15 24  1  0  0  0  0
 15 28  2  0  0  0  0
 16 25  2  0  0  0  0
 16 26  1  0  0  0  0
 17 30  2  0  0  0  0
 17 31  1  0  0  0  0
 18 32  1  0  0  0  0
 19 34  1  0  0  0  0
 20 32  1  0  0  0  0
 20 33  2  0  0  0  0
 20 36  1  0  0  0  0
 21 23  2  0  0  0  0
 21 41  1  0  0  0  0
 22 24  2  0  0  0  0
 22 42  1  0  0  0  0
 23 50  1  0  0  0  0
 24 43  1  0  0  0  0
 25 53  1  0  0  0  0
 26 59  1  0  0  0  0
 27 79  1  0  0  0  0
 28 80  1  0  0  0  0
 29 31  2  0  0  0  0
 29 79  1  0  0  0  0
 30 81  1  0  0  0  0
 31 82  1  0  0  0  0
 32 65  2  0  0  0  0
 33 66  1  0  0  0  0
 33 69  1  0  0  0  0
 34 35  2  0  0  0  0
 35 37  1  0  0  0  0
 36 70  1  0  0  0  0
 36 74  2  0  0  0  0
 37 67  1  0  0  0  0
 37 75  2  0  0  0  0
 38 51  1  0  0  0  0
 38 71  1  0  0  0  0
 38 76  2  0  0  0  0
 39 62  1  0  0  0  0
 39 68  1  0  0  0  0
 39 77  2  0  0  0  0
 40 63  1  0  0  0  0
 40 72  1  0  0  0  0
 40 78  2  0  0  0  0
 41 44  1  0  0  0  0
 42 51  1  0  0  0  0
 43 68  1  0  0  0  0
 44 46  1  0  0  0  0
 45 47  1  0  0  0  0
 45 48  1  0  0  0  0
 46 50  1  0  0  0  0
 47 52  1  0  0  0  0
 48 67  1  0  0  0  0
 49 52  1  0  0  0  0
 49 67  1  0  0  0  0
 50 71  1  0  0  0  0
 51 68  1  0  0  0  0
 52 66  1  0  0  0  0
 54 63  1  0  0  0  0
 55 64  1  0  0  0  0
 56 64  1  0  0  0  0
 57 64  1  0  0  0  0
 58 73  1  0  0  0  0
 59 60  1  0  0  0  0
 60 61  1  0  0  0  0
 61 80  1  0  0  0  0
 62 64  1  0  0  0  0
 62 72  1  0  0  0  0
 63 73  1  0  0  0  0
 65 66  1  0  0  0  0
M  CHG  1  73   1
M  ISO  4  35 100  37 100  61 101  80 101
M  END
> <Batch ID>
0127

> <Smiles>
CNC(C)C(=O)NC(C(=O)N1Cc2cc([101O:1][101CH2:1]CCc3cc(C)cc(C=[100CH:0][100C:0](=O)N4CCCC(n5nc(-c6ccc(Oc7ccc(F)cc7F)cc6)c(C(N)=O)c5N)C4)c3)ccc2CC1C(=O)NC1CCCc2ccccc21)C(C)(C)C

> <Shape>
0.250

> <Color>
0.068

> <Negative vol penalty>
0.000

$$$$

  -OEChem-04052302143D

 82 90  0     1  0  0  0  0  0999 V2000
  -46.0837  -15.6192   30.1179 C   0  0  0  0  0  0  0  0  0  0  0  0
  -44.7413  -15.2548   30.1392 C   0  0  0  0  0  0  0  0  0  0  0  0
  -23.2886   -9.7999   19.9128 C   0  0  0  0  0  0  0  0  0  0  0  0
  -23.7408   -9.9398   22.2820 C   0  0  0  0  0  0  0  0  0  0  0  0
  -33.6038  -11.9601   24.7702 C   0  0  0  0  0  0  0  0  0  0  0  0
  -46.4814  -16.7715   29.4410 C   0  0  0  0  0  0  0  0  0  0  0  0
  -43.7955  -16.0431   29.4845 C   0  0  0  0  0  0  0  0  0  0  0  0
  -40.5094  -13.2945   26.7843 C   0  0  0  0  0  0  0  0  0  0  0  0
  -32.8144  -12.2773   23.6649 C   0  0  0  0  0  0  0  0  0  0  0  0
  -22.5629   -8.6270   20.1205 C   0  0  0  0  0  0  0  0  0  0  0  0
  -23.0150   -8.7669   22.4897 C   0  0  0  0  0  0  0  0  0  0  0  0
  -39.4846  -12.6590   27.4841 C   0  0  0  0  0  0  0  0  0  0  0  0
  -19.7685   -7.8544   22.7088 C   0  0  0  0  0  0  0  0  0  0  0  0
  -18.8668   -7.8319   23.7727 C   0  0  0  0  0  0  0  0  0  0  0  0
  -31.6980  -12.2743   26.2215 C   0  0  0  0  0  0  0  0  0  0  0  0
  -37.9654  -14.4215   26.8480 C   0  0  0  0  0  0  0  0  0  0  0  0
  -20.0740   -5.9848   24.7567 C   0  0  0  0  0  0  0  0  0  0  0  0
  -23.8776  -10.4563   20.9935 C   0  0  0  0  0  0  0  0  0  0  0  0
  -33.0456  -11.9586   26.0485 C   0  0  0  0  0  0  0  0  0  0  0  0
  -24.1359  -12.9865   20.7958 C   0  0  0  0  0  0  0  0  0  0  0  0
  -45.5414  -17.5690   28.7695 C   0  0  0  0  0  0  0  0  0  0  0  0
  -40.2722  -14.5059   26.1190 C   0  0  0  0  0  0  0  0  0  0  0  0
  -44.1809  -17.2078   28.7991 C   0  0  0  0  0  0  0  0  0  0  0  0
  -38.9882  -15.0690   26.1382 C   0  0  0  0  0  0  0  0  0  0  0  0
  -30.9086  -12.5916   25.1162 C   0  0  0  0  0  0  0  0  0  0  0  0
  -31.4668  -12.5931   23.8378 C   0  0  0  0  0  0  0  0  0  0  0  0
  -22.4260   -8.1105   21.4090 C   0  0  0  0  0  0  0  0  0  0  0  0
  -38.2131  -13.2240   27.5185 C   0  0  0  0  0  0  0  0  0  0  0  0
  -20.8229   -6.9420   22.6687 C   0  0  0  0  0  0  0  0  0  0  0  0
  -19.0196   -6.8971   24.7967 C   0  0  0  0  0  0  0  0  0  0  0  0
  -20.9756   -6.0073   23.6927 C   0  0  0  0  0  0  0  0  0  0  0  0
  -24.6280  -11.6676   20.7795 C   0  0  0  0  0  0  0  0  0  0  0  0
  -25.2369  -13.7669   20.5404 C   0  0  0  0  0  0  0  0  0  0  0  0
  -33.8795  -11.6236   27.2149 C   0  0  0  0  0  0  0  0  0  0  0  0
  -35.0404  -10.9515   27.1677 C   0  0  0  0  0  0  0  0  0  0  0  0
  -22.8028  -13.4635   21.0216 C   0  0  0  0  0  0  0  0  0  0  0  0
  -41.4022  -17.4656   26.3772 C   0  0  0  0  0  0  0  0  0  0  0  0
  -39.6128  -17.9639   23.7179 C   0  0  0  0  0  0  0  0  0  0  0  0
  -36.9646  -17.0115   21.7874 C   0  0  0  0  0  0  0  0  0  0  0  0
  -31.0980  -12.9547   21.3722 C   0  0  0  0  0  0  0  0  0  0  0  0
  -46.0125  -18.8310   28.0913 C   0  0  0  0  0  0  0  0  0  0  0  0
  -41.3815  -15.1651   25.3462 C   0  0  0  0  0  0  0  0  0  0  0  0
  -38.6766  -16.3576   25.4234 C   0  0  0  0  0  0  0  0  0  0  0  0
  -44.9985  -19.4086   27.1072 C   0  0  0  0  0  0  0  0  0  0  0  0
  -29.4624  -13.6597   18.2892 C   0  0  0  0  0  0  0  0  0  0  0  0
  -43.6067  -19.4381   27.7306 C   0  0  0  0  0  0  0  0  0  0  0  0
  -27.9913  -13.3547   18.5812 C   0  0  0  0  0  0  0  0  0  0  0  0
  -30.3964  -12.6846   19.0037 C   0  0  0  0  0  0  0  0  0  0  0  0
  -28.7045  -12.2551   20.7421 C   0  0  0  0  0  0  0  0  0  0  0  0
  -43.1285  -18.0236   28.0800 C   0  0  1  0  0  0  0  0  0  0  0  0
  -41.1561  -16.6589   25.1338 C   0  0  1  0  0  0  0  0  0  0  0  0
  -27.7273  -13.2509   20.0962 C   0  0  2  0  0  0  0  0  0  0  0  0
  -29.4680  -12.9258   25.3306 C   0  0  0  0  0  0  0  0  0  0  0  0
  -35.7275  -17.6343   19.6948 C   0  0  0  0  0  0  0  0  0  0  0  0
  -38.2989  -20.2912   25.1902 C   0  0  0  0  0  0  0  0  0  0  0  0
  -36.4757  -20.2561   23.4747 C   0  0  0  0  0  0  0  0  0  0  0  0
  -38.8240  -20.7404   22.7866 C   0  0  0  0  0  0  0  0  0  0  0  0
  -37.5621  -14.4048   20.5198 C   0  0  0  0  0  0  0  0  0  0  0  0
  -35.8554  -10.6191   28.3875 C   0  0  0  0  0  0  0  0  0  0  0  0
  -37.2681  -11.1831   28.2916 C   0  0  0  0  0  0  0  0  0  1  0  0
  -38.1879  -18.3856   23.4517 C   0  0  1  0  0  0  0  0  0  0  0  0
  -36.8385  -16.7845   20.2917 C   0  0  2  0  0  0  0  0  0  0  0  0
  -37.9527  -19.8950   23.7410 C   0  0  0  0  0  0  0  0  0  0  0  0
  -25.9394  -11.6096   20.5331 N   0  0  0  0  0  0  0  0  0  0  0  0
  -26.2807  -12.9018   20.3921 N   0  0  0  0  0  0  0  0  0  0  0  0
  -39.7961  -16.9673   24.6869 N   0  0  0  0  0  0  0  0  0  0  0  0
  -30.0905  -12.6420   20.4353 N   0  0  0  0  0  0  0  0  0  0  0  0
  -25.4042  -15.1020   20.4304 N   0  0  0  0  0  0  0  0  0  0  0  0
  -21.7907  -12.5260   21.2693 N   0  0  0  0  0  0  0  0  0  0  0  0
  -30.6817  -12.9124   22.7024 N   0  0  0  0  0  0  0  0  0  0  0  0
  -42.6786  -17.3339   26.8899 N   0  0  0  0  0  0  0  0  0  0  0  0
  -37.8940  -17.9873   22.0793 N   0  0  0  0  0  0  0  0  0  0  0  0
  -36.5385  -15.3524   20.0086 N   0  3  0  0  0  0  0  0  0  0  0  0
  -22.5144  -14.6838   20.9880 O   0  0  0  0  0  0  0  0  0  0  0  0
  -40.5012  -18.1576   26.8367 O   0  0  0  0  0  0  0  0  0  0  0  0
  -40.5288  -18.4940   23.0843 O   0  0  0  0  0  0  0  0  0  0  0  0
  -36.3020  -16.3883   22.6139 O   0  0  0  0  0  0  0  0  0  0  0  0
  -32.2385  -13.2656   21.0192 O   0  0  0  0  0  0  0  0  0  0  0  0
  -21.7177   -6.9661   21.6121 O   0  0  0  0  0  0  0  0  0  0  0  0
  -37.2112  -12.6061   28.2014 O   0  0  0  0  0  0  0  0  0  1  0  0
  -18.1545   -6.8767   25.8192 F   0  0  0  0  0  0  0  0  0  0  0  0
  -21.9873   -5.1290   23.6603 F   0  0  0  0  0  0  0  0  0  0  0  0
  1  2  1  0  0  0  0
  1  6  2  0  0  0  0
  2  7  2  0  0  0  0
  3 10  2  0  0  0  0
  3 18  1  0  0  0  0
  4 11  1  0  0  0  0
  4 18  2  0  0  0  0
  5  9  2  0  0  0  0
  5 19  1  0  0  0  0
  6 21  1  0  0  0  0
  7 23  1  0  0  0  0
  8 12  2  0  0  0  0
  8 22  1  0  0  0  0
  9 26  1  0  0  0  0
 10 27  1  0  0  0  0
 11 27  2  0  0  0  0
 12 28  1  0  0  0  0
 13 14  2  0  0  0  0
 13 29  1  0  0  0  0
 14 30  1  0  0  0  0
 15 19  2  0  0  0  0
 15 25  1  0  0  0  0
 16 24  1  0  0  0  0
 16 28  2  0  0  0  0
 17 30  2  0  0  0  0
 17 31  1  0  0  0  0
 18 32  1  0  0  0  0
 19 34  1  0  0  0  0
 20 32  1  0  0  0  0
 20 33  2  0  0  0  0
 20 36  1  0  0  0  0
 21 23  2  0  0  0  0
 21 41  1  0  0  0  0
 22 24  2  0  0  0  0
 22 42  1  0  0  0  0
 23 50  1  0  0  0  0
 24 43  1  0  0  0  0
 25 26  2  0  0  0  0
 25 53  1  0  0  0  0
 26 70  1  0  0  0  0
 27 79  1  0  0  0  0
 28 80  1  0  0  0  0
 29 31  2  0  0  0  0
 29 79  1  0  0  0  0
 30 81  1  0  0  0  0
 31 82  1  0  0  0  0
 32 64  2  0  0  0  0
 33 65  1  0  0  0  0
 33 68  1  0  0  0  0
 34 35  2  0  0  0  0
 35 59  1  0  0  0  0
 36 69  1  0  0  0  0
 36 74  2  0  0  0  0
 37 51  1  0  0  0  0
 37 71  1  0  0  0  0
 37 75  2  0  0  0  0
 38 61  1  0  0  0  0
 38 66  1  0  0  0  0
 38 76  2  0  0  0  0
 39 62  1  0  0  0  0
 39 72  1  0  0  0  0
 39 77  2  0  0  0  0
 40 67  1  0  0  0  0
 40 70  1  0  0  0  0
 40 78  2  0  0  0  0
 41 44  1  0  0  0  0
 42 51  1  0  0  0  0
 43 66  1  0  0  0  0
 44 46  1  0  0  0  0
 45 47  1  0  0  0  0
 45 48  1  0  0  0  0
 46 50  1  0  0  0  0
 47 52  1  0  0  0  0
 48 67  1  0  0  0  0
 49 52  1  0  0  0  0
 49 67  1  0  0  0  0
 50 71  1  0  0  0  0
 51 66  1  0  0  0  0
 52 65  1  0  0  0  0
 54 62  1  0  0  0  0
 55 63  1  0  0  0  0
 56 63  1  0  0  0  0
 57 63  1  0  0  0  0
 58 73  1  0  0  0  0
 59 60  1  0  0  0  0
 60 80  1  0  0  0  0
 61 63  1  0  0  0  0
 61 72  1  0  0  0  0
 62 73  1  0  0  0  0
 64 65  1  0  0  0  0
M  CHG  1  73   1
M  ISO  4  40 100  60 101  70 100  80 101
M  END
> <Batch ID>
0127

> <Smiles>
CNC(C)C(=O)NC(C(=O)N1Cc2cc([101O:1][101CH2:1]CC=Cc3ccc([100NH:0][100C:0](=O)N4CCCC(n5nc(-c6ccc(Oc7ccc(F)cc7F)cc6)c(C(N)=O)c5N)C4)c(C)c3)ccc2CC1C(=O)NC1CCCc2ccccc21)C(C)(C)C

> <Shape>
0.134

> <Color>
0.182

> <Negative vol penalty>
0.000

$$$$

  -OEChem-04052302143D

 86 94  0     1  0  0  0  0  0999 V2000
  -31.5174  -16.4960   14.7881 C   0  0  0  0  0  0  0  0  0  0  0  0
  -30.6068  -16.3395   15.8281 C   0  0  0  0  0  0  0  0  0  0  0  0
  -23.2994   -9.7872   19.9221 C   0  0  0  0  0  0  0  0  0  0  0  0
  -23.7529   -9.9436   22.2900 C   0  0  0  0  0  0  0  0  0  0  0  0
  -32.6304  -17.3189   14.9556 C   0  0  0  0  0  0  0  0  0  0  0  0
  -30.8092  -17.0050   17.0367 C   0  0  0  0  0  0  0  0  0  0  0  0
  -27.1793  -20.0505   22.4093 C   0  0  0  0  0  0  0  0  0  0  0  0
  -22.5840   -8.6093   20.1368 C   0  0  0  0  0  0  0  0  0  0  0  0
  -23.0374   -8.7656   22.5048 C   0  0  0  0  0  0  0  0  0  0  0  0
  -27.0889  -20.0224   23.8002 C   0  0  0  0  0  0  0  0  0  0  0  0
  -19.5123   -7.7265   21.2405 C   0  0  0  0  0  0  0  0  0  0  0  0
  -18.2833   -7.5877   20.5955 C   0  0  0  0  0  0  0  0  0  0  0  0
  -31.8205  -17.3978   24.6715 C   0  0  0  0  0  0  0  0  0  0  0  0
  -29.0051  -21.4803   23.9482 C   0  0  0  0  0  0  0  0  0  0  0  0
  -32.7867  -15.4339   23.6484 C   0  0  0  0  0  0  0  0  0  0  0  0
  -19.1007   -5.6167   19.4623 C   0  0  0  0  0  0  0  0  0  0  0  0
  -23.8839  -10.4544   20.9987 C   0  0  0  0  0  0  0  0  0  0  0  0
  -30.7320  -16.6386   25.1009 C   0  0  0  0  0  0  0  0  0  0  0  0
  -24.1202  -12.9856   20.7873 C   0  0  0  0  0  0  0  0  0  0  0  0
  -32.8415  -18.0024   16.1634 C   0  0  0  0  0  0  0  0  0  0  0  0
  -28.1916  -20.7862   21.7765 C   0  0  0  0  0  0  0  0  0  0  0  0
  -31.9268  -17.8367   17.2209 C   0  0  0  0  0  0  0  0  0  0  0  0
  -29.1046  -21.5182   22.5490 C   0  0  0  0  0  0  0  0  0  0  0  0
  -32.8479  -16.7955   23.9452 C   0  0  0  0  0  0  0  0  0  0  0  0
  -31.6983  -14.6747   24.0778 C   0  0  0  0  0  0  0  0  0  0  0  0
  -30.6709  -15.2770   24.8041 C   0  0  0  0  0  0  0  0  0  0  0  0
  -22.4530   -8.0984   21.4282 C   0  0  0  0  0  0  0  0  0  0  0  0
  -28.0037  -20.7350   24.5700 C   0  0  0  0  0  0  0  0  0  0  0  0
  -20.5355   -6.8104   20.9964 C   0  0  0  0  0  0  0  0  0  0  0  0
  -18.0775   -6.5328   19.7064 C   0  0  0  0  0  0  0  0  0  0  0  0
  -20.3297   -5.7555   20.1073 C   0  0  0  0  0  0  0  0  0  0  0  0
  -24.6236  -11.6710   20.7774 C   0  0  0  0  0  0  0  0  0  0  0  0
  -25.2142  -13.7741   20.5266 C   0  0  0  0  0  0  0  0  0  0  0  0
  -29.6657  -17.3062   25.8660 C   0  0  0  0  0  0  0  0  0  0  0  0
  -29.8370  -17.9565   27.0277 C   0  0  0  0  0  0  0  0  0  0  0  0
  -22.7833  -13.4523   21.0120 C   0  0  0  0  0  0  0  0  0  0  0  0
  -30.6275  -20.0662   19.8655 C   0  0  0  0  0  0  0  0  0  0  0  0
  -30.9471  -23.2902   19.7040 C   0  0  0  0  0  0  0  0  0  0  0  0
  -30.3854  -26.3330   21.1437 C   0  0  0  0  0  0  0  0  0  0  0  0
  -31.0939  -12.9880   21.3403 C   0  0  0  0  0  0  0  0  0  0  0  0
  -34.0842  -18.8436   16.3139 C   0  0  0  0  0  0  0  0  0  0  0  0
  -28.2592  -20.8278   20.2745 C   0  0  0  0  0  0  0  0  0  0  0  0
  -30.1977  -22.3399   21.9178 C   0  0  0  0  0  0  0  0  0  0  0  0
  -34.0273  -19.8083   17.4956 C   0  0  0  0  0  0  0  0  0  0  0  0
  -29.4333  -13.6975   18.2718 C   0  0  0  0  0  0  0  0  0  0  0  0
  -33.5221  -19.0932   18.7447 C   0  0  0  0  0  0  0  0  0  0  0  0
  -27.9669  -13.3772   18.5669 C   0  0  0  0  0  0  0  0  0  0  0  0
  -30.3765  -12.7300   18.9833 C   0  0  0  0  0  0  0  0  0  0  0  0
  -28.6967  -12.2941   20.7332 C   0  0  0  0  0  0  0  0  0  0  0  0
  -32.0988  -18.5613   18.5383 C   0  0  1  0  0  0  0  0  0  0  0  0
  -29.6433  -21.1956   19.7486 C   0  0  1  0  0  0  0  0  0  0  0  0
  -27.7088  -13.2772   20.0823 C   0  0  2  0  0  0  0  0  0  0  0  0
  -34.0115  -17.6071   23.4850 C   0  0  0  0  0  0  0  0  0  0  0  0
  -29.5918  -14.1072   26.7415 C   0  0  0  0  0  0  0  0  0  0  0  0
  -30.7962  -28.7838   20.7939 C   0  0  0  0  0  0  0  0  0  0  0  0
  -33.8603  -22.9175   20.5312 C   0  0  0  0  0  0  0  0  0  0  0  0
  -33.9435  -25.3584   21.0821 C   0  0  0  0  0  0  0  0  0  0  0  0
  -33.4945  -24.6246   18.7406 C   0  0  0  0  0  0  0  0  0  0  0  0
  -27.4870  -26.9282   21.0803 C   0  0  0  0  0  0  0  0  0  0  0  0
  -29.5070  -14.4519   25.2592 C   0  0  0  0  0  0  0  0  0  0  0  0
  -31.6578  -13.2187   23.7461 C   0  0  0  0  0  0  0  0  0  0  0  0
  -28.7175  -18.6279   27.7717 C   0  0  0  0  0  0  0  0  0  0  0  0
  -29.0053  -20.1132   27.9827 C   0  0  0  0  0  0  0  0  0  0  0  0
  -29.1356  -20.8526   26.6583 C   0  0  0  0  0  0  0  0  0  1  0  0
  -31.7000  -24.3310   20.4971 C   0  0  1  0  0  0  0  0  0  0  0  0
  -29.8314  -27.6282   20.5780 C   0  0  2  0  0  0  0  0  0  0  0  0
  -33.2302  -24.2909   20.2250 C   0  0  0  0  0  0  0  0  0  0  0  0
  -25.9352  -11.6229   20.5300 N   0  0  0  0  0  0  0  0  0  0  0  0
  -26.2653  -12.9172   20.3818 N   0  0  0  0  0  0  0  0  0  0  0  0
  -30.2261  -22.3438   20.4458 N   0  0  0  0  0  0  0  0  0  0  0  0
  -30.0801  -12.6830   20.4171 N   0  0  0  0  0  0  0  0  0  0  0  0
  -25.3699  -15.1099   20.4093 N   0  0  0  0  0  0  0  0  0  0  0  0
  -21.7796  -12.5075   21.2658 N   0  0  0  0  0  0  0  0  0  0  0  0
  -31.1360  -19.6356   18.6550 N   0  0  0  0  0  0  0  0  0  0  0  0
  -31.0718  -25.6114   20.1901 N   0  0  0  0  0  0  0  0  0  0  0  0
  -30.7270  -12.9258   22.6790 N   0  0  0  0  0  0  0  0  0  0  0  0
  -28.5369  -27.9680   21.2335 N   0  3  0  0  0  0  0  0  0  0  0  0
  -22.4843  -14.6699   20.9722 O   0  0  0  0  0  0  0  0  0  0  0  0
  -30.9061  -19.6197   20.9722 O   0  0  0  0  0  0  0  0  0  0  0  0
  -30.9910  -23.3204   18.4716 O   0  0  0  0  0  0  0  0  0  0  0  0
  -30.2283  -25.9970   22.3154 O   0  0  0  0  0  0  0  0  0  0  0  0
  -32.2395  -13.2985   20.9967 O   0  0  0  0  0  0  0  0  0  0  0  0
  -21.7547   -6.9491   21.6381 O   0  0  0  0  0  0  0  0  0  0  0  0
  -27.9181  -20.7088   25.9279 O   0  0  0  0  0  0  0  0  0  1  0  0
  -16.8968   -6.3988   19.0882 F   0  0  0  0  0  0  0  0  0  0  0  0
  -21.3085   -4.8716   19.8697 F   0  0  0  0  0  0  0  0  0  0  0  0
  1  2  1  0  0  0  0
  1  5  2  0  0  0  0
  2  6  2  0  0  0  0
  3  8  2  0  0  0  0
  3 17  1  0  0  0  0
  4  9  1  0  0  0  0
  4 17  2  0  0  0  0
  5 20  1  0  0  0  0
  6 22  1  0  0  0  0
  7 10  2  0  0  0  0
  7 21  1  0  0  0  0
  8 27  1  0  0  0  0
  9 27  2  0  0  0  0
 10 28  1  0  0  0  0
 11 12  2  0  0  0  0
 11 29  1  0  0  0  0
 12 30  1  0  0  0  0
 13 18  2  0  0  0  0
 13 24  1  0  0  0  0
 14 23  1  0  0  0  0
 14 28  2  0  0  0  0
 15 24  2  0  0  0  0
 15 25  1  0  0  0  0
 16 30  2  0  0  0  0
 16 31  1  0  0  0  0
 17 32  1  0  0  0  0
 18 26  1  0  0  0  0
 18 34  1  0  0  0  0
 19 32  1  0  0  0  0
 19 33  2  0  0  0  0
 19 36  1  0  0  0  0
 20 22  2  0  0  0  0
 20 41  1  0  0  0  0
 21 23  2  0  0  0  0
 21 42  1  0  0  0  0
 22 50  1  0  0  0  0
 23 43  1  0  0  0  0
 24 53  1  0  0  0  0
 25 26  2  0  0  0  0
 25 61  1  0  0  0  0
 26 60  1  0  0  0  0
 27 83  1  0  0  0  0
 28 84  1  0  0  0  0
 29 31  2  0  0  0  0
 29 83  1  0  0  0  0
 30 85  1  0  0  0  0
 31 86  1  0  0  0  0
 32 68  2  0  0  0  0
 33 69  1  0  0  0  0
 33 72  1  0  0  0  0
 34 35  2  0  0  0  0
 35 62  1  0  0  0  0
 36 73  1  0  0  0  0
 36 78  2  0  0  0  0
 37 51  1  0  0  0  0
 37 74  1  0  0  0  0
 37 79  2  0  0  0  0
 38 65  1  0  0  0  0
 38 70  1  0  0  0  0
 38 80  2  0  0  0  0
 39 66  1  0  0  0  0
 39 75  1  0  0  0  0
 39 81  2  0  0  0  0
 40 71  1  0  0  0  0
 40 76  1  0  0  0  0
 40 82  2  0  0  0  0
 41 44  1  0  0  0  0
 42 51  1  0  0  0  0
 43 70  1  0  0  0  0
 44 46  1  0  0  0  0
 45 47  1  0  0  0  0
 45 48  1  0  0  0  0
 46 50  1  0  0  0  0
 47 52  1  0  0  0  0
 48 71  1  0  0  0  0
 49 52  1  0  0  0  0
 49 71  1  0  0  0  0
 50 74  1  0  0  0  0
 51 70  1  0  0  0  0
 52 69  1  0  0  0  0
 54 60  1  0  0  0  0
 55 66  1  0  0  0  0
 56 67  1  0  0  0  0
 57 67  1  0  0  0  0
 58 67  1  0  0  0  0
 59 77  1  0  0  0  0
 61 76  1  0  0  0  0
 62 63  1  0  0  0  0
 63 64  1  0  0  0  0
 64 84  1  0  0  0  0
 65 67  1  0  0  0  0
 65 75  1  0  0  0  0
 66 77  1  0  0  0  0
 68 69  1  0  0  0  0
M  CHG  1  77   1
M  ISO  4  40 100  64 101  76 100  84 101
M  END
> <Batch ID>
0127

> <Smiles>
CCc1c(C=CCC[101CH2:1][101O:1]c2ccc3c(c2)CN(C(=O)C(NC(=O)C(C)NC)C(C)(C)C)C(C(=O)NC2CCCc4ccccc42)C3)cc(C)cc1C[100NH:0][100C:0](=O)N1CCCC(n2nc(-c3ccc(Oc4ccc(F)cc4F)cc3)c(C(N)=O)c2N)C1

> <Shape>
0.198

> <Color>
0.179

> <Negative vol penalty>
0.000

$$$$

  -OEChem-04052302143D

 85 94  0     1  0  0  0  0  0999 V2000
  -23.0949  -23.7767   19.6791 C   0  0  0  0  0  0  0  0  0  0  0  0
  -24.2357  -23.0321   19.9611 C   0  0  0  0  0  0  0  0  0  0  0  0
  -25.4465  -31.5378   21.1045 C   0  0  0  0  0  0  0  0  0  0  0  0
  -24.7411  -29.9798   22.8110 C   0  0  0  0  0  0  0  0  0  0  0  0
  -30.2431  -19.8095   24.9253 C   0  0  0  0  0  0  0  0  0  0  0  0
  -21.8409  -23.2989   20.0572 C   0  0  0  0  0  0  0  0  0  0  0  0
  -24.1232  -21.8096   20.6224 C   0  0  0  0  0  0  0  0  0  0  0  0
  -31.0996  -18.7316   25.1437 C   0  0  0  0  0  0  0  0  0  0  0  0
  -26.9772  -18.1934   18.5195 C   0  0  0  0  0  0  0  0  0  0  0  0
  -25.0963  -32.6039   21.9330 C   0  0  0  0  0  0  0  0  0  0  0  0
  -24.3909  -31.0459   23.6395 C   0  0  0  0  0  0  0  0  0  0  0  0
  -28.3419  -18.2134   18.8039 C   0  0  0  0  0  0  0  0  0  0  0  0
  -26.4092  -34.2276   24.5925 C   0  0  0  0  0  0  0  0  0  0  0  0
  -27.3084  -35.2886   24.6986 C   0  0  0  0  0  0  0  0  0  0  0  0
  -30.8581  -19.8105   22.5964 C   0  0  0  0  0  0  0  0  0  0  0  0
  -28.0175  -16.4826   20.4527 C   0  0  0  0  0  0  0  0  0  0  0  0
  -25.6263  -36.7992   23.8468 C   0  0  0  0  0  0  0  0  0  0  0  0
  -25.2689  -30.2258   21.5435 C   0  0  0  0  0  0  0  0  0  0  0  0
  -30.1221  -20.3493   23.6508 C   0  0  0  0  0  0  0  0  0  0  0  0
  -25.1098  -28.8321   19.4128 C   0  0  0  0  0  0  0  0  0  0  0  0
  -21.7120  -22.0654   20.7148 C   0  0  0  0  0  0  0  0  0  0  0  0
  -31.8459  -18.1757   24.0898 C   0  0  0  0  0  0  0  0  0  0  0  0
  -26.1192  -17.3240   19.2084 C   0  0  0  0  0  0  0  0  0  0  0  0
  -22.8663  -21.3155   21.0108 C   0  0  0  0  0  0  0  0  0  0  0  0
  -31.7239  -18.7211   22.7998 C   0  0  0  0  0  0  0  0  0  0  0  0
  -26.6427  -16.4517   20.1733 C   0  0  0  0  0  0  0  0  0  0  0  0
  -24.5685  -32.3580   23.2005 C   0  0  0  0  0  0  0  0  0  0  0  0
  -28.8618  -17.3600   19.7726 C   0  0  0  0  0  0  0  0  0  0  0  0
  -25.1186  -34.4523   24.1134 C   0  0  0  0  0  0  0  0  0  0  0  0
  -26.9169  -36.5745   24.3258 C   0  0  0  0  0  0  0  0  0  0  0  0
  -24.7271  -35.7381   23.7406 C   0  0  0  0  0  0  0  0  0  0  0  0
  -25.6299  -29.1241   20.6879 C   0  0  0  0  0  0  0  0  0  0  0  0
  -25.7734  -27.6943   19.0236 C   0  0  0  0  0  0  0  0  0  0  0  0
  -29.2289  -21.4734   23.4171 C   0  0  0  0  0  0  0  0  0  0  0  0
  -29.2924  -22.3188   22.3665 C   0  0  0  0  0  0  0  0  0  0  0  0
  -24.1157  -29.5273   18.6484 C   0  0  0  0  0  0  0  0  0  0  0  0
  -28.3033  -23.4106   22.2643 C   0  0  0  0  0  0  0  0  0  0  0  0
  -23.6182  -17.6999   21.1338 C   0  0  0  0  0  0  0  0  0  0  0  0
  -23.4587  -14.4673   20.9167 C   0  0  0  0  0  0  0  0  0  0  0  0
  -25.0707  -11.5214   20.3084 C   0  0  0  0  0  0  0  0  0  0  0  0
  -20.3396  -21.6125   21.1460 C   0  0  0  0  0  0  0  0  0  0  0  0
  -32.7602  -17.0125   24.3747 C   0  0  0  0  0  0  0  0  0  0  0  0
  -24.6537  -17.2957   18.8710 C   0  0  0  0  0  0  0  0  0  0  0  0
  -32.5046  -18.1787   21.6255 C   0  0  0  0  0  0  0  0  0  0  0  0
  -25.7672  -15.4851   20.9268 C   0  0  0  0  0  0  0  0  0  0  0  0
  -20.2733  -20.1314   21.5097 C   0  0  0  0  0  0  0  0  0  0  0  0
  -32.3465  -15.7383   23.6421 C   0  0  0  0  0  0  0  0  0  0  0  0
  -29.8966  -25.3674   19.6065 C   0  0  0  0  0  0  0  0  0  0  0  0
  -21.4416  -19.7509   22.4137 C   0  0  0  0  0  0  0  0  0  0  0  0
  -28.9447  -26.5564   19.5063 C   0  0  0  0  0  0  0  0  0  0  0  0
  -32.8044  -15.6860   22.1834 C   0  0  0  0  0  0  0  0  0  0  0  0
  -30.0180  -24.8514   21.0395 C   0  0  0  0  0  0  0  0  0  0  0  0
  -27.7538  -25.7093   21.5664 C   0  0  0  0  0  0  0  0  0  0  0  0
  -22.7830  -19.9731   21.7045 C   0  0  1  0  0  0  0  0  0  0  0  0
  -23.7921  -16.7328   19.9971 C   0  0  1  0  0  0  0  0  0  0  0  0
  -27.5803  -26.2150   20.1258 C   0  0  1  0  0  0  0  0  0  0  0  0
  -32.1873  -16.7188   21.2081 C   0  0  2  0  0  0  0  0  0  0  0  0
  -32.8399  -16.4808   19.8242 C   0  0  0  0  0  0  0  0  0  0  0  0
  -24.6863   -9.0424   20.2436 C   0  0  0  0  0  0  0  0  0  0  0  0
  -23.4821  -14.3864   23.9668 C   0  0  0  0  0  0  0  0  0  0  0  0
  -24.0523  -11.9525   23.8285 C   0  0  0  0  0  0  0  0  0  0  0  0
  -21.8935  -12.7811   22.8928 C   0  0  0  0  0  0  0  0  0  0  0  0
  -25.7856  -11.3684   17.4406 C   0  0  0  0  0  0  0  0  0  0  0  0
  -30.6719  -16.4902   21.0465 C   0  0  0  0  0  0  0  0  0  1  0  0
  -24.0518  -13.3134   21.6886 C   0  0  1  0  0  0  0  0  0  0  0  0
  -24.7027  -10.3327   19.4389 C   0  0  2  0  0  0  0  0  0  0  0  0
  -23.3864  -13.1278   23.0815 C   0  0  0  0  0  0  0  0  0  0  0  0
  -26.5527  -28.2427   21.0826 N   0  0  0  0  0  0  0  0  0  0  0  0
  -26.6175  -27.3857   20.0494 N   0  0  0  0  0  0  0  0  0  0  0  0
  -28.6974  -24.5876   21.6303 N   0  0  0  0  0  0  0  0  0  0  0  0
  -24.3401  -15.4996   20.5656 N   0  0  0  0  0  0  0  0  0  0  0  0
  -25.7113  -26.9375   17.9074 N   0  0  0  0  0  0  0  0  0  0  0  0
  -22.7724  -29.1612   18.8092 N   0  0  0  0  0  0  0  0  0  0  0  0
  -23.0427  -18.9015   20.7672 N   0  0  0  0  0  0  0  0  0  0  0  0
  -23.9526  -12.1464   20.8187 N   0  0  0  0  0  0  0  0  0  0  0  0
  -25.6835  -10.1808   18.3272 N   0  3  0  0  0  0  0  0  0  0  0  0
  -24.4115  -30.4347   17.8344 O   0  0  0  0  0  0  0  0  0  0  0  0
  -27.1884  -23.2153   22.7516 O   0  0  0  0  0  0  0  0  0  0  0  0
  -23.9780  -17.3791   22.2604 O   0  0  0  0  0  0  0  0  0  0  0  0
  -22.2592  -14.4498   20.6295 O   0  0  0  0  0  0  0  0  0  0  0  0
  -26.2338  -11.8592   20.5173 O   0  0  0  0  0  0  0  0  0  0  0  0
  -24.2268  -33.3980   24.0093 O   0  0  0  0  0  0  0  0  0  0  0  0
  -30.2086  -17.3782   20.0559 O   0  0  0  0  0  0  0  0  0  1  0  0
  -27.7800  -37.5936   24.4293 F   0  0  0  0  0  0  0  0  0  0  0  0
  -23.4882  -35.9604   23.2807 F   0  0  0  0  0  0  0  0  0  0  0  0
  1  2  1  0  0  0  0
  1  6  2  0  0  0  0
  2  7  2  0  0  0  0
  3 10  2  0  0  0  0
  3 18  1  0  0  0  0
  4 11  1  0  0  0  0
  4 18  2  0  0  0  0
  5  8  2  0  0  0  0
  5 19  1  0  0  0  0
  6 21  1  0  0  0  0
  7 24  1  0  0  0  0
  8 22  1  0  0  0  0
  9 12  2  0  0  0  0
  9 23  1  0  0  0  0
 10 27  1  0  0  0  0
 11 27  2  0  0  0  0
 12 28  1  0  0  0  0
 13 14  2  0  0  0  0
 13 29  1  0  0  0  0
 14 30  1  0  0  0  0
 15 19  2  0  0  0  0
 15 25  1  0  0  0  0
 16 26  1  0  0  0  0
 16 28  2  0  0  0  0
 17 30  2  0  0  0  0
 17 31  1  0  0  0  0
 18 32  1  0  0  0  0
 19 34  1  0  0  0  0
 20 32  1  0  0  0  0
 20 33  2  0  0  0  0
 20 36  1  0  0  0  0
 21 24  2  0  0  0  0
 21 41  1  0  0  0  0
 22 25  2  0  0  0  0
 22 42  1  0  0  0  0
 23 26  2  0  0  0  0
 23 43  1  0  0  0  0
 24 54  1  0  0  0  0
 25 44  1  0  0  0  0
 26 45  1  0  0  0  0
 27 82  1  0  0  0  0
 28 83  1  0  0  0  0
 29 31  2  0  0  0  0
 29 82  1  0  0  0  0
 30 84  1  0  0  0  0
 31 85  1  0  0  0  0
 32 68  2  0  0  0  0
 33 69  1  0  0  0  0
 33 72  1  0  0  0  0
 34 35  2  0  0  0  0
 35 37  1  0  0  0  0
 36 73  1  0  0  0  0
 36 77  2  0  0  0  0
 37 70  1  0  0  0  0
 37 78  2  0  0  0  0
 38 55  1  0  0  0  0
 38 74  1  0  0  0  0
 38 79  2  0  0  0  0
 39 65  1  0  0  0  0
 39 71  1  0  0  0  0
 39 80  2  0  0  0  0
 40 66  1  0  0  0  0
 40 75  1  0  0  0  0
 40 81  2  0  0  0  0
 41 46  1  0  0  0  0
 42 47  1  0  0  0  0
 43 55  1  0  0  0  0
 44 57  1  0  0  0  0
 45 71  1  0  0  0  0
 46 49  1  0  0  0  0
 47 51  1  0  0  0  0
 48 50  1  0  0  0  0
 48 52  1  0  0  0  0
 49 54  1  0  0  0  0
 50 56  1  0  0  0  0
 51 57  1  0  0  0  0
 52 70  1  0  0  0  0
 53 56  1  0  0  0  0
 53 70  1  0  0  0  0
 54 74  1  0  0  0  0
 55 71  1  0  0  0  0
 56 69  1  0  0  0  0
 57 58  1  0  0  0  0
 57 64  1  0  0  0  0
 59 66  1  0  0  0  0
 60 67  1  0  0  0  0
 61 67  1  0  0  0  0
 62 67  1  0  0  0  0
 63 76  1  0  0  0  0
 64 83  1  0  0  0  0
 65 67  1  0  0  0  0
 65 75  1  0  0  0  0
 66 76  1  0  0  0  0
 68 69  1  0  0  0  0
M  CHG  1  76   1
M  ISO  4  35 100  37 100  64 101  83 101
M  END
> <Batch ID>
0127

> <Smiles>
CNC(C)C(=O)NC(C(=O)N1Cc2cc([101O:1][101CH2:1]C3(C)CCCc4ccc(C=[100CH:0][100C:0](=O)N5CCCC(n6nc(-c7ccc(Oc8ccc(F)cc8F)cc7)c(C(N)=O)c6N)C5)cc4C3)ccc2CC1C(=O)NC1CCCc2ccccc21)C(C)(C)C

> <Shape>
0.231

> <Color>
0.077

> <Negative vol penalty>
0.000

$$$$

  -OEChem-04052302143D

 84 92  0     1  0  0  0  0  0999 V2000
  -28.7438  -39.8500   22.8179 C   0  0  0  0  0  0  0  0  0  0  0  0
  -29.2657  -38.6587   22.3240 C   0  0  0  0  0  0  0  0  0  0  0  0
  -24.4006   -9.2642   22.1638 C   0  0  0  0  0  0  0  0  0  0  0  0
  -24.2507   -8.7493   19.8080 C   0  0  0  0  0  0  0  0  0  0  0  0
  -28.3768  -22.2820   21.0795 C   0  0  0  0  0  0  0  0  0  0  0  0
  -28.0221  -20.9598   21.3468 C   0  0  0  0  0  0  0  0  0  0  0  0
  -27.8928  -39.8321   23.9222 C   0  0  0  0  0  0  0  0  0  0  0  0
  -28.9377  -37.4488   22.9348 C   0  0  0  0  0  0  0  0  0  0  0  0
  -28.1788  -32.0264   20.1914 C   0  0  0  0  0  0  0  0  0  0  0  0
  -23.2404   -8.5265   22.3988 C   0  0  0  0  0  0  0  0  0  0  0  0
  -23.0904   -8.0117   20.0431 C   0  0  0  0  0  0  0  0  0  0  0  0
  -29.0226  -30.9274   20.0361 C   0  0  0  0  0  0  0  0  0  0  0  0
  -22.3772   -5.2717   22.7056 C   0  0  0  0  0  0  0  0  0  0  0  0
  -22.3746   -4.3960   23.7912 C   0  0  0  0  0  0  0  0  0  0  0  0
  -30.3908  -21.5204   19.9837 C   0  0  0  0  0  0  0  0  0  0  0  0
  -28.0139  -29.8880   21.9652 C   0  0  0  0  0  0  0  0  0  0  0  0
  -20.5172   -5.6008   24.7586 C   0  0  0  0  0  0  0  0  0  0  0  0
  -24.9058   -9.3756   20.8683 C   0  0  0  0  0  0  0  0  0  0  0  0
  -29.5611  -22.5624   20.3979 C   0  0  0  0  0  0  0  0  0  0  0  0
  -28.8518  -19.9178   20.9325 C   0  0  0  0  0  0  0  0  0  0  0  0
  -27.4302   -9.6661   20.6433 C   0  0  0  0  0  0  0  0  0  0  0  0
  -27.5465  -38.6205   24.5409 C   0  0  0  0  0  0  0  0  0  0  0  0
  -27.2521  -32.0693   21.2430 C   0  0  0  0  0  0  0  0  0  0  0  0
  -28.0823  -37.4148   24.0492 C   0  0  0  0  0  0  0  0  0  0  0  0
  -27.1577  -30.9875   22.1301 C   0  0  0  0  0  0  0  0  0  0  0  0
  -30.0361  -20.1981   20.2509 C   0  0  0  0  0  0  0  0  0  0  0  0
  -22.5853   -7.9003   21.3385 C   0  0  0  0  0  0  0  0  0  0  0  0
  -28.9422  -29.8593   20.9248 C   0  0  0  0  0  0  0  0  0  0  0  0
  -21.4498   -6.3121   22.6465 C   0  0  0  0  0  0  0  0  0  0  0  0
  -21.4446   -4.5605   24.8177 C   0  0  0  0  0  0  0  0  0  0  0  0
  -20.5198   -6.4765   23.6730 C   0  0  0  0  0  0  0  0  0  0  0  0
  -26.1040  -10.1379   20.6248 C   0  0  0  0  0  0  0  0  0  0  0  0
  -28.1919  -10.7713   20.3524 C   0  0  0  0  0  0  0  0  0  0  0  0
  -29.9354  -23.9596   20.1168 C   0  0  0  0  0  0  0  0  0  0  0  0
  -28.4537  -18.5474   21.2262 C   0  0  0  0  0  0  0  0  0  0  0  0
  -29.4497  -25.0240   20.7707 C   0  0  0  0  0  0  0  0  0  0  0  0
  -27.3288  -17.9493   20.7840 C   0  0  0  0  0  0  0  0  0  0  0  0
  -27.9289   -8.3467   20.9003 C   0  0  0  0  0  0  0  0  0  0  0  0
  -29.8869  -26.4018   20.4017 C   0  0  0  0  0  0  0  0  0  0  0  0
  -27.0698  -16.5453   21.1615 C   0  0  0  0  0  0  0  0  0  0  0  0
  -26.7947  -33.9641   23.7537 C   0  0  0  0  0  0  0  0  0  0  0  0
  -24.1187  -32.1694   24.1291 C   0  0  0  0  0  0  0  0  0  0  0  0
  -22.5030  -29.2203   23.5472 C   0  0  0  0  0  0  0  0  0  0  0  0
  -26.6607  -38.6556   25.7610 C   0  0  0  0  0  0  0  0  0  0  0  0
  -26.3306  -33.2501   21.3808 C   0  0  0  0  0  0  0  0  0  0  0  0
  -26.1659  -30.9757   23.2636 C   0  0  0  0  0  0  0  0  0  0  0  0
  -26.0643  -37.2971   26.1201 C   0  0  0  0  0  0  0  0  0  0  0  0
  -28.0382  -14.9286   18.0182 C   0  0  0  0  0  0  0  0  0  0  0  0
  -27.1381  -36.2146   26.0774 C   0  0  0  0  0  0  0  0  0  0  0  0
  -27.7222  -13.4682   18.3296 C   0  0  0  0  0  0  0  0  0  0  0  0
  -27.0566  -15.8832   18.6963 C   0  0  0  0  0  0  0  0  0  0  0  0
  -26.6316  -14.2177   20.4812 C   0  0  0  0  0  0  0  0  0  0  0  0
  -27.7303  -36.0800   24.6693 C   0  0  1  0  0  0  0  0  0  0  0  0
  -25.7780  -33.4151   22.7932 C   0  0  1  0  0  0  0  0  0  0  0  0
  -27.6351  -13.2417   19.8473 C   0  0  1  0  0  0  0  0  0  0  0  0
  -30.9498  -19.1070   19.7929 C   0  0  0  0  0  0  0  0  0  0  0  0
  -20.3408  -28.0339   24.0108 C   0  0  0  0  0  0  0  0  0  0  0  0
  -25.0247  -31.6433   26.9948 C   0  0  0  0  0  0  0  0  0  0  0  0
  -23.3916  -29.7480   27.0892 C   0  0  0  0  0  0  0  0  0  0  0  0
  -22.5754  -32.0790   26.7384 C   0  0  0  0  0  0  0  0  0  0  0  0
  -21.8716  -28.9999   20.6642 C   0  0  0  0  0  0  0  0  0  0  0  0
  -29.2683  -27.5212   21.2122 C   0  0  0  0  0  0  0  0  0  1  0  0
  -23.7819  -30.8922   24.8600 C   0  0  1  0  0  0  0  0  0  0  0  0
  -21.1039  -28.9213   23.0398 C   0  0  2  0  0  0  0  0  0  0  0  0
  -23.7135  -31.0914   26.4005 C   0  0  0  0  0  0  0  0  0  0  0  0
  -26.0243  -11.4414   20.3445 N   0  0  0  0  0  0  0  0  0  0  0  0
  -27.3101  -11.7981   20.1842 N   0  0  0  0  0  0  0  0  0  0  0  0
  -26.9468  -15.6086   20.1369 N   0  0  0  0  0  0  0  0  0  0  0  0
  -25.2912  -32.1559   23.3603 N   0  0  0  0  0  0  0  0  0  0  0  0
  -29.5234  -10.9554   20.2267 N   0  0  0  0  0  0  0  0  0  0  0  0
  -27.0088   -7.3278   21.1823 N   0  0  0  0  0  0  0  0  0  0  0  0
  -26.8278  -35.3444   23.8097 N   0  0  0  0  0  0  0  0  0  0  0  0
  -22.5451  -30.3961   24.2662 N   0  0  0  0  0  0  0  0  0  0  0  0
  -21.1679  -28.2292   21.7215 N   0  3  0  0  0  0  0  0  0  0  0  0
  -29.1552   -8.0827   20.8967 O   0  0  0  0  0  0  0  0  0  0  0  0
  -30.6948  -26.6105   19.5007 O   0  0  0  0  0  0  0  0  0  0  0  0
  -26.9733  -16.2881   22.3629 O   0  0  0  0  0  0  0  0  0  0  0  0
  -27.4960  -33.1926   24.3976 O   0  0  0  0  0  0  0  0  0  0  0  0
  -23.3655  -33.1410   24.2306 O   0  0  0  0  0  0  0  0  0  0  0  0
  -23.4618  -28.4825   23.3309 O   0  0  0  0  0  0  0  0  0  0  0  0
  -21.4532   -7.1802   21.5676 O   0  0  0  0  0  0  0  0  0  0  0  0
  -29.7651  -28.7858   20.7760 O   0  0  0  0  0  0  0  0  0  1  0  0
  -21.4412   -3.7185   25.8595 F   0  0  0  0  0  0  0  0  0  0  0  0
  -19.6257   -7.4734   23.6211 F   0  0  0  0  0  0  0  0  0  0  0  0
  1  2  1  0  0  0  0
  1  7  2  0  0  0  0
  2  8  2  0  0  0  0
  3 10  2  0  0  0  0
  3 18  1  0  0  0  0
  4 11  1  0  0  0  0
  4 18  2  0  0  0  0
  5  6  2  0  0  0  0
  5 19  1  0  0  0  0
  6 20  1  0  0  0  0
  7 22  1  0  0  0  0
  8 24  1  0  0  0  0
  9 12  2  0  0  0  0
  9 23  1  0  0  0  0
 10 27  1  0  0  0  0
 11 27  2  0  0  0  0
 12 28  1  0  0  0  0
 13 14  2  0  0  0  0
 13 29  1  0  0  0  0
 14 30  1  0  0  0  0
 15 19  2  0  0  0  0
 15 26  1  0  0  0  0
 16 25  1  0  0  0  0
 16 28  2  0  0  0  0
 17 30  2  0  0  0  0
 17 31  1  0  0  0  0
 18 32  1  0  0  0  0
 19 34  1  0  0  0  0
 20 26  2  0  0  0  0
 20 35  1  0  0  0  0
 21 32  1  0  0  0  0
 21 33  2  0  0  0  0
 21 38  1  0  0  0  0
 22 24  2  0  0  0  0
 22 44  1  0  0  0  0
 23 25  2  0  0  0  0
 23 45  1  0  0  0  0
 24 53  1  0  0  0  0
 25 46  1  0  0  0  0
 26 56  1  0  0  0  0
 27 81  1  0  0  0  0
 28 82  1  0  0  0  0
 29 31  2  0  0  0  0
 29 81  1  0  0  0  0
 30 83  1  0  0  0  0
 31 84  1  0  0  0  0
 32 66  2  0  0  0  0
 33 67  1  0  0  0  0
 33 70  1  0  0  0  0
 34 36  2  0  0  0  0
 35 37  2  0  0  0  0
 36 39  1  0  0  0  0
 37 40  1  0  0  0  0
 38 71  1  0  0  0  0
 38 75  2  0  0  0  0
 39 62  1  0  0  0  0
 39 76  2  0  0  0  0
 40 68  1  0  0  0  0
 40 77  2  0  0  0  0
 41 54  1  0  0  0  0
 41 72  1  0  0  0  0
 41 78  2  0  0  0  0
 42 63  1  0  0  0  0
 42 69  1  0  0  0  0
 42 79  2  0  0  0  0
 43 64  1  0  0  0  0
 43 73  1  0  0  0  0
 43 80  2  0  0  0  0
 44 47  1  0  0  0  0
 45 54  1  0  0  0  0
 46 69  1  0  0  0  0
 47 49  1  0  0  0  0
 48 50  1  0  0  0  0
 48 51  1  0  0  0  0
 49 53  1  0  0  0  0
 50 55  1  0  0  0  0
 51 68  1  0  0  0  0
 52 55  1  0  0  0  0
 52 68  1  0  0  0  0
 53 72  1  0  0  0  0
 54 69  1  0  0  0  0
 55 67  1  0  0  0  0
 57 64  1  0  0  0  0
 58 65  1  0  0  0  0
 59 65  1  0  0  0  0
 60 65  1  0  0  0  0
 61 74  1  0  0  0  0
 62 82  1  0  0  0  0
 63 65  1  0  0  0  0
 63 73  1  0  0  0  0
 64 74  1  0  0  0  0
 66 67  1  0  0  0  0
M  CHG  1  74   1
M  ISO  4  37 100  40 100  62 101  82 101
M  END
> <Batch ID>
0127

> <Smiles>
CNC(C)C(=O)NC(C(=O)N1Cc2cc([101O:1][101CH2:1]C(=O)C=Cc3ccc(C=[100CH:0][100C:0](=O)N4CCCC(n5nc(-c6ccc(Oc7ccc(F)cc7F)cc6)c(C(N)=O)c5N)C4)c(C)c3)ccc2CC1C(=O)NC1CCCc2ccccc21)C(C)(C)C

> <Shape>
0.315

> <Color>
0.097

> <Negative vol penalty>
0.000

$$$$

  -OEChem-04052302143D

 85 93  0     1  0  0  0  0  0999 V2000
  -29.7970  -34.7986   19.8233 C   0  0  0  0  0  0  0  0  0  0  0  0
  -28.7304  -33.9553   19.5293 C   0  0  0  0  0  0  0  0  0  0  0  0
  -27.6546  -13.1979   18.6907 C   0  0  0  0  0  0  0  0  0  0  0  0
  -28.0858  -13.3351   21.0640 C   0  0  0  0  0  0  0  0  0  0  0  0
  -17.2426  -21.5179   18.5577 C   0  0  0  0  0  0  0  0  0  0  0  0
  -31.1001  -34.4028   19.5245 C   0  0  0  0  0  0  0  0  0  0  0  0
  -28.9661  -32.7159   18.9353 C   0  0  0  0  0  0  0  0  0  0  0  0
  -26.2974  -28.9900   21.0895 C   0  0  0  0  0  0  0  0  0  0  0  0
  -16.5638  -22.7360   18.5891 C   0  0  0  0  0  0  0  0  0  0  0  0
  -28.9436  -12.7064   18.4849 C   0  0  0  0  0  0  0  0  0  0  0  0
  -29.3749  -12.8437   20.8582 C   0  0  0  0  0  0  0  0  0  0  0  0
  -24.9500  -28.8907   20.7452 C   0  0  0  0  0  0  0  0  0  0  0  0
  -32.9012  -11.9652   20.9174 C   0  0  0  0  0  0  0  0  0  0  0  0
  -33.9509  -12.6009   21.5803 C   0  0  0  0  0  0  0  0  0  0  0  0
  -19.3036  -22.6521   19.1079 C   0  0  0  0  0  0  0  0  0  0  0  0
  -25.4819  -27.1158   19.2004 C   0  0  0  0  0  0  0  0  0  0  0  0
  -33.4062  -14.6702   20.4585 C   0  0  0  0  0  0  0  0  0  0  0  0
  -27.2256  -13.5123   19.9803 C   0  0  0  0  0  0  0  0  0  0  0  0
  -18.6125  -21.4759   18.8171 C   0  0  0  0  0  0  0  0  0  0  0  0
  -24.7295  -13.2723   20.4486 C   0  0  0  0  0  0  0  0  0  0  0  0
  -31.3527  -33.1539   18.9354 C   0  0  0  0  0  0  0  0  0  0  0  0
  -27.2502  -28.1591   20.4828 C   0  0  0  0  0  0  0  0  0  0  0  0
  -30.2737  -32.3036   18.6272 C   0  0  0  0  0  0  0  0  0  0  0  0
  -26.8403  -27.2049   19.5406 C   0  0  0  0  0  0  0  0  0  0  0  0
  -17.2549  -23.9122   18.8799 C   0  0  0  0  0  0  0  0  0  0  0  0
  -29.8038  -12.5293   19.5686 C   0  0  0  0  0  0  0  0  0  0  0  0
  -24.5425  -27.9555   19.7984 C   0  0  0  0  0  0  0  0  0  0  0  0
  -32.1039  -12.6819   20.0250 C   0  0  0  0  0  0  0  0  0  0  0  0
  -18.6249  -23.8703   19.1393 C   0  0  0  0  0  0  0  0  0  0  0  0
  -34.2034  -13.9534   21.3509 C   0  0  0  0  0  0  0  0  0  0  0  0
  -32.3564  -14.0344   19.7955 C   0  0  0  0  0  0  0  0  0  0  0  0
  -25.8943  -14.0205   20.1935 C   0  0  0  0  0  0  0  0  0  0  0  0
  -23.7375  -14.2138   20.5753 C   0  0  0  0  0  0  0  0  0  0  0  0
  -19.3204  -20.2060   18.7836 C   0  0  0  0  0  0  0  0  0  0  0  0
  -20.6540  -20.0561   18.6351 C   0  0  0  0  0  0  0  0  0  0  0  0
  -24.5594  -11.8531   20.5612 C   0  0  0  0  0  0  0  0  0  0  0  0
  -21.2265  -18.6949   18.6311 C   0  0  0  0  0  0  0  0  0  0  0  0
  -29.8039  -28.6386   18.6519 C   0  0  0  0  0  0  0  0  0  0  0  0
  -21.2970  -26.3972   19.4180 C   0  0  0  0  0  0  0  0  0  0  0  0
  -30.1968  -25.4418   19.0365 C   0  0  0  0  0  0  0  0  0  0  0  0
  -28.7851  -22.4108   19.7201 C   0  0  0  0  0  0  0  0  0  0  0  0
  -32.7743  -32.7896   18.5876 C   0  0  0  0  0  0  0  0  0  0  0  0
  -28.6961  -28.2605   20.8847 C   0  0  0  0  0  0  0  0  0  0  0  0
  -27.8210  -26.2755   18.8751 C   0  0  0  0  0  0  0  0  0  0  0  0
  -32.9695  -31.3029   18.3014 C   0  0  0  0  0  0  0  0  0  0  0  0
  -23.9780  -19.2337   20.9913 C   0  0  0  0  0  0  0  0  0  0  0  0
  -31.8773  -30.7912   17.3675 C   0  0  0  0  0  0  0  0  0  0  0  0
  -24.6532  -17.8649   20.9727 C   0  0  0  0  0  0  0  0  0  0  0  0
  -23.3943  -19.6019   19.6282 C   0  0  0  0  0  0  0  0  0  0  0  0
  -23.1402  -17.2031   19.0614 C   0  0  0  0  0  0  0  0  0  0  0  0
  -30.4910  -30.9410   18.0055 C   0  0  1  0  0  0  0  0  0  0  0  0
  -29.6501  -27.7147   19.8267 C   0  0  1  0  0  0  0  0  0  0  0  0
  -23.6934  -16.7918   20.4348 C   0  0  1  0  0  0  0  0  0  0  0  0
  -16.2346  -25.6834   20.3319 C   0  0  0  0  0  0  0  0  0  0  0  0
  -29.3523  -19.9749   19.9251 C   0  0  0  0  0  0  0  0  0  0  0  0
  -30.3238  -25.2180   15.9962 C   0  0  0  0  0  0  0  0  0  0  0  0
  -29.9333  -22.7562   16.2307 C   0  0  0  0  0  0  0  0  0  0  0  0
  -31.9767  -23.7926   17.2171 C   0  0  0  0  0  0  0  0  0  0  0  0
  -27.9489  -22.3358   22.5581 C   0  0  0  0  0  0  0  0  0  0  0  0
  -16.5124  -25.2072   18.9091 C   0  0  0  0  0  0  0  0  0  0  0  0
  -22.7568  -26.5729   19.0528 C   0  0  0  0  0  0  0  0  0  1  0  0
  -20.6810  -25.0622   19.0532 C   0  0  0  0  0  0  0  0  0  0  0  0
  -29.7298  -24.2107   18.2980 C   0  0  1  0  0  0  0  0  0  0  0  0
  -29.2003  -21.2959   20.6630 C   0  0  2  0  0  0  0  0  0  0  0  0
  -30.4724  -24.0131   16.9464 C   0  0  0  0  0  0  0  0  0  0  0  0
  -25.6651  -15.3359   20.1595 N   0  0  0  0  0  0  0  0  0  0  0  0
  -24.3448  -15.4216   20.3949 N   0  0  0  0  0  0  0  0  0  0  0  0
  -22.5262  -18.5348   19.1083 N   0  0  0  0  0  0  0  0  0  0  0  0
  -29.2243  -26.4176   19.2970 N   0  0  0  0  0  0  0  0  0  0  0  0
  -22.4138  -14.1180   20.8220 N   0  0  0  0  0  0  0  0  0  0  0  0
  -25.6834  -11.0309   20.4037 N   0  0  0  0  0  0  0  0  0  0  0  0
  -30.2689  -29.8971   18.9829 N   0  0  0  0  0  0  0  0  0  0  0  0
  -29.8757  -23.0966   19.2285 N   0  0  0  0  0  0  0  0  0  0  0  0
  -28.1824  -21.1199   21.7371 N   0  3  0  0  0  0  0  0  0  0  0  0
  -23.4407  -11.3287   20.7781 O   0  0  0  0  0  0  0  0  0  0  0  0
  -20.5196  -17.7820   18.2002 O   0  0  0  0  0  0  0  0  0  0  0  0
  -29.5230  -28.2389   17.5280 O   0  0  0  0  0  0  0  0  0  0  0  0
  -20.6520  -27.2840   19.9754 O   0  0  0  0  0  0  0  0  0  0  0  0
  -31.3793  -25.5309   19.3763 O   0  0  0  0  0  0  0  0  0  0  0  0
  -27.6110  -22.6471   19.4442 O   0  0  0  0  0  0  0  0  0  0  0  0
  -31.0617  -12.0496   19.3682 O   0  0  0  0  0  0  0  0  0  0  0  0
  -23.2281  -27.8568   19.4600 O   0  0  0  0  0  0  0  0  0  1  0  0
  -19.3205  -25.0203   19.4287 O   0  0  0  0  0  0  0  0  0  0  0  0
  -35.2105  -14.5642   21.9887 F   0  0  0  0  0  0  0  0  0  0  0  0
  -31.5932  -14.7285   18.9402 F   0  0  0  0  0  0  0  0  0  0  0  0
  1  2  1  0  0  0  0
  1  6  2  0  0  0  0
  2  7  2  0  0  0  0
  3 10  2  0  0  0  0
  3 18  1  0  0  0  0
  4 11  1  0  0  0  0
  4 18  2  0  0  0  0
  5  9  2  0  0  0  0
  5 19  1  0  0  0  0
  6 21  1  0  0  0  0
  7 23  1  0  0  0  0
  8 12  2  0  0  0  0
  8 22  1  0  0  0  0
  9 25  1  0  0  0  0
 10 26  1  0  0  0  0
 11 26  2  0  0  0  0
 12 27  1  0  0  0  0
 13 14  2  0  0  0  0
 13 28  1  0  0  0  0
 14 30  1  0  0  0  0
 15 19  2  0  0  0  0
 15 29  1  0  0  0  0
 16 24  1  0  0  0  0
 16 27  2  0  0  0  0
 17 30  2  0  0  0  0
 17 31  1  0  0  0  0
 18 32  1  0  0  0  0
 19 34  1  0  0  0  0
 20 32  1  0  0  0  0
 20 33  2  0  0  0  0
 20 36  1  0  0  0  0
 21 23  2  0  0  0  0
 21 42  1  0  0  0  0
 22 24  2  0  0  0  0
 22 43  1  0  0  0  0
 23 51  1  0  0  0  0
 24 44  1  0  0  0  0
 25 29  2  0  0  0  0
 25 60  1  0  0  0  0
 26 81  1  0  0  0  0
 27 82  1  0  0  0  0
 28 31  2  0  0  0  0
 28 81  1  0  0  0  0
 29 83  1  0  0  0  0
 30 84  1  0  0  0  0
 31 85  1  0  0  0  0
 32 66  2  0  0  0  0
 33 67  1  0  0  0  0
 33 70  1  0  0  0  0
 34 35  2  0  0  0  0
 35 37  1  0  0  0  0
 36 71  1  0  0  0  0
 36 75  2  0  0  0  0
 37 68  1  0  0  0  0
 37 76  2  0  0  0  0
 38 52  1  0  0  0  0
 38 72  1  0  0  0  0
 38 77  2  0  0  0  0
 39 61  1  0  0  0  0
 39 62  1  0  0  0  0
 39 78  2  0  0  0  0
 40 63  1  0  0  0  0
 40 69  1  0  0  0  0
 40 79  2  0  0  0  0
 41 64  1  0  0  0  0
 41 73  1  0  0  0  0
 41 80  2  0  0  0  0
 42 45  1  0  0  0  0
 43 52  1  0  0  0  0
 44 69  1  0  0  0  0
 45 47  1  0  0  0  0
 46 48  1  0  0  0  0
 46 49  1  0  0  0  0
 47 51  1  0  0  0  0
 48 53  1  0  0  0  0
 49 68  1  0  0  0  0
 50 53  1  0  0  0  0
 50 68  1  0  0  0  0
 51 72  1  0  0  0  0
 52 69  1  0  0  0  0
 53 67  1  0  0  0  0
 54 60  1  0  0  0  0
 55 64  1  0  0  0  0
 56 65  1  0  0  0  0
 57 65  1  0  0  0  0
 58 65  1  0  0  0  0
 59 74  1  0  0  0  0
 61 82  1  0  0  0  0
 62 83  1  0  0  0  0
 63 65  1  0  0  0  0
 63 73  1  0  0  0  0
 64 74  1  0  0  0  0
 66 67  1  0  0  0  0
M  CHG  1  74   1
M  ISO  4  35 100  37 100  61 101  82 101
M  END
> <Batch ID>
0127

> <Smiles>
CCc1ccc(C=[100CH:0][100C:0](=O)N2CCCC(n3nc(-c4ccc(Oc5ccc(F)cc5F)cc4)c(C(N)=O)c3N)C2)cc1OCC(=O)[101CH2:1][101O:1]c1ccc2c(c1)CN(C(=O)C(NC(=O)C(C)NC)C(C)(C)C)C(C(=O)NC1CCCc3ccccc31)C2

> <Shape>
0.223

> <Color>
0.079

> <Negative vol penalty>
0.000

$$$$

  -OEChem-04052302143D

 84 93  0     1  0  0  0  0  0999 V2000
  -18.8604  -25.4833   23.6720 C   0  0  0  0  0  0  0  0  0  0  0  0
  -20.2438  -25.4807   23.8197 C   0  0  0  0  0  0  0  0  0  0  0  0
  -24.4742  -14.2454   20.3634 C   0  0  0  0  0  0  0  0  0  0  0  0
  -26.6935  -13.7063   19.5752 C   0  0  0  0  0  0  0  0  0  0  0  0
  -18.2576  -26.3673   22.7780 C   0  0  0  0  0  0  0  0  0  0  0  0
  -21.0252  -26.3614   23.0726 C   0  0  0  0  0  0  0  0  0  0  0  0
  -26.2032  -29.1051   24.8520 C   0  0  0  0  0  0  0  0  0  0  0  0
  -24.0925  -12.9138   20.1995 C   0  0  0  0  0  0  0  0  0  0  0  0
  -26.3118  -12.3747   19.4114 C   0  0  0  0  0  0  0  0  0  0  0  0
  -27.5469  -28.8092   24.6264 C   0  0  0  0  0  0  0  0  0  0  0  0
  -24.4620   -9.9938   21.8639 C   0  0  0  0  0  0  0  0  0  0  0  0
  -23.7334   -9.3970   22.8927 C   0  0  0  0  0  0  0  0  0  0  0  0
  -27.5727  -30.3620   22.7805 C   0  0  0  0  0  0  0  0  0  0  0  0
  -31.6849  -23.5615   20.8561 C   0  0  0  0  0  0  0  0  0  0  0  0
  -21.9093   -8.9863   21.3625 C   0  0  0  0  0  0  0  0  0  0  0  0
  -29.8201  -24.0541   18.9259 C   0  0  0  0  0  0  0  0  0  0  0  0
  -25.7747  -14.6417   20.0512 C   0  0  0  0  0  0  0  0  0  0  0  0
  -26.7222  -16.6079   21.3717 C   0  0  0  0  0  0  0  0  0  0  0  0
  -19.0314  -27.2659   22.0267 C   0  0  0  0  0  0  0  0  0  0  0  0
  -25.5302  -30.0250   24.0352 C   0  0  0  0  0  0  0  0  0  0  0  0
  -20.4323  -27.2573   22.1668 C   0  0  0  0  0  0  0  0  0  0  0  0
  -26.2212  -30.6697   22.9993 C   0  0  0  0  0  0  0  0  0  0  0  0
  -31.1335  -22.4964   20.1527 C   0  0  0  0  0  0  0  0  0  0  0  0
  -30.1827  -22.7388   19.1676 C   0  0  0  0  0  0  0  0  0  0  0  0
  -25.0113  -11.9785   19.7236 C   0  0  0  0  0  0  0  0  0  0  0  0
  -28.2311  -29.4355   23.5888 C   0  0  0  0  0  0  0  0  0  0  0  0
  -23.9143  -10.0869   20.5844 C   0  0  0  0  0  0  0  0  0  0  0  0
  -22.4570   -8.8933   22.6420 C   0  0  0  0  0  0  0  0  0  0  0  0
  -22.6380   -9.5831   20.3337 C   0  0  0  0  0  0  0  0  0  0  0  0
  -26.1693  -16.0171   20.2197 C   0  0  0  0  0  0  0  0  0  0  0  0
  -31.2552  -24.8400   20.5386 C   0  0  0  0  0  0  0  0  0  0  0  0
  -26.9185  -17.9219   21.0233 C   0  0  0  0  0  0  0  0  0  0  0  0
  -27.0307  -16.0213   22.6431 C   0  0  0  0  0  0  0  0  0  0  0  0
  -23.0393  -29.8738   22.0663 C   0  0  0  0  0  0  0  0  0  0  0  0
  -23.4641  -33.0859   21.9091 C   0  0  0  0  0  0  0  0  0  0  0  0
  -25.5713  -35.7495   22.2436 C   0  0  0  0  0  0  0  0  0  0  0  0
  -28.6348  -21.8002   17.4156 C   0  0  0  0  0  0  0  0  0  0  0  0
  -18.3385  -28.1700   21.0382 C   0  0  0  0  0  0  0  0  0  0  0  0
  -24.0879  -30.3532   24.3084 C   0  0  0  0  0  0  0  0  0  0  0  0
  -25.5498  -31.6801   22.1068 C   0  0  0  0  0  0  0  0  0  0  0  0
  -19.2085  -29.3294   20.5596 C   0  0  0  0  0  0  0  0  0  0  0  0
  -25.3366  -20.5303   16.9840 C   0  0  0  0  0  0  0  0  0  0  0  0
  -20.6004  -28.8321   20.1825 C   0  0  0  0  0  0  0  0  0  0  0  0
  -32.5232  -27.0022   20.3232 C   0  0  0  0  0  0  0  0  0  0  0  0
  -31.7127  -28.2919   20.4046 C   0  0  0  0  0  0  0  0  0  0  0  0
  -25.3047  -19.2915   17.8821 C   0  0  0  0  0  0  0  0  0  0  0  0
  -30.7212  -26.8118   21.9838 C   0  0  0  0  0  0  0  0  0  0  0  0
  -26.6961  -20.7073   16.3101 C   0  0  0  0  0  0  0  0  0  0  0  0
  -27.8145  -19.4667   18.1210 C   0  0  0  0  0  0  0  0  0  0  0  0
  -21.3121  -28.2146   21.3923 C   0  0  1  0  0  0  0  0  0  0  0  0
  -31.8249  -26.0064   21.2731 C   0  0  1  0  0  0  0  0  0  0  0  0
  -23.3640  -30.9226   23.0922 C   0  0  1  0  0  0  0  0  0  0  0  0
  -31.1466  -28.2697   21.8202 C   0  0  2  0  0  0  0  0  0  0  0  0
  -26.4859  -19.2827   18.8723 C   0  0  2  0  0  0  0  0  0  0  0  0
  -31.5787  -21.1072   20.4735 C   0  0  0  0  0  0  0  0  0  0  0  0
  -25.6412  -38.2472   22.0116 C   0  0  0  0  0  0  0  0  0  0  0  0
  -23.5595  -32.7987   18.8729 C   0  0  0  0  0  0  0  0  0  0  0  0
  -24.5585  -35.0915   18.7572 C   0  0  0  0  0  0  0  0  0  0  0  0
  -22.2679  -34.7768   19.6937 C   0  0  0  0  0  0  0  0  0  0  0  0
  -26.2477  -36.1122   25.1019 C   0  0  0  0  0  0  0  0  0  0  0  0
  -30.0102  -29.2491   22.0217 C   0  0  0  0  0  0  0  0  0  1  0  0
  -24.2709  -34.0161   21.0358 C   0  0  1  0  0  0  0  0  0  0  0  0
  -25.4084  -37.0793   22.9574 C   0  0  2  0  0  0  0  0  0  0  0  0
  -23.6766  -34.1504   19.6053 C   0  0  0  0  0  0  0  0  0  0  0  0
  -30.3337  -25.1147   19.5884 N   0  0  0  0  0  0  0  0  0  0  0  0
  -26.0237  -16.8847   19.2146 N   0  0  0  0  0  0  0  0  0  0  0  0
  -26.4878  -18.0340   19.7341 N   0  0  0  0  0  0  0  0  0  0  0  0
  -24.1370  -31.9624   22.4099 N   0  0  0  0  0  0  0  0  0  0  0  0
  -27.7662  -20.6933   17.3099 N   0  0  0  0  0  0  0  0  0  0  0  0
  -27.4158  -18.9808   21.6970 N   0  0  0  0  0  0  0  0  0  0  0  0
  -26.7658  -14.6581   22.8319 N   0  0  0  0  0  0  0  0  0  0  0  0
  -29.5923  -21.6876   18.4231 N   0  0  0  0  0  0  0  0  0  0  0  0
  -21.8210  -29.2523   22.2633 N   0  0  0  0  0  0  0  0  0  0  0  0
  -24.3683  -35.2770   21.7631 N   0  0  0  0  0  0  0  0  0  0  0  0
  -26.3792  -37.1853   24.0831 N   0  3  0  0  0  0  0  0  0  0  0  0
  -27.5114  -16.6901   23.5893 O   0  0  0  0  0  0  0  0  0  0  0  0
  -23.8346  -29.6465   21.1621 O   0  0  0  0  0  0  0  0  0  0  0  0
  -22.2824  -33.3502   22.1443 O   0  0  0  0  0  0  0  0  0  0  0  0
  -26.6576  -35.1879   22.1211 O   0  0  0  0  0  0  0  0  0  0  0  0
  -28.5193  -22.7878   16.6853 O   0  0  0  0  0  0  0  0  0  0  0  0
  -24.6393  -10.6790   19.5638 O   0  0  0  0  0  0  0  0  0  0  0  0
  -29.5424  -29.1481   23.3661 O   0  0  0  0  0  0  0  0  0  1  0  0
  -21.7580   -8.3188   23.6297 F   0  0  0  0  0  0  0  0  0  0  0  0
  -22.1071   -9.6686   19.1063 F   0  0  0  0  0  0  0  0  0  0  0  0
  1  2  1  0  0  0  0
  1  5  2  0  0  0  0
  2  6  2  0  0  0  0
  3  8  2  0  0  0  0
  3 17  1  0  0  0  0
  4  9  1  0  0  0  0
  4 17  2  0  0  0  0
  5 19  1  0  0  0  0
  6 21  1  0  0  0  0
  7 10  2  0  0  0  0
  7 20  1  0  0  0  0
  8 25  1  0  0  0  0
  9 25  2  0  0  0  0
 10 26  1  0  0  0  0
 11 12  2  0  0  0  0
 11 27  1  0  0  0  0
 12 28  1  0  0  0  0
 13 22  1  0  0  0  0
 13 26  2  0  0  0  0
 14 23  2  0  0  0  0
 14 31  1  0  0  0  0
 15 28  2  0  0  0  0
 15 29  1  0  0  0  0
 16 24  2  0  0  0  0
 16 65  1  0  0  0  0
 17 30  1  0  0  0  0
 18 30  1  0  0  0  0
 18 32  2  0  0  0  0
 18 33  1  0  0  0  0
 19 21  2  0  0  0  0
 19 38  1  0  0  0  0
 20 22  2  0  0  0  0
 20 39  1  0  0  0  0
 21 50  1  0  0  0  0
 22 40  1  0  0  0  0
 23 24  1  0  0  0  0
 23 55  1  0  0  0  0
 24 72  1  0  0  0  0
 25 81  1  0  0  0  0
 26 82  1  0  0  0  0
 27 29  2  0  0  0  0
 27 81  1  0  0  0  0
 28 83  1  0  0  0  0
 29 84  1  0  0  0  0
 30 66  2  0  0  0  0
 31 51  1  0  0  0  0
 31 65  2  0  0  0  0
 32 67  1  0  0  0  0
 32 70  1  0  0  0  0
 33 71  1  0  0  0  0
 33 76  2  0  0  0  0
 34 52  1  0  0  0  0
 34 73  1  0  0  0  0
 34 77  2  0  0  0  0
 35 62  1  0  0  0  0
 35 68  1  0  0  0  0
 35 78  2  0  0  0  0
 36 63  1  0  0  0  0
 36 74  1  0  0  0  0
 36 79  2  0  0  0  0
 37 69  1  0  0  0  0
 37 72  1  0  0  0  0
 37 80  2  0  0  0  0
 38 41  1  0  0  0  0
 39 52  1  0  0  0  0
 40 68  1  0  0  0  0
 41 43  1  0  0  0  0
 42 46  1  0  0  0  0
 42 48  1  0  0  0  0
 43 50  1  0  0  0  0
 44 45  1  0  0  0  0
 44 51  1  0  0  0  0
 45 53  1  0  0  0  0
 46 54  1  0  0  0  0
 47 51  1  0  0  0  0
 47 53  1  0  0  0  0
 48 69  1  0  0  0  0
 49 54  1  0  0  0  0
 49 69  1  0  0  0  0
 50 73  1  0  0  0  0
 52 68  1  0  0  0  0
 53 61  1  0  0  0  0
 54 67  1  0  0  0  0
 56 63  1  0  0  0  0
 57 64  1  0  0  0  0
 58 64  1  0  0  0  0
 59 64  1  0  0  0  0
 60 75  1  0  0  0  0
 61 82  1  0  0  0  0
 62 64  1  0  0  0  0
 62 74  1  0  0  0  0
 63 75  1  0  0  0  0
 66 67  1  0  0  0  0
M  CHG  1  75   1
M  ISO  4  37 100  61 101  72 100  82 101
M  END
> <Batch ID>
0127

> <Smiles>
CNC(C)C(=O)NC(C(=O)N1Cc2cc([101O:1][101CH2:1]C3CCC(c4cc(C)c([100NH:0][100C:0](=O)N5CCCC(n6nc(-c7ccc(Oc8ccc(F)cc8F)cc7)c(C(N)=O)c6N)C5)cn4)C3)ccc2CC1C(=O)NC1CCCc2ccccc21)C(C)(C)C

> <Shape>
0.268

> <Color>
0.114

> <Negative vol penalty>
0.000

$$$$

  -OEChem-04052302143D

 83 91  0     1  0  0  0  0  0999 V2000
  -17.8658  -32.8964   22.8969 C   0  0  0  0  0  0  0  0  0  0  0  0
  -19.1007  -33.0279   22.2699 C   0  0  0  0  0  0  0  0  0  0  0  0
  -24.0335   -9.7747   22.1425 C   0  0  0  0  0  0  0  0  0  0  0  0
  -22.3056  -10.3618   20.5593 C   0  0  0  0  0  0  0  0  0  0  0  0
  -30.0450  -20.9431   21.5227 C   0  0  0  0  0  0  0  0  0  0  0  0
  -29.8680  -21.0874   19.1175 C   0  0  0  0  0  0  0  0  0  0  0  0
  -30.3729  -22.2976   21.5798 C   0  0  0  0  0  0  0  0  0  0  0  0
  -30.1958  -22.4420   19.1746 C   0  0  0  0  0  0  0  0  0  0  0  0
  -17.6470  -31.8487   23.7904 C   0  0  0  0  0  0  0  0  0  0  0  0
  -20.1180  -32.1124   22.5369 C   0  0  0  0  0  0  0  0  0  0  0  0
  -25.6826  -28.8759   19.3942 C   0  0  0  0  0  0  0  0  0  0  0  0
  -23.1610   -8.8810   22.7634 C   0  0  0  0  0  0  0  0  0  0  0  0
  -21.4330   -9.4681   21.1802 C   0  0  0  0  0  0  0  0  0  0  0  0
  -27.0450  -28.6496   19.5846 C   0  0  0  0  0  0  0  0  0  0  0  0
  -21.9810   -5.7609   22.2104 C   0  0  0  0  0  0  0  0  0  0  0  0
  -22.4717   -4.4966   22.5364 C   0  0  0  0  0  0  0  0  0  0  0  0
  -26.5274  -26.8336   21.0858 C   0  0  0  0  0  0  0  0  0  0  0  0
  -21.9933   -4.9121   24.8679 C   0  0  0  0  0  0  0  0  0  0  0  0
  -23.6058  -10.5152   21.0404 C   0  0  0  0  0  0  0  0  0  0  0  0
  -29.7926  -20.3379   20.2915 C   0  0  0  0  0  0  0  0  0  0  0  0
  -30.4482  -23.0471   20.4058 C   0  0  0  0  0  0  0  0  0  0  0  0
  -25.3881  -11.1669   19.3356 C   0  0  0  0  0  0  0  0  0  0  0  0
  -18.6590  -30.9142   24.0612 C   0  0  0  0  0  0  0  0  0  0  0  0
  -24.7307  -28.0885   20.0578 C   0  0  0  0  0  0  0  0  0  0  0  0
  -19.9130  -31.0519   23.4359 C   0  0  0  0  0  0  0  0  0  0  0  0
  -25.1535  -27.0503   20.9002 C   0  0  0  0  0  0  0  0  0  0  0  0
  -21.8607   -8.7277   22.2823 C   0  0  0  0  0  0  0  0  0  0  0  0
  -27.4676  -27.6302   20.4328 C   0  0  0  0  0  0  0  0  0  0  0  0
  -21.4966   -6.6009   23.2131 C   0  0  0  0  0  0  0  0  0  0  0  0
  -22.4778   -4.0722   23.8651 C   0  0  0  0  0  0  0  0  0  0  0  0
  -21.5027   -6.1765   24.5418 C   0  0  0  0  0  0  0  0  0  0  0  0
  -24.5066  -11.4389   20.3989 C   0  0  0  0  0  0  0  0  0  0  0  0
  -26.0151  -12.3648   19.0944 C   0  0  0  0  0  0  0  0  0  0  0  0
  -29.4517  -18.9255   20.2319 C   0  0  0  0  0  0  0  0  0  0  0  0
  -30.7938  -24.4768   20.4661 C   0  0  0  0  0  0  0  0  0  0  0  0
  -28.9794  -18.1894   21.2606 C   0  0  0  0  0  0  0  0  0  0  0  0
  -30.5355  -25.3751   19.5023 C   0  0  0  0  0  0  0  0  0  0  0  0
  -25.6195   -9.9409   18.6291 C   0  0  0  0  0  0  0  0  0  0  0  0
  -28.6690  -16.7628   21.0385 C   0  0  0  0  0  0  0  0  0  0  0  0
  -22.4316  -28.6592   22.1772 C   0  0  0  0  0  0  0  0  0  0  0  0
  -21.7297  -25.5322   21.6755 C   0  0  0  0  0  0  0  0  0  0  0  0
  -22.7990  -22.4449   20.6896 C   0  0  0  0  0  0  0  0  0  0  0  0
  -18.3910  -29.8259   25.0704 C   0  0  0  0  0  0  0  0  0  0  0  0
  -23.2648  -28.3281   19.8209 C   0  0  0  0  0  0  0  0  0  0  0  0
  -24.1717  -26.1636   21.6201 C   0  0  0  0  0  0  0  0  0  0  0  0
  -19.3990  -28.6810   25.0136 C   0  0  0  0  0  0  0  0  0  0  0  0
  -25.0220  -17.0136   20.7777 C   0  0  0  0  0  0  0  0  0  0  0  0
  -20.8223  -29.2256   24.9470 C   0  0  0  0  0  0  0  0  0  0  0  0
  -24.6375  -15.5454   20.6156 C   0  0  0  0  0  0  0  0  0  0  0  0
  -26.2372  -17.1894   21.6870 C   0  0  0  0  0  0  0  0  0  0  0  0
  -27.0360  -14.9183   21.0998 C   0  0  0  0  0  0  0  0  0  0  0  0
  -21.0333  -30.0645   23.6808 C   0  0  1  0  0  0  0  0  0  0  0  0
  -22.3830  -27.7976   20.9472 C   0  0  1  0  0  0  0  0  0  0  0  0
  -25.8444  -14.7148   20.1511 C   0  0  1  0  0  0  0  0  0  0  0  0
  -31.8865  -27.1918   18.4776 C   0  0  0  0  0  0  0  0  0  0  0  0
  -22.0080  -20.0782   20.4239 C   0  0  0  0  0  0  0  0  0  0  0  0
  -21.9010  -25.1384   24.6964 C   0  0  0  0  0  0  0  0  0  0  0  0
  -22.0537  -22.6717   24.2961 C   0  0  0  0  0  0  0  0  0  0  0  0
  -20.0146  -23.9240   23.5914 C   0  0  0  0  0  0  0  0  0  0  0  0
  -23.3259  -22.4731   17.7775 C   0  0  0  0  0  0  0  0  0  0  0  0
  -29.6682  -27.7222   19.5355 C   0  0  0  0  0  0  0  0  0  1  0  0
  -30.9159  -26.8352   19.6032 C   0  0  1  0  0  0  0  0  0  0  0  0
  -22.1643  -24.2262   22.2955 C   0  0  1  0  0  0  0  0  0  0  0  0
  -22.1944  -21.4247   19.7419 C   0  0  2  0  0  0  0  0  0  0  0  0
  -21.5522  -24.0078   23.7079 C   0  0  0  0  0  0  0  0  0  0  0  0
  -24.5654  -12.7099   20.8053 N   0  0  0  0  0  0  0  0  0  0  0  0
  -25.4916  -13.2472   19.9931 N   0  0  0  0  0  0  0  0  0  0  0  0
  -27.3587  -16.3410   21.2567 N   0  0  0  0  0  0  0  0  0  0  0  0
  -22.7494  -26.4416   21.3609 N   0  0  0  0  0  0  0  0  0  0  0  0
  -26.9577  -12.7391   18.2033 N   0  0  0  0  0  0  0  0  0  0  0  0
  -24.8899   -8.8050   19.0053 N   0  0  0  0  0  0  0  0  0  0  0  0
  -21.2124  -29.2059   22.5297 N   0  0  0  0  0  0  0  0  0  0  0  0
  -21.8280  -23.1846   21.3309 N   0  0  0  0  0  0  0  0  0  0  0  0
  -23.0763  -21.2328   18.5561 N   0  3  0  0  0  0  0  0  0  0  0  0
  -26.4606   -9.8513   17.7028 O   0  0  0  0  0  0  0  0  0  0  0  0
  -29.5915  -16.0298   20.6774 O   0  0  0  0  0  0  0  0  0  0  0  0
  -23.4960  -28.8152   22.7640 O   0  0  0  0  0  0  0  0  0  0  0  0
  -20.5302  -25.7350   21.4712 O   0  0  0  0  0  0  0  0  0  0  0  0
  -24.0113  -22.5704   20.8480 O   0  0  0  0  0  0  0  0  0  0  0  0
  -21.0091   -7.8556   22.8878 O   0  0  0  0  0  0  0  0  0  0  0  0
  -28.7969  -27.4076   20.6209 O   0  0  0  0  0  0  0  0  0  1  0  0
  -22.9476   -2.8574   24.1778 F   0  0  0  0  0  0  0  0  0  0  0  0
  -21.0375   -6.9785   25.5094 F   0  0  0  0  0  0  0  0  0  0  0  0
  1  2  1  0  0  0  0
  1  9  2  0  0  0  0
  2 10  2  0  0  0  0
  3 12  2  0  0  0  0
  3 19  1  0  0  0  0
  4 13  1  0  0  0  0
  4 19  2  0  0  0  0
  5  7  2  0  0  0  0
  5 20  1  0  0  0  0
  6  8  1  0  0  0  0
  6 20  2  0  0  0  0
  7 21  1  0  0  0  0
  8 21  2  0  0  0  0
  9 23  1  0  0  0  0
 10 25  1  0  0  0  0
 11 14  2  0  0  0  0
 11 24  1  0  0  0  0
 12 27  1  0  0  0  0
 13 27  2  0  0  0  0
 14 28  1  0  0  0  0
 15 16  2  0  0  0  0
 15 29  1  0  0  0  0
 16 30  1  0  0  0  0
 17 26  1  0  0  0  0
 17 28  2  0  0  0  0
 18 30  2  0  0  0  0
 18 31  1  0  0  0  0
 19 32  1  0  0  0  0
 20 34  1  0  0  0  0
 21 35  1  0  0  0  0
 22 32  1  0  0  0  0
 22 33  2  0  0  0  0
 22 38  1  0  0  0  0
 23 25  2  0  0  0  0
 23 43  1  0  0  0  0
 24 26  2  0  0  0  0
 24 44  1  0  0  0  0
 25 52  1  0  0  0  0
 26 45  1  0  0  0  0
 27 80  1  0  0  0  0
 28 81  1  0  0  0  0
 29 31  2  0  0  0  0
 29 80  1  0  0  0  0
 30 82  1  0  0  0  0
 31 83  1  0  0  0  0
 32 66  2  0  0  0  0
 33 67  1  0  0  0  0
 33 70  1  0  0  0  0
 34 36  2  0  0  0  0
 35 37  2  0  0  0  0
 36 39  1  0  0  0  0
 37 62  1  0  0  0  0
 38 71  1  0  0  0  0
 38 75  2  0  0  0  0
 39 68  1  0  0  0  0
 39 76  2  0  0  0  0
 40 53  1  0  0  0  0
 40 72  1  0  0  0  0
 40 77  2  0  0  0  0
 41 63  1  0  0  0  0
 41 69  1  0  0  0  0
 41 78  2  0  0  0  0
 42 64  1  0  0  0  0
 42 73  1  0  0  0  0
 42 79  2  0  0  0  0
 43 46  1  0  0  0  0
 44 53  1  0  0  0  0
 45 69  1  0  0  0  0
 46 48  1  0  0  0  0
 47 49  1  0  0  0  0
 47 50  1  0  0  0  0
 48 52  1  0  0  0  0
 49 54  1  0  0  0  0
 50 68  1  0  0  0  0
 51 54  1  0  0  0  0
 51 68  1  0  0  0  0
 52 72  1  0  0  0  0
 53 69  1  0  0  0  0
 54 67  1  0  0  0  0
 55 62  1  0  0  0  0
 56 64  1  0  0  0  0
 57 65  1  0  0  0  0
 58 65  1  0  0  0  0
 59 65  1  0  0  0  0
 60 74  1  0  0  0  0
 61 62  1  0  0  0  0
 61 81  1  0  0  0  0
 63 65  1  0  0  0  0
 63 73  1  0  0  0  0
 64 74  1  0  0  0  0
 66 67  1  0  0  0  0
M  CHG  1  74   1
M  ISO  4  36 100  39 100  61 101  81 101
M  END
> <Batch ID>
0127

> <Smiles>
CNC(C)C(=O)NC(C(=O)N1Cc2cc([101O:1][101CH2:1]C(C)C=Cc3ccc(C=[100CH:0][100C:0](=O)N4CCCC(n5nc(-c6ccc(Oc7ccc(F)cc7F)cc6)c(C(N)=O)c5N)C4)cc3)ccc2CC1C(=O)NC1CCCc2ccccc21)C(C)(C)C

> <Shape>
0.279

> <Color>
0.100

> <Negative vol penalty>
0.000

$$$$

  -OEChem-04052302143D

 83 91  0     1  0  0  0  0  0999 V2000
  -25.6018  -19.8906   16.5720 C   0  0  0  0  0  0  0  0  0  0  0  0
  -24.9965  -21.0209   17.1119 C   0  0  0  0  0  0  0  0  0  0  0  0
  -24.3813  -15.4728   19.2928 C   0  0  0  0  0  0  0  0  0  0  0  0
  -26.2191  -16.1461   20.7092 C   0  0  0  0  0  0  0  0  0  0  0  0
  -26.8494  -19.4792   17.0389 C   0  0  0  0  0  0  0  0  0  0  0  0
  -25.6381  -21.7399   18.1198 C   0  0  0  0  0  0  0  0  0  0  0  0
  -25.4765  -27.7992   18.9938 C   0  0  0  0  0  0  0  0  0  0  0  0
  -25.2606  -14.7302   18.5049 C   0  0  0  0  0  0  0  0  0  0  0  0
  -27.0984  -15.4035   19.9213 C   0  0  0  0  0  0  0  0  0  0  0  0
  -24.7247  -28.6039   19.8488 C   0  0  0  0  0  0  0  0  0  0  0  0
  -27.9818  -12.1621   19.5556 C   0  0  0  0  0  0  0  0  0  0  0  0
  -28.9184  -11.3622   20.2102 C   0  0  0  0  0  0  0  0  0  0  0  0
  -20.2941  -27.1879   22.6442 C   0  0  0  0  0  0  0  0  0  0  0  0
  -17.9382  -26.8637   22.2186 C   0  0  0  0  0  0  0  0  0  0  0  0
  -18.7713  -29.0577   22.7924 C   0  0  0  0  0  0  0  0  0  0  0  0
  -26.5424  -28.6067   21.4347 C   0  0  0  0  0  0  0  0  0  0  0  0
  -30.7085  -12.5920   19.1517 C   0  0  0  0  0  0  0  0  0  0  0  0
  -24.8605  -16.1808   20.3950 C   0  0  0  0  0  0  0  0  0  0  0  0
  -19.2311  -26.3485   22.3111 C   0  0  0  0  0  0  0  0  0  0  0  0
  -20.0642  -28.5425   22.8849 C   0  0  0  0  0  0  0  0  0  0  0  0
  -22.8396  -16.4688   21.9249 C   0  0  0  0  0  0  0  0  0  0  0  0
  -27.5110  -20.1990   18.0463 C   0  0  0  0  0  0  0  0  0  0  0  0
  -26.7649  -27.3826   19.3582 C   0  0  0  0  0  0  0  0  0  0  0  0
  -26.8951  -21.3369   18.6016 C   0  0  0  0  0  0  0  0  0  0  0  0
  -27.3095  -27.7989   20.5814 C   0  0  0  0  0  0  0  0  0  0  0  0
  -17.7083  -28.2183   22.4592 C   0  0  0  0  0  0  0  0  0  0  0  0
  -26.6192  -14.6955   18.8191 C   0  0  0  0  0  0  0  0  0  0  0  0
  -25.2565  -29.0053   21.0708 C   0  0  0  0  0  0  0  0  0  0  0  0
  -28.4085  -13.1770   18.6990 C   0  0  0  0  0  0  0  0  0  0  0  0
  -30.2817  -11.5772   20.0083 C   0  0  0  0  0  0  0  0  0  0  0  0
  -29.7719  -13.3920   18.4971 C   0  0  0  0  0  0  0  0  0  0  0  0
  -23.9528  -16.9486   21.2091 C   0  0  0  0  0  0  0  0  0  0  0  0
  -22.3138  -17.5842   22.5299 C   0  0  0  0  0  0  0  0  0  0  0  0
  -19.4708  -24.9360   22.0596 C   0  0  0  0  0  0  0  0  0  0  0  0
  -21.1863  -29.4287   23.2360 C   0  0  0  0  0  0  0  0  0  0  0  0
  -20.5521  -24.2399   22.4705 C   0  0  0  0  0  0  0  0  0  0  0  0
  -22.3701  -29.0221   23.7207 C   0  0  0  0  0  0  0  0  0  0  0  0
  -22.3268  -15.1343   22.0333 C   0  0  0  0  0  0  0  0  0  0  0  0
  -20.6461  -22.8029   22.1434 C   0  0  0  0  0  0  0  0  0  0  0  0
  -28.1488  -24.5690   19.8801 C   0  0  0  0  0  0  0  0  0  0  0  0
  -30.8313  -26.3747   20.1371 C   0  0  0  0  0  0  0  0  0  0  0  0
  -32.2205  -29.4223   20.7921 C   0  0  0  0  0  0  0  0  0  0  0  0
  -28.8371  -19.6885   18.5518 C   0  0  0  0  0  0  0  0  0  0  0  0
  -27.5733  -26.5368   18.4129 C   0  0  0  0  0  0  0  0  0  0  0  0
  -28.6958  -27.3956   21.0105 C   0  0  0  0  0  0  0  0  0  0  0  0
  -29.6190  -20.7206   19.3603 C   0  0  0  0  0  0  0  0  0  0  0  0
  -24.1578  -22.2505   23.0349 C   0  0  0  0  0  0  0  0  0  0  0  0
  -28.7091  -21.4033   20.3766 C   0  0  0  0  0  0  0  0  0  0  0  0
  -24.3318  -20.7843   22.6482 C   0  0  0  0  0  0  0  0  0  0  0  0
  -23.1924  -22.9777   22.1001 C   0  0  0  0  0  0  0  0  0  0  0  0
  -22.0375  -20.8447   21.5934 C   0  0  0  0  0  0  0  0  0  0  0  0
  -27.5706  -22.1574   19.6789 C   0  0  1  0  0  0  0  0  0  0  0  0
  -28.6762  -25.7475   19.1116 C   0  0  1  0  0  0  0  0  0  0  0  0
  -22.9683  -20.0820   22.5490 C   0  0  1  0  0  0  0  0  0  0  0  0
  -16.3261  -28.7695   22.3596 C   0  0  0  0  0  0  0  0  0  0  0  0
  -34.4407  -30.5796   20.9620 C   0  0  0  0  0  0  0  0  0  0  0  0
  -31.3084  -25.0564   22.8472 C   0  0  0  0  0  0  0  0  0  0  0  0
  -32.9395  -26.8824   23.3701 C   0  0  0  0  0  0  0  0  0  0  0  0
  -33.3633  -25.3455   21.4515 C   0  0  0  0  0  0  0  0  0  0  0  0
  -31.5391  -31.3007   18.6090 C   0  0  0  0  0  0  0  0  0  0  0  0
  -23.4867  -29.9645   24.0786 C   0  0  0  0  0  0  0  0  0  0  0  0
  -24.7618  -29.6454   23.3072 C   0  0  0  0  0  0  0  0  0  1  0  0
  -31.5379  -27.0849   21.2664 C   0  0  1  0  0  0  0  0  0  0  0  0
  -33.2727  -30.2295   20.0533 C   0  0  2  0  0  0  0  0  0  0  0  0
  -32.2604  -26.0985   22.2268 C   0  0  0  0  0  0  0  0  0  0  0  0
  -24.1248  -18.2661   21.3455 N   0  0  0  0  0  0  0  0  0  0  0  0
  -23.1126  -18.6237   22.1540 N   0  0  0  0  0  0  0  0  0  0  0  0
  -21.9171  -22.2560   21.9759 N   0  0  0  0  0  0  0  0  0  0  0  0
  -29.4444  -26.5630   20.0545 N   0  0  0  0  0  0  0  0  0  0  0  0
  -21.2505  -17.7672   23.3414 N   0  0  0  0  0  0  0  0  0  0  0  0
  -22.8042  -14.3170   23.0670 N   0  0  0  0  0  0  0  0  0  0  0  0
  -28.0522  -23.4091   19.1352 N   0  0  0  0  0  0  0  0  0  0  0  0
  -32.4197  -28.0660   20.6434 N   0  0  0  0  0  0  0  0  0  0  0  0
  -32.6840  -31.4967   19.5352 N   0  3  0  0  0  0  0  0  0  0  0  0
  -21.4827  -14.6746   21.2273 O   0  0  0  0  0  0  0  0  0  0  0  0
  -19.5916  -22.1746   22.0335 O   0  0  0  0  0  0  0  0  0  0  0  0
  -27.8529  -24.7018   21.0619 O   0  0  0  0  0  0  0  0  0  0  0  0
  -31.4868  -25.6843   19.3527 O   0  0  0  0  0  0  0  0  0  0  0  0
  -31.3149  -29.9428   21.4398 O   0  0  0  0  0  0  0  0  0  0  0  0
  -27.4774  -13.9708   18.0505 O   0  0  0  0  0  0  0  0  0  0  0  0
  -24.5246  -29.7902   21.9075 O   0  0  0  0  0  0  0  0  0  1  0  0
  -31.1811  -10.8099   20.6381 F   0  0  0  0  0  0  0  0  0  0  0  0
  -30.1879  -14.3662   17.6763 F   0  0  0  0  0  0  0  0  0  0  0  0
  1  2  1  0  0  0  0
  1  5  2  0  0  0  0
  2  6  2  0  0  0  0
  3  8  2  0  0  0  0
  3 18  1  0  0  0  0
  4  9  1  0  0  0  0
  4 18  2  0  0  0  0
  5 22  1  0  0  0  0
  6 24  1  0  0  0  0
  7 10  2  0  0  0  0
  7 23  1  0  0  0  0
  8 27  1  0  0  0  0
  9 27  2  0  0  0  0
 10 28  1  0  0  0  0
 11 12  2  0  0  0  0
 11 29  1  0  0  0  0
 12 30  1  0  0  0  0
 13 19  1  0  0  0  0
 13 20  2  0  0  0  0
 14 19  2  0  0  0  0
 14 26  1  0  0  0  0
 15 20  1  0  0  0  0
 15 26  2  0  0  0  0
 16 25  1  0  0  0  0
 16 28  2  0  0  0  0
 17 30  2  0  0  0  0
 17 31  1  0  0  0  0
 18 32  1  0  0  0  0
 19 34  1  0  0  0  0
 20 35  1  0  0  0  0
 21 32  1  0  0  0  0
 21 33  2  0  0  0  0
 21 38  1  0  0  0  0
 22 24  2  0  0  0  0
 22 43  1  0  0  0  0
 23 25  2  0  0  0  0
 23 44  1  0  0  0  0
 24 52  1  0  0  0  0
 25 45  1  0  0  0  0
 26 55  1  0  0  0  0
 27 80  1  0  0  0  0
 28 81  1  0  0  0  0
 29 31  2  0  0  0  0
 29 80  1  0  0  0  0
 30 82  1  0  0  0  0
 31 83  1  0  0  0  0
 32 66  2  0  0  0  0
 33 67  1  0  0  0  0
 33 70  1  0  0  0  0
 34 36  2  0  0  0  0
 35 37  2  0  0  0  0
 36 39  1  0  0  0  0
 37 61  1  0  0  0  0
 38 71  1  0  0  0  0
 38 75  2  0  0  0  0
 39 68  1  0  0  0  0
 39 76  2  0  0  0  0
 40 53  1  0  0  0  0
 40 72  1  0  0  0  0
 40 77  2  0  0  0  0
 41 63  1  0  0  0  0
 41 69  1  0  0  0  0
 41 78  2  0  0  0  0
 42 64  1  0  0  0  0
 42 73  1  0  0  0  0
 42 79  2  0  0  0  0
 43 46  1  0  0  0  0
 44 53  1  0  0  0  0
 45 69  1  0  0  0  0
 46 48  1  0  0  0  0
 47 49  1  0  0  0  0
 47 50  1  0  0  0  0
 48 52  1  0  0  0  0
 49 54  1  0  0  0  0
 50 68  1  0  0  0  0
 51 54  1  0  0  0  0
 51 68  1  0  0  0  0
 52 72  1  0  0  0  0
 53 69  1  0  0  0  0
 54 67  1  0  0  0  0
 56 64  1  0  0  0  0
 57 65  1  0  0  0  0
 58 65  1  0  0  0  0
 59 65  1  0  0  0  0
 60 74  1  0  0  0  0
 61 62  1  0  0  0  0
 62 81  1  0  0  0  0
 63 65  1  0  0  0  0
 63 73  1  0  0  0  0
 64 74  1  0  0  0  0
 66 67  1  0  0  0  0
M  CHG  1  74   1
M  ISO  4  36 100  39 100  62 101  81 101
M  END
> <Batch ID>
0127

> <Smiles>
CNC(C)C(=O)NC(C(=O)N1Cc2cc([101O:1][101CH2:1]CC=Cc3cc(C)cc(C=[100CH:0][100C:0](=O)N4CCCC(n5nc(-c6ccc(Oc7ccc(F)cc7F)cc6)c(C(N)=O)c5N)C4)c3)ccc2CC1C(=O)NC1CCCc2ccccc21)C(C)(C)C

> <Shape>
0.230

> <Color>
0.071

> <Negative vol penalty>
0.000

$$$$

  -OEChem-04052302143D

 84 92  0     1  0  0  0  0  0999 V2000
  -20.3089  -24.4512   23.4439 C   0  0  0  0  0  0  0  0  0  0  0  0
  -21.4403  -24.9187   22.7832 C   0  0  0  0  0  0  0  0  0  0  0  0
  -24.2473  -15.0708   25.9738 C   0  0  0  0  0  0  0  0  0  0  0  0
  -22.1126  -15.5078   24.9301 C   0  0  0  0  0  0  0  0  0  0  0  0
  -19.1790  -25.2614   23.5477 C   0  0  0  0  0  0  0  0  0  0  0  0
  -21.4422  -26.1965   22.2248 C   0  0  0  0  0  0  0  0  0  0  0  0
  -25.7034  -28.7453   23.2200 C   0  0  0  0  0  0  0  0  0  0  0  0
  -23.6005  -14.7797   27.1749 C   0  0  0  0  0  0  0  0  0  0  0  0
  -21.4658  -15.2166   26.1311 C   0  0  0  0  0  0  0  0  0  0  0  0
  -26.8299  -28.4217   22.4651 C   0  0  0  0  0  0  0  0  0  0  0  0
  -20.5583  -12.4618   27.8654 C   0  0  0  0  0  0  0  0  0  0  0  0
  -19.4296  -11.6442   27.8102 C   0  0  0  0  0  0  0  0  0  0  0  0
  -30.2702  -23.0229   18.2415 C   0  0  0  0  0  0  0  0  0  0  0  0
  -31.8286  -23.9013   16.6176 C   0  0  0  0  0  0  0  0  0  0  0  0
  -31.6792  -21.5177   16.9821 C   0  0  0  0  0  0  0  0  0  0  0  0
  -26.4406  -30.3498   21.0686 C   0  0  0  0  0  0  0  0  0  0  0  0
  -18.0978  -13.4182   28.7676 C   0  0  0  0  0  0  0  0  0  0  0  0
  -23.5034  -15.4349   24.8514 C   0  0  0  0  0  0  0  0  0  0  0  0
  -30.8395  -24.1103   17.5787 C   0  0  0  0  0  0  0  0  0  0  0  0
  -30.6901  -21.7266   17.9432 C   0  0  0  0  0  0  0  0  0  0  0  0
  -24.4917  -14.8357   22.5773 C   0  0  0  0  0  0  0  0  0  0  0  0
  -19.1703  -26.5534   22.9988 C   0  0  0  0  0  0  0  0  0  0  0  0
  -24.9294  -29.8694   22.8976 C   0  0  0  0  0  0  0  0  0  0  0  0
  -20.3106  -27.0243   22.3202 C   0  0  0  0  0  0  0  0  0  0  0  0
  -25.3062  -30.6870   21.8226 C   0  0  0  0  0  0  0  0  0  0  0  0
  -32.2484  -22.6050   16.3193 C   0  0  0  0  0  0  0  0  0  0  0  0
  -22.2097  -14.8526   27.2535 C   0  0  0  0  0  0  0  0  0  0  0  0
  -27.1971  -29.2223   21.3874 C   0  0  0  0  0  0  0  0  0  0  0  0
  -20.4568  -13.7576   28.3718 C   0  0  0  0  0  0  0  0  0  0  0  0
  -18.1993  -12.1224   28.2613 C   0  0  0  0  0  0  0  0  0  0  0  0
  -19.2266  -14.2358   28.8228 C   0  0  0  0  0  0  0  0  0  0  0  0
  -24.1710  -15.7363   23.6107 C   0  0  0  0  0  0  0  0  0  0  0  0
  -25.1133  -15.6096   21.6280 C   0  0  0  0  0  0  0  0  0  0  0  0
  -30.3956  -25.4797   17.8934 C   0  0  0  0  0  0  0  0  0  0  0  0
  -30.0962  -20.5926   18.6339 C   0  0  0  0  0  0  0  0  0  0  0  0
  -29.7624  -25.8346   19.0202 C   0  0  0  0  0  0  0  0  0  0  0  0
  -29.4376  -20.6499   19.8110 C   0  0  0  0  0  0  0  0  0  0  0  0
  -24.2493  -13.4257   22.4838 C   0  0  0  0  0  0  0  0  0  0  0  0
  -29.3451  -27.2501   19.2388 C   0  0  0  0  0  0  0  0  0  0  0  0
  -28.8805  -19.4071   20.3818 C   0  0  0  0  0  0  0  0  0  0  0  0
  -21.9186  -30.3347   21.9910 C   0  0  0  0  0  0  0  0  0  0  0  0
  -22.7189  -33.4630   22.2999 C   0  0  0  0  0  0  0  0  0  0  0  0
  -25.1709  -35.8364   22.3349 C   0  0  0  0  0  0  0  0  0  0  0  0
  -17.9090  -27.3747   23.0951 C   0  0  0  0  0  0  0  0  0  0  0  0
  -23.7324  -30.2200   23.7382 C   0  0  0  0  0  0  0  0  0  0  0  0
  -24.5206  -31.9161   21.4477 C   0  0  0  0  0  0  0  0  0  0  0  0
  -18.1236  -28.8573   22.8018 C   0  0  0  0  0  0  0  0  0  0  0  0
  -25.5174  -20.6174   21.1922 C   0  0  0  0  0  0  0  0  0  0  0  0
  -18.9696  -29.0359   21.5451 C   0  0  0  0  0  0  0  0  0  0  0  0
  -24.9129  -19.3826   21.8553 C   0  0  0  0  0  0  0  0  0  0  0  0
  -27.0111  -20.7502   21.4853 C   0  0  0  0  0  0  0  0  0  0  0  0
  -27.1935  -18.2984   21.7951 C   0  0  0  0  0  0  0  0  0  0  0  0
  -20.3599  -28.4139   21.7230 C   0  0  1  0  0  0  0  0  0  0  0  0
  -22.7235  -31.0980   23.0045 C   0  0  1  0  0  0  0  0  0  0  0  0
  -25.7013  -18.1194   21.4748 C   0  0  1  0  0  0  0  0  0  0  0  0
  -33.3054  -22.3813   15.2912 C   0  0  0  0  0  0  0  0  0  0  0  0
  -25.5139  -38.3111   22.5708 C   0  0  0  0  0  0  0  0  0  0  0  0
  -21.7205  -33.8711   19.4457 C   0  0  0  0  0  0  0  0  0  0  0  0
  -22.9361  -36.0594   19.4075 C   0  0  0  0  0  0  0  0  0  0  0  0
  -21.0883  -35.6895   21.0420 C   0  0  0  0  0  0  0  0  0  0  0  0
  -26.8350  -35.4920   24.7579 C   0  0  0  0  0  0  0  0  0  0  0  0
  -28.6385  -27.5267   20.5490 C   0  0  0  0  0  0  0  0  0  1  0  0
  -23.3000  -34.5133   21.3844 C   0  0  1  0  0  0  0  0  0  0  0  0
  -25.4562  -36.9759   23.2965 C   0  0  2  0  0  0  0  0  0  0  0  0
  -22.2751  -35.0092   20.3255 C   0  0  0  0  0  0  0  0  0  0  0  0
  -24.5571  -16.9867   23.3432 N   0  0  0  0  0  0  0  0  0  0  0  0
  -25.1270  -16.8773   22.1310 N   0  0  0  0  0  0  0  0  0  0  0  0
  -27.7343  -19.5096   21.1680 N   0  0  0  0  0  0  0  0  0  0  0  0
  -23.3547  -32.2134   22.2961 N   0  0  0  0  0  0  0  0  0  0  0  0
  -25.6442  -15.3226   20.4204 N   0  0  0  0  0  0  0  0  0  0  0  0
  -23.5988  -12.7875   23.5487 N   0  0  0  0  0  0  0  0  0  0  0  0
  -21.2022  -29.2787   22.5212 N   0  0  0  0  0  0  0  0  0  0  0  0
  -23.8216  -35.5657   22.2498 N   0  0  0  0  0  0  0  0  0  0  0  0
  -26.7599  -36.7585   23.9850 N   0  3  0  0  0  0  0  0  0  0  0  0
  -24.6138  -12.7487   21.4927 O   0  0  0  0  0  0  0  0  0  0  0  0
  -29.5621  -28.1296   18.4096 O   0  0  0  0  0  0  0  0  0  0  0  0
  -29.4678  -18.3531   20.1312 O   0  0  0  0  0  0  0  0  0  0  0  0
  -21.9444  -30.6792   20.8152 O   0  0  0  0  0  0  0  0  0  0  0  0
  -21.7414  -33.7433   22.9982 O   0  0  0  0  0  0  0  0  0  0  0  0
  -26.0562  -35.2480   21.7180 O   0  0  0  0  0  0  0  0  0  0  0  0
  -21.5782  -14.5683   28.4252 O   0  0  0  0  0  0  0  0  0  0  0  0
  -28.2959  -28.9083   20.6485 O   0  0  0  0  0  0  0  0  0  1  0  0
  -17.1151  -11.3377   28.2068 F   0  0  0  0  0  0  0  0  0  0  0  0
  -19.1226  -15.4801   29.3092 F   0  0  0  0  0  0  0  0  0  0  0  0
  1  2  1  0  0  0  0
  1  5  2  0  0  0  0
  2  6  2  0  0  0  0
  3  8  2  0  0  0  0
  3 18  1  0  0  0  0
  4  9  1  0  0  0  0
  4 18  2  0  0  0  0
  5 22  1  0  0  0  0
  6 24  1  0  0  0  0
  7 10  2  0  0  0  0
  7 23  1  0  0  0  0
  8 27  1  0  0  0  0
  9 27  2  0  0  0  0
 10 28  1  0  0  0  0
 11 12  2  0  0  0  0
 11 29  1  0  0  0  0
 12 30  1  0  0  0  0
 13 19  2  0  0  0  0
 13 20  1  0  0  0  0
 14 19  1  0  0  0  0
 14 26  2  0  0  0  0
 15 20  2  0  0  0  0
 15 26  1  0  0  0  0
 16 25  1  0  0  0  0
 16 28  2  0  0  0  0
 17 30  2  0  0  0  0
 17 31  1  0  0  0  0
 18 32  1  0  0  0  0
 19 34  1  0  0  0  0
 20 35  1  0  0  0  0
 21 32  1  0  0  0  0
 21 33  2  0  0  0  0
 21 38  1  0  0  0  0
 22 24  2  0  0  0  0
 22 44  1  0  0  0  0
 23 25  2  0  0  0  0
 23 45  1  0  0  0  0
 24 53  1  0  0  0  0
 25 46  1  0  0  0  0
 26 56  1  0  0  0  0
 27 81  1  0  0  0  0
 28 82  1  0  0  0  0
 29 31  2  0  0  0  0
 29 81  1  0  0  0  0
 30 83  1  0  0  0  0
 31 84  1  0  0  0  0
 32 66  2  0  0  0  0
 33 67  1  0  0  0  0
 33 70  1  0  0  0  0
 34 36  2  0  0  0  0
 35 37  2  0  0  0  0
 36 39  1  0  0  0  0
 37 40  1  0  0  0  0
 38 71  1  0  0  0  0
 38 75  2  0  0  0  0
 39 62  1  0  0  0  0
 39 76  2  0  0  0  0
 40 68  1  0  0  0  0
 40 77  2  0  0  0  0
 41 54  1  0  0  0  0
 41 72  1  0  0  0  0
 41 78  2  0  0  0  0
 42 63  1  0  0  0  0
 42 69  1  0  0  0  0
 42 79  2  0  0  0  0
 43 64  1  0  0  0  0
 43 73  1  0  0  0  0
 43 80  2  0  0  0  0
 44 47  1  0  0  0  0
 45 54  1  0  0  0  0
 46 69  1  0  0  0  0
 47 49  1  0  0  0  0
 48 50  1  0  0  0  0
 48 51  1  0  0  0  0
 49 53  1  0  0  0  0
 50 55  1  0  0  0  0
 51 68  1  0  0  0  0
 52 55  1  0  0  0  0
 52 68  1  0  0  0  0
 53 72  1  0  0  0  0
 54 69  1  0  0  0  0
 55 67  1  0  0  0  0
 57 64  1  0  0  0  0
 58 65  1  0  0  0  0
 59 65  1  0  0  0  0
 60 65  1  0  0  0  0
 61 74  1  0  0  0  0
 62 82  1  0  0  0  0
 63 65  1  0  0  0  0
 63 73  1  0  0  0  0
 64 74  1  0  0  0  0
 66 67  1  0  0  0  0
M  CHG  1  74   1
M  ISO  4  37 100  40 100  62 101  82 101
M  END
> <Batch ID>
0127

> <Smiles>
CNC(C)C(=O)NC(C(=O)N1Cc2cc([101O:1][101CH2:1]C(=O)C=Cc3cc(C)cc(C=[100CH:0][100C:0](=O)N4CCCC(n5nc(-c6ccc(Oc7ccc(F)cc7F)cc6)c(C(N)=O)c5N)C4)c3)ccc2CC1C(=O)NC1CCCc2ccccc21)C(C)(C)C

> <Shape>
0.218

> <Color>
0.120

> <Negative vol penalty>
0.000

$$$$

  -OEChem-04052302143D

 84 92  0     1  0  0  0  0  0999 V2000
  -30.7489  -29.1200    9.6581 C   0  0  0  0  0  0  0  0  0  0  0  0
  -30.4626  -29.5122   10.9618 C   0  0  0  0  0  0  0  0  0  0  0  0
  -23.0771   -9.8700   19.9394 C   0  0  0  0  0  0  0  0  0  0  0  0
  -23.8363   -9.8735   22.2330 C   0  0  0  0  0  0  0  0  0  0  0  0
  -30.1681  -27.9652    9.1353 C   0  0  0  0  0  0  0  0  0  0  0  0
  -29.5945  -28.7505   11.7432 C   0  0  0  0  0  0  0  0  0  0  0  0
  -31.7524  -25.9340   18.0123 C   0  0  0  0  0  0  0  0  0  0  0  0
  -32.3618  -18.5708   22.0237 C   0  0  0  0  0  0  0  0  0  0  0  0
  -31.8664  -17.3473   21.5730 C   0  0  0  0  0  0  0  0  0  0  0  0
  -22.3332   -8.7165   20.1874 C   0  0  0  0  0  0  0  0  0  0  0  0
  -23.0924   -8.7200   22.4811 C   0  0  0  0  0  0  0  0  0  0  0  0
  -32.0253  -25.5384   19.3220 C   0  0  0  0  0  0  0  0  0  0  0  0
  -19.8641   -7.9211   23.0814 C   0  0  0  0  0  0  0  0  0  0  0  0
  -19.1068   -7.8794   24.2520 C   0  0  0  0  0  0  0  0  0  0  0  0
  -29.8438  -24.5062   19.4760 C   0  0  0  0  0  0  0  0  0  0  0  0
  -29.8002  -17.7466   22.7599 C   0  0  0  0  0  0  0  0  0  0  0  0
  -20.3480   -5.9409   24.9859 C   0  0  0  0  0  0  0  0  0  0  0  0
  -23.8288  -10.4485   20.9622 C   0  0  0  0  0  0  0  0  0  0  0  0
  -24.1705  -12.9739   20.8462 C   0  0  0  0  0  0  0  0  0  0  0  0
  -29.3000  -27.1837    9.9139 C   0  0  0  0  0  0  0  0  0  0  0  0
  -30.5287  -25.6034   17.4235 C   0  0  0  0  0  0  0  0  0  0  0  0
  -29.0006  -27.5849   11.2299 C   0  0  0  0  0  0  0  0  0  0  0  0
  -29.5697  -24.8890   18.1602 C   0  0  0  0  0  0  0  0  0  0  0  0
  -31.5764  -19.3823   22.8425 C   0  0  0  0  0  0  0  0  0  0  0  0
  -30.2956  -18.9702   23.2106 C   0  0  0  0  0  0  0  0  0  0  0  0
  -30.5856  -16.9352   21.9411 C   0  0  0  0  0  0  0  0  0  0  0  0
  -22.3408   -8.1414   21.4582 C   0  0  0  0  0  0  0  0  0  0  0  0
  -31.0732  -24.8265   20.0520 C   0  0  0  0  0  0  0  0  0  0  0  0
  -20.8633   -6.9727   22.8629 C   0  0  0  0  0  0  0  0  0  0  0  0
  -19.3488   -6.8893   25.2043 C   0  0  0  0  0  0  0  0  0  0  0  0
  -21.1053   -5.9826   23.8152 C   0  0  0  0  0  0  0  0  0  0  0  0
  -24.5979  -11.6398   20.7066 C   0  0  0  0  0  0  0  0  0  0  0  0
  -25.2628  -13.7239   20.4844 C   0  0  0  0  0  0  0  0  0  0  0  0
  -29.0665  -19.3256   26.5211 C   0  0  0  0  0  0  0  0  0  0  0  0
  -29.8455  -19.7806   25.5332 C   0  0  0  0  0  0  0  0  0  0  0  0
  -22.8999  -13.4890   21.2655 C   0  0  0  0  0  0  0  0  0  0  0  0
  -28.3406  -25.7707   14.3805 C   0  0  0  0  0  0  0  0  0  0  0  0
  -28.0124  -22.9582   15.5604 C   0  0  0  0  0  0  0  0  0  0  0  0
  -28.2536  -19.8427   16.9289 C   0  0  0  0  0  0  0  0  0  0  0  0
  -30.7289  -14.7694   20.6623 C   0  0  0  0  0  0  0  0  0  0  0  0
  -28.6593  -25.9694    9.2896 C   0  0  0  0  0  0  0  0  0  0  0  0
  -30.1678  -26.0621   16.0368 C   0  0  0  0  0  0  0  0  0  0  0  0
  -28.2536  -24.5856   17.4979 C   0  0  0  0  0  0  0  0  0  0  0  0
  -28.0435  -25.0140   10.3085 C   0  0  0  0  0  0  0  0  0  0  0  0
  -29.6153  -12.3592   18.2900 C   0  0  0  0  0  0  0  0  0  0  0  0
  -27.2127  -25.7851   11.3293 C   0  0  0  0  0  0  0  0  0  0  0  0
  -28.1755  -12.0669   18.7187 C   0  0  0  0  0  0  0  0  0  0  0  0
  -30.5300  -12.5862   19.4923 C   0  0  0  0  0  0  0  0  0  0  0  0
  -28.6226  -13.3085   20.8741 C   0  0  0  0  0  0  0  0  0  0  0  0
  -28.0833  -26.7715   12.1171 C   0  0  1  0  0  0  0  0  0  0  0  0
  -29.3062  -25.0434   15.2693 C   0  0  1  0  0  0  0  0  0  0  0  0
  -27.6501  -13.1370   19.6957 C   0  0  2  0  0  0  0  0  0  0  0  0
  -27.3697  -17.5074   16.6784 C   0  0  0  0  0  0  0  0  0  0  0  0
  -25.3784  -23.8226   16.8327 C   0  0  0  0  0  0  0  0  0  0  0  0
  -24.9570  -21.4255   17.4195 C   0  0  0  0  0  0  0  0  0  0  0  0
  -25.1518  -22.1066   15.0277 C   0  0  0  0  0  0  0  0  0  0  0  0
  -30.9559  -18.7508   16.4147 C   0  0  0  0  0  0  0  0  0  0  0  0
  -29.4361  -19.8233   24.0847 C   0  0  0  0  0  0  0  0  0  0  0  0
  -32.1340  -20.7003   23.3178 C   0  0  0  0  0  0  0  0  0  0  0  0
  -32.1313  -21.7962   22.2463 C   0  0  0  0  0  0  0  0  0  0  0  0
  -32.7705  -23.1012   22.7230 C   0  0  0  0  0  0  0  0  0  0  0  0
  -32.7139  -24.1771   21.6470 C   0  0  0  0  0  0  0  0  0  1  0  0
  -27.2247  -22.0538   16.4742 C   0  0  1  0  0  0  0  0  0  0  0  0
  -28.4756  -18.4797   16.2984 C   0  0  2  0  0  0  0  0  0  0  0  0
  -25.7016  -22.3652   16.4473 C   0  0  0  0  0  0  0  0  0  0  0  0
  -25.8629  -11.5446   20.2885 N   0  0  0  0  0  0  0  0  0  0  0  0
  -26.2398  -12.8284   20.1622 N   0  0  0  0  0  0  0  0  0  0  0  0
  -28.4772  -24.1604   16.1073 N   0  0  0  0  0  0  0  0  0  0  0  0
  -29.9707  -13.6157   20.3711 N   0  0  0  0  0  0  0  0  0  0  0  0
  -25.4732  -15.0555   20.4134 N   0  0  0  0  0  0  0  0  0  0  0  0
  -21.8879  -12.5793   21.6011 N   0  0  0  0  0  0  0  0  0  0  0  0
  -30.0812  -15.6932   21.4819 N   0  0  0  0  0  0  0  0  0  0  0  0
  -28.8458  -26.0747   13.1307 N   0  0  0  0  0  0  0  0  0  0  0  0
  -27.5623  -20.6883   16.0873 N   0  0  0  0  0  0  0  0  0  0  0  0
  -29.7776  -17.9084   16.7448 N   0  3  0  0  0  0  0  0  0  0  0  0
  -22.6636  -14.7195   21.3246 O   0  0  0  0  0  0  0  0  0  0  0  0
  -27.2188  -26.0359   14.7962 O   0  0  0  0  0  0  0  0  0  0  0  0
  -28.2070  -22.6132   14.3915 O   0  0  0  0  0  0  0  0  0  0  0  0
  -28.6502  -20.1275   18.0568 O   0  0  0  0  0  0  0  0  0  0  0  0
  -31.8581  -14.9389   20.1953 O   0  0  0  0  0  0  0  0  0  0  0  0
  -21.6148   -7.0159   21.7006 O   0  0  0  0  0  0  0  0  0  0  0  0
  -31.3478  -24.4394   21.3286 O   0  0  0  0  0  0  0  0  0  1  0  0
  -18.6225   -6.8503   26.3291 F   0  0  0  0  0  0  0  0  0  0  0  0
  -22.0647   -5.0694   23.6115 F   0  0  0  0  0  0  0  0  0  0  0  0
  1  2  1  0  0  0  0
  1  5  2  0  0  0  0
  2  6  2  0  0  0  0
  3 10  2  0  0  0  0
  3 18  1  0  0  0  0
  4 11  1  0  0  0  0
  4 18  2  0  0  0  0
  5 20  1  0  0  0  0
  6 22  1  0  0  0  0
  7 12  2  0  0  0  0
  7 21  1  0  0  0  0
  8  9  2  0  0  0  0
  8 24  1  0  0  0  0
  9 26  1  0  0  0  0
 10 27  1  0  0  0  0
 11 27  2  0  0  0  0
 12 28  1  0  0  0  0
 13 14  2  0  0  0  0
 13 29  1  0  0  0  0
 14 30  1  0  0  0  0
 15 23  1  0  0  0  0
 15 28  2  0  0  0  0
 16 25  1  0  0  0  0
 16 26  2  0  0  0  0
 17 30  2  0  0  0  0
 17 31  1  0  0  0  0
 18 32  1  0  0  0  0
 19 32  1  0  0  0  0
 19 33  2  0  0  0  0
 19 36  1  0  0  0  0
 20 22  2  0  0  0  0
 20 41  1  0  0  0  0
 21 23  2  0  0  0  0
 21 42  1  0  0  0  0
 22 50  1  0  0  0  0
 23 43  1  0  0  0  0
 24 25  2  0  0  0  0
 24 59  1  0  0  0  0
 25 58  1  0  0  0  0
 26 72  1  0  0  0  0
 27 81  1  0  0  0  0
 28 82  1  0  0  0  0
 29 31  2  0  0  0  0
 29 81  1  0  0  0  0
 30 83  1  0  0  0  0
 31 84  1  0  0  0  0
 32 66  2  0  0  0  0
 33 67  1  0  0  0  0
 33 70  1  0  0  0  0
 34 35  2  0  0  0  0
 35 58  1  0  0  0  0
 36 71  1  0  0  0  0
 36 76  2  0  0  0  0
 37 51  1  0  0  0  0
 37 73  1  0  0  0  0
 37 77  2  0  0  0  0
 38 63  1  0  0  0  0
 38 68  1  0  0  0  0
 38 78  2  0  0  0  0
 39 64  1  0  0  0  0
 39 74  1  0  0  0  0
 39 79  2  0  0  0  0
 40 69  1  0  0  0  0
 40 72  1  0  0  0  0
 40 80  2  0  0  0  0
 41 44  1  0  0  0  0
 42 51  1  0  0  0  0
 43 68  1  0  0  0  0
 44 46  1  0  0  0  0
 45 47  1  0  0  0  0
 45 48  1  0  0  0  0
 46 50  1  0  0  0  0
 47 52  1  0  0  0  0
 48 69  1  0  0  0  0
 49 52  1  0  0  0  0
 49 69  1  0  0  0  0
 50 73  1  0  0  0  0
 51 68  1  0  0  0  0
 52 67  1  0  0  0  0
 53 64  1  0  0  0  0
 54 65  1  0  0  0  0
 55 65  1  0  0  0  0
 56 65  1  0  0  0  0
 57 75  1  0  0  0  0
 59 60  1  0  0  0  0
 60 61  1  0  0  0  0
 61 62  1  0  0  0  0
 62 82  1  0  0  0  0
 63 65  1  0  0  0  0
 63 74  1  0  0  0  0
 64 75  1  0  0  0  0
 66 67  1  0  0  0  0
M  CHG  1  75   1
M  ISO  4  40 100  62 101  72 100  82 101
M  END
> <Batch ID>
0127

> <Smiles>
C=CCc1cc([100NH:0][100C:0](=O)N2CCCC(n3nc(-c4ccc(Oc5ccc(F)cc5F)cc4)c(C(N)=O)c3N)C2)ccc1CCC[101CH2:1][101O:1]c1ccc2c(c1)CN(C(=O)C(NC(=O)C(C)NC)C(C)(C)C)C(C(=O)NC1CCCc3ccccc31)C2

> <Shape>
0.214

> <Color>
0.196

> <Negative vol penalty>
0.000

$$$$

  -OEChem-04052302143D

 84 92  0     1  0  0  0  0  0999 V2000
  -20.3089  -24.4512   23.4439 C   0  0  0  0  0  0  0  0  0  0  0  0
  -21.4403  -24.9187   22.7832 C   0  0  0  0  0  0  0  0  0  0  0  0
  -24.2473  -15.0708   25.9738 C   0  0  0  0  0  0  0  0  0  0  0  0
  -22.1126  -15.5078   24.9301 C   0  0  0  0  0  0  0  0  0  0  0  0
  -19.1790  -25.2614   23.5477 C   0  0  0  0  0  0  0  0  0  0  0  0
  -21.4422  -26.1965   22.2248 C   0  0  0  0  0  0  0  0  0  0  0  0
  -25.7034  -28.7453   23.2200 C   0  0  0  0  0  0  0  0  0  0  0  0
  -23.6005  -14.7797   27.1749 C   0  0  0  0  0  0  0  0  0  0  0  0
  -21.4658  -15.2166   26.1311 C   0  0  0  0  0  0  0  0  0  0  0  0
  -26.8299  -28.4217   22.4651 C   0  0  0  0  0  0  0  0  0  0  0  0
  -20.5583  -12.4618   27.8654 C   0  0  0  0  0  0  0  0  0  0  0  0
  -19.4296  -11.6442   27.8102 C   0  0  0  0  0  0  0  0  0  0  0  0
  -30.2702  -23.0229   18.2415 C   0  0  0  0  0  0  0  0  0  0  0  0
  -31.8286  -23.9013   16.6176 C   0  0  0  0  0  0  0  0  0  0  0  0
  -31.6792  -21.5177   16.9821 C   0  0  0  0  0  0  0  0  0  0  0  0
  -26.4406  -30.3498   21.0686 C   0  0  0  0  0  0  0  0  0  0  0  0
  -18.0978  -13.4182   28.7676 C   0  0  0  0  0  0  0  0  0  0  0  0
  -23.5034  -15.4349   24.8514 C   0  0  0  0  0  0  0  0  0  0  0  0
  -30.8395  -24.1103   17.5787 C   0  0  0  0  0  0  0  0  0  0  0  0
  -30.6901  -21.7266   17.9432 C   0  0  0  0  0  0  0  0  0  0  0  0
  -24.4917  -14.8357   22.5773 C   0  0  0  0  0  0  0  0  0  0  0  0
  -19.1703  -26.5534   22.9988 C   0  0  0  0  0  0  0  0  0  0  0  0
  -24.9294  -29.8694   22.8976 C   0  0  0  0  0  0  0  0  0  0  0  0
  -20.3106  -27.0243   22.3202 C   0  0  0  0  0  0  0  0  0  0  0  0
  -25.3062  -30.6870   21.8226 C   0  0  0  0  0  0  0  0  0  0  0  0
  -32.2484  -22.6050   16.3193 C   0  0  0  0  0  0  0  0  0  0  0  0
  -22.2097  -14.8526   27.2535 C   0  0  0  0  0  0  0  0  0  0  0  0
  -27.1971  -29.2223   21.3874 C   0  0  0  0  0  0  0  0  0  0  0  0
  -20.4568  -13.7576   28.3718 C   0  0  0  0  0  0  0  0  0  0  0  0
  -18.1993  -12.1224   28.2613 C   0  0  0  0  0  0  0  0  0  0  0  0
  -19.2266  -14.2358   28.8228 C   0  0  0  0  0  0  0  0  0  0  0  0
  -24.1710  -15.7363   23.6107 C   0  0  0  0  0  0  0  0  0  0  0  0
  -25.1133  -15.6096   21.6280 C   0  0  0  0  0  0  0  0  0  0  0  0
  -30.3956  -25.4797   17.8934 C   0  0  0  0  0  0  0  0  0  0  0  0
  -30.0962  -20.5926   18.6339 C   0  0  0  0  0  0  0  0  0  0  0  0
  -29.7624  -25.8346   19.0202 C   0  0  0  0  0  0  0  0  0  0  0  0
  -29.4376  -20.6499   19.8110 C   0  0  0  0  0  0  0  0  0  0  0  0
  -24.2493  -13.4257   22.4838 C   0  0  0  0  0  0  0  0  0  0  0  0
  -29.3451  -27.2501   19.2388 C   0  0  0  0  0  0  0  0  0  0  0  0
  -28.8805  -19.4071   20.3818 C   0  0  0  0  0  0  0  0  0  0  0  0
  -21.9186  -30.3347   21.9910 C   0  0  0  0  0  0  0  0  0  0  0  0
  -22.7189  -33.4630   22.2999 C   0  0  0  0  0  0  0  0  0  0  0  0
  -25.1709  -35.8364   22.3349 C   0  0  0  0  0  0  0  0  0  0  0  0
  -17.9090  -27.3747   23.0951 C   0  0  0  0  0  0  0  0  0  0  0  0
  -23.7324  -30.2200   23.7382 C   0  0  0  0  0  0  0  0  0  0  0  0
  -24.5206  -31.9161   21.4477 C   0  0  0  0  0  0  0  0  0  0  0  0
  -18.1236  -28.8573   22.8018 C   0  0  0  0  0  0  0  0  0  0  0  0
  -25.5174  -20.6174   21.1922 C   0  0  0  0  0  0  0  0  0  0  0  0
  -18.9696  -29.0359   21.5451 C   0  0  0  0  0  0  0  0  0  0  0  0
  -24.9129  -19.3826   21.8553 C   0  0  0  0  0  0  0  0  0  0  0  0
  -27.0111  -20.7502   21.4853 C   0  0  0  0  0  0  0  0  0  0  0  0
  -27.1935  -18.2984   21.7951 C   0  0  0  0  0  0  0  0  0  0  0  0
  -20.3599  -28.4139   21.7230 C   0  0  1  0  0  0  0  0  0  0  0  0
  -22.7235  -31.0980   23.0045 C   0  0  1  0  0  0  0  0  0  0  0  0
  -25.7013  -18.1194   21.4748 C   0  0  1  0  0  0  0  0  0  0  0  0
  -33.3054  -22.3813   15.2912 C   0  0  0  0  0  0  0  0  0  0  0  0
  -25.5139  -38.3111   22.5708 C   0  0  0  0  0  0  0  0  0  0  0  0
  -21.7205  -33.8711   19.4457 C   0  0  0  0  0  0  0  0  0  0  0  0
  -22.9361  -36.0594   19.4075 C   0  0  0  0  0  0  0  0  0  0  0  0
  -21.0883  -35.6895   21.0420 C   0  0  0  0  0  0  0  0  0  0  0  0
  -26.8350  -35.4920   24.7579 C   0  0  0  0  0  0  0  0  0  0  0  0
  -28.6385  -27.5267   20.5490 C   0  0  0  0  0  0  0  0  0  1  0  0
  -23.3000  -34.5133   21.3844 C   0  0  1  0  0  0  0  0  0  0  0  0
  -25.4562  -36.9759   23.2965 C   0  0  2  0  0  0  0  0  0  0  0  0
  -22.2751  -35.0092   20.3255 C   0  0  0  0  0  0  0  0  0  0  0  0
  -24.5571  -16.9867   23.3432 N   0  0  0  0  0  0  0  0  0  0  0  0
  -25.1270  -16.8773   22.1310 N   0  0  0  0  0  0  0  0  0  0  0  0
  -27.7343  -19.5096   21.1680 N   0  0  0  0  0  0  0  0  0  0  0  0
  -23.3547  -32.2134   22.2961 N   0  0  0  0  0  0  0  0  0  0  0  0
  -25.6442  -15.3226   20.4204 N   0  0  0  0  0  0  0  0  0  0  0  0
  -23.5988  -12.7875   23.5487 N   0  0  0  0  0  0  0  0  0  0  0  0
  -21.2022  -29.2787   22.5212 N   0  0  0  0  0  0  0  0  0  0  0  0
  -23.8216  -35.5657   22.2498 N   0  0  0  0  0  0  0  0  0  0  0  0
  -26.7599  -36.7585   23.9850 N   0  3  0  0  0  0  0  0  0  0  0  0
  -24.6138  -12.7487   21.4927 O   0  0  0  0  0  0  0  0  0  0  0  0
  -29.5621  -28.1296   18.4096 O   0  0  0  0  0  0  0  0  0  0  0  0
  -29.4678  -18.3531   20.1312 O   0  0  0  0  0  0  0  0  0  0  0  0
  -21.9444  -30.6792   20.8152 O   0  0  0  0  0  0  0  0  0  0  0  0
  -21.7414  -33.7433   22.9982 O   0  0  0  0  0  0  0  0  0  0  0  0
  -26.0562  -35.2480   21.7180 O   0  0  0  0  0  0  0  0  0  0  0  0
  -21.5782  -14.5683   28.4252 O   0  0  0  0  0  0  0  0  0  0  0  0
  -28.2959  -28.9083   20.6485 O   0  0  0  0  0  0  0  0  0  1  0  0
  -17.1151  -11.3377   28.2068 F   0  0  0  0  0  0  0  0  0  0  0  0
  -19.1226  -15.4801   29.3092 F   0  0  0  0  0  0  0  0  0  0  0  0
  1  2  1  0  0  0  0
  1  5  2  0  0  0  0
  2  6  2  0  0  0  0
  3  8  2  0  0  0  0
  3 18  1  0  0  0  0
  4  9  1  0  0  0  0
  4 18  2  0  0  0  0
  5 22  1  0  0  0  0
  6 24  1  0  0  0  0
  7 10  2  0  0  0  0
  7 23  1  0  0  0  0
  8 27  1  0  0  0  0
  9 27  2  0  0  0  0
 10 28  1  0  0  0  0
 11 12  2  0  0  0  0
 11 29  1  0  0  0  0
 12 30  1  0  0  0  0
 13 19  2  0  0  0  0
 13 20  1  0  0  0  0
 14 19  1  0  0  0  0
 14 26  2  0  0  0  0
 15 20  2  0  0  0  0
 15 26  1  0  0  0  0
 16 25  1  0  0  0  0
 16 28  2  0  0  0  0
 17 30  2  0  0  0  0
 17 31  1  0  0  0  0
 18 32  1  0  0  0  0
 19 34  1  0  0  0  0
 20 35  1  0  0  0  0
 21 32  1  0  0  0  0
 21 33  2  0  0  0  0
 21 38  1  0  0  0  0
 22 24  2  0  0  0  0
 22 44  1  0  0  0  0
 23 25  2  0  0  0  0
 23 45  1  0  0  0  0
 24 53  1  0  0  0  0
 25 46  1  0  0  0  0
 26 56  1  0  0  0  0
 27 81  1  0  0  0  0
 28 82  1  0  0  0  0
 29 31  2  0  0  0  0
 29 81  1  0  0  0  0
 30 83  1  0  0  0  0
 31 84  1  0  0  0  0
 32 66  2  0  0  0  0
 33 67  1  0  0  0  0
 33 70  1  0  0  0  0
 34 36  2  0  0  0  0
 35 37  2  0  0  0  0
 36 39  1  0  0  0  0
 37 40  1  0  0  0  0
 38 71  1  0  0  0  0
 38 75  2  0  0  0  0
 39 62  1  0  0  0  0
 39 76  2  0  0  0  0
 40 68  1  0  0  0  0
 40 77  2  0  0  0  0
 41 54  1  0  0  0  0
 41 72  1  0  0  0  0
 41 78  2  0  0  0  0
 42 63  1  0  0  0  0
 42 69  1  0  0  0  0
 42 79  2  0  0  0  0
 43 64  1  0  0  0  0
 43 73  1  0  0  0  0
 43 80  2  0  0  0  0
 44 47  1  0  0  0  0
 45 54  1  0  0  0  0
 46 69  1  0  0  0  0
 47 49  1  0  0  0  0
 48 50  1  0  0  0  0
 48 51  1  0  0  0  0
 49 53  1  0  0  0  0
 50 55  1  0  0  0  0
 51 68  1  0  0  0  0
 52 55  1  0  0  0  0
 52 68  1  0  0  0  0
 53 72  1  0  0  0  0
 54 69  1  0  0  0  0
 55 67  1  0  0  0  0
 57 64  1  0  0  0  0
 58 65  1  0  0  0  0
 59 65  1  0  0  0  0
 60 65  1  0  0  0  0
 61 74  1  0  0  0  0
 62 82  1  0  0  0  0
 63 65  1  0  0  0  0
 63 73  1  0  0  0  0
 64 74  1  0  0  0  0
 66 67  1  0  0  0  0
M  CHG  1  74   1
M  ISO  4  37 100  40 100  62 101  82 101
M  END
> <Batch ID>
0127

> <Smiles>
CNC(C)C(=O)NC(C(=O)N1Cc2cc([101O:1][101CH2:1]C(=O)C=Cc3cc(C)cc(C=[100CH:0][100C:0](=O)N4CCCC(n5nc(-c6ccc(Oc7ccc(F)cc7F)cc6)c(C(N)=O)c5N)C4)c3)ccc2CC1C(=O)NC1CCCc2ccccc21)C(C)(C)C

> <Shape>
0.218

> <Color>
0.120

> <Negative vol penalty>
0.000

$$$$

  -OEChem-04052302143D

 83 92  0     1  0  0  0  0  0999 V2000
  -29.4909  -33.7077   27.3110 C   0  0  0  0  0  0  0  0  0  0  0  0
  -29.0672  -32.6881   26.4646 C   0  0  0  0  0  0  0  0  0  0  0  0
  -23.7967   -9.5451   22.2818 C   0  0  0  0  0  0  0  0  0  0  0  0
  -23.6293   -9.2708   19.8873 C   0  0  0  0  0  0  0  0  0  0  0  0
  -27.0187  -21.7814   22.0373 C   0  0  0  0  0  0  0  0  0  0  0  0
  -28.6100  -34.7282   27.6665 C   0  0  0  0  0  0  0  0  0  0  0  0
  -27.7619  -32.6879   25.9741 C   0  0  0  0  0  0  0  0  0  0  0  0
  -27.0593  -23.1720   21.9094 C   0  0  0  0  0  0  0  0  0  0  0  0
  -27.5461  -31.6324   21.0259 C   0  0  0  0  0  0  0  0  0  0  0  0
  -22.8490   -8.5379   22.4635 C   0  0  0  0  0  0  0  0  0  0  0  0
  -22.6816   -8.2635   20.0689 C   0  0  0  0  0  0  0  0  0  0  0  0
  -27.6785  -30.2953   20.6538 C   0  0  0  0  0  0  0  0  0  0  0  0
  -22.7634   -5.1582   22.4046 C   0  0  0  0  0  0  0  0  0  0  0  0
  -23.0224   -4.1922   23.3768 C   0  0  0  0  0  0  0  0  0  0  0  0
  -29.3011  -21.5936   21.2206 C   0  0  0  0  0  0  0  0  0  0  0  0
  -25.2835  -30.1306   20.4162 C   0  0  0  0  0  0  0  0  0  0  0  0
  -21.0007   -4.8212   24.5405 C   0  0  0  0  0  0  0  0  0  0  0  0
  -24.1868   -9.9116   20.9937 C   0  0  0  0  0  0  0  0  0  0  0  0
  -28.1314  -20.9979   21.6952 C   0  0  0  0  0  0  0  0  0  0  0  0
  -26.5626  -10.8010   20.7249 C   0  0  0  0  0  0  0  0  0  0  0  0
  -27.2961  -34.7458   27.1724 C   0  0  0  0  0  0  0  0  0  0  0  0
  -26.2785  -32.2266   21.1068 C   0  0  0  0  0  0  0  0  0  0  0  0
  -28.2183  -23.7581   21.4249 C   0  0  0  0  0  0  0  0  0  0  0  0
  -26.8621  -33.7090   26.3244 C   0  0  0  0  0  0  0  0  0  0  0  0
  -29.3281  -22.9719   21.0850 C   0  0  0  0  0  0  0  0  0  0  0  0
  -25.1380  -31.4761   20.7872 C   0  0  0  0  0  0  0  0  0  0  0  0
  -22.2915   -7.8971   21.3571 C   0  0  0  0  0  0  0  0  0  0  0  0
  -26.5469  -29.5434   20.3516 C   0  0  0  0  0  0  0  0  0  0  0  0
  -21.6231   -5.9559   22.5004 C   0  0  0  0  0  0  0  0  0  0  0  0
  -22.1411   -4.0236   24.4448 C   0  0  0  0  0  0  0  0  0  0  0  0
  -20.7417   -5.7873   23.5683 C   0  0  0  0  0  0  0  0  0  0  0  0
  -25.1653  -10.9524   20.8054 C   0  0  0  0  0  0  0  0  0  0  0  0
  -27.0364  -12.0776   20.5447 C   0  0  0  0  0  0  0  0  0  0  0  0
  -28.0671  -19.5518   21.8439 C   0  0  0  0  0  0  0  0  0  0  0  0
  -26.9340  -18.8227   21.9222 C   0  0  0  0  0  0  0  0  0  0  0  0
  -27.3608   -9.6128   20.8057 C   0  0  0  0  0  0  0  0  0  0  0  0
  -27.0342  -17.3561   22.0622 C   0  0  0  0  0  0  0  0  0  0  0  0
  -24.5641  -33.5462   23.4355 C   0  0  0  0  0  0  0  0  0  0  0  0
  -22.5465  -34.2806   21.0041 C   0  0  0  0  0  0  0  0  0  0  0  0
  -21.4149  -33.5711   17.8635 C   0  0  0  0  0  0  0  0  0  0  0  0
  -26.3659  -35.8443   27.6224 C   0  0  0  0  0  0  0  0  0  0  0  0
  -26.1547  -33.6774   21.4839 C   0  0  0  0  0  0  0  0  0  0  0  0
  -30.4719  -23.8241   20.6325 C   0  0  0  0  0  0  0  0  0  0  0  0
  -23.7560  -32.0727   20.8390 C   0  0  0  0  0  0  0  0  0  0  0  0
  -25.1129  -35.9728   26.7600 C   0  0  0  0  0  0  0  0  0  0  0  0
  -29.7446  -25.1312   20.2866 C   0  0  0  0  0  0  0  0  0  0  0  0
  -24.6279  -16.3775   19.4768 C   0  0  0  0  0  0  0  0  0  0  0  0
  -24.4927  -34.6014   26.5118 C   0  0  0  0  0  0  0  0  0  0  0  0
  -24.6387  -14.8585   19.6255 C   0  0  0  0  0  0  0  0  0  0  0  0
  -24.8223  -17.0846   20.8173 C   0  0  0  0  0  0  0  0  0  0  0  0
  -26.0538  -15.1242   21.7009 C   0  0  0  0  0  0  0  0  0  0  0  0
  -28.5295  -25.2171   21.2342 C   0  0  1  0  0  0  0  0  0  0  0  0
  -25.4614  -33.6873   25.7519 C   0  0  1  0  0  0  0  0  0  0  0  0
  -24.7769  -34.0369   22.0314 C   0  0  1  0  0  0  0  0  0  0  0  0
  -25.9069  -14.3922   20.3578 C   0  0  1  0  0  0  0  0  0  0  0  0
  -19.7333  -34.3223   16.1591 C   0  0  0  0  0  0  0  0  0  0  0  0
  -20.3241  -32.9421   22.6102 C   0  0  0  0  0  0  0  0  0  0  0  0
  -18.9499  -32.8722   20.5185 C   0  0  0  0  0  0  0  0  0  0  0  0
  -19.6549  -35.0665   21.4728 C   0  0  0  0  0  0  0  0  0  0  0  0
  -23.5271  -34.2116   15.8919 C   0  0  0  0  0  0  0  0  0  0  0  0
  -27.3997  -26.0487   20.6464 C   0  0  0  0  0  0  0  0  0  0  0  0
  -27.7790  -27.5172   20.5309 C   0  0  0  0  0  0  0  0  0  1  0  0
  -21.3741  -33.5961   20.3439 C   0  0  1  0  0  0  0  0  0  0  0  0
  -21.1630  -34.4598   16.6589 C   0  0  2  0  0  0  0  0  0  0  0  0
  -20.1015  -33.6071   21.2372 C   0  0  0  0  0  0  0  0  0  0  0  0
  -24.7767  -12.2247   20.6863 N   0  0  0  0  0  0  0  0  0  0  0  0
  -25.9369  -12.8845   20.5292 N   0  0  0  0  0  0  0  0  0  0  0  0
  -26.0086  -16.5801   21.5250 N   0  0  0  0  0  0  0  0  0  0  0  0
  -23.6864  -33.4933   21.2193 N   0  0  0  0  0  0  0  0  0  0  0  0
  -28.2820  -12.5773   20.3997 N   0  0  0  0  0  0  0  0  0  0  0  0
  -26.7130   -8.3841   20.9925 N   0  0  0  0  0  0  0  0  0  0  0  0
  -25.4833  -34.0310   24.3463 N   0  0  0  0  0  0  0  0  0  0  0  0
  -21.2002  -34.2434   19.0481 N   0  0  0  0  0  0  0  0  0  0  0  0
  -22.0866  -34.0986   15.5465 N   0  3  0  0  0  0  0  0  0  0  0  0
  -28.6127   -9.6417   20.7314 O   0  0  0  0  0  0  0  0  0  0  0  0
  -28.0190  -16.9071   22.6515 O   0  0  0  0  0  0  0  0  0  0  0  0
  -23.6339  -32.7853   23.6752 O   0  0  0  0  0  0  0  0  0  0  0  0
  -22.4567  -35.4721   21.3109 O   0  0  0  0  0  0  0  0  0  0  0  0
  -21.7635  -32.3967   17.7637 O   0  0  0  0  0  0  0  0  0  0  0  0
  -21.3669   -6.9140   21.5339 O   0  0  0  0  0  0  0  0  0  0  0  0
  -26.6732  -28.2380   19.9887 O   0  0  0  0  0  0  0  0  0  1  0  0
  -22.3891   -3.0948   25.3775 F   0  0  0  0  0  0  0  0  0  0  0  0
  -19.6439   -6.5497   23.6650 F   0  0  0  0  0  0  0  0  0  0  0  0
  1  2  1  0  0  0  0
  1  6  2  0  0  0  0
  2  7  2  0  0  0  0
  3 10  2  0  0  0  0
  3 18  1  0  0  0  0
  4 11  1  0  0  0  0
  4 18  2  0  0  0  0
  5  8  2  0  0  0  0
  5 19  1  0  0  0  0
  6 21  1  0  0  0  0
  7 24  1  0  0  0  0
  8 23  1  0  0  0  0
  9 12  2  0  0  0  0
  9 22  1  0  0  0  0
 10 27  1  0  0  0  0
 11 27  2  0  0  0  0
 12 28  1  0  0  0  0
 13 14  2  0  0  0  0
 13 29  1  0  0  0  0
 14 30  1  0  0  0  0
 15 19  2  0  0  0  0
 15 25  1  0  0  0  0
 16 26  1  0  0  0  0
 16 28  2  0  0  0  0
 17 30  2  0  0  0  0
 17 31  1  0  0  0  0
 18 32  1  0  0  0  0
 19 34  1  0  0  0  0
 20 32  1  0  0  0  0
 20 33  2  0  0  0  0
 20 36  1  0  0  0  0
 21 24  2  0  0  0  0
 21 41  1  0  0  0  0
 22 26  2  0  0  0  0
 22 42  1  0  0  0  0
 23 25  2  0  0  0  0
 23 52  1  0  0  0  0
 24 53  1  0  0  0  0
 25 43  1  0  0  0  0
 26 44  1  0  0  0  0
 27 80  1  0  0  0  0
 28 81  1  0  0  0  0
 29 31  2  0  0  0  0
 29 80  1  0  0  0  0
 30 82  1  0  0  0  0
 31 83  1  0  0  0  0
 32 66  2  0  0  0  0
 33 67  1  0  0  0  0
 33 70  1  0  0  0  0
 34 35  2  0  0  0  0
 35 37  1  0  0  0  0
 36 71  1  0  0  0  0
 36 75  2  0  0  0  0
 37 68  1  0  0  0  0
 37 76  2  0  0  0  0
 38 54  1  0  0  0  0
 38 72  1  0  0  0  0
 38 77  2  0  0  0  0
 39 63  1  0  0  0  0
 39 69  1  0  0  0  0
 39 78  2  0  0  0  0
 40 64  1  0  0  0  0
 40 73  1  0  0  0  0
 40 79  2  0  0  0  0
 41 45  1  0  0  0  0
 42 54  1  0  0  0  0
 43 46  1  0  0  0  0
 44 69  1  0  0  0  0
 45 48  1  0  0  0  0
 46 52  1  0  0  0  0
 47 49  1  0  0  0  0
 47 50  1  0  0  0  0
 48 53  1  0  0  0  0
 49 55  1  0  0  0  0
 50 68  1  0  0  0  0
 51 55  1  0  0  0  0
 51 68  1  0  0  0  0
 52 61  1  0  0  0  0
 53 72  1  0  0  0  0
 54 69  1  0  0  0  0
 55 67  1  0  0  0  0
 56 64  1  0  0  0  0
 57 65  1  0  0  0  0
 58 65  1  0  0  0  0
 59 65  1  0  0  0  0
 60 74  1  0  0  0  0
 61 62  1  0  0  0  0
 62 81  1  0  0  0  0
 63 65  1  0  0  0  0
 63 73  1  0  0  0  0
 64 74  1  0  0  0  0
 66 67  1  0  0  0  0
M  CHG  1  74   1
M  ISO  4  35 100  37 100  62 101  81 101
M  END
> <Batch ID>
0127

> <Smiles>
CNC(C)C(=O)NC(C(=O)N1Cc2cc([101O:1][101CH2:1]CC3CCc4cc(C=[100CH:0][100C:0](=O)N5CCCC(n6nc(-c7ccc(Oc8ccc(F)cc8F)cc7)c(C(N)=O)c6N)C5)ccc43)ccc2CC1C(=O)NC1CCCc2ccccc21)C(C)(C)C

> <Shape>
0.235

> <Color>
0.098

> <Negative vol penalty>
0.000

$$$$

  -OEChem-04052302143D

 84 92  0     1  0  0  0  0  0999 V2000
  -24.0193  -19.1180   21.8835 C   0  0  0  0  0  0  0  0  0  0  0  0
  -25.3978  -18.9308   21.8801 C   0  0  0  0  0  0  0  0  0  0  0  0
  -23.2527  -10.0144   19.8009 C   0  0  0  0  0  0  0  0  0  0  0  0
  -23.8586   -9.8301   22.1325 C   0  0  0  0  0  0  0  0  0  0  0  0
  -23.4426  -20.0584   21.0309 C   0  0  0  0  0  0  0  0  0  0  0  0
  -26.2004  -19.6832   21.0232 C   0  0  0  0  0  0  0  0  0  0  0  0
  -31.8630  -21.7331   22.1360 C   0  0  0  0  0  0  0  0  0  0  0  0
  -22.5403   -8.8186   19.8915 C   0  0  0  0  0  0  0  0  0  0  0  0
  -23.1461   -8.6343   22.2230 C   0  0  0  0  0  0  0  0  0  0  0  0
  -33.1218  -21.2537   21.7760 C   0  0  0  0  0  0  0  0  0  0  0  0
  -19.9194   -7.6759   22.5239 C   0  0  0  0  0  0  0  0  0  0  0  0
  -19.0890   -7.5003   23.6307 C   0  0  0  0  0  0  0  0  0  0  0  0
  -33.1460  -22.7535   19.8868 C   0  0  0  0  0  0  0  0  0  0  0  0
  -33.7190  -16.6560   16.5885 C   0  0  0  0  0  0  0  0  0  0  0  0
  -20.3549   -5.5445   24.2703 C   0  0  0  0  0  0  0  0  0  0  0  0
  -23.9119  -10.5201   20.9214 C   0  0  0  0  0  0  0  0  0  0  0  0
  -24.1604  -13.0553   21.0582 C   0  0  0  0  0  0  0  0  0  0  0  0
  -24.2394  -20.8296   20.1700 C   0  0  0  0  0  0  0  0  0  0  0  0
  -31.2305  -22.7202   21.3665 C   0  0  0  0  0  0  0  0  0  0  0  0
  -25.6337  -20.6339   20.1573 C   0  0  0  0  0  0  0  0  0  0  0  0
  -31.8804  -23.2455   20.2406 C   0  0  0  0  0  0  0  0  0  0  0  0
  -34.8497  -17.4804   16.3202 C   0  0  0  0  0  0  0  0  0  0  0  0
  -22.4870   -8.1286   21.1025 C   0  0  0  0  0  0  0  0  0  0  0  0
  -33.7622  -21.7618   20.6496 C   0  0  0  0  0  0  0  0  0  0  0  0
  -20.9676   -6.7857   22.2902 C   0  0  0  0  0  0  0  0  0  0  0  0
  -19.3067   -6.4346   24.5039 C   0  0  0  0  0  0  0  0  0  0  0  0
  -21.1854   -5.7200   23.1634 C   0  0  0  0  0  0  0  0  0  0  0  0
  -24.6484  -11.7550   20.8284 C   0  0  0  0  0  0  0  0  0  0  0  0
  -32.6002  -17.3971   16.8991 C   0  0  0  0  0  0  0  0  0  0  0  0
  -34.5519  -18.8205   16.4357 C   0  0  0  0  0  0  0  0  0  0  0  0
  -25.2436  -13.8717   20.8422 C   0  0  0  0  0  0  0  0  0  0  0  0
  -31.3041  -16.9411   17.2212 C   0  0  0  0  0  0  0  0  0  0  0  0
  -30.8874  -15.6334   17.3138 C   0  0  0  0  0  0  0  0  0  0  0  0
  -22.8455  -13.4866   21.4335 C   0  0  0  0  0  0  0  0  0  0  0  0
  -35.4314  -19.9965   16.2419 C   0  0  0  0  0  0  0  0  0  0  0  0
  -29.4908  -15.3154   17.6732 C   0  0  0  0  0  0  0  0  0  0  0  0
  -28.5367  -22.8707   19.6860 C   0  0  0  0  0  0  0  0  0  0  0  0
  -29.3632  -25.9920   19.3751 C   0  0  0  0  0  0  0  0  0  0  0  0
  -31.8289  -28.3513   19.3886 C   0  0  0  0  0  0  0  0  0  0  0  0
  -23.5661  -21.8004   19.2327 C   0  0  0  0  0  0  0  0  0  0  0  0
  -29.8843  -23.2458   21.7834 C   0  0  0  0  0  0  0  0  0  0  0  0
  -31.2530  -24.3205   19.3925 C   0  0  0  0  0  0  0  0  0  0  0  0
  -24.5229  -22.8220   18.6234 C   0  0  0  0  0  0  0  0  0  0  0  0
  -30.1331  -12.7893   20.2496 C   0  0  0  0  0  0  0  0  0  0  0  0
  -25.7855  -22.1337   18.1145 C   0  0  0  0  0  0  0  0  0  0  0  0
  -28.7106  -12.3705   20.6114 C   0  0  0  0  0  0  0  0  0  0  0  0
  -30.2657  -13.1442   18.7694 C   0  0  0  0  0  0  0  0  0  0  0  0
  -27.8664  -13.7570   18.6761 C   0  0  0  0  0  0  0  0  0  0  0  0
  -26.5401  -21.4483   19.2600 C   0  0  1  0  0  0  0  0  0  0  0  0
  -29.1105  -23.8850   20.6345 C   0  0  1  0  0  0  0  0  0  0  0  0
  -27.6994  -13.4407   20.1706 C   0  0  1  0  0  0  0  0  0  0  0  0
  -36.9458  -16.3954   17.1662 C   0  0  0  0  0  0  0  0  0  0  0  0
  -32.2029  -30.8117   19.0661 C   0  0  0  0  0  0  0  0  0  0  0  0
  -29.0785  -25.6373   16.3580 C   0  0  0  0  0  0  0  0  0  0  0  0
  -30.3533  -27.7710   16.0570 C   0  0  0  0  0  0  0  0  0  0  0  0
  -28.1608  -27.7872   17.2468 C   0  0  0  0  0  0  0  0  0  0  0  0
  -32.8638  -28.6730   22.1426 C   0  0  0  0  0  0  0  0  0  0  0  0
  -36.1843  -16.9444   15.9584 C   0  0  0  0  0  0  0  0  0  0  0  0
  -36.6585  -20.1110   17.1375 C   0  0  0  0  0  0  0  0  0  0  0  0
  -36.2573  -20.1495   18.6110 C   0  0  0  0  0  0  0  0  0  0  0  0
  -35.3139  -21.3065   18.9058 C   0  0  0  0  0  0  0  0  0  1  0  0
  -30.1831  -26.7876   18.3884 C   0  0  1  0  0  0  0  0  0  0  0  0
  -31.9249  -29.7042   20.0705 C   0  0  2  0  0  0  0  0  0  0  0  0
  -29.4552  -26.9741   17.0272 C   0  0  0  0  0  0  0  0  0  0  0  0
  -25.9410  -11.7413   20.4919 N   0  0  0  0  0  0  0  0  0  0  0  0
  -26.2743  -13.0431   20.5087 N   0  0  0  0  0  0  0  0  0  0  0  0
  -29.2505  -14.1256   18.3582 N   0  0  0  0  0  0  0  0  0  0  0  0
  -29.9331  -24.7974   19.8376 N   0  0  0  0  0  0  0  0  0  0  0  0
  -25.4053  -15.2104   20.9067 N   0  0  0  0  0  0  0  0  0  0  0  0
  -21.8504  -12.5163   21.6146 N   0  0  0  0  0  0  0  0  0  0  0  0
  -27.2765  -22.4238   20.0350 N   0  0  0  0  0  0  0  0  0  0  0  0
  -30.5277  -28.0372   19.0578 N   0  0  0  0  0  0  0  0  0  0  0  0
  -33.0213  -29.6990   21.0799 N   0  3  0  0  0  0  0  0  0  0  0  0
  -22.5574  -14.6977   21.5872 O   0  0  0  0  0  0  0  0  0  0  0  0
  -28.6202  -16.1215   17.3401 O   0  0  0  0  0  0  0  0  0  0  0  0
  -29.1883  -22.5206   18.7090 O   0  0  0  0  0  0  0  0  0  0  0  0
  -28.2608  -26.4184   19.7282 O   0  0  0  0  0  0  0  0  0  0  0  0
  -32.8106  -27.6456   19.1679 O   0  0  0  0  0  0  0  0  0  0  0  0
  -21.7917   -6.9618   21.1913 O   0  0  0  0  0  0  0  0  0  0  0  0
  -34.9905  -21.2952   20.2957 O   0  0  0  0  0  0  0  0  0  1  0  0
  -18.5101   -6.2670   25.5676 F   0  0  0  0  0  0  0  0  0  0  0  0
  -22.1915   -4.8623   22.9448 F   0  0  0  0  0  0  0  0  0  0  0  0
  -35.1162  -21.1644   15.0697 S   0  0  0  0  0  0  0  0  0  0  0  0
  -32.9150  -19.0801   16.8663 S   0  0  0  0  0  0  0  0  0  0  0  0
  1  2  1  0  0  0  0
  1  5  2  0  0  0  0
  2  6  2  0  0  0  0
  3  8  2  0  0  0  0
  3 16  1  0  0  0  0
  4  9  1  0  0  0  0
  4 16  2  0  0  0  0
  5 18  1  0  0  0  0
  6 20  1  0  0  0  0
  7 10  2  0  0  0  0
  7 19  1  0  0  0  0
  8 23  1  0  0  0  0
  9 23  2  0  0  0  0
 10 24  1  0  0  0  0
 11 12  2  0  0  0  0
 11 25  1  0  0  0  0
 12 26  1  0  0  0  0
 13 21  1  0  0  0  0
 13 24  2  0  0  0  0
 14 22  1  0  0  0  0
 14 29  2  0  0  0  0
 15 26  2  0  0  0  0
 15 27  1  0  0  0  0
 16 28  1  0  0  0  0
 17 28  1  0  0  0  0
 17 31  2  0  0  0  0
 17 34  1  0  0  0  0
 18 20  2  0  0  0  0
 18 40  1  0  0  0  0
 19 21  2  0  0  0  0
 19 41  1  0  0  0  0
 20 49  1  0  0  0  0
 21 42  1  0  0  0  0
 22 30  2  0  0  0  0
 22 58  1  0  0  0  0
 23 79  1  0  0  0  0
 24 80  1  0  0  0  0
 25 27  2  0  0  0  0
 25 79  1  0  0  0  0
 26 81  1  0  0  0  0
 27 82  1  0  0  0  0
 28 65  2  0  0  0  0
 29 32  1  0  0  0  0
 29 84  1  0  0  0  0
 30 35  1  0  0  0  0
 30 84  1  0  0  0  0
 31 66  1  0  0  0  0
 31 69  1  0  0  0  0
 32 33  2  0  0  0  0
 33 36  1  0  0  0  0
 34 70  1  0  0  0  0
 34 74  2  0  0  0  0
 35 59  1  0  0  0  0
 35 83  2  0  0  0  0
 36 67  1  0  0  0  0
 36 75  2  0  0  0  0
 37 50  1  0  0  0  0
 37 71  1  0  0  0  0
 37 76  2  0  0  0  0
 38 62  1  0  0  0  0
 38 68  1  0  0  0  0
 38 77  2  0  0  0  0
 39 63  1  0  0  0  0
 39 72  1  0  0  0  0
 39 78  2  0  0  0  0
 40 43  1  0  0  0  0
 41 50  1  0  0  0  0
 42 68  1  0  0  0  0
 43 45  1  0  0  0  0
 44 46  1  0  0  0  0
 44 47  1  0  0  0  0
 45 49  1  0  0  0  0
 46 51  1  0  0  0  0
 47 67  1  0  0  0  0
 48 51  1  0  0  0  0
 48 67  1  0  0  0  0
 49 71  1  0  0  0  0
 50 68  1  0  0  0  0
 51 66  1  0  0  0  0
 52 58  1  0  0  0  0
 53 63  1  0  0  0  0
 54 64  1  0  0  0  0
 55 64  1  0  0  0  0
 56 64  1  0  0  0  0
 57 73  1  0  0  0  0
 59 60  1  0  0  0  0
 60 61  1  0  0  0  0
 61 80  1  0  0  0  0
 62 64  1  0  0  0  0
 62 72  1  0  0  0  0
 63 73  1  0  0  0  0
 65 66  1  0  0  0  0
M  CHG  1  73   1
M  ISO  4  33 100  36 100  61 101  80 101
M  END
> <Batch ID>
0127

> <Smiles>
CCc1cc(C=[100CH:0][100C:0](=O)N2CCCC(n3nc(-c4ccc(Oc5ccc(F)cc5F)cc4)c(C(N)=O)c3N)C2)sc1C(=S)CC[101CH2:1][101O:1]c1ccc2c(c1)CN(C(=O)C(NC(=O)C(C)NC)C(C)(C)C)C(C(=O)NC1CCCc3ccccc31)C2

> <Shape>
0.197

> <Color>
0.194

> <Negative vol penalty>
0.000

$$$$

  -OEChem-04052302143D

 83 91  0     1  0  0  0  0  0999 V2000
  -29.0952  -18.6019   18.2065 C   0  0  0  0  0  0  0  0  0  0  0  0
  -27.9417  -19.3779   18.1558 C   0  0  0  0  0  0  0  0  0  0  0  0
  -24.5369  -15.9921   20.8501 C   0  0  0  0  0  0  0  0  0  0  0  0
  -26.7938  -16.6109   21.4505 C   0  0  0  0  0  0  0  0  0  0  0  0
  -30.1098  -18.9213   19.1078 C   0  0  0  0  0  0  0  0  0  0  0  0
  -27.8017  -20.4734   19.0072 C   0  0  0  0  0  0  0  0  0  0  0  0
  -24.8968  -27.0168   19.2542 C   0  0  0  0  0  0  0  0  0  0  0  0
  -25.0342  -15.0999   19.9002 C   0  0  0  0  0  0  0  0  0  0  0  0
  -27.2911  -15.7187   20.5006 C   0  0  0  0  0  0  0  0  0  0  0  0
  -24.0539  -27.7917   20.0497 C   0  0  0  0  0  0  0  0  0  0  0  0
  -29.1610  -13.3401   18.4848 C   0  0  0  0  0  0  0  0  0  0  0  0
  -30.2223  -12.5166   18.8605 C   0  0  0  0  0  0  0  0  0  0  0  0
  -20.6966  -27.4123   22.9585 C   0  0  0  0  0  0  0  0  0  0  0  0
  -25.9060  -28.2958   21.5108 C   0  0  0  0  0  0  0  0  0  0  0  0
  -18.0768  -28.1491   22.3450 C   0  0  0  0  0  0  0  0  0  0  0  0
  -28.8610  -11.5624   20.6137 C   0  0  0  0  0  0  0  0  0  0  0  0
  -25.4167  -16.7476   21.6252 C   0  0  0  0  0  0  0  0  0  0  0  0
  -19.7764  -26.4449   22.5548 C   0  0  0  0  0  0  0  0  0  0  0  0
  -24.6178  -17.4009   23.9582 C   0  0  0  0  0  0  0  0  0  0  0  0
  -29.9864  -20.0269   19.9639 C   0  0  0  0  0  0  0  0  0  0  0  0
  -26.2505  -26.8665   19.5877 C   0  0  0  0  0  0  0  0  0  0  0  0
  -28.8151  -20.8071   19.9217 C   0  0  0  0  0  0  0  0  0  0  0  0
  -26.7646  -27.5205   20.7165 C   0  0  0  0  0  0  0  0  0  0  0  0
  -20.3069  -28.7481   23.0555 C   0  0  0  0  0  0  0  0  0  0  0  0
  -18.4665  -26.8133   22.2480 C   0  0  0  0  0  0  0  0  0  0  0  0
  -18.9970  -29.1165   22.7487 C   0  0  0  0  0  0  0  0  0  0  0  0
  -26.4113  -14.9632   19.7255 C   0  0  0  0  0  0  0  0  0  0  0  0
  -24.5577  -28.4290   21.1798 C   0  0  0  0  0  0  0  0  0  0  0  0
  -27.9498  -13.2748   19.1736 C   0  0  0  0  0  0  0  0  0  0  0  0
  -30.0723  -11.6277   19.9250 C   0  0  0  0  0  0  0  0  0  0  0  0
  -27.7998  -12.3860   20.2380 C   0  0  0  0  0  0  0  0  0  0  0  0
  -24.9035  -17.6698   22.6062 C   0  0  0  0  0  0  0  0  0  0  0  0
  -24.1586  -18.5956   24.4563 C   0  0  0  0  0  0  0  0  0  0  0  0
  -20.2136  -25.0580   22.4631 C   0  0  0  0  0  0  0  0  0  0  0  0
  -21.2175  -24.6057   21.6845 C   0  0  0  0  0  0  0  0  0  0  0  0
  -24.7553  -16.1802   24.6977 C   0  0  0  0  0  0  0  0  0  0  0  0
  -21.5488  -23.1669   21.7094 C   0  0  0  0  0  0  0  0  0  0  0  0
  -28.1105  -24.4076   20.3610 C   0  0  0  0  0  0  0  0  0  0  0  0
  -30.4564  -26.6445   20.2354 C   0  0  0  0  0  0  0  0  0  0  0  0
  -31.3340  -29.9365   20.4323 C   0  0  0  0  0  0  0  0  0  0  0  0
  -31.0894  -20.3049   20.9543 C   0  0  0  0  0  0  0  0  0  0  0  0
  -27.1526  -26.0489   18.7044 C   0  0  0  0  0  0  0  0  0  0  0  0
  -28.2149  -27.4075   21.1066 C   0  0  0  0  0  0  0  0  0  0  0  0
  -31.0246  -21.7040   21.5614 C   0  0  0  0  0  0  0  0  0  0  0  0
  -24.5281  -23.3113   23.8389 C   0  0  0  0  0  0  0  0  0  0  0  0
  -29.6013  -22.0285   22.0040 C   0  0  0  0  0  0  0  0  0  0  0  0
  -24.9579  -21.8467   23.8423 C   0  0  0  0  0  0  0  0  0  0  0  0
  -23.9103  -23.7227   22.5034 C   0  0  0  0  0  0  0  0  0  0  0  0
  -23.2096  -21.3841   22.0789 C   0  0  0  0  0  0  0  0  0  0  0  0
  -28.6369  -22.0179   20.8118 C   0  0  1  0  0  0  0  0  0  0  0  0
  -28.3999  -25.5470   19.4253 C   0  0  1  0  0  0  0  0  0  0  0  0
  -23.7909  -20.9360   23.4289 C   0  0  1  0  0  0  0  0  0  0  0  0
  -17.4539  -25.8034   21.8120 C   0  0  0  0  0  0  0  0  0  0  0  0
  -18.5568  -30.5404   22.8456 C   0  0  0  0  0  0  0  0  0  0  0  0
  -33.3310  -31.4526   20.3267 C   0  0  0  0  0  0  0  0  0  0  0  0
  -31.2564  -25.7829   23.0510 C   0  0  0  0  0  0  0  0  0  0  0  0
  -32.5739  -27.9025   23.2500 C   0  0  0  0  0  0  0  0  0  0  0  0
  -33.1760  -26.2205   21.5089 C   0  0  0  0  0  0  0  0  0  0  0  0
  -30.2587  -31.3807   18.0835 C   0  0  0  0  0  0  0  0  0  0  0  0
  -21.3188  -29.7763   23.4942 C   0  0  0  0  0  0  0  0  0  0  0  0
  -21.8634  -30.6323   22.3486 C   0  0  0  0  0  0  0  0  0  0  0  0
  -22.6402  -29.8295   21.3115 C   0  0  0  0  0  0  0  0  0  1  0  0
  -31.0764  -27.6002   21.2258 C   0  0  1  0  0  0  0  0  0  0  0  0
  -32.2042  -30.8022   19.5391 C   0  0  2  0  0  0  0  0  0  0  0  0
  -31.9929  -26.8773   22.2529 C   0  0  0  0  0  0  0  0  0  0  0  0
  -24.6471  -18.9360   22.2670 N   0  0  0  0  0  0  0  0  0  0  0  0
  -24.1954  -19.4733   23.4130 N   0  0  0  0  0  0  0  0  0  0  0  0
  -22.8358  -22.8027   22.1011 N   0  0  0  0  0  0  0  0  0  0  0  0
  -29.0554  -26.5918   20.2146 N   0  0  0  0  0  0  0  0  0  0  0  0
  -23.7308  -18.9706   25.6806 N   0  0  0  0  0  0  0  0  0  0  0  0
  -25.2423  -15.0471   24.0320 N   0  0  0  0  0  0  0  0  0  0  0  0
  -28.7710  -23.2364   20.0425 N   0  0  0  0  0  0  0  0  0  0  0  0
  -31.7540  -28.6232   20.4367 N   0  0  0  0  0  0  0  0  0  0  0  0
  -31.3894  -31.8788   18.9083 N   0  3  0  0  0  0  0  0  0  0  0  0
  -24.4397  -16.0926   25.9086 O   0  0  0  0  0  0  0  0  0  0  0  0
  -20.6658  -22.3742   21.3766 O   0  0  0  0  0  0  0  0  0  0  0  0
  -27.3459  -24.5788   21.3032 O   0  0  0  0  0  0  0  0  0  0  0  0
  -31.1880  -25.9747   19.5020 O   0  0  0  0  0  0  0  0  0  0  0  0
  -30.3796  -30.3817   21.0659 O   0  0  0  0  0  0  0  0  0  0  0  0
  -26.8969  -14.0925   18.7988 O   0  0  0  0  0  0  0  0  0  0  0  0
  -23.7370  -29.1854   21.9584 O   0  0  0  0  0  0  0  0  0  1  0  0
  -31.0909  -10.8358   20.2847 F   0  0  0  0  0  0  0  0  0  0  0  0
  -26.6382  -12.3179   20.9027 F   0  0  0  0  0  0  0  0  0  0  0  0
  1  2  1  0  0  0  0
  1  5  2  0  0  0  0
  2  6  2  0  0  0  0
  3  8  2  0  0  0  0
  3 17  1  0  0  0  0
  4  9  1  0  0  0  0
  4 17  2  0  0  0  0
  5 20  1  0  0  0  0
  6 22  1  0  0  0  0
  7 10  2  0  0  0  0
  7 21  1  0  0  0  0
  8 27  1  0  0  0  0
  9 27  2  0  0  0  0
 10 28  1  0  0  0  0
 11 12  2  0  0  0  0
 11 29  1  0  0  0  0
 12 30  1  0  0  0  0
 13 18  2  0  0  0  0
 13 24  1  0  0  0  0
 14 23  1  0  0  0  0
 14 28  2  0  0  0  0
 15 25  2  0  0  0  0
 15 26  1  0  0  0  0
 16 30  2  0  0  0  0
 16 31  1  0  0  0  0
 17 32  1  0  0  0  0
 18 25  1  0  0  0  0
 18 34  1  0  0  0  0
 19 32  1  0  0  0  0
 19 33  2  0  0  0  0
 19 36  1  0  0  0  0
 20 22  2  0  0  0  0
 20 41  1  0  0  0  0
 21 23  2  0  0  0  0
 21 42  1  0  0  0  0
 22 50  1  0  0  0  0
 23 43  1  0  0  0  0
 24 26  2  0  0  0  0
 24 60  1  0  0  0  0
 25 53  1  0  0  0  0
 26 54  1  0  0  0  0
 27 80  1  0  0  0  0
 28 81  1  0  0  0  0
 29 31  2  0  0  0  0
 29 80  1  0  0  0  0
 30 82  1  0  0  0  0
 31 83  1  0  0  0  0
 32 66  2  0  0  0  0
 33 67  1  0  0  0  0
 33 70  1  0  0  0  0
 34 35  2  0  0  0  0
 35 37  1  0  0  0  0
 36 71  1  0  0  0  0
 36 75  2  0  0  0  0
 37 68  1  0  0  0  0
 37 76  2  0  0  0  0
 38 51  1  0  0  0  0
 38 72  1  0  0  0  0
 38 77  2  0  0  0  0
 39 63  1  0  0  0  0
 39 69  1  0  0  0  0
 39 78  2  0  0  0  0
 40 64  1  0  0  0  0
 40 73  1  0  0  0  0
 40 79  2  0  0  0  0
 41 44  1  0  0  0  0
 42 51  1  0  0  0  0
 43 69  1  0  0  0  0
 44 46  1  0  0  0  0
 45 47  1  0  0  0  0
 45 48  1  0  0  0  0
 46 50  1  0  0  0  0
 47 52  1  0  0  0  0
 48 68  1  0  0  0  0
 49 52  1  0  0  0  0
 49 68  1  0  0  0  0
 50 72  1  0  0  0  0
 51 69  1  0  0  0  0
 52 67  1  0  0  0  0
 55 64  1  0  0  0  0
 56 65  1  0  0  0  0
 57 65  1  0  0  0  0
 58 65  1  0  0  0  0
 59 74  1  0  0  0  0
 60 61  1  0  0  0  0
 61 62  1  0  0  0  0
 62 81  1  0  0  0  0
 63 65  1  0  0  0  0
 63 73  1  0  0  0  0
 64 74  1  0  0  0  0
 66 67  1  0  0  0  0
M  CHG  1  74   1
M  ISO  4  35 100  37 100  62 101  81 101
M  END
> <Batch ID>
0127

> <Smiles>
CNC(C)C(=O)NC(C(=O)N1Cc2cc([101O:1][101CH2:1]CCc3cc(C=[100CH:0][100C:0](=O)N4CCCC(n5nc(-c6ccc(Oc7ccc(F)cc7F)cc6)c(C(N)=O)c5N)C4)c(C)cc3C)ccc2CC1C(=O)NC1CCCc2ccccc21)C(C)(C)C

> <Shape>
0.255

> <Color>
0.060

> <Negative vol penalty>
0.000

$$$$

  -OEChem-04052302143D

 84 92  0     1  0  0  0  0  0999 V2000
  -30.3077  -16.1215   22.6425 C   0  0  0  0  0  0  0  0  0  0  0  0
  -30.5571  -15.5031   21.6437 C   0  0  0  0  0  0  0  0  0  0  0  0
  -29.7492  -23.6468   15.2233 C   0  0  0  0  0  0  0  0  0  0  0  0
  -29.4085  -23.2692   16.5182 C   0  0  0  0  0  0  0  0  0  0  0  0
  -23.0308  -15.9130   21.2044 C   0  0  0  0  0  0  0  0  0  0  0  0
  -22.4593  -14.6934   19.1987 C   0  0  0  0  0  0  0  0  0  0  0  0
  -29.4367  -18.2954   26.1574 C   0  0  0  0  0  0  0  0  0  0  0  0
  -29.6050  -24.9751   14.8250 C   0  0  0  0  0  0  0  0  0  0  0  0
  -28.9243  -24.2200   17.4159 C   0  0  0  0  0  0  0  0  0  0  0  0
  -24.9016  -22.5697   20.0119 C   0  0  0  0  0  0  0  0  0  0  0  0
  -30.6784  -17.6779   26.0076 C   0  0  0  0  0  0  0  0  0  0  0  0
  -22.0079  -16.8241   20.9419 C   0  0  0  0  0  0  0  0  0  0  0  0
  -21.4363  -15.6045   18.9362 C   0  0  0  0  0  0  0  0  0  0  0  0
  -25.1426  -21.6998   21.0744 C   0  0  0  0  0  0  0  0  0  0  0  0
  -21.5041  -19.4902   18.9264 C   0  0  0  0  0  0  0  0  0  0  0  0
  -21.7931  -20.8472   19.0704 C   0  0  0  0  0  0  0  0  0  0  0  0
  -24.9229  -23.5379   22.6212 C   0  0  0  0  0  0  0  0  0  0  0  0
  -20.0686  -21.0359   20.7519 C   0  0  0  0  0  0  0  0  0  0  0  0
  -30.0095  -16.8600   23.8349 C   0  0  0  0  0  0  0  0  0  0  0  0
  -23.2566  -14.8476   20.3328 C   0  0  0  0  0  0  0  0  0  0  0  0
  -28.4813  -18.1951   25.1460 C   0  0  0  0  0  0  0  0  0  0  0  0
  -24.2224  -12.7177   21.3517 C   0  0  0  0  0  0  0  0  0  0  0  0
  -29.1097  -25.9408   15.7153 C   0  0  0  0  0  0  0  0  0  0  0  0
  -24.6798  -23.9345   20.2456 C   0  0  0  0  0  0  0  0  0  0  0  0
  -28.7746  -25.5628   17.0295 C   0  0  0  0  0  0  0  0  0  0  0  0
  -24.6768  -24.4225   21.5601 C   0  0  0  0  0  0  0  0  0  0  0  0
  -30.9648  -16.9603   24.8464 C   0  0  0  0  0  0  0  0  0  0  0  0
  -28.7678  -17.4774   23.9848 C   0  0  0  0  0  0  0  0  0  0  0  0
  -21.2106  -16.6699   19.8078 C   0  0  0  0  0  0  0  0  0  0  0  0
  -25.1562  -22.1844   22.3791 C   0  0  0  0  0  0  0  0  0  0  0  0
  -20.4973  -18.9061   19.6950 C   0  0  0  0  0  0  0  0  0  0  0  0
  -21.0753  -21.6200   19.9832 C   0  0  0  0  0  0  0  0  0  0  0  0
  -19.7795  -19.6790   20.6078 C   0  0  0  0  0  0  0  0  0  0  0  0
  -24.3136  -13.9064   20.6032 C   0  0  0  0  0  0  0  0  0  0  0  0
  -25.4893  -12.1886   21.3115 C   0  0  0  0  0  0  0  0  0  0  0  0
  -27.1816  -18.8592   25.3398 C   0  0  0  0  0  0  0  0  0  0  0  0
  -27.0089  -20.1734   25.5508 C   0  0  0  0  0  0  0  0  0  0  0  0
  -30.8574  -14.7585   20.4409 C   0  0  0  0  0  0  0  0  0  0  0  0
  -23.0935  -12.1431   22.0234 C   0  0  0  0  0  0  0  0  0  0  0  0
  -26.1630  -26.6217   19.4193 C   0  0  0  0  0  0  0  0  0  0  0  0
  -23.5888  -28.0136   20.8188 C   0  0  0  0  0  0  0  0  0  0  0  0
  -21.0212  -27.7697   23.0537 C   0  0  0  0  0  0  0  0  0  0  0  0
  -29.0159  -27.3736   15.2536 C   0  0  0  0  0  0  0  0  0  0  0  0
  -24.3948  -24.8549   19.0906 C   0  0  0  0  0  0  0  0  0  0  0  0
  -24.4242  -25.8755   21.8659 C   0  0  0  0  0  0  0  0  0  0  0  0
  -28.1425  -28.2467   16.1508 C   0  0  0  0  0  0  0  0  0  0  0  0
  -29.4102  -12.0350   18.5892 C   0  0  0  0  0  0  0  0  0  0  0  0
  -28.4864  -28.0154   17.6189 C   0  0  0  0  0  0  0  0  0  0  0  0
  -27.9245  -12.1240   18.9360 C   0  0  0  0  0  0  0  0  0  0  0  0
  -30.0520  -13.4170   18.5214 C   0  0  0  0  0  0  0  0  0  0  0  0
  -28.3814  -14.3200   20.1163 C   0  0  0  0  0  0  0  0  0  0  0  0
  -28.2226  -26.5603   18.0247 C   0  0  1  0  0  0  0  0  0  0  0  0
  -24.6915  -26.3179   19.4052 C   0  0  1  0  0  0  0  0  0  0  0  0
  -27.7056  -12.9417   20.2213 C   0  0  1  0  0  0  0  0  0  0  0  0
  -32.3081  -16.3142   24.7244 C   0  0  0  0  0  0  0  0  0  0  0  0
  -27.7376  -17.3716   22.9003 C   0  0  0  0  0  0  0  0  0  0  0  0
  -19.1069  -29.0836   24.0058 C   0  0  0  0  0  0  0  0  0  0  0  0
  -25.5423  -29.6142   22.5311 C   0  0  0  0  0  0  0  0  0  0  0  0
  -23.6400  -30.1649   24.0629 C   0  0  0  0  0  0  0  0  0  0  0  0
  -23.5838  -30.9198   21.6860 C   0  0  0  0  0  0  0  0  0  0  0  0
  -19.0332  -25.8181   22.0547 C   0  0  0  0  0  0  0  0  0  0  0  0
  -25.6614  -20.8095   25.7567 C   0  0  0  0  0  0  0  0  0  0  0  0
  -25.3913  -21.9018   24.7287 C   0  0  0  0  0  0  0  0  0  1  0  0
  -23.2489  -28.4707   22.2168 C   0  0  1  0  0  0  0  0  0  0  0  0
  -19.5446  -28.1003   22.9315 C   0  0  2  0  0  0  0  0  0  0  0  0
  -24.0105  -29.7653   22.6186 C   0  0  0  0  0  0  0  0  0  0  0  0
  -25.5413  -14.1203   20.1227 N   0  0  0  0  0  0  0  0  0  0  0  0
  -26.2333  -13.0588   20.5704 N   0  0  0  0  0  0  0  0  0  0  0  0
  -29.7954  -14.1795   19.7430 N   0  0  0  0  0  0  0  0  0  0  0  0
  -24.1566  -26.7369   20.7023 N   0  0  0  0  0  0  0  0  0  0  0  0
  -26.0282  -11.0685   21.8382 N   0  0  0  0  0  0  0  0  0  0  0  0
  -21.8663  -12.8174   21.9639 N   0  0  0  0  0  0  0  0  0  0  0  0
  -26.8067  -26.3414   18.2291 N   0  0  0  0  0  0  0  0  0  0  0  0
  -21.7959  -28.5931   22.2643 N   0  0  0  0  0  0  0  0  0  0  0  0
  -18.7241  -26.8633   23.0642 N   0  3  0  0  0  0  0  0  0  0  0  0
  -32.0385  -14.6873   20.1154 O   0  0  0  0  0  0  0  0  0  0  0  0
  -23.1747  -11.0720   22.6712 O   0  0  0  0  0  0  0  0  0  0  0  0
  -26.6760  -27.0781   20.4343 O   0  0  0  0  0  0  0  0  0  0  0  0
  -23.3525  -28.7588   19.8647 O   0  0  0  0  0  0  0  0  0  0  0  0
  -21.4452  -26.8734   23.7798 O   0  0  0  0  0  0  0  0  0  0  0  0
  -20.2121  -17.5586   19.5515 O   0  0  0  0  0  0  0  0  0  0  0  0
  -25.3918  -21.3376   23.4180 O   0  0  0  0  0  0  0  0  0  1  0  0
  -21.3540  -22.9228   20.1225 F   0  0  0  0  0  0  0  0  0  0  0  0
  -18.8120  -19.1232   21.3500 F   0  0  0  0  0  0  0  0  0  0  0  0
  1  2  3  0  0  0  0
  1 19  1  0  0  0  0
  2 38  1  0  0  0  0
  3  4  1  0  0  0  0
  3  8  2  0  0  0  0
  4  9  2  0  0  0  0
  5 12  2  0  0  0  0
  5 20  1  0  0  0  0
  6 13  1  0  0  0  0
  6 20  2  0  0  0  0
  7 11  2  0  0  0  0
  7 21  1  0  0  0  0
  8 23  1  0  0  0  0
  9 25  1  0  0  0  0
 10 14  2  0  0  0  0
 10 24  1  0  0  0  0
 11 27  1  0  0  0  0
 12 29  1  0  0  0  0
 13 29  2  0  0  0  0
 14 30  1  0  0  0  0
 15 16  2  0  0  0  0
 15 31  1  0  0  0  0
 16 32  1  0  0  0  0
 17 26  1  0  0  0  0
 17 30  2  0  0  0  0
 18 32  2  0  0  0  0
 18 33  1  0  0  0  0
 19 27  2  0  0  0  0
 19 28  1  0  0  0  0
 20 34  1  0  0  0  0
 21 28  2  0  0  0  0
 21 36  1  0  0  0  0
 22 34  1  0  0  0  0
 22 35  2  0  0  0  0
 22 39  1  0  0  0  0
 23 25  2  0  0  0  0
 23 43  1  0  0  0  0
 24 26  2  0  0  0  0
 24 44  1  0  0  0  0
 25 52  1  0  0  0  0
 26 45  1  0  0  0  0
 27 55  1  0  0  0  0
 28 56  1  0  0  0  0
 29 81  1  0  0  0  0
 30 82  1  0  0  0  0
 31 33  2  0  0  0  0
 31 81  1  0  0  0  0
 32 83  1  0  0  0  0
 33 84  1  0  0  0  0
 34 67  2  0  0  0  0
 35 68  1  0  0  0  0
 35 71  1  0  0  0  0
 36 37  2  0  0  0  0
 37 62  1  0  0  0  0
 38 69  1  0  0  0  0
 38 76  2  0  0  0  0
 39 72  1  0  0  0  0
 39 77  2  0  0  0  0
 40 53  1  0  0  0  0
 40 73  1  0  0  0  0
 40 78  2  0  0  0  0
 41 64  1  0  0  0  0
 41 70  1  0  0  0  0
 41 79  2  0  0  0  0
 42 65  1  0  0  0  0
 42 74  1  0  0  0  0
 42 80  2  0  0  0  0
 43 46  1  0  0  0  0
 44 53  1  0  0  0  0
 45 70  1  0  0  0  0
 46 48  1  0  0  0  0
 47 49  1  0  0  0  0
 47 50  1  0  0  0  0
 48 52  1  0  0  0  0
 49 54  1  0  0  0  0
 50 69  1  0  0  0  0
 51 54  1  0  0  0  0
 51 69  1  0  0  0  0
 52 73  1  0  0  0  0
 53 70  1  0  0  0  0
 54 68  1  0  0  0  0
 57 65  1  0  0  0  0
 58 66  1  0  0  0  0
 59 66  1  0  0  0  0
 60 66  1  0  0  0  0
 61 75  1  0  0  0  0
 62 63  1  0  0  0  0
 63 82  1  0  0  0  0
 64 66  1  0  0  0  0
 64 74  1  0  0  0  0
 65 75  1  0  0  0  0
 67 68  1  0  0  0  0
M  CHG  1  75   1
M  ISO  4   2 100  38 100  63 101  82 101
M  END
> <Batch ID>
0127

> <Smiles>
CNC(C)C(=O)NC(C(=O)N1Cc2cc([101O:1][101CH2:1]CC=Cc3ccc(C)c(C#[100C:0][100C:0](=O)N4CCCC(n5nc(-c6ccc(Oc7ccc(F)cc7F)cc6)c(C(N)=O)c5N)C4)c3C)ccc2CC1C(=O)NC1CCCc2ccccc21)C(C)(C)C

> <Shape>
0.207

> <Color>
0.089

> <Negative vol penalty>
0.000

$$$$

  -OEChem-04052302143D

 83 91  0     1  0  0  0  0  0999 V2000
  -32.6497  -33.3230   17.5754 C   0  0  0  0  0  0  0  0  0  0  0  0
  -32.1274  -32.1465   17.0476 C   0  0  0  0  0  0  0  0  0  0  0  0
  -25.8681   -9.6235   22.5540 C   0  0  0  0  0  0  0  0  0  0  0  0
  -23.5619  -10.3115   22.3422 C   0  0  0  0  0  0  0  0  0  0  0  0
  -32.5721  -33.5654   18.9462 C   0  0  0  0  0  0  0  0  0  0  0  0
  -31.5281  -31.2113   17.8906 C   0  0  0  0  0  0  0  0  0  0  0  0
  -26.2708  -26.3464   17.9905 C   0  0  0  0  0  0  0  0  0  0  0  0
  -25.4741   -8.5472   23.3489 C   0  0  0  0  0  0  0  0  0  0  0  0
  -23.1678   -9.2351   23.1371 C   0  0  0  0  0  0  0  0  0  0  0  0
  -26.0514  -25.0037   18.2953 C   0  0  0  0  0  0  0  0  0  0  0  0
  -21.5196   -6.4615   24.8130 C   0  0  0  0  0  0  0  0  0  0  0  0
  -20.4196   -5.7133   24.3939 C   0  0  0  0  0  0  0  0  0  0  0  0
  -25.9035  -25.5655   20.6366 C   0  0  0  0  0  0  0  0  0  0  0  0
  -31.3979  -22.6807   19.8775 C   0  0  0  0  0  0  0  0  0  0  0  0
  -29.1965  -23.1168   20.7721 C   0  0  0  0  0  0  0  0  0  0  0  0
  -21.5751   -5.1622   22.3450 C   0  0  0  0  0  0  0  0  0  0  0  0
  -24.9120  -10.5057   22.0507 C   0  0  0  0  0  0  0  0  0  0  0  0
  -29.8055  -20.8774   20.1002 C   0  0  0  0  0  0  0  0  0  0  0  0
  -25.4525  -11.6363   19.8286 C   0  0  0  0  0  0  0  0  0  0  0  0
  -31.9629  -32.6371   19.8051 C   0  0  0  0  0  0  0  0  0  0  0  0
  -26.3190  -27.3088   19.0093 C   0  0  0  0  0  0  0  0  0  0  0  0
  -31.4435  -31.4409   19.2743 C   0  0  0  0  0  0  0  0  0  0  0  0
  -26.1210  -26.9201   20.3419 C   0  0  0  0  0  0  0  0  0  0  0  0
  -30.4611  -23.5725   20.3996 C   0  0  0  0  0  0  0  0  0  0  0  0
  -31.0701  -21.3331   19.7277 C   0  0  0  0  0  0  0  0  0  0  0  0
  -28.8687  -21.7692   20.6224 C   0  0  0  0  0  0  0  0  0  0  0  0
  -24.1239   -8.3530   23.6405 C   0  0  0  0  0  0  0  0  0  0  0  0
  -25.8706  -24.6126   19.6187 C   0  0  0  0  0  0  0  0  0  0  0  0
  -22.6474   -6.5602   23.9981 C   0  0  0  0  0  0  0  0  0  0  0  0
  -20.4473   -5.0636   23.1599 C   0  0  0  0  0  0  0  0  0  0  0  0
  -22.6751   -5.9105   22.7641 C   0  0  0  0  0  0  0  0  0  0  0  0
  -25.3185  -11.6180   21.2299 C   0  0  0  0  0  0  0  0  0  0  0  0
  -25.8598  -12.9157   19.5393 C   0  0  0  0  0  0  0  0  0  0  0  0
  -29.4626  -19.4670   19.9436 C   0  0  0  0  0  0  0  0  0  0  0  0
  -29.6323  -18.5164   20.8827 C   0  0  0  0  0  0  0  0  0  0  0  0
  -25.2286  -10.5903   18.8739 C   0  0  0  0  0  0  0  0  0  0  0  0
  -29.2253  -17.1306   20.5755 C   0  0  0  0  0  0  0  0  0  0  0  0
  -28.5286  -29.3218   20.0905 C   0  0  0  0  0  0  0  0  0  0  0  0
  -26.0878  -30.3959   21.9374 C   0  0  0  0  0  0  0  0  0  0  0  0
  -23.0838  -29.7590   23.4263 C   0  0  0  0  0  0  0  0  0  0  0  0
  -31.9448  -32.9215   21.2862 C   0  0  0  0  0  0  0  0  0  0  0  0
  -26.5299  -28.7569   18.6615 C   0  0  0  0  0  0  0  0  0  0  0  0
  -26.1435  -27.9172   21.4705 C   0  0  0  0  0  0  0  0  0  0  0  0
  -30.9598  -32.0506   22.0617 C   0  0  0  0  0  0  0  0  0  0  0  0
  -26.0575  -17.0523   22.4168 C   0  0  0  0  0  0  0  0  0  0  0  0
  -31.0919  -30.5904   21.6405 C   0  0  0  0  0  0  0  0  0  0  0  0
  -25.6217  -15.6071   22.1901 C   0  0  0  0  0  0  0  0  0  0  0  0
  -27.5762  -17.1814   22.5233 C   0  0  0  0  0  0  0  0  0  0  0  0
  -27.8710  -15.1495   21.1360 C   0  0  0  0  0  0  0  0  0  0  0  0
  -30.7637  -30.4134   20.1531 C   0  0  1  0  0  0  0  0  0  0  0  0
  -27.0718  -29.5785   19.8272 C   0  0  1  0  0  0  0  0  0  0  0  0
  -26.3495  -15.0028   20.9788 C   0  0  1  0  0  0  0  0  0  0  0  0
  -30.8113  -25.0133   20.5592 C   0  0  0  0  0  0  0  0  0  0  0  0
  -32.1021  -20.4088   19.1644 C   0  0  0  0  0  0  0  0  0  0  0  0
  -21.3532  -30.8182   24.9030 C   0  0  0  0  0  0  0  0  0  0  0  0
  -27.9006  -29.9801   24.3562 C   0  0  0  0  0  0  0  0  0  0  0  0
  -25.8714  -30.1287   25.8151 C   0  0  0  0  0  0  0  0  0  0  0  0
  -26.5459  -32.0813   24.4169 C   0  0  0  0  0  0  0  0  0  0  0  0
  -20.9915  -29.5121   21.3478 C   0  0  0  0  0  0  0  0  0  0  0  0
  -27.4911  -21.3165   21.0358 C   0  0  0  0  0  0  0  0  0  0  0  0
  -26.5435  -21.0740   19.8590 C   0  0  0  0  0  0  0  0  0  0  0  0
  -26.2466  -22.3334   19.0533 C   0  0  0  0  0  0  0  0  0  1  0  0
  -25.5449  -30.0451   23.3016 C   0  0  1  0  0  0  0  0  0  0  0  0
  -21.7925  -30.5560   23.4709 C   0  0  2  0  0  0  0  0  0  0  0  0
  -26.4671  -30.5395   24.4516 C   0  0  0  0  0  0  0  0  0  0  0  0
  -25.6167  -12.7925   21.7918 N   0  0  0  0  0  0  0  0  0  0  0  0
  -25.9422  -13.5607   20.7382 N   0  0  0  0  0  0  0  0  0  0  0  0
  -28.2519  -16.5447   21.3828 N   0  0  0  0  0  0  0  0  0  0  0  0
  -26.3594  -29.3202   21.0802 N   0  0  0  0  0  0  0  0  0  0  0  0
  -26.1520  -13.5405   18.3789 N   0  0  0  0  0  0  0  0  0  0  0  0
  -24.8124   -9.3364   19.3418 N   0  0  0  0  0  0  0  0  0  0  0  0
  -29.3317  -30.4369   19.9452 N   0  0  0  0  0  0  0  0  0  0  0  0
  -24.1887  -30.5805   23.3513 N   0  0  0  0  0  0  0  0  0  0  0  0
  -20.7030  -29.8164   22.7730 N   0  3  0  0  0  0  0  0  0  0  0  0
  -25.4087  -10.7578   17.6438 O   0  0  0  0  0  0  0  0  0  0  0  0
  -29.7764  -16.5737   19.6242 O   0  0  0  0  0  0  0  0  0  0  0  0
  -28.8967  -28.1958   20.4039 O   0  0  0  0  0  0  0  0  0  0  0  0
  -26.2577  -31.5811   21.6406 O   0  0  0  0  0  0  0  0  0  0  0  0
  -23.1099  -28.5307   23.4589 O   0  0  0  0  0  0  0  0  0  0  0  0
  -23.7390   -7.3028   24.4159 O   0  0  0  0  0  0  0  0  0  0  0  0
  -25.6570  -23.3026   19.9189 O   0  0  0  0  0  0  0  0  0  1  0  0
  -19.3915   -4.3439   22.7583 F   0  0  0  0  0  0  0  0  0  0  0  0
  -23.7562   -6.0006   21.9773 F   0  0  0  0  0  0  0  0  0  0  0  0
  1  2  1  0  0  0  0
  1  5  2  0  0  0  0
  2  6  2  0  0  0  0
  3  8  2  0  0  0  0
  3 17  1  0  0  0  0
  4  9  1  0  0  0  0
  4 17  2  0  0  0  0
  5 20  1  0  0  0  0
  6 22  1  0  0  0  0
  7 10  2  0  0  0  0
  7 21  1  0  0  0  0
  8 27  1  0  0  0  0
  9 27  2  0  0  0  0
 10 28  1  0  0  0  0
 11 12  2  0  0  0  0
 11 29  1  0  0  0  0
 12 30  1  0  0  0  0
 13 23  1  0  0  0  0
 13 28  2  0  0  0  0
 14 24  1  0  0  0  0
 14 25  2  0  0  0  0
 15 24  2  0  0  0  0
 15 26  1  0  0  0  0
 16 30  2  0  0  0  0
 16 31  1  0  0  0  0
 17 32  1  0  0  0  0
 18 25  1  0  0  0  0
 18 26  2  0  0  0  0
 18 34  1  0  0  0  0
 19 32  1  0  0  0  0
 19 33  2  0  0  0  0
 19 36  1  0  0  0  0
 20 22  2  0  0  0  0
 20 41  1  0  0  0  0
 21 23  2  0  0  0  0
 21 42  1  0  0  0  0
 22 50  1  0  0  0  0
 23 43  1  0  0  0  0
 24 53  1  0  0  0  0
 25 54  1  0  0  0  0
 26 60  1  0  0  0  0
 27 80  1  0  0  0  0
 28 81  1  0  0  0  0
 29 31  2  0  0  0  0
 29 80  1  0  0  0  0
 30 82  1  0  0  0  0
 31 83  1  0  0  0  0
 32 66  2  0  0  0  0
 33 67  1  0  0  0  0
 33 70  1  0  0  0  0
 34 35  2  0  0  0  0
 35 37  1  0  0  0  0
 36 71  1  0  0  0  0
 36 75  2  0  0  0  0
 37 68  1  0  0  0  0
 37 76  2  0  0  0  0
 38 51  1  0  0  0  0
 38 72  1  0  0  0  0
 38 77  2  0  0  0  0
 39 63  1  0  0  0  0
 39 69  1  0  0  0  0
 39 78  2  0  0  0  0
 40 64  1  0  0  0  0
 40 73  1  0  0  0  0
 40 79  2  0  0  0  0
 41 44  1  0  0  0  0
 42 51  1  0  0  0  0
 43 69  1  0  0  0  0
 44 46  1  0  0  0  0
 45 47  1  0  0  0  0
 45 48  1  0  0  0  0
 46 50  1  0  0  0  0
 47 52  1  0  0  0  0
 48 68  1  0  0  0  0
 49 52  1  0  0  0  0
 49 68  1  0  0  0  0
 50 72  1  0  0  0  0
 51 69  1  0  0  0  0
 52 67  1  0  0  0  0
 55 64  1  0  0  0  0
 56 65  1  0  0  0  0
 57 65  1  0  0  0  0
 58 65  1  0  0  0  0
 59 74  1  0  0  0  0
 60 61  1  0  0  0  0
 61 62  1  0  0  0  0
 62 81  1  0  0  0  0
 63 65  1  0  0  0  0
 63 73  1  0  0  0  0
 64 74  1  0  0  0  0
 66 67  1  0  0  0  0
M  CHG  1  74   1
M  ISO  4  35 100  37 100  62 101  81 101
M  END
> <Batch ID>
0127

> <Smiles>
CNC(C)C(=O)NC(C(=O)N1Cc2cc([101O:1][101CH2:1]CCc3cc(C)cc(C)c3C=[100CH:0][100C:0](=O)N3CCCC(n4nc(-c5ccc(Oc6ccc(F)cc6F)cc5)c(C(N)=O)c4N)C3)ccc2CC1C(=O)NC1CCCc2ccccc21)C(C)(C)C

> <Shape>
0.255

> <Color>
0.089

> <Negative vol penalty>
0.000

$$$$

  -OEChem-04052302143D

 83 91  0     1  0  0  0  0  0999 V2000
  -22.5043  -23.5450   21.6511 C   0  0  0  0  0  0  0  0  0  0  0  0
  -23.6998  -22.8354   21.7017 C   0  0  0  0  0  0  0  0  0  0  0  0
  -22.8399  -30.5802   20.2537 C   0  0  0  0  0  0  0  0  0  0  0  0
  -23.0007  -29.3346   22.3176 C   0  0  0  0  0  0  0  0  0  0  0  0
  -21.3147  -22.9331   22.0438 C   0  0  0  0  0  0  0  0  0  0  0  0
  -23.7065  -21.5137   22.1462 C   0  0  0  0  0  0  0  0  0  0  0  0
  -26.5164  -18.4912   19.2112 C   0  0  0  0  0  0  0  0  0  0  0  0
  -21.5914  -31.0648   20.6434 C   0  0  0  0  0  0  0  0  0  0  0  0
  -21.7521  -29.8193   22.7074 C   0  0  0  0  0  0  0  0  0  0  0  0
  -27.8993  -18.5471   19.3790 C   0  0  0  0  0  0  0  0  0  0  0  0
  -18.5042  -29.1598   22.0390 C   0  0  0  0  0  0  0  0  0  0  0  0
  -17.5966  -28.2503   22.5817 C   0  0  0  0  0  0  0  0  0  0  0  0
  -30.8981  -22.3673   20.8853 C   0  0  0  0  0  0  0  0  0  0  0  0
  -27.8113  -16.5446   20.7212 C   0  0  0  0  0  0  0  0  0  0  0  0
  -32.4116  -23.7983   22.7412 C   0  0  0  0  0  0  0  0  0  0  0  0
  -17.5379  -29.5310   24.6296 C   0  0  0  0  0  0  0  0  0  0  0  0
  -23.5446  -29.7150   21.0908 C   0  0  0  0  0  0  0  0  0  0  0  0
  -31.8717  -21.7155   21.6423 C   0  0  0  0  0  0  0  0  0  0  0  0
  -26.0900  -29.7966   20.9428 C   0  0  0  0  0  0  0  0  0  0  0  0
  -21.3053  -21.6002   22.4842 C   0  0  0  0  0  0  0  0  0  0  0  0
  -25.7679  -17.4660   19.8072 C   0  0  0  0  0  0  0  0  0  0  0  0
  -22.5158  -20.8839   22.5465 C   0  0  0  0  0  0  0  0  0  0  0  0
  -26.4193  -16.4765   20.5573 C   0  0  0  0  0  0  0  0  0  0  0  0
  -32.6284  -22.4310   22.5702 C   0  0  0  0  0  0  0  0  0  0  0  0
  -31.4380  -24.4501   21.9842 C   0  0  0  0  0  0  0  0  0  0  0  0
  -30.6813  -23.7346   21.0562 C   0  0  0  0  0  0  0  0  0  0  0  0
  -21.0475  -30.6844   21.8702 C   0  0  0  0  0  0  0  0  0  0  0  0
  -28.5466  -17.5753   20.1365 C   0  0  0  0  0  0  0  0  0  0  0  0
  -18.9288  -30.2549   22.7915 C   0  0  0  0  0  0  0  0  0  0  0  0
  -17.1134  -28.4359   23.8770 C   0  0  0  0  0  0  0  0  0  0  0  0
  -18.4456  -30.4405   24.0868 C   0  0  0  0  0  0  0  0  0  0  0  0
  -24.8341  -29.2136   20.6885 C   0  0  0  0  0  0  0  0  0  0  0  0
  -26.9906  -28.9408   20.3572 C   0  0  0  0  0  0  0  0  0  0  0  0
  -32.0775  -20.2720   21.4384 C   0  0  0  0  0  0  0  0  0  0  0  0
  -31.4536  -19.2983   22.1199 C   0  0  0  0  0  0  0  0  0  0  0  0
  -26.4135  -31.0037   21.6455 C   0  0  0  0  0  0  0  0  0  0  0  0
  -23.4431  -17.3536   21.9719 C   0  0  0  0  0  0  0  0  0  0  0  0
  -23.4144  -14.2013   21.2073 C   0  0  0  0  0  0  0  0  0  0  0  0
  -25.0976  -11.5072   19.9601 C   0  0  0  0  0  0  0  0  0  0  0  0
  -28.8581  -23.7991   19.3189 C   0  0  0  0  0  0  0  0  0  0  0  0
  -20.0017  -20.9965   22.9434 C   0  0  0  0  0  0  0  0  0  0  0  0
  -24.2802  -17.4048   19.5944 C   0  0  0  0  0  0  0  0  0  0  0  0
  -25.6640  -15.3436   21.2011 C   0  0  0  0  0  0  0  0  0  0  0  0
  -20.0386  -19.4739   23.0469 C   0  0  0  0  0  0  0  0  0  0  0  0
  -26.2637  -25.0370   17.2181 C   0  0  0  0  0  0  0  0  0  0  0  0
  -21.3027  -19.0184   23.7689 C   0  0  0  0  0  0  0  0  0  0  0  0
  -25.7638  -26.2819   17.9546 C   0  0  0  0  0  0  0  0  0  0  0  0
  -26.6490  -23.9210   18.1875 C   0  0  0  0  0  0  0  0  0  0  0  0
  -27.0980  -25.5563   19.9746 C   0  0  0  0  0  0  0  0  0  0  0  0
  -22.5601  -19.4406   22.9994 C   0  0  1  0  0  0  0  0  0  0  0  0
  -23.5547  -16.6064   20.6731 C   0  0  1  0  0  0  0  0  0  0  0  0
  -26.7592  -26.7309   19.0423 C   0  0  2  0  0  0  0  0  0  0  0  0
  -33.6806  -21.7655   23.3979 C   0  0  0  0  0  0  0  0  0  0  0  0
  -31.2266  -25.9152   22.1887 C   0  0  0  0  0  0  0  0  0  0  0  0
  -24.8244   -9.0563   19.4955 C   0  0  0  0  0  0  0  0  0  0  0  0
  -23.7265  -13.6048   24.1833 C   0  0  0  0  0  0  0  0  0  0  0  0
  -24.3938  -11.2699   23.5742 C   0  0  0  0  0  0  0  0  0  0  0  0
  -22.1208  -12.1101   22.9826 C   0  0  0  0  0  0  0  0  0  0  0  0
  -25.5477  -11.8884   17.0599 C   0  0  0  0  0  0  0  0  0  0  0  0
  -31.7036  -17.8333   21.8876 C   0  0  0  0  0  0  0  0  0  0  0  0
  -30.4225  -17.0953   21.5173 C   0  0  0  0  0  0  0  0  0  1  0  0
  -24.1300  -12.9720   21.7130 C   0  0  1  0  0  0  0  0  0  0  0  0
  -24.7056  -10.4631   18.9302 C   0  0  2  0  0  0  0  0  0  0  0  0
  -23.6071  -12.5115   23.1029 C   0  0  0  0  0  0  0  0  0  0  0  0
  -24.9247  -28.0755   19.9953 N   0  0  0  0  0  0  0  0  0  0  0  0
  -26.2484  -27.9366   19.8088 N   0  0  0  0  0  0  0  0  0  0  0  0
  -24.2101  -15.3309   20.9693 N   0  0  0  0  0  0  0  0  0  0  0  0
  -27.5974  -24.4186   19.1865 N   0  0  0  0  0  0  0  0  0  0  0  0
  -28.3372  -28.9570   20.2629 N   0  0  0  0  0  0  0  0  0  0  0  0
  -25.3668  -31.7638   22.1849 N   0  0  0  0  0  0  0  0  0  0  0  0
  -29.6875  -24.3789   20.2784 N   0  0  0  0  0  0  0  0  0  0  0  0
  -22.7806  -18.5620   21.8707 N   0  0  0  0  0  0  0  0  0  0  0  0
  -24.0042  -11.9660   20.6639 N   0  0  0  0  0  0  0  0  0  0  0  0
  -25.5841  -10.5633   17.7306 N   0  3  0  0  0  0  0  0  0  0  0  0
  -27.5946  -31.4052   21.7767 O   0  0  0  0  0  0  0  0  0  0  0  0
  -23.9212  -16.8688   22.9908 O   0  0  0  0  0  0  0  0  0  0  0  0
  -22.1954  -14.1586   21.0233 O   0  0  0  0  0  0  0  0  0  0  0  0
  -26.2581  -11.8760   20.1263 O   0  0  0  0  0  0  0  0  0  0  0  0
  -29.1888  -22.8430   18.6129 O   0  0  0  0  0  0  0  0  0  0  0  0
  -19.8293  -31.1573   22.2510 O   0  0  0  0  0  0  0  0  0  0  0  0
  -29.8963  -17.6279   20.3025 O   0  0  0  0  0  0  0  0  0  1  0  0
  -16.2406  -27.5633   24.3975 F   0  0  0  0  0  0  0  0  0  0  0  0
  -18.8489  -31.4912   24.8141 F   0  0  0  0  0  0  0  0  0  0  0  0
  1  2  1  0  0  0  0
  1  5  2  0  0  0  0
  2  6  2  0  0  0  0
  3  8  2  0  0  0  0
  3 17  1  0  0  0  0
  4  9  1  0  0  0  0
  4 17  2  0  0  0  0
  5 20  1  0  0  0  0
  6 22  1  0  0  0  0
  7 10  2  0  0  0  0
  7 21  1  0  0  0  0
  8 27  1  0  0  0  0
  9 27  2  0  0  0  0
 10 28  1  0  0  0  0
 11 12  2  0  0  0  0
 11 29  1  0  0  0  0
 12 30  1  0  0  0  0
 13 18  1  0  0  0  0
 13 26  2  0  0  0  0
 14 23  1  0  0  0  0
 14 28  2  0  0  0  0
 15 24  1  0  0  0  0
 15 25  2  0  0  0  0
 16 30  2  0  0  0  0
 16 31  1  0  0  0  0
 17 32  1  0  0  0  0
 18 24  2  0  0  0  0
 18 34  1  0  0  0  0
 19 32  1  0  0  0  0
 19 33  2  0  0  0  0
 19 36  1  0  0  0  0
 20 22  2  0  0  0  0
 20 41  1  0  0  0  0
 21 23  2  0  0  0  0
 21 42  1  0  0  0  0
 22 50  1  0  0  0  0
 23 43  1  0  0  0  0
 24 53  1  0  0  0  0
 25 26  1  0  0  0  0
 25 54  1  0  0  0  0
 26 71  1  0  0  0  0
 27 80  1  0  0  0  0
 28 81  1  0  0  0  0
 29 31  2  0  0  0  0
 29 80  1  0  0  0  0
 30 82  1  0  0  0  0
 31 83  1  0  0  0  0
 32 65  2  0  0  0  0
 33 66  1  0  0  0  0
 33 69  1  0  0  0  0
 34 35  2  0  0  0  0
 35 60  1  0  0  0  0
 36 70  1  0  0  0  0
 36 75  2  0  0  0  0
 37 51  1  0  0  0  0
 37 72  1  0  0  0  0
 37 76  2  0  0  0  0
 38 62  1  0  0  0  0
 38 67  1  0  0  0  0
 38 77  2  0  0  0  0
 39 63  1  0  0  0  0
 39 73  1  0  0  0  0
 39 78  2  0  0  0  0
 40 68  1  0  0  0  0
 40 71  1  0  0  0  0
 40 79  2  0  0  0  0
 41 44  1  0  0  0  0
 42 51  1  0  0  0  0
 43 67  1  0  0  0  0
 44 46  1  0  0  0  0
 45 47  1  0  0  0  0
 45 48  1  0  0  0  0
 46 50  1  0  0  0  0
 47 52  1  0  0  0  0
 48 68  1  0  0  0  0
 49 52  1  0  0  0  0
 49 68  1  0  0  0  0
 50 72  1  0  0  0  0
 51 67  1  0  0  0  0
 52 66  1  0  0  0  0
 55 63  1  0  0  0  0
 56 64  1  0  0  0  0
 57 64  1  0  0  0  0
 58 64  1  0  0  0  0
 59 74  1  0  0  0  0
 60 61  1  0  0  0  0
 61 81  1  0  0  0  0
 62 64  1  0  0  0  0
 62 73  1  0  0  0  0
 63 74  1  0  0  0  0
 65 66  1  0  0  0  0
M  CHG  1  74   1
M  ISO  4  40 100  61 101  71 100  81 101
M  END
> <Batch ID>
0127

> <Smiles>
CNC(C)C(=O)NC(C(=O)N1Cc2cc([101O:1][101CH2:1]CC=Cc3cc([100NH:0][100C:0](=O)N4CCCC(n5nc(-c6ccc(Oc7ccc(F)cc7F)cc6)c(C(N)=O)c5N)C4)c(C)cc3C)ccc2CC1C(=O)NC1CCCc2ccccc21)C(C)(C)C

> <Shape>
0.230

> <Color>
0.095

> <Negative vol penalty>
0.000

$$$$

  -OEChem-04052302143D

 84 92  0     1  0  0  0  0  0999 V2000
  -20.4692  -24.5164   23.8854 C   0  0  0  0  0  0  0  0  0  0  0  0
  -21.6635  -24.9527   23.3208 C   0  0  0  0  0  0  0  0  0  0  0  0
  -26.0892  -10.4654   20.3014 C   0  0  0  0  0  0  0  0  0  0  0  0
  -25.6210  -10.6942   22.6605 C   0  0  0  0  0  0  0  0  0  0  0  0
  -32.5276  -21.3018   19.1280 C   0  0  0  0  0  0  0  0  0  0  0  0
  -19.3208  -25.2995   23.7761 C   0  0  0  0  0  0  0  0  0  0  0  0
  -21.7098  -26.1719   22.6456 C   0  0  0  0  0  0  0  0  0  0  0  0
  -25.7743  -28.9262   23.8859 C   0  0  0  0  0  0  0  0  0  0  0  0
  -33.4479  -22.3482   19.1881 C   0  0  0  0  0  0  0  0  0  0  0  0
  -26.0523   -9.0769   20.4287 C   0  0  0  0  0  0  0  0  0  0  0  0
  -25.5840   -9.3056   22.7878 C   0  0  0  0  0  0  0  0  0  0  0  0
  -26.9891  -28.5662   23.3043 C   0  0  0  0  0  0  0  0  0  0  0  0
  -23.4060   -6.8038   22.1417 C   0  0  0  0  0  0  0  0  0  0  0  0
  -22.3619   -6.2500   22.8824 C   0  0  0  0  0  0  0  0  0  0  0  0
  -30.7133  -22.8873   19.3059 C   0  0  0  0  0  0  0  0  0  0  0  0
  -26.7366  -30.3424   21.6917 C   0  0  0  0  0  0  0  0  0  0  0  0
  -23.9618   -5.2705   24.4050 C   0  0  0  0  0  0  0  0  0  0  0  0
  -25.8736  -11.2741   21.4173 C   0  0  0  0  0  0  0  0  0  0  0  0
  -31.1602  -21.5714   19.1869 C   0  0  0  0  0  0  0  0  0  0  0  0
  -31.6337  -23.9337   19.3660 C   0  0  0  0  0  0  0  0  0  0  0  0
  -24.8345  -13.5643   20.9898 C   0  0  0  0  0  0  0  0  0  0  0  0
  -19.3554  -26.5334   23.1075 C   0  0  0  0  0  0  0  0  0  0  0  0
  -25.0250  -29.9920   23.3672 C   0  0  0  0  0  0  0  0  0  0  0  0
  -20.5605  -26.9715   22.5261 C   0  0  0  0  0  0  0  0  0  0  0  0
  -25.5138  -30.7156   22.2701 C   0  0  0  0  0  0  0  0  0  0  0  0
  -33.0010  -23.6641   19.3071 C   0  0  0  0  0  0  0  0  0  0  0  0
  -25.7997   -8.4969   21.6719 C   0  0  0  0  0  0  0  0  0  0  0  0
  -27.4691  -29.2724   22.2052 C   0  0  0  0  0  0  0  0  0  0  0  0
  -24.7280   -6.5909   22.5325 C   0  0  0  0  0  0  0  0  0  0  0  0
  -22.6398   -5.4834   24.0141 C   0  0  0  0  0  0  0  0  0  0  0  0
  -25.0059   -5.8243   23.6642 C   0  0  0  0  0  0  0  0  0  0  0  0
  -25.9121  -12.7085   21.2865 C   0  0  0  0  0  0  0  0  0  0  0  0
  -25.3875  -14.8215   20.9785 C   0  0  0  0  0  0  0  0  0  0  0  0
  -30.2016  -20.4794   19.1243 C   0  0  0  0  0  0  0  0  0  0  0  0
  -31.1309  -25.3132   19.4921 C   0  0  0  0  0  0  0  0  0  0  0  0
  -30.4721  -19.1835   19.3894 C   0  0  0  0  0  0  0  0  0  0  0  0
  -30.3605  -25.7536   20.4965 C   0  0  0  0  0  0  0  0  0  0  0  0
  -23.4568  -13.2509   20.7463 C   0  0  0  0  0  0  0  0  0  0  0  0
  -29.8949  -27.1706   20.5263 C   0  0  0  0  0  0  0  0  0  0  0  0
  -29.3843  -18.1895   19.2912 C   0  0  0  0  0  0  0  0  0  0  0  0
  -22.1374  -30.2819   22.0704 C   0  0  0  0  0  0  0  0  0  0  0  0
  -22.8390  -33.4475   22.1677 C   0  0  0  0  0  0  0  0  0  0  0  0
  -25.2264  -35.8843   22.2623 C   0  0  0  0  0  0  0  0  0  0  0  0
  -18.0773  -27.3229   22.9743 C   0  0  0  0  0  0  0  0  0  0  0  0
  -23.7294  -30.3848   24.0226 C   0  0  0  0  0  0  0  0  0  0  0  0
  -24.7574  -31.8806   21.6879 C   0  0  0  0  0  0  0  0  0  0  0  0
  -18.2993  -28.7771   22.5664 C   0  0  0  0  0  0  0  0  0  0  0  0
  -29.9186  -16.4533   22.4743 C   0  0  0  0  0  0  0  0  0  0  0  0
  -19.2871  -28.8615   21.4071 C   0  0  0  0  0  0  0  0  0  0  0  0
  -28.8563  -15.3602   22.3944 C   0  0  0  0  0  0  0  0  0  0  0  0
  -30.5049  -16.7821   21.1022 C   0  0  0  0  0  0  0  0  0  0  0  0
  -28.4120  -16.0398   20.0026 C   0  0  0  0  0  0  0  0  0  0  0  0
  -20.6567  -28.2998   21.8073 C   0  0  1  0  0  0  0  0  0  0  0  0
  -22.8007  -31.1603   23.0933 C   0  0  1  0  0  0  0  0  0  0  0  0
  -27.7750  -15.7261   21.3654 C   0  0  1  0  0  0  0  0  0  0  0  0
  -34.0160  -24.7600   19.3697 C   0  0  0  0  0  0  0  0  0  0  0  0
  -25.4945  -38.3791   22.2966 C   0  0  0  0  0  0  0  0  0  0  0  0
  -22.1844  -33.5563   19.1895 C   0  0  0  0  0  0  0  0  0  0  0  0
  -23.3567  -35.7660   19.0836 C   0  0  0  0  0  0  0  0  0  0  0  0
  -21.3325  -35.4974   20.5164 C   0  0  0  0  0  0  0  0  0  0  0  0
  -26.5925  -35.8177   24.8868 C   0  0  0  0  0  0  0  0  0  0  0  0
  -29.0308  -27.5483   21.7109 C   0  0  0  0  0  0  0  0  0  1  0  0
  -23.5073  -34.4237   21.2299 C   0  0  1  0  0  0  0  0  0  0  0  0
  -25.3736  -37.1169   23.1361 C   0  0  2  0  0  0  0  0  0  0  0  0
  -22.6088  -34.7877   20.0144 C   0  0  0  0  0  0  0  0  0  0  0  0
  -27.0628  -13.3663   21.4516 N   0  0  0  0  0  0  0  0  0  0  0  0
  -26.7113  -14.6489   21.2579 N   0  0  0  0  0  0  0  0  0  0  0  0
  -29.4486  -17.0714   20.1207 N   0  0  0  0  0  0  0  0  0  0  0  0
  -23.4927  -32.2221   22.3599 N   0  0  0  0  0  0  0  0  0  0  0  0
  -24.8657  -16.0466   20.7569 N   0  0  0  0  0  0  0  0  0  0  0  0
  -23.0580  -11.9082   20.7966 N   0  0  0  0  0  0  0  0  0  0  0  0
  -21.3812  -29.2600   22.6119 N   0  0  0  0  0  0  0  0  0  0  0  0
  -23.9022  -35.5675   22.0449 N   0  0  0  0  0  0  0  0  0  0  0  0
  -26.5886  -37.0033   23.9916 N   0  3  0  0  0  0  0  0  0  0  0  0
  -22.6078  -14.1337   20.4755 O   0  0  0  0  0  0  0  0  0  0  0  0
  -30.1944  -27.9743   19.6474 O   0  0  0  0  0  0  0  0  0  0  0  0
  -28.4863  -18.4080   18.4760 O   0  0  0  0  0  0  0  0  0  0  0  0
  -22.2984  -30.5151   20.8782 O   0  0  0  0  0  0  0  0  0  0  0  0
  -21.7797  -33.7634   22.7151 O   0  0  0  0  0  0  0  0  0  0  0  0
  -26.1898  -35.2666   21.8141 O   0  0  0  0  0  0  0  0  0  0  0  0
  -25.7634   -7.1421   21.7964 O   0  0  0  0  0  0  0  0  0  0  0  0
  -28.6542  -28.9226   21.6351 O   0  0  0  0  0  0  0  0  0  1  0  0
  -21.6370   -4.9529   24.7263 F   0  0  0  0  0  0  0  0  0  0  0  0
  -26.2738   -5.6173   24.0453 F   0  0  0  0  0  0  0  0  0  0  0  0
  1  2  1  0  0  0  0
  1  6  2  0  0  0  0
  2  7  2  0  0  0  0
  3 10  2  0  0  0  0
  3 18  1  0  0  0  0
  4 11  1  0  0  0  0
  4 18  2  0  0  0  0
  5  9  2  0  0  0  0
  5 19  1  0  0  0  0
  6 22  1  0  0  0  0
  7 24  1  0  0  0  0
  8 12  2  0  0  0  0
  8 23  1  0  0  0  0
  9 26  1  0  0  0  0
 10 27  1  0  0  0  0
 11 27  2  0  0  0  0
 12 28  1  0  0  0  0
 13 14  2  0  0  0  0
 13 29  1  0  0  0  0
 14 30  1  0  0  0  0
 15 19  2  0  0  0  0
 15 20  1  0  0  0  0
 16 25  1  0  0  0  0
 16 28  2  0  0  0  0
 17 30  2  0  0  0  0
 17 31  1  0  0  0  0
 18 32  1  0  0  0  0
 19 34  1  0  0  0  0
 20 26  2  0  0  0  0
 20 35  1  0  0  0  0
 21 32  1  0  0  0  0
 21 33  2  0  0  0  0
 21 38  1  0  0  0  0
 22 24  2  0  0  0  0
 22 44  1  0  0  0  0
 23 25  2  0  0  0  0
 23 45  1  0  0  0  0
 24 53  1  0  0  0  0
 25 46  1  0  0  0  0
 26 56  1  0  0  0  0
 27 81  1  0  0  0  0
 28 82  1  0  0  0  0
 29 31  2  0  0  0  0
 29 81  1  0  0  0  0
 30 83  1  0  0  0  0
 31 84  1  0  0  0  0
 32 66  2  0  0  0  0
 33 67  1  0  0  0  0
 33 70  1  0  0  0  0
 34 36  2  0  0  0  0
 35 37  2  0  0  0  0
 36 40  1  0  0  0  0
 37 39  1  0  0  0  0
 38 71  1  0  0  0  0
 38 75  2  0  0  0  0
 39 62  1  0  0  0  0
 39 76  2  0  0  0  0
 40 68  1  0  0  0  0
 40 77  2  0  0  0  0
 41 54  1  0  0  0  0
 41 72  1  0  0  0  0
 41 78  2  0  0  0  0
 42 63  1  0  0  0  0
 42 69  1  0  0  0  0
 42 79  2  0  0  0  0
 43 64  1  0  0  0  0
 43 73  1  0  0  0  0
 43 80  2  0  0  0  0
 44 47  1  0  0  0  0
 45 54  1  0  0  0  0
 46 69  1  0  0  0  0
 47 49  1  0  0  0  0
 48 50  1  0  0  0  0
 48 51  1  0  0  0  0
 49 53  1  0  0  0  0
 50 55  1  0  0  0  0
 51 68  1  0  0  0  0
 52 55  1  0  0  0  0
 52 68  1  0  0  0  0
 53 72  1  0  0  0  0
 54 69  1  0  0  0  0
 55 67  1  0  0  0  0
 57 64  1  0  0  0  0
 58 65  1  0  0  0  0
 59 65  1  0  0  0  0
 60 65  1  0  0  0  0
 61 74  1  0  0  0  0
 62 82  1  0  0  0  0
 63 65  1  0  0  0  0
 63 73  1  0  0  0  0
 64 74  1  0  0  0  0
 66 67  1  0  0  0  0
M  CHG  1  74   1
M  ISO  4  36 100  40 100  62 101  82 101
M  END
> <Batch ID>
0127

> <Smiles>
CNC(C)C(=O)NC(C(=O)N1Cc2cc([101O:1][101CH2:1]C(=O)C=Cc3cc(C=[100CH:0][100C:0](=O)N4CCCC(n5nc(-c6ccc(Oc7ccc(F)cc7F)cc6)c(C(N)=O)c5N)C4)ccc3C)ccc2CC1C(=O)NC1CCCc2ccccc21)C(C)(C)C

> <Shape>
0.302

> <Color>
0.118

> <Negative vol penalty>
0.000

$$$$

  -OEChem-04052302143D

 81 89  0     1  0  0  0  0  0999 V2000
  -19.5267  -33.7591   20.7756 C   0  0  0  0  0  0  0  0  0  0  0  0
  -20.8032  -33.3108   20.4517 C   0  0  0  0  0  0  0  0  0  0  0  0
  -24.5503   -9.5021   21.0935 C   0  0  0  0  0  0  0  0  0  0  0  0
  -22.4643  -10.3386   20.2071 C   0  0  0  0  0  0  0  0  0  0  0  0
  -18.8482  -33.2036   21.8595 C   0  0  0  0  0  0  0  0  0  0  0  0
  -21.4024  -32.3074   21.2123 C   0  0  0  0  0  0  0  0  0  0  0  0
  -25.1585  -27.9088   19.1996 C   0  0  0  0  0  0  0  0  0  0  0  0
  -23.8831   -8.3962   21.6201 C   0  0  0  0  0  0  0  0  0  0  0  0
  -21.7971   -9.2326   20.7337 C   0  0  0  0  0  0  0  0  0  0  0  0
  -26.5473  -27.7868   19.2040 C   0  0  0  0  0  0  0  0  0  0  0  0
  -21.9473   -7.7001   24.3019 C   0  0  0  0  0  0  0  0  0  0  0  0
  -22.2513   -7.3231   25.6100 C   0  0  0  0  0  0  0  0  0  0  0  0
  -29.6040  -21.7325   20.2121 C   0  0  0  0  0  0  0  0  0  0  0  0
  -26.4214  -26.4964   21.2382 C   0  0  0  0  0  0  0  0  0  0  0  0
  -22.9745   -5.1582   24.8179 C   0  0  0  0  0  0  0  0  0  0  0  0
  -29.8809  -22.3497   22.3378 C   0  0  0  0  0  0  0  0  0  0  0  0
  -23.8409  -10.4734   20.3870 C   0  0  0  0  0  0  0  0  0  0  0  0
  -29.8942  -22.8350   21.0509 C   0  0  0  0  0  0  0  0  0  0  0  0
  -25.1158  -11.7283   18.5684 C   0  0  0  0  0  0  0  0  0  0  0  0
  -19.4355  -32.1861   22.6279 C   0  0  0  0  0  0  0  0  0  0  0  0
  -24.3902  -27.3338   20.2221 C   0  0  0  0  0  0  0  0  0  0  0  0
  -20.7316  -31.7386   22.3083 C   0  0  0  0  0  0  0  0  0  0  0  0
  -25.0228  -26.6103   21.2431 C   0  0  0  0  0  0  0  0  0  0  0  0
  -22.5065   -8.2614   21.4402 C   0  0  0  0  0  0  0  0  0  0  0  0
  -27.1792  -27.0830   20.2249 C   0  0  0  0  0  0  0  0  0  0  0  0
  -22.1568   -6.8062   23.2518 C   0  0  0  0  0  0  0  0  0  0  0  0
  -22.7649   -6.0522   25.8680 C   0  0  0  0  0  0  0  0  0  0  0  0
  -22.6704   -5.5352   23.5098 C   0  0  0  0  0  0  0  0  0  0  0  0
  -24.5295  -11.6164   19.8433 C   0  0  0  0  0  0  0  0  0  0  0  0
  -29.4342  -20.6521   21.0463 C   0  0  0  0  0  0  0  0  0  0  0  0
  -25.6364  -12.9990   18.5402 C   0  0  0  0  0  0  0  0  0  0  0  0
  -30.1632  -24.2302   20.6649 C   0  0  0  0  0  0  0  0  0  0  0  0
  -29.1264  -19.3226   20.6759 C   0  0  0  0  0  0  0  0  0  0  0  0
  -28.9380  -18.2550   21.5200 C   0  0  0  0  0  0  0  0  0  0  0  0
  -30.1760  -24.6952   19.4059 C   0  0  0  0  0  0  0  0  0  0  0  0
  -25.1838  -10.7694   17.5046 C   0  0  0  0  0  0  0  0  0  0  0  0
  -28.6099  -16.9215   20.9769 C   0  0  0  0  0  0  0  0  0  0  0  0
  -22.4240  -28.4572   22.4528 C   0  0  0  0  0  0  0  0  0  0  0  0
  -21.8977  -25.3073   23.0219 C   0  0  0  0  0  0  0  0  0  0  0  0
  -23.0331  -22.0959   22.8111 C   0  0  0  0  0  0  0  0  0  0  0  0
  -18.6821  -31.6492   23.8191 C   0  0  0  0  0  0  0  0  0  0  0  0
  -22.8911  -27.4517   20.1885 C   0  0  0  0  0  0  0  0  0  0  0  0
  -24.2420  -25.9570   22.3530 C   0  0  0  0  0  0  0  0  0  0  0  0
  -19.2369  -30.3282   24.3457 C   0  0  0  0  0  0  0  0  0  0  0  0
  -25.0127  -16.8971   21.6781 C   0  0  0  0  0  0  0  0  0  0  0  0
  -20.7562  -30.3961   24.4630 C   0  0  0  0  0  0  0  0  0  0  0  0
  -24.6291  -15.5005   21.1964 C   0  0  0  0  0  0  0  0  0  0  0  0
  -26.4160  -16.9283   22.2819 C   0  0  0  0  0  0  0  0  0  0  0  0
  -27.0838  -14.9885   20.8921 C   0  0  0  0  0  0  0  0  0  0  0  0
  -21.4051  -30.6346   23.0942 C   0  0  1  0  0  0  0  0  0  0  0  0
  -22.2460  -27.2632   21.5581 C   0  0  1  0  0  0  0  0  0  0  0  0
  -25.6939  -14.9436   20.2382 C   0  0  1  0  0  0  0  0  0  0  0  0
  -22.3975  -19.7395   23.3949 C   0  0  0  0  0  0  0  0  0  0  0  0
  -22.5825  -25.8495   25.9454 C   0  0  0  0  0  0  0  0  0  0  0  0
  -22.8616  -23.3821   26.2651 C   0  0  0  0  0  0  0  0  0  0  0  0
  -20.6441  -24.3084   25.5965 C   0  0  0  0  0  0  0  0  0  0  0  0
  -23.0814  -21.2567   19.9735 C   0  0  0  0  0  0  0  0  0  0  0  0
  -30.4685  -26.1284   19.0549 C   0  0  0  0  0  0  0  0  0  0  0  0
  -29.1929  -26.9578   18.9658 C   0  0  0  0  0  0  0  0  0  1  0  0
  -22.5272  -24.2617   23.9102 C   0  0  1  0  0  0  0  0  0  0  0  0
  -22.3659  -20.8214   22.3266 C   0  0  2  0  0  0  0  0  0  0  0  0
  -22.1690  -24.4642   25.4096 C   0  0  0  0  0  0  0  0  0  0  0  0
  -24.6646  -12.7273   20.5723 N   0  0  0  0  0  0  0  0  0  0  0  0
  -25.3419  -13.5494   19.7529 N   0  0  0  0  0  0  0  0  0  0  0  0
  -27.4073  -16.3372   21.3705 N   0  0  0  0  0  0  0  0  0  0  0  0
  -22.7792  -26.1058   22.2795 N   0  0  0  0  0  0  0  0  0  0  0  0
  -26.3127  -13.6880   17.5967 N   0  0  0  0  0  0  0  0  0  0  0  0
  -24.5972   -9.5116   17.7004 N   0  0  0  0  0  0  0  0  0  0  0  0
  -21.4297  -29.4084   22.3260 N   0  0  0  0  0  0  0  0  0  0  0  0
  -22.1229  -22.9688   23.3687 N   0  0  0  0  0  0  0  0  0  0  0  0
  -23.0581  -20.3035   21.1127 N   0  3  0  0  0  0  0  0  0  0  0  0
  -25.7624  -11.0147   16.4190 O   0  0  0  0  0  0  0  0  0  0  0  0
  -29.4242  -16.4035   20.2106 O   0  0  0  0  0  0  0  0  0  0  0  0
  -23.3909  -28.5107   23.2036 O   0  0  0  0  0  0  0  0  0  0  0  0
  -20.6688  -25.4071   22.9825 O   0  0  0  0  0  0  0  0  0  0  0  0
  -24.2415  -22.2955   22.7089 O   0  0  0  0  0  0  0  0  0  0  0  0
  -29.6014  -21.0199   22.3437 O   0  0  0  0  0  0  0  0  0  0  0  0
  -21.8552   -7.1822   21.9537 O   0  0  0  0  0  0  0  0  0  0  0  0
  -28.5347  -26.9629   20.2320 O   0  0  0  0  0  0  0  0  0  1  0  0
  -23.0583   -5.6908   27.1240 F   0  0  0  0  0  0  0  0  0  0  0  0
  -22.8749   -4.6725   22.5050 F   0  0  0  0  0  0  0  0  0  0  0  0
  1  2  1  0  0  0  0
  1  5  2  0  0  0  0
  2  6  2  0  0  0  0
  3  8  2  0  0  0  0
  3 17  1  0  0  0  0
  4  9  1  0  0  0  0
  4 17  2  0  0  0  0
  5 20  1  0  0  0  0
  6 22  1  0  0  0  0
  7 10  2  0  0  0  0
  7 21  1  0  0  0  0
  8 24  1  0  0  0  0
  9 24  2  0  0  0  0
 10 25  1  0  0  0  0
 11 12  2  0  0  0  0
 11 26  1  0  0  0  0
 12 27  1  0  0  0  0
 13 18  1  0  0  0  0
 13 30  2  0  0  0  0
 14 23  1  0  0  0  0
 14 25  2  0  0  0  0
 15 27  2  0  0  0  0
 15 28  1  0  0  0  0
 16 18  2  0  0  0  0
 16 77  1  0  0  0  0
 17 29  1  0  0  0  0
 18 32  1  0  0  0  0
 19 29  1  0  0  0  0
 19 31  2  0  0  0  0
 19 36  1  0  0  0  0
 20 22  2  0  0  0  0
 20 41  1  0  0  0  0
 21 23  2  0  0  0  0
 21 42  1  0  0  0  0
 22 50  1  0  0  0  0
 23 43  1  0  0  0  0
 24 78  1  0  0  0  0
 25 79  1  0  0  0  0
 26 28  2  0  0  0  0
 26 78  1  0  0  0  0
 27 80  1  0  0  0  0
 28 81  1  0  0  0  0
 29 63  2  0  0  0  0
 30 33  1  0  0  0  0
 30 77  1  0  0  0  0
 31 64  1  0  0  0  0
 31 67  1  0  0  0  0
 32 35  2  0  0  0  0
 33 34  2  0  0  0  0
 34 37  1  0  0  0  0
 35 58  1  0  0  0  0
 36 68  1  0  0  0  0
 36 72  2  0  0  0  0
 37 65  1  0  0  0  0
 37 73  2  0  0  0  0
 38 51  1  0  0  0  0
 38 69  1  0  0  0  0
 38 74  2  0  0  0  0
 39 60  1  0  0  0  0
 39 66  1  0  0  0  0
 39 75  2  0  0  0  0
 40 61  1  0  0  0  0
 40 70  1  0  0  0  0
 40 76  2  0  0  0  0
 41 44  1  0  0  0  0
 42 51  1  0  0  0  0
 43 66  1  0  0  0  0
 44 46  1  0  0  0  0
 45 47  1  0  0  0  0
 45 48  1  0  0  0  0
 46 50  1  0  0  0  0
 47 52  1  0  0  0  0
 48 65  1  0  0  0  0
 49 52  1  0  0  0  0
 49 65  1  0  0  0  0
 50 69  1  0  0  0  0
 51 66  1  0  0  0  0
 52 64  1  0  0  0  0
 53 61  1  0  0  0  0
 54 62  1  0  0  0  0
 55 62  1  0  0  0  0
 56 62  1  0  0  0  0
 57 71  1  0  0  0  0
 58 59  1  0  0  0  0
 59 79  1  0  0  0  0
 60 62  1  0  0  0  0
 60 70  1  0  0  0  0
 61 71  1  0  0  0  0
 63 64  1  0  0  0  0
M  CHG  1  71   1
M  ISO  4  34 100  37 100  59 101  79 101
M  END
> <Batch ID>
0127

> <Smiles>
CNC(C)C(=O)NC(C(=O)N1Cc2cc([101O:1][101CH2:1]CC=Cc3coc(C=[100CH:0][100C:0](=O)N4CCCC(n5nc(-c6ccc(Oc7ccc(F)cc7F)cc6)c(C(N)=O)c5N)C4)c3)ccc2CC1C(=O)NC1CCCc2ccccc21)C(C)(C)C

> <Shape>
0.227

> <Color>
0.104

> <Negative vol penalty>
0.000

$$$$

  -OEChem-04052302143D

 83 91  0     1  0  0  0  0  0999 V2000
  -16.5287  -28.0434   21.7372 C   0  0  0  0  0  0  0  0  0  0  0  0
  -17.6058  -27.1641   21.6917 C   0  0  0  0  0  0  0  0  0  0  0  0
  -24.1769   -9.4243   21.1405 C   0  0  0  0  0  0  0  0  0  0  0  0
  -24.7779  -10.2663   23.3238 C   0  0  0  0  0  0  0  0  0  0  0  0
  -16.7289  -29.4021   21.4968 C   0  0  0  0  0  0  0  0  0  0  0  0
  -18.8837  -27.6429   21.4047 C   0  0  0  0  0  0  0  0  0  0  0  0
  -24.1839  -25.5812   23.6768 C   0  0  0  0  0  0  0  0  0  0  0  0
  -30.3203  -17.3487   23.6735 C   0  0  0  0  0  0  0  0  0  0  0  0
  -32.1683  -17.8102   22.1873 C   0  0  0  0  0  0  0  0  0  0  0  0
  -23.7945   -8.2114   21.7134 C   0  0  0  0  0  0  0  0  0  0  0  0
  -24.3954   -9.0534   23.8968 C   0  0  0  0  0  0  0  0  0  0  0  0
  -25.1462  -24.7094   23.1691 C   0  0  0  0  0  0  0  0  0  0  0  0
  -30.0120  -18.7085   23.7125 C   0  0  0  0  0  0  0  0  0  0  0  0
  -31.8600  -19.1700   22.2262 C   0  0  0  0  0  0  0  0  0  0  0  0
  -21.1400   -6.9864   23.4123 C   0  0  0  0  0  0  0  0  0  0  0  0
  -19.9328   -6.4251   22.9963 C   0  0  0  0  0  0  0  0  0  0  0  0
  -26.4276  -26.5941   22.3783 C   0  0  0  0  0  0  0  0  0  0  0  0
  -21.1106   -4.4598   22.2297 C   0  0  0  0  0  0  0  0  0  0  0  0
  -24.6687  -10.4517   21.9456 C   0  0  0  0  0  0  0  0  0  0  0  0
  -24.2557  -12.8368   21.1404 C   0  0  0  0  0  0  0  0  0  0  0  0
  -18.0114  -29.8993   21.2163 C   0  0  0  0  0  0  0  0  0  0  0  0
  -24.3311  -26.9679   23.5292 C   0  0  0  0  0  0  0  0  0  0  0  0
  -19.1009  -29.0094   21.1591 C   0  0  0  0  0  0  0  0  0  0  0  0
  -25.4670  -27.4814   22.8873 C   0  0  0  0  0  0  0  0  0  0  0  0
  -31.3984  -16.8996   22.9109 C   0  0  0  0  0  0  0  0  0  0  0  0
  -23.9037   -8.0260   23.0916 C   0  0  0  0  0  0  0  0  0  0  0  0
  -30.7819  -19.6192   22.9888 C   0  0  0  0  0  0  0  0  0  0  0  0
  -26.2669  -25.2157   22.5172 C   0  0  0  0  0  0  0  0  0  0  0  0
  -22.3326   -6.2844   23.2369 C   0  0  0  0  0  0  0  0  0  0  0  0
  -19.9180   -5.1618   22.4051 C   0  0  0  0  0  0  0  0  0  0  0  0
  -22.3179   -5.0212   22.6457 C   0  0  0  0  0  0  0  0  0  0  0  0
  -25.0645  -11.7046   21.3543 C   0  0  0  0  0  0  0  0  0  0  0  0
  -25.0956  -13.7535   20.5567 C   0  0  0  0  0  0  0  0  0  0  0  0
  -22.8692  -13.0417   21.4426 C   0  0  0  0  0  0  0  0  0  0  0  0
  -22.6708  -29.2581   22.0792 C   0  0  0  0  0  0  0  0  0  0  0  0
  -28.8087  -22.6302   22.5499 C   0  0  0  0  0  0  0  0  0  0  0  0
  -24.8328  -31.1995   23.5213 C   0  0  0  0  0  0  0  0  0  0  0  0
  -27.9342  -31.5641   24.8979 C   0  0  0  0  0  0  0  0  0  0  0  0
  -31.0352  -14.5000   20.6812 C   0  0  0  0  0  0  0  0  0  0  0  0
  -18.1708  -31.3688   20.9166 C   0  0  0  0  0  0  0  0  0  0  0  0
  -23.2973  -27.8958   24.1060 C   0  0  0  0  0  0  0  0  0  0  0  0
  -25.6821  -28.9628   22.7206 C   0  0  0  0  0  0  0  0  0  0  0  0
  -19.6170  -31.8518   20.9890 C   0  0  0  0  0  0  0  0  0  0  0  0
  -28.9959  -14.0347   17.8000 C   0  0  0  0  0  0  0  0  0  0  0  0
  -20.5386  -30.8913   20.2440 C   0  0  0  0  0  0  0  0  0  0  0  0
  -27.6841  -13.4869   18.3649 C   0  0  0  0  0  0  0  0  0  0  0  0
  -30.2054  -13.5073   18.5688 C   0  0  0  0  0  0  0  0  0  0  0  0
  -28.8399  -13.1698   20.5925 C   0  0  0  0  0  0  0  0  0  0  0  0
  -20.5061  -29.4943   20.8755 C   0  0  1  0  0  0  0  0  0  0  0  0
  -23.2945  -29.2714   23.4462 C   0  0  1  0  0  0  0  0  0  0  0  0
  -27.5886  -13.7176   19.8851 C   0  0  2  0  0  0  0  0  0  0  0  0
  -29.4299  -33.2778   25.9577 C   0  0  0  0  0  0  0  0  0  0  0  0
  -25.4021  -32.3981   20.7738 C   0  0  0  0  0  0  0  0  0  0  0  0
  -27.5045  -33.3794   21.7146 C   0  0  0  0  0  0  0  0  0  0  0  0
  -25.2896  -34.0639   22.6357 C   0  0  0  0  0  0  0  0  0  0  0  0
  -28.0646  -30.0493   27.4370 C   0  0  0  0  0  0  0  0  0  0  0  0
  -31.7278  -15.4457   22.8687 C   0  0  0  0  0  0  0  0  0  0  0  0
  -29.1220  -21.3068   23.2176 C   0  0  0  0  0  0  0  0  0  0  0  0
  -27.3845  -23.1243   22.6989 C   0  0  0  0  0  0  0  0  0  1  0  0
  -26.1856  -31.7561   23.1486 C   0  0  1  0  0  0  0  0  0  0  0  0
  -28.3899  -32.1953   26.2011 C   0  0  2  0  0  0  0  0  0  0  0  0
  -26.0907  -32.8714   22.0694 C   0  0  0  0  0  0  0  0  0  0  0  0
  -26.3217  -11.8833   20.9399 N   0  0  0  0  0  0  0  0  0  0  0  0
  -26.3091  -13.1384   20.4598 N   0  0  0  0  0  0  0  0  0  0  0  0
  -24.6401  -29.8291   23.2962 N   0  0  0  0  0  0  0  0  0  0  0  0
  -30.0529  -13.7589   20.0038 N   0  0  0  0  0  0  0  0  0  0  0  0
  -24.9072  -15.0175   20.1219 N   0  0  0  0  0  0  0  0  0  0  0  0
  -22.1544  -11.9957   22.0419 N   0  0  0  0  0  0  0  0  0  0  0  0
  -21.3048  -29.4664   22.0820 N   0  0  0  0  0  0  0  0  0  0  0  0
  -26.8090  -32.1836   24.3964 N   0  0  0  0  0  0  0  0  0  0  0  0
  -30.8103  -14.6980   22.0380 N   0  0  0  0  0  0  0  0  0  0  0  0
  -28.9863  -31.1633   27.0958 N   0  3  0  0  0  0  0  0  0  0  0  0
  -22.2775  -14.1146   21.1737 O   0  0  0  0  0  0  0  0  0  0  0  0
  -23.3770  -29.0741   21.0947 O   0  0  0  0  0  0  0  0  0  0  0  0
  -29.6581  -23.2636   21.9250 O   0  0  0  0  0  0  0  0  0  0  0  0
  -23.9808  -31.9514   24.0014 O   0  0  0  0  0  0  0  0  0  0  0  0
  -28.5201  -30.6186   24.3750 O   0  0  0  0  0  0  0  0  0  0  0  0
  -32.0356  -14.9563   20.1174 O   0  0  0  0  0  0  0  0  0  0  0  0
  -23.5303   -6.8427   23.6511 O   0  0  0  0  0  0  0  0  0  0  0  0
  -30.4771  -20.9592   23.0263 O   0  0  0  0  0  0  0  0  0  0  0  0
  -27.2074  -24.3670   22.0201 O   0  0  0  0  0  0  0  0  0  1  0  0
  -18.7584   -4.6223   22.0071 F   0  0  0  0  0  0  0  0  0  0  0  0
  -23.4603   -4.3415   22.4756 F   0  0  0  0  0  0  0  0  0  0  0  0
  1  2  1  0  0  0  0
  1  5  2  0  0  0  0
  2  6  2  0  0  0  0
  3 10  2  0  0  0  0
  3 19  1  0  0  0  0
  4 11  1  0  0  0  0
  4 19  2  0  0  0  0
  5 21  1  0  0  0  0
  6 23  1  0  0  0  0
  7 12  2  0  0  0  0
  7 22  1  0  0  0  0
  8 13  2  0  0  0  0
  8 25  1  0  0  0  0
  9 14  1  0  0  0  0
  9 25  2  0  0  0  0
 10 26  1  0  0  0  0
 11 26  2  0  0  0  0
 12 28  1  0  0  0  0
 13 27  1  0  0  0  0
 14 27  2  0  0  0  0
 15 16  2  0  0  0  0
 15 29  1  0  0  0  0
 16 30  1  0  0  0  0
 17 24  1  0  0  0  0
 17 28  2  0  0  0  0
 18 30  2  0  0  0  0
 18 31  1  0  0  0  0
 19 32  1  0  0  0  0
 20 32  1  0  0  0  0
 20 33  2  0  0  0  0
 20 34  1  0  0  0  0
 21 23  2  0  0  0  0
 21 40  1  0  0  0  0
 22 24  2  0  0  0  0
 22 41  1  0  0  0  0
 23 49  1  0  0  0  0
 24 42  1  0  0  0  0
 25 57  1  0  0  0  0
 26 79  1  0  0  0  0
 27 80  1  0  0  0  0
 28 81  1  0  0  0  0
 29 31  2  0  0  0  0
 29 79  1  0  0  0  0
 30 82  1  0  0  0  0
 31 83  1  0  0  0  0
 32 63  2  0  0  0  0
 33 64  1  0  0  0  0
 33 67  1  0  0  0  0
 34 68  1  0  0  0  0
 34 73  2  0  0  0  0
 35 50  1  0  0  0  0
 35 69  1  0  0  0  0
 35 74  2  0  0  0  0
 36 58  1  0  0  0  0
 36 59  1  0  0  0  0
 36 75  2  0  0  0  0
 37 60  1  0  0  0  0
 37 65  1  0  0  0  0
 37 76  2  0  0  0  0
 38 61  1  0  0  0  0
 38 70  1  0  0  0  0
 38 77  2  0  0  0  0
 39 66  1  0  0  0  0
 39 71  1  0  0  0  0
 39 78  2  0  0  0  0
 40 43  1  0  0  0  0
 41 50  1  0  0  0  0
 42 65  1  0  0  0  0
 43 45  1  0  0  0  0
 44 46  1  0  0  0  0
 44 47  1  0  0  0  0
 45 49  1  0  0  0  0
 46 51  1  0  0  0  0
 47 66  1  0  0  0  0
 48 51  1  0  0  0  0
 48 66  1  0  0  0  0
 49 69  1  0  0  0  0
 50 65  1  0  0  0  0
 51 64  1  0  0  0  0
 52 61  1  0  0  0  0
 53 62  1  0  0  0  0
 54 62  1  0  0  0  0
 55 62  1  0  0  0  0
 56 72  1  0  0  0  0
 57 71  1  0  0  0  0
 58 80  1  0  0  0  0
 59 81  1  0  0  0  0
 60 62  1  0  0  0  0
 60 70  1  0  0  0  0
 61 72  1  0  0  0  0
 63 64  1  0  0  0  0
M  CHG  1  72   1
M  ISO  4  39 100  59 101  71 100  81 101
M  END
> <Batch ID>
0127

> <Smiles>
CNC(C)C(=O)NC(C(=O)N1Cc2cc([101O:1][101CH2:1]C(=O)COc3ccc(C[100NH:0][100C:0](=O)N4CCCC(n5nc(-c6ccc(Oc7ccc(F)cc7F)cc6)c(C(N)=O)c5N)C4)cc3)ccc2CC1C(=O)NC1CCCc2ccccc21)C(C)(C)C

> <Shape>
0.283

> <Color>
0.155

> <Negative vol penalty>
0.000

$$$$

  -OEChem-04052302143D

 84 92  0     1  0  0  0  0  0999 V2000
  -25.4542  -35.6891   26.2149 C   0  0  0  0  0  0  0  0  0  0  0  0
  -26.2446  -34.7210   25.6038 C   0  0  0  0  0  0  0  0  0  0  0  0
  -23.9477   -9.5101   22.3576 C   0  0  0  0  0  0  0  0  0  0  0  0
  -23.7193   -9.3593   19.9571 C   0  0  0  0  0  0  0  0  0  0  0  0
  -29.9963  -21.3275   21.7356 C   0  0  0  0  0  0  0  0  0  0  0  0
  -24.1033  -35.4374   26.4506 C   0  0  0  0  0  0  0  0  0  0  0  0
  -25.6848  -33.5001   25.2291 C   0  0  0  0  0  0  0  0  0  0  0  0
  -27.1522  -30.1248   20.3342 C   0  0  0  0  0  0  0  0  0  0  0  0
  -22.9566   -8.5410   22.5128 C   0  0  0  0  0  0  0  0  0  0  0  0
  -22.7283   -8.3901   20.1123 C   0  0  0  0  0  0  0  0  0  0  0  0
  -30.1231  -22.7142   21.6554 C   0  0  0  0  0  0  0  0  0  0  0  0
  -27.9758  -29.0112   20.1755 C   0  0  0  0  0  0  0  0  0  0  0  0
  -22.7078   -5.1758   22.2970 C   0  0  0  0  0  0  0  0  0  0  0  0
  -22.9397   -4.1530   23.2166 C   0  0  0  0  0  0  0  0  0  0  0  0
  -27.7591  -21.5826   22.6113 C   0  0  0  0  0  0  0  0  0  0  0  0
  -26.0519  -27.5686   20.3669 C   0  0  0  0  0  0  0  0  0  0  0  0
  -20.9742   -4.8197   24.4535 C   0  0  0  0  0  0  0  0  0  0  0  0
  -24.3290   -9.9193   21.0797 C   0  0  0  0  0  0  0  0  0  0  0  0
  -28.8143  -20.7617   22.2136 C   0  0  0  0  0  0  0  0  0  0  0  0
  -26.7389  -10.7081   20.8000 C   0  0  0  0  0  0  0  0  0  0  0  0
  -23.5243  -34.2166   26.0698 C   0  0  0  0  0  0  0  0  0  0  0  0
  -25.7714  -29.9679   20.5217 C   0  0  0  0  0  0  0  0  0  0  0  0
  -24.3251  -33.2313   25.4611 C   0  0  0  0  0  0  0  0  0  0  0  0
  -25.2126  -28.6819   20.5252 C   0  0  0  0  0  0  0  0  0  0  0  0
  -27.8858  -22.9694   22.5311 C   0  0  0  0  0  0  0  0  0  0  0  0
  -22.3469   -7.9809   21.3902 C   0  0  0  0  0  0  0  0  0  0  0  0
  -27.4262  -27.7327   20.1947 C   0  0  0  0  0  0  0  0  0  0  0  0
  -29.0679  -23.5352   22.0531 C   0  0  0  0  0  0  0  0  0  0  0  0
  -21.6092   -6.0206   22.4556 C   0  0  0  0  0  0  0  0  0  0  0  0
  -22.0729   -3.9749   24.2948 C   0  0  0  0  0  0  0  0  0  0  0  0
  -20.7424   -5.8425   23.5338 C   0  0  0  0  0  0  0  0  0  0  0  0
  -25.3523  -10.9209   20.9188 C   0  0  0  0  0  0  0  0  0  0  0  0
  -27.2696  -11.9682   20.6695 C   0  0  0  0  0  0  0  0  0  0  0  0
  -28.6838  -19.3153   22.2955 C   0  0  0  0  0  0  0  0  0  0  0  0
  -27.5187  -18.6367   22.3647 C   0  0  0  0  0  0  0  0  0  0  0  0
  -27.4807   -9.4812   20.8070 C   0  0  0  0  0  0  0  0  0  0  0  0
  -27.5512  -17.1619   22.4333 C   0  0  0  0  0  0  0  0  0  0  0  0
  -23.7267  -30.6909   22.8456 C   0  0  0  0  0  0  0  0  0  0  0  0
  -21.5235  -29.6774   20.6914 C   0  0  0  0  0  0  0  0  0  0  0  0
  -20.8167  -27.7791   17.9448 C   0  0  0  0  0  0  0  0  0  0  0  0
  -22.0705  -33.9720   26.3881 C   0  0  0  0  0  0  0  0  0  0  0  0
  -24.8929  -31.1805   20.6647 C   0  0  0  0  0  0  0  0  0  0  0  0
  -23.7335  -28.4604   20.7029 C   0  0  0  0  0  0  0  0  0  0  0  0
  -21.4684  -32.7973   25.6214 C   0  0  0  0  0  0  0  0  0  0  0  0
  -25.0493  -16.4228   19.8592 C   0  0  0  0  0  0  0  0  0  0  0  0
  -22.3998  -31.5905   25.6762 C   0  0  0  0  0  0  0  0  0  0  0  0
  -24.9902  -14.8996   19.9360 C   0  0  0  0  0  0  0  0  0  0  0  0
  -25.3042  -17.0548   21.2267 C   0  0  0  0  0  0  0  0  0  0  0  0
  -26.4578  -14.9985   21.9894 C   0  0  0  0  0  0  0  0  0  0  0  0
  -23.7487  -31.9042   25.0177 C   0  0  1  0  0  0  0  0  0  0  0  0
  -23.5702  -30.8810   21.3634 C   0  0  1  0  0  0  0  0  0  0  0  0
  -26.2490  -14.3396   20.6169 C   0  0  1  0  0  0  0  0  0  0  0  0
  -24.4534  -24.7287   22.3627 C   0  0  0  0  0  0  0  0  0  0  0  0
  -18.9196  -27.1227   16.4389 C   0  0  0  0  0  0  0  0  0  0  0  0
  -20.4724  -27.7870   22.8435 C   0  0  0  0  0  0  0  0  0  0  0  0
  -19.2627  -26.5285   21.0488 C   0  0  0  0  0  0  0  0  0  0  0  0
  -18.6983  -28.9177   21.4912 C   0  0  0  0  0  0  0  0  0  0  0  0
  -22.1398  -28.9547   15.5729 C   0  0  0  0  0  0  0  0  0  0  0  0
  -26.7464  -23.8335   22.9603 C   0  0  0  0  0  0  0  0  0  0  0  0
  -25.6274  -23.8755   21.9093 C   0  0  0  0  0  0  0  0  0  0  0  0
  -29.5720  -26.7561   20.5066 C   0  0  0  0  0  0  0  0  0  1  0  0
  -30.0611  -25.3881   20.9414 C   0  0  0  0  0  0  0  0  0  0  0  0
  -20.8860  -28.3502   20.3580 C   0  0  1  0  0  0  0  0  0  0  0  0
  -20.0635  -28.0987   16.6661 C   0  0  2  0  0  0  0  0  0  0  0  0
  -19.8580  -27.8996   21.4339 C   0  0  0  0  0  0  0  0  0  0  0  0
  -25.0230  -12.2143   20.8683 N   0  0  0  0  0  0  0  0  0  0  0  0
  -26.2101  -12.8257   20.7165 N   0  0  0  0  0  0  0  0  0  0  0  0
  -26.4790  -16.4617   21.8832 N   0  0  0  0  0  0  0  0  0  0  0  0
  -22.9171  -29.6773   20.8451 N   0  0  0  0  0  0  0  0  0  0  0  0
  -28.5347  -12.4152   20.5203 N   0  0  0  0  0  0  0  0  0  0  0  0
  -26.7785   -8.2767   20.9502 N   0  0  0  0  0  0  0  0  0  0  0  0
  -23.6298  -31.8599   23.5761 N   0  0  0  0  0  0  0  0  0  0  0  0
  -20.3257  -28.4915   19.0184 N   0  0  0  0  0  0  0  0  0  0  0  0
  -20.9807  -28.0289   15.4935 N   0  3  0  0  0  0  0  0  0  0  0  0
  -28.7307   -9.4548   20.7061 O   0  0  0  0  0  0  0  0  0  0  0  0
  -28.5250  -16.6394   22.9787 O   0  0  0  0  0  0  0  0  0  0  0  0
  -23.9196  -29.5667   23.2935 O   0  0  0  0  0  0  0  0  0  0  0  0
  -20.8119  -30.6787   20.8040 O   0  0  0  0  0  0  0  0  0  0  0  0
  -21.7450  -26.9748   17.9878 O   0  0  0  0  0  0  0  0  0  0  0  0
  -21.3800   -7.0350   21.5412 O   0  0  0  0  0  0  0  0  0  0  0  0
  -28.2279  -26.6440   20.0406 O   0  0  0  0  0  0  0  0  0  1  0  0
  -29.2098  -24.8953   21.9689 O   0  0  0  0  0  0  0  0  0  0  0  0
  -22.2948   -2.9918   25.1771 F   0  0  0  0  0  0  0  0  0  0  0  0
  -19.6847   -6.6501   23.6908 F   0  0  0  0  0  0  0  0  0  0  0  0
  1  2  1  0  0  0  0
  1  6  2  0  0  0  0
  2  7  2  0  0  0  0
  3  9  2  0  0  0  0
  3 18  1  0  0  0  0
  4 10  1  0  0  0  0
  4 18  2  0  0  0  0
  5 11  2  0  0  0  0
  5 19  1  0  0  0  0
  6 21  1  0  0  0  0
  7 23  1  0  0  0  0
  8 12  2  0  0  0  0
  8 22  1  0  0  0  0
  9 26  1  0  0  0  0
 10 26  2  0  0  0  0
 11 28  1  0  0  0  0
 12 27  1  0  0  0  0
 13 14  2  0  0  0  0
 13 29  1  0  0  0  0
 14 30  1  0  0  0  0
 15 19  2  0  0  0  0
 15 25  1  0  0  0  0
 16 24  1  0  0  0  0
 16 27  2  0  0  0  0
 17 30  2  0  0  0  0
 17 31  1  0  0  0  0
 18 32  1  0  0  0  0
 19 34  1  0  0  0  0
 20 32  1  0  0  0  0
 20 33  2  0  0  0  0
 20 36  1  0  0  0  0
 21 23  2  0  0  0  0
 21 41  1  0  0  0  0
 22 24  2  0  0  0  0
 22 42  1  0  0  0  0
 23 50  1  0  0  0  0
 24 43  1  0  0  0  0
 25 28  2  0  0  0  0
 25 59  1  0  0  0  0
 26 80  1  0  0  0  0
 27 81  1  0  0  0  0
 28 82  1  0  0  0  0
 29 31  2  0  0  0  0
 29 80  1  0  0  0  0
 30 83  1  0  0  0  0
 31 84  1  0  0  0  0
 32 66  2  0  0  0  0
 33 67  1  0  0  0  0
 33 70  1  0  0  0  0
 34 35  2  0  0  0  0
 35 37  1  0  0  0  0
 36 71  1  0  0  0  0
 36 75  2  0  0  0  0
 37 68  1  0  0  0  0
 37 76  2  0  0  0  0
 38 51  1  0  0  0  0
 38 72  1  0  0  0  0
 38 77  2  0  0  0  0
 39 63  1  0  0  0  0
 39 69  1  0  0  0  0
 39 78  2  0  0  0  0
 40 64  1  0  0  0  0
 40 73  1  0  0  0  0
 40 79  2  0  0  0  0
 41 44  1  0  0  0  0
 42 51  1  0  0  0  0
 43 69  1  0  0  0  0
 44 46  1  0  0  0  0
 45 47  1  0  0  0  0
 45 48  1  0  0  0  0
 46 50  1  0  0  0  0
 47 52  1  0  0  0  0
 48 68  1  0  0  0  0
 49 52  1  0  0  0  0
 49 68  1  0  0  0  0
 50 72  1  0  0  0  0
 51 69  1  0  0  0  0
 52 67  1  0  0  0  0
 53 60  1  0  0  0  0
 54 64  1  0  0  0  0
 55 65  1  0  0  0  0
 56 65  1  0  0  0  0
 57 65  1  0  0  0  0
 58 74  1  0  0  0  0
 59 60  1  0  0  0  0
 61 62  1  0  0  0  0
 61 81  1  0  0  0  0
 62 82  1  0  0  0  0
 63 65  1  0  0  0  0
 63 73  1  0  0  0  0
 64 74  1  0  0  0  0
 66 67  1  0  0  0  0
M  CHG  1  74   1
M  ISO  4  35 100  37 100  61 101  81 101
M  END
> <Batch ID>
0127

> <Smiles>
CCCc1cc(C=[100CH:0][100C:0](=O)N2CCCC(n3nc(-c4ccc(Oc5ccc(F)cc5F)cc4)c(C(N)=O)c3N)C2)ccc1OC[101CH2:1][101O:1]c1ccc2c(c1)CN(C(=O)C(NC(=O)C(C)NC)C(C)(C)C)C(C(=O)NC1CCCc3ccccc31)C2

> <Shape>
0.277

> <Color>
0.118

> <Negative vol penalty>
0.000

$$$$

  -OEChem-04052302143D

 84 92  0     1  0  0  0  0  0999 V2000
  -29.6399  -25.9063   14.1939 C   0  0  0  0  0  0  0  0  0  0  0  0
  -28.2580  -25.9520   14.3475 C   0  0  0  0  0  0  0  0  0  0  0  0
  -26.9807  -13.1667   21.0396 C   0  0  0  0  0  0  0  0  0  0  0  0
  -26.9682  -13.3535   18.6308 C   0  0  0  0  0  0  0  0  0  0  0  0
  -23.7569  -22.8909   21.1234 C   0  0  0  0  0  0  0  0  0  0  0  0
  -30.4624  -25.8190   15.3163 C   0  0  0  0  0  0  0  0  0  0  0  0
  -27.6977  -25.9092   15.6237 C   0  0  0  0  0  0  0  0  0  0  0  0
  -22.1033  -28.3854   19.3504 C   0  0  0  0  0  0  0  0  0  0  0  0
  -26.2748  -11.9670   20.9502 C   0  0  0  0  0  0  0  0  0  0  0  0
  -26.2623  -12.1538   18.5415 C   0  0  0  0  0  0  0  0  0  0  0  0
  -22.4173  -23.2684   21.0309 C   0  0  0  0  0  0  0  0  0  0  0  0
  -21.0699  -27.9333   20.1698 C   0  0  0  0  0  0  0  0  0  0  0  0
  -23.0791  -10.9897   20.4431 C   0  0  0  0  0  0  0  0  0  0  0  0
  -22.0020  -10.8064   21.3101 C   0  0  0  0  0  0  0  0  0  0  0  0
  -22.5920  -27.8623   22.0400 C   0  0  0  0  0  0  0  0  0  0  0  0
  -22.2142  -23.1366   23.4348 C   0  0  0  0  0  0  0  0  0  0  0  0
  -23.0822   -8.8556   22.2398 C   0  0  0  0  0  0  0  0  0  0  0  0
  -27.3274  -13.8600   19.8799 C   0  0  0  0  0  0  0  0  0  0  0  0
  -24.3251  -22.6361   22.3716 C   0  0  0  0  0  0  0  0  0  0  0  0
  -29.4541  -15.2655   19.9770 C   0  0  0  0  0  0  0  0  0  0  0  0
  -29.9123  -25.7849   16.6074 C   0  0  0  0  0  0  0  0  0  0  0  0
  -23.3936  -28.5692   19.8680 C   0  0  0  0  0  0  0  0  0  0  0  0
  -28.5135  -25.8200   16.7644 C   0  0  0  0  0  0  0  0  0  0  0  0
  -23.6394  -28.3193   21.2257 C   0  0  0  0  0  0  0  0  0  0  0  0
  -23.5538  -22.7590   23.5273 C   0  0  0  0  0  0  0  0  0  0  0  0
  -25.9156  -11.4605   19.7012 C   0  0  0  0  0  0  0  0  0  0  0  0
  -21.3148  -27.6689   21.5142 C   0  0  0  0  0  0  0  0  0  0  0  0
  -21.6459  -23.3913   22.1866 C   0  0  0  0  0  0  0  0  0  0  0  0
  -24.1579  -10.1059   20.4744 C   0  0  0  0  0  0  0  0  0  0  0  0
  -22.0035   -9.7393   22.2084 C   0  0  0  0  0  0  0  0  0  0  0  0
  -24.1594   -9.0389   21.3727 C   0  0  0  0  0  0  0  0  0  0  0  0
  -28.0562  -15.0996   19.9716 C   0  0  0  0  0  0  0  0  0  0  0  0
  -29.6384  -16.6226   20.0804 C   0  0  0  0  0  0  0  0  0  0  0  0
  -25.7260  -22.2428   22.4388 C   0  0  0  0  0  0  0  0  0  0  0  0
  -30.4931  -14.2808   19.8956 C   0  0  0  0  0  0  0  0  0  0  0  0
  -26.1278  -20.8230   22.3797 C   0  0  0  0  0  0  0  0  0  0  0  0
  -26.2481  -27.3005   19.2802 C   0  0  0  0  0  0  0  0  0  0  0  0
  -27.2531  -29.5631   21.3761 C   0  0  0  0  0  0  0  0  0  0  0  0
  -26.5019  -31.6413   23.9767 C   0  0  0  0  0  0  0  0  0  0  0  0
  -30.8397  -25.6426   17.7881 C   0  0  0  0  0  0  0  0  0  0  0  0
  -24.4912  -29.0830   18.9772 C   0  0  0  0  0  0  0  0  0  0  0  0
  -25.0021  -28.5200   21.8349 C   0  0  0  0  0  0  0  0  0  0  0  0
  -30.1818  -25.9800   19.1236 C   0  0  0  0  0  0  0  0  0  0  0  0
  -27.5692  -20.7852   19.0103 C   0  0  0  0  0  0  0  0  0  0  0  0
  -28.8176  -25.3061   19.2320 C   0  0  0  0  0  0  0  0  0  0  0  0
  -27.9418  -19.3119   18.8668 C   0  0  0  0  0  0  0  0  0  0  0  0
  -26.2986  -20.9756   19.8373 C   0  0  0  0  0  0  0  0  0  0  0  0
  -26.7286  -18.8484   21.0333 C   0  0  0  0  0  0  0  0  0  0  0  0
  -27.8690  -25.8009   18.1334 C   0  0  1  0  0  0  0  0  0  0  0  0
  -25.8866  -28.7434   19.4918 C   0  0  1  0  0  0  0  0  0  0  0  0
  -28.0301  -18.6362   20.2443 C   0  0  1  0  0  0  0  0  0  0  0  0
  -24.4491  -23.7795   25.6352 C   0  0  0  0  0  0  0  0  0  0  0  0
  -27.5391  -33.3437   25.5009 C   0  0  0  0  0  0  0  0  0  0  0  0
  -28.6088  -27.3265   22.9476 C   0  0  0  0  0  0  0  0  0  0  0  0
  -28.7932  -28.8969   24.8887 C   0  0  0  0  0  0  0  0  0  0  0  0
  -29.9556  -29.4240   22.7455 C   0  0  0  0  0  0  0  0  0  0  0  0
  -24.6727  -33.7690   23.0354 C   0  0  0  0  0  0  0  0  0  0  0  0
  -24.1378  -22.4932   24.8764 C   0  0  0  0  0  0  0  0  0  0  0  0
  -18.7227  -25.4490   22.6999 C   0  0  0  0  0  0  0  0  0  0  0  0
  -19.2811  -26.4502   21.7008 C   0  0  0  0  0  0  0  0  0  1  0  0
  -19.7883  -24.4829   23.1932 C   0  0  0  0  0  0  0  0  0  0  0  0
  -27.4387  -29.6268   22.8729 C   0  0  1  0  0  0  0  0  0  0  0  0
  -26.7830  -33.1161   24.2013 C   0  0  2  0  0  0  0  0  0  0  0  0
  -28.6738  -28.8128   23.3521 C   0  0  0  0  0  0  0  0  0  0  0  0
  -27.3990  -16.2587   20.0644 N   0  0  0  0  0  0  0  0  0  0  0  0
  -26.7038  -23.0988   22.5515 N   0  0  0  0  0  0  0  0  0  0  0  0
  -28.3884  -17.1659   20.1292 N   0  0  0  0  0  0  0  0  0  0  0  0
  -26.3844  -20.2716   21.1256 N   0  0  0  0  0  0  0  0  0  0  0  0
  -26.0440  -29.0178   20.9216 N   0  0  0  0  0  0  0  0  0  0  0  0
  -30.7462  -17.3923   20.1336 N   0  0  0  0  0  0  0  0  0  0  0  0
  -30.1284  -12.9314   19.7936 N   0  0  0  0  0  0  0  0  0  0  0  0
  -27.3487  -27.1096   18.4667 N   0  0  0  0  0  0  0  0  0  0  0  0
  -27.4861  -31.0434   23.2184 N   0  0  0  0  0  0  0  0  0  0  0  0
  -25.5069  -33.8837   24.2593 N   0  3  0  0  0  0  0  0  0  0  0  0
  -31.7091  -14.5873   19.9294 O   0  0  0  0  0  0  0  0  0  0  0  0
  -26.2073  -20.2096   23.4456 O   0  0  0  0  0  0  0  0  0  0  0  0
  -25.5790  -26.4251   19.8164 O   0  0  0  0  0  0  0  0  0  0  0  0
  -28.1449  -29.9883   20.6374 O   0  0  0  0  0  0  0  0  0  0  0  0
  -25.5104  -31.0754   24.4319 O   0  0  0  0  0  0  0  0  0  0  0  0
  -25.2269  -10.2898   19.6136 O   0  0  0  0  0  0  0  0  0  0  0  0
  -20.3081  -27.2270   22.3160 O   0  0  0  0  0  0  0  0  0  1  0  0
  -20.3288  -23.7595   22.0958 O   0  0  0  0  0  0  0  0  0  0  0  0
  -20.9697   -9.5643   23.0419 F   0  0  0  0  0  0  0  0  0  0  0  0
  -25.1935   -8.1872   21.4083 F   0  0  0  0  0  0  0  0  0  0  0  0
  1  2  1  0  0  0  0
  1  6  2  0  0  0  0
  2  7  2  0  0  0  0
  3  9  2  0  0  0  0
  3 18  1  0  0  0  0
  4 10  1  0  0  0  0
  4 18  2  0  0  0  0
  5 11  2  0  0  0  0
  5 19  1  0  0  0  0
  6 21  1  0  0  0  0
  7 23  1  0  0  0  0
  8 12  2  0  0  0  0
  8 22  1  0  0  0  0
  9 26  1  0  0  0  0
 10 26  2  0  0  0  0
 11 28  1  0  0  0  0
 12 27  1  0  0  0  0
 13 14  2  0  0  0  0
 13 29  1  0  0  0  0
 14 30  1  0  0  0  0
 15 24  1  0  0  0  0
 15 27  2  0  0  0  0
 16 25  1  0  0  0  0
 16 28  2  0  0  0  0
 17 30  2  0  0  0  0
 17 31  1  0  0  0  0
 18 32  1  0  0  0  0
 19 25  2  0  0  0  0
 19 34  1  0  0  0  0
 20 32  1  0  0  0  0
 20 33  2  0  0  0  0
 20 35  1  0  0  0  0
 21 23  2  0  0  0  0
 21 40  1  0  0  0  0
 22 24  2  0  0  0  0
 22 41  1  0  0  0  0
 23 49  1  0  0  0  0
 24 42  1  0  0  0  0
 25 58  1  0  0  0  0
 26 80  1  0  0  0  0
 27 81  1  0  0  0  0
 28 82  1  0  0  0  0
 29 31  2  0  0  0  0
 29 80  1  0  0  0  0
 30 83  1  0  0  0  0
 31 84  1  0  0  0  0
 32 65  2  0  0  0  0
 33 67  1  0  0  0  0
 33 70  1  0  0  0  0
 34 36  1  0  0  0  0
 34 66  2  0  0  0  0
 35 71  1  0  0  0  0
 35 75  2  0  0  0  0
 36 68  1  0  0  0  0
 36 76  2  0  0  0  0
 37 50  1  0  0  0  0
 37 72  1  0  0  0  0
 37 77  2  0  0  0  0
 38 62  1  0  0  0  0
 38 69  1  0  0  0  0
 38 78  2  0  0  0  0
 39 63  1  0  0  0  0
 39 73  1  0  0  0  0
 39 79  2  0  0  0  0
 40 43  1  0  0  0  0
 41 50  1  0  0  0  0
 42 69  1  0  0  0  0
 43 45  1  0  0  0  0
 44 46  1  0  0  0  0
 44 47  1  0  0  0  0
 45 49  1  0  0  0  0
 46 51  1  0  0  0  0
 47 68  1  0  0  0  0
 48 51  1  0  0  0  0
 48 68  1  0  0  0  0
 49 72  1  0  0  0  0
 50 69  1  0  0  0  0
 51 67  1  0  0  0  0
 52 58  1  0  0  0  0
 53 63  1  0  0  0  0
 54 64  1  0  0  0  0
 55 64  1  0  0  0  0
 56 64  1  0  0  0  0
 57 74  1  0  0  0  0
 59 60  1  0  0  0  0
 59 61  1  0  0  0  0
 60 81  1  0  0  0  0
 61 82  1  0  0  0  0
 62 64  1  0  0  0  0
 62 73  1  0  0  0  0
 63 74  1  0  0  0  0
 65 67  1  0  0  0  0
M  CHG  1  74   1
M  ISO  4  34 100  36 100  60 101  81 101
M  END
> <Batch ID>
0127

> <Smiles>
CCc1cc(OCC[101CH2:1][101O:1]c2ccc3c(c2)CN(C(=O)C(NC(=O)C(C)NC)C(C)(C)C)C(C(=O)NC2CCCc4ccccc42)C3)ccc1[100C:0](=N)[100C:0](=O)N1CCCC(n2nc(-c3ccc(Oc4ccc(F)cc4F)cc3)c(C(N)=O)c2N)C1

> <Shape>
0.269

> <Color>
0.069

> <Negative vol penalty>
0.000

$$$$

  -OEChem-04052302143D

 83 91  0     1  0  0  0  0  0999 V2000
  -25.5922  -36.9606   22.1623 C   0  0  0  0  0  0  0  0  0  0  0  0
  -26.2963  -35.8716   21.6585 C   0  0  0  0  0  0  0  0  0  0  0  0
  -26.6259  -13.1195   21.9447 C   0  0  0  0  0  0  0  0  0  0  0  0
  -25.7153  -14.7266   20.3874 C   0  0  0  0  0  0  0  0  0  0  0  0
  -24.7046  -36.7851   23.2231 C   0  0  0  0  0  0  0  0  0  0  0  0
  -26.1140  -34.6066   22.2160 C   0  0  0  0  0  0  0  0  0  0  0  0
  -26.2398  -29.2352   19.2769 C   0  0  0  0  0  0  0  0  0  0  0  0
  -25.4014  -12.4521   21.9719 C   0  0  0  0  0  0  0  0  0  0  0  0
  -24.4908  -14.0592   20.4145 C   0  0  0  0  0  0  0  0  0  0  0  0
  -27.2347  -28.2697   19.1295 C   0  0  0  0  0  0  0  0  0  0  0  0
  -22.6232  -10.1162   22.1728 C   0  0  0  0  0  0  0  0  0  0  0  0
  -22.6410   -8.7244   22.0824 C   0  0  0  0  0  0  0  0  0  0  0  0
  -26.2976  -27.0312   20.9754 C   0  0  0  0  0  0  0  0  0  0  0  0
  -33.2478  -22.1782   17.7133 C   0  0  0  0  0  0  0  0  0  0  0  0
  -32.5376  -22.8760   20.3193 C   0  0  0  0  0  0  0  0  0  0  0  0
  -23.7263   -8.8782   19.9293 C   0  0  0  0  0  0  0  0  0  0  0  0
  -26.7828  -14.2568   21.1524 C   0  0  0  0  0  0  0  0  0  0  0  0
  -29.1253  -14.7112   20.2503 C   0  0  0  0  0  0  0  0  0  0  0  0
  -24.5042  -35.5155   23.7876 C   0  0  0  0  0  0  0  0  0  0  0  0
  -25.2712  -29.1114   20.2833 C   0  0  0  0  0  0  0  0  0  0  0  0
  -25.2239  -34.4141   23.2863 C   0  0  0  0  0  0  0  0  0  0  0  0
  -25.2900  -27.9952   21.1318 C   0  0  0  0  0  0  0  0  0  0  0  0
  -33.3507  -23.5045   18.1327 C   0  0  0  0  0  0  0  0  0  0  0  0
  -32.7898  -21.2008   18.5968 C   0  0  0  0  0  0  0  0  0  0  0  0
  -32.9956  -23.8534   19.4357 C   0  0  0  0  0  0  0  0  0  0  0  0
  -32.4348  -21.5497   19.8998 C   0  0  0  0  0  0  0  0  0  0  0  0
  -24.3339  -12.9219   21.2068 C   0  0  0  0  0  0  0  0  0  0  0  0
  -27.2654  -27.1690   19.9807 C   0  0  0  0  0  0  0  0  0  0  0  0
  -23.1568  -10.8890   21.1414 C   0  0  0  0  0  0  0  0  0  0  0  0
  -23.1926   -8.1054   20.9607 C   0  0  0  0  0  0  0  0  0  0  0  0
  -23.7083  -10.2700   20.0197 C   0  0  0  0  0  0  0  0  0  0  0  0
  -28.0473  -14.9470   21.1244 C   0  0  0  0  0  0  0  0  0  0  0  0
  -30.0809  -15.6218   20.6301 C   0  0  0  0  0  0  0  0  0  0  0  0
  -29.2517  -13.7545   19.1899 C   0  0  0  0  0  0  0  0  0  0  0  0
  -24.4446  -30.8318   22.8250 C   0  0  0  0  0  0  0  0  0  0  0  0
  -22.0315  -28.6725   23.0163 C   0  0  0  0  0  0  0  0  0  0  0  0
  -20.8701  -25.5519   22.2684 C   0  0  0  0  0  0  0  0  0  0  0  0
  -31.5786  -20.7686   22.1366 C   0  0  0  0  0  0  0  0  0  0  0  0
  -23.5696  -35.3834   24.9640 C   0  0  0  0  0  0  0  0  0  0  0  0
  -24.1888  -30.1479   20.4120 C   0  0  0  0  0  0  0  0  0  0  0  0
  -24.2611  -27.8052   22.2151 C   0  0  0  0  0  0  0  0  0  0  0  0
  -23.1536  -33.9433   25.2527 C   0  0  0  0  0  0  0  0  0  0  0  0
  -30.3361  -18.6269   24.6952 C   0  0  0  0  0  0  0  0  0  0  0  0
  -24.3688  -33.0217   25.2294 C   0  0  0  0  0  0  0  0  0  0  0  0
  -29.7186  -17.4592   23.9224 C   0  0  0  0  0  0  0  0  0  0  0  0
  -30.1204  -19.9587   23.9785 C   0  0  0  0  0  0  0  0  0  0  0  0
  -29.9356  -18.8182   21.8027 C   0  0  0  0  0  0  0  0  0  0  0  0
  -25.0348  -33.0217   23.8481 C   0  0  1  0  0  0  0  0  0  0  0  0
  -23.5574  -30.1832   21.8003 C   0  0  1  0  0  0  0  0  0  0  0  0
  -30.1835  -17.4473   22.4530 C   0  0  2  0  0  0  0  0  0  0  0  0
  -33.8432  -24.5337   17.1690 C   0  0  0  0  0  0  0  0  0  0  0  0
  -32.6898  -19.7880   18.1205 C   0  0  0  0  0  0  0  0  0  0  0  0
  -18.8765  -24.0622   22.5910 C   0  0  0  0  0  0  0  0  0  0  0  0
  -22.8760  -28.1720   25.9053 C   0  0  0  0  0  0  0  0  0  0  0  0
  -21.5208  -26.0673   25.8635 C   0  0  0  0  0  0  0  0  0  0  0  0
  -20.4034  -28.2746   25.5440 C   0  0  0  0  0  0  0  0  0  0  0  0
  -20.4021  -25.3520   19.3529 C   0  0  0  0  0  0  0  0  0  0  0  0
  -33.0981  -25.2806   19.9116 C   0  0  0  0  0  0  0  0  0  0  0  0
  -31.9737  -26.1868   19.3981 C   0  0  0  0  0  0  0  0  0  0  0  0
  -30.5901  -25.7629   19.8929 C   0  0  0  0  0  0  0  0  0  0  0  0
  -29.4961  -26.6609   19.3313 C   0  0  0  0  0  0  0  0  0  1  0  0
  -21.8445  -27.3352   23.6913 C   0  0  1  0  0  0  0  0  0  0  0  0
  -19.5499  -25.0814   21.6851 C   0  0  2  0  0  0  0  0  0  0  0  0
  -21.6819  -27.4665   25.2319 C   0  0  0  0  0  0  0  0  0  0  0  0
  -28.2942  -15.9303   21.9940 N   0  0  0  0  0  0  0  0  0  0  0  0
  -29.5384  -16.3203   21.6683 N   0  0  0  0  0  0  0  0  0  0  0  0
  -23.2268  -28.8490   22.3050 N   0  0  0  0  0  0  0  0  0  0  0  0
  -30.5881  -19.8736   22.5933 N   0  0  0  0  0  0  0  0  0  0  0  0
  -31.3239  -15.8851   20.1739 N   0  0  0  0  0  0  0  0  0  0  0  0
  -28.1747  -12.8949   18.9336 N   0  0  0  0  0  0  0  0  0  0  0  0
  -31.9676  -20.5713   20.8121 N   0  0  0  0  0  0  0  0  0  0  0  0
  -24.2823  -32.2005   22.9241 N   0  0  0  0  0  0  0  0  0  0  0  0
  -20.7162  -26.6952   23.0237 N   0  0  0  0  0  0  0  0  0  0  0  0
  -19.7674  -24.4534   20.3512 N   0  3  0  0  0  0  0  0  0  0  0  0
  -30.2951  -13.6536   18.5009 O   0  0  0  0  0  0  0  0  0  0  0  0
  -25.2179  -30.1414   23.4784 O   0  0  0  0  0  0  0  0  0  0  0  0
  -21.1463  -29.5265   23.1106 O   0  0  0  0  0  0  0  0  0  0  0  0
  -21.9310  -24.9619   22.0765 O   0  0  0  0  0  0  0  0  0  0  0  0
  -32.0669  -21.6280   22.8749 O   0  0  0  0  0  0  0  0  0  0  0  0
  -23.1389  -12.2707   21.2329 O   0  0  0  0  0  0  0  0  0  0  0  0
  -28.2358  -26.2254   19.8395 O   0  0  0  0  0  0  0  0  0  1  0  0
  -23.2111   -6.7688   20.8748 F   0  0  0  0  0  0  0  0  0  0  0  0
  -24.2235  -11.0071   19.0262 F   0  0  0  0  0  0  0  0  0  0  0  0
  1  2  1  0  0  0  0
  1  5  2  0  0  0  0
  2  6  2  0  0  0  0
  3  8  2  0  0  0  0
  3 17  1  0  0  0  0
  4  9  1  0  0  0  0
  4 17  2  0  0  0  0
  5 19  1  0  0  0  0
  6 21  1  0  0  0  0
  7 10  2  0  0  0  0
  7 20  1  0  0  0  0
  8 27  1  0  0  0  0
  9 27  2  0  0  0  0
 10 28  1  0  0  0  0
 11 12  2  0  0  0  0
 11 29  1  0  0  0  0
 12 30  1  0  0  0  0
 13 22  1  0  0  0  0
 13 28  2  0  0  0  0
 14 23  1  0  0  0  0
 14 24  2  0  0  0  0
 15 25  1  0  0  0  0
 15 26  2  0  0  0  0
 16 30  2  0  0  0  0
 16 31  1  0  0  0  0
 17 32  1  0  0  0  0
 18 32  1  0  0  0  0
 18 33  2  0  0  0  0
 18 34  1  0  0  0  0
 19 21  2  0  0  0  0
 19 39  1  0  0  0  0
 20 22  2  0  0  0  0
 20 40  1  0  0  0  0
 21 48  1  0  0  0  0
 22 41  1  0  0  0  0
 23 25  2  0  0  0  0
 23 51  1  0  0  0  0
 24 26  1  0  0  0  0
 24 52  1  0  0  0  0
 25 58  1  0  0  0  0
 26 71  1  0  0  0  0
 27 80  1  0  0  0  0
 28 81  1  0  0  0  0
 29 31  2  0  0  0  0
 29 80  1  0  0  0  0
 30 82  1  0  0  0  0
 31 83  1  0  0  0  0
 32 65  2  0  0  0  0
 33 66  1  0  0  0  0
 33 69  1  0  0  0  0
 34 70  1  0  0  0  0
 34 75  2  0  0  0  0
 35 49  1  0  0  0  0
 35 72  1  0  0  0  0
 35 76  2  0  0  0  0
 36 62  1  0  0  0  0
 36 67  1  0  0  0  0
 36 77  2  0  0  0  0
 37 63  1  0  0  0  0
 37 73  1  0  0  0  0
 37 78  2  0  0  0  0
 38 68  1  0  0  0  0
 38 71  1  0  0  0  0
 38 79  2  0  0  0  0
 39 42  1  0  0  0  0
 40 49  1  0  0  0  0
 41 67  1  0  0  0  0
 42 44  1  0  0  0  0
 43 45  1  0  0  0  0
 43 46  1  0  0  0  0
 44 48  1  0  0  0  0
 45 50  1  0  0  0  0
 46 68  1  0  0  0  0
 47 50  1  0  0  0  0
 47 68  1  0  0  0  0
 48 72  1  0  0  0  0
 49 67  1  0  0  0  0
 50 66  1  0  0  0  0
 53 63  1  0  0  0  0
 54 64  1  0  0  0  0
 55 64  1  0  0  0  0
 56 64  1  0  0  0  0
 57 74  1  0  0  0  0
 58 59  1  0  0  0  0
 59 60  1  0  0  0  0
 60 61  1  0  0  0  0
 61 81  1  0  0  0  0
 62 64  1  0  0  0  0
 62 73  1  0  0  0  0
 63 74  1  0  0  0  0
 65 66  1  0  0  0  0
M  CHG  1  74   1
M  ISO  4  38 100  61 101  71 100  81 101
M  END
> <Batch ID>
0127

> <Smiles>
CNC(C)C(=O)NC(C(=O)N1Cc2cc([101O:1][101CH2:1]CCCc3cc([100NH:0][100C:0](=O)N4CCCC(n5nc(-c6ccc(Oc7ccc(F)cc7F)cc6)c(C(N)=O)c5N)C4)c(C)cc3C)ccc2CC1C(=O)NC1CCCc2ccccc21)C(C)(C)C

> <Shape>
0.283

> <Color>
0.065

> <Negative vol penalty>
0.000

$$$$

  -OEChem-04052302143D

 82 90  0     1  0  0  0  0  0999 V2000
  -24.9654  -18.8882   14.5627 C   0  0  0  0  0  0  0  0  0  0  0  0
  -25.9900  -18.6634   15.4766 C   0  0  0  0  0  0  0  0  0  0  0  0
  -24.9127  -29.9691   20.8503 C   0  0  0  0  0  0  0  0  0  0  0  0
  -25.5580  -28.9184   22.9279 C   0  0  0  0  0  0  0  0  0  0  0  0
  -23.6725  -18.4494   14.8450 C   0  0  0  0  0  0  0  0  0  0  0  0
  -25.7220  -18.0005   16.6737 C   0  0  0  0  0  0  0  0  0  0  0  0
  -29.2003  -14.4871   17.7700 C   0  0  0  0  0  0  0  0  0  0  0  0
  -30.1507  -18.3659   20.7468 C   0  0  0  0  0  0  0  0  0  0  0  0
  -29.2162  -19.2947   20.2892 C   0  0  0  0  0  0  0  0  0  0  0  0
  -24.2049  -30.9387   21.5605 C   0  0  0  0  0  0  0  0  0  0  0  0
  -24.8503  -29.8881   23.6381 C   0  0  0  0  0  0  0  0  0  0  0  0
  -30.4118  -14.9330   18.2965 C   0  0  0  0  0  0  0  0  0  0  0  0
  -24.8975  -33.7589   23.2926 C   0  0  0  0  0  0  0  0  0  0  0  0
  -25.0524  -35.0893   22.9035 C   0  0  0  0  0  0  0  0  0  0  0  0
  -29.6579  -14.3468   20.5117 C   0  0  0  0  0  0  0  0  0  0  0  0
  -31.7735  -20.1344   21.0226 C   0  0  0  0  0  0  0  0  0  0  0  0
  -22.6836  -35.2327   22.4504 C   0  0  0  0  0  0  0  0  0  0  0  0
  -25.5892  -28.9588   21.5340 C   0  0  0  0  0  0  0  0  0  0  0  0
  -27.6707  -28.0073   20.4072 C   0  0  0  0  0  0  0  0  0  0  0  0
  -23.3904  -17.7723   16.0419 C   0  0  0  0  0  0  0  0  0  0  0  0
  -28.2026  -13.9769   18.6130 C   0  0  0  0  0  0  0  0  0  0  0  0
  -24.4237  -17.5534   16.9728 C   0  0  0  0  0  0  0  0  0  0  0  0
  -28.4356  -13.8927   19.9932 C   0  0  0  0  0  0  0  0  0  0  0  0
  -31.4294  -18.7857   21.1135 C   0  0  0  0  0  0  0  0  0  0  0  0
  -30.8389  -21.0633   20.5649 C   0  0  0  0  0  0  0  0  0  0  0  0
  -29.5603  -20.6434   20.1983 C   0  0  0  0  0  0  0  0  0  0  0  0
  -24.1737  -30.8983   22.9544 C   0  0  0  0  0  0  0  0  0  0  0  0
  -30.6396  -14.8656   19.6679 C   0  0  0  0  0  0  0  0  0  0  0  0
  -23.6357  -33.1652   23.2605 C   0  0  0  0  0  0  0  0  0  0  0  0
  -23.9455  -35.8263   22.4825 C   0  0  0  0  0  0  0  0  0  0  0  0
  -22.5287  -33.9021   22.8394 C   0  0  0  0  0  0  0  0  0  0  0  0
  -26.3201  -27.9566   20.8009 C   0  0  0  0  0  0  0  0  0  0  0  0
  -27.8798  -26.8228   19.7442 C   0  0  0  0  0  0  0  0  0  0  0  0
  -28.6489  -29.0334   20.6218 C   0  0  0  0  0  0  0  0  0  0  0  0
  -25.2224  -14.8203   19.3277 C   0  0  0  0  0  0  0  0  0  0  0  0
  -25.2447  -12.0318   20.9847 C   0  0  0  0  0  0  0  0  0  0  0  0
  -27.0627   -9.6234   22.5789 C   0  0  0  0  0  0  0  0  0  0  0  0
  -27.2884  -21.3017   19.3312 C   0  0  0  0  0  0  0  0  0  0  0  0
  -21.9677  -17.3586   16.3240 C   0  0  0  0  0  0  0  0  0  0  0  0
  -26.9116  -13.4752   18.0265 C   0  0  0  0  0  0  0  0  0  0  0  0
  -27.4048  -13.3345   20.9388 C   0  0  0  0  0  0  0  0  0  0  0  0
  -21.8431  -16.3329   17.4478 C   0  0  0  0  0  0  0  0  0  0  0  0
  -24.5965  -23.3134   18.1549 C   0  0  0  0  0  0  0  0  0  0  0  0
  -22.6921  -16.7475   18.6454 C   0  0  0  0  0  0  0  0  0  0  0  0
  -24.9160  -24.7049   18.7060 C   0  0  0  0  0  0  0  0  0  0  0  0
  -24.9838  -22.2109   19.1389 C   0  0  0  0  0  0  0  0  0  0  0  0
  -26.6899  -23.6581   20.1706 C   0  0  0  0  0  0  0  0  0  0  0  0
  -24.1776  -16.8161   18.2713 C   0  0  1  0  0  0  0  0  0  0  0  0
  -25.7669  -13.4509   19.0346 C   0  0  1  0  0  0  0  0  0  0  0  0
  -26.3771  -24.7983   19.1878 C   0  0  2  0  0  0  0  0  0  0  0  0
  -31.5324  -22.9299   19.0413 C   0  0  0  0  0  0  0  0  0  0  0  0
  -26.7993   -7.4870   23.8688 C   0  0  0  0  0  0  0  0  0  0  0  0
  -24.3393  -13.6209   23.4271 C   0  0  0  0  0  0  0  0  0  0  0  0
  -25.0054  -11.6743   24.8538 C   0  0  0  0  0  0  0  0  0  0  0  0
  -23.2084  -11.4083   23.1442 C   0  0  0  0  0  0  0  0  0  0  0  0
  -28.6230   -8.0912   20.5847 C   0  0  0  0  0  0  0  0  0  0  0  0
  -32.4403  -17.7811   21.6059 C   0  0  0  0  0  0  0  0  0  0  0  0
  -31.2360  -22.5012   20.4748 C   0  0  0  0  0  0  0  0  0  0  0  0
  -33.2936  -17.1697   20.4925 C   0  0  0  0  0  0  0  0  0  0  0  0
  -32.4845  -16.3558   19.4894 C   0  0  0  0  0  0  0  0  0  1  0  0
  -25.6122  -11.6273   22.3920 C   0  0  1  0  0  0  0  0  0  0  0  0
  -27.0173   -8.1082   22.4979 C   0  0  2  0  0  0  0  0  0  0  0  0
  -24.5602  -12.0951   23.4369 C   0  0  0  0  0  0  0  0  0  0  0  0
  -25.7138  -26.8292   20.4196 N   0  0  0  0  0  0  0  0  0  0  0  0
  -26.6880  -26.1605   19.7793 N   0  0  0  0  0  0  0  0  0  0  0  0
  -26.1562  -12.8626   20.3178 N   0  0  0  0  0  0  0  0  0  0  0  0
  -26.3820  -22.3610   19.5480 N   0  0  0  0  0  0  0  0  0  0  0  0
  -28.9650  -26.2935   19.1403 N   0  0  0  0  0  0  0  0  0  0  0  0
  -28.2662  -30.1853   21.3224 N   0  0  0  0  0  0  0  0  0  0  0  0
  -28.5968  -21.5714   19.7310 N   0  0  0  0  0  0  0  0  0  0  0  0
  -24.7465  -15.4866   18.2146 N   0  0  0  0  0  0  0  0  0  0  0  0
  -25.8220  -10.1839   22.3602 N   0  0  0  0  0  0  0  0  0  0  0  0
  -28.2950   -7.5808   21.9408 N   0  3  0  0  0  0  0  0  0  0  0  0
  -29.8230  -28.9389   20.1903 O   0  0  0  0  0  0  0  0  0  0  0  0
  -25.2320  -15.2407   20.4787 O   0  0  0  0  0  0  0  0  0  0  0  0
  -24.1912  -11.6198   20.4927 O   0  0  0  0  0  0  0  0  0  0  0  0
  -28.0947  -10.2472   22.8164 O   0  0  0  0  0  0  0  0  0  0  0  0
  -26.9360  -20.2439   18.8031 O   0  0  0  0  0  0  0  0  0  0  0  0
  -23.4834  -31.8444   23.6477 O   0  0  0  0  0  0  0  0  0  0  0  0
  -31.8210  -15.3008   20.1845 O   0  0  0  0  0  0  0  0  0  1  0  0
  -24.0942  -37.1044   22.1104 F   0  0  0  0  0  0  0  0  0  0  0  0
  -21.3138  -33.3376   22.8076 F   0  0  0  0  0  0  0  0  0  0  0  0
  1  2  1  0  0  0  0
  1  5  2  0  0  0  0
  2  6  2  0  0  0  0
  3 10  2  0  0  0  0
  3 18  1  0  0  0  0
  4 11  1  0  0  0  0
  4 18  2  0  0  0  0
  5 20  1  0  0  0  0
  6 22  1  0  0  0  0
  7 12  2  0  0  0  0
  7 21  1  0  0  0  0
  8  9  2  0  0  0  0
  8 24  1  0  0  0  0
  9 26  1  0  0  0  0
 10 27  1  0  0  0  0
 11 27  2  0  0  0  0
 12 28  1  0  0  0  0
 13 14  2  0  0  0  0
 13 29  1  0  0  0  0
 14 30  1  0  0  0  0
 15 23  1  0  0  0  0
 15 28  2  0  0  0  0
 16 24  2  0  0  0  0
 16 25  1  0  0  0  0
 17 30  2  0  0  0  0
 17 31  1  0  0  0  0
 18 32  1  0  0  0  0
 19 32  1  0  0  0  0
 19 33  2  0  0  0  0
 19 34  1  0  0  0  0
 20 22  2  0  0  0  0
 20 39  1  0  0  0  0
 21 23  2  0  0  0  0
 21 40  1  0  0  0  0
 22 48  1  0  0  0  0
 23 41  1  0  0  0  0
 24 57  1  0  0  0  0
 25 26  2  0  0  0  0
 25 58  1  0  0  0  0
 26 70  1  0  0  0  0
 27 79  1  0  0  0  0
 28 80  1  0  0  0  0
 29 31  2  0  0  0  0
 29 79  1  0  0  0  0
 30 81  1  0  0  0  0
 31 82  1  0  0  0  0
 32 64  2  0  0  0  0
 33 65  1  0  0  0  0
 33 68  1  0  0  0  0
 34 69  1  0  0  0  0
 34 74  2  0  0  0  0
 35 49  1  0  0  0  0
 35 71  1  0  0  0  0
 35 75  2  0  0  0  0
 36 61  1  0  0  0  0
 36 66  1  0  0  0  0
 36 76  2  0  0  0  0
 37 62  1  0  0  0  0
 37 72  1  0  0  0  0
 37 77  2  0  0  0  0
 38 67  1  0  0  0  0
 38 70  1  0  0  0  0
 38 78  2  0  0  0  0
 39 42  1  0  0  0  0
 40 49  1  0  0  0  0
 41 66  1  0  0  0  0
 42 44  1  0  0  0  0
 43 45  1  0  0  0  0
 43 46  1  0  0  0  0
 44 48  1  0  0  0  0
 45 50  1  0  0  0  0
 46 67  1  0  0  0  0
 47 50  1  0  0  0  0
 47 67  1  0  0  0  0
 48 71  1  0  0  0  0
 49 66  1  0  0  0  0
 50 65  1  0  0  0  0
 51 58  1  0  0  0  0
 52 62  1  0  0  0  0
 53 63  1  0  0  0  0
 54 63  1  0  0  0  0
 55 63  1  0  0  0  0
 56 73  1  0  0  0  0
 57 59  1  0  0  0  0
 59 60  1  0  0  0  0
 60 80  1  0  0  0  0
 61 63  1  0  0  0  0
 61 72  1  0  0  0  0
 62 73  1  0  0  0  0
 64 65  1  0  0  0  0
M  CHG  1  73   1
M  ISO  4  38 100  60 101  70 100  80 101
M  END
> <Batch ID>
0127

> <Smiles>
CCc1cc(CC[101CH2:1][101O:1]c2ccc3c(c2)CN(C(=O)C(NC(=O)C(C)NC)C(C)(C)C)C(C(=O)NC2CCCc4ccccc42)C3)ccc1[100NH:0][100C:0](=O)N1CCCC(n2nc(-c3ccc(Oc4ccc(F)cc4F)cc3)c(C(N)=O)c2N)C1

> <Shape>
0.211

> <Color>
0.064

> <Negative vol penalty>
0.000

$$$$

  -OEChem-04052302143D

 83 91  0     1  0  0  0  0  0999 V2000
  -26.8490  -23.5806   18.0723 C   0  0  0  0  0  0  0  0  0  0  0  0
  -25.7147  -24.0828   18.7018 C   0  0  0  0  0  0  0  0  0  0  0  0
  -26.4148  -13.0665   19.8997 C   0  0  0  0  0  0  0  0  0  0  0  0
  -24.4185  -13.3610   21.2284 C   0  0  0  0  0  0  0  0  0  0  0  0
  -21.7735  -23.9223   21.8694 C   0  0  0  0  0  0  0  0  0  0  0  0
  -28.1158  -23.9573   18.5164 C   0  0  0  0  0  0  0  0  0  0  0  0
  -25.8465  -24.9613   19.7767 C   0  0  0  0  0  0  0  0  0  0  0  0
  -22.6957  -28.9127   19.4540 C   0  0  0  0  0  0  0  0  0  0  0  0
  -22.7424  -22.9449   21.6427 C   0  0  0  0  0  0  0  0  0  0  0  0
  -26.3425  -11.6875   20.0966 C   0  0  0  0  0  0  0  0  0  0  0  0
  -24.3462  -11.9819   21.4253 C   0  0  0  0  0  0  0  0  0  0  0  0
  -21.3639  -28.6953   19.8043 C   0  0  0  0  0  0  0  0  0  0  0  0
  -23.3279   -9.2693   19.6860 C   0  0  0  0  0  0  0  0  0  0  0  0
  -22.0823   -8.6594   19.5376 C   0  0  0  0  0  0  0  0  0  0  0  0
  -21.7795  -29.6757   21.9688 C   0  0  0  0  0  0  0  0  0  0  0  0
  -23.9845  -23.7315   23.5599 C   0  0  0  0  0  0  0  0  0  0  0  0
  -22.1825   -7.8972   21.8280 C   0  0  0  0  0  0  0  0  0  0  0  0
  -25.4528  -13.9032   20.4657 C   0  0  0  0  0  0  0  0  0  0  0  0
  -21.9101  -24.8045   22.9413 C   0  0  0  0  0  0  0  0  0  0  0  0
  -24.9421  -16.0699   19.2197 C   0  0  0  0  0  0  0  0  0  0  0  0
  -28.2631  -24.8484   19.5911 C   0  0  0  0  0  0  0  0  0  0  0  0
  -23.5836  -29.5043   20.3640 C   0  0  0  0  0  0  0  0  0  0  0  0
  -27.1164  -25.3492   20.2365 C   0  0  0  0  0  0  0  0  0  0  0  0
  -23.1215  -29.9018   21.6267 C   0  0  0  0  0  0  0  0  0  0  0  0
  -23.0155  -24.7090   23.7865 C   0  0  0  0  0  0  0  0  0  0  0  0
  -23.8479  -22.8494   22.4880 C   0  0  0  0  0  0  0  0  0  0  0  0
  -25.3082  -11.1452   20.8594 C   0  0  0  0  0  0  0  0  0  0  0  0
  -20.9062  -29.0742   21.0629 C   0  0  0  0  0  0  0  0  0  0  0  0
  -24.0009   -9.1930   20.9055 C   0  0  0  0  0  0  0  0  0  0  0  0
  -21.5095   -7.9734   20.6086 C   0  0  0  0  0  0  0  0  0  0  0  0
  -23.4282   -8.5070   21.9765 C   0  0  0  0  0  0  0  0  0  0  0  0
  -25.5273  -15.3279   20.2631 C   0  0  0  0  0  0  0  0  0  0  0  0
  -25.3043  -17.3694   19.4775 C   0  0  0  0  0  0  0  0  0  0  0  0
  -20.8701  -25.8249   23.1543 C   0  0  0  0  0  0  0  0  0  0  0  0
  -19.5698  -25.6799   22.8542 C   0  0  0  0  0  0  0  0  0  0  0  0
  -24.1424  -15.6243   18.1162 C   0  0  0  0  0  0  0  0  0  0  0  0
  -26.2602  -28.5814   21.8089 C   0  0  0  0  0  0  0  0  0  0  0  0
  -26.2927  -31.6517   22.8554 C   0  0  0  0  0  0  0  0  0  0  0  0
  -24.5360  -34.4923   23.5567 C   0  0  0  0  0  0  0  0  0  0  0  0
  -25.9909  -21.6276   22.9988 C   0  0  0  0  0  0  0  0  0  0  0  0
  -29.6534  -25.1895   20.0659 C   0  0  0  0  0  0  0  0  0  0  0  0
  -25.0107  -29.7562   19.9611 C   0  0  0  0  0  0  0  0  0  0  0  0
  -24.0294  -30.5592   22.6326 C   0  0  0  0  0  0  0  0  0  0  0  0
  -29.7036  -26.4175   20.9713 C   0  0  0  0  0  0  0  0  0  0  0  0
  -28.6457  -19.2658   22.7730 C   0  0  0  0  0  0  0  0  0  0  0  0
  -28.6104  -26.3434   22.0325 C   0  0  0  0  0  0  0  0  0  0  0  0
  -28.0229  -18.0918   22.0141 C   0  0  0  0  0  0  0  0  0  0  0  0
  -27.6454  -19.9211   23.7237 C   0  0  0  0  0  0  0  0  0  0  0  0
  -25.7526  -19.1507   22.3479 C   0  0  0  0  0  0  0  0  0  0  0  0
  -27.2182  -26.3237   21.3898 C   0  0  1  0  0  0  0  0  0  0  0  0
  -25.9520  -29.8978   21.1532 C   0  0  1  0  0  0  0  0  0  0  0  0
  -26.7032  -18.4994   21.3301 C   0  0  2  0  0  0  0  0  0  0  0  0
  -23.1944  -25.6367   24.9450 C   0  0  0  0  0  0  0  0  0  0  0  0
  -24.8310  -36.8248   24.4340 C   0  0  0  0  0  0  0  0  0  0  0  0
  -26.5438  -30.5511   25.6901 C   0  0  0  0  0  0  0  0  0  0  0  0
  -25.8835  -32.8078   26.5501 C   0  0  0  0  0  0  0  0  0  0  0  0
  -27.9746  -32.5465   25.2152 C   0  0  0  0  0  0  0  0  0  0  0  0
  -23.5589  -35.6896   21.0327 C   0  0  0  0  0  0  0  0  0  0  0  0
  -18.5421  -26.7494   23.0941 C   0  0  0  0  0  0  0  0  0  0  0  0
  -17.9070  -27.2110   21.7837 C   0  0  0  0  0  0  0  0  0  0  0  0
  -18.9508  -27.7440   20.8121 C   0  0  0  0  0  0  0  0  0  1  0  0
  -25.7345  -32.3782   24.0552 C   0  0  1  0  0  0  0  0  0  0  0  0
  -24.7841  -35.9454   23.1941 C   0  0  2  0  0  0  0  0  0  0  0  0
  -26.5172  -32.0568   25.3596 C   0  0  0  0  0  0  0  0  0  0  0  0
  -26.2097  -16.0924   21.1198 N   0  0  0  0  0  0  0  0  0  0  0  0
  -26.0555  -17.3284   20.6151 N   0  0  0  0  0  0  0  0  0  0  0  0
  -25.4176  -30.7785   22.1939 N   0  0  0  0  0  0  0  0  0  0  0  0
  -26.4220  -20.2841   23.0052 N   0  0  0  0  0  0  0  0  0  0  0  0
  -25.0504  -18.5318   18.8397 N   0  0  0  0  0  0  0  0  0  0  0  0
  -23.8653  -14.2552   18.0018 N   0  0  0  0  0  0  0  0  0  0  0  0
  -24.8335  -21.8582   22.2560 N   0  0  0  0  0  0  0  0  0  0  0  0
  -26.8392  -27.6539   20.9640 N   0  0  0  0  0  0  0  0  0  0  0  0
  -25.7158  -33.7938   23.7030 N   0  0  0  0  0  0  0  0  0  0  0  0
  -23.7019  -36.4486   22.3017 N   0  3  0  0  0  0  0  0  0  0  0  0
  -23.7009  -16.4147   17.2480 O   0  0  0  0  0  0  0  0  0  0  0  0
  -25.9938  -28.4198   22.9941 O   0  0  0  0  0  0  0  0  0  0  0  0
  -27.4599  -31.8569   22.5133 O   0  0  0  0  0  0  0  0  0  0  0  0
  -23.4085  -34.0246   23.6996 O   0  0  0  0  0  0  0  0  0  0  0  0
  -26.6185  -22.5133   23.5850 O   0  0  0  0  0  0  0  0  0  0  0  0
  -25.2372   -9.7997   21.0515 O   0  0  0  0  0  0  0  0  0  0  0  0
  -19.6069  -28.8626   21.4076 O   0  0  0  0  0  0  0  0  0  1  0  0
  -20.3126   -7.3892   20.4663 F   0  0  0  0  0  0  0  0  0  0  0  0
  -24.0694   -8.4314   23.1507 F   0  0  0  0  0  0  0  0  0  0  0  0
  1  2  1  0  0  0  0
  1  6  2  0  0  0  0
  2  7  2  0  0  0  0
  3 10  2  0  0  0  0
  3 18  1  0  0  0  0
  4 11  1  0  0  0  0
  4 18  2  0  0  0  0
  5  9  2  0  0  0  0
  5 19  1  0  0  0  0
  6 21  1  0  0  0  0
  7 23  1  0  0  0  0
  8 12  2  0  0  0  0
  8 22  1  0  0  0  0
  9 26  1  0  0  0  0
 10 27  1  0  0  0  0
 11 27  2  0  0  0  0
 12 28  1  0  0  0  0
 13 14  2  0  0  0  0
 13 29  1  0  0  0  0
 14 30  1  0  0  0  0
 15 24  1  0  0  0  0
 15 28  2  0  0  0  0
 16 25  1  0  0  0  0
 16 26  2  0  0  0  0
 17 30  2  0  0  0  0
 17 31  1  0  0  0  0
 18 32  1  0  0  0  0
 19 25  2  0  0  0  0
 19 34  1  0  0  0  0
 20 32  1  0  0  0  0
 20 33  2  0  0  0  0
 20 36  1  0  0  0  0
 21 23  2  0  0  0  0
 21 41  1  0  0  0  0
 22 24  2  0  0  0  0
 22 42  1  0  0  0  0
 23 50  1  0  0  0  0
 24 43  1  0  0  0  0
 25 53  1  0  0  0  0
 26 71  1  0  0  0  0
 27 80  1  0  0  0  0
 28 81  1  0  0  0  0
 29 31  2  0  0  0  0
 29 80  1  0  0  0  0
 30 82  1  0  0  0  0
 31 83  1  0  0  0  0
 32 65  2  0  0  0  0
 33 66  1  0  0  0  0
 33 69  1  0  0  0  0
 34 35  2  0  0  0  0
 35 59  1  0  0  0  0
 36 70  1  0  0  0  0
 36 75  2  0  0  0  0
 37 51  1  0  0  0  0
 37 72  1  0  0  0  0
 37 76  2  0  0  0  0
 38 62  1  0  0  0  0
 38 67  1  0  0  0  0
 38 77  2  0  0  0  0
 39 63  1  0  0  0  0
 39 73  1  0  0  0  0
 39 78  2  0  0  0  0
 40 68  1  0  0  0  0
 40 71  1  0  0  0  0
 40 79  2  0  0  0  0
 41 44  1  0  0  0  0
 42 51  1  0  0  0  0
 43 67  1  0  0  0  0
 44 46  1  0  0  0  0
 45 47  1  0  0  0  0
 45 48  1  0  0  0  0
 46 50  1  0  0  0  0
 47 52  1  0  0  0  0
 48 68  1  0  0  0  0
 49 52  1  0  0  0  0
 49 68  1  0  0  0  0
 50 72  1  0  0  0  0
 51 67  1  0  0  0  0
 52 66  1  0  0  0  0
 54 63  1  0  0  0  0
 55 64  1  0  0  0  0
 56 64  1  0  0  0  0
 57 64  1  0  0  0  0
 58 74  1  0  0  0  0
 59 60  1  0  0  0  0
 60 61  1  0  0  0  0
 61 81  1  0  0  0  0
 62 64  1  0  0  0  0
 62 73  1  0  0  0  0
 63 74  1  0  0  0  0
 65 66  1  0  0  0  0
M  CHG  1  74   1
M  ISO  4  40 100  61 101  71 100  81 101
M  END
> <Batch ID>
0127

> <Smiles>
CNC(C)C(=O)NC(C(=O)N1Cc2cc([101O:1][101CH2:1]CCC=Cc3ccc([100NH:0][100C:0](=O)N4CCCC(n5nc(-c6ccc(Oc7ccc(F)cc7F)cc6)c(C(N)=O)c5N)C4)cc3C)ccc2CC1C(=O)NC1CCCc2ccccc21)C(C)(C)C

> <Shape>
0.285

> <Color>
0.077

> <Negative vol penalty>
0.000

$$$$

  -OEChem-04052302143D

 85 93  0     1  0  0  0  0  0999 V2000
  -22.2332   -8.6617   20.6642 C   0  0  0  0  0  0  0  0  0  0  0  0
  -21.9141  -10.0141   20.7317 C   0  0  0  0  0  0  0  0  0  0  0  0
  -29.7787  -27.4808   21.8972 C   0  0  0  0  0  0  0  0  0  0  0  0
  -27.8362  -27.0072   20.5411 C   0  0  0  0  0  0  0  0  0  0  0  0
  -23.4764   -8.2167   21.1120 C   0  0  0  0  0  0  0  0  0  0  0  0
  -22.8377  -10.9223   21.2480 C   0  0  0  0  0  0  0  0  0  0  0  0
  -23.7202  -16.7061   19.4384 C   0  0  0  0  0  0  0  0  0  0  0  0
  -30.5063  -26.5243   21.1893 C   0  0  0  0  0  0  0  0  0  0  0  0
  -28.5637  -26.0506   19.8330 C   0  0  0  0  0  0  0  0  0  0  0  0
  -23.2744  -17.9259   19.9455 C   0  0  0  0  0  0  0  0  0  0  0  0
  -29.5829  -22.8587   20.2846 C   0  0  0  0  0  0  0  0  0  0  0  0
  -28.9700  -21.6303   20.0378 C   0  0  0  0  0  0  0  0  0  0  0  0
  -19.2499  -26.9394   21.1848 C   0  0  0  0  0  0  0  0  0  0  0  0
  -20.3206  -26.1502   23.2016 C   0  0  0  0  0  0  0  0  0  0  0  0
  -25.3501  -18.1774   21.1485 C   0  0  0  0  0  0  0  0  0  0  0  0
  -19.4440  -28.3993   23.1000 C   0  0  0  0  0  0  0  0  0  0  0  0
  -29.1905  -21.9980   17.6601 C   0  0  0  0  0  0  0  0  0  0  0  0
  -28.4437  -27.7222   21.5732 C   0  0  0  0  0  0  0  0  0  0  0  0
  -19.8990  -25.9267   21.8909 C   0  0  0  0  0  0  0  0  0  0  0  0
  -27.5678  -30.0793   22.0029 C   0  0  0  0  0  0  0  0  0  0  0  0
  -24.4193   -9.1212   21.6251 C   0  0  0  0  0  0  0  0  0  0  0  0
  -24.9820  -16.2067   19.7919 C   0  0  0  0  0  0  0  0  0  0  0  0
  -24.0942  -10.4888   21.7043 C   0  0  0  0  0  0  0  0  0  0  0  0
  -25.8106  -16.9522   20.6426 C   0  0  0  0  0  0  0  0  0  0  0  0
  -19.0225  -28.1758   21.7893 C   0  0  0  0  0  0  0  0  0  0  0  0
  -20.0931  -27.3865   23.8062 C   0  0  0  0  0  0  0  0  0  0  0  0
  -29.8988  -25.8092   20.1571 C   0  0  0  0  0  0  0  0  0  0  0  0
  -24.0882  -18.6604   20.8030 C   0  0  0  0  0  0  0  0  0  0  0  0
  -29.9995  -23.6569   19.2192 C   0  0  0  0  0  0  0  0  0  0  0  0
  -28.7738  -21.1999   18.7256 C   0  0  0  0  0  0  0  0  0  0  0  0
  -29.8033  -23.2265   17.9070 C   0  0  0  0  0  0  0  0  0  0  0  0
  -27.6914  -28.7098   22.3046 C   0  0  0  0  0  0  0  0  0  0  0  0
  -26.7550  -30.5768   22.9920 C   0  0  0  0  0  0  0  0  0  0  0  0
  -20.1391  -24.6220   21.2522 C   0  0  0  0  0  0  0  0  0  0  0  0
  -20.3914  -23.4758   21.9038 C   0  0  0  0  0  0  0  0  0  0  0  0
  -28.1368  -30.8343   20.9250 C   0  0  0  0  0  0  0  0  0  0  0  0
  -26.0243  -13.6145   21.3077 C   0  0  0  0  0  0  0  0  0  0  0  0
  -22.0101  -21.6128   21.5525 C   0  0  0  0  0  0  0  0  0  0  0  0
  -28.9352  -14.7555   20.4430 C   0  0  0  0  0  0  0  0  0  0  0  0
  -30.8477  -17.4379   19.5521 C   0  0  0  0  0  0  0  0  0  0  0  0
  -22.6100  -28.0675   26.5097 C   0  0  0  0  0  0  0  0  0  0  0  0
  -25.7320   -8.5868   22.1407 C   0  0  0  0  0  0  0  0  0  0  0  0
  -25.4589  -14.9020   19.2151 C   0  0  0  0  0  0  0  0  0  0  0  0
  -27.1819  -16.4699   21.0366 C   0  0  0  0  0  0  0  0  0  0  0  0
  -26.7973   -9.6642   22.3271 C   0  0  0  0  0  0  0  0  0  0  0  0
  -25.5221  -29.8298   27.5541 C   0  0  0  0  0  0  0  0  0  0  0  0
  -26.2125  -10.8737   23.0497 C   0  0  0  0  0  0  0  0  0  0  0  0
  -26.3971  -29.8662   26.3000 C   0  0  0  0  0  0  0  0  0  0  0  0
  -24.7534  -28.5152   27.6681 C   0  0  0  0  0  0  0  0  0  0  0  0
  -24.8306  -28.1957   25.2256 C   0  0  0  0  0  0  0  0  0  0  0  0
  -25.0789  -11.5081   22.2349 C   0  0  1  0  0  0  0  0  0  0  0  0
  -26.5532  -14.2442   20.0501 C   0  0  1  0  0  0  0  0  0  0  0  0
  -25.5826  -29.5245   25.0378 C   0  0  2  0  0  0  0  0  0  0  0  0
  -18.3287  -29.2589   21.0343 C   0  0  0  0  0  0  0  0  0  0  0  0
  -32.8721  -18.6964   18.7675 C   0  0  0  0  0  0  0  0  0  0  0  0
  -29.7428  -14.5661   23.3793 C   0  0  0  0  0  0  0  0  0  0  0  0
  -31.6891  -16.0556   22.8679 C   0  0  0  0  0  0  0  0  0  0  0  0
  -31.5026  -13.8266   21.7635 C   0  0  0  0  0  0  0  0  0  0  0  0
  -30.0986  -17.1009   16.7088 C   0  0  0  0  0  0  0  0  0  0  0  0
  -20.5440  -27.6256   25.2076 C   0  0  0  0  0  0  0  0  0  0  0  0
  -20.6363  -22.1712   21.2092 C   0  0  0  0  0  0  0  0  0  0  0  0
  -22.3567  -20.2877   20.9009 C   0  0  0  0  0  0  0  0  0  1  0  0
  -29.9444  -15.6908   21.0640 C   0  0  1  0  0  0  0  0  0  0  0  0
  -31.8383  -17.6369   18.4191 C   0  0  2  0  0  0  0  0  0  0  0  0
  -30.6931  -15.0432   22.2630 C   0  0  0  0  0  0  0  0  0  0  0  0
  -27.0117  -28.3597   23.3997 N   0  0  0  0  0  0  0  0  0  0  0  0
  -26.4532  -29.5164   23.7949 N   0  0  0  0  0  0  0  0  0  0  0  0
  -27.6006  -15.1854   20.4516 N   0  0  0  0  0  0  0  0  0  0  0  0
  -24.0009  -28.2507   26.4394 N   0  0  0  0  0  0  0  0  0  0  0  0
  -26.2762  -31.8135   23.2447 N   0  0  0  0  0  0  0  0  0  0  0  0
  -28.9482  -30.1670   19.9972 N   0  0  0  0  0  0  0  0  0  0  0  0
  -25.6180  -12.3030   21.1524 N   0  0  0  0  0  0  0  0  0  0  0  0
  -30.8175  -16.1274   19.9798 N   0  0  0  0  0  0  0  0  0  0  0  0
  -21.9729  -27.8279   25.2983 N   0  0  0  0  0  0  0  0  0  0  0  0
  -31.1288  -18.0623   17.1795 N   0  3  0  0  0  0  0  0  0  0  0  0
  -27.9452  -32.0674   20.7979 O   0  0  0  0  0  0  0  0  0  0  0  0
  -25.9890  -14.2697   22.3427 O   0  0  0  0  0  0  0  0  0  0  0  0
  -22.8021  -22.1933   22.2939 O   0  0  0  0  0  0  0  0  0  0  0  0
  -29.3178  -13.6863   19.9614 O   0  0  0  0  0  0  0  0  0  0  0  0
  -30.1713  -18.3542   20.0141 O   0  0  0  0  0  0  0  0  0  0  0  0
  -21.9818  -28.1194   27.5725 O   0  0  0  0  0  0  0  0  0  0  0  0
  -30.6085  -24.8758   19.4659 O   0  0  0  0  0  0  0  0  0  0  0  0
  -23.6554  -19.8511   21.2998 O   0  0  0  0  0  0  0  0  0  1  0  0
  -28.1867  -20.0195   18.4887 F   0  0  0  0  0  0  0  0  0  0  0  0
  -30.2025  -23.9884   16.8794 F   0  0  0  0  0  0  0  0  0  0  0  0
  1  2  1  0  0  0  0
  1  5  2  0  0  0  0
  2  6  2  0  0  0  0
  3  8  2  0  0  0  0
  3 18  1  0  0  0  0
  4  9  1  0  0  0  0
  4 18  2  0  0  0  0
  5 21  1  0  0  0  0
  6 23  1  0  0  0  0
  7 10  2  0  0  0  0
  7 22  1  0  0  0  0
  8 27  1  0  0  0  0
  9 27  2  0  0  0  0
 10 28  1  0  0  0  0
 11 12  2  0  0  0  0
 11 29  1  0  0  0  0
 12 30  1  0  0  0  0
 13 19  1  0  0  0  0
 13 25  2  0  0  0  0
 14 19  2  0  0  0  0
 14 26  1  0  0  0  0
 15 24  1  0  0  0  0
 15 28  2  0  0  0  0
 16 25  1  0  0  0  0
 16 26  2  0  0  0  0
 17 30  2  0  0  0  0
 17 31  1  0  0  0  0
 18 32  1  0  0  0  0
 19 34  1  0  0  0  0
 20 32  1  0  0  0  0
 20 33  2  0  0  0  0
 20 36  1  0  0  0  0
 21 23  2  0  0  0  0
 21 42  1  0  0  0  0
 22 24  2  0  0  0  0
 22 43  1  0  0  0  0
 23 51  1  0  0  0  0
 24 44  1  0  0  0  0
 25 54  1  0  0  0  0
 26 60  1  0  0  0  0
 27 82  1  0  0  0  0
 28 83  1  0  0  0  0
 29 31  2  0  0  0  0
 29 82  1  0  0  0  0
 30 84  1  0  0  0  0
 31 85  1  0  0  0  0
 32 66  2  0  0  0  0
 33 67  1  0  0  0  0
 33 70  1  0  0  0  0
 34 35  2  0  0  0  0
 35 61  1  0  0  0  0
 36 71  1  0  0  0  0
 36 76  2  0  0  0  0
 37 52  1  0  0  0  0
 37 72  1  0  0  0  0
 37 77  2  0  0  0  0
 38 61  1  0  0  0  0
 38 62  1  0  0  0  0
 38 78  2  0  0  0  0
 39 63  1  0  0  0  0
 39 68  1  0  0  0  0
 39 79  2  0  0  0  0
 40 64  1  0  0  0  0
 40 73  1  0  0  0  0
 40 80  2  0  0  0  0
 41 69  1  0  0  0  0
 41 74  1  0  0  0  0
 41 81  2  0  0  0  0
 42 45  1  0  0  0  0
 43 52  1  0  0  0  0
 44 68  1  0  0  0  0
 45 47  1  0  0  0  0
 46 48  1  0  0  0  0
 46 49  1  0  0  0  0
 47 51  1  0  0  0  0
 48 53  1  0  0  0  0
 49 69  1  0  0  0  0
 50 53  1  0  0  0  0
 50 69  1  0  0  0  0
 51 72  1  0  0  0  0
 52 68  1  0  0  0  0
 53 67  1  0  0  0  0
 55 64  1  0  0  0  0
 56 65  1  0  0  0  0
 57 65  1  0  0  0  0
 58 65  1  0  0  0  0
 59 75  1  0  0  0  0
 60 74  1  0  0  0  0
 62 83  1  0  0  0  0
 63 65  1  0  0  0  0
 63 73  1  0  0  0  0
 64 75  1  0  0  0  0
 66 67  1  0  0  0  0
M  CHG  1  75   1
M  ISO  4  41 100  62 101  74 100  83 101
M  END
> <Batch ID>
0127

> <Smiles>
CNC(C)C(=O)NC(C(=O)N1Cc2cc([101O:1][101CH2:1]C(=O)CC=Cc3cc(C)cc(C[100NH:0][100C:0](=O)N4CCCC(n5nc(-c6ccc(Oc7ccc(F)cc7F)cc6)c(C(N)=O)c5N)C4)c3)ccc2CC1C(=O)NC1CCCc2ccccc21)C(C)(C)C

> <Shape>
0.273

> <Color>
0.059

> <Negative vol penalty>
0.000

$$$$

  -OEChem-04052302143D

 83 91  0     1  0  0  0  0  0999 V2000
  -30.0646  -33.5625   23.7044 C   0  0  0  0  0  0  0  0  0  0  0  0
  -30.5719  -32.4212   24.3173 C   0  0  0  0  0  0  0  0  0  0  0  0
  -23.0719   -9.8759   19.9433 C   0  0  0  0  0  0  0  0  0  0  0  0
  -23.8309   -9.8835   22.2370 C   0  0  0  0  0  0  0  0  0  0  0  0
  -32.6912  -17.4514   23.4309 C   0  0  0  0  0  0  0  0  0  0  0  0
  -28.7647  -33.5622   23.2002 C   0  0  0  0  0  0  0  0  0  0  0  0
  -29.7791  -31.2794   24.4274 C   0  0  0  0  0  0  0  0  0  0  0  0
  -31.6516  -25.4557   24.1378 C   0  0  0  0  0  0  0  0  0  0  0  0
  -32.0824  -16.5754   22.5321 C   0  0  0  0  0  0  0  0  0  0  0  0
  -22.3240   -8.7257   20.1945 C   0  0  0  0  0  0  0  0  0  0  0  0
  -23.0829   -8.7332   22.4882 C   0  0  0  0  0  0  0  0  0  0  0  0
  -31.9386  -24.5125   25.1237 C   0  0  0  0  0  0  0  0  0  0  0  0
  -19.8519   -7.9472   23.0905 C   0  0  0  0  0  0  0  0  0  0  0  0
  -19.0943   -7.9115   24.2612 C   0  0  0  0  0  0  0  0  0  0  0  0
  -30.5251  -18.3305   24.0411 C   0  0  0  0  0  0  0  0  0  0  0  0
  -29.7096  -23.6162   24.9065 C   0  0  0  0  0  0  0  0  0  0  0  0
  -20.3288   -5.9709   25.0008 C   0  0  0  0  0  0  0  0  0  0  0  0
  -23.8254  -10.4548   20.9645 C   0  0  0  0  0  0  0  0  0  0  0  0
  -31.9125  -18.3289   24.1854 C   0  0  0  0  0  0  0  0  0  0  0  0
  -24.1759  -12.9786   20.8411 C   0  0  0  0  0  0  0  0  0  0  0  0
  -27.9589  -32.4166   23.2956 C   0  0  0  0  0  0  0  0  0  0  0  0
  -30.3858  -25.4932   23.5356 C   0  0  0  0  0  0  0  0  0  0  0  0
  -28.4668  -31.2642   23.9252 C   0  0  0  0  0  0  0  0  0  0  0  0
  -29.4099  -24.5591   23.9114 C   0  0  0  0  0  0  0  0  0  0  0  0
  -29.9164  -17.4546   23.1423 C   0  0  0  0  0  0  0  0  0  0  0  0
  -30.6951  -16.5770   22.3878 C   0  0  0  0  0  0  0  0  0  0  0  0
  -22.3295   -8.1543   21.4670 C   0  0  0  0  0  0  0  0  0  0  0  0
  -30.9666  -23.5945   25.5102 C   0  0  0  0  0  0  0  0  0  0  0  0
  -20.8479   -6.9947   22.8750 C   0  0  0  0  0  0  0  0  0  0  0  0
  -19.3328   -6.9234   25.2163 C   0  0  0  0  0  0  0  0  0  0  0  0
  -21.0864   -6.0066   23.8301 C   0  0  0  0  0  0  0  0  0  0  0  0
  -24.5986  -11.6427   20.7054 C   0  0  0  0  0  0  0  0  0  0  0  0
  -25.2707  -13.7239   20.4773 C   0  0  0  0  0  0  0  0  0  0  0  0
  -32.5557  -19.2532   25.1340 C   0  0  0  0  0  0  0  0  0  0  0  0
  -31.9406  -19.8558   26.1637 C   0  0  0  0  0  0  0  0  0  0  0  0
  -22.9070  -13.4994   21.2588 C   0  0  0  0  0  0  0  0  0  0  0  0
  -28.0440  -27.6360   23.3682 C   0  0  0  0  0  0  0  0  0  0  0  0
  -26.7390  -25.4748   21.3315 C   0  0  0  0  0  0  0  0  0  0  0  0
  -26.5419  -22.2329   20.2835 C   0  0  0  0  0  0  0  0  0  0  0  0
  -30.7403  -14.7511   20.6528 C   0  0  0  0  0  0  0  0  0  0  0  0
  -26.5437  -32.4794   22.7780 C   0  0  0  0  0  0  0  0  0  0  0  0
  -30.1007  -26.4996   22.4547 C   0  0  0  0  0  0  0  0  0  0  0  0
  -28.0420  -24.5443   23.2813 C   0  0  0  0  0  0  0  0  0  0  0  0
  -25.8986  -31.1073   22.6005 C   0  0  0  0  0  0  0  0  0  0  0  0
  -29.6187  -12.3379   18.2874 C   0  0  0  0  0  0  0  0  0  0  0  0
  -26.1466  -30.2379   23.8291 C   0  0  0  0  0  0  0  0  0  0  0  0
  -28.1779  -12.0518   18.7168 C   0  0  0  0  0  0  0  0  0  0  0  0
  -30.5341  -12.5652   19.4891 C   0  0  0  0  0  0  0  0  0  0  0  0
  -28.6291  -13.2981   20.8686 C   0  0  0  0  0  0  0  0  0  0  0  0
  -27.6462  -29.9980   24.0416 C   0  0  1  0  0  0  0  0  0  0  0  0
  -28.6114  -26.7767   22.2740 C   0  0  1  0  0  0  0  0  0  0  0  0
  -27.6561  -13.1265   19.6906 C   0  0  2  0  0  0  0  0  0  0  0  0
  -27.9733  -18.2022   21.7451 C   0  0  0  0  0  0  0  0  0  0  0  0
  -25.3601  -20.7674   18.6243 C   0  0  0  0  0  0  0  0  0  0  0  0
  -24.2221  -25.5580   23.0544 C   0  0  0  0  0  0  0  0  0  0  0  0
  -23.4772  -23.4406   21.9455 C   0  0  0  0  0  0  0  0  0  0  0  0
  -23.7983  -25.5100   20.5902 C   0  0  0  0  0  0  0  0  0  0  0  0
  -29.0832  -21.4696   18.9728 C   0  0  0  0  0  0  0  0  0  0  0  0
  -28.4282  -17.4777   23.0081 C   0  0  0  0  0  0  0  0  0  0  0  0
  -32.6341  -20.8047   27.1026 C   0  0  0  0  0  0  0  0  0  0  0  0
  -32.5981  -22.2372   26.5836 C   0  0  0  0  0  0  0  0  0  1  0  0
  -25.8228  -24.2841   21.4793 C   0  0  1  0  0  0  0  0  0  0  0  0
  -26.5911  -21.6179   18.8965 C   0  0  2  0  0  0  0  0  0  0  0  0
  -24.3551  -24.6994   21.7808 C   0  0  0  0  0  0  0  0  0  0  0  0
  -25.8633  -11.5420   20.2878 N   0  0  0  0  0  0  0  0  0  0  0  0
  -26.2446  -12.8241   20.1578 N   0  0  0  0  0  0  0  0  0  0  0  0
  -27.8095  -25.5521   22.2335 N   0  0  0  0  0  0  0  0  0  0  0  0
  -29.9783  -13.5991   20.3648 N   0  0  0  0  0  0  0  0  0  0  0  0
  -25.4857  -15.0545   20.4025 N   0  0  0  0  0  0  0  0  0  0  0  0
  -21.8918  -12.5941   21.5969 N   0  0  0  0  0  0  0  0  0  0  0  0
  -30.0958  -15.6795   21.4696 N   0  0  0  0  0  0  0  0  0  0  0  0
  -28.1327  -28.9927   23.1212 N   0  0  0  0  0  0  0  0  0  0  0  0
  -25.9823  -23.4929   20.2640 N   0  0  0  0  0  0  0  0  0  0  0  0
  -27.7986  -20.7561   18.7544 N   0  3  0  0  0  0  0  0  0  0  0  0
  -22.6749  -14.7308   21.3143 O   0  0  0  0  0  0  0  0  0  0  0  0
  -27.5601  -27.1073   24.3622 O   0  0  0  0  0  0  0  0  0  0  0  0
  -26.5172  -26.3019   20.4436 O   0  0  0  0  0  0  0  0  0  0  0  0
  -26.9551  -21.6520   21.2847 O   0  0  0  0  0  0  0  0  0  0  0  0
  -31.8702  -14.9154   20.1854 O   0  0  0  0  0  0  0  0  0  0  0  0
  -21.5996   -7.0320   21.7126 O   0  0  0  0  0  0  0  0  0  0  0  0
  -31.2438  -22.6732   26.4727 O   0  0  0  0  0  0  0  0  0  1  0  0
  -18.6063   -6.8901   26.3412 F   0  0  0  0  0  0  0  0  0  0  0  0
  -22.0426   -5.0896   23.6292 F   0  0  0  0  0  0  0  0  0  0  0  0
  1  2  1  0  0  0  0
  1  6  2  0  0  0  0
  2  7  2  0  0  0  0
  3 10  2  0  0  0  0
  3 18  1  0  0  0  0
  4 11  1  0  0  0  0
  4 18  2  0  0  0  0
  5  9  2  0  0  0  0
  5 19  1  0  0  0  0
  6 21  1  0  0  0  0
  7 23  1  0  0  0  0
  8 12  2  0  0  0  0
  8 22  1  0  0  0  0
  9 26  1  0  0  0  0
 10 27  1  0  0  0  0
 11 27  2  0  0  0  0
 12 28  1  0  0  0  0
 13 14  2  0  0  0  0
 13 29  1  0  0  0  0
 14 30  1  0  0  0  0
 15 19  2  0  0  0  0
 15 25  1  0  0  0  0
 16 24  1  0  0  0  0
 16 28  2  0  0  0  0
 17 30  2  0  0  0  0
 17 31  1  0  0  0  0
 18 32  1  0  0  0  0
 19 34  1  0  0  0  0
 20 32  1  0  0  0  0
 20 33  2  0  0  0  0
 20 36  1  0  0  0  0
 21 23  2  0  0  0  0
 21 41  1  0  0  0  0
 22 24  2  0  0  0  0
 22 42  1  0  0  0  0
 23 50  1  0  0  0  0
 24 43  1  0  0  0  0
 25 26  2  0  0  0  0
 25 59  1  0  0  0  0
 26 71  1  0  0  0  0
 27 80  1  0  0  0  0
 28 81  1  0  0  0  0
 29 31  2  0  0  0  0
 29 80  1  0  0  0  0
 30 82  1  0  0  0  0
 31 83  1  0  0  0  0
 32 65  2  0  0  0  0
 33 66  1  0  0  0  0
 33 69  1  0  0  0  0
 34 35  2  0  0  0  0
 35 60  1  0  0  0  0
 36 70  1  0  0  0  0
 36 75  2  0  0  0  0
 37 51  1  0  0  0  0
 37 72  1  0  0  0  0
 37 76  2  0  0  0  0
 38 62  1  0  0  0  0
 38 67  1  0  0  0  0
 38 77  2  0  0  0  0
 39 63  1  0  0  0  0
 39 73  1  0  0  0  0
 39 78  2  0  0  0  0
 40 68  1  0  0  0  0
 40 71  1  0  0  0  0
 40 79  2  0  0  0  0
 41 44  1  0  0  0  0
 42 51  1  0  0  0  0
 43 67  1  0  0  0  0
 44 46  1  0  0  0  0
 45 47  1  0  0  0  0
 45 48  1  0  0  0  0
 46 50  1  0  0  0  0
 47 52  1  0  0  0  0
 48 68  1  0  0  0  0
 49 52  1  0  0  0  0
 49 68  1  0  0  0  0
 50 72  1  0  0  0  0
 51 67  1  0  0  0  0
 52 66  1  0  0  0  0
 53 59  1  0  0  0  0
 54 63  1  0  0  0  0
 55 64  1  0  0  0  0
 56 64  1  0  0  0  0
 57 64  1  0  0  0  0
 58 74  1  0  0  0  0
 60 61  1  0  0  0  0
 61 81  1  0  0  0  0
 62 64  1  0  0  0  0
 62 73  1  0  0  0  0
 63 74  1  0  0  0  0
 65 66  1  0  0  0  0
M  CHG  1  74   1
M  ISO  4  40 100  61 101  71 100  81 101
M  END
> <Batch ID>
0127

> <Smiles>
CCc1cc(C=CC[101CH2:1][101O:1]c2ccc3c(c2)CN(C(=O)C(NC(=O)C(C)NC)C(C)(C)C)C(C(=O)NC2CCCc4ccccc42)C3)ccc1[100NH:0][100C:0](=O)N1CCCC(n2nc(-c3ccc(Oc4ccc(F)cc4F)cc3)c(C(N)=O)c2N)C1

> <Shape>
0.238

> <Color>
0.196

> <Negative vol penalty>
0.000

$$$$

  -OEChem-04052302143D

 82 90  0     1  0  0  0  0  0999 V2000
  -27.2644  -36.7564   23.6957 C   0  0  0  0  0  0  0  0  0  0  0  0
  -27.8178  -35.6237   23.1075 C   0  0  0  0  0  0  0  0  0  0  0  0
  -23.4802   -9.8967   19.9963 C   0  0  0  0  0  0  0  0  0  0  0  0
  -23.9015   -9.9644   22.3743 C   0  0  0  0  0  0  0  0  0  0  0  0
  -26.1700  -36.6325   24.5506 C   0  0  0  0  0  0  0  0  0  0  0  0
  -27.2778  -34.3661   23.3748 C   0  0  0  0  0  0  0  0  0  0  0  0
  -26.8844  -29.6316   19.5102 C   0  0  0  0  0  0  0  0  0  0  0  0
  -23.2824   -8.5179   20.0706 C   0  0  0  0  0  0  0  0  0  0  0  0
  -23.7037   -8.5856   22.4486 C   0  0  0  0  0  0  0  0  0  0  0  0
  -27.6722  -28.4945   19.3366 C   0  0  0  0  0  0  0  0  0  0  0  0
  -21.0885   -6.4464   22.5201 C   0  0  0  0  0  0  0  0  0  0  0  0
  -20.2970   -5.9619   23.5614 C   0  0  0  0  0  0  0  0  0  0  0  0
  -29.2724  -21.6799   17.9316 C   0  0  0  0  0  0  0  0  0  0  0  0
  -30.6541  -19.9040   17.0518 C   0  0  0  0  0  0  0  0  0  0  0  0
  -31.5066  -22.1626   17.1489 C   0  0  0  0  0  0  0  0  0  0  0  0
  -26.1617  -27.2411   20.7390 C   0  0  0  0  0  0  0  0  0  0  0  0
  -22.1606   -4.6540   24.3696 C   0  0  0  0  0  0  0  0  0  0  0  0
  -23.7898  -10.6199   21.1482 C   0  0  0  0  0  0  0  0  0  0  0  0
  -29.4488  -20.3351   17.6059 C   0  0  0  0  0  0  0  0  0  0  0  0
  -30.3013  -22.5937   17.7030 C   0  0  0  0  0  0  0  0  0  0  0  0
  -23.0223  -13.0518   21.2159 C   0  0  0  0  0  0  0  0  0  0  0  0
  -25.6102  -35.3739   24.8209 C   0  0  0  0  0  0  0  0  0  0  0  0
  -25.7332  -29.5846   20.3097 C   0  0  0  0  0  0  0  0  0  0  0  0
  -26.1757  -34.2252   24.2351 C   0  0  0  0  0  0  0  0  0  0  0  0
  -25.3596  -28.3783   20.9190 C   0  0  0  0  0  0  0  0  0  0  0  0
  -31.6830  -20.8178   16.8233 C   0  0  0  0  0  0  0  0  0  0  0  0
  -23.3941   -7.8624   21.2967 C   0  0  0  0  0  0  0  0  0  0  0  0
  -27.3126  -27.2998   19.9534 C   0  0  0  0  0  0  0  0  0  0  0  0
  -22.4162   -6.0346   22.4035 C   0  0  0  0  0  0  0  0  0  0  0  0
  -20.8330   -5.0658   24.4862 C   0  0  0  0  0  0  0  0  0  0  0  0
  -22.9522   -5.1384   23.3283 C   0  0  0  0  0  0  0  0  0  0  0  0
  -23.9948  -12.0441   21.0720 C   0  0  0  0  0  0  0  0  0  0  0  0
  -23.7184  -14.2255   21.0600 C   0  0  0  0  0  0  0  0  0  0  0  0
  -28.3762  -19.3821   17.8447 C   0  0  0  0  0  0  0  0  0  0  0  0
  -30.1153  -24.0132   18.0472 C   0  0  0  0  0  0  0  0  0  0  0  0
  -28.5248  -18.0438   17.9415 C   0  0  0  0  0  0  0  0  0  0  0  0
  -28.9302  -24.6195   18.2184 C   0  0  0  0  0  0  0  0  0  0  0  0
  -21.6155  -12.9371   21.4679 C   0  0  0  0  0  0  0  0  0  0  0  0
  -27.3351  -17.2072   18.1973 C   0  0  0  0  0  0  0  0  0  0  0  0
  -24.7922  -31.0392   22.9747 C   0  0  0  0  0  0  0  0  0  0  0  0
  -22.0019  -29.5012   22.3658 C   0  0  0  0  0  0  0  0  0  0  0  0
  -20.4013  -26.8918   20.8572 C   0  0  0  0  0  0  0  0  0  0  0  0
  -24.4570  -35.2849   25.7888 C   0  0  0  0  0  0  0  0  0  0  0  0
  -24.8794  -30.8131   20.4653 C   0  0  0  0  0  0  0  0  0  0  0  0
  -24.1222  -28.2701   21.7708 C   0  0  0  0  0  0  0  0  0  0  0  0
  -23.7096  -33.9554   25.7253 C   0  0  0  0  0  0  0  0  0  0  0  0
  -28.6766  -15.1325   20.9043 C   0  0  0  0  0  0  0  0  0  0  0  0
  -24.6936  -32.7899   25.7147 C   0  0  0  0  0  0  0  0  0  0  0  0
  -27.5020  -14.1930   21.1639 C   0  0  0  0  0  0  0  0  0  0  0  0
  -28.7914  -15.5100   19.4282 C   0  0  0  0  0  0  0  0  0  0  0  0
  -26.3607  -15.1399   19.1192 C   0  0  0  0  0  0  0  0  0  0  0  0
  -25.6025  -32.8463   24.4809 C   0  0  1  0  0  0  0  0  0  0  0  0
  -24.0096  -30.7815   21.7182 C   0  0  1  0  0  0  0  0  0  0  0  0
  -26.1981  -14.7845   20.6053 C   0  0  1  0  0  0  0  0  0  0  0  0
  -32.9721  -20.3569   16.2316 C   0  0  0  0  0  0  0  0  0  0  0  0
  -18.1235  -25.8785   20.5703 C   0  0  0  0  0  0  0  0  0  0  0  0
  -22.1467  -28.3793   25.1996 C   0  0  0  0  0  0  0  0  0  0  0  0
  -20.4281  -26.6821   24.5408 C   0  0  0  0  0  0  0  0  0  0  0  0
  -19.8654  -29.1117   24.4829 C   0  0  0  0  0  0  0  0  0  0  0  0
  -20.4811  -27.2573   17.9214 C   0  0  0  0  0  0  0  0  0  0  0  0
  -28.7911  -26.0697   18.5545 C   0  0  0  0  0  0  0  0  0  1  0  0
  -21.4198  -28.1574   22.7321 C   0  0  1  0  0  0  0  0  0  0  0  0
  -19.1530  -26.8386   19.9949 C   0  0  2  0  0  0  0  0  0  0  0  0
  -20.9894  -28.0848   24.2244 C   0  0  0  0  0  0  0  0  0  0  0  0
  -25.2156  -12.5347   20.8423 N   0  0  0  0  0  0  0  0  0  0  0  0
  -25.0150  -13.8635   20.8404 N   0  0  0  0  0  0  0  0  0  0  0  0
  -27.5157  -16.0183   18.9019 N   0  0  0  0  0  0  0  0  0  0  0  0
  -23.3235  -29.5004   21.8978 N   0  0  0  0  0  0  0  0  0  0  0  0
  -23.3419  -15.5215   21.0905 N   0  0  0  0  0  0  0  0  0  0  0  0
  -21.0629  -11.6561   21.6016 N   0  0  0  0  0  0  0  0  0  0  0  0
  -24.8944  -32.3759   23.3097 N   0  0  0  0  0  0  0  0  0  0  0  0
  -20.3378  -27.9094   21.7855 N   0  0  0  0  0  0  0  0  0  0  0  0
  -19.4950  -26.3898   18.6156 N   0  3  0  0  0  0  0  0  0  0  0  0
  -20.8678  -13.9405   21.5553 O   0  0  0  0  0  0  0  0  0  0  0  0
  -26.2531  -17.6104   17.7667 O   0  0  0  0  0  0  0  0  0  0  0  0
  -25.2669  -30.0951   23.5953 O   0  0  0  0  0  0  0  0  0  0  0  0
  -21.3070  -30.5136   22.4836 O   0  0  0  0  0  0  0  0  0  0  0  0
  -21.3373  -26.1067   20.7233 O   0  0  0  0  0  0  0  0  0  0  0  0
  -23.2010   -6.5170   21.3696 O   0  0  0  0  0  0  0  0  0  0  0  0
  -28.0802  -26.1886   19.7861 O   0  0  0  0  0  0  0  0  0  1  0  0
  -20.0731   -4.6019   25.4870 F   0  0  0  0  0  0  0  0  0  0  0  0
  -24.2273   -4.7401   23.2221 F   0  0  0  0  0  0  0  0  0  0  0  0
  1  2  1  0  0  0  0
  1  5  2  0  0  0  0
  2  6  2  0  0  0  0
  3  8  2  0  0  0  0
  3 18  1  0  0  0  0
  4  9  1  0  0  0  0
  4 18  2  0  0  0  0
  5 22  1  0  0  0  0
  6 24  1  0  0  0  0
  7 10  2  0  0  0  0
  7 23  1  0  0  0  0
  8 27  1  0  0  0  0
  9 27  2  0  0  0  0
 10 28  1  0  0  0  0
 11 12  2  0  0  0  0
 11 29  1  0  0  0  0
 12 30  1  0  0  0  0
 13 19  1  0  0  0  0
 13 20  2  0  0  0  0
 14 19  2  0  0  0  0
 14 26  1  0  0  0  0
 15 20  1  0  0  0  0
 15 26  2  0  0  0  0
 16 25  1  0  0  0  0
 16 28  2  0  0  0  0
 17 30  2  0  0  0  0
 17 31  1  0  0  0  0
 18 32  1  0  0  0  0
 19 34  1  0  0  0  0
 20 35  1  0  0  0  0
 21 32  1  0  0  0  0
 21 33  2  0  0  0  0
 21 38  1  0  0  0  0
 22 24  2  0  0  0  0
 22 43  1  0  0  0  0
 23 25  2  0  0  0  0
 23 44  1  0  0  0  0
 24 52  1  0  0  0  0
 25 45  1  0  0  0  0
 26 55  1  0  0  0  0
 27 79  1  0  0  0  0
 28 80  1  0  0  0  0
 29 31  2  0  0  0  0
 29 79  1  0  0  0  0
 30 81  1  0  0  0  0
 31 82  1  0  0  0  0
 32 65  2  0  0  0  0
 33 66  1  0  0  0  0
 33 69  1  0  0  0  0
 34 36  2  0  0  0  0
 35 37  2  0  0  0  0
 36 39  1  0  0  0  0
 37 61  1  0  0  0  0
 38 70  1  0  0  0  0
 38 74  2  0  0  0  0
 39 67  1  0  0  0  0
 39 75  2  0  0  0  0
 40 53  1  0  0  0  0
 40 71  1  0  0  0  0
 40 76  2  0  0  0  0
 41 62  1  0  0  0  0
 41 68  1  0  0  0  0
 41 77  2  0  0  0  0
 42 63  1  0  0  0  0
 42 72  1  0  0  0  0
 42 78  2  0  0  0  0
 43 46  1  0  0  0  0
 44 53  1  0  0  0  0
 45 68  1  0  0  0  0
 46 48  1  0  0  0  0
 47 49  1  0  0  0  0
 47 50  1  0  0  0  0
 48 52  1  0  0  0  0
 49 54  1  0  0  0  0
 50 67  1  0  0  0  0
 51 54  1  0  0  0  0
 51 67  1  0  0  0  0
 52 71  1  0  0  0  0
 53 68  1  0  0  0  0
 54 66  1  0  0  0  0
 56 63  1  0  0  0  0
 57 64  1  0  0  0  0
 58 64  1  0  0  0  0
 59 64  1  0  0  0  0
 60 73  1  0  0  0  0
 61 80  1  0  0  0  0
 62 64  1  0  0  0  0
 62 72  1  0  0  0  0
 63 73  1  0  0  0  0
 65 66  1  0  0  0  0
M  CHG  1  73   1
M  ISO  4  36 100  39 100  61 101  80 101
M  END
> <Batch ID>
0127

> <Smiles>
CNC(C)C(=O)NC(C(=O)N1Cc2cc([101O:1][101CH2:1]C=Cc3cc(C)cc(C=[100CH:0][100C:0](=O)N4CCCC(n5nc(-c6ccc(Oc7ccc(F)cc7F)cc6)c(C(N)=O)c5N)C4)c3)ccc2CC1C(=O)NC1CCCc2ccccc21)C(C)(C)C

> <Shape>
0.343

> <Color>
0.097

> <Negative vol penalty>
0.000

$$$$

  -OEChem-04052302143D

 83 91  0     1  0  0  0  0  0999 V2000
  -25.6988  -22.0462   13.6609 C   0  0  0  0  0  0  0  0  0  0  0  0
  -25.0261  -22.9408   14.4870 C   0  0  0  0  0  0  0  0  0  0  0  0
  -26.7925  -16.6916   18.2879 C   0  0  0  0  0  0  0  0  0  0  0  0
  -26.9991  -17.6078   20.5139 C   0  0  0  0  0  0  0  0  0  0  0  0
  -26.8072  -21.3517   14.1436 C   0  0  0  0  0  0  0  0  0  0  0  0
  -25.4607  -23.1407   15.7968 C   0  0  0  0  0  0  0  0  0  0  0  0
  -25.2936  -28.3741   18.9731 C   0  0  0  0  0  0  0  0  0  0  0  0
  -19.0846  -28.3487   23.2538 C   0  0  0  0  0  0  0  0  0  0  0  0
  -18.2351  -27.4213   22.6505 C   0  0  0  0  0  0  0  0  0  0  0  0
  -28.1411  -16.3361   18.3090 C   0  0  0  0  0  0  0  0  0  0  0  0
  -28.3478  -17.2523   20.5350 C   0  0  0  0  0  0  0  0  0  0  0  0
  -24.4017  -28.8652   19.9255 C   0  0  0  0  0  0  0  0  0  0  0  0
  -31.4415  -14.8630   17.9184 C   0  0  0  0  0  0  0  0  0  0  0  0
  -31.7839  -13.5905   17.4614 C   0  0  0  0  0  0  0  0  0  0  0  0
  -25.8427  -28.0565   21.6830 C   0  0  0  0  0  0  0  0  0  0  0  0
  -20.9988  -27.0552   22.5469 C   0  0  0  0  0  0  0  0  0  0  0  0
  -30.3917  -12.6021   19.1709 C   0  0  0  0  0  0  0  0  0  0  0  0
  -26.2215  -17.3276   19.3903 C   0  0  0  0  0  0  0  0  0  0  0  0
  -23.7364  -16.9146   19.7919 C   0  0  0  0  0  0  0  0  0  0  0  0
  -27.2615  -21.5503   15.4569 C   0  0  0  0  0  0  0  0  0  0  0  0
  -26.4633  -27.7098   19.3691 C   0  0  0  0  0  0  0  0  0  0  0  0
  -26.5754  -22.4472   16.2980 C   0  0  0  0  0  0  0  0  0  0  0  0
  -26.7490  -27.5602   20.7337 C   0  0  0  0  0  0  0  0  0  0  0  0
  -20.4665  -28.1657   23.2019 C   0  0  0  0  0  0  0  0  0  0  0  0
  -18.7675  -26.3108   21.9955 C   0  0  0  0  0  0  0  0  0  0  0  0
  -28.9187  -16.6164   19.4326 C   0  0  0  0  0  0  0  0  0  0  0  0
  -24.6747  -28.7039   21.2807 C   0  0  0  0  0  0  0  0  0  0  0  0
  -30.5742  -15.0052   19.0017 C   0  0  0  0  0  0  0  0  0  0  0  0
  -20.1493  -26.1277   21.9437 C   0  0  0  0  0  0  0  0  0  0  0  0
  -31.2590  -12.4600   18.0876 C   0  0  0  0  0  0  0  0  0  0  0  0
  -30.0493  -13.8747   19.6278 C   0  0  0  0  0  0  0  0  0  0  0  0
  -24.8286  -17.6956   19.3689 C   0  0  0  0  0  0  0  0  0  0  0  0
  -22.6388  -17.7093   19.5677 C   0  0  0  0  0  0  0  0  0  0  0  0
  -23.7158  -15.5894   20.3388 C   0  0  0  0  0  0  0  0  0  0  0  0
  -27.6236  -24.7781   18.9665 C   0  0  0  0  0  0  0  0  0  0  0  0
  -22.0161  -23.6732   19.1728 C   0  0  0  0  0  0  0  0  0  0  0  0
  -30.2424  -26.0375   20.4081 C   0  0  0  0  0  0  0  0  0  0  0  0
  -31.5495  -28.4244   22.4675 C   0  0  0  0  0  0  0  0  0  0  0  0
  -28.4355  -20.7415   15.9491 C   0  0  0  0  0  0  0  0  0  0  0  0
  -27.4283  -27.2095   18.3294 C   0  0  0  0  0  0  0  0  0  0  0  0
  -28.0010  -26.8724   21.2110 C   0  0  0  0  0  0  0  0  0  0  0  0
  -29.0585  -21.2896   17.2304 C   0  0  0  0  0  0  0  0  0  0  0  0
  -21.0643  -21.2217   16.7388 C   0  0  0  0  0  0  0  0  0  0  0  0
  -27.9746  -21.6244   18.2502 C   0  0  0  0  0  0  0  0  0  0  0  0
  -21.8445  -19.9768   17.1592 C   0  0  0  0  0  0  0  0  0  0  0  0
  -21.8605  -22.4956   17.0041 C   0  0  0  0  0  0  0  0  0  0  0  0
  -23.1019  -21.3968   18.8407 C   0  0  0  0  0  0  0  0  0  0  0  0
  -27.0315  -22.7096   17.7168 C   0  0  1  0  0  0  0  0  0  0  0  0
  -28.3354  -26.0956   18.8430 C   0  0  1  0  0  0  0  0  0  0  0  0
  -22.3210  -20.0895   18.6182 C   0  0  2  0  0  0  0  0  0  0  0  0
  -17.8431  -25.3278   21.3568 C   0  0  0  0  0  0  0  0  0  0  0  0
  -33.7162  -29.1743   23.4876 C   0  0  0  0  0  0  0  0  0  0  0  0
  -30.0978  -23.7335   22.4033 C   0  0  0  0  0  0  0  0  0  0  0  0
  -31.6337  -25.0252   23.9001 C   0  0  0  0  0  0  0  0  0  0  0  0
  -32.4087  -24.3089   21.6398 C   0  0  0  0  0  0  0  0  0  0  0  0
  -31.3994  -31.0613   21.1322 C   0  0  0  0  0  0  0  0  0  0  0  0
  -21.3844  -29.1689   23.8536 C   0  0  0  0  0  0  0  0  0  0  0  0
  -22.5135  -23.6592   20.5963 C   0  0  0  0  0  0  0  0  0  0  0  0
  -21.8105  -30.3080   22.9249 C   0  0  0  0  0  0  0  0  0  0  0  0
  -22.1079  -24.9414   21.3015 C   0  0  0  0  0  0  0  0  0  0  0  0
  -22.6334  -29.8379   21.7310 C   0  0  0  0  0  0  0  0  0  1  0  0
  -30.7147  -26.1754   21.8353 C   0  0  1  0  0  0  0  0  0  0  0  0
  -32.7569  -29.3323   22.3181 C   0  0  2  0  0  0  0  0  0  0  0  0
  -31.1891  -24.8221   22.4360 C   0  0  0  0  0  0  0  0  0  0  0  0
  -24.4585  -18.8943   18.9104 N   0  0  0  0  0  0  0  0  0  0  0  0
  -23.1215  -18.8725   19.0440 N   0  0  0  0  0  0  0  0  0  0  0  0
  -28.9103  -26.3950   20.1561 N   0  0  0  0  0  0  0  0  0  0  0  0
  -22.3141  -22.5543   18.3948 N   0  0  0  0  0  0  0  0  0  0  0  0
  -21.3175  -17.5195   19.7692 N   0  0  0  0  0  0  0  0  0  0  0  0
  -24.9336  -14.9152   20.5025 N   0  0  0  0  0  0  0  0  0  0  0  0
  -27.6531  -24.0127   17.8163 N   0  0  0  0  0  0  0  0  0  0  0  0
  -31.7362  -27.2169   21.8284 N   0  0  0  0  0  0  0  0  0  0  0  0
  -32.3279  -30.7579   22.2515 N   0  3  0  0  0  0  0  0  0  0  0  0
  -22.6477  -15.0138   20.6572 O   0  0  0  0  0  0  0  0  0  0  0  0
  -27.0887  -24.4774   20.0272 O   0  0  0  0  0  0  0  0  0  0  0  0
  -21.3794  -24.6490   18.7671 O   0  0  0  0  0  0  0  0  0  0  0  0
  -31.0286  -25.6345   19.5472 O   0  0  0  0  0  0  0  0  0  0  0  0
  -30.5430  -28.7520   23.0921 O   0  0  0  0  0  0  0  0  0  0  0  0
  -30.2347  -16.2694   19.4536 O   0  0  0  0  0  0  0  0  0  0  0  0
  -23.8055  -29.1817   22.2124 O   0  0  0  0  0  0  0  0  0  1  0  0
  -20.6858  -25.0493   21.3070 O   0  0  0  0  0  0  0  0  0  0  0  0
  -31.5866  -11.2380   17.6477 F   0  0  0  0  0  0  0  0  0  0  0  0
  -29.2148  -14.0050   20.6682 F   0  0  0  0  0  0  0  0  0  0  0  0
  1  2  1  0  0  0  0
  1  5  2  0  0  0  0
  2  6  2  0  0  0  0
  3 10  2  0  0  0  0
  3 18  1  0  0  0  0
  4 11  1  0  0  0  0
  4 18  2  0  0  0  0
  5 20  1  0  0  0  0
  6 22  1  0  0  0  0
  7 12  2  0  0  0  0
  7 21  1  0  0  0  0
  8  9  2  0  0  0  0
  8 24  1  0  0  0  0
  9 25  1  0  0  0  0
 10 26  1  0  0  0  0
 11 26  2  0  0  0  0
 12 27  1  0  0  0  0
 13 14  2  0  0  0  0
 13 28  1  0  0  0  0
 14 30  1  0  0  0  0
 15 23  1  0  0  0  0
 15 27  2  0  0  0  0
 16 24  2  0  0  0  0
 16 29  1  0  0  0  0
 17 30  2  0  0  0  0
 17 31  1  0  0  0  0
 18 32  1  0  0  0  0
 19 32  1  0  0  0  0
 19 33  2  0  0  0  0
 19 34  1  0  0  0  0
 20 22  2  0  0  0  0
 20 39  1  0  0  0  0
 21 23  2  0  0  0  0
 21 40  1  0  0  0  0
 22 48  1  0  0  0  0
 23 41  1  0  0  0  0
 24 57  1  0  0  0  0
 25 29  2  0  0  0  0
 25 51  1  0  0  0  0
 26 79  1  0  0  0  0
 27 80  1  0  0  0  0
 28 31  2  0  0  0  0
 28 79  1  0  0  0  0
 29 81  1  0  0  0  0
 30 82  1  0  0  0  0
 31 83  1  0  0  0  0
 32 65  2  0  0  0  0
 33 66  1  0  0  0  0
 33 69  1  0  0  0  0
 34 70  1  0  0  0  0
 34 74  2  0  0  0  0
 35 49  1  0  0  0  0
 35 71  1  0  0  0  0
 35 75  2  0  0  0  0
 36 58  1  0  0  0  0
 36 68  1  0  0  0  0
 36 76  2  0  0  0  0
 37 62  1  0  0  0  0
 37 67  1  0  0  0  0
 37 77  2  0  0  0  0
 38 63  1  0  0  0  0
 38 72  1  0  0  0  0
 38 78  2  0  0  0  0
 39 42  1  0  0  0  0
 40 49  1  0  0  0  0
 41 67  1  0  0  0  0
 42 44  1  0  0  0  0
 43 45  1  0  0  0  0
 43 46  1  0  0  0  0
 44 48  1  0  0  0  0
 45 50  1  0  0  0  0
 46 68  1  0  0  0  0
 47 50  1  0  0  0  0
 47 68  1  0  0  0  0
 48 71  1  0  0  0  0
 49 67  1  0  0  0  0
 50 66  1  0  0  0  0
 52 63  1  0  0  0  0
 53 64  1  0  0  0  0
 54 64  1  0  0  0  0
 55 64  1  0  0  0  0
 56 73  1  0  0  0  0
 57 59  1  0  0  0  0
 58 60  1  0  0  0  0
 59 61  1  0  0  0  0
 60 81  1  0  0  0  0
 61 80  1  0  0  0  0
 62 64  1  0  0  0  0
 62 72  1  0  0  0  0
 63 73  1  0  0  0  0
 65 66  1  0  0  0  0
M  CHG  1  73   1
M  ISO  4  36 100  58 100  61 101  80 101
M  END
> <Batch ID>
0127

> <Smiles>
CNC(C)C(=O)NC(C(=O)N1Cc2cc([101O:1][101CH2:1]CCc3ccc(C)c(OC[100CH2:0][100C:0](=O)N4CCCC(n5nc(-c6ccc(Oc7ccc(F)cc7F)cc6)c(C(N)=O)c5N)C4)c3)ccc2CC1C(=O)NC1CCCc2ccccc21)C(C)(C)C

> <Shape>
0.181

> <Color>
0.086

> <Negative vol penalty>
0.000

$$$$

  -OEChem-04052302143D

 83 91  0     1  0  0  0  0  0999 V2000
  -16.6781  -24.7876   23.5296 C   0  0  0  0  0  0  0  0  0  0  0  0
  -17.5076  -24.1692   22.6009 C   0  0  0  0  0  0  0  0  0  0  0  0
  -26.9573  -15.0440   19.4135 C   0  0  0  0  0  0  0  0  0  0  0  0
  -24.9299  -15.3872   20.6818 C   0  0  0  0  0  0  0  0  0  0  0  0
  -16.9134  -26.1111   23.8961 C   0  0  0  0  0  0  0  0  0  0  0  0
  -18.5796  -24.8701   22.0474 C   0  0  0  0  0  0  0  0  0  0  0  0
  -25.8100  -27.3474   18.7329 C   0  0  0  0  0  0  0  0  0  0  0  0
  -26.8882  -13.6753   19.6732 C   0  0  0  0  0  0  0  0  0  0  0  0
  -24.8607  -14.0185   20.9416 C   0  0  0  0  0  0  0  0  0  0  0  0
  -26.6226  -28.4707   18.8801 C   0  0  0  0  0  0  0  0  0  0  0  0
  -23.8971  -11.2206   19.3094 C   0  0  0  0  0  0  0  0  0  0  0  0
  -22.6586  -10.5963   19.1619 C   0  0  0  0  0  0  0  0  0  0  0  0
  -31.9010  -26.4895   21.6147 C   0  0  0  0  0  0  0  0  0  0  0  0
  -30.4567  -27.8405   20.2271 C   0  0  0  0  0  0  0  0  0  0  0  0
  -26.1921  -28.4636   21.2537 C   0  0  0  0  0  0  0  0  0  0  0  0
  -22.7111   -9.9429   21.4873 C   0  0  0  0  0  0  0  0  0  0  0  0
  -25.9782  -15.9000   19.9178 C   0  0  0  0  0  0  0  0  0  0  0  0
  -30.8990  -26.5868   20.6493 C   0  0  0  0  0  0  0  0  0  0  0  0
  -25.4838  -18.0025   18.5603 C   0  0  0  0  0  0  0  0  0  0  0  0
  -17.9816  -26.8317   23.3370 C   0  0  0  0  0  0  0  0  0  0  0  0
  -25.1726  -26.7793   19.8453 C   0  0  0  0  0  0  0  0  0  0  0  0
  -18.8479  -26.1990   22.4224 C   0  0  0  0  0  0  0  0  0  0  0  0
  -25.3741  -27.3316   21.1183 C   0  0  0  0  0  0  0  0  0  0  0  0
  -32.4607  -27.6459   22.1581 C   0  0  0  0  0  0  0  0  0  0  0  0
  -31.0164  -28.9969   20.7705 C   0  0  0  0  0  0  0  0  0  0  0  0
  -32.0184  -28.8996   21.7360 C   0  0  0  0  0  0  0  0  0  0  0  0
  -25.8399  -13.1625   20.4373 C   0  0  0  0  0  0  0  0  0  0  0  0
  -26.8114  -29.0308   20.1402 C   0  0  0  0  0  0  0  0  0  0  0  0
  -24.5427  -11.2060   20.5458 C   0  0  0  0  0  0  0  0  0  0  0  0
  -22.0655   -9.9575   20.2508 C   0  0  0  0  0  0  0  0  0  0  0  0
  -23.9497  -10.5672   21.6347 C   0  0  0  0  0  0  0  0  0  0  0  0
  -26.0494  -17.3140   19.6503 C   0  0  0  0  0  0  0  0  0  0  0  0
  -25.8329  -19.3150   18.7648 C   0  0  0  0  0  0  0  0  0  0  0  0
  -30.3152  -25.3807   20.0829 C   0  0  0  0  0  0  0  0  0  0  0  0
  -30.3577  -24.1530   20.6425 C   0  0  0  0  0  0  0  0  0  0  0  0
  -24.7119  -17.5005   17.4613 C   0  0  0  0  0  0  0  0  0  0  0  0
  -29.7065  -23.0252   19.9463 C   0  0  0  0  0  0  0  0  0  0  0  0
  -22.1471  -26.3114   20.7005 C   0  0  0  0  0  0  0  0  0  0  0  0
  -23.5018  -24.7018   23.1695 C   0  0  0  0  0  0  0  0  0  0  0  0
  -26.3150  -25.1568   25.3823 C   0  0  0  0  0  0  0  0  0  0  0  0
  -18.1951  -28.2592   23.7753 C   0  0  0  0  0  0  0  0  0  0  0  0
  -24.3207  -25.5516   19.6737 C   0  0  0  0  0  0  0  0  0  0  0  0
  -24.7286  -26.7474   22.3474 C   0  0  0  0  0  0  0  0  0  0  0  0
  -19.0741  -29.0513   22.8129 C   0  0  0  0  0  0  0  0  0  0  0  0
  -27.8520  -21.6126   22.7742 C   0  0  0  0  0  0  0  0  0  0  0  0
  -20.3388  -28.2664   22.4981 C   0  0  0  0  0  0  0  0  0  0  0  0
  -27.2087  -20.3912   22.1229 C   0  0  0  0  0  0  0  0  0  0  0  0
  -29.2335  -21.9094   22.1930 C   0  0  0  0  0  0  0  0  0  0  0  0
  -28.5940  -20.8290   20.0566 C   0  0  0  0  0  0  0  0  0  0  0  0
  -20.0017  -26.9512   21.7842 C   0  0  1  0  0  0  0  0  0  0  0  0
  -23.3091  -25.3641   20.8002 C   0  0  1  0  0  0  0  0  0  0  0  0
  -27.1834  -20.5400   20.5934 C   0  0  1  0  0  0  0  0  0  0  0  0
  -33.5331  -27.5145   23.1899 C   0  0  0  0  0  0  0  0  0  0  0  0
  -32.6182  -30.1395   22.3188 C   0  0  0  0  0  0  0  0  0  0  0  0
  -27.7123  -23.4738   26.6121 C   0  0  0  0  0  0  0  0  0  0  0  0
  -21.5711  -25.2146   25.4758 C   0  0  0  0  0  0  0  0  0  0  0  0
  -23.5140  -25.0528   27.0465 C   0  0  0  0  0  0  0  0  0  0  0  0
  -22.8693  -23.0846   25.6561 C   0  0  0  0  0  0  0  0  0  0  0  0
  -28.8195  -26.1989   24.1989 C   0  0  0  0  0  0  0  0  0  0  0  0
  -30.5207  -30.3401   20.2975 C   0  0  0  0  0  0  0  0  0  0  0  0
  -29.5853  -31.0355   21.2889 C   0  0  0  0  0  0  0  0  0  0  0  0
  -28.2873  -30.2736   21.5305 C   0  0  0  0  0  0  0  0  0  1  0  0
  -23.9783  -25.0712   24.5535 C   0  0  1  0  0  0  0  0  0  0  0  0
  -27.6088  -24.3626   25.3825 C   0  0  2  0  0  0  0  0  0  0  0  0
  -22.9833  -24.6247   25.6616 C   0  0  0  0  0  0  0  0  0  0  0  0
  -26.7079  -18.1223   20.4851 N   0  0  0  0  0  0  0  0  0  0  0  0
  -26.5584  -19.3322   19.9196 N   0  0  0  0  0  0  0  0  0  0  0  0
  -29.1941  -21.9891   20.7250 N   0  0  0  0  0  0  0  0  0  0  0  0
  -23.8997  -25.5508   22.1270 N   0  0  0  0  0  0  0  0  0  0  0  0
  -25.5871  -20.4446   18.0676 N   0  0  0  0  0  0  0  0  0  0  0  0
  -24.4449  -16.1257   17.4052 N   0  0  0  0  0  0  0  0  0  0  0  0
  -21.1985  -26.1444   21.6912 N   0  0  0  0  0  0  0  0  0  0  0  0
  -25.3165  -24.5061   24.6889 N   0  0  0  0  0  0  0  0  0  0  0  0
  -28.7812  -25.2825   25.3675 N   0  3  0  0  0  0  0  0  0  0  0  0
  -24.2858  -18.2464   16.5473 O   0  0  0  0  0  0  0  0  0  0  0  0
  -29.6601  -23.0672   18.7155 O   0  0  0  0  0  0  0  0  0  0  0  0
  -22.1145  -27.1341   19.7928 O   0  0  0  0  0  0  0  0  0  0  0  0
  -22.8084  -23.6929   23.0179 O   0  0  0  0  0  0  0  0  0  0  0  0
  -26.2005  -26.2438   25.9443 O   0  0  0  0  0  0  0  0  0  0  0  0
  -25.7720  -11.8270   20.6908 O   0  0  0  0  0  0  0  0  0  0  0  0
  -27.6035  -30.1276   20.2865 O   0  0  0  0  0  0  0  0  0  1  0  0
  -20.8754   -9.3593   20.1095 F   0  0  0  0  0  0  0  0  0  0  0  0
  -24.5645  -10.5509   22.8253 F   0  0  0  0  0  0  0  0  0  0  0  0
  1  2  1  0  0  0  0
  1  5  2  0  0  0  0
  2  6  2  0  0  0  0
  3  8  2  0  0  0  0
  3 17  1  0  0  0  0
  4  9  1  0  0  0  0
  4 17  2  0  0  0  0
  5 20  1  0  0  0  0
  6 22  1  0  0  0  0
  7 10  2  0  0  0  0
  7 21  1  0  0  0  0
  8 27  1  0  0  0  0
  9 27  2  0  0  0  0
 10 28  1  0  0  0  0
 11 12  2  0  0  0  0
 11 29  1  0  0  0  0
 12 30  1  0  0  0  0
 13 18  1  0  0  0  0
 13 24  2  0  0  0  0
 14 18  2  0  0  0  0
 14 25  1  0  0  0  0
 15 23  1  0  0  0  0
 15 28  2  0  0  0  0
 16 30  2  0  0  0  0
 16 31  1  0  0  0  0
 17 32  1  0  0  0  0
 18 34  1  0  0  0  0
 19 32  1  0  0  0  0
 19 33  2  0  0  0  0
 19 36  1  0  0  0  0
 20 22  2  0  0  0  0
 20 41  1  0  0  0  0
 21 23  2  0  0  0  0
 21 42  1  0  0  0  0
 22 50  1  0  0  0  0
 23 43  1  0  0  0  0
 24 26  1  0  0  0  0
 24 53  1  0  0  0  0
 25 26  2  0  0  0  0
 25 60  1  0  0  0  0
 26 54  1  0  0  0  0
 27 80  1  0  0  0  0
 28 81  1  0  0  0  0
 29 31  2  0  0  0  0
 29 80  1  0  0  0  0
 30 82  1  0  0  0  0
 31 83  1  0  0  0  0
 32 66  2  0  0  0  0
 33 67  1  0  0  0  0
 33 70  1  0  0  0  0
 34 35  2  0  0  0  0
 35 37  1  0  0  0  0
 36 71  1  0  0  0  0
 36 75  2  0  0  0  0
 37 68  1  0  0  0  0
 37 76  2  0  0  0  0
 38 51  1  0  0  0  0
 38 72  1  0  0  0  0
 38 77  2  0  0  0  0
 39 63  1  0  0  0  0
 39 69  1  0  0  0  0
 39 78  2  0  0  0  0
 40 64  1  0  0  0  0
 40 73  1  0  0  0  0
 40 79  2  0  0  0  0
 41 44  1  0  0  0  0
 42 51  1  0  0  0  0
 43 69  1  0  0  0  0
 44 46  1  0  0  0  0
 45 47  1  0  0  0  0
 45 48  1  0  0  0  0
 46 50  1  0  0  0  0
 47 52  1  0  0  0  0
 48 68  1  0  0  0  0
 49 52  1  0  0  0  0
 49 68  1  0  0  0  0
 50 72  1  0  0  0  0
 51 69  1  0  0  0  0
 52 67  1  0  0  0  0
 55 64  1  0  0  0  0
 56 65  1  0  0  0  0
 57 65  1  0  0  0  0
 58 65  1  0  0  0  0
 59 74  1  0  0  0  0
 60 61  1  0  0  0  0
 61 62  1  0  0  0  0
 62 81  1  0  0  0  0
 63 65  1  0  0  0  0
 63 73  1  0  0  0  0
 64 74  1  0  0  0  0
 66 67  1  0  0  0  0
M  CHG  1  74   1
M  ISO  4  35 100  37 100  62 101  81 101
M  END
> <Batch ID>
0127

> <Smiles>
CNC(C)C(=O)NC(C(=O)N1Cc2cc([101O:1][101CH2:1]CCc3cc(C=[100CH:0][100C:0](=O)N4CCCC(n5nc(-c6ccc(Oc7ccc(F)cc7F)cc6)c(C(N)=O)c5N)C4)cc(C)c3C)ccc2CC1C(=O)NC1CCCc2ccccc21)C(C)(C)C

> <Shape>
0.210

> <Color>
0.069

> <Negative vol penalty>
0.000

$$$$

  -OEChem-04052302143D

 85 93  0     1  0  0  0  0  0999 V2000
  -26.8882  -37.3235   22.2033 C   0  0  0  0  0  0  0  0  0  0  0  0
  -27.4815  -36.0763   22.0357 C   0  0  0  0  0  0  0  0  0  0  0  0
  -23.1681   -9.9172   21.4559 C   0  0  0  0  0  0  0  0  0  0  0  0
  -23.9152  -10.8724   23.5455 C   0  0  0  0  0  0  0  0  0  0  0  0
  -25.6210  -37.4200   22.7766 C   0  0  0  0  0  0  0  0  0  0  0  0
  -26.8082  -34.9249   22.4425 C   0  0  0  0  0  0  0  0  0  0  0  0
  -26.9827  -29.4190   19.7666 C   0  0  0  0  0  0  0  0  0  0  0  0
  -32.5402  -18.5327   21.5140 C   0  0  0  0  0  0  0  0  0  0  0  0
  -31.9593  -17.3524   21.0504 C   0  0  0  0  0  0  0  0  0  0  0  0
  -22.4542   -8.9446   22.1557 C   0  0  0  0  0  0  0  0  0  0  0  0
  -23.2012   -9.8997   24.2454 C   0  0  0  0  0  0  0  0  0  0  0  0
  -27.7082  -28.2621   20.0476 C   0  0  0  0  0  0  0  0  0  0  0  0
  -19.5206   -8.7252   23.8227 C   0  0  0  0  0  0  0  0  0  0  0  0
  -18.2181   -8.4515   23.4055 C   0  0  0  0  0  0  0  0  0  0  0  0
  -25.8327  -27.3959   21.2932 C   0  0  0  0  0  0  0  0  0  0  0  0
  -18.8369   -6.1552   22.9798 C   0  0  0  0  0  0  0  0  0  0  0  0
  -23.8987  -10.8811   22.1508 C   0  0  0  0  0  0  0  0  0  0  0  0
  -30.3483  -19.5242   21.7364 C   0  0  0  0  0  0  0  0  0  0  0  0
  -24.1732  -13.1497   21.0168 C   0  0  0  0  0  0  0  0  0  0  0  0
  -24.9278  -36.2685   23.1818 C   0  0  0  0  0  0  0  0  0  0  0  0
  -25.6785  -29.5780   20.2567 C   0  0  0  0  0  0  0  0  0  0  0  0
  -25.5311  -35.0062   23.0230 C   0  0  0  0  0  0  0  0  0  0  0  0
  -25.0918  -28.5547   21.0148 C   0  0  0  0  0  0  0  0  0  0  0  0
  -31.7347  -19.6186   21.8571 C   0  0  0  0  0  0  0  0  0  0  0  0
  -29.7673  -18.3439   21.2726 C   0  0  0  0  0  0  0  0  0  0  0  0
  -30.5728  -17.2580   20.9296 C   0  0  0  0  0  0  0  0  0  0  0  0
  -22.4707   -8.9358   23.5504 C   0  0  0  0  0  0  0  0  0  0  0  0
  -27.1342  -27.2516   20.8134 C   0  0  0  0  0  0  0  0  0  0  0  0
  -20.4814   -7.7139   23.8184 C   0  0  0  0  0  0  0  0  0  0  0  0
  -17.8762   -7.1666   22.9841 C   0  0  0  0  0  0  0  0  0  0  0  0
  -20.1395   -6.4289   23.3969 C   0  0  0  0  0  0  0  0  0  0  0  0
  -24.6369  -11.8858   21.4285 C   0  0  0  0  0  0  0  0  0  0  0  0
  -25.2468  -13.7168   20.3747 C   0  0  0  0  0  0  0  0  0  0  0  0
  -29.5009  -20.6734   22.0997 C   0  0  0  0  0  0  0  0  0  0  0  0
  -29.1410  -21.6596   21.2630 C   0  0  0  0  0  0  0  0  0  0  0  0
  -28.3119  -22.7716   21.6749 C   0  0  0  0  0  0  0  0  0  0  0  0
  -27.9470  -23.7615   20.8466 C   0  0  0  0  0  0  0  0  0  0  0  0
  -22.8871  -13.7567   21.1985 C   0  0  0  0  0  0  0  0  0  0  0  0
  -24.2550  -31.6328   22.2202 C   0  0  0  0  0  0  0  0  0  0  0  0
  -21.5785  -30.0342   21.3242 C   0  0  0  0  0  0  0  0  0  0  0  0
  -20.1887  -27.1656   20.1049 C   0  0  0  0  0  0  0  0  0  0  0  0
  -30.6819  -14.8894   20.0786 C   0  0  0  0  0  0  0  0  0  0  0  0
  -23.5800  -36.4264   23.8399 C   0  0  0  0  0  0  0  0  0  0  0  0
  -24.8995  -30.8205   19.9222 C   0  0  0  0  0  0  0  0  0  0  0  0
  -23.6876  -28.6677   21.5474 C   0  0  0  0  0  0  0  0  0  0  0  0
  -22.7763  -35.1300   23.9009 C   0  0  0  0  0  0  0  0  0  0  0  0
  -29.6455  -11.6946   18.8970 C   0  0  0  0  0  0  0  0  0  0  0  0
  -23.6528  -33.9810   24.3893 C   0  0  0  0  0  0  0  0  0  0  0  0
  -28.2120  -11.5635   19.4164 C   0  0  0  0  0  0  0  0  0  0  0  0
  -30.5477  -12.4147   19.8977 C   0  0  0  0  0  0  0  0  0  0  0  0
  -28.6145  -13.5850   20.8787 C   0  0  0  0  0  0  0  0  0  0  0  0
  -24.8221  -33.7324   23.4289 C   0  0  1  0  0  0  0  0  0  0  0  0
  -23.7655  -31.0973   20.9044 C   0  0  1  0  0  0  0  0  0  0  0  0
  -27.6531  -12.9238   19.8777 C   0  0  2  0  0  0  0  0  0  0  0  0
  -32.3966  -20.8657   22.3501 C   0  0  0  0  0  0  0  0  0  0  0  0
  -27.8221  -18.3577   19.6908 C   0  0  0  0  0  0  0  0  0  0  0  0
  -17.9726  -26.1454   19.5174 C   0  0  0  0  0  0  0  0  0  0  0  0
  -20.9909  -29.6097   24.2881 C   0  0  0  0  0  0  0  0  0  0  0  0
  -19.3552  -27.8294   23.6374 C   0  0  0  0  0  0  0  0  0  0  0  0
  -18.9915  -30.1846   22.9001 C   0  0  0  0  0  0  0  0  0  0  0  0
  -20.9651  -26.8278   17.2691 C   0  0  0  0  0  0  0  0  0  0  0  0
  -28.2788  -18.2313   21.1389 C   0  0  0  0  0  0  0  0  0  0  0  0
  -27.0958  -24.9167   21.2641 C   0  0  0  0  0  0  0  0  0  1  0  0
  -20.8357  -28.8228   21.8339 C   0  0  1  0  0  0  0  0  0  0  0  0
  -19.1709  -26.9283   19.0039 C   0  0  2  0  0  0  0  0  0  0  0  0
  -20.0705  -29.1100   23.1566 C   0  0  0  0  0  0  0  0  0  0  0  0
  -25.9061  -11.6627   21.0773 N   0  0  0  0  0  0  0  0  0  0  0  0
  -26.2491  -12.7940   20.4381 N   0  0  0  0  0  0  0  0  0  0  0  0
  -22.9689  -29.9044   21.1987 N   0  0  0  0  0  0  0  0  0  0  0  0
  -29.9565  -13.6971   20.2859 N   0  0  0  0  0  0  0  0  0  0  0  0
  -25.4218  -14.9098   19.7677 N   0  0  0  0  0  0  0  0  0  0  0  0
  -21.8982  -13.0352   21.8810 N   0  0  0  0  0  0  0  0  0  0  0  0
  -30.0055  -16.0489   20.4563 N   0  0  0  0  0  0  0  0  0  0  0  0
  -24.3706  -33.0092   22.2595 N   0  0  0  0  0  0  0  0  0  0  0  0
  -19.9851  -28.3740   20.7369 N   0  0  0  0  0  0  0  0  0  0  0  0
  -19.7881  -26.1623   17.8844 N   0  3  0  0  0  0  0  0  0  0  0  0
  -22.6176  -14.8984   20.7542 O   0  0  0  0  0  0  0  0  0  0  0  0
  -24.5077  -30.8549   23.1328 O   0  0  0  0  0  0  0  0  0  0  0  0
  -20.9474  -31.0555   21.0408 O   0  0  0  0  0  0  0  0  0  0  0  0
  -21.0735  -26.3579   20.3795 O   0  0  0  0  0  0  0  0  0  0  0  0
  -31.8086  -14.8845   19.5760 O   0  0  0  0  0  0  0  0  0  0  0  0
  -21.7739   -7.9870   24.2336 O   0  0  0  0  0  0  0  0  0  0  0  0
  -27.8404  -26.1216   21.0898 O   0  0  0  0  0  0  0  0  0  1  0  0
  -16.6249   -6.9035   22.5849 F   0  0  0  0  0  0  0  0  0  0  0  0
  -21.0578   -5.4530   23.3917 F   0  0  0  0  0  0  0  0  0  0  0  0
  1  2  1  0  0  0  0
  1  5  2  0  0  0  0
  2  6  2  0  0  0  0
  3 10  2  0  0  0  0
  3 17  1  0  0  0  0
  4 11  1  0  0  0  0
  4 17  2  0  0  0  0
  5 20  1  0  0  0  0
  6 22  1  0  0  0  0
  7 12  2  0  0  0  0
  7 21  1  0  0  0  0
  8  9  1  0  0  0  0
  8 24  2  0  0  0  0
  9 26  2  0  0  0  0
 10 27  1  0  0  0  0
 11 27  2  0  0  0  0
 12 28  1  0  0  0  0
 13 14  2  0  0  0  0
 13 29  1  0  0  0  0
 14 30  1  0  0  0  0
 15 23  1  0  0  0  0
 15 28  2  0  0  0  0
 16 30  2  0  0  0  0
 16 31  1  0  0  0  0
 17 32  1  0  0  0  0
 18 24  1  0  0  0  0
 18 25  2  0  0  0  0
 18 34  1  0  0  0  0
 19 32  1  0  0  0  0
 19 33  2  0  0  0  0
 19 38  1  0  0  0  0
 20 22  2  0  0  0  0
 20 43  1  0  0  0  0
 21 23  2  0  0  0  0
 21 44  1  0  0  0  0
 22 52  1  0  0  0  0
 23 45  1  0  0  0  0
 24 55  1  0  0  0  0
 25 26  1  0  0  0  0
 25 62  1  0  0  0  0
 26 73  1  0  0  0  0
 27 82  1  0  0  0  0
 28 83  1  0  0  0  0
 29 31  2  0  0  0  0
 29 82  1  0  0  0  0
 30 84  1  0  0  0  0
 31 85  1  0  0  0  0
 32 67  2  0  0  0  0
 33 68  1  0  0  0  0
 33 71  1  0  0  0  0
 34 35  2  0  0  0  0
 35 36  1  0  0  0  0
 36 37  2  0  0  0  0
 37 63  1  0  0  0  0
 38 72  1  0  0  0  0
 38 77  2  0  0  0  0
 39 53  1  0  0  0  0
 39 74  1  0  0  0  0
 39 78  2  0  0  0  0
 40 64  1  0  0  0  0
 40 69  1  0  0  0  0
 40 79  2  0  0  0  0
 41 65  1  0  0  0  0
 41 75  1  0  0  0  0
 41 80  2  0  0  0  0
 42 70  1  0  0  0  0
 42 73  1  0  0  0  0
 42 81  2  0  0  0  0
 43 46  1  0  0  0  0
 44 53  1  0  0  0  0
 45 69  1  0  0  0  0
 46 48  1  0  0  0  0
 47 49  1  0  0  0  0
 47 50  1  0  0  0  0
 48 52  1  0  0  0  0
 49 54  1  0  0  0  0
 50 70  1  0  0  0  0
 51 54  1  0  0  0  0
 51 70  1  0  0  0  0
 52 74  1  0  0  0  0
 53 69  1  0  0  0  0
 54 68  1  0  0  0  0
 56 62  1  0  0  0  0
 57 65  1  0  0  0  0
 58 66  1  0  0  0  0
 59 66  1  0  0  0  0
 60 66  1  0  0  0  0
 61 76  1  0  0  0  0
 63 83  1  0  0  0  0
 64 66  1  0  0  0  0
 64 75  1  0  0  0  0
 65 76  1  0  0  0  0
 67 68  1  0  0  0  0
M  CHG  1  76   1
M  ISO  4  42 100  63 101  73 100  83 101
M  END
> <Batch ID>
0127

> <Smiles>
CCc1c([100NH:0][100C:0](=O)N2CCCC(n3nc(-c4ccc(Oc5ccc(F)cc5F)cc4)c(C(N)=O)c3N)C2)ccc(C)c1C=CC=C[101CH2:1][101O:1]c1ccc2c(c1)CN(C(=O)C(NC(=O)C(C)NC)C(C)(C)C)C(C(=O)NC1CCCc3ccccc31)C2

> <Shape>
0.341

> <Color>
0.173

> <Negative vol penalty>
0.000

$$$$

  -OEChem-04052302143D

 82 90  0     1  0  0  0  0  0999 V2000
  -22.8248  -20.2199   24.8600 C   0  0  0  0  0  0  0  0  0  0  0  0
  -23.9752  -20.6971   24.2402 C   0  0  0  0  0  0  0  0  0  0  0  0
  -25.9051  -13.2003   21.7894 C   0  0  0  0  0  0  0  0  0  0  0  0
  -25.5231  -14.0371   19.5554 C   0  0  0  0  0  0  0  0  0  0  0  0
  -21.6103  -20.8794   24.6755 C   0  0  0  0  0  0  0  0  0  0  0  0
  -23.9116  -21.8335   23.4346 C   0  0  0  0  0  0  0  0  0  0  0  0
  -28.2265  -26.1303   22.7828 C   0  0  0  0  0  0  0  0  0  0  0  0
  -32.2510  -20.8954   17.9668 C   0  0  0  0  0  0  0  0  0  0  0  0
  -24.8115  -12.3449   21.6561 C   0  0  0  0  0  0  0  0  0  0  0  0
  -24.4295  -13.1817   19.4220 C   0  0  0  0  0  0  0  0  0  0  0  0
  -29.2035  -26.3385   21.8102 C   0  0  0  0  0  0  0  0  0  0  0  0
  -24.1333   -9.3808   20.1773 C   0  0  0  0  0  0  0  0  0  0  0  0
  -24.2879   -8.0603   20.5990 C   0  0  0  0  0  0  0  0  0  0  0  0
  -32.9409  -21.6065   16.9850 C   0  0  0  0  0  0  0  0  0  0  0  0
  -31.2721  -22.9532   18.7695 C   0  0  0  0  0  0  0  0  0  0  0  0
  -27.7425  -27.8930   20.6840 C   0  0  0  0  0  0  0  0  0  0  0  0
  -22.4947   -8.3586   22.1904 C   0  0  0  0  0  0  0  0  0  0  0  0
  -26.2609  -14.0465   20.7391 C   0  0  0  0  0  0  0  0  0  0  0  0
  -31.9621  -23.6644   17.7877 C   0  0  0  0  0  0  0  0  0  0  0  0
  -28.7304  -14.6560   20.5442 C   0  0  0  0  0  0  0  0  0  0  0  0
  -21.5336  -22.0300   23.8751 C   0  0  0  0  0  0  0  0  0  0  0  0
  -26.9939  -26.7947   22.7072 C   0  0  0  0  0  0  0  0  0  0  0  0
  -22.6947  -22.5082   23.2382 C   0  0  0  0  0  0  0  0  0  0  0  0
  -26.7525  -27.6934   21.6583 C   0  0  0  0  0  0  0  0  0  0  0  0
  -31.4165  -21.5688   18.8591 C   0  0  0  0  0  0  0  0  0  0  0  0
  -24.0737  -12.3356   20.4724 C   0  0  0  0  0  0  0  0  0  0  0  0
  -28.9605  -27.2178   20.7590 C   0  0  0  0  0  0  0  0  0  0  0  0
  -23.1594  -10.1903   20.7621 C   0  0  0  0  0  0  0  0  0  0  0  0
  -23.4686   -7.5491   21.6056 C   0  0  0  0  0  0  0  0  0  0  0  0
  -22.3401   -9.6791   21.7687 C   0  0  0  0  0  0  0  0  0  0  0  0
  -32.7965  -22.9910   16.8955 C   0  0  0  0  0  0  0  0  0  0  0  0
  -27.3902  -14.9307   20.8764 C   0  0  0  0  0  0  0  0  0  0  0  0
  -29.4058  -15.8096   20.8598 C   0  0  0  0  0  0  0  0  0  0  0  0
  -31.7747  -25.1239   17.7375 C   0  0  0  0  0  0  0  0  0  0  0  0
  -30.6053  -25.7462   17.5214 C   0  0  0  0  0  0  0  0  0  0  0  0
  -29.3126  -13.4647   19.9989 C   0  0  0  0  0  0  0  0  0  0  0  0
  -23.9656  -25.8767   22.4071 C   0  0  0  0  0  0  0  0  0  0  0  0
  -23.3724  -29.0361   22.8415 C   0  0  0  0  0  0  0  0  0  0  0  0
  -24.5016  -32.2504   22.6407 C   0  0  0  0  0  0  0  0  0  0  0  0
  -29.8500  -21.3597   20.8208 C   0  0  0  0  0  0  0  0  0  0  0  0
  -20.1893  -22.6815   23.6672 C   0  0  0  0  0  0  0  0  0  0  0  0
  -25.9607  -26.5795   23.7788 C   0  0  0  0  0  0  0  0  0  0  0  0
  -25.4535  -28.4468   21.5426 C   0  0  0  0  0  0  0  0  0  0  0  0
  -20.2791  -24.0958   23.0999 C   0  0  0  0  0  0  0  0  0  0  0  0
  -27.9069  -19.9068   23.4266 C   0  0  0  0  0  0  0  0  0  0  0  0
  -21.2564  -24.1406   21.9296 C   0  0  0  0  0  0  0  0  0  0  0  0
  -27.7095  -18.4600   22.9681 C   0  0  0  0  0  0  0  0  0  0  0  0
  -27.8754  -20.8832   22.2522 C   0  0  0  0  0  0  0  0  0  0  0  0
  -28.5984  -19.1163   20.6952 C   0  0  0  0  0  0  0  0  0  0  0  0
  -22.6708  -23.7522   22.3768 C   0  0  1  0  0  0  0  0  0  0  0  0
  -24.5455  -26.9188   23.3212 C   0  0  1  0  0  0  0  0  0  0  0  0
  -28.6873  -18.0893   21.8359 C   0  0  2  0  0  0  0  0  0  0  0  0
  -23.7760  -34.6211   23.0287 C   0  0  0  0  0  0  0  0  0  0  0  0
  -21.7421  -28.9565   20.2635 C   0  0  0  0  0  0  0  0  0  0  0  0
  -21.8515  -31.4569   20.1993 C   0  0  0  0  0  0  0  0  0  0  0  0
  -20.7202  -30.3083   22.1028 C   0  0  0  0  0  0  0  0  0  0  0  0
  -26.6016  -32.6816   24.6811 C   0  0  0  0  0  0  0  0  0  0  0  0
  -30.4608  -27.2424   17.4654 C   0  0  0  0  0  0  0  0  0  0  0  0
  -29.4587  -27.7502   18.4953 C   0  0  0  0  0  0  0  0  0  1  0  0
  -23.2416  -30.2342   21.9324 C   0  0  1  0  0  0  0  0  0  0  0  0
  -24.4517  -33.3993   23.6316 C   0  0  2  0  0  0  0  0  0  0  0  0
  -21.9127  -30.2235   21.1253 C   0  0  0  0  0  0  0  0  0  0  0  0
  -27.2223  -16.1621   21.3658 N   0  0  0  0  0  0  0  0  0  0  0  0
  -28.4658  -16.6714   21.3435 N   0  0  0  0  0  0  0  0  0  0  0  0
  -24.4723  -28.1976   22.6116 N   0  0  0  0  0  0  0  0  0  0  0  0
  -28.8298  -20.4709   21.2208 N   0  0  0  0  0  0  0  0  0  0  0  0
  -30.7061  -16.1606   20.7682 N   0  0  0  0  0  0  0  0  0  0  0  0
  -28.4751  -12.3726   19.7338 N   0  0  0  0  0  0  0  0  0  0  0  0
  -30.7173  -20.8460   19.8573 N   0  0  0  0  0  0  0  0  0  0  0  0
  -23.3046  -24.8567   23.0645 N   0  0  0  0  0  0  0  0  0  0  0  0
  -23.4174  -31.4097   22.7784 N   0  0  0  0  0  0  0  0  0  0  0  0
  -25.8297  -33.7828   24.0500 N   0  3  0  0  0  0  0  0  0  0  0  0
  -30.5419  -13.3657   19.7692 O   0  0  0  0  0  0  0  0  0  0  0  0
  -24.1061  -25.9905   21.1951 O   0  0  0  0  0  0  0  0  0  0  0  0
  -22.5336  -28.8550   23.7277 O   0  0  0  0  0  0  0  0  0  0  0  0
  -25.4096  -32.1145   21.8236 O   0  0  0  0  0  0  0  0  0  0  0  0
  -29.9634  -22.4832   21.3177 O   0  0  0  0  0  0  0  0  0  0  0  0
  -23.0065  -11.5008   20.3418 O   0  0  0  0  0  0  0  0  0  0  0  0
  -29.9122  -27.4224   19.8080 O   0  0  0  0  0  0  0  0  0  1  0  0
  -23.6162   -6.2806   22.0094 F   0  0  0  0  0  0  0  0  0  0  0  0
  -21.4019  -10.4516   22.3335 F   0  0  0  0  0  0  0  0  0  0  0  0
  -33.6712  -23.8231   15.6576 Cl  0  0  0  0  0  0  0  0  0  0  0  0
  1  2  1  0  0  0  0
  1  5  2  0  0  0  0
  2  6  2  0  0  0  0
  3  9  2  0  0  0  0
  3 18  1  0  0  0  0
  4 10  1  0  0  0  0
  4 18  2  0  0  0  0
  5 21  1  0  0  0  0
  6 23  1  0  0  0  0
  7 11  2  0  0  0  0
  7 22  1  0  0  0  0
  8 14  2  0  0  0  0
  8 25  1  0  0  0  0
  9 26  1  0  0  0  0
 10 26  2  0  0  0  0
 11 27  1  0  0  0  0
 12 13  2  0  0  0  0
 12 28  1  0  0  0  0
 13 29  1  0  0  0  0
 14 31  1  0  0  0  0
 15 19  1  0  0  0  0
 15 25  2  0  0  0  0
 16 24  1  0  0  0  0
 16 27  2  0  0  0  0
 17 29  2  0  0  0  0
 17 30  1  0  0  0  0
 18 32  1  0  0  0  0
 19 31  2  0  0  0  0
 19 34  1  0  0  0  0
 20 32  1  0  0  0  0
 20 33  2  0  0  0  0
 20 36  1  0  0  0  0
 21 23  2  0  0  0  0
 21 41  1  0  0  0  0
 22 24  2  0  0  0  0
 22 42  1  0  0  0  0
 23 50  1  0  0  0  0
 24 43  1  0  0  0  0
 25 69  1  0  0  0  0
 26 78  1  0  0  0  0
 27 79  1  0  0  0  0
 28 30  2  0  0  0  0
 28 78  1  0  0  0  0
 29 80  1  0  0  0  0
 30 81  1  0  0  0  0
 31 82  1  0  0  0  0
 32 63  2  0  0  0  0
 33 64  1  0  0  0  0
 33 67  1  0  0  0  0
 34 35  2  0  0  0  0
 35 58  1  0  0  0  0
 36 68  1  0  0  0  0
 36 73  2  0  0  0  0
 37 51  1  0  0  0  0
 37 70  1  0  0  0  0
 37 74  2  0  0  0  0
 38 60  1  0  0  0  0
 38 65  1  0  0  0  0
 38 75  2  0  0  0  0
 39 61  1  0  0  0  0
 39 71  1  0  0  0  0
 39 76  2  0  0  0  0
 40 66  1  0  0  0  0
 40 69  1  0  0  0  0
 40 77  2  0  0  0  0
 41 44  1  0  0  0  0
 42 51  1  0  0  0  0
 43 65  1  0  0  0  0
 44 46  1  0  0  0  0
 45 47  1  0  0  0  0
 45 48  1  0  0  0  0
 46 50  1  0  0  0  0
 47 52  1  0  0  0  0
 48 66  1  0  0  0  0
 49 52  1  0  0  0  0
 49 66  1  0  0  0  0
 50 70  1  0  0  0  0
 51 65  1  0  0  0  0
 52 64  1  0  0  0  0
 53 61  1  0  0  0  0
 54 62  1  0  0  0  0
 55 62  1  0  0  0  0
 56 62  1  0  0  0  0
 57 72  1  0  0  0  0
 58 59  1  0  0  0  0
 59 79  1  0  0  0  0
 60 62  1  0  0  0  0
 60 71  1  0  0  0  0
 61 72  1  0  0  0  0
 63 64  1  0  0  0  0
M  CHG  1  72   1
M  ISO  4  40 100  59 101  69 100  79 101
M  END
> <Batch ID>
0127

> <Smiles>
CNC(C)C(=O)NC(C(=O)N1Cc2cc([101O:1][101CH2:1]CC=Cc3cc([100NH:0][100C:0](=O)N4CCCC(n5nc(-c6ccc(Oc7ccc(F)cc7F)cc6)c(C(N)=O)c5N)C4)ccc3Cl)ccc2CC1C(=O)NC1CCCc2ccccc21)C(C)(C)C

> <Shape>
0.253

> <Color>
0.060

> <Negative vol penalty>
0.000

$$$$

  -OEChem-04052302143D

 84 92  0     1  0  0  0  0  0999 V2000
  -19.6952   -8.5180   19.9274 C   0  0  0  0  0  0  0  0  0  0  0  0
  -19.4661   -9.7113   20.6049 C   0  0  0  0  0  0  0  0  0  0  0  0
  -24.3048  -28.8509   21.9266 C   0  0  0  0  0  0  0  0  0  0  0  0
  -25.2358  -30.1672   20.1273 C   0  0  0  0  0  0  0  0  0  0  0  0
  -28.7131  -23.1272   23.5229 C   0  0  0  0  0  0  0  0  0  0  0  0
  -27.7631  -22.8127   24.4946 C   0  0  0  0  0  0  0  0  0  0  0  0
  -20.9791   -7.9758   19.8875 C   0  0  0  0  0  0  0  0  0  0  0  0
  -20.5206  -10.3625   21.2439 C   0  0  0  0  0  0  0  0  0  0  0  0
  -21.3108  -16.4090   21.8115 C   0  0  0  0  0  0  0  0  0  0  0  0
  -24.0120  -30.0193   22.6299 C   0  0  0  0  0  0  0  0  0  0  0  0
  -24.9429  -31.3357   20.8305 C   0  0  0  0  0  0  0  0  0  0  0  0
  -21.0405  -17.2967   22.8520 C   0  0  0  0  0  0  0  0  0  0  0  0
  -23.3459  -32.6435   25.0577 C   0  0  0  0  0  0  0  0  0  0  0  0
  -23.6563  -32.6791   26.4170 C   0  0  0  0  0  0  0  0  0  0  0  0
  -27.5224  -21.7684   21.9189 C   0  0  0  0  0  0  0  0  0  0  0  0
  -23.3276  -17.1114   23.5961 C   0  0  0  0  0  0  0  0  0  0  0  0
  -25.9848  -32.3007   25.8952 C   0  0  0  0  0  0  0  0  0  0  0  0
  -24.9168  -28.9249   20.6753 C   0  0  0  0  0  0  0  0  0  0  0  0
  -28.5928  -22.6050   22.2351 C   0  0  0  0  0  0  0  0  0  0  0  0
  -26.6927  -21.9760   24.1784 C   0  0  0  0  0  0  0  0  0  0  0  0
  -24.3907  -27.0483   19.0292 C   0  0  0  0  0  0  0  0  0  0  0  0
  -22.0517   -8.6257   20.5182 C   0  0  0  0  0  0  0  0  0  0  0  0
  -22.5909  -15.8564   21.6617 C   0  0  0  0  0  0  0  0  0  0  0  0
  -21.8198   -9.8278   21.2136 C   0  0  0  0  0  0  0  0  0  0  0  0
  -23.6123  -16.2189   22.5514 C   0  0  0  0  0  0  0  0  0  0  0  0
  -24.3310  -31.2617   22.0819 C   0  0  0  0  0  0  0  0  0  0  0  0
  -22.0482  -17.6458   23.7463 C   0  0  0  0  0  0  0  0  0  0  0  0
  -24.3549  -32.4364   24.1170 C   0  0  0  0  0  0  0  0  0  0  0  0
  -26.5724  -21.4539   22.8906 C   0  0  0  0  0  0  0  0  0  0  0  0
  -24.9757  -32.5077   26.8358 C   0  0  0  0  0  0  0  0  0  0  0  0
  -25.6743  -32.2651   24.5358 C   0  0  0  0  0  0  0  0  0  0  0  0
  -25.2201  -27.7182   19.9486 C   0  0  0  0  0  0  0  0  0  0  0  0
  -25.1332  -25.9672   18.6214 C   0  0  0  0  0  0  0  0  0  0  0  0
  -25.7037  -21.6587   25.2221 C   0  0  0  0  0  0  0  0  0  0  0  0
  -24.3882  -21.9142   25.1460 C   0  0  0  0  0  0  0  0  0  0  0  0
  -29.5938  -22.9357   21.2126 C   0  0  0  0  0  0  0  0  0  0  0  0
  -23.0675  -27.3743   18.5837 C   0  0  0  0  0  0  0  0  0  0  0  0
  -23.7861  -12.9120   21.7374 C   0  0  0  0  0  0  0  0  0  0  0  0
  -26.5144  -14.4154   20.8329 C   0  0  0  0  0  0  0  0  0  0  0  0
  -28.3402  -17.2972   20.7399 C   0  0  0  0  0  0  0  0  0  0  0  0
  -23.4128   -7.9767   20.4879 C   0  0  0  0  0  0  0  0  0  0  0  0
  -22.8732  -14.9210   20.5181 C   0  0  0  0  0  0  0  0  0  0  0  0
  -25.0086  -15.6694   22.4220 C   0  0  0  0  0  0  0  0  0  0  0  0
  -24.5473   -8.9226   20.8732 C   0  0  0  0  0  0  0  0  0  0  0  0
  -29.6597  -24.5329   18.0210 C   0  0  0  0  0  0  0  0  0  0  0  0
  -24.1845   -9.7074   22.1299 C   0  0  0  0  0  0  0  0  0  0  0  0
  -28.4622  -25.4835   18.0725 C   0  0  0  0  0  0  0  0  0  0  0  0
  -30.3446  -24.4152   19.3803 C   0  0  0  0  0  0  0  0  0  0  0  0
  -28.2427  -24.9912   20.5443 C   0  0  0  0  0  0  0  0  0  0  0  0
  -22.9426  -10.5767   21.8980 C   0  0  1  0  0  0  0  0  0  0  0  0
  -24.0794  -14.0206   20.7665 C   0  0  1  0  0  0  0  0  0  0  0  0
  -27.4931  -25.0989   19.2062 C   0  0  1  0  0  0  0  0  0  0  0  0
  -23.6209  -20.3313   21.1519 C   0  0  0  0  0  0  0  0  0  0  0  0
  -30.2242  -18.8416   20.1375 C   0  0  0  0  0  0  0  0  0  0  0  0
  -27.8919  -13.0710   23.2005 C   0  0  0  0  0  0  0  0  0  0  0  0
  -29.7670  -14.7112   22.9515 C   0  0  0  0  0  0  0  0  0  0  0  0
  -29.2459  -13.1244   21.0986 C   0  0  0  0  0  0  0  0  0  0  0  0
  -27.0120  -18.1257   18.2282 C   0  0  0  0  0  0  0  0  0  0  0  0
  -23.4145  -21.5675   26.2366 C   0  0  0  0  0  0  0  0  0  0  0  0
  -22.3081  -20.6497   25.7199 C   0  0  0  0  0  0  0  0  0  0  0  0
  -25.0962  -20.6674   21.2000 C   0  0  0  0  0  0  0  0  0  0  0  0
  -22.8672  -19.3263   25.2162 C   0  0  0  0  0  0  0  0  0  1  0  0
  -27.6754  -15.0516   21.5584 C   0  0  1  0  0  0  0  0  0  0  0  0
  -29.0884  -17.9795   19.6089 C   0  0  2  0  0  0  0  0  0  0  0  0
  -28.6183  -13.9986   22.2061 C   0  0  0  0  0  0  0  0  0  0  0  0
  -26.3991  -27.1132   20.1153 N   0  0  0  0  0  0  0  0  0  0  0  0
  -26.3160  -26.0518   19.2952 N   0  0  0  0  0  0  0  0  0  0  0  0
  -29.3765  -24.0645   20.4188 N   0  0  0  0  0  0  0  0  0  0  0  0
  -25.2333  -14.7536   21.2914 N   0  0  0  0  0  0  0  0  0  0  0  0
  -24.8832  -24.9620   17.7557 N   0  0  0  0  0  0  0  0  0  0  0  0
  -22.4506  -28.5203   19.1039 N   0  0  0  0  0  0  0  0  0  0  0  0
  -23.2901  -11.7647   21.1481 N   0  0  0  0  0  0  0  0  0  0  0  0
  -28.3307  -15.9263   20.5920 N   0  0  0  0  0  0  0  0  0  0  0  0
  -28.1641  -18.8481   18.8263 N   0  3  0  0  0  0  0  0  0  0  0  0
  -30.5550  -22.1730   21.1264 O   0  0  0  0  0  0  0  0  0  0  0  0
  -22.4440  -26.6611   17.7613 O   0  0  0  0  0  0  0  0  0  0  0  0
  -23.9956  -13.0842   22.9324 O   0  0  0  0  0  0  0  0  0  0  0  0
  -26.7359  -13.6522   19.8894 O   0  0  0  0  0  0  0  0  0  0  0  0
  -27.8197  -17.9179   21.6642 O   0  0  0  0  0  0  0  0  0  0  0  0
  -24.0452  -32.4021   22.7677 O   0  0  0  0  0  0  0  0  0  0  0  0
  -21.7869  -18.5115   24.7632 O   0  0  0  0  0  0  0  0  0  1  0  0
  -25.5363  -20.6330   22.5555 O   0  0  0  0  0  0  0  0  0  0  0  0
  -25.2739  -32.5435   28.1412 F   0  0  0  0  0  0  0  0  0  0  0  0
  -26.6481  -32.0670   23.6367 F   0  0  0  0  0  0  0  0  0  0  0  0
  1  2  1  0  0  0  0
  1  7  2  0  0  0  0
  2  8  2  0  0  0  0
  3 10  2  0  0  0  0
  3 18  1  0  0  0  0
  4 11  1  0  0  0  0
  4 18  2  0  0  0  0
  5  6  2  0  0  0  0
  5 19  1  0  0  0  0
  6 20  1  0  0  0  0
  7 22  1  0  0  0  0
  8 24  1  0  0  0  0
  9 12  2  0  0  0  0
  9 23  1  0  0  0  0
 10 26  1  0  0  0  0
 11 26  2  0  0  0  0
 12 27  1  0  0  0  0
 13 14  2  0  0  0  0
 13 28  1  0  0  0  0
 14 30  1  0  0  0  0
 15 19  2  0  0  0  0
 15 29  1  0  0  0  0
 16 25  1  0  0  0  0
 16 27  2  0  0  0  0
 17 30  2  0  0  0  0
 17 31  1  0  0  0  0
 18 32  1  0  0  0  0
 19 36  1  0  0  0  0
 20 29  2  0  0  0  0
 20 34  1  0  0  0  0
 21 32  1  0  0  0  0
 21 33  2  0  0  0  0
 21 37  1  0  0  0  0
 22 24  2  0  0  0  0
 22 41  1  0  0  0  0
 23 25  2  0  0  0  0
 23 42  1  0  0  0  0
 24 50  1  0  0  0  0
 25 43  1  0  0  0  0
 26 80  1  0  0  0  0
 27 81  1  0  0  0  0
 28 31  2  0  0  0  0
 28 80  1  0  0  0  0
 29 82  1  0  0  0  0
 30 83  1  0  0  0  0
 31 84  1  0  0  0  0
 32 66  2  0  0  0  0
 33 67  1  0  0  0  0
 33 70  1  0  0  0  0
 34 35  2  0  0  0  0
 35 59  1  0  0  0  0
 36 68  1  0  0  0  0
 36 75  2  0  0  0  0
 37 71  1  0  0  0  0
 37 76  2  0  0  0  0
 38 51  1  0  0  0  0
 38 72  1  0  0  0  0
 38 77  2  0  0  0  0
 39 63  1  0  0  0  0
 39 69  1  0  0  0  0
 39 78  2  0  0  0  0
 40 64  1  0  0  0  0
 40 73  1  0  0  0  0
 40 79  2  0  0  0  0
 41 44  1  0  0  0  0
 42 51  1  0  0  0  0
 43 69  1  0  0  0  0
 44 46  1  0  0  0  0
 45 47  1  0  0  0  0
 45 48  1  0  0  0  0
 46 50  1  0  0  0  0
 47 52  1  0  0  0  0
 48 68  1  0  0  0  0
 49 52  1  0  0  0  0
 49 68  1  0  0  0  0
 50 72  1  0  0  0  0
 51 69  1  0  0  0  0
 52 67  1  0  0  0  0
 53 61  1  0  0  0  0
 54 64  1  0  0  0  0
 55 65  1  0  0  0  0
 56 65  1  0  0  0  0
 57 65  1  0  0  0  0
 58 74  1  0  0  0  0
 59 60  1  0  0  0  0
 60 62  1  0  0  0  0
 61 82  1  0  0  0  0
 62 81  1  0  0  0  0
 63 65  1  0  0  0  0
 63 73  1  0  0  0  0
 64 74  1  0  0  0  0
 66 67  1  0  0  0  0
M  CHG  1  74   1
M  ISO  4  19 100  36 100  62 101  81 101
M  END
> <Batch ID>
0127

> <Smiles>
CCOc1c[100c:0]([100C:0](=O)N2CCCC(n3nc(-c4ccc(Oc5ccc(F)cc5F)cc4)c(C(N)=O)c3N)C2)ccc1C=CCC[101CH2:1][101O:1]c1ccc2c(c1)CN(C(=O)C(NC(=O)C(C)NC)C(C)(C)C)C(C(=O)NC1CCCc3ccccc31)C2

> <Shape>
0.252

> <Color>
0.043

> <Negative vol penalty>
0.000

$$$$

  -OEChem-04052302143D

 80 88  0     1  0  0  0  0  0999 V2000
  -21.4950  -20.2081   18.4792 C   0  0  0  0  0  0  0  0  0  0  0  0
  -22.7177  -20.2809   19.1388 C   0  0  0  0  0  0  0  0  0  0  0  0
  -26.3745  -26.7278   22.5078 C   0  0  0  0  0  0  0  0  0  0  0  0
  -25.0742  -26.9206   20.4806 C   0  0  0  0  0  0  0  0  0  0  0  0
  -20.7140  -19.0581   18.5860 C   0  0  0  0  0  0  0  0  0  0  0  0
  -23.1597  -19.2039   19.9065 C   0  0  0  0  0  0  0  0  0  0  0  0
  -28.0394  -18.1162   19.1000 C   0  0  0  0  0  0  0  0  0  0  0  0
  -25.4020  -27.4492   23.2002 C   0  0  0  0  0  0  0  0  0  0  0  0
  -24.1017  -27.6420   21.1730 C   0  0  0  0  0  0  0  0  0  0  0  0
  -28.9845  -18.9346   19.7170 C   0  0  0  0  0  0  0  0  0  0  0  0
  -21.5445  -26.9835   23.2819 C   0  0  0  0  0  0  0  0  0  0  0  0
  -20.2095  -26.6424   23.0649 C   0  0  0  0  0  0  0  0  0  0  0  0
  -34.5665  -25.5372   21.8340 C   0  0  0  0  0  0  0  0  0  0  0  0
  -34.6510  -26.6897   21.0167 C   0  0  0  0  0  0  0  0  0  0  0  0
  -29.2830  -17.2774   21.4444 C   0  0  0  0  0  0  0  0  0  0  0  0
  -19.7668  -28.8805   22.2699 C   0  0  0  0  0  0  0  0  0  0  0  0
  -26.2106  -26.4635   21.1480 C   0  0  0  0  0  0  0  0  0  0  0  0
  -27.2767  -24.3230   20.2595 C   0  0  0  0  0  0  0  0  0  0  0  0
  -21.1510  -17.9628   19.3475 C   0  0  0  0  0  0  0  0  0  0  0  0
  -27.7004  -16.8749   19.6575 C   0  0  0  0  0  0  0  0  0  0  0  0
  -22.3832  -18.0387   20.0246 C   0  0  0  0  0  0  0  0  0  0  0  0
  -28.3351  -16.4440   20.8312 C   0  0  0  0  0  0  0  0  0  0  0  0
  -24.2656  -27.9063   22.5328 C   0  0  0  0  0  0  0  0  0  0  0  0
  -29.6044  -18.5166   20.8909 C   0  0  0  0  0  0  0  0  0  0  0  0
  -21.9906  -28.2732   22.9929 C   0  0  0  0  0  0  0  0  0  0  0  0
  -19.3207  -27.5908   22.5589 C   0  0  0  0  0  0  0  0  0  0  0  0
  -21.1017  -29.2216   22.4869 C   0  0  0  0  0  0  0  0  0  0  0  0
  -27.2151  -25.7188   20.4321 C   0  0  0  0  0  0  0  0  0  0  0  0
  -33.6373  -24.7151   21.2401 C   0  0  0  0  0  0  0  0  0  0  0  0
  -33.7675  -26.4896   19.9816 C   0  0  0  0  0  0  0  0  0  0  0  0
  -28.4107  -24.1191   19.5118 C   0  0  0  0  0  0  0  0  0  0  0  0
  -33.1898  -23.3904   21.7054 C   0  0  0  0  0  0  0  0  0  0  0  0
  -32.2608  -22.6426   21.0935 C   0  0  0  0  0  0  0  0  0  0  0  0
  -26.3883  -23.3019   20.7328 C   0  0  0  0  0  0  0  0  0  0  0  0
  -33.4151  -27.3266   18.8275 C   0  0  0  0  0  0  0  0  0  0  0  0
  -31.8705  -21.3157   21.6525 C   0  0  0  0  0  0  0  0  0  0  0  0
  -25.0340  -15.5891   20.8154 C   0  0  0  0  0  0  0  0  0  0  0  0
  -26.8645  -12.9173   20.9976 C   0  0  0  0  0  0  0  0  0  0  0  0
  -29.9847  -11.5525   21.2175 C   0  0  0  0  0  0  0  0  0  0  0  0
  -20.2504  -16.7593   19.4717 C   0  0  0  0  0  0  0  0  0  0  0  0
  -26.6984  -15.9922   18.9652 C   0  0  0  0  0  0  0  0  0  0  0  0
  -28.0213  -15.1114   21.4590 C   0  0  0  0  0  0  0  0  0  0  0  0
  -20.9631  -15.5173   20.0006 C   0  0  0  0  0  0  0  0  0  0  0  0
  -31.1909  -26.2511   16.2511 C   0  0  0  0  0  0  0  0  0  0  0  0
  -21.8176  -15.8683   21.2144 C   0  0  0  0  0  0  0  0  0  0  0  0
  -29.9166  -25.8794   17.0114 C   0  0  0  0  0  0  0  0  0  0  0  0
  -31.8946  -27.4497   16.8825 C   0  0  0  0  0  0  0  0  0  0  0  0
  -30.9111  -26.9275   19.0882 C   0  0  0  0  0  0  0  0  0  0  0  0
  -22.9082  -16.8817   20.8467 C   0  0  1  0  0  0  0  0  0  0  0  0
  -26.0536  -14.9731   19.8997 C   0  0  1  0  0  0  0  0  0  0  0  0
  -30.1982  -25.6921   18.5141 C   0  0  1  0  0  0  0  0  0  0  0  0
  -31.1604   -9.3421   21.3879 C   0  0  0  0  0  0  0  0  0  0  0  0
  -26.0657  -12.7217   23.9359 C   0  0  0  0  0  0  0  0  0  0  0  0
  -27.9615  -11.1215   24.2727 C   0  0  0  0  0  0  0  0  0  0  0  0
  -26.1009  -10.5383   22.7169 C   0  0  0  0  0  0  0  0  0  0  0  0
  -31.4299  -11.9937   18.6728 C   0  0  0  0  0  0  0  0  0  0  0  0
  -30.8115  -20.5656   20.8726 C   0  0  0  0  0  0  0  0  0  1  0  0
  -27.7714  -12.3119   22.0416 C   0  0  1  0  0  0  0  0  0  0  0  0
  -30.6463  -10.4226   20.4494 C   0  0  2  0  0  0  0  0  0  0  0  0
  -26.9796  -11.6994   23.2313 C   0  0  0  0  0  0  0  0  0  0  0  0
  -28.2293  -26.3566   19.8416 N   0  0  0  0  0  0  0  0  0  0  0  0
  -28.9389  -25.3570   19.2908 N   0  0  0  0  0  0  0  0  0  0  0  0
  -32.1219  -27.2235   18.3094 N   0  0  0  0  0  0  0  0  0  0  0  0
  -27.0302  -14.2870   20.7480 N   0  0  0  0  0  0  0  0  0  0  0  0
  -28.9975  -23.0036   19.0285 N   0  0  0  0  0  0  0  0  0  0  0  0
  -25.2709  -23.6855   21.4869 N   0  0  0  0  0  0  0  0  0  0  0  0
  -23.9978  -16.2240   20.1577 N   0  0  0  0  0  0  0  0  0  0  0  0
  -28.6247  -11.3600   21.3386 N   0  0  0  0  0  0  0  0  0  0  0  0
  -31.7956  -10.9402   19.6542 N   0  3  0  0  0  0  0  0  0  0  0  0
  -26.5886  -22.0842   20.5079 O   0  0  0  0  0  0  0  0  0  0  0  0
  -34.3053  -28.0561   18.3932 O   0  0  0  0  0  0  0  0  0  0  0  0
  -32.3764  -20.8649   22.6767 O   0  0  0  0  0  0  0  0  0  0  0  0
  -25.1761  -15.4940   22.0289 O   0  0  0  0  0  0  0  0  0  0  0  0
  -26.0442  -12.1998   20.4197 O   0  0  0  0  0  0  0  0  0  0  0  0
  -30.6122  -12.5082   21.6685 O   0  0  0  0  0  0  0  0  0  0  0  0
  -33.1454  -25.2883   20.1105 O   0  0  0  0  0  0  0  0  0  0  0  0
  -23.3164  -28.6101   23.2082 O   0  0  0  0  0  0  0  0  0  0  0  0
  -30.5268  -19.3137   21.4955 O   0  0  0  0  0  0  0  0  0  1  0  0
  -18.0391  -27.2626   22.3491 F   0  0  0  0  0  0  0  0  0  0  0  0
  -21.5247  -30.4619   22.2063 F   0  0  0  0  0  0  0  0  0  0  0  0
  1  2  1  0  0  0  0
  1  5  2  0  0  0  0
  2  6  2  0  0  0  0
  3  8  2  0  0  0  0
  3 17  1  0  0  0  0
  4  9  1  0  0  0  0
  4 17  2  0  0  0  0
  5 19  1  0  0  0  0
  6 21  1  0  0  0  0
  7 10  2  0  0  0  0
  7 20  1  0  0  0  0
  8 23  1  0  0  0  0
  9 23  2  0  0  0  0
 10 24  1  0  0  0  0
 11 12  2  0  0  0  0
 11 25  1  0  0  0  0
 12 26  1  0  0  0  0
 13 14  1  0  0  0  0
 13 29  2  0  0  0  0
 14 30  2  0  0  0  0
 15 22  1  0  0  0  0
 15 24  2  0  0  0  0
 16 26  2  0  0  0  0
 16 27  1  0  0  0  0
 17 28  1  0  0  0  0
 18 28  1  0  0  0  0
 18 31  2  0  0  0  0
 18 34  1  0  0  0  0
 19 21  2  0  0  0  0
 19 40  1  0  0  0  0
 20 22  2  0  0  0  0
 20 41  1  0  0  0  0
 21 49  1  0  0  0  0
 22 42  1  0  0  0  0
 23 77  1  0  0  0  0
 24 78  1  0  0  0  0
 25 27  2  0  0  0  0
 25 77  1  0  0  0  0
 26 79  1  0  0  0  0
 27 80  1  0  0  0  0
 28 61  2  0  0  0  0
 29 32  1  0  0  0  0
 29 76  1  0  0  0  0
 30 35  1  0  0  0  0
 30 76  1  0  0  0  0
 31 62  1  0  0  0  0
 31 65  1  0  0  0  0
 32 33  2  0  0  0  0
 33 36  1  0  0  0  0
 34 66  1  0  0  0  0
 34 70  2  0  0  0  0
 35 63  1  0  0  0  0
 35 71  2  0  0  0  0
 36 57  1  0  0  0  0
 36 72  2  0  0  0  0
 37 50  1  0  0  0  0
 37 67  1  0  0  0  0
 37 73  2  0  0  0  0
 38 58  1  0  0  0  0
 38 64  1  0  0  0  0
 38 74  2  0  0  0  0
 39 59  1  0  0  0  0
 39 68  1  0  0  0  0
 39 75  2  0  0  0  0
 40 43  1  0  0  0  0
 41 50  1  0  0  0  0
 42 64  1  0  0  0  0
 43 45  1  0  0  0  0
 44 46  1  0  0  0  0
 44 47  1  0  0  0  0
 45 49  1  0  0  0  0
 46 51  1  0  0  0  0
 47 63  1  0  0  0  0
 48 51  1  0  0  0  0
 48 63  1  0  0  0  0
 49 67  1  0  0  0  0
 50 64  1  0  0  0  0
 51 62  1  0  0  0  0
 52 59  1  0  0  0  0
 53 60  1  0  0  0  0
 54 60  1  0  0  0  0
 55 60  1  0  0  0  0
 56 69  1  0  0  0  0
 57 78  1  0  0  0  0
 58 60  1  0  0  0  0
 58 68  1  0  0  0  0
 59 69  1  0  0  0  0
 61 62  1  0  0  0  0
M  CHG  1  69   1
M  ISO  4  30 100  35 100  57 101  78 101
M  END
> <Batch ID>
0127

> <Smiles>
CNC(C)C(=O)NC(C(=O)N1Cc2cc([101O:1][101CH2:1]C(=O)C=Cc3cc[100c:0]([100C:0](=O)N4CCCC(n5nc(-c6ccc(Oc7ccc(F)cc7F)cc6)c(C(N)=O)c5N)C4)o3)ccc2CC1C(=O)NC1CCCc2ccccc21)C(C)(C)C

> <Shape>
0.194

> <Color>
0.073

> <Negative vol penalty>
0.000

$$$$

  -OEChem-04052302143D

 82 90  0     1  0  0  0  0  0999 V2000
  -15.6575  -25.1860   29.1716 C   0  0  0  0  0  0  0  0  0  0  0  0
  -16.7369  -25.6667   28.4372 C   0  0  0  0  0  0  0  0  0  0  0  0
  -29.7800  -17.3305   19.4618 C   0  0  0  0  0  0  0  0  0  0  0  0
  -27.8351  -17.8678   20.7906 C   0  0  0  0  0  0  0  0  0  0  0  0
  -14.9662  -24.0568   28.7348 C   0  0  0  0  0  0  0  0  0  0  0  0
  -17.1263  -25.0177   27.2660 C   0  0  0  0  0  0  0  0  0  0  0  0
  -18.0753  -28.2445   23.4803 C   0  0  0  0  0  0  0  0  0  0  0  0
  -26.2227  -29.4705   20.9242 C   0  0  0  0  0  0  0  0  0  0  0  0
  -27.2089  -28.4859   20.8644 C   0  0  0  0  0  0  0  0  0  0  0  0
  -29.7551  -16.0253   19.9531 C   0  0  0  0  0  0  0  0  0  0  0  0
  -27.8101  -16.5626   21.2818 C   0  0  0  0  0  0  0  0  0  0  0  0
  -19.2974  -28.9150   23.5064 C   0  0  0  0  0  0  0  0  0  0  0  0
  -28.0202  -13.1804   19.3788 C   0  0  0  0  0  0  0  0  0  0  0  0
  -28.1916  -12.1405   18.4652 C   0  0  0  0  0  0  0  0  0  0  0  0
  -25.9094  -27.2842   19.2198 C   0  0  0  0  0  0  0  0  0  0  0  0
  -20.1844  -27.3484   21.9007 C   0  0  0  0  0  0  0  0  0  0  0  0
  -30.1572  -11.4101   19.6653 C   0  0  0  0  0  0  0  0  0  0  0  0
  -28.8201  -18.2518   19.8806 C   0  0  0  0  0  0  0  0  0  0  0  0
  -24.9232  -28.2688   19.2797 C   0  0  0  0  0  0  0  0  0  0  0  0
  -28.1956  -20.0894   18.2250 C   0  0  0  0  0  0  0  0  0  0  0  0
  -15.3412  -23.3993   27.5525 C   0  0  0  0  0  0  0  0  0  0  0  0
  -17.9017  -27.1125   22.6710 C   0  0  0  0  0  0  0  0  0  0  0  0
  -16.4401  -23.8778   26.8137 C   0  0  0  0  0  0  0  0  0  0  0  0
  -18.9583  -26.6669   21.8641 C   0  0  0  0  0  0  0  0  0  0  0  0
  -25.0798  -29.3619   20.1319 C   0  0  0  0  0  0  0  0  0  0  0  0
  -27.0523  -27.3928   20.0122 C   0  0  0  0  0  0  0  0  0  0  0  0
  -28.7701  -15.6413   20.8630 C   0  0  0  0  0  0  0  0  0  0  0  0
  -20.3531  -28.4653   22.7187 C   0  0  0  0  0  0  0  0  0  0  0  0
  -28.9173  -13.3352   20.4357 C   0  0  0  0  0  0  0  0  0  0  0  0
  -29.2601  -11.2553   18.6084 C   0  0  0  0  0  0  0  0  0  0  0  0
  -29.9858  -12.4501   20.5789 C   0  0  0  0  0  0  0  0  0  0  0  0
  -28.8457  -19.6004   19.3739 C   0  0  0  0  0  0  0  0  0  0  0  0
  -28.5318  -21.4203   18.1804 C   0  0  0  0  0  0  0  0  0  0  0  0
  -22.8890  -27.1168   18.5380 C   0  0  0  0  0  0  0  0  0  0  0  0
  -23.7407  -28.1264   18.4402 C   0  0  0  0  0  0  0  0  0  0  0  0
  -27.3622  -19.4019   17.2823 C   0  0  0  0  0  0  0  0  0  0  0  0
  -17.2305  -24.0524   23.2084 C   0  0  0  0  0  0  0  0  0  0  0  0
  -17.0923  -23.9173   19.9704 C   0  0  0  0  0  0  0  0  0  0  0  0
  -18.0381  -25.2453   16.9723 C   0  0  0  0  0  0  0  0  0  0  0  0
  -29.2488  -26.3491   20.6697 C   0  0  0  0  0  0  0  0  0  0  0  0
  -14.5932  -22.1546   27.1455 C   0  0  0  0  0  0  0  0  0  0  0  0
  -16.5689  -26.4163   22.6339 C   0  0  0  0  0  0  0  0  0  0  0  0
  -18.8169  -25.4686   20.9626 C   0  0  0  0  0  0  0  0  0  0  0  0
  -14.8349  -21.7456   25.6948 C   0  0  0  0  0  0  0  0  0  0  0  0
  -31.9568  -24.0429   20.8286 C   0  0  0  0  0  0  0  0  0  0  0  0
  -16.3240  -21.7943   25.3675 C   0  0  0  0  0  0  0  0  0  0  0  0
  -31.3354  -22.7218   20.3698 C   0  0  0  0  0  0  0  0  0  0  0  0
  -30.9802  -24.8694   21.6635 C   0  0  0  0  0  0  0  0  0  0  0  0
  -29.0526  -23.7862   20.5772 C   0  0  0  0  0  0  0  0  0  0  0  0
  -16.8772  -23.2158   25.5250 C   0  0  1  0  0  0  0  0  0  0  0  0
  -16.6638  -24.9689   22.1613 C   0  0  1  0  0  0  0  0  0  0  0  0
  -29.9766  -22.9483   19.6784 C   0  0  2  0  0  0  0  0  0  0  0  0
  -17.7985  -24.8945   14.4990 C   0  0  0  0  0  0  0  0  0  0  0  0
  -19.0881  -21.6133   20.1063 C   0  0  0  0  0  0  0  0  0  0  0  0
  -19.5257  -21.9402   17.6629 C   0  0  0  0  0  0  0  0  0  0  0  0
  -17.2451  -21.3003   18.4451 C   0  0  0  0  0  0  0  0  0  0  0  0
  -16.7312  -27.8756   16.6085 C   0  0  0  0  0  0  0  0  0  0  0  0
  -24.0345  -30.4448   20.2229 C   0  0  0  0  0  0  0  0  0  0  0  0
  -23.1661  -30.3586   21.4799 C   0  0  0  0  0  0  0  0  0  0  0  0
  -22.3280  -29.0873   21.5488 C   0  0  0  0  0  0  0  0  0  1  0  0
  -18.0877  -23.6461   18.8683 C   0  0  1  0  0  0  0  0  0  0  0  0
  -17.2406  -25.5941   15.7286 C   0  0  2  0  0  0  0  0  0  0  0  0
  -18.4903  -22.1464   18.7890 C   0  0  0  0  0  0  0  0  0  0  0  0
  -29.5424  -20.5439   20.0130 N   0  0  0  0  0  0  0  0  0  0  0  0
  -29.3320  -21.6391   19.2630 N   0  0  0  0  0  0  0  0  0  0  0  0
  -17.4962  -24.8180   20.9661 N   0  0  0  0  0  0  0  0  0  0  0  0
  -29.7173  -25.0466   20.9434 N   0  0  0  0  0  0  0  0  0  0  0  0
  -28.2182  -22.4131   17.3212 N   0  0  0  0  0  0  0  0  0  0  0  0
  -27.1190  -18.0355   17.4776 N   0  0  0  0  0  0  0  0  0  0  0  0
  -28.0545  -26.3930   19.9511 N   0  0  0  0  0  0  0  0  0  0  0  0
  -16.5090  -24.0304   24.3868 N   0  0  0  0  0  0  0  0  0  0  0  0
  -17.4936  -24.1709   17.6435 N   0  0  0  0  0  0  0  0  0  0  0  0
  -17.2730  -27.0645   15.4880 N   0  3  0  0  0  0  0  0  0  0  0  0
  -26.8617  -19.9785   16.2870 O   0  0  0  0  0  0  0  0  0  0  0  0
  -18.2461  -23.4115   22.9648 O   0  0  0  0  0  0  0  0  0  0  0  0
  -15.9941  -23.3562   19.9449 O   0  0  0  0  0  0  0  0  0  0  0  0
  -19.0456  -25.8616   17.3121 O   0  0  0  0  0  0  0  0  0  0  0  0
  -29.8758  -27.3516   21.0215 O   0  0  0  0  0  0  0  0  0  0  0  0
  -28.7453  -14.3677   21.3424 O   0  0  0  0  0  0  0  0  0  0  0  0
  -21.5472  -29.1175   22.7429 O   0  0  0  0  0  0  0  0  0  1  0  0
  -29.4237  -10.2558   17.7318 F   0  0  0  0  0  0  0  0  0  0  0  0
  -30.8502  -12.5930   21.5929 F   0  0  0  0  0  0  0  0  0  0  0  0
  1  2  1  0  0  0  0
  1  5  2  0  0  0  0
  2  6  2  0  0  0  0
  3 10  2  0  0  0  0
  3 18  1  0  0  0  0
  4 11  1  0  0  0  0
  4 18  2  0  0  0  0
  5 21  1  0  0  0  0
  6 23  1  0  0  0  0
  7 12  2  0  0  0  0
  7 22  1  0  0  0  0
  8  9  2  0  0  0  0
  8 25  1  0  0  0  0
  9 26  1  0  0  0  0
 10 27  1  0  0  0  0
 11 27  2  0  0  0  0
 12 28  1  0  0  0  0
 13 14  2  0  0  0  0
 13 29  1  0  0  0  0
 14 30  1  0  0  0  0
 15 19  1  0  0  0  0
 15 26  2  0  0  0  0
 16 24  1  0  0  0  0
 16 28  2  0  0  0  0
 17 30  2  0  0  0  0
 17 31  1  0  0  0  0
 18 32  1  0  0  0  0
 19 25  2  0  0  0  0
 19 35  1  0  0  0  0
 20 32  1  0  0  0  0
 20 33  2  0  0  0  0
 20 36  1  0  0  0  0
 21 23  2  0  0  0  0
 21 41  1  0  0  0  0
 22 24  2  0  0  0  0
 22 42  1  0  0  0  0
 23 50  1  0  0  0  0
 24 43  1  0  0  0  0
 25 58  1  0  0  0  0
 26 70  1  0  0  0  0
 27 79  1  0  0  0  0
 28 80  1  0  0  0  0
 29 31  2  0  0  0  0
 29 79  1  0  0  0  0
 30 81  1  0  0  0  0
 31 82  1  0  0  0  0
 32 64  2  0  0  0  0
 33 65  1  0  0  0  0
 33 68  1  0  0  0  0
 34 35  2  0  0  0  0
 36 69  1  0  0  0  0
 36 74  2  0  0  0  0
 37 51  1  0  0  0  0
 37 71  1  0  0  0  0
 37 75  2  0  0  0  0
 38 61  1  0  0  0  0
 38 66  1  0  0  0  0
 38 76  2  0  0  0  0
 39 62  1  0  0  0  0
 39 72  1  0  0  0  0
 39 77  2  0  0  0  0
 40 67  1  0  0  0  0
 40 70  1  0  0  0  0
 40 78  2  0  0  0  0
 41 44  1  0  0  0  0
 42 51  1  0  0  0  0
 43 66  1  0  0  0  0
 44 46  1  0  0  0  0
 45 47  1  0  0  0  0
 45 48  1  0  0  0  0
 46 50  1  0  0  0  0
 47 52  1  0  0  0  0
 48 67  1  0  0  0  0
 49 52  1  0  0  0  0
 49 67  1  0  0  0  0
 50 71  1  0  0  0  0
 51 66  1  0  0  0  0
 52 65  1  0  0  0  0
 53 62  1  0  0  0  0
 54 63  1  0  0  0  0
 55 63  1  0  0  0  0
 56 63  1  0  0  0  0
 57 73  1  0  0  0  0
 58 59  1  0  0  0  0
 59 60  1  0  0  0  0
 60 80  1  0  0  0  0
 61 63  1  0  0  0  0
 61 72  1  0  0  0  0
 62 73  1  0  0  0  0
 64 65  1  0  0  0  0
M  CHG  1  73   1
M  ISO  4  40 100  60 101  70 100  80 101
M  END
> <Batch ID>
0127

> <Smiles>
C=Cc1cc([100NH:0][100C:0](=O)N2CCCC(n3nc(-c4ccc(Oc5ccc(F)cc5F)cc4)c(C(N)=O)c3N)C2)ccc1CC[101CH2:1][101O:1]c1ccc2c(c1)CN(C(=O)C(NC(=O)C(C)NC)C(C)(C)C)C(C(=O)NC1CCCc3ccccc31)C2

> <Shape>
0.244

> <Color>
0.073

> <Negative vol penalty>
0.000

$$$$

  -OEChem-04052302143D

 82 90  0     1  0  0  0  0  0999 V2000
  -24.9286  -27.3887   15.0671 C   0  0  0  0  0  0  0  0  0  0  0  0
  -24.9523  -26.6023   16.2144 C   0  0  0  0  0  0  0  0  0  0  0  0
  -24.2170   -9.5979   22.1634 C   0  0  0  0  0  0  0  0  0  0  0  0
  -24.1180   -9.0582   19.8106 C   0  0  0  0  0  0  0  0  0  0  0  0
  -25.2972  -28.7316   15.1361 C   0  0  0  0  0  0  0  0  0  0  0  0
  -25.3458  -27.1580   17.4313 C   0  0  0  0  0  0  0  0  0  0  0  0
  -22.2979  -25.8279   21.2505 C   0  0  0  0  0  0  0  0  0  0  0  0
  -27.3689  -23.5421   20.8125 C   0  0  0  0  0  0  0  0  0  0  0  0
  -26.6626  -23.1429   21.9471 C   0  0  0  0  0  0  0  0  0  0  0  0
  -23.1451   -8.7390   22.4056 C   0  0  0  0  0  0  0  0  0  0  0  0
  -23.0460   -8.1992   20.0527 C   0  0  0  0  0  0  0  0  0  0  0  0
  -22.4682  -24.5521   21.7863 C   0  0  0  0  0  0  0  0  0  0  0  0
  -22.6438   -5.4109   22.7302 C   0  0  0  0  0  0  0  0  0  0  0  0
  -22.7400   -4.5455   23.8198 C   0  0  0  0  0  0  0  0  0  0  0  0
  -27.6833  -21.2278   20.1940 C   0  0  0  0  0  0  0  0  0  0  0  0
  -23.7325  -25.4943   23.6120 C   0  0  0  0  0  0  0  0  0  0  0  0
  -20.7646   -5.5447   24.7876 C   0  0  0  0  0  0  0  0  0  0  0  0
  -24.7035   -9.7576   20.8659 C   0  0  0  0  0  0  0  0  0  0  0  0
  -26.9770  -20.8287   21.3287 C   0  0  0  0  0  0  0  0  0  0  0  0
  -27.1804  -10.3212   20.6314 C   0  0  0  0  0  0  0  0  0  0  0  0
  -25.6862  -29.3065   16.3563 C   0  0  0  0  0  0  0  0  0  0  0  0
  -22.8538  -26.9472   21.8866 C   0  0  0  0  0  0  0  0  0  0  0  0
  -25.7213  -28.5095   17.5164 C   0  0  0  0  0  0  0  0  0  0  0  0
  -23.5657  -26.7835   23.0835 C   0  0  0  0  0  0  0  0  0  0  0  0
  -27.8792  -22.5845   19.9358 C   0  0  0  0  0  0  0  0  0  0  0  0
  -26.4667  -21.7863   22.2053 C   0  0  0  0  0  0  0  0  0  0  0  0
  -22.5595   -8.0397   21.3503 C   0  0  0  0  0  0  0  0  0  0  0  0
  -23.1880  -24.3848   22.9657 C   0  0  0  0  0  0  0  0  0  0  0  0
  -21.6081   -6.3433   22.6692 C   0  0  0  0  0  0  0  0  0  0  0  0
  -21.8003   -4.6124   24.8486 C   0  0  0  0  0  0  0  0  0  0  0  0
  -20.6685   -6.4102   23.6979 C   0  0  0  0  0  0  0  0  0  0  0  0
  -25.8105  -10.6451   20.6149 C   0  0  0  0  0  0  0  0  0  0  0  0
  -27.8159  -11.5017   20.3329 C   0  0  0  0  0  0  0  0  0  0  0  0
  -26.7892  -19.4041   21.5712 C   0  0  0  0  0  0  0  0  0  0  0  0
  -26.1741  -18.5443   20.7341 C   0  0  0  0  0  0  0  0  0  0  0  0
  -27.8211   -9.0656   20.8929 C   0  0  0  0  0  0  0  0  0  0  0  0
  -26.0712  -17.1223   21.1190 C   0  0  0  0  0  0  0  0  0  0  0  0
  -25.0120  -29.1398   21.0875 C   0  0  0  0  0  0  0  0  0  0  0  0
  -24.1269  -30.4759   23.9077 C   0  0  0  0  0  0  0  0  0  0  0  0
  -22.7778  -30.0583   27.0145 C   0  0  0  0  0  0  0  0  0  0  0  0
  -26.1214  -30.7505   16.3723 C   0  0  0  0  0  0  0  0  0  0  0  0
  -22.6384  -28.3196   21.3101 C   0  0  0  0  0  0  0  0  0  0  0  0
  -24.1653  -27.9549   23.8161 C   0  0  0  0  0  0  0  0  0  0  0  0
  -26.1664  -31.3575   17.7722 C   0  0  0  0  0  0  0  0  0  0  0  0
  -27.2022  -15.6057   17.9801 C   0  0  0  0  0  0  0  0  0  0  0  0
  -26.8708  -30.4132   18.7412 C   0  0  0  0  0  0  0  0  0  0  0  0
  -27.0486  -14.1210   18.2993 C   0  0  0  0  0  0  0  0  0  0  0  0
  -26.1238  -16.4505   18.6569 C   0  0  0  0  0  0  0  0  0  0  0  0
  -25.8884  -14.7574   20.4508 C   0  0  0  0  0  0  0  0  0  0  0  0
  -26.1184  -29.0823   18.8596 C   0  0  1  0  0  0  0  0  0  0  0  0
  -23.6855  -29.3307   21.7669 C   0  0  1  0  0  0  0  0  0  0  0  0
  -26.9909  -13.8939   19.8182 C   0  0  1  0  0  0  0  0  0  0  0  0
  -28.6342  -23.0126   18.7230 C   0  0  0  0  0  0  0  0  0  0  0  0
  -22.2194  -31.3269   29.1065 C   0  0  0  0  0  0  0  0  0  0  0  0
  -27.0780  -30.4916   24.6830 C   0  0  0  0  0  0  0  0  0  0  0  0
  -26.3800  -30.8558   27.0596 C   0  0  0  0  0  0  0  0  0  0  0  0
  -25.8203  -32.5565   25.3226 C   0  0  0  0  0  0  0  0  0  0  0  0
  -19.8945  -29.4423   26.7572 C   0  0  0  0  0  0  0  0  0  0  0  0
  -25.7002  -21.3915   23.4423 C   0  0  0  0  0  0  0  0  0  0  0  0
  -24.2642  -20.9444   23.1606 C   0  0  0  0  0  0  0  0  0  0  0  0
  -23.3924  -22.0481   22.5731 C   0  0  0  0  0  0  0  0  0  1  0  0
  -24.5853  -30.3505   25.3406 C   0  0  1  0  0  0  0  0  0  0  0  0
  -21.7085  -30.8352   27.7611 C   0  0  2  0  0  0  0  0  0  0  0  0
  -25.9564  -31.0411   25.5869 C   0  0  0  0  0  0  0  0  0  0  0  0
  -25.5880  -11.9307   20.3289 N   0  0  0  0  0  0  0  0  0  0  0  0
  -26.8266  -12.4250   20.1629 N   0  0  0  0  0  0  0  0  0  0  0  0
  -26.0486  -16.1727   20.0991 N   0  0  0  0  0  0  0  0  0  0  0  0
  -23.9327  -29.2759   23.2092 N   0  0  0  0  0  0  0  0  0  0  0  0
  -29.1189  -11.8297   20.2021 N   0  0  0  0  0  0  0  0  0  0  0  0
  -27.0187   -7.9536   21.1826 N   0  0  0  0  0  0  0  0  0  0  0  0
  -24.9569  -29.2323   19.7098 N   0  0  0  0  0  0  0  0  0  0  0  0
  -23.4984  -30.8696   26.1638 N   0  0  0  0  0  0  0  0  0  0  0  0
  -20.5139  -29.9761   27.9975 N   0  3  0  0  0  0  0  0  0  0  0  0
  -29.0689   -8.9373   20.8866 O   0  0  0  0  0  0  0  0  0  0  0  0
  -26.0066  -16.8620   22.3218 O   0  0  0  0  0  0  0  0  0  0  0  0
  -26.0117  -28.9259   21.7632 O   0  0  0  0  0  0  0  0  0  0  0  0
  -23.9411  -31.5971   23.4282 O   0  0  0  0  0  0  0  0  0  0  0  0
  -22.9584  -28.8530   27.1732 O   0  0  0  0  0  0  0  0  0  0  0  0
  -21.5136   -7.2013   21.5863 O   0  0  0  0  0  0  0  0  0  0  0  0
  -23.3563  -23.1406   23.4905 O   0  0  0  0  0  0  0  0  0  1  0  0
  -21.8918   -3.7802   25.8942 F   0  0  0  0  0  0  0  0  0  0  0  0
  -19.6706   -7.3030   23.6443 F   0  0  0  0  0  0  0  0  0  0  0  0
  1  2  1  0  0  0  0
  1  5  2  0  0  0  0
  2  6  2  0  0  0  0
  3 10  2  0  0  0  0
  3 18  1  0  0  0  0
  4 11  1  0  0  0  0
  4 18  2  0  0  0  0
  5 21  1  0  0  0  0
  6 23  1  0  0  0  0
  7 12  2  0  0  0  0
  7 22  1  0  0  0  0
  8  9  2  0  0  0  0
  8 25  1  0  0  0  0
  9 26  1  0  0  0  0
 10 27  1  0  0  0  0
 11 27  2  0  0  0  0
 12 28  1  0  0  0  0
 13 14  2  0  0  0  0
 13 29  1  0  0  0  0
 14 30  1  0  0  0  0
 15 19  1  0  0  0  0
 15 25  2  0  0  0  0
 16 24  1  0  0  0  0
 16 28  2  0  0  0  0
 17 30  2  0  0  0  0
 17 31  1  0  0  0  0
 18 32  1  0  0  0  0
 19 26  2  0  0  0  0
 19 34  1  0  0  0  0
 20 32  1  0  0  0  0
 20 33  2  0  0  0  0
 20 36  1  0  0  0  0
 21 23  2  0  0  0  0
 21 41  1  0  0  0  0
 22 24  2  0  0  0  0
 22 42  1  0  0  0  0
 23 50  1  0  0  0  0
 24 43  1  0  0  0  0
 25 53  1  0  0  0  0
 26 59  1  0  0  0  0
 27 79  1  0  0  0  0
 28 80  1  0  0  0  0
 29 31  2  0  0  0  0
 29 79  1  0  0  0  0
 30 81  1  0  0  0  0
 31 82  1  0  0  0  0
 32 65  2  0  0  0  0
 33 66  1  0  0  0  0
 33 69  1  0  0  0  0
 34 35  2  0  0  0  0
 35 37  1  0  0  0  0
 36 70  1  0  0  0  0
 36 74  2  0  0  0  0
 37 67  1  0  0  0  0
 37 75  2  0  0  0  0
 38 51  1  0  0  0  0
 38 71  1  0  0  0  0
 38 76  2  0  0  0  0
 39 62  1  0  0  0  0
 39 68  1  0  0  0  0
 39 77  2  0  0  0  0
 40 63  1  0  0  0  0
 40 72  1  0  0  0  0
 40 78  2  0  0  0  0
 41 44  1  0  0  0  0
 42 51  1  0  0  0  0
 43 68  1  0  0  0  0
 44 46  1  0  0  0  0
 45 47  1  0  0  0  0
 45 48  1  0  0  0  0
 46 50  1  0  0  0  0
 47 52  1  0  0  0  0
 48 67  1  0  0  0  0
 49 52  1  0  0  0  0
 49 67  1  0  0  0  0
 50 71  1  0  0  0  0
 51 68  1  0  0  0  0
 52 66  1  0  0  0  0
 54 63  1  0  0  0  0
 55 64  1  0  0  0  0
 56 64  1  0  0  0  0
 57 64  1  0  0  0  0
 58 73  1  0  0  0  0
 59 60  1  0  0  0  0
 60 61  1  0  0  0  0
 61 80  1  0  0  0  0
 62 64  1  0  0  0  0
 62 72  1  0  0  0  0
 63 73  1  0  0  0  0
 65 66  1  0  0  0  0
M  CHG  1  73   1
M  ISO  4  35 100  37 100  61 101  80 101
M  END
> <Batch ID>
0127

> <Smiles>
CNC(C)C(=O)NC(C(=O)N1Cc2cc([101O:1][101CH2:1]CCc3ccc(C)cc3C=[100CH:0][100C:0](=O)N3CCCC(n4nc(-c5ccc(Oc6ccc(F)cc6F)cc5)c(C(N)=O)c4N)C3)ccc2CC1C(=O)NC1CCCc2ccccc21)C(C)(C)C

> <Shape>
0.208

> <Color>
0.097

> <Negative vol penalty>
0.000

$$$$

  -OEChem-04052302143D

 84 92  0     1  0  0  0  0  0999 V2000
  -30.1725  -34.9720   25.7620 C   0  0  0  0  0  0  0  0  0  0  0  0
  -30.4088  -33.8649   24.9534 C   0  0  0  0  0  0  0  0  0  0  0  0
  -25.0917   -8.3074   22.1810 C   0  0  0  0  0  0  0  0  0  0  0  0
  -24.7981   -8.0142   19.8009 C   0  0  0  0  0  0  0  0  0  0  0  0
  -26.7167  -18.5641   21.7872 C   0  0  0  0  0  0  0  0  0  0  0  0
  -27.5853  -17.4787   21.9019 C   0  0  0  0  0  0  0  0  0  0  0  0
  -28.9199  -35.1516   26.3474 C   0  0  0  0  0  0  0  0  0  0  0  0
  -29.3930  -32.9360   24.7307 C   0  0  0  0  0  0  0  0  0  0  0  0
  -26.9113  -28.4741   19.7058 C   0  0  0  0  0  0  0  0  0  0  0  0
  -23.8119   -7.7985   22.4016 C   0  0  0  0  0  0  0  0  0  0  0  0
  -23.5182   -7.5053   20.0215 C   0  0  0  0  0  0  0  0  0  0  0  0
  -26.5523  -27.1379   19.5341 C   0  0  0  0  0  0  0  0  0  0  0  0
  -22.3206   -4.7656   22.5043 C   0  0  0  0  0  0  0  0  0  0  0  0
  -22.1630   -3.8273   23.5243 C   0  0  0  0  0  0  0  0  0  0  0  0
  -28.2449  -19.6240   20.2449 C   0  0  0  0  0  0  0  0  0  0  0  0
  -24.4044  -27.5928   20.5334 C   0  0  0  0  0  0  0  0  0  0  0  0
  -20.6026   -5.2987   24.6366 C   0  0  0  0  0  0  0  0  0  0  0  0
  -25.5848   -8.4153   20.8806 C   0  0  0  0  0  0  0  0  0  0  0  0
  -27.0465  -19.6367   20.9587 C   0  0  0  0  0  0  0  0  0  0  0  0
  -28.7837  -17.4660   21.1881 C   0  0  0  0  0  0  0  0  0  0  0  0
  -28.1117   -8.2160   20.5925 C   0  0  0  0  0  0  0  0  0  0  0  0
  -27.8853  -34.2295   26.1239 C   0  0  0  0  0  0  0  0  0  0  0  0
  -26.0222  -29.3788   20.3035 C   0  0  0  0  0  0  0  0  0  0  0  0
  -28.1258  -33.1027   25.3147 C   0  0  0  0  0  0  0  0  0  0  0  0
  -24.7535  -28.9405   20.7092 C   0  0  0  0  0  0  0  0  0  0  0  0
  -29.1135  -18.5387   20.3597 C   0  0  0  0  0  0  0  0  0  0  0  0
  -23.0251   -7.3975   21.3218 C   0  0  0  0  0  0  0  0  0  0  0  0
  -25.2998  -26.6965   19.9505 C   0  0  0  0  0  0  0  0  0  0  0  0
  -21.6193   -5.9705   22.5505 C   0  0  0  0  0  0  0  0  0  0  0  0
  -21.3040   -4.0939   24.5904 C   0  0  0  0  0  0  0  0  0  0  0  0
  -20.7603   -6.2370   23.6167 C   0  0  0  0  0  0  0  0  0  0  0  0
  -26.9066   -8.9413   20.6521 C   0  0  0  0  0  0  0  0  0  0  0  0
  -29.0737   -9.1673   20.3558 C   0  0  0  0  0  0  0  0  0  0  0  0
  -26.1279  -20.7827   20.8381 C   0  0  0  0  0  0  0  0  0  0  0  0
  -26.4825  -21.9998   20.4029 C   0  0  0  0  0  0  0  0  0  0  0  0
  -29.6720  -16.3197   21.3260 C   0  0  0  0  0  0  0  0  0  0  0  0
  -28.3410   -6.8082   20.7381 C   0  0  0  0  0  0  0  0  0  0  0  0
  -25.4757  -23.0981   20.3272 C   0  0  0  0  0  0  0  0  0  0  0  0
  -29.1444  -14.9702   21.6111 C   0  0  0  0  0  0  0  0  0  0  0  0
  -26.0705  -31.1672   22.9309 C   0  0  0  0  0  0  0  0  0  0  0  0
  -23.2919  -32.3264   21.7233 C   0  0  0  0  0  0  0  0  0  0  0  0
  -20.5853  -31.8405   19.7021 C   0  0  0  0  0  0  0  0  0  0  0  0
  -26.5623  -34.4411   26.8165 C   0  0  0  0  0  0  0  0  0  0  0  0
  -26.4144  -30.8228   20.4572 C   0  0  0  0  0  0  0  0  0  0  0  0
  -23.7548  -29.8763   21.3379 C   0  0  0  0  0  0  0  0  0  0  0  0
  -25.4265  -33.6081   26.2277 C   0  0  0  0  0  0  0  0  0  0  0  0
  -29.7121  -13.4386   18.3303 C   0  0  0  0  0  0  0  0  0  0  0  0
  -25.8747  -32.1648   26.0210 C   0  0  0  0  0  0  0  0  0  0  0  0
  -29.1161  -12.0503   18.5472 C   0  0  0  0  0  0  0  0  0  0  0  0
  -28.9538  -14.5141   19.1067 C   0  0  0  0  0  0  0  0  0  0  0  0
  -28.2370  -12.8344   20.7816 C   0  0  0  0  0  0  0  0  0  0  0  0
  -27.0417  -32.0861   25.0293 C   0  0  1  0  0  0  0  0  0  0  0  0
  -25.6255  -31.5436   21.5460 C   0  0  1  0  0  0  0  0  0  0  0  0
  -29.0132  -11.7303   20.0469 C   0  0  1  0  0  0  0  0  0  0  0  0
  -30.3904  -18.5494   19.5839 C   0  0  0  0  0  0  0  0  0  0  0  0
  -18.4644  -32.9506   18.9494 C   0  0  0  0  0  0  0  0  0  0  0  0
  -21.9943  -31.6587   24.4029 C   0  0  0  0  0  0  0  0  0  0  0  0
  -19.7592  -31.8848   23.2979 C   0  0  0  0  0  0  0  0  0  0  0  0
  -21.2922  -33.8488   23.4207 C   0  0  0  0  0  0  0  0  0  0  0  0
  -21.4582  -31.8519   16.8743 C   0  0  0  0  0  0  0  0  0  0  0  0
  -25.9966  -24.4263   19.8201 C   0  0  0  0  0  0  0  0  0  1  0  0
  -21.8349  -31.9497   21.8425 C   0  0  1  0  0  0  0  0  0  0  0  0
  -19.9393  -32.7276   18.6533 C   0  0  2  0  0  0  0  0  0  0  0  0
  -21.2395  -32.3172   23.2309 C   0  0  0  0  0  0  0  0  0  0  0  0
  -27.0842  -10.2523   20.4682 N   0  0  0  0  0  0  0  0  0  0  0  0
  -30.9684  -16.4025   21.2079 N   0  0  0  0  0  0  0  0  0  0  0  0
  -28.4121  -10.3583   20.2908 N   0  0  0  0  0  0  0  0  0  0  0  0
  -28.8177  -14.1575   20.5269 N   0  0  0  0  0  0  0  0  0  0  0  0
  -24.1875  -31.2771   21.4724 N   0  0  0  0  0  0  0  0  0  0  0  0
  -30.4124   -9.0930   20.1991 N   0  0  0  0  0  0  0  0  0  0  0  0
  -27.2409   -5.9733   20.9774 N   0  0  0  0  0  0  0  0  0  0  0  0
  -26.5612  -32.2257   23.6713 N   0  0  0  0  0  0  0  0  0  0  0  0
  -21.1567  -32.5808   20.7155 N   0  0  0  0  0  0  0  0  0  0  0  0
  -20.0590  -32.1060   17.3041 N   0  3  0  0  0  0  0  0  0  0  0  0
  -29.4894   -6.3075   20.6746 O   0  0  0  0  0  0  0  0  0  0  0  0
  -24.3038  -22.9326   20.6546 O   0  0  0  0  0  0  0  0  0  0  0  0
  -29.0203  -14.6463   22.7936 O   0  0  0  0  0  0  0  0  0  0  0  0
  -25.9743  -30.0029   23.3009 O   0  0  0  0  0  0  0  0  0  0  0  0
  -23.6225  -33.5089   21.8411 O   0  0  0  0  0  0  0  0  0  0  0  0
  -20.5802  -30.6135   19.6316 O   0  0  0  0  0  0  0  0  0  0  0  0
  -21.7763   -6.9007   21.5367 O   0  0  0  0  0  0  0  0  0  0  0  0
  -24.9472  -25.3926   19.7847 O   0  0  0  0  0  0  0  0  0  1  0  0
  -21.1515   -3.1921   25.5691 F   0  0  0  0  0  0  0  0  0  0  0  0
  -20.0829   -7.3923   23.6659 F   0  0  0  0  0  0  0  0  0  0  0  0
  1  2  1  0  0  0  0
  1  7  2  0  0  0  0
  2  8  2  0  0  0  0
  3 10  2  0  0  0  0
  3 18  1  0  0  0  0
  4 11  1  0  0  0  0
  4 18  2  0  0  0  0
  5  6  2  0  0  0  0
  5 19  1  0  0  0  0
  6 20  1  0  0  0  0
  7 22  1  0  0  0  0
  8 24  1  0  0  0  0
  9 12  2  0  0  0  0
  9 23  1  0  0  0  0
 10 27  1  0  0  0  0
 11 27  2  0  0  0  0
 12 28  1  0  0  0  0
 13 14  2  0  0  0  0
 13 29  1  0  0  0  0
 14 30  1  0  0  0  0
 15 19  2  0  0  0  0
 15 26  1  0  0  0  0
 16 25  1  0  0  0  0
 16 28  2  0  0  0  0
 17 30  2  0  0  0  0
 17 31  1  0  0  0  0
 18 32  1  0  0  0  0
 19 34  1  0  0  0  0
 20 26  2  0  0  0  0
 20 36  1  0  0  0  0
 21 32  1  0  0  0  0
 21 33  2  0  0  0  0
 21 37  1  0  0  0  0
 22 24  2  0  0  0  0
 22 43  1  0  0  0  0
 23 25  2  0  0  0  0
 23 44  1  0  0  0  0
 24 52  1  0  0  0  0
 25 45  1  0  0  0  0
 26 55  1  0  0  0  0
 27 81  1  0  0  0  0
 28 82  1  0  0  0  0
 29 31  2  0  0  0  0
 29 81  1  0  0  0  0
 30 83  1  0  0  0  0
 31 84  1  0  0  0  0
 32 65  2  0  0  0  0
 33 67  1  0  0  0  0
 33 70  1  0  0  0  0
 34 35  2  0  0  0  0
 35 38  1  0  0  0  0
 36 39  1  0  0  0  0
 36 66  2  0  0  0  0
 37 71  1  0  0  0  0
 37 75  2  0  0  0  0
 38 61  1  0  0  0  0
 38 76  2  0  0  0  0
 39 68  1  0  0  0  0
 39 77  2  0  0  0  0
 40 53  1  0  0  0  0
 40 72  1  0  0  0  0
 40 78  2  0  0  0  0
 41 62  1  0  0  0  0
 41 69  1  0  0  0  0
 41 79  2  0  0  0  0
 42 63  1  0  0  0  0
 42 73  1  0  0  0  0
 42 80  2  0  0  0  0
 43 46  1  0  0  0  0
 44 53  1  0  0  0  0
 45 69  1  0  0  0  0
 46 48  1  0  0  0  0
 47 49  1  0  0  0  0
 47 50  1  0  0  0  0
 48 52  1  0  0  0  0
 49 54  1  0  0  0  0
 50 68  1  0  0  0  0
 51 54  1  0  0  0  0
 51 68  1  0  0  0  0
 52 72  1  0  0  0  0
 53 69  1  0  0  0  0
 54 67  1  0  0  0  0
 56 63  1  0  0  0  0
 57 64  1  0  0  0  0
 58 64  1  0  0  0  0
 59 64  1  0  0  0  0
 60 74  1  0  0  0  0
 61 82  1  0  0  0  0
 62 64  1  0  0  0  0
 62 73  1  0  0  0  0
 63 74  1  0  0  0  0
 65 67  1  0  0  0  0
M  CHG  1  74   1
M  ISO  4  36 100  39 100  61 101  82 101
M  END
> <Batch ID>
0127

> <Smiles>
CNC(C)C(=O)NC(C(=O)N1Cc2cc([101O:1][101CH2:1]C(=O)C=Cc3ccc([100C:0](=N)[100C:0](=O)N4CCCC(n5nc(-c6ccc(Oc7ccc(F)cc7F)cc6)c(C(N)=O)c5N)C4)c(C)c3)ccc2CC1C(=O)NC1CCCc2ccccc21)C(C)(C)C

> <Shape>
0.260

> <Color>
0.089

> <Negative vol penalty>
0.000

$$$$

  -OEChem-04052302143D

 83 91  0     1  0  0  0  0  0999 V2000
  -29.9190  -26.4544   16.6693 C   0  0  0  0  0  0  0  0  0  0  0  0
  -28.5514  -26.7076   16.6366 C   0  0  0  0  0  0  0  0  0  0  0  0
  -24.2666  -14.4006   19.5731 C   0  0  0  0  0  0  0  0  0  0  0  0
  -23.5035  -13.4443   21.6565 C   0  0  0  0  0  0  0  0  0  0  0  0
  -20.0817  -25.5038   23.5455 C   0  0  0  0  0  0  0  0  0  0  0  0
  -30.6233  -26.5892   17.8650 C   0  0  0  0  0  0  0  0  0  0  0  0
  -27.8871  -27.0946   17.7999 C   0  0  0  0  0  0  0  0  0  0  0  0
  -23.1711  -30.9783   18.2276 C   0  0  0  0  0  0  0  0  0  0  0  0
  -25.2586  -13.4238   19.4881 C   0  0  0  0  0  0  0  0  0  0  0  0
  -24.4955  -12.4674   21.5714 C   0  0  0  0  0  0  0  0  0  0  0  0
  -21.7958  -30.7757   18.3331 C   0  0  0  0  0  0  0  0  0  0  0  0
  -28.2962  -12.8341   20.8479 C   0  0  0  0  0  0  0  0  0  0  0  0
  -19.9199  -26.7519   24.1468 C   0  0  0  0  0  0  0  0  0  0  0  0
  -29.5814  -13.2457   20.4953 C   0  0  0  0  0  0  0  0  0  0  0  0
  -21.9543  -30.9898   20.7307 C   0  0  0  0  0  0  0  0  0  0  0  0
  -29.5082  -11.8103   18.5532 C   0  0  0  0  0  0  0  0  0  0  0  0
  -23.3890  -14.4109   20.6574 C   0  0  0  0  0  0  0  0  0  0  0  0
  -19.4073  -25.2076   22.3609 C   0  0  0  0  0  0  0  0  0  0  0  0
  -21.0549  -15.3494   20.2342 C   0  0  0  0  0  0  0  0  0  0  0  0
  -29.9691  -26.9875   19.0415 C   0  0  0  0  0  0  0  0  0  0  0  0
  -23.9513  -31.1776   19.3756 C   0  0  0  0  0  0  0  0  0  0  0  0
  -28.5831  -27.2336   19.0128 C   0  0  0  0  0  0  0  0  0  0  0  0
  -23.3389  -31.1972   20.6368 C   0  0  0  0  0  0  0  0  0  0  0  0
  -18.5710  -26.1595   21.7778 C   0  0  0  0  0  0  0  0  0  0  0  0
  -18.4091  -27.4076   22.3791 C   0  0  0  0  0  0  0  0  0  0  0  0
  -25.3730  -12.4571   20.4872 C   0  0  0  0  0  0  0  0  0  0  0  0
  -21.1876  -30.7785   19.5850 C   0  0  0  0  0  0  0  0  0  0  0  0
  -27.6170  -11.9106   20.0533 C   0  0  0  0  0  0  0  0  0  0  0  0
  -30.1874  -12.7338   19.3479 C   0  0  0  0  0  0  0  0  0  0  0  0
  -19.0836  -27.7038   23.5637 C   0  0  0  0  0  0  0  0  0  0  0  0
  -28.2229  -11.3988   18.9059 C   0  0  0  0  0  0  0  0  0  0  0  0
  -22.3644  -15.4201   20.7461 C   0  0  0  0  0  0  0  0  0  0  0  0
  -20.4863  -16.5513   20.5786 C   0  0  0  0  0  0  0  0  0  0  0  0
  -19.6010  -23.8947   21.7592 C   0  0  0  0  0  0  0  0  0  0  0  0
  -20.7845  -23.3853   21.3614 C   0  0  0  0  0  0  0  0  0  0  0  0
  -20.4102  -14.2918   19.5121 C   0  0  0  0  0  0  0  0  0  0  0  0
  -20.8188  -22.0299   20.7760 C   0  0  0  0  0  0  0  0  0  0  0  0
  -26.3632  -29.6255   20.7459 C   0  0  0  0  0  0  0  0  0  0  0  0
  -26.3857  -32.1990   22.7205 C   0  0  0  0  0  0  0  0  0  0  0  0
  -24.6747  -34.8150   24.0901 C   0  0  0  0  0  0  0  0  0  0  0  0
  -30.7638  -27.0738   20.3204 C   0  0  0  0  0  0  0  0  0  0  0  0
  -25.4296  -31.4214   19.2428 C   0  0  0  0  0  0  0  0  0  0  0  0
  -24.1288  -31.4271   21.8984 C   0  0  0  0  0  0  0  0  0  0  0  0
  -30.0551  -27.8512   21.4266 C   0  0  0  0  0  0  0  0  0  0  0  0
  -22.0761  -20.1908   23.6861 C   0  0  0  0  0  0  0  0  0  0  0  0
  -28.6014  -27.4046   21.5458 C   0  0  0  0  0  0  0  0  0  0  0  0
  -22.1986  -18.7817   23.1124 C   0  0  0  0  0  0  0  0  0  0  0  0
  -22.3835  -21.2623   22.6411 C   0  0  0  0  0  0  0  0  0  0  0  0
  -21.6900  -19.7253   20.8253 C   0  0  0  0  0  0  0  0  0  0  0  0
  -27.8316  -27.6795   20.2484 C   0  0  1  0  0  0  0  0  0  0  0  0
  -26.2047  -31.1021   20.5174 C   0  0  1  0  0  0  0  0  0  0  0  0
  -21.3392  -18.6325   21.8471 C   0  0  1  0  0  0  0  0  0  0  0  0
  -17.8422  -25.8529   20.5061 C   0  0  0  0  0  0  0  0  0  0  0  0
  -24.9481  -36.7215   25.6988 C   0  0  0  0  0  0  0  0  0  0  0  0
  -26.1997  -30.2488   25.0597 C   0  0  0  0  0  0  0  0  0  0  0  0
  -25.5268  -32.1699   26.5173 C   0  0  0  0  0  0  0  0  0  0  0  0
  -27.7671  -32.1639   25.4203 C   0  0  0  0  0  0  0  0  0  0  0  0
  -24.1039  -36.8209   21.9902 C   0  0  0  0  0  0  0  0  0  0  0  0
  -17.5098  -28.4525   21.7683 C   0  0  0  0  0  0  0  0  0  0  0  0
  -18.1187  -29.1548   20.5528 C   0  0  0  0  0  0  0  0  0  0  0  0
  -19.3733  -29.9549   20.8835 C   0  0  0  0  0  0  0  0  0  1  0  0
  -25.7011  -32.5576   24.0173 C   0  0  1  0  0  0  0  0  0  0  0  0
  -25.0327  -36.2820   24.2454 C   0  0  2  0  0  0  0  0  0  0  0  0
  -26.2838  -31.7788   25.2302 C   0  0  0  0  0  0  0  0  0  0  0  0
  -22.6132  -16.5756   21.3682 N   0  0  0  0  0  0  0  0  0  0  0  0
  -21.4522  -17.2421   21.2494 N   0  0  0  0  0  0  0  0  0  0  0  0
  -21.5917  -21.0639   21.4178 N   0  0  0  0  0  0  0  0  0  0  0  0
  -25.5720  -31.6544   21.7170 N   0  0  0  0  0  0  0  0  0  0  0  0
  -19.2593  -17.0740   20.3700 N   0  0  0  0  0  0  0  0  0  0  0  0
  -21.1392  -13.1254   19.2429 N   0  0  0  0  0  0  0  0  0  0  0  0
  -27.4866  -29.0818   20.1529 N   0  0  0  0  0  0  0  0  0  0  0  0
  -25.7921  -34.0086   24.1393 N   0  0  0  0  0  0  0  0  0  0  0  0
  -24.1053  -37.1292   23.4435 N   0  3  0  0  0  0  0  0  0  0  0  0
  -19.2281  -14.3851   19.1030 O   0  0  0  0  0  0  0  0  0  0  0  0
  -20.1637  -21.8369   19.7502 O   0  0  0  0  0  0  0  0  0  0  0  0
  -25.5288  -29.0243   21.4123 O   0  0  0  0  0  0  0  0  0  0  0  0
  -27.5965  -32.4016   22.5998 O   0  0  0  0  0  0  0  0  0  0  0  0
  -23.5190  -34.4232   23.9439 O   0  0  0  0  0  0  0  0  0  0  0  0
  -26.3407  -11.5036   20.4043 O   0  0  0  0  0  0  0  0  0  0  0  0
  -19.8454  -30.5803   19.6909 O   0  0  0  0  0  0  0  0  0  1  0  0
  -31.4210  -13.1303   19.0085 F   0  0  0  0  0  0  0  0  0  0  0  0
  -18.9331  -28.8994   24.1510 F   0  0  0  0  0  0  0  0  0  0  0  0
  -27.5749  -10.5122   18.1379 F   0  0  0  0  0  0  0  0  0  0  0  0
  1  2  1  0  0  0  0
  1  6  2  0  0  0  0
  2  7  2  0  0  0  0
  3  9  2  0  0  0  0
  3 17  1  0  0  0  0
  4 10  1  0  0  0  0
  4 17  2  0  0  0  0
  5 13  1  0  0  0  0
  5 18  2  0  0  0  0
  6 20  1  0  0  0  0
  7 22  1  0  0  0  0
  8 11  2  0  0  0  0
  8 21  1  0  0  0  0
  9 26  1  0  0  0  0
 10 26  2  0  0  0  0
 11 27  1  0  0  0  0
 12 14  2  0  0  0  0
 12 28  1  0  0  0  0
 13 30  2  0  0  0  0
 14 29  1  0  0  0  0
 15 23  1  0  0  0  0
 15 27  2  0  0  0  0
 16 29  2  0  0  0  0
 16 31  1  0  0  0  0
 17 32  1  0  0  0  0
 18 24  1  0  0  0  0
 18 34  1  0  0  0  0
 19 32  1  0  0  0  0
 19 33  2  0  0  0  0
 19 36  1  0  0  0  0
 20 22  2  0  0  0  0
 20 41  1  0  0  0  0
 21 23  2  0  0  0  0
 21 42  1  0  0  0  0
 22 50  1  0  0  0  0
 23 43  1  0  0  0  0
 24 25  2  0  0  0  0
 24 53  1  0  0  0  0
 25 30  1  0  0  0  0
 25 59  1  0  0  0  0
 26 79  1  0  0  0  0
 27 80  1  0  0  0  0
 28 31  2  0  0  0  0
 28 79  1  0  0  0  0
 29 81  1  0  0  0  0
 30 82  1  0  0  0  0
 31 83  1  0  0  0  0
 32 65  2  0  0  0  0
 33 66  1  0  0  0  0
 33 69  1  0  0  0  0
 34 35  2  0  0  0  0
 35 37  1  0  0  0  0
 36 70  1  0  0  0  0
 36 74  2  0  0  0  0
 37 67  1  0  0  0  0
 37 75  2  0  0  0  0
 38 51  1  0  0  0  0
 38 71  1  0  0  0  0
 38 76  2  0  0  0  0
 39 62  1  0  0  0  0
 39 68  1  0  0  0  0
 39 77  2  0  0  0  0
 40 63  1  0  0  0  0
 40 72  1  0  0  0  0
 40 78  2  0  0  0  0
 41 44  1  0  0  0  0
 42 51  1  0  0  0  0
 43 68  1  0  0  0  0
 44 46  1  0  0  0  0
 45 47  1  0  0  0  0
 45 48  1  0  0  0  0
 46 50  1  0  0  0  0
 47 52  1  0  0  0  0
 48 67  1  0  0  0  0
 49 52  1  0  0  0  0
 49 67  1  0  0  0  0
 50 71  1  0  0  0  0
 51 68  1  0  0  0  0
 52 66  1  0  0  0  0
 54 63  1  0  0  0  0
 55 64  1  0  0  0  0
 56 64  1  0  0  0  0
 57 64  1  0  0  0  0
 58 73  1  0  0  0  0
 59 60  1  0  0  0  0
 60 61  1  0  0  0  0
 61 80  1  0  0  0  0
 62 64  1  0  0  0  0
 62 72  1  0  0  0  0
 63 73  1  0  0  0  0
 65 66  1  0  0  0  0
M  CHG  1  73   1
M  ISO  4  35 100  37 100  61 101  80 101
M  END
> <Batch ID>
0127

> <Smiles>
CNC(C)C(=O)NC(C(=O)N1Cc2cc([101O:1][101CH2:1]CCc3c(F)ccc(C=[100CH:0][100C:0](=O)N4CCCC(n5nc(-c6ccc(Oc7ccc(F)cc7F)cc6)c(C(N)=O)c5N)C4)c3C)ccc2CC1C(=O)NC1CCCc2ccccc21)C(C)(C)C

> <Shape>
0.300

> <Color>
0.084

> <Negative vol penalty>
0.000

$$$$

  -OEChem-04052302143D

 82 90  0     1  0  0  0  0  0999 V2000
  -17.3115  -27.3862   19.6433 C   0  0  0  0  0  0  0  0  0  0  0  0
  -18.5628  -27.7709   19.1726 C   0  0  0  0  0  0  0  0  0  0  0  0
  -25.1042  -14.3268   19.5346 C   0  0  0  0  0  0  0  0  0  0  0  0
  -25.3151  -13.6825   21.8535 C   0  0  0  0  0  0  0  0  0  0  0  0
  -31.8724  -24.8222   20.3851 C   0  0  0  0  0  0  0  0  0  0  0  0
  -17.0661  -27.3462   21.0152 C   0  0  0  0  0  0  0  0  0  0  0  0
  -19.5692  -28.1169   20.0736 C   0  0  0  0  0  0  0  0  0  0  0  0
  -25.5764  -27.1003   19.4518 C   0  0  0  0  0  0  0  0  0  0  0  0
  -25.0270  -12.9831   19.1682 C   0  0  0  0  0  0  0  0  0  0  0  0
  -25.2379  -12.3388   21.4872 C   0  0  0  0  0  0  0  0  0  0  0  0
  -26.6266  -27.9141   19.0294 C   0  0  0  0  0  0  0  0  0  0  0  0
  -24.7340   -8.7497   21.1990 C   0  0  0  0  0  0  0  0  0  0  0  0
  -23.9069   -7.9176   21.9534 C   0  0  0  0  0  0  0  0  0  0  0  0
  -32.8670  -25.8000   20.4040 C   0  0  0  0  0  0  0  0  0  0  0  0
  -30.4027  -26.3398   19.2129 C   0  0  0  0  0  0  0  0  0  0  0  0
  -27.1378  -28.4374   21.3281 C   0  0  0  0  0  0  0  0  0  0  0  0
  -22.0037   -9.2922   21.3829 C   0  0  0  0  0  0  0  0  0  0  0  0
  -25.2483  -14.6765   20.8772 C   0  0  0  0  0  0  0  0  0  0  0  0
  -30.6402  -25.0921   19.7895 C   0  0  0  0  0  0  0  0  0  0  0  0
  -24.2600  -16.9174   21.5907 C   0  0  0  0  0  0  0  0  0  0  0  0
  -18.0729  -27.6826   21.9337 C   0  0  0  0  0  0  0  0  0  0  0  0
  -25.2916  -26.9573   20.8174 C   0  0  0  0  0  0  0  0  0  0  0  0
  -19.3367  -28.0827   21.4590 C   0  0  0  0  0  0  0  0  0  0  0  0
  -26.0850  -27.6192   21.7654 C   0  0  0  0  0  0  0  0  0  0  0  0
  -31.3974  -27.3176   19.2318 C   0  0  0  0  0  0  0  0  0  0  0  0
  -25.0938  -11.9891   20.1445 C   0  0  0  0  0  0  0  0  0  0  0  0
  -27.4057  -28.5851   19.9674 C   0  0  0  0  0  0  0  0  0  0  0  0
  -24.1960   -9.8532   20.5366 C   0  0  0  0  0  0  0  0  0  0  0  0
  -22.5418   -8.1888   22.0453 C   0  0  0  0  0  0  0  0  0  0  0  0
  -22.8308  -10.1243   20.6285 C   0  0  0  0  0  0  0  0  0  0  0  0
  -32.6295  -27.0477   19.8274 C   0  0  0  0  0  0  0  0  0  0  0  0
  -25.3287  -16.0643   21.2562 C   0  0  0  0  0  0  0  0  0  0  0  0
  -24.8573  -18.1219   21.8719 C   0  0  0  0  0  0  0  0  0  0  0  0
  -29.6035  -24.0720   19.7691 C   0  0  0  0  0  0  0  0  0  0  0  0
  -29.5430  -23.0005   20.5881 C   0  0  0  0  0  0  0  0  0  0  0  0
  -22.8532  -16.6455   21.6426 C   0  0  0  0  0  0  0  0  0  0  0  0
  -28.4169  -22.0553   20.4497 C   0  0  0  0  0  0  0  0  0  0  0  0
  -22.7974  -27.6264   22.6707 C   0  0  0  0  0  0  0  0  0  0  0  0
  -24.5593  -26.1008   24.9269 C   0  0  0  0  0  0  0  0  0  0  0  0
  -27.6376  -25.1142   26.0212 C   0  0  0  0  0  0  0  0  0  0  0  0
  -17.7461  -27.6699   23.4060 C   0  0  0  0  0  0  0  0  0  0  0  0
  -24.1720  -26.0546   21.2580 C   0  0  0  0  0  0  0  0  0  0  0  0
  -25.8333  -27.4830   23.2441 C   0  0  0  0  0  0  0  0  0  0  0  0
  -18.9803  -27.6909   24.3041 C   0  0  0  0  0  0  0  0  0  0  0  0
  -29.7078  -19.3316   22.5346 C   0  0  0  0  0  0  0  0  0  0  0  0
  -19.9707  -28.7479   23.8258 C   0  0  0  0  0  0  0  0  0  0  0  0
  -28.6057  -18.2884   22.3704 C   0  0  0  0  0  0  0  0  0  0  0  0
  -29.9121  -20.1526   21.2622 C   0  0  0  0  0  0  0  0  0  0  0  0
  -27.5601  -19.7493   20.5948 C   0  0  0  0  0  0  0  0  0  0  0  0
  -20.4615  -28.4415   22.4057 C   0  0  1  0  0  0  0  0  0  0  0  0
  -23.6486  -26.3883   22.6515 C   0  0  1  0  0  0  0  0  0  0  0  0
  -27.3054  -18.9433   21.8781 C   0  0  1  0  0  0  0  0  0  0  0  0
  -28.7637  -23.9170   27.9176 C   0  0  0  0  0  0  0  0  0  0  0  0
  -24.2109  -28.5679   26.6881 C   0  0  0  0  0  0  0  0  0  0  0  0
  -26.0907  -27.7299   28.1137 C   0  0  0  0  0  0  0  0  0  0  0  0
  -23.9999  -26.3872   27.8940 C   0  0  0  0  0  0  0  0  0  0  0  0
  -28.6913  -23.0135   24.2224 C   0  0  0  0  0  0  0  0  0  0  0  0
  -31.0952  -28.6509   18.5958 C   0  0  0  0  0  0  0  0  0  0  0  0
  -30.7993  -29.7621   19.6054 C   0  0  0  0  0  0  0  0  0  0  0  0
  -29.5481  -29.5046   20.4371 C   0  0  0  0  0  0  0  0  0  1  0  0
  -25.5971  -26.5227   25.9388 C   0  0  1  0  0  0  0  0  0  0  0  0
  -28.1433  -23.7786   26.5360 C   0  0  2  0  0  0  0  0  0  0  0  0
  -24.9784  -27.3062   27.1308 C   0  0  0  0  0  0  0  0  0  0  0  0
  -26.5149  -16.6750   21.3185 N   0  0  0  0  0  0  0  0  0  0  0  0
  -26.1952  -17.9247   21.6953 N   0  0  0  0  0  0  0  0  0  0  0  0
  -28.6446  -20.7202   20.7786 N   0  0  0  0  0  0  0  0  0  0  0  0
  -24.7232  -26.5939   23.6247 N   0  0  0  0  0  0  0  0  0  0  0  0
  -24.3632  -19.3198   22.2504 N   0  0  0  0  0  0  0  0  0  0  0  0
  -22.4100  -15.3547   21.3235 N   0  0  0  0  0  0  0  0  0  0  0  0
  -21.4570  -27.3913   22.4306 N   0  0  0  0  0  0  0  0  0  0  0  0
  -26.3070  -25.3084   26.3261 N   0  0  0  0  0  0  0  0  0  0  0  0
  -29.1724  -23.2234   25.6122 N   0  3  0  0  0  0  0  0  0  0  0  0
  -22.0127  -17.5256   21.9466 O   0  0  0  0  0  0  0  0  0  0  0  0
  -27.3431  -22.5054   20.0459 O   0  0  0  0  0  0  0  0  0  0  0  0
  -23.3178  -28.7141   22.8888 O   0  0  0  0  0  0  0  0  0  0  0  0
  -23.6412  -25.3552   25.2772 O   0  0  0  0  0  0  0  0  0  0  0  0
  -28.3526  -25.9075   25.4130 O   0  0  0  0  0  0  0  0  0  0  0  0
  -25.0183  -10.6779   19.7874 O   0  0  0  0  0  0  0  0  0  0  0  0
  -28.4310  -29.3806   19.5578 O   0  0  0  0  0  0  0  0  0  1  0  0
  -21.7474   -7.3887   22.7685 F   0  0  0  0  0  0  0  0  0  0  0  0
  -22.3080  -11.1822   19.9935 F   0  0  0  0  0  0  0  0  0  0  0  0
  -34.0099  -28.3469   19.8839 Br  0  0  0  0  0  0  0  0  0  0  0  0
  1  2  1  0  0  0  0
  1  6  2  0  0  0  0
  2  7  2  0  0  0  0
  3  9  2  0  0  0  0
  3 18  1  0  0  0  0
  4 10  1  0  0  0  0
  4 18  2  0  0  0  0
  5 14  2  0  0  0  0
  5 19  1  0  0  0  0
  6 21  1  0  0  0  0
  7 23  1  0  0  0  0
  8 11  2  0  0  0  0
  8 22  1  0  0  0  0
  9 26  1  0  0  0  0
 10 26  2  0  0  0  0
 11 27  1  0  0  0  0
 12 13  2  0  0  0  0
 12 28  1  0  0  0  0
 13 29  1  0  0  0  0
 14 31  1  0  0  0  0
 15 19  2  0  0  0  0
 15 25  1  0  0  0  0
 16 24  1  0  0  0  0
 16 27  2  0  0  0  0
 17 29  2  0  0  0  0
 17 30  1  0  0  0  0
 18 32  1  0  0  0  0
 19 34  1  0  0  0  0
 20 32  1  0  0  0  0
 20 33  2  0  0  0  0
 20 36  1  0  0  0  0
 21 23  2  0  0  0  0
 21 41  1  0  0  0  0
 22 24  2  0  0  0  0
 22 42  1  0  0  0  0
 23 50  1  0  0  0  0
 24 43  1  0  0  0  0
 25 31  2  0  0  0  0
 25 58  1  0  0  0  0
 26 78  1  0  0  0  0
 27 79  1  0  0  0  0
 28 30  2  0  0  0  0
 28 78  1  0  0  0  0
 29 80  1  0  0  0  0
 30 81  1  0  0  0  0
 31 82  1  0  0  0  0
 32 64  2  0  0  0  0
 33 65  1  0  0  0  0
 33 68  1  0  0  0  0
 34 35  2  0  0  0  0
 35 37  1  0  0  0  0
 36 69  1  0  0  0  0
 36 73  2  0  0  0  0
 37 66  1  0  0  0  0
 37 74  2  0  0  0  0
 38 51  1  0  0  0  0
 38 70  1  0  0  0  0
 38 75  2  0  0  0  0
 39 61  1  0  0  0  0
 39 67  1  0  0  0  0
 39 76  2  0  0  0  0
 40 62  1  0  0  0  0
 40 71  1  0  0  0  0
 40 77  2  0  0  0  0
 41 44  1  0  0  0  0
 42 51  1  0  0  0  0
 43 67  1  0  0  0  0
 44 46  1  0  0  0  0
 45 47  1  0  0  0  0
 45 48  1  0  0  0  0
 46 50  1  0  0  0  0
 47 52  1  0  0  0  0
 48 66  1  0  0  0  0
 49 52  1  0  0  0  0
 49 66  1  0  0  0  0
 50 70  1  0  0  0  0
 51 67  1  0  0  0  0
 52 65  1  0  0  0  0
 53 62  1  0  0  0  0
 54 63  1  0  0  0  0
 55 63  1  0  0  0  0
 56 63  1  0  0  0  0
 57 72  1  0  0  0  0
 58 59  1  0  0  0  0
 59 60  1  0  0  0  0
 60 79  1  0  0  0  0
 61 63  1  0  0  0  0
 61 71  1  0  0  0  0
 62 72  1  0  0  0  0
 64 65  1  0  0  0  0
M  CHG  1  72   1
M  ISO  4  35 100  37 100  60 101  79 101
M  END
> <Batch ID>
0127

> <Smiles>
CNC(C)C(=O)NC(C(=O)N1Cc2cc([101O:1][101CH2:1]CCc3cc(C=[100CH:0][100C:0](=O)N4CCCC(n5nc(-c6ccc(Oc7ccc(F)cc7F)cc6)c(C(N)=O)c5N)C4)ccc3Br)ccc2CC1C(=O)NC1CCCc2ccccc21)C(C)(C)C

> <Shape>
0.219

> <Color>
0.078

> <Negative vol penalty>
0.000

$$$$

  -OEChem-04052302143D

 82 90  0     1  0  0  0  0  0999 V2000
  -17.7174  -32.4134   23.5391 C   0  0  0  0  0  0  0  0  0  0  0  0
  -18.9627  -32.7333   23.0077 C   0  0  0  0  0  0  0  0  0  0  0  0
  -24.9021  -11.6857   21.5710 C   0  0  0  0  0  0  0  0  0  0  0  0
  -22.9371  -12.4365   20.3825 C   0  0  0  0  0  0  0  0  0  0  0  0
  -31.5130  -22.7644   20.7539 C   0  0  0  0  0  0  0  0  0  0  0  0
  -17.5280  -31.1902   24.1807 C   0  0  0  0  0  0  0  0  0  0  0  0
  -20.0196  -31.8305   23.1186 C   0  0  0  0  0  0  0  0  0  0  0  0
  -25.8512  -29.6029   19.6049 C   0  0  0  0  0  0  0  0  0  0  0  0
  -31.8842  -24.0974   20.9297 C   0  0  0  0  0  0  0  0  0  0  0  0
  -24.1382  -10.7171   22.2220 C   0  0  0  0  0  0  0  0  0  0  0  0
  -22.1733  -11.4677   21.0334 C   0  0  0  0  0  0  0  0  0  0  0  0
  -27.2172  -29.4052   19.8015 C   0  0  0  0  0  0  0  0  0  0  0  0
  -22.7775   -7.8101   23.9288 C   0  0  0  0  0  0  0  0  0  0  0  0
  -23.3049   -6.5221   24.0205 C   0  0  0  0  0  0  0  0  0  0  0  0
  -26.7522  -27.2887   20.8614 C   0  0  0  0  0  0  0  0  0  0  0  0
  -29.9699  -24.8011   19.6346 C   0  0  0  0  0  0  0  0  0  0  0  0
  -23.3800   -6.3811   21.6098 C   0  0  0  0  0  0  0  0  0  0  0  0
  -24.3015  -12.5455   20.6513 C   0  0  0  0  0  0  0  0  0  0  0  0
  -30.3703  -22.4497   20.0184 C   0  0  0  0  0  0  0  0  0  0  0  0
  -25.7761  -13.4095   18.7574 C   0  0  0  0  0  0  0  0  0  0  0  0
  -18.5805  -30.2679   24.2911 C   0  0  0  0  0  0  0  0  0  0  0  0
  -24.9232  -28.6484   20.0455 C   0  0  0  0  0  0  0  0  0  0  0  0
  -19.8444  -30.5943   23.7636 C   0  0  0  0  0  0  0  0  0  0  0  0
  -25.3751  -27.4754   20.6668 C   0  0  0  0  0  0  0  0  0  0  0  0
  -31.1126  -25.1158   20.3700 C   0  0  0  0  0  0  0  0  0  0  0  0
  -29.5988  -23.4681   19.4588 C   0  0  0  0  0  0  0  0  0  0  0  0
  -22.7739  -10.6080   21.9532 C   0  0  0  0  0  0  0  0  0  0  0  0
  -27.6678  -28.2493   20.4324 C   0  0  0  0  0  0  0  0  0  0  0  0
  -22.5512   -8.3836   22.6775 C   0  0  0  0  0  0  0  0  0  0  0  0
  -23.6062   -5.8076   22.8611 C   0  0  0  0  0  0  0  0  0  0  0  0
  -22.8525   -7.6691   21.5180 C   0  0  0  0  0  0  0  0  0  0  0  0
  -25.0899  -13.5468   19.9789 C   0  0  0  0  0  0  0  0  0  0  0  0
  -26.3652  -14.6337   18.5551 C   0  0  0  0  0  0  0  0  0  0  0  0
  -30.0094  -21.0479   19.8526 C   0  0  0  0  0  0  0  0  0  0  0  0
  -29.7113  -20.1947   20.8536 C   0  0  0  0  0  0  0  0  0  0  0  0
  -25.8724  -12.2768   17.8837 C   0  0  0  0  0  0  0  0  0  0  0  0
  -29.3536  -18.8008   20.5222 C   0  0  0  0  0  0  0  0  0  0  0  0
  -22.5295  -28.6457   22.1369 C   0  0  0  0  0  0  0  0  0  0  0  0
  -22.0167  -25.6683   20.9561 C   0  0  0  0  0  0  0  0  0  0  0  0
  -23.2849  -22.9158   19.3868 C   0  0  0  0  0  0  0  0  0  0  0  0
  -18.3405  -28.9781   25.0351 C   0  0  0  0  0  0  0  0  0  0  0  0
  -23.4547  -28.8641   19.8019 C   0  0  0  0  0  0  0  0  0  0  0  0
  -24.4210  -26.4106   21.1403 C   0  0  0  0  0  0  0  0  0  0  0  0
  -19.4111  -27.9200   24.7810 C   0  0  0  0  0  0  0  0  0  0  0  0
  -25.7177  -19.0440   20.9132 C   0  0  0  0  0  0  0  0  0  0  0  0
  -20.8038  -28.5324   24.8921 C   0  0  0  0  0  0  0  0  0  0  0  0
  -25.2967  -17.6010   20.6482 C   0  0  0  0  0  0  0  0  0  0  0  0
  -27.0709  -19.1245   21.6181 C   0  0  0  0  0  0  0  0  0  0  0  0
  -27.7361  -16.9456   20.6431 C   0  0  0  0  0  0  0  0  0  0  0  0
  -21.0088  -29.6310   23.8421 C   0  0  1  0  0  0  0  0  0  0  0  0
  -22.5677  -28.0650   20.7517 C   0  0  1  0  0  0  0  0  0  0  0  0
  -26.3992  -16.8423   19.8925 C   0  0  1  0  0  0  0  0  0  0  0  0
  -28.3684  -23.1681   18.6643 C   0  0  0  0  0  0  0  0  0  0  0  0
  -22.6339  -20.6259   18.5933 C   0  0  0  0  0  0  0  0  0  0  0  0
  -22.1126  -24.6478   23.8300 C   0  0  0  0  0  0  0  0  0  0  0  0
  -22.4132  -22.3331   22.9243 C   0  0  0  0  0  0  0  0  0  0  0  0
  -20.3321  -23.6100   22.4133 C   0  0  0  0  0  0  0  0  0  0  0  0
  -23.9024  -23.5891   16.5718 C   0  0  0  0  0  0  0  0  0  0  0  0
  -31.5125  -26.5570   20.5612 C   0  0  0  0  0  0  0  0  0  0  0  0
  -30.9071  -27.2039   21.8088 C   0  0  0  0  0  0  0  0  0  0  0  0
  -29.3857  -27.2886   21.7672 C   0  0  0  0  0  0  0  0  0  1  0  0
  -22.5023  -24.2819   21.3041 C   0  0  1  0  0  0  0  0  0  0  0  0
  -22.7678  -22.0940   18.2199 C   0  0  2  0  0  0  0  0  0  0  0  0
  -21.8582  -23.7389   22.6109 C   0  0  0  0  0  0  0  0  0  0  0  0
  -25.2294  -14.7622   20.5150 N   0  0  0  0  0  0  0  0  0  0  0  0
  -26.0101  -15.3998   19.6262 N   0  0  0  0  0  0  0  0  0  0  0  0
  -28.0949  -18.3433   20.9081 N   0  0  0  0  0  0  0  0  0  0  0  0
  -22.9946  -26.6706   20.8849 N   0  0  0  0  0  0  0  0  0  0  0  0
  -27.1471  -15.1187   17.5673 N   0  0  0  0  0  0  0  0  0  0  0  0
  -25.2055  -11.0975   18.2428 N   0  0  0  0  0  0  0  0  0  0  0  0
  -21.2715  -29.0469   22.5443 N   0  0  0  0  0  0  0  0  0  0  0  0
  -22.2547  -23.4554   20.1277 N   0  0  0  0  0  0  0  0  0  0  0  0
  -23.6965  -22.2009   17.0592 N   0  3  0  0  0  0  0  0  0  0  0  0
  -26.5437  -12.3043   16.8244 O   0  0  0  0  0  0  0  0  0  0  0  0
  -30.1943  -18.1242   19.9272 O   0  0  0  0  0  0  0  0  0  0  0  0
  -23.5645  -28.7226   22.7886 O   0  0  0  0  0  0  0  0  0  0  0  0
  -20.8151  -25.8536   20.7479 O   0  0  0  0  0  0  0  0  0  0  0  0
  -24.4827  -23.0613   19.6201 O   0  0  0  0  0  0  0  0  0  0  0  0
  -22.0283   -9.6627   22.5880 O   0  0  0  0  0  0  0  0  0  0  0  0
  -29.0005  -28.0542   20.6262 O   0  0  0  0  0  0  0  0  0  1  0  0
  -24.1141   -4.5713   22.9494 F   0  0  0  0  0  0  0  0  0  0  0  0
  -22.6384   -8.2152   20.3132 F   0  0  0  0  0  0  0  0  0  0  0  0
  1  2  1  0  0  0  0
  1  6  2  0  0  0  0
  2  7  2  0  0  0  0
  3 10  2  0  0  0  0
  3 18  1  0  0  0  0
  4 11  1  0  0  0  0
  4 18  2  0  0  0  0
  5  9  2  0  0  0  0
  5 19  1  0  0  0  0
  6 21  1  0  0  0  0
  7 23  1  0  0  0  0
  8 12  2  0  0  0  0
  8 22  1  0  0  0  0
  9 25  1  0  0  0  0
 10 27  1  0  0  0  0
 11 27  2  0  0  0  0
 12 28  1  0  0  0  0
 13 14  2  0  0  0  0
 13 29  1  0  0  0  0
 14 30  1  0  0  0  0
 15 24  1  0  0  0  0
 15 28  2  0  0  0  0
 16 25  2  0  0  0  0
 16 26  1  0  0  0  0
 17 30  2  0  0  0  0
 17 31  1  0  0  0  0
 18 32  1  0  0  0  0
 19 26  2  0  0  0  0
 19 34  1  0  0  0  0
 20 32  1  0  0  0  0
 20 33  2  0  0  0  0
 20 36  1  0  0  0  0
 21 23  2  0  0  0  0
 21 41  1  0  0  0  0
 22 24  2  0  0  0  0
 22 42  1  0  0  0  0
 23 50  1  0  0  0  0
 24 43  1  0  0  0  0
 25 59  1  0  0  0  0
 26 53  1  0  0  0  0
 27 79  1  0  0  0  0
 28 80  1  0  0  0  0
 29 31  2  0  0  0  0
 29 79  1  0  0  0  0
 30 81  1  0  0  0  0
 31 82  1  0  0  0  0
 32 65  2  0  0  0  0
 33 66  1  0  0  0  0
 33 69  1  0  0  0  0
 34 35  2  0  0  0  0
 35 37  1  0  0  0  0
 36 70  1  0  0  0  0
 36 74  2  0  0  0  0
 37 67  1  0  0  0  0
 37 75  2  0  0  0  0
 38 51  1  0  0  0  0
 38 71  1  0  0  0  0
 38 76  2  0  0  0  0
 39 62  1  0  0  0  0
 39 68  1  0  0  0  0
 39 77  2  0  0  0  0
 40 63  1  0  0  0  0
 40 72  1  0  0  0  0
 40 78  2  0  0  0  0
 41 44  1  0  0  0  0
 42 51  1  0  0  0  0
 43 68  1  0  0  0  0
 44 46  1  0  0  0  0
 45 47  1  0  0  0  0
 45 48  1  0  0  0  0
 46 50  1  0  0  0  0
 47 52  1  0  0  0  0
 48 67  1  0  0  0  0
 49 52  1  0  0  0  0
 49 67  1  0  0  0  0
 50 71  1  0  0  0  0
 51 68  1  0  0  0  0
 52 66  1  0  0  0  0
 54 63  1  0  0  0  0
 55 64  1  0  0  0  0
 56 64  1  0  0  0  0
 57 64  1  0  0  0  0
 58 73  1  0  0  0  0
 59 60  1  0  0  0  0
 60 61  1  0  0  0  0
 61 80  1  0  0  0  0
 62 64  1  0  0  0  0
 62 72  1  0  0  0  0
 63 73  1  0  0  0  0
 65 66  1  0  0  0  0
M  CHG  1  73   1
M  ISO  4  35 100  37 100  61 101  80 101
M  END
> <Batch ID>
0127

> <Smiles>
CNC(C)C(=O)NC(C(=O)N1Cc2cc([101O:1][101CH2:1]CCc3ccc(C=[100CH:0][100C:0](=O)N4CCCC(n5nc(-c6ccc(Oc7ccc(F)cc7F)cc6)c(C(N)=O)c5N)C4)c(C)c3)ccc2CC1C(=O)NC1CCCc2ccccc21)C(C)(C)C

> <Shape>
0.244

> <Color>
0.087

> <Negative vol penalty>
0.000

$$$$

  -OEChem-04052302143D

 84 92  0     1  0  0  0  0  0999 V2000
  -20.3879  -34.4142   16.0239 C   0  0  0  0  0  0  0  0  0  0  0  0
  -21.3852  -33.4475   15.9456 C   0  0  0  0  0  0  0  0  0  0  0  0
  -25.4997   -8.4063   19.4786 C   0  0  0  0  0  0  0  0  0  0  0  0
  -24.6194   -8.4372   21.7283 C   0  0  0  0  0  0  0  0  0  0  0  0
  -29.4151  -20.4213   20.9079 C   0  0  0  0  0  0  0  0  0  0  0  0
  -20.3785  -35.3203   17.0835 C   0  0  0  0  0  0  0  0  0  0  0  0
  -22.3745  -33.3870   16.9265 C   0  0  0  0  0  0  0  0  0  0  0  0
  -25.1030  -28.3524   19.0978 C   0  0  0  0  0  0  0  0  0  0  0  0
  -30.1510  -21.5725   21.1886 C   0  0  0  0  0  0  0  0  0  0  0  0
  -25.6445   -7.0211   19.5543 C   0  0  0  0  0  0  0  0  0  0  0  0
  -24.7641   -7.0519   21.8039 C   0  0  0  0  0  0  0  0  0  0  0  0
  -26.3244  -27.7472   18.8052 C   0  0  0  0  0  0  0  0  0  0  0  0
  -23.1101   -4.3133   20.7156 C   0  0  0  0  0  0  0  0  0  0  0  0
  -22.0495   -3.5805   21.2485 C   0  0  0  0  0  0  0  0  0  0  0  0
  -27.3290  -28.8810   20.6826 C   0  0  0  0  0  0  0  0  0  0  0  0
  -30.0893  -22.1817   18.8515 C   0  0  0  0  0  0  0  0  0  0  0  0
  -23.5005   -2.7482   22.9918 C   0  0  0  0  0  0  0  0  0  0  0  0
  -24.9872   -9.1144   20.5657 C   0  0  0  0  0  0  0  0  0  0  0  0
  -29.0164  -20.1502   19.5990 C   0  0  0  0  0  0  0  0  0  0  0  0
  -23.7115  -11.2596   20.0380 C   0  0  0  0  0  0  0  0  0  0  0  0
  -21.3625  -35.2647   18.0831 C   0  0  0  0  0  0  0  0  0  0  0  0
  -24.9878  -29.2364   20.1802 C   0  0  0  0  0  0  0  0  0  0  0  0
  -22.3790  -34.2940   17.9999 C   0  0  0  0  0  0  0  0  0  0  0  0
  -26.1043  -29.4941   20.9884 C   0  0  0  0  0  0  0  0  0  0  0  0
  -30.4881  -22.4527   20.1604 C   0  0  0  0  0  0  0  0  0  0  0  0
  -29.3535  -21.0305   18.5708 C   0  0  0  0  0  0  0  0  0  0  0  0
  -25.2767   -6.3439   20.7169 C   0  0  0  0  0  0  0  0  0  0  0  0
  -27.4384  -28.0137   19.5959 C   0  0  0  0  0  0  0  0  0  0  0  0
  -24.3659   -4.2635   21.3207 C   0  0  0  0  0  0  0  0  0  0  0  0
  -22.2448   -2.7980   22.3866 C   0  0  0  0  0  0  0  0  0  0  0  0
  -24.5611   -3.4810   22.4588 C   0  0  0  0  0  0  0  0  0  0  0  0
  -24.8379  -10.5454   20.4884 C   0  0  0  0  0  0  0  0  0  0  0  0
  -24.0700  -12.5797   20.1611 C   0  0  0  0  0  0  0  0  0  0  0  0
  -28.2490  -18.9395   19.3382 C   0  0  0  0  0  0  0  0  0  0  0  0
  -28.6587  -17.6827   19.6056 C   0  0  0  0  0  0  0  0  0  0  0  0
  -30.4042  -24.8706   20.7930 C   0  0  0  0  0  0  0  0  0  0  0  0
  -30.3736  -26.0029   20.0746 C   0  0  0  0  0  0  0  0  0  0  0  0
  -22.4534  -10.7731   19.5519 C   0  0  0  0  0  0  0  0  0  0  0  0
  -27.7584  -16.5552   19.2911 C   0  0  0  0  0  0  0  0  0  0  0  0
  -24.2471  -32.3113   20.4962 C   0  0  0  0  0  0  0  0  0  0  0  0
  -24.3794  -31.6165   23.6620 C   0  0  0  0  0  0  0  0  0  0  0  0
  -25.5845  -29.6003   26.1378 C   0  0  0  0  0  0  0  0  0  0  0  0
  -21.3382  -36.2955   19.1839 C   0  0  0  0  0  0  0  0  0  0  0  0
  -23.6567  -29.8603   20.4986 C   0  0  0  0  0  0  0  0  0  0  0  0
  -26.0284  -30.4197   22.1741 C   0  0  0  0  0  0  0  0  0  0  0  0
  -22.2072  -35.9262   20.3834 C   0  0  0  0  0  0  0  0  0  0  0  0
  -28.0052  -14.7355   22.4628 C   0  0  0  0  0  0  0  0  0  0  0  0
  -23.5778  -35.4423   19.9208 C   0  0  0  0  0  0  0  0  0  0  0  0
  -27.1411  -13.5124   22.1676 C   0  0  0  0  0  0  0  0  0  0  0  0
  -28.7564  -15.2176   21.2227 C   0  0  0  0  0  0  0  0  0  0  0  0
  -27.0047  -14.2558   19.7574 C   0  0  0  0  0  0  0  0  0  0  0  0
  -23.4551  -34.1807   19.0578 C   0  0  1  0  0  0  0  0  0  0  0  0
  -23.7782  -31.1427   21.3160 C   0  0  1  0  0  0  0  0  0  0  0  0
  -26.2034  -13.7822   20.9801 C   0  0  1  0  0  0  0  0  0  0  0  0
  -27.7609  -21.6360   16.7314 C   0  0  0  0  0  0  0  0  0  0  0  0
  -25.5497  -29.3049   28.6295 C   0  0  0  0  0  0  0  0  0  0  0  0
  -26.3365  -33.9380   23.9620 C   0  0  0  0  0  0  0  0  0  0  0  0
  -26.9800  -33.0153   26.1987 C   0  0  0  0  0  0  0  0  0  0  0  0
  -24.6363  -33.7643   25.7878 C   0  0  0  0  0  0  0  0  0  0  0  0
  -24.3358  -26.9259   25.9198 C   0  0  0  0  0  0  0  0  0  0  0  0
  -31.2823  -23.6985   20.4636 C   0  0  0  0  0  0  0  0  0  0  0  0
  -28.9436  -20.7720   17.1565 C   0  0  0  0  0  0  0  0  0  0  0  0
  -29.5097  -27.1744   20.4091 C   0  0  0  0  0  0  0  0  0  1  0  0
  -25.4611  -31.6287   24.7149 C   0  0  1  0  0  0  0  0  0  0  0  0
  -24.8969  -28.9237   27.3100 C   0  0  2  0  0  0  0  0  0  0  0  0
  -25.8557  -33.0706   25.1424 C   0  0  0  0  0  0  0  0  0  0  0  0
  -25.8374  -11.3456   20.8690 N   0  0  0  0  0  0  0  0  0  0  0  0
  -25.3402  -12.5762   20.6581 N   0  0  0  0  0  0  0  0  0  0  0  0
  -27.8463  -15.4123   20.0840 N   0  0  0  0  0  0  0  0  0  0  0  0
  -24.7064  -31.0103   22.4408 N   0  0  0  0  0  0  0  0  0  0  0  0
  -23.4197  -13.7316   19.8916 N   0  0  0  0  0  0  0  0  0  0  0  0
  -22.2512   -9.3875   19.4910 N   0  0  0  0  0  0  0  0  0  0  0  0
  -23.2267  -33.0191   19.8903 N   0  0  0  0  0  0  0  0  0  0  0  0
  -24.9763  -30.7930   25.8080 N   0  0  0  0  0  0  0  0  0  0  0  0
  -24.9623  -27.4420   27.1640 N   0  3  0  0  0  0  0  0  0  0  0  0
  -21.5418  -11.5440   19.1670 O   0  0  0  0  0  0  0  0  0  0  0  0
  -26.9855  -16.6925   18.3410 O   0  0  0  0  0  0  0  0  0  0  0  0
  -25.4459  -32.5538   20.4203 O   0  0  0  0  0  0  0  0  0  0  0  0
  -23.2823  -32.1198   23.9163 O   0  0  0  0  0  0  0  0  0  0  0  0
  -26.5654  -29.1206   25.5736 O   0  0  0  0  0  0  0  0  0  0  0  0
  -25.4176   -4.9921   20.7909 O   0  0  0  0  0  0  0  0  0  0  0  0
  -28.6319  -27.4248   19.3122 O   0  0  0  0  0  0  0  0  0  1  0  0
  -21.2259   -2.0956   22.8991 F   0  0  0  0  0  0  0  0  0  0  0  0
  -25.7650   -3.4301   23.0453 F   0  0  0  0  0  0  0  0  0  0  0  0
  1  2  1  0  0  0  0
  1  6  2  0  0  0  0
  2  7  2  0  0  0  0
  3 10  2  0  0  0  0
  3 18  1  0  0  0  0
  4 11  1  0  0  0  0
  4 18  2  0  0  0  0
  5  9  2  0  0  0  0
  5 19  1  0  0  0  0
  6 21  1  0  0  0  0
  7 23  1  0  0  0  0
  8 12  2  0  0  0  0
  8 22  1  0  0  0  0
  9 25  1  0  0  0  0
 10 27  1  0  0  0  0
 11 27  2  0  0  0  0
 12 28  1  0  0  0  0
 13 14  2  0  0  0  0
 13 29  1  0  0  0  0
 14 30  1  0  0  0  0
 15 24  1  0  0  0  0
 15 28  2  0  0  0  0
 16 25  2  0  0  0  0
 16 26  1  0  0  0  0
 17 30  2  0  0  0  0
 17 31  1  0  0  0  0
 18 32  1  0  0  0  0
 19 26  2  0  0  0  0
 19 34  1  0  0  0  0
 20 32  1  0  0  0  0
 20 33  2  0  0  0  0
 20 38  1  0  0  0  0
 21 23  2  0  0  0  0
 21 43  1  0  0  0  0
 22 24  2  0  0  0  0
 22 44  1  0  0  0  0
 23 52  1  0  0  0  0
 24 45  1  0  0  0  0
 25 61  1  0  0  0  0
 26 62  1  0  0  0  0
 27 81  1  0  0  0  0
 28 82  1  0  0  0  0
 29 31  2  0  0  0  0
 29 81  1  0  0  0  0
 30 83  1  0  0  0  0
 31 84  1  0  0  0  0
 32 67  2  0  0  0  0
 33 68  1  0  0  0  0
 33 71  1  0  0  0  0
 34 35  2  0  0  0  0
 35 39  1  0  0  0  0
 36 37  2  0  0  0  0
 36 61  1  0  0  0  0
 37 63  1  0  0  0  0
 38 72  1  0  0  0  0
 38 76  2  0  0  0  0
 39 69  1  0  0  0  0
 39 77  2  0  0  0  0
 40 53  1  0  0  0  0
 40 73  1  0  0  0  0
 40 78  2  0  0  0  0
 41 64  1  0  0  0  0
 41 70  1  0  0  0  0
 41 79  2  0  0  0  0
 42 65  1  0  0  0  0
 42 74  1  0  0  0  0
 42 80  2  0  0  0  0
 43 46  1  0  0  0  0
 44 53  1  0  0  0  0
 45 70  1  0  0  0  0
 46 48  1  0  0  0  0
 47 49  1  0  0  0  0
 47 50  1  0  0  0  0
 48 52  1  0  0  0  0
 49 54  1  0  0  0  0
 50 69  1  0  0  0  0
 51 54  1  0  0  0  0
 51 69  1  0  0  0  0
 52 73  1  0  0  0  0
 53 70  1  0  0  0  0
 54 68  1  0  0  0  0
 55 62  1  0  0  0  0
 56 65  1  0  0  0  0
 57 66  1  0  0  0  0
 58 66  1  0  0  0  0
 59 66  1  0  0  0  0
 60 75  1  0  0  0  0
 63 82  1  0  0  0  0
 64 66  1  0  0  0  0
 64 74  1  0  0  0  0
 65 75  1  0  0  0  0
 67 68  1  0  0  0  0
M  CHG  1  75   1
M  ISO  4  35 100  39 100  63 101  82 101
M  END
> <Batch ID>
0127

> <Smiles>
CCc1cc(CC=C[101CH2:1][101O:1]c2ccc3c(c2)CN(C(=O)C(NC(=O)C(C)NC)C(C)(C)C)C(C(=O)NC2CCCc4ccccc42)C3)ccc1C=[100CH:0][100C:0](=O)N1CCCC(n2nc(-c3ccc(Oc4ccc(F)cc4F)cc3)c(C(N)=O)c2N)C1

> <Shape>
0.260

> <Color>
0.085

> <Negative vol penalty>
0.000

$$$$

  -OEChem-04052302143D

 83 92  0     1  0  0  0  0  0999 V2000
  -28.3302  -38.6435   23.5924 C   0  0  0  0  0  0  0  0  0  0  0  0
  -28.6371  -37.4871   22.8826 C   0  0  0  0  0  0  0  0  0  0  0  0
  -24.5685   -9.4751   21.3886 C   0  0  0  0  0  0  0  0  0  0  0  0
  -24.8466  -10.5412   23.5387 C   0  0  0  0  0  0  0  0  0  0  0  0
  -27.5381  -38.5679   24.7372 C   0  0  0  0  0  0  0  0  0  0  0  0
  -28.1528  -36.2540   23.3179 C   0  0  0  0  0  0  0  0  0  0  0  0
  -27.1386  -21.1167   22.2981 C   0  0  0  0  0  0  0  0  0  0  0  0
  -25.9223  -29.9285   20.8023 C   0  0  0  0  0  0  0  0  0  0  0  0
  -27.1600  -19.8221   21.7583 C   0  0  0  0  0  0  0  0  0  0  0  0
  -24.3023   -8.2624   22.0244 C   0  0  0  0  0  0  0  0  0  0  0  0
  -24.5804   -9.3286   24.1745 C   0  0  0  0  0  0  0  0  0  0  0  0
  -26.1512  -28.5630   20.9658 C   0  0  0  0  0  0  0  0  0  0  0  0
  -23.1942   -4.9672   23.0868 C   0  0  0  0  0  0  0  0  0  0  0  0
  -22.1196   -4.2115   22.6181 C   0  0  0  0  0  0  0  0  0  0  0  0
  -29.6007  -19.8467   21.5692 C   0  0  0  0  0  0  0  0  0  0  0  0
  -24.7264  -28.5633   22.9123 C   0  0  0  0  0  0  0  0  0  0  0  0
  -20.6171   -6.0347   23.1231 C   0  0  0  0  0  0  0  0  0  0  0  0
  -24.8407  -10.6145   22.1458 C   0  0  0  0  0  0  0  0  0  0  0  0
  -29.5088  -21.1001   22.0976 C   0  0  0  0  0  0  0  0  0  0  0  0
  -24.1851  -12.8563   21.1200 C   0  0  0  0  0  0  0  0  0  0  0  0
  -28.3477  -21.7424   22.4578 C   0  0  0  0  0  0  0  0  0  0  0  0
  -27.0359  -37.3345   25.1813 C   0  0  0  0  0  0  0  0  0  0  0  0
  -25.1010  -30.6250   21.7004 C   0  0  0  0  0  0  0  0  0  0  0  0
  -27.3543  -36.1616   24.4705 C   0  0  0  0  0  0  0  0  0  0  0  0
  -24.4866  -29.9371   22.7565 C   0  0  0  0  0  0  0  0  0  0  0  0
  -28.3784  -19.1950   21.3982 C   0  0  0  0  0  0  0  0  0  0  0  0
  -24.3082   -8.1891   23.4173 C   0  0  0  0  0  0  0  0  0  0  0  0
  -25.5556  -27.8808   22.0226 C   0  0  0  0  0  0  0  0  0  0  0  0
  -22.9803   -6.2567   23.5737 C   0  0  0  0  0  0  0  0  0  0  0  0
  -20.8311   -4.7452   22.6362 C   0  0  0  0  0  0  0  0  0  0  0  0
  -21.6917   -6.7905   23.5919 C   0  0  0  0  0  0  0  0  0  0  0  0
  -25.1163  -11.8673   21.4897 C   0  0  0  0  0  0  0  0  0  0  0  0
  -24.9436  -13.8405   20.5348 C   0  0  0  0  0  0  0  0  0  0  0  0
  -30.3508  -22.2107   22.4865 C   0  0  0  0  0  0  0  0  0  0  0  0
  -31.6552  -22.4759   22.4893 C   0  0  0  0  0  0  0  0  0  0  0  0
  -22.7618  -12.8829   21.2904 C   0  0  0  0  0  0  0  0  0  0  0  0
  -25.5327  -33.0335   23.7294 C   0  0  0  0  0  0  0  0  0  0  0  0
  -22.3186  -32.7902   24.0937 C   0  0  0  0  0  0  0  0  0  0  0  0
  -19.5168  -30.8536   23.8786 C   0  0  0  0  0  0  0  0  0  0  0  0
  -29.4434  -17.1189   20.4486 C   0  0  0  0  0  0  0  0  0  0  0  0
  -26.2228  -37.2965   26.4511 C   0  0  0  0  0  0  0  0  0  0  0  0
  -24.8427  -32.0925   21.4946 C   0  0  0  0  0  0  0  0  0  0  0  0
  -23.5802  -30.6347   23.7364 C   0  0  0  0  0  0  0  0  0  0  0  0
  -25.4391  -35.9994   26.6339 C   0  0  0  0  0  0  0  0  0  0  0  0
  -29.7976  -13.8430   19.0994 C   0  0  0  0  0  0  0  0  0  0  0  0
  -26.3281  -34.7935   26.3470 C   0  0  0  0  0  0  0  0  0  0  0  0
  -28.5347  -13.1183   19.5706 C   0  0  0  0  0  0  0  0  0  0  0  0
  -30.3226  -14.8131   20.1563 C   0  0  0  0  0  0  0  0  0  0  0  0
  -28.0725  -15.0522   21.1305 C   0  0  0  0  0  0  0  0  0  0  0  0
  -29.0808  -22.9816   22.9171 C   0  0  1  0  0  0  0  0  0  0  0  0
  -26.8273  -34.8087   24.8971 C   0  0  1  0  0  0  0  0  0  0  0  0
  -24.4002  -32.8057   22.7686 C   0  0  1  0  0  0  0  0  0  0  0  0
  -27.4695  -14.1120   20.0741 C   0  0  2  0  0  0  0  0  0  0  0  0
  -17.0404  -30.9204   24.2793 C   0  0  0  0  0  0  0  0  0  0  0  0
  -22.8014  -32.5735   27.0987 C   0  0  0  0  0  0  0  0  0  0  0  0
  -20.4655  -31.7056   27.3409 C   0  0  0  0  0  0  0  0  0  0  0  0
  -20.8542  -34.0051   26.4555 C   0  0  0  0  0  0  0  0  0  0  0  0
  -18.9242  -30.2984   21.0326 C   0  0  0  0  0  0  0  0  0  0  0  0
  -28.7553  -24.2334   22.1123 C   0  0  0  0  0  0  0  0  0  0  0  0
  -27.4170  -24.8146   22.5578 C   0  0  0  0  0  0  0  0  0  0  0  0
  -27.0349  -26.0403   21.7394 C   0  0  0  0  0  0  0  0  0  1  0  0
  -21.4019  -32.0089   25.0038 C   0  0  1  0  0  0  0  0  0  0  0  0
  -18.1545  -31.1178   23.2631 C   0  0  2  0  0  0  0  0  0  0  0  0
  -21.3993  -32.5602   26.4576 C   0  0  0  0  0  0  0  0  0  0  0  0
  -26.3706  -12.1935   21.1663 N   0  0  0  0  0  0  0  0  0  0  0  0
  -26.2328  -13.3983   20.5871 N   0  0  0  0  0  0  0  0  0  0  0  0
  -23.3637  -32.0711   23.4967 N   0  0  0  0  0  0  0  0  0  0  0  0
  -29.2600  -15.7263   20.5826 N   0  0  0  0  0  0  0  0  0  0  0  0
  -24.6269  -15.0323   19.9856 N   0  0  0  0  0  0  0  0  0  0  0  0
  -22.1427  -11.7897   21.9118 N   0  0  0  0  0  0  0  0  0  0  0  0
  -28.3526  -17.8860   20.8565 N   0  0  0  0  0  0  0  0  0  0  0  0
  -25.7830  -34.3655   23.9984 N   0  0  0  0  0  0  0  0  0  0  0  0
  -20.0917  -32.0099   24.3620 N   0  0  0  0  0  0  0  0  0  0  0  0
  -17.9155  -30.1942   22.1182 N   0  3  0  0  0  0  0  0  0  0  0  0
  -22.0578  -13.8402   20.8885 O   0  0  0  0  0  0  0  0  0  0  0  0
  -26.1339  -32.0718   24.1936 O   0  0  0  0  0  0  0  0  0  0  0  0
  -22.1107  -33.9927   23.9134 O   0  0  0  0  0  0  0  0  0  0  0  0
  -20.0189  -29.7330   23.9291 O   0  0  0  0  0  0  0  0  0  0  0  0
  -30.4804  -17.5947   19.9793 O   0  0  0  0  0  0  0  0  0  0  0  0
  -24.0483   -7.0060   24.0380 O   0  0  0  0  0  0  0  0  0  0  0  0
  -25.7779  -26.5480   22.1849 O   0  0  0  0  0  0  0  0  0  1  0  0
  -19.7994   -4.0199   22.1847 F   0  0  0  0  0  0  0  0  0  0  0  0
  -21.4801   -8.0292   24.0574 F   0  0  0  0  0  0  0  0  0  0  0  0
  1  2  1  0  0  0  0
  1  5  2  0  0  0  0
  2  6  2  0  0  0  0
  3 10  2  0  0  0  0
  3 18  1  0  0  0  0
  4 11  1  0  0  0  0
  4 18  2  0  0  0  0
  5 22  1  0  0  0  0
  6 24  1  0  0  0  0
  7  9  2  0  0  0  0
  7 21  1  0  0  0  0
  8 12  2  0  0  0  0
  8 23  1  0  0  0  0
  9 26  1  0  0  0  0
 10 27  1  0  0  0  0
 11 27  2  0  0  0  0
 12 28  1  0  0  0  0
 13 14  2  0  0  0  0
 13 29  1  0  0  0  0
 14 30  1  0  0  0  0
 15 19  1  0  0  0  0
 15 26  2  0  0  0  0
 16 25  1  0  0  0  0
 16 28  2  0  0  0  0
 17 30  2  0  0  0  0
 17 31  1  0  0  0  0
 18 32  1  0  0  0  0
 19 21  2  0  0  0  0
 19 34  1  0  0  0  0
 20 32  1  0  0  0  0
 20 33  2  0  0  0  0
 20 36  1  0  0  0  0
 21 50  1  0  0  0  0
 22 24  2  0  0  0  0
 22 41  1  0  0  0  0
 23 25  2  0  0  0  0
 23 42  1  0  0  0  0
 24 51  1  0  0  0  0
 25 43  1  0  0  0  0
 26 71  1  0  0  0  0
 27 80  1  0  0  0  0
 28 81  1  0  0  0  0
 29 31  2  0  0  0  0
 29 80  1  0  0  0  0
 30 82  1  0  0  0  0
 31 83  1  0  0  0  0
 32 65  2  0  0  0  0
 33 66  1  0  0  0  0
 33 69  1  0  0  0  0
 34 35  2  0  0  0  0
 34 50  1  0  0  0  0
 36 70  1  0  0  0  0
 36 75  2  0  0  0  0
 37 52  1  0  0  0  0
 37 72  1  0  0  0  0
 37 76  2  0  0  0  0
 38 62  1  0  0  0  0
 38 67  1  0  0  0  0
 38 77  2  0  0  0  0
 39 63  1  0  0  0  0
 39 73  1  0  0  0  0
 39 78  2  0  0  0  0
 40 68  1  0  0  0  0
 40 71  1  0  0  0  0
 40 79  2  0  0  0  0
 41 44  1  0  0  0  0
 42 52  1  0  0  0  0
 43 67  1  0  0  0  0
 44 46  1  0  0  0  0
 45 47  1  0  0  0  0
 45 48  1  0  0  0  0
 46 51  1  0  0  0  0
 47 53  1  0  0  0  0
 48 68  1  0  0  0  0
 49 53  1  0  0  0  0
 49 68  1  0  0  0  0
 50 59  1  0  0  0  0
 51 72  1  0  0  0  0
 52 67  1  0  0  0  0
 53 66  1  0  0  0  0
 54 63  1  0  0  0  0
 55 64  1  0  0  0  0
 56 64  1  0  0  0  0
 57 64  1  0  0  0  0
 58 74  1  0  0  0  0
 59 60  1  0  0  0  0
 60 61  1  0  0  0  0
 61 81  1  0  0  0  0
 62 64  1  0  0  0  0
 62 73  1  0  0  0  0
 63 74  1  0  0  0  0
 65 66  1  0  0  0  0
M  CHG  1  74   1
M  ISO  4  40 100  61 101  71 100  81 101
M  END
> <Batch ID>
0127

> <Smiles>
C=C1c2cc([100NH:0][100C:0](=O)N3CCCC(n4nc(-c5ccc(Oc6ccc(F)cc6F)cc5)c(C(N)=O)c4N)C3)ccc2C1CC[101CH2:1][101O:1]c1ccc2c(c1)CN(C(=O)C(NC(=O)C(C)NC)C(C)(C)C)C(C(=O)NC1CCCc3ccccc31)C2

> <Shape>
0.290

> <Color>
0.114

> <Negative vol penalty>
0.000

$$$$

  -OEChem-04052302143D

 80 88  0     1  0  0  0  0  0999 V2000
  -26.3840  -36.9248   16.5339 C   0  0  0  0  0  0  0  0  0  0  0  0
  -26.6793  -35.5664   16.4784 C   0  0  0  0  0  0  0  0  0  0  0  0
  -24.5000   -8.9952   21.4873 C   0  0  0  0  0  0  0  0  0  0  0  0
  -24.4820  -10.3260   23.5037 C   0  0  0  0  0  0  0  0  0  0  0  0
  -26.3279  -37.5750   17.7659 C   0  0  0  0  0  0  0  0  0  0  0  0
  -26.9198  -34.8577   17.6549 C   0  0  0  0  0  0  0  0  0  0  0  0
  -25.4411  -29.0277   18.8085 C   0  0  0  0  0  0  0  0  0  0  0  0
  -26.6038  -20.7748   21.2124 C   0  0  0  0  0  0  0  0  0  0  0  0
  -29.0149  -20.9009   21.3010 C   0  0  0  0  0  0  0  0  0  0  0  0
  -26.6875  -19.4316   20.8459 C   0  0  0  0  0  0  0  0  0  0  0  0
  -29.0986  -19.5577   20.9345 C   0  0  0  0  0  0  0  0  0  0  0  0
  -24.2031   -7.8565   22.2362 C   0  0  0  0  0  0  0  0  0  0  0  0
  -24.1850   -9.1873   24.2526 C   0  0  0  0  0  0  0  0  0  0  0  0
  -26.1788  -27.8457   18.7599 C   0  0  0  0  0  0  0  0  0  0  0  0
  -21.4787   -6.4592   23.6708 C   0  0  0  0  0  0  0  0  0  0  0  0
  -20.4925   -5.6017   23.1833 C   0  0  0  0  0  0  0  0  0  0  0  0
  -26.5989  -28.0176   21.1291 C   0  0  0  0  0  0  0  0  0  0  0  0
  -22.1041   -3.8045   23.0843 C   0  0  0  0  0  0  0  0  0  0  0  0
  -24.6395  -10.2300   22.1211 C   0  0  0  0  0  0  0  0  0  0  0  0
  -24.0319  -12.2957   20.7532 C   0  0  0  0  0  0  0  0  0  0  0  0
  -26.5582  -36.8718   18.9589 C   0  0  0  0  0  0  0  0  0  0  0  0
  -25.2856  -29.7205   20.0177 C   0  0  0  0  0  0  0  0  0  0  0  0
  -26.8680  -35.4994   18.9040 C   0  0  0  0  0  0  0  0  0  0  0  0
  -25.8566  -29.2069   21.1908 C   0  0  0  0  0  0  0  0  0  0  0  0
  -27.7676  -21.5095   21.4399 C   0  0  0  0  0  0  0  0  0  0  0  0
  -27.9349  -18.8230   20.7070 C   0  0  0  0  0  0  0  0  0  0  0  0
  -24.0455   -7.9526   23.6188 C   0  0  0  0  0  0  0  0  0  0  0  0
  -26.7602  -27.3420   19.9198 C   0  0  0  0  0  0  0  0  0  0  0  0
  -22.7777   -5.9894   23.8650 C   0  0  0  0  0  0  0  0  0  0  0  0
  -20.8051   -4.2744   22.8901 C   0  0  0  0  0  0  0  0  0  0  0  0
  -23.0903   -4.6620   23.5718 C   0  0  0  0  0  0  0  0  0  0  0  0
  -24.9469  -11.4065   21.3481 C   0  0  0  0  0  0  0  0  0  0  0  0
  -24.8194  -13.2386   20.1390 C   0  0  0  0  0  0  0  0  0  0  0  0
  -22.5983  -12.2717   20.7557 C   0  0  0  0  0  0  0  0  0  0  0  0
  -26.1038  -32.6058   21.0710 C   0  0  0  0  0  0  0  0  0  0  0  0
  -24.3831  -31.7161   23.6730 C   0  0  0  0  0  0  0  0  0  0  0  0
  -23.1243  -29.1871   25.5877 C   0  0  0  0  0  0  0  0  0  0  0  0
  -29.1784  -16.7031   20.1538 C   0  0  0  0  0  0  0  0  0  0  0  0
  -26.5332  -37.6279   20.2636 C   0  0  0  0  0  0  0  0  0  0  0  0
  -24.4644  -30.9801   20.0584 C   0  0  0  0  0  0  0  0  0  0  0  0
  -25.7023  -29.9019   22.5181 C   0  0  0  0  0  0  0  0  0  0  0  0
  -26.4315  -36.7239   21.4895 C   0  0  0  0  0  0  0  0  0  0  0  0
  -29.8068  -13.3099   19.2770 C   0  0  0  0  0  0  0  0  0  0  0  0
  -27.4178  -35.5653   21.3817 C   0  0  0  0  0  0  0  0  0  0  0  0
  -28.5231  -12.5854   19.6887 C   0  0  0  0  0  0  0  0  0  0  0  0
  -30.1673  -14.4257   20.2562 C   0  0  0  0  0  0  0  0  0  0  0  0
  -27.8100  -14.6681   20.9299 C   0  0  0  0  0  0  0  0  0  0  0  0
  -27.1104  -34.6909   20.1601 C   0  0  1  0  0  0  0  0  0  0  0  0
  -24.8024  -31.8755   21.2464 C   0  0  1  0  0  0  0  0  0  0  0  0
  -27.3710  -13.5782   19.9385 C   0  0  2  0  0  0  0  0  0  0  0  0
  -21.7913  -28.7709   27.6727 C   0  0  0  0  0  0  0  0  0  0  0  0
  -26.8232  -32.4098   25.3684 C   0  0  0  0  0  0  0  0  0  0  0  0
  -25.7999  -31.1102   27.2479 C   0  0  0  0  0  0  0  0  0  0  0  0
  -24.6355  -33.1241   26.3473 C   0  0  0  0  0  0  0  0  0  0  0  0
  -20.9937  -27.7863   24.0852 C   0  0  0  0  0  0  0  0  0  0  0  0
  -27.6770  -22.9616   21.8360 C   0  0  0  0  0  0  0  0  0  0  0  0
  -27.6702  -23.9251   20.6473 C   0  0  0  0  0  0  0  0  0  0  0  0
  -27.4923  -25.3835   21.0531 C   0  0  0  0  0  0  0  0  0  1  0  0
  -24.6937  -31.0058   24.9683 C   0  0  1  0  0  0  0  0  0  0  0  0
  -21.7394  -28.9533   26.1638 C   0  0  2  0  0  0  0  0  0  0  0  0
  -25.4928  -31.9001   25.9578 C   0  0  0  0  0  0  0  0  0  0  0  0
  -26.2183  -11.7533   21.1312 N   0  0  0  0  0  0  0  0  0  0  0  0
  -26.1080  -12.8709   20.3931 N   0  0  0  0  0  0  0  0  0  0  0  0
  -24.8955  -31.1333   22.5052 N   0  0  0  0  0  0  0  0  0  0  0  0
  -29.0297  -15.3295   20.4403 N   0  0  0  0  0  0  0  0  0  0  0  0
  -24.5284  -14.3380   19.4116 N   0  0  0  0  0  0  0  0  0  0  0  0
  -21.9488  -11.2321   21.4351 N   0  0  0  0  0  0  0  0  0  0  0  0
  -28.0203  -17.4584   20.3349 N   0  0  0  0  0  0  0  0  0  0  0  0
  -25.9834  -33.8239   20.4299 N   0  0  0  0  0  0  0  0  0  0  0  0
  -23.4166  -30.5310   25.4899 N   0  0  0  0  0  0  0  0  0  0  0  0
  -21.1278  -27.7339   25.5638 N   0  3  0  0  0  0  0  0  0  0  0  0
  -21.9139  -13.1370   20.1589 O   0  0  0  0  0  0  0  0  0  0  0  0
  -27.1402  -32.1021   21.4880 O   0  0  0  0  0  0  0  0  0  0  0  0
  -23.7046  -32.7461   23.6956 O   0  0  0  0  0  0  0  0  0  0  0  0
  -23.8734  -28.2692   25.2608 O   0  0  0  0  0  0  0  0  0  0  0  0
  -30.2464  -17.1698   19.7496 O   0  0  0  0  0  0  0  0  0  0  0  0
  -23.7555   -6.8417   24.3498 O   0  0  0  0  0  0  0  0  0  0  0  0
  -27.4813  -26.1888   19.8751 O   0  0  0  0  0  0  0  0  0  1  0  0
  -19.8576   -3.4506   22.4234 F   0  0  0  0  0  0  0  0  0  0  0  0
  -24.3362   -4.2045   23.7574 F   0  0  0  0  0  0  0  0  0  0  0  0
  1  2  1  0  0  0  0
  1  5  2  0  0  0  0
  2  6  2  0  0  0  0
  3 12  2  0  0  0  0
  3 19  1  0  0  0  0
  4 13  1  0  0  0  0
  4 19  2  0  0  0  0
  5 21  1  0  0  0  0
  6 23  1  0  0  0  0
  7 14  2  0  0  0  0
  7 22  1  0  0  0  0
  8 10  2  0  0  0  0
  8 25  1  0  0  0  0
  9 11  1  0  0  0  0
  9 25  2  0  0  0  0
 10 26  1  0  0  0  0
 11 26  2  0  0  0  0
 12 27  1  0  0  0  0
 13 27  2  0  0  0  0
 14 28  1  0  0  0  0
 15 16  2  0  0  0  0
 15 29  1  0  0  0  0
 16 30  1  0  0  0  0
 17 24  1  0  0  0  0
 17 28  2  0  0  0  0
 18 30  2  0  0  0  0
 18 31  1  0  0  0  0
 19 32  1  0  0  0  0
 20 32  1  0  0  0  0
 20 33  2  0  0  0  0
 20 34  1  0  0  0  0
 21 23  2  0  0  0  0
 21 39  1  0  0  0  0
 22 24  2  0  0  0  0
 22 40  1  0  0  0  0
 23 48  1  0  0  0  0
 24 41  1  0  0  0  0
 25 56  1  0  0  0  0
 26 68  1  0  0  0  0
 27 77  1  0  0  0  0
 28 78  1  0  0  0  0
 29 31  2  0  0  0  0
 29 77  1  0  0  0  0
 30 79  1  0  0  0  0
 31 80  1  0  0  0  0
 32 62  2  0  0  0  0
 33 63  1  0  0  0  0
 33 66  1  0  0  0  0
 34 67  1  0  0  0  0
 34 72  2  0  0  0  0
 35 49  1  0  0  0  0
 35 69  1  0  0  0  0
 35 73  2  0  0  0  0
 36 59  1  0  0  0  0
 36 64  1  0  0  0  0
 36 74  2  0  0  0  0
 37 60  1  0  0  0  0
 37 70  1  0  0  0  0
 37 75  2  0  0  0  0
 38 65  1  0  0  0  0
 38 68  1  0  0  0  0
 38 76  2  0  0  0  0
 39 42  1  0  0  0  0
 40 49  1  0  0  0  0
 41 64  1  0  0  0  0
 42 44  1  0  0  0  0
 43 45  1  0  0  0  0
 43 46  1  0  0  0  0
 44 48  1  0  0  0  0
 45 50  1  0  0  0  0
 46 65  1  0  0  0  0
 47 50  1  0  0  0  0
 47 65  1  0  0  0  0
 48 69  1  0  0  0  0
 49 64  1  0  0  0  0
 50 63  1  0  0  0  0
 51 60  1  0  0  0  0
 52 61  1  0  0  0  0
 53 61  1  0  0  0  0
 54 61  1  0  0  0  0
 55 71  1  0  0  0  0
 56 57  1  0  0  0  0
 57 58  1  0  0  0  0
 58 78  1  0  0  0  0
 59 61  1  0  0  0  0
 59 70  1  0  0  0  0
 60 71  1  0  0  0  0
 62 63  1  0  0  0  0
M  CHG  1  71   1
M  ISO  4  38 100  58 101  68 100  78 101
M  END
> <Batch ID>
0127

> <Smiles>
CNC(C)C(=O)NC(C(=O)N1Cc2cc([101O:1][101CH2:1]CCc3ccc([100NH:0][100C:0](=O)N4CCCC(n5nc(-c6ccc(Oc7ccc(F)cc7F)cc6)c(C(N)=O)c5N)C4)cc3)ccc2CC1C(=O)NC1CCCc2ccccc21)C(C)(C)C

> <Shape>
0.279

> <Color>
0.135

> <Negative vol penalty>
0.000

$$$$

  -OEChem-04052302143D

 87 96  0     1  0  0  0  0  0999 V2000
  -18.1229  -28.7647   26.1351 C   0  0  0  0  0  0  0  0  0  0  0  0
  -19.4889  -28.5403   26.2735 C   0  0  0  0  0  0  0  0  0  0  0  0
  -24.6710   -8.7637   21.8431 C   0  0  0  0  0  0  0  0  0  0  0  0
  -24.0937   -8.4161   19.5230 C   0  0  0  0  0  0  0  0  0  0  0  0
  -30.2486  -21.4298   20.8338 C   0  0  0  0  0  0  0  0  0  0  0  0
  -29.7735  -20.8619   18.5340 C   0  0  0  0  0  0  0  0  0  0  0  0
  -30.0329  -20.1030   21.2060 C   0  0  0  0  0  0  0  0  0  0  0  0
  -29.5577  -19.5351   18.9063 C   0  0  0  0  0  0  0  0  0  0  0  0
  -17.5354  -28.7229   24.8714 C   0  0  0  0  0  0  0  0  0  0  0  0
  -20.2680  -28.2730   25.1484 C   0  0  0  0  0  0  0  0  0  0  0  0
  -26.8629  -29.3082   22.5500 C   0  0  0  0  0  0  0  0  0  0  0  0
  -23.4908   -8.1298   22.2318 C   0  0  0  0  0  0  0  0  0  0  0  0
  -22.9135   -7.7822   19.9116 C   0  0  0  0  0  0  0  0  0  0  0  0
  -27.9251  -28.5972   21.9932 C   0  0  0  0  0  0  0  0  0  0  0  0
  -22.3445   -4.9623   22.5250 C   0  0  0  0  0  0  0  0  0  0  0  0
  -22.4212   -4.0241   23.5543 C   0  0  0  0  0  0  0  0  0  0  0  0
  -26.8154  -28.6283   19.8515 C   0  0  0  0  0  0  0  0  0  0  0  0
  -20.8812   -5.3414   24.8697 C   0  0  0  0  0  0  0  0  0  0  0  0
  -24.9724   -8.9069   20.4888 C   0  0  0  0  0  0  0  0  0  0  0  0
  -30.1189  -21.8093   19.4978 C   0  0  0  0  0  0  0  0  0  0  0  0
  -29.6874  -19.1556   20.2423 C   0  0  0  0  0  0  0  0  0  0  0  0
  -27.4452   -8.9624   19.8643 C   0  0  0  0  0  0  0  0  0  0  0  0
  -18.3093  -28.4644   23.7291 C   0  0  0  0  0  0  0  0  0  0  0  0
  -25.7621  -29.6758   21.7628 C   0  0  0  0  0  0  0  0  0  0  0  0
  -19.6900  -28.2264   23.8684 C   0  0  0  0  0  0  0  0  0  0  0  0
  -25.7417  -29.3462   20.4001 C   0  0  0  0  0  0  0  0  0  0  0  0
  -22.6121   -7.6391   21.2660 C   0  0  0  0  0  0  0  0  0  0  0  0
  -27.9001  -28.2546   20.6445 C   0  0  0  0  0  0  0  0  0  0  0  0
  -21.5362   -6.0901   22.6680 C   0  0  0  0  0  0  0  0  0  0  0  0
  -21.6896   -4.2136   24.7266 C   0  0  0  0  0  0  0  0  0  0  0  0
  -20.8045   -6.2796   23.8403 C   0  0  0  0  0  0  0  0  0  0  0  0
  -26.1911   -9.5620   20.0867 C   0  0  0  0  0  0  0  0  0  0  0  0
  -28.2646  -10.0039   19.5035 C   0  0  0  0  0  0  0  0  0  0  0  0
  -31.6115  -23.5336   18.7640 C   0  0  0  0  0  0  0  0  0  0  0  0
  -30.3469  -23.2164   19.1032 C   0  0  0  0  0  0  0  0  0  0  0  0
  -29.2867  -24.2401   19.0597 C   0  0  0  0  0  0  0  0  0  0  0  0
  -29.6116  -25.5516   18.9691 C   0  0  0  0  0  0  0  0  0  0  0  0
  -28.2537  -17.1901   20.4048 C   0  0  0  0  0  0  0  0  0  0  0  0
  -29.4629  -17.7722   20.6302 C   0  0  0  0  0  0  0  0  0  0  0  0
  -27.8345   -7.5868   19.9739 C   0  0  0  0  0  0  0  0  0  0  0  0
  -27.9095  -15.7972   20.7542 C   0  0  0  0  0  0  0  0  0  0  0  0
  -22.6530  -29.0163   21.8068 C   0  0  0  0  0  0  0  0  0  0  0  0
  -22.5501  -31.2134   19.4227 C   0  0  0  0  0  0  0  0  0  0  0  0
  -24.1953  -32.8586   16.9260 C   0  0  0  0  0  0  0  0  0  0  0  0
  -17.6214  -28.3826   22.3894 C   0  0  0  0  0  0  0  0  0  0  0  0
  -24.6366  -30.4658   22.3724 C   0  0  0  0  0  0  0  0  0  0  0  0
  -24.5926  -29.7348   19.5073 C   0  0  0  0  0  0  0  0  0  0  0  0
  -32.0177  -24.9152   18.3606 C   0  0  0  0  0  0  0  0  0  0  0  0
  -31.0549  -25.9965   18.8541 C   0  0  0  0  0  0  0  0  0  0  0  0
  -18.5818  -28.4634   21.2056 C   0  0  0  0  0  0  0  0  0  0  0  0
  -28.1866  -14.2956   17.4225 C   0  0  0  0  0  0  0  0  0  0  0  0
  -19.7781  -27.5428   21.4249 C   0  0  0  0  0  0  0  0  0  0  0  0
  -27.7699  -12.8563   17.7135 C   0  0  0  0  0  0  0  0  0  0  0  0
  -27.4332  -15.2969   18.2968 C   0  0  0  0  0  0  0  0  0  0  0  0
  -27.1222  -13.5714   20.0479 C   0  0  0  0  0  0  0  0  0  0  0  0
  -20.5728  -27.9577   22.6689 C   0  0  1  0  0  0  0  0  0  0  0  0
  -23.3297  -30.3410   21.5954 C   0  0  1  0  0  0  0  0  0  0  0  0
  -27.9019  -12.5439   19.2125 C   0  0  1  0  0  0  0  0  0  0  0  0
  -27.8684  -23.7290   19.1161 C   0  0  0  0  0  0  0  0  0  0  0  0
  -30.6200  -17.0485   21.2983 C   0  0  0  0  0  0  0  0  0  0  0  0
  -23.8377  -34.5685   15.1244 C   0  0  0  0  0  0  0  0  0  0  0  0
  -21.1091  -29.1242   17.7290 C   0  0  0  0  0  0  0  0  0  0  0  0
  -21.6255  -30.5080   15.7075 C   0  0  0  0  0  0  0  0  0  0  0  0
  -20.1955  -31.4433   17.5250 C   0  0  0  0  0  0  0  0  0  0  0  0
  -26.1924  -34.6938   18.1103 C   0  0  0  0  0  0  0  0  0  0  0  0
  -28.6319  -26.6942   19.0057 C   0  0  0  0  0  0  0  0  0  1  0  0
  -22.6774  -31.1663   17.9192 C   0  0  1  0  0  0  0  0  0  0  0  0
  -24.2640  -34.3315   16.5648 C   0  0  2  0  0  0  0  0  0  0  0  0
  -21.4228  -30.5513   17.2372 C   0  0  0  0  0  0  0  0  0  0  0  0
  -26.2076  -10.8822   19.8843 N   0  0  0  0  0  0  0  0  0  0  0  0
  -27.4821  -11.1206   19.5310 N   0  0  0  0  0  0  0  0  0  0  0  0
  -27.5255  -14.9438   19.7214 N   0  0  0  0  0  0  0  0  0  0  0  0
  -23.5131  -30.5012   20.1514 N   0  0  0  0  0  0  0  0  0  0  0  0
  -29.5710  -10.0643   19.1686 N   0  0  0  0  0  0  0  0  0  0  0  0
  -26.8675   -6.6471   20.3561 N   0  0  0  0  0  0  0  0  0  0  0  0
  -21.3990  -29.1102   22.3797 N   0  0  0  0  0  0  0  0  0  0  0  0
  -22.9825  -32.5276   17.4924 N   0  0  0  0  0  0  0  0  0  0  0  0
  -25.6538  -34.8420   16.7338 N   0  3  0  0  0  0  0  0  0  0  0  0
  -29.0093   -7.2048   19.7558 O   0  0  0  0  0  0  0  0  0  0  0  0
  -27.9785  -15.4752   21.9418 O   0  0  0  0  0  0  0  0  0  0  0  0
  -23.2254  -27.9854   21.4735 O   0  0  0  0  0  0  0  0  0  0  0  0
  -21.6343  -31.8643   19.9319 O   0  0  0  0  0  0  0  0  0  0  0  0
  -25.1232  -32.0789   16.7222 O   0  0  0  0  0  0  0  0  0  0  0  0
  -21.4605   -7.0203   21.6449 O   0  0  0  0  0  0  0  0  0  0  0  0
  -28.9353  -27.5601   20.0986 O   0  0  0  0  0  0  0  0  0  1  0  0
  -21.7621   -3.3118   25.7143 F   0  0  0  0  0  0  0  0  0  0  0  0
  -20.0253   -7.3605   23.9831 F   0  0  0  0  0  0  0  0  0  0  0  0
  1  2  1  0  0  0  0
  1  9  2  0  0  0  0
  2 10  2  0  0  0  0
  3 12  2  0  0  0  0
  3 19  1  0  0  0  0
  4 13  1  0  0  0  0
  4 19  2  0  0  0  0
  5  7  2  0  0  0  0
  5 20  1  0  0  0  0
  6  8  1  0  0  0  0
  6 20  2  0  0  0  0
  7 21  1  0  0  0  0
  8 21  2  0  0  0  0
  9 23  1  0  0  0  0
 10 25  1  0  0  0  0
 11 14  2  0  0  0  0
 11 24  1  0  0  0  0
 12 27  1  0  0  0  0
 13 27  2  0  0  0  0
 14 28  1  0  0  0  0
 15 16  2  0  0  0  0
 15 29  1  0  0  0  0
 16 30  1  0  0  0  0
 17 26  1  0  0  0  0
 17 28  2  0  0  0  0
 18 30  2  0  0  0  0
 18 31  1  0  0  0  0
 19 32  1  0  0  0  0
 20 35  1  0  0  0  0
 21 39  1  0  0  0  0
 22 32  1  0  0  0  0
 22 33  2  0  0  0  0
 22 40  1  0  0  0  0
 23 25  2  0  0  0  0
 23 45  1  0  0  0  0
 24 26  2  0  0  0  0
 24 46  1  0  0  0  0
 25 56  1  0  0  0  0
 26 47  1  0  0  0  0
 27 84  1  0  0  0  0
 28 85  1  0  0  0  0
 29 31  2  0  0  0  0
 29 84  1  0  0  0  0
 30 86  1  0  0  0  0
 31 87  1  0  0  0  0
 32 70  2  0  0  0  0
 33 71  1  0  0  0  0
 33 74  1  0  0  0  0
 34 35  2  0  0  0  0
 34 48  1  0  0  0  0
 35 36  1  0  0  0  0
 36 37  2  0  0  0  0
 36 59  1  0  0  0  0
 37 49  1  0  0  0  0
 37 66  1  0  0  0  0
 38 39  2  0  0  0  0
 38 41  1  0  0  0  0
 39 60  1  0  0  0  0
 40 75  1  0  0  0  0
 40 79  2  0  0  0  0
 41 72  1  0  0  0  0
 41 80  2  0  0  0  0
 42 57  1  0  0  0  0
 42 76  1  0  0  0  0
 42 81  2  0  0  0  0
 43 67  1  0  0  0  0
 43 73  1  0  0  0  0
 43 82  2  0  0  0  0
 44 68  1  0  0  0  0
 44 77  1  0  0  0  0
 44 83  2  0  0  0  0
 45 50  1  0  0  0  0
 46 57  1  0  0  0  0
 47 73  1  0  0  0  0
 48 49  1  0  0  0  0
 50 52  1  0  0  0  0
 51 53  1  0  0  0  0
 51 54  1  0  0  0  0
 52 56  1  0  0  0  0
 53 58  1  0  0  0  0
 54 72  1  0  0  0  0
 55 58  1  0  0  0  0
 55 72  1  0  0  0  0
 56 76  1  0  0  0  0
 57 73  1  0  0  0  0
 58 71  1  0  0  0  0
 61 68  1  0  0  0  0
 62 69  1  0  0  0  0
 63 69  1  0  0  0  0
 64 69  1  0  0  0  0
 65 78  1  0  0  0  0
 66 85  1  0  0  0  0
 67 69  1  0  0  0  0
 67 77  1  0  0  0  0
 68 78  1  0  0  0  0
 70 71  1  0  0  0  0
M  CHG  1  78   1
M  ISO  4  38 100  41 100  66 101  85 101
M  END
> <Batch ID>
0127

> <Smiles>
CNC(C)C(=O)NC(C(=O)N1Cc2cc([101O:1][101CH2:1]C3=C(C)C(c4ccc(C(C)=[100CH:0][100C:0](=O)N5CCCC(n6nc(-c7ccc(Oc8ccc(F)cc8F)cc7)c(C(N)=O)c6N)C5)cc4)=CCC3)ccc2CC1C(=O)NC1CCCc2ccccc21)C(C)(C)C

> <Shape>
0.303

> <Color>
0.114

> <Negative vol penalty>
0.000

$$$$

  -OEChem-04052302143D

 82 90  0     1  0  0  0  0  0999 V2000
  -26.6555  -18.6426   18.3380 C   0  0  0  0  0  0  0  0  0  0  0  0
  -25.8446  -19.7115   18.7056 C   0  0  0  0  0  0  0  0  0  0  0  0
  -25.1584  -15.9135   21.1891 C   0  0  0  0  0  0  0  0  0  0  0  0
  -25.1436  -15.2190   23.5031 C   0  0  0  0  0  0  0  0  0  0  0  0
  -27.9810  -18.5945   18.7679 C   0  0  0  0  0  0  0  0  0  0  0  0
  -26.3584  -20.7326   19.5043 C   0  0  0  0  0  0  0  0  0  0  0  0
  -24.9346  -26.6831   19.2406 C   0  0  0  0  0  0  0  0  0  0  0  0
  -18.9336  -28.7306   22.9317 C   0  0  0  0  0  0  0  0  0  0  0  0
  -18.0375  -27.7128   22.6048 C   0  0  0  0  0  0  0  0  0  0  0  0
  -26.4142  -15.3300   21.0220 C   0  0  0  0  0  0  0  0  0  0  0  0
  -26.3995  -14.6354   23.3359 C   0  0  0  0  0  0  0  0  0  0  0  0
  -24.0641  -27.4734   19.9898 C   0  0  0  0  0  0  0  0  0  0  0  0
  -27.6787  -12.2273   20.5665 C   0  0  0  0  0  0  0  0  0  0  0  0
  -27.8870  -11.4530   19.4252 C   0  0  0  0  0  0  0  0  0  0  0  0
  -20.7772  -27.1907   22.6725 C   0  0  0  0  0  0  0  0  0  0  0  0
  -25.9038  -28.1620   21.3899 C   0  0  0  0  0  0  0  0  0  0  0  0
  -29.6734  -12.9319   18.7480 C   0  0  0  0  0  0  0  0  0  0  0  0
  -24.5231  -15.8580   22.4297 C   0  0  0  0  0  0  0  0  0  0  0  0
  -19.8811  -26.1729   22.3457 C   0  0  0  0  0  0  0  0  0  0  0  0
  -21.9721  -15.8503   22.4120 C   0  0  0  0  0  0  0  0  0  0  0  0
  -28.5141  -19.6203   19.5642 C   0  0  0  0  0  0  0  0  0  0  0  0
  -26.2967  -26.6178   19.5677 C   0  0  0  0  0  0  0  0  0  0  0  0
  -27.6919  -20.6975   19.9463 C   0  0  0  0  0  0  0  0  0  0  0  0
  -26.7900  -27.3722   20.6417 C   0  0  0  0  0  0  0  0  0  0  0  0
  -20.3034  -28.4695   22.9655 C   0  0  0  0  0  0  0  0  0  0  0  0
  -18.5113  -26.4340   22.3118 C   0  0  0  0  0  0  0  0  0  0  0  0
  -27.0348  -14.6910   22.0953 C   0  0  0  0  0  0  0  0  0  0  0  0
  -24.5480  -28.2107   21.0664 C   0  0  0  0  0  0  0  0  0  0  0  0
  -28.4677  -13.3540   20.7986 C   0  0  0  0  0  0  0  0  0  0  0  0
  -28.8844  -11.8053   18.5159 C   0  0  0  0  0  0  0  0  0  0  0  0
  -29.4651  -13.7063   19.8893 C   0  0  0  0  0  0  0  0  0  0  0  0
  -23.2260  -16.4611   22.6031 C   0  0  0  0  0  0  0  0  0  0  0  0
  -21.0618  -16.8367   22.7032 C   0  0  0  0  0  0  0  0  0  0  0  0
  -20.4066  -24.8475   22.0449 C   0  0  0  0  0  0  0  0  0  0  0  0
  -21.1134  -24.0765   22.8961 C   0  0  0  0  0  0  0  0  0  0  0  0
  -21.6584  -14.5110   22.0076 C   0  0  0  0  0  0  0  0  0  0  0  0
  -21.5700  -22.7467   22.4446 C   0  0  0  0  0  0  0  0  0  0  0  0
  -28.2739  -24.3058   20.4891 C   0  0  0  0  0  0  0  0  0  0  0  0
  -30.5137  -26.6316   20.1793 C   0  0  0  0  0  0  0  0  0  0  0  0
  -31.2415  -29.9655   20.1349 C   0  0  0  0  0  0  0  0  0  0  0  0
  -29.9390  -19.5009   20.0438 C   0  0  0  0  0  0  0  0  0  0  0  0
  -27.2275  -25.7815   18.7331 C   0  0  0  0  0  0  0  0  0  0  0  0
  -28.2474  -27.3524   21.0215 C   0  0  0  0  0  0  0  0  0  0  0  0
  -30.5140  -20.8106   20.5770 C   0  0  0  0  0  0  0  0  0  0  0  0
  -20.5044  -20.7713   25.3419 C   0  0  0  0  0  0  0  0  0  0  0  0
  -29.5222  -21.4843   21.5201 C   0  0  0  0  0  0  0  0  0  0  0  0
  -21.0178  -19.3862   24.9578 C   0  0  0  0  0  0  0  0  0  0  0  0
  -21.4271  -21.8819   24.8421 C   0  0  0  0  0  0  0  0  0  0  0  0
  -22.2119  -20.4314   22.9927 C   0  0  0  0  0  0  0  0  0  0  0  0
  -28.2199  -21.8366   20.7912 C   0  0  1  0  0  0  0  0  0  0  0  0
  -28.5027  -25.3883   19.4725 C   0  0  1  0  0  0  0  0  0  0  0  0
  -21.2743  -19.3010   23.4448 C   0  0  1  0  0  0  0  0  0  0  0  0
  -17.5221  -25.3672   21.9676 C   0  0  0  0  0  0  0  0  0  0  0  0
  -33.1660  -31.5587   19.8997 C   0  0  0  0  0  0  0  0  0  0  0  0
  -31.3767  -26.0075   23.0386 C   0  0  0  0  0  0  0  0  0  0  0  0
  -32.5976  -28.1930   23.0731 C   0  0  0  0  0  0  0  0  0  0  0  0
  -33.2609  -26.4214   21.4471 C   0  0  0  0  0  0  0  0  0  0  0  0
  -30.0809  -31.1906   17.7036 C   0  0  0  0  0  0  0  0  0  0  0  0
  -21.2710  -29.5706   23.3190 C   0  0  0  0  0  0  0  0  0  0  0  0
  -21.7659  -30.3674   22.1100 C   0  0  0  0  0  0  0  0  0  0  0  0
  -22.5696  -29.5293   21.1225 C   0  0  0  0  0  0  0  0  0  1  0  0
  -31.0980  -27.6817   21.0930 C   0  0  1  0  0  0  0  0  0  0  0  0
  -32.0634  -30.8044   19.1730 C   0  0  2  0  0  0  0  0  0  0  0  0
  -32.0554  -27.0750   22.1572 C   0  0  0  0  0  0  0  0  0  0  0  0
  -23.1252  -17.7367   22.9859 N   0  0  0  0  0  0  0  0  0  0  0  0
  -21.7971  -17.9356   23.0376 N   0  0  0  0  0  0  0  0  0  0  0  0
  -21.7044  -21.7450   23.4044 N   0  0  0  0  0  0  0  0  0  0  0  0
  -29.1166  -26.5145   20.1789 N   0  0  0  0  0  0  0  0  0  0  0  0
  -19.7121  -16.8626   22.7031 N   0  0  0  0  0  0  0  0  0  0  0  0
  -22.7143  -13.6267   21.7481 N   0  0  0  0  0  0  0  0  0  0  0  0
  -28.3977  -23.0252   19.9848 N   0  0  0  0  0  0  0  0  0  0  0  0
  -31.7212  -28.6760   20.2262 N   0  0  0  0  0  0  0  0  0  0  0  0
  -31.1947  -31.7961   18.4781 N   0  3  0  0  0  0  0  0  0  0  0  0
  -20.4767  -14.1152   21.8642 O   0  0  0  0  0  0  0  0  0  0  0  0
  -21.8096  -22.6051   21.2441 O   0  0  0  0  0  0  0  0  0  0  0  0
  -28.0064  -24.6098   21.6456 O   0  0  0  0  0  0  0  0  0  0  0  0
  -31.2688  -25.9454   19.4859 O   0  0  0  0  0  0  0  0  0  0  0  0
  -30.2732  -30.4108   20.7471 O   0  0  0  0  0  0  0  0  0  0  0  0
  -28.2601  -14.1213   21.9325 O   0  0  0  0  0  0  0  0  0  0  0  0
  -23.7003  -28.9824   21.7998 O   0  0  0  0  0  0  0  0  0  1  0  0
  -29.0853  -11.0607   17.4208 F   0  0  0  0  0  0  0  0  0  0  0  0
  -30.2270  -14.7869   20.1074 F   0  0  0  0  0  0  0  0  0  0  0  0
  1  2  1  0  0  0  0
  1  5  2  0  0  0  0
  2  6  2  0  0  0  0
  3 10  2  0  0  0  0
  3 18  1  0  0  0  0
  4 11  1  0  0  0  0
  4 18  2  0  0  0  0
  5 21  1  0  0  0  0
  6 23  1  0  0  0  0
  7 12  2  0  0  0  0
  7 22  1  0  0  0  0
  8  9  2  0  0  0  0
  8 25  1  0  0  0  0
  9 26  1  0  0  0  0
 10 27  1  0  0  0  0
 11 27  2  0  0  0  0
 12 28  1  0  0  0  0
 13 14  2  0  0  0  0
 13 29  1  0  0  0  0
 14 30  1  0  0  0  0
 15 19  1  0  0  0  0
 15 25  2  0  0  0  0
 16 24  1  0  0  0  0
 16 28  2  0  0  0  0
 17 30  2  0  0  0  0
 17 31  1  0  0  0  0
 18 32  1  0  0  0  0
 19 26  2  0  0  0  0
 19 34  1  0  0  0  0
 20 32  1  0  0  0  0
 20 33  2  0  0  0  0
 20 36  1  0  0  0  0
 21 23  2  0  0  0  0
 21 41  1  0  0  0  0
 22 24  2  0  0  0  0
 22 42  1  0  0  0  0
 23 50  1  0  0  0  0
 24 43  1  0  0  0  0
 25 59  1  0  0  0  0
 26 53  1  0  0  0  0
 27 79  1  0  0  0  0
 28 80  1  0  0  0  0
 29 31  2  0  0  0  0
 29 79  1  0  0  0  0
 30 81  1  0  0  0  0
 31 82  1  0  0  0  0
 32 65  2  0  0  0  0
 33 66  1  0  0  0  0
 33 69  1  0  0  0  0
 34 35  2  0  0  0  0
 35 37  1  0  0  0  0
 36 70  1  0  0  0  0
 36 74  2  0  0  0  0
 37 67  1  0  0  0  0
 37 75  2  0  0  0  0
 38 51  1  0  0  0  0
 38 71  1  0  0  0  0
 38 76  2  0  0  0  0
 39 62  1  0  0  0  0
 39 68  1  0  0  0  0
 39 77  2  0  0  0  0
 40 63  1  0  0  0  0
 40 72  1  0  0  0  0
 40 78  2  0  0  0  0
 41 44  1  0  0  0  0
 42 51  1  0  0  0  0
 43 68  1  0  0  0  0
 44 46  1  0  0  0  0
 45 47  1  0  0  0  0
 45 48  1  0  0  0  0
 46 50  1  0  0  0  0
 47 52  1  0  0  0  0
 48 67  1  0  0  0  0
 49 52  1  0  0  0  0
 49 67  1  0  0  0  0
 50 71  1  0  0  0  0
 51 68  1  0  0  0  0
 52 66  1  0  0  0  0
 54 63  1  0  0  0  0
 55 64  1  0  0  0  0
 56 64  1  0  0  0  0
 57 64  1  0  0  0  0
 58 73  1  0  0  0  0
 59 60  1  0  0  0  0
 60 61  1  0  0  0  0
 61 80  1  0  0  0  0
 62 64  1  0  0  0  0
 62 72  1  0  0  0  0
 63 73  1  0  0  0  0
 65 66  1  0  0  0  0
M  CHG  1  73   1
M  ISO  4  35 100  37 100  61 101  80 101
M  END
> <Batch ID>
0127

> <Smiles>
CNC(C)C(=O)NC(C(=O)N1Cc2cc([101O:1][101CH2:1]CCc3ccc(C)c(C=[100CH:0][100C:0](=O)N4CCCC(n5nc(-c6ccc(Oc7ccc(F)cc7F)cc6)c(C(N)=O)c5N)C4)c3)ccc2CC1C(=O)NC1CCCc2ccccc21)C(C)(C)C

> <Shape>
0.249

> <Color>
0.062

> <Negative vol penalty>
0.000

$$$$

  -OEChem-04052302143D

 82 90  0     1  0  0  0  0  0999 V2000
  -26.6555  -18.6426   18.3380 C   0  0  0  0  0  0  0  0  0  0  0  0
  -25.8446  -19.7115   18.7056 C   0  0  0  0  0  0  0  0  0  0  0  0
  -25.1584  -15.9135   21.1891 C   0  0  0  0  0  0  0  0  0  0  0  0
  -25.1436  -15.2190   23.5031 C   0  0  0  0  0  0  0  0  0  0  0  0
  -27.9810  -18.5945   18.7679 C   0  0  0  0  0  0  0  0  0  0  0  0
  -26.3584  -20.7326   19.5043 C   0  0  0  0  0  0  0  0  0  0  0  0
  -24.9346  -26.6831   19.2406 C   0  0  0  0  0  0  0  0  0  0  0  0
  -18.9336  -28.7306   22.9317 C   0  0  0  0  0  0  0  0  0  0  0  0
  -18.0375  -27.7128   22.6048 C   0  0  0  0  0  0  0  0  0  0  0  0
  -26.4142  -15.3300   21.0220 C   0  0  0  0  0  0  0  0  0  0  0  0
  -26.3995  -14.6354   23.3359 C   0  0  0  0  0  0  0  0  0  0  0  0
  -24.0641  -27.4734   19.9898 C   0  0  0  0  0  0  0  0  0  0  0  0
  -27.6787  -12.2273   20.5665 C   0  0  0  0  0  0  0  0  0  0  0  0
  -27.8870  -11.4530   19.4252 C   0  0  0  0  0  0  0  0  0  0  0  0
  -20.7772  -27.1907   22.6725 C   0  0  0  0  0  0  0  0  0  0  0  0
  -25.9038  -28.1620   21.3899 C   0  0  0  0  0  0  0  0  0  0  0  0
  -29.6734  -12.9319   18.7480 C   0  0  0  0  0  0  0  0  0  0  0  0
  -24.5231  -15.8580   22.4297 C   0  0  0  0  0  0  0  0  0  0  0  0
  -19.8811  -26.1729   22.3457 C   0  0  0  0  0  0  0  0  0  0  0  0
  -21.9721  -15.8503   22.4120 C   0  0  0  0  0  0  0  0  0  0  0  0
  -28.5141  -19.6203   19.5642 C   0  0  0  0  0  0  0  0  0  0  0  0
  -26.2967  -26.6178   19.5677 C   0  0  0  0  0  0  0  0  0  0  0  0
  -27.6919  -20.6975   19.9463 C   0  0  0  0  0  0  0  0  0  0  0  0
  -26.7900  -27.3722   20.6417 C   0  0  0  0  0  0  0  0  0  0  0  0
  -20.3034  -28.4695   22.9655 C   0  0  0  0  0  0  0  0  0  0  0  0
  -18.5113  -26.4340   22.3118 C   0  0  0  0  0  0  0  0  0  0  0  0
  -27.0348  -14.6910   22.0953 C   0  0  0  0  0  0  0  0  0  0  0  0
  -24.5480  -28.2107   21.0664 C   0  0  0  0  0  0  0  0  0  0  0  0
  -28.4677  -13.3540   20.7986 C   0  0  0  0  0  0  0  0  0  0  0  0
  -28.8844  -11.8053   18.5159 C   0  0  0  0  0  0  0  0  0  0  0  0
  -29.4651  -13.7063   19.8893 C   0  0  0  0  0  0  0  0  0  0  0  0
  -23.2260  -16.4611   22.6031 C   0  0  0  0  0  0  0  0  0  0  0  0
  -21.0618  -16.8367   22.7032 C   0  0  0  0  0  0  0  0  0  0  0  0
  -20.4066  -24.8475   22.0449 C   0  0  0  0  0  0  0  0  0  0  0  0
  -21.1134  -24.0765   22.8961 C   0  0  0  0  0  0  0  0  0  0  0  0
  -21.6584  -14.5110   22.0076 C   0  0  0  0  0  0  0  0  0  0  0  0
  -21.5700  -22.7467   22.4446 C   0  0  0  0  0  0  0  0  0  0  0  0
  -28.2739  -24.3058   20.4891 C   0  0  0  0  0  0  0  0  0  0  0  0
  -30.5137  -26.6316   20.1793 C   0  0  0  0  0  0  0  0  0  0  0  0
  -31.2415  -29.9655   20.1349 C   0  0  0  0  0  0  0  0  0  0  0  0
  -29.9390  -19.5009   20.0438 C   0  0  0  0  0  0  0  0  0  0  0  0
  -27.2275  -25.7815   18.7331 C   0  0  0  0  0  0  0  0  0  0  0  0
  -28.2474  -27.3524   21.0215 C   0  0  0  0  0  0  0  0  0  0  0  0
  -30.5140  -20.8106   20.5770 C   0  0  0  0  0  0  0  0  0  0  0  0
  -20.5044  -20.7713   25.3419 C   0  0  0  0  0  0  0  0  0  0  0  0
  -29.5222  -21.4843   21.5201 C   0  0  0  0  0  0  0  0  0  0  0  0
  -21.0178  -19.3862   24.9578 C   0  0  0  0  0  0  0  0  0  0  0  0
  -21.4271  -21.8819   24.8421 C   0  0  0  0  0  0  0  0  0  0  0  0
  -22.2119  -20.4314   22.9927 C   0  0  0  0  0  0  0  0  0  0  0  0
  -28.2199  -21.8366   20.7912 C   0  0  1  0  0  0  0  0  0  0  0  0
  -28.5027  -25.3883   19.4725 C   0  0  1  0  0  0  0  0  0  0  0  0
  -21.2743  -19.3010   23.4448 C   0  0  1  0  0  0  0  0  0  0  0  0
  -17.5221  -25.3672   21.9676 C   0  0  0  0  0  0  0  0  0  0  0  0
  -33.1660  -31.5587   19.8997 C   0  0  0  0  0  0  0  0  0  0  0  0
  -31.3767  -26.0075   23.0386 C   0  0  0  0  0  0  0  0  0  0  0  0
  -32.5976  -28.1930   23.0731 C   0  0  0  0  0  0  0  0  0  0  0  0
  -33.2609  -26.4214   21.4471 C   0  0  0  0  0  0  0  0  0  0  0  0
  -30.0809  -31.1906   17.7036 C   0  0  0  0  0  0  0  0  0  0  0  0
  -21.2710  -29.5706   23.3190 C   0  0  0  0  0  0  0  0  0  0  0  0
  -21.7659  -30.3674   22.1100 C   0  0  0  0  0  0  0  0  0  0  0  0
  -22.5696  -29.5293   21.1225 C   0  0  0  0  0  0  0  0  0  1  0  0
  -31.0980  -27.6817   21.0930 C   0  0  1  0  0  0  0  0  0  0  0  0
  -32.0634  -30.8044   19.1730 C   0  0  2  0  0  0  0  0  0  0  0  0
  -32.0554  -27.0750   22.1572 C   0  0  0  0  0  0  0  0  0  0  0  0
  -23.1252  -17.7367   22.9859 N   0  0  0  0  0  0  0  0  0  0  0  0
  -21.7971  -17.9356   23.0376 N   0  0  0  0  0  0  0  0  0  0  0  0
  -21.7044  -21.7450   23.4044 N   0  0  0  0  0  0  0  0  0  0  0  0
  -29.1166  -26.5145   20.1789 N   0  0  0  0  0  0  0  0  0  0  0  0
  -19.7121  -16.8626   22.7031 N   0  0  0  0  0  0  0  0  0  0  0  0
  -22.7143  -13.6267   21.7481 N   0  0  0  0  0  0  0  0  0  0  0  0
  -28.3977  -23.0252   19.9848 N   0  0  0  0  0  0  0  0  0  0  0  0
  -31.7212  -28.6760   20.2262 N   0  0  0  0  0  0  0  0  0  0  0  0
  -31.1947  -31.7961   18.4781 N   0  3  0  0  0  0  0  0  0  0  0  0
  -20.4767  -14.1152   21.8642 O   0  0  0  0  0  0  0  0  0  0  0  0
  -21.8096  -22.6051   21.2441 O   0  0  0  0  0  0  0  0  0  0  0  0
  -28.0064  -24.6098   21.6456 O   0  0  0  0  0  0  0  0  0  0  0  0
  -31.2688  -25.9454   19.4859 O   0  0  0  0  0  0  0  0  0  0  0  0
  -30.2732  -30.4108   20.7471 O   0  0  0  0  0  0  0  0  0  0  0  0
  -28.2601  -14.1213   21.9325 O   0  0  0  0  0  0  0  0  0  0  0  0
  -23.7003  -28.9824   21.7998 O   0  0  0  0  0  0  0  0  0  1  0  0
  -29.0853  -11.0607   17.4208 F   0  0  0  0  0  0  0  0  0  0  0  0
  -30.2270  -14.7869   20.1074 F   0  0  0  0  0  0  0  0  0  0  0  0
  1  2  1  0  0  0  0
  1  5  2  0  0  0  0
  2  6  2  0  0  0  0
  3 10  2  0  0  0  0
  3 18  1  0  0  0  0
  4 11  1  0  0  0  0
  4 18  2  0  0  0  0
  5 21  1  0  0  0  0
  6 23  1  0  0  0  0
  7 12  2  0  0  0  0
  7 22  1  0  0  0  0
  8  9  2  0  0  0  0
  8 25  1  0  0  0  0
  9 26  1  0  0  0  0
 10 27  1  0  0  0  0
 11 27  2  0  0  0  0
 12 28  1  0  0  0  0
 13 14  2  0  0  0  0
 13 29  1  0  0  0  0
 14 30  1  0  0  0  0
 15 19  1  0  0  0  0
 15 25  2  0  0  0  0
 16 24  1  0  0  0  0
 16 28  2  0  0  0  0
 17 30  2  0  0  0  0
 17 31  1  0  0  0  0
 18 32  1  0  0  0  0
 19 26  2  0  0  0  0
 19 34  1  0  0  0  0
 20 32  1  0  0  0  0
 20 33  2  0  0  0  0
 20 36  1  0  0  0  0
 21 23  2  0  0  0  0
 21 41  1  0  0  0  0
 22 24  2  0  0  0  0
 22 42  1  0  0  0  0
 23 50  1  0  0  0  0
 24 43  1  0  0  0  0
 25 59  1  0  0  0  0
 26 53  1  0  0  0  0
 27 79  1  0  0  0  0
 28 80  1  0  0  0  0
 29 31  2  0  0  0  0
 29 79  1  0  0  0  0
 30 81  1  0  0  0  0
 31 82  1  0  0  0  0
 32 65  2  0  0  0  0
 33 66  1  0  0  0  0
 33 69  1  0  0  0  0
 34 35  2  0  0  0  0
 35 37  1  0  0  0  0
 36 70  1  0  0  0  0
 36 74  2  0  0  0  0
 37 67  1  0  0  0  0
 37 75  2  0  0  0  0
 38 51  1  0  0  0  0
 38 71  1  0  0  0  0
 38 76  2  0  0  0  0
 39 62  1  0  0  0  0
 39 68  1  0  0  0  0
 39 77  2  0  0  0  0
 40 63  1  0  0  0  0
 40 72  1  0  0  0  0
 40 78  2  0  0  0  0
 41 44  1  0  0  0  0
 42 51  1  0  0  0  0
 43 68  1  0  0  0  0
 44 46  1  0  0  0  0
 45 47  1  0  0  0  0
 45 48  1  0  0  0  0
 46 50  1  0  0  0  0
 47 52  1  0  0  0  0
 48 67  1  0  0  0  0
 49 52  1  0  0  0  0
 49 67  1  0  0  0  0
 50 71  1  0  0  0  0
 51 68  1  0  0  0  0
 52 66  1  0  0  0  0
 54 63  1  0  0  0  0
 55 64  1  0  0  0  0
 56 64  1  0  0  0  0
 57 64  1  0  0  0  0
 58 73  1  0  0  0  0
 59 60  1  0  0  0  0
 60 61  1  0  0  0  0
 61 80  1  0  0  0  0
 62 64  1  0  0  0  0
 62 72  1  0  0  0  0
 63 73  1  0  0  0  0
 65 66  1  0  0  0  0
M  CHG  1  73   1
M  ISO  4  35 100  37 100  61 101  80 101
M  END
> <Batch ID>
0127

> <Smiles>
CNC(C)C(=O)NC(C(=O)N1Cc2cc([101O:1][101CH2:1]CCc3ccc(C)c(C=[100CH:0][100C:0](=O)N4CCCC(n5nc(-c6ccc(Oc7ccc(F)cc7F)cc6)c(C(N)=O)c5N)C4)c3)ccc2CC1C(=O)NC1CCCc2ccccc21)C(C)(C)C

> <Shape>
0.249

> <Color>
0.062

> <Negative vol penalty>
0.000

$$$$

  -OEChem-04052302143D

 84 92  0     1  0  0  0  0  0999 V2000
  -20.6221  -21.3228   24.0588 C   0  0  0  0  0  0  0  0  0  0  0  0
  -22.0020  -21.3704   24.2292 C   0  0  0  0  0  0  0  0  0  0  0  0
  -25.1511  -14.7785   22.0154 C   0  0  0  0  0  0  0  0  0  0  0  0
  -26.8454  -14.8520   20.2946 C   0  0  0  0  0  0  0  0  0  0  0  0
  -20.0045  -22.1719   23.1414 C   0  0  0  0  0  0  0  0  0  0  0  0
  -22.7652  -22.2665   23.4816 C   0  0  0  0  0  0  0  0  0  0  0  0
  -28.6704  -26.2971   23.9282 C   0  0  0  0  0  0  0  0  0  0  0  0
  -25.0885  -13.3903   21.8945 C   0  0  0  0  0  0  0  0  0  0  0  0
  -26.7829  -13.4638   20.1737 C   0  0  0  0  0  0  0  0  0  0  0  0
  -29.8577  -26.5479   23.2418 C   0  0  0  0  0  0  0  0  0  0  0  0
  -23.6955  -11.1332   19.7993 C   0  0  0  0  0  0  0  0  0  0  0  0
  -22.4322  -10.5435   19.7559 C   0  0  0  0  0  0  0  0  0  0  0  0
  -28.6734  -28.0219   21.7439 C   0  0  0  0  0  0  0  0  0  0  0  0
  -27.4635  -25.0233   17.2774 C   0  0  0  0  0  0  0  0  0  0  0  0
  -29.6809  -25.9789   17.3618 C   0  0  0  0  0  0  0  0  0  0  0  0
  -22.9584   -9.2702   21.7406 C   0  0  0  0  0  0  0  0  0  0  0  0
  -26.0295  -15.5094   21.2154 C   0  0  0  0  0  0  0  0  0  0  0  0
  -26.9305  -17.6859   22.1944 C   0  0  0  0  0  0  0  0  0  0  0  0
  -20.7594  -23.0856   22.3891 C   0  0  0  0  0  0  0  0  0  0  0  0
  -27.4715  -26.8994   23.5202 C   0  0  0  0  0  0  0  0  0  0  0  0
  -22.1573  -23.1277   22.5523 C   0  0  0  0  0  0  0  0  0  0  0  0
  -27.4727  -27.7792   22.4283 C   0  0  0  0  0  0  0  0  0  0  0  0
  -29.0454  -24.2602   18.9364 C   0  0  0  0  0  0  0  0  0  0  0  0
  -27.7790  -24.1960   18.3553 C   0  0  0  0  0  0  0  0  0  0  0  0
  -25.9044  -12.7330   20.9737 C   0  0  0  0  0  0  0  0  0  0  0  0
  -29.8588  -27.4081   22.1477 C   0  0  0  0  0  0  0  0  0  0  0  0
  -24.5903  -10.7914   20.8134 C   0  0  0  0  0  0  0  0  0  0  0  0
  -29.9964  -25.1517   18.4397 C   0  0  0  0  0  0  0  0  0  0  0  0
  -22.0637   -9.6120   20.7265 C   0  0  0  0  0  0  0  0  0  0  0  0
  -28.4145  -25.9147   16.7806 C   0  0  0  0  0  0  0  0  0  0  0  0
  -24.2217   -9.8599   21.7840 C   0  0  0  0  0  0  0  0  0  0  0  0
  -26.0941  -16.9434   21.3394 C   0  0  0  0  0  0  0  0  0  0  0  0
  -26.6109  -18.9962   21.9345 C   0  0  0  0  0  0  0  0  0  0  0  0
  -27.9089  -17.2318   23.1390 C   0  0  0  0  0  0  0  0  0  0  0  0
  -24.6739  -25.8314   22.4543 C   0  0  0  0  0  0  0  0  0  0  0  0
  -23.8422  -28.9600   22.6600 C   0  0  0  0  0  0  0  0  0  0  0  0
  -24.8349  -32.2249   22.7029 C   0  0  0  0  0  0  0  0  0  0  0  0
  -25.4997  -23.1233   18.3659 C   0  0  0  0  0  0  0  0  0  0  0  0
  -20.0527  -23.9503   21.3756 C   0  0  0  0  0  0  0  0  0  0  0  0
  -26.2043  -26.6395   24.2876 C   0  0  0  0  0  0  0  0  0  0  0  0
  -26.2162  -28.4668   21.9626 C   0  0  0  0  0  0  0  0  0  0  0  0
  -20.8902  -25.1320   20.8934 C   0  0  0  0  0  0  0  0  0  0  0  0
  -22.7963  -20.9904   19.2711 C   0  0  0  0  0  0  0  0  0  0  0  0
  -22.3046  -24.6777   20.5470 C   0  0  0  0  0  0  0  0  0  0  0  0
  -23.4821  -19.8084   19.9602 C   0  0  0  0  0  0  0  0  0  0  0  0
  -23.6205  -21.5194   18.0987 C   0  0  0  0  0  0  0  0  0  0  0  0
  -25.7004  -20.6690   19.1086 C   0  0  0  0  0  0  0  0  0  0  0  0
  -23.0165  -24.1033   21.7778 C   0  0  1  0  0  0  0  0  0  0  0  0
  -24.9448  -26.9059   23.4690 C   0  0  1  0  0  0  0  0  0  0  0  0
  -24.9388  -20.1432   20.3363 C   0  0  2  0  0  0  0  0  0  0  0  0
  -30.2683  -22.1997   19.6748 C   0  0  0  0  0  0  0  0  0  0  0  0
  -23.9242  -34.5590   22.8437 C   0  0  0  0  0  0  0  0  0  0  0  0
  -22.9513  -28.7854   19.7470 C   0  0  0  0  0  0  0  0  0  0  0  0
  -22.9581  -31.2878   19.6676 C   0  0  0  0  0  0  0  0  0  0  0  0
  -21.4211  -30.0954   21.2291 C   0  0  0  0  0  0  0  0  0  0  0  0
  -26.3034  -32.7708   25.2138 C   0  0  0  0  0  0  0  0  0  0  0  0
  -29.3938  -23.3767   20.0926 C   0  0  0  0  0  0  0  0  0  0  0  0
  -32.7843  -26.6727   20.1593 C   0  0  0  0  0  0  0  0  0  0  0  0
  -31.9892  -26.6104   21.4540 C   0  0  0  0  0  0  0  0  0  1  0  0
  -31.8972  -26.4913   18.9376 C   0  0  0  0  0  0  0  0  0  0  0  0
  -23.8995  -30.1450   21.7265 C   0  0  1  0  0  0  0  0  0  0  0  0
  -24.4736  -33.3755   23.6249 C   0  0  2  0  0  0  0  0  0  0  0  0
  -22.8310  -30.0641   20.5999 C   0  0  0  0  0  0  0  0  0  0  0  0
  -25.3025  -17.7176   20.5924 N   0  0  0  0  0  0  0  0  0  0  0  0
  -25.6401  -18.9603   20.9772 N   0  0  0  0  0  0  0  0  0  0  0  0
  -25.0014  -28.1755   22.7417 N   0  0  0  0  0  0  0  0  0  0  0  0
  -24.9874  -21.8190   18.5308 N   0  0  0  0  0  0  0  0  0  0  0  0
  -27.0683  -20.1640   22.4339 N   0  0  0  0  0  0  0  0  0  0  0  0
  -28.1112  -15.8522   23.2803 N   0  0  0  0  0  0  0  0  0  0  0  0
  -26.7983  -23.2973   18.8433 N   0  0  0  0  0  0  0  0  0  0  0  0
  -23.4745  -25.1709   22.6408 N   0  0  0  0  0  0  0  0  0  0  0  0
  -23.7926  -31.3325   22.5672 N   0  0  0  0  0  0  0  0  0  0  0  0
  -25.6742  -33.8290   24.3824 N   0  3  0  0  0  0  0  0  0  0  0  0
  -28.5720  -18.0255   23.8488 O   0  0  0  0  0  0  0  0  0  0  0  0
  -25.4917  -25.6183   21.5670 O   0  0  0  0  0  0  0  0  0  0  0  0
  -22.8096  -28.7427   23.2987 O   0  0  0  0  0  0  0  0  0  0  0  0
  -25.9308  -32.1294   22.1548 O   0  0  0  0  0  0  0  0  0  0  0  0
  -24.8255  -24.0267   17.8646 O   0  0  0  0  0  0  0  0  0  0  0  0
  -25.8438  -11.3784   20.8556 O   0  0  0  0  0  0  0  0  0  0  0  0
  -31.0162  -27.6541   21.4756 O   0  0  0  0  0  0  0  0  0  1  0  0
  -31.2460  -25.2295   18.9975 O   0  0  0  0  0  0  0  0  0  0  0  0
  -20.8499   -9.0469   20.6855 F   0  0  0  0  0  0  0  0  0  0  0  0
  -28.1112  -26.7098   15.7461 F   0  0  0  0  0  0  0  0  0  0  0  0
  -25.0766   -9.5284   22.7613 F   0  0  0  0  0  0  0  0  0  0  0  0
  1  2  1  0  0  0  0
  1  5  2  0  0  0  0
  2  6  2  0  0  0  0
  3  8  2  0  0  0  0
  3 17  1  0  0  0  0
  4  9  1  0  0  0  0
  4 17  2  0  0  0  0
  5 19  1  0  0  0  0
  6 21  1  0  0  0  0
  7 10  2  0  0  0  0
  7 20  1  0  0  0  0
  8 25  1  0  0  0  0
  9 25  2  0  0  0  0
 10 26  1  0  0  0  0
 11 12  2  0  0  0  0
 11 27  1  0  0  0  0
 12 29  1  0  0  0  0
 13 22  1  0  0  0  0
 13 26  2  0  0  0  0
 14 24  2  0  0  0  0
 14 30  1  0  0  0  0
 15 28  1  0  0  0  0
 15 30  2  0  0  0  0
 16 29  2  0  0  0  0
 16 31  1  0  0  0  0
 17 32  1  0  0  0  0
 18 32  1  0  0  0  0
 18 33  2  0  0  0  0
 18 34  1  0  0  0  0
 19 21  2  0  0  0  0
 19 39  1  0  0  0  0
 20 22  2  0  0  0  0
 20 40  1  0  0  0  0
 21 48  1  0  0  0  0
 22 41  1  0  0  0  0
 23 24  1  0  0  0  0
 23 28  2  0  0  0  0
 23 57  1  0  0  0  0
 24 70  1  0  0  0  0
 25 79  1  0  0  0  0
 26 80  1  0  0  0  0
 27 31  2  0  0  0  0
 27 79  1  0  0  0  0
 28 81  1  0  0  0  0
 29 82  1  0  0  0  0
 30 83  1  0  0  0  0
 31 84  1  0  0  0  0
 32 64  2  0  0  0  0
 33 65  1  0  0  0  0
 33 68  1  0  0  0  0
 34 69  1  0  0  0  0
 34 74  2  0  0  0  0
 35 49  1  0  0  0  0
 35 71  1  0  0  0  0
 35 75  2  0  0  0  0
 36 61  1  0  0  0  0
 36 66  1  0  0  0  0
 36 76  2  0  0  0  0
 37 62  1  0  0  0  0
 37 72  1  0  0  0  0
 37 77  2  0  0  0  0
 38 67  1  0  0  0  0
 38 70  1  0  0  0  0
 38 78  2  0  0  0  0
 39 42  1  0  0  0  0
 40 49  1  0  0  0  0
 41 66  1  0  0  0  0
 42 44  1  0  0  0  0
 43 45  1  0  0  0  0
 43 46  1  0  0  0  0
 44 48  1  0  0  0  0
 45 50  1  0  0  0  0
 46 67  1  0  0  0  0
 47 50  1  0  0  0  0
 47 67  1  0  0  0  0
 48 71  1  0  0  0  0
 49 66  1  0  0  0  0
 50 65  1  0  0  0  0
 51 57  1  0  0  0  0
 52 62  1  0  0  0  0
 53 63  1  0  0  0  0
 54 63  1  0  0  0  0
 55 63  1  0  0  0  0
 56 73  1  0  0  0  0
 58 59  1  0  0  0  0
 58 60  1  0  0  0  0
 59 80  1  0  0  0  0
 60 81  1  0  0  0  0
 61 63  1  0  0  0  0
 61 72  1  0  0  0  0
 62 73  1  0  0  0  0
 64 65  1  0  0  0  0
M  CHG  1  73   1
M  ISO  4  38 100  59 101  70 100  80 101
M  END
> <Batch ID>
0127

> <Smiles>
CCc1c([100NH:0][100C:0](=O)N2CCCC(n3nc(-c4ccc(Oc5ccc(F)cc5F)cc4)c(C(N)=O)c3N)C2)cc(F)cc1OCC[101CH2:1][101O:1]c1ccc2c(c1)CN(C(=O)C(NC(=O)C(C)NC)C(C)(C)C)C(C(=O)NC1CCCc3ccccc31)C2

> <Shape>
0.204

> <Color>
0.067

> <Negative vol penalty>
0.000

$$$$

  -OEChem-04052302143D

 82 90  0     1  0  0  0  0  0999 V2000
  -40.2466  -28.2652   18.2900 C   0  0  0  0  0  0  0  0  0  0  0  0
  -39.4041  -27.5460   19.1317 C   0  0  0  0  0  0  0  0  0  0  0  0
  -23.0300   -9.9328   19.8949 C   0  0  0  0  0  0  0  0  0  0  0  0
  -23.8353   -9.8012   22.1689 C   0  0  0  0  0  0  0  0  0  0  0  0
  -39.7147  -29.2153   17.4191 C   0  0  0  0  0  0  0  0  0  0  0  0
  -38.0293  -27.7774   19.1038 C   0  0  0  0  0  0  0  0  0  0  0  0
  -35.3371  -23.4882   19.1073 C   0  0  0  0  0  0  0  0  0  0  0  0
  -22.2699   -8.7810   20.0973 C   0  0  0  0  0  0  0  0  0  0  0  0
  -23.0751   -8.6494   22.3714 C   0  0  0  0  0  0  0  0  0  0  0  0
  -35.1938  -22.8274   20.3265 C   0  0  0  0  0  0  0  0  0  0  0  0
  -19.8452   -7.8766   22.9969 C   0  0  0  0  0  0  0  0  0  0  0  0
  -19.1111   -7.7861   24.1794 C   0  0  0  0  0  0  0  0  0  0  0  0
  -32.9898  -23.7760   20.5749 C   0  0  0  0  0  0  0  0  0  0  0  0
  -20.3305   -5.7898   24.7837 C   0  0  0  0  0  0  0  0  0  0  0  0
  -31.1189  -18.0337   24.3390 C   0  0  0  0  0  0  0  0  0  0  0  0
  -23.8128  -10.4429   20.9306 C   0  0  0  0  0  0  0  0  0  0  0  0
  -24.1992  -12.9645   20.9406 C   0  0  0  0  0  0  0  0  0  0  0  0
  -38.3317  -29.4515   17.3737 C   0  0  0  0  0  0  0  0  0  0  0  0
  -34.3103  -24.3080   18.6171 C   0  0  0  0  0  0  0  0  0  0  0  0
  -37.4786  -28.7325   18.2325 C   0  0  0  0  0  0  0  0  0  0  0  0
  -33.1215  -24.4441   19.3480 C   0  0  0  0  0  0  0  0  0  0  0  0
  -32.3151  -17.5064   23.9049 C   0  0  0  0  0  0  0  0  0  0  0  0
  -32.1321  -16.5473   22.8672 C   0  0  0  0  0  0  0  0  0  0  0  0
  -22.2924   -8.1393   21.3356 C   0  0  0  0  0  0  0  0  0  0  0  0
  -34.0212  -22.9735   21.0619 C   0  0  0  0  0  0  0  0  0  0  0  0
  -20.8220   -6.9237   22.7077 C   0  0  0  0  0  0  0  0  0  0  0  0
  -19.3537   -6.7427   25.0728 C   0  0  0  0  0  0  0  0  0  0  0  0
  -21.0646   -5.8804   23.6011 C   0  0  0  0  0  0  0  0  0  0  0  0
  -24.5987  -11.6324   20.7219 C   0  0  0  0  0  0  0  0  0  0  0  0
  -25.2977  -13.7134   20.5959 C   0  0  0  0  0  0  0  0  0  0  0  0
  -30.8028  -16.3779   22.5479 C   0  0  0  0  0  0  0  0  0  0  0  0
  -22.9471  -13.4789   21.4133 C   0  0  0  0  0  0  0  0  0  0  0  0
  -34.0478  -27.3974   17.9166 C   0  0  0  0  0  0  0  0  0  0  0  0
  -31.1360  -26.4983   16.8050 C   0  0  0  0  0  0  0  0  0  0  0  0
  -28.5623  -24.2593   16.9030 C   0  0  0  0  0  0  0  0  0  0  0  0
  -30.7849  -14.6517   20.7131 C   0  0  0  0  0  0  0  0  0  0  0  0
  -37.8082  -30.5221   16.4494 C   0  0  0  0  0  0  0  0  0  0  0  0
  -34.4697  -24.9928   17.2874 C   0  0  0  0  0  0  0  0  0  0  0  0
  -31.9813  -25.2964   18.8559 C   0  0  0  0  0  0  0  0  0  0  0  0
  -36.3019  -30.4411   16.2148 C   0  0  0  0  0  0  0  0  0  0  0  0
  -29.5788  -12.3909   18.2410 C   0  0  0  0  0  0  0  0  0  0  0  0
  -35.5654  -30.2495   17.5368 C   0  0  0  0  0  0  0  0  0  0  0  0
  -28.1428  -12.1016   18.6841 C   0  0  0  0  0  0  0  0  0  0  0  0
  -30.5217  -12.5376   19.4340 C   0  0  0  0  0  0  0  0  0  0  0  0
  -28.6564  -13.2188   20.8920 C   0  0  0  0  0  0  0  0  0  0  0  0
  -35.9793  -28.9373   18.2138 C   0  0  1  0  0  0  0  0  0  0  0  0
  -33.5652  -26.2112   17.1306 C   0  0  1  0  0  0  0  0  0  0  0  0
  -27.6573  -13.1273   19.7271 C   0  0  2  0  0  0  0  0  0  0  0  0
  -33.3733  -14.3750   22.7024 C   0  0  0  0  0  0  0  0  0  0  0  0
  -26.3024  -23.8109   15.9084 C   0  0  0  0  0  0  0  0  0  0  0  0
  -29.9283  -28.6695   18.5763 C   0  0  0  0  0  0  0  0  0  0  0  0
  -27.6981  -27.5697   18.2843 C   0  0  0  0  0  0  0  0  0  0  0  0
  -28.9030  -28.4882   16.3025 C   0  0  0  0  0  0  0  0  0  0  0  0
  -29.4550  -21.6872   15.7426 C   0  0  0  0  0  0  0  0  0  0  0  0
  -33.6548  -17.9061   24.4702 C   0  0  0  0  0  0  0  0  0  0  0  0
  -33.2424  -15.8158   22.2071 C   0  0  0  0  0  0  0  0  0  0  0  0
  -34.4533  -18.8485   23.5628 C   0  0  0  0  0  0  0  0  0  0  0  0
  -33.7627  -20.1951   23.3424 C   0  0  0  0  0  0  0  0  0  0  0  0
  -34.5650  -21.0881   22.4057 C   0  0  0  0  0  0  0  0  0  1  0  0
  -29.7547  -26.3768   17.4018 C   0  0  1  0  0  0  0  0  0  0  0  0
  -27.7973  -23.5548   15.7971 C   0  0  2  0  0  0  0  0  0  0  0  0
  -29.0931  -27.7615   17.6517 C   0  0  0  0  0  0  0  0  0  0  0  0
  -25.8530  -11.5374   20.2727 N   0  0  0  0  0  0  0  0  0  0  0  0
  -26.2511  -12.8193   20.2064 N   0  0  0  0  0  0  0  0  0  0  0  0
  -32.1876  -25.9506   17.5533 N   0  0  0  0  0  0  0  0  0  0  0  0
  -29.9996  -13.5285   20.3775 N   0  0  0  0  0  0  0  0  0  0  0  0
  -25.5315  -15.0430   20.5908 N   0  0  0  0  0  0  0  0  0  0  0  0
  -21.9253  -12.5705   21.7218 N   0  0  0  0  0  0  0  0  0  0  0  0
  -30.1713  -15.5418   21.5939 N   0  0  0  0  0  0  0  0  0  0  0  0
  -35.3223  -27.8133   17.5819 N   0  0  0  0  0  0  0  0  0  0  0  0
  -28.9989  -25.5061   16.5079 N   0  0  0  0  0  0  0  0  0  0  0  0
  -28.0285  -22.0841   15.8631 N   0  3  0  0  0  0  0  0  0  0  0  0
  -22.7351  -14.7085   21.5422 O   0  0  0  0  0  0  0  0  0  0  0  0
  -33.3173  -27.8990   18.7630 O   0  0  0  0  0  0  0  0  0  0  0  0
  -31.2758  -27.0523   15.7118 O   0  0  0  0  0  0  0  0  0  0  0  0
  -28.7503  -23.7555   18.0082 O   0  0  0  0  0  0  0  0  0  0  0  0
  -31.9075  -14.8259   20.2319 O   0  0  0  0  0  0  0  0  0  0  0  0
  -21.5506   -7.0154   21.5336 O   0  0  0  0  0  0  0  0  0  0  0  0
  -33.8791  -22.3301   22.2526 O   0  0  0  0  0  0  0  0  0  1  0  0
  -18.6497   -6.6568   26.2091 F   0  0  0  0  0  0  0  0  0  0  0  0
  -22.0025   -4.9626   23.3293 F   0  0  0  0  0  0  0  0  0  0  0  0
  -29.7822  -17.3729   23.4969 S   0  0  0  0  0  0  0  0  0  0  0  0
  1  2  1  0  0  0  0
  1  5  2  0  0  0  0
  2  6  2  0  0  0  0
  3  8  2  0  0  0  0
  3 16  1  0  0  0  0
  4  9  1  0  0  0  0
  4 16  2  0  0  0  0
  5 18  1  0  0  0  0
  6 20  1  0  0  0  0
  7 10  2  0  0  0  0
  7 19  1  0  0  0  0
  8 24  1  0  0  0  0
  9 24  2  0  0  0  0
 10 25  1  0  0  0  0
 11 12  2  0  0  0  0
 11 26  1  0  0  0  0
 12 27  1  0  0  0  0
 13 21  1  0  0  0  0
 13 25  2  0  0  0  0
 14 27  2  0  0  0  0
 14 28  1  0  0  0  0
 15 22  2  0  0  0  0
 15 82  1  0  0  0  0
 16 29  1  0  0  0  0
 17 29  1  0  0  0  0
 17 30  2  0  0  0  0
 17 32  1  0  0  0  0
 18 20  2  0  0  0  0
 18 37  1  0  0  0  0
 19 21  2  0  0  0  0
 19 38  1  0  0  0  0
 20 46  1  0  0  0  0
 21 39  1  0  0  0  0
 22 23  1  0  0  0  0
 22 55  1  0  0  0  0
 23 31  2  0  0  0  0
 23 56  1  0  0  0  0
 24 78  1  0  0  0  0
 25 79  1  0  0  0  0
 26 28  2  0  0  0  0
 26 78  1  0  0  0  0
 27 80  1  0  0  0  0
 28 81  1  0  0  0  0
 29 63  2  0  0  0  0
 30 64  1  0  0  0  0
 30 67  1  0  0  0  0
 31 69  1  0  0  0  0
 31 82  1  0  0  0  0
 32 68  1  0  0  0  0
 32 73  2  0  0  0  0
 33 47  1  0  0  0  0
 33 70  1  0  0  0  0
 33 74  2  0  0  0  0
 34 60  1  0  0  0  0
 34 65  1  0  0  0  0
 34 75  2  0  0  0  0
 35 61  1  0  0  0  0
 35 71  1  0  0  0  0
 35 76  2  0  0  0  0
 36 66  1  0  0  0  0
 36 69  1  0  0  0  0
 36 77  2  0  0  0  0
 37 40  1  0  0  0  0
 38 47  1  0  0  0  0
 39 65  1  0  0  0  0
 40 42  1  0  0  0  0
 41 43  1  0  0  0  0
 41 44  1  0  0  0  0
 42 46  1  0  0  0  0
 43 48  1  0  0  0  0
 44 66  1  0  0  0  0
 45 48  1  0  0  0  0
 45 66  1  0  0  0  0
 46 70  1  0  0  0  0
 47 65  1  0  0  0  0
 48 64  1  0  0  0  0
 49 56  1  0  0  0  0
 50 61  1  0  0  0  0
 51 62  1  0  0  0  0
 52 62  1  0  0  0  0
 53 62  1  0  0  0  0
 54 72  1  0  0  0  0
 55 57  1  0  0  0  0
 57 58  1  0  0  0  0
 58 59  1  0  0  0  0
 59 79  1  0  0  0  0
 60 62  1  0  0  0  0
 60 71  1  0  0  0  0
 61 72  1  0  0  0  0
 63 64  1  0  0  0  0
M  CHG  1  72   1
M  ISO  4  36 100  59 101  69 100  79 101
M  END
> <Batch ID>
0127

> <Smiles>
CCc1c(CCC[101CH2:1][101O:1]c2ccc3c(c2)CN(C(=O)C(NC(=O)C(C)NC)C(C)(C)C)C(C(=O)NC2CCCc4ccccc42)C3)csc1[100NH:0][100C:0](=O)N1CCCC(n2nc(-c3ccc(Oc4ccc(F)cc4F)cc3)c(C(N)=O)c2N)C1

> <Shape>
0.194

> <Color>
0.199

> <Negative vol penalty>
0.000

$$$$

  -OEChem-04052302143D

 82 90  0     1  0  0  0  0  0999 V2000
  -18.0035  -25.0144   23.1088 C   0  0  0  0  0  0  0  0  0  0  0  0
  -19.3340  -24.6538   22.9216 C   0  0  0  0  0  0  0  0  0  0  0  0
  -24.4999   -9.7380   21.9966 C   0  0  0  0  0  0  0  0  0  0  0  0
  -23.3482   -9.6077   19.8767 C   0  0  0  0  0  0  0  0  0  0  0  0
  -17.5821  -26.3063   22.7970 C   0  0  0  0  0  0  0  0  0  0  0  0
  -20.2438  -25.5847   22.4214 C   0  0  0  0  0  0  0  0  0  0  0  0
  -26.1663  -26.1016   23.8918 C   0  0  0  0  0  0  0  0  0  0  0  0
  -23.4343   -9.0847   22.6157 C   0  0  0  0  0  0  0  0  0  0  0  0
  -22.2826   -8.9543   20.4958 C   0  0  0  0  0  0  0  0  0  0  0  0
  -27.3303  -25.6570   23.2663 C   0  0  0  0  0  0  0  0  0  0  0  0
  -22.2929   -5.9165   22.9200 C   0  0  0  0  0  0  0  0  0  0  0  0
  -22.5937   -4.8884   23.8133 C   0  0  0  0  0  0  0  0  0  0  0  0
  -32.0156  -21.0019   17.2033 C   0  0  0  0  0  0  0  0  0  0  0  0
  -31.9271  -19.5911   17.1340 C   0  0  0  0  0  0  0  0  0  0  0  0
  -27.5879  -27.8171   22.2239 C   0  0  0  0  0  0  0  0  0  0  0  0
  -21.4774   -6.0984   25.5817 C   0  0  0  0  0  0  0  0  0  0  0  0
  -24.4568   -9.9995   20.6271 C   0  0  0  0  0  0  0  0  0  0  0  0
  -26.6946  -10.0840   19.4052 C   0  0  0  0  0  0  0  0  0  0  0  0
  -18.4891  -27.2564   22.3018 C   0  0  0  0  0  0  0  0  0  0  0  0
  -25.6976  -27.4060   23.6790 C   0  0  0  0  0  0  0  0  0  0  0  0
  -19.8338  -26.8902   22.1014 C   0  0  0  0  0  0  0  0  0  0  0  0
  -26.4191  -28.2766   22.8498 C   0  0  0  0  0  0  0  0  0  0  0  0
  -22.3257   -8.6928   21.8653 C   0  0  0  0  0  0  0  0  0  0  0  0
  -28.0397  -26.5139   22.4299 C   0  0  0  0  0  0  0  0  0  0  0  0
  -21.5844   -7.0356   23.3574 C   0  0  0  0  0  0  0  0  0  0  0  0
  -22.1860   -4.9793   25.1442 C   0  0  0  0  0  0  0  0  0  0  0  0
  -21.1766   -7.1265   24.6883 C   0  0  0  0  0  0  0  0  0  0  0  0
  -25.5570  -10.6749   19.9871 C   0  0  0  0  0  0  0  0  0  0  0  0
  -31.2757  -21.3777   18.3002 C   0  0  0  0  0  0  0  0  0  0  0  0
  -31.1397  -19.2052   18.1938 C   0  0  0  0  0  0  0  0  0  0  0  0
  -27.4318  -11.1448   18.9385 C   0  0  0  0  0  0  0  0  0  0  0  0
  -31.0531  -22.7453   18.8019 C   0  0  0  0  0  0  0  0  0  0  0  0
  -30.7621  -17.8889   18.5467 C   0  0  0  0  0  0  0  0  0  0  0  0
  -30.3008  -23.0519   19.8679 C   0  0  0  0  0  0  0  0  0  0  0  0
  -29.9570  -17.5163   19.5958 C   0  0  0  0  0  0  0  0  0  0  0  0
  -27.0528   -8.7000   19.2962 C   0  0  0  0  0  0  0  0  0  0  0  0
  -30.1307  -24.4729   20.2892 C   0  0  0  0  0  0  0  0  0  0  0  0
  -29.6448  -16.0919   19.8292 C   0  0  0  0  0  0  0  0  0  0  0  0
  -23.0565  -28.6660   22.4378 C   0  0  0  0  0  0  0  0  0  0  0  0
  -24.3724  -31.4499   23.4581 C   0  0  0  0  0  0  0  0  0  0  0  0
  -27.1851  -33.1821   24.3153 C   0  0  0  0  0  0  0  0  0  0  0  0
  -17.9769  -28.6265   21.9344 C   0  0  0  0  0  0  0  0  0  0  0  0
  -24.4549  -27.8788   24.3822 C   0  0  0  0  0  0  0  0  0  0  0  0
  -25.9693  -29.6929   22.6045 C   0  0  0  0  0  0  0  0  0  0  0  0
  -19.0831  -29.6643   21.7621 C   0  0  0  0  0  0  0  0  0  0  0  0
  -26.2549  -16.0228   18.4381 C   0  0  0  0  0  0  0  0  0  0  0  0
  -20.2167  -29.1001   20.9116 C   0  0  0  0  0  0  0  0  0  0  0  0
  -25.8520  -14.5774   18.7181 C   0  0  0  0  0  0  0  0  0  0  0  0
  -27.1581  -16.5870   19.5338 C   0  0  0  0  0  0  0  0  0  0  0  0
  -27.9634  -14.3076   20.0779 C   0  0  0  0  0  0  0  0  0  0  0  0
  -20.8558  -27.8791   21.5842 C   0  0  1  0  0  0  0  0  0  0  0  0
  -23.7894  -29.0631   23.6880 C   0  0  1  0  0  0  0  0  0  0  0  0
  -27.0927  -13.7045   18.9646 C   0  0  1  0  0  0  0  0  0  0  0  0
  -27.9482  -35.4502   25.0708 C   0  0  0  0  0  0  0  0  0  0  0  0
  -24.0230  -32.5105   20.6186 C   0  0  0  0  0  0  0  0  0  0  0  0
  -25.6228  -34.3515   21.1840 C   0  0  0  0  0  0  0  0  0  0  0  0
  -23.4659  -34.1520   22.4213 C   0  0  0  0  0  0  0  0  0  0  0  0
  -28.2686  -32.1017   26.8486 C   0  0  0  0  0  0  0  0  0  0  0  0
  -29.2583  -24.6919   21.5072 C   0  0  0  0  0  0  0  0  0  1  0  0
  -25.3057  -32.4740   22.8590 C   0  0  1  0  0  0  0  0  0  0  0  0
  -27.4997  -34.0649   25.5095 C   0  0  2  0  0  0  0  0  0  0  0  0
  -24.6120  -33.3448   21.7736 C   0  0  0  0  0  0  0  0  0  0  0  0
  -25.5664  -12.0077   19.8995 N   0  0  0  0  0  0  0  0  0  0  0  0
  -26.7189  -12.2630   19.2572 N   0  0  0  0  0  0  0  0  0  0  0  0
  -28.3064  -15.7052   19.7919 N   0  0  0  0  0  0  0  0  0  0  0  0
  -24.7448  -30.1063   23.3097 N   0  0  0  0  0  0  0  0  0  0  0  0
  -28.6138  -11.2208   18.2909 N   0  0  0  0  0  0  0  0  0  0  0  0
  -26.1816   -7.7403   19.8294 N   0  0  0  0  0  0  0  0  0  0  0  0
  -21.7423  -28.2954   22.6497 N   0  0  0  0  0  0  0  0  0  0  0  0
  -25.8491  -33.2355   23.9785 N   0  0  0  0  0  0  0  0  0  0  0  0
  -28.5848  -33.4578   26.3310 N   0  3  0  0  0  0  0  0  0  0  0  0
  -28.1220   -8.3263   18.7569 O   0  0  0  0  0  0  0  0  0  0  0  0
  -30.6643  -25.4004   19.6865 O   0  0  0  0  0  0  0  0  0  0  0  0
  -30.5894  -15.3313   20.0481 O   0  0  0  0  0  0  0  0  0  0  0  0
  -23.6398  -28.6953   21.3604 O   0  0  0  0  0  0  0  0  0  0  0  0
  -23.3542  -31.8283   24.0427 O   0  0  0  0  0  0  0  0  0  0  0  0
  -28.0399  -32.5149   23.7366 O   0  0  0  0  0  0  0  0  0  0  0  0
  -30.7385  -20.2884   18.9096 O   0  0  0  0  0  0  0  0  0  0  0  0
  -21.2858   -8.0550   22.4691 O   0  0  0  0  0  0  0  0  0  0  0  0
  -29.1759  -26.0823   21.8177 O   0  0  0  0  0  0  0  0  0  1  0  0
  -22.4736   -3.9913   26.0016 F   0  0  0  0  0  0  0  0  0  0  0  0
  -20.4946   -8.1986   25.1141 F   0  0  0  0  0  0  0  0  0  0  0  0
  1  2  1  0  0  0  0
  1  5  2  0  0  0  0
  2  6  2  0  0  0  0
  3  8  2  0  0  0  0
  3 17  1  0  0  0  0
  4  9  1  0  0  0  0
  4 17  2  0  0  0  0
  5 19  1  0  0  0  0
  6 21  1  0  0  0  0
  7 10  2  0  0  0  0
  7 20  1  0  0  0  0
  8 23  1  0  0  0  0
  9 23  2  0  0  0  0
 10 24  1  0  0  0  0
 11 12  2  0  0  0  0
 11 25  1  0  0  0  0
 12 26  1  0  0  0  0
 13 14  1  0  0  0  0
 13 29  2  0  0  0  0
 14 30  2  0  0  0  0
 15 22  1  0  0  0  0
 15 24  2  0  0  0  0
 16 26  2  0  0  0  0
 16 27  1  0  0  0  0
 17 28  1  0  0  0  0
 18 28  1  0  0  0  0
 18 31  2  0  0  0  0
 18 36  1  0  0  0  0
 19 21  2  0  0  0  0
 19 42  1  0  0  0  0
 20 22  2  0  0  0  0
 20 43  1  0  0  0  0
 21 51  1  0  0  0  0
 22 44  1  0  0  0  0
 23 79  1  0  0  0  0
 24 80  1  0  0  0  0
 25 27  2  0  0  0  0
 25 79  1  0  0  0  0
 26 81  1  0  0  0  0
 27 82  1  0  0  0  0
 28 63  2  0  0  0  0
 29 32  1  0  0  0  0
 29 78  1  0  0  0  0
 30 33  1  0  0  0  0
 30 78  1  0  0  0  0
 31 64  1  0  0  0  0
 31 67  1  0  0  0  0
 32 34  2  0  0  0  0
 33 35  2  0  0  0  0
 34 37  1  0  0  0  0
 35 38  1  0  0  0  0
 36 68  1  0  0  0  0
 36 72  2  0  0  0  0
 37 59  1  0  0  0  0
 37 73  2  0  0  0  0
 38 65  1  0  0  0  0
 38 74  2  0  0  0  0
 39 52  1  0  0  0  0
 39 69  1  0  0  0  0
 39 75  2  0  0  0  0
 40 60  1  0  0  0  0
 40 66  1  0  0  0  0
 40 76  2  0  0  0  0
 41 61  1  0  0  0  0
 41 70  1  0  0  0  0
 41 77  2  0  0  0  0
 42 45  1  0  0  0  0
 43 52  1  0  0  0  0
 44 66  1  0  0  0  0
 45 47  1  0  0  0  0
 46 48  1  0  0  0  0
 46 49  1  0  0  0  0
 47 51  1  0  0  0  0
 48 53  1  0  0  0  0
 49 65  1  0  0  0  0
 50 53  1  0  0  0  0
 50 65  1  0  0  0  0
 51 69  1  0  0  0  0
 52 66  1  0  0  0  0
 53 64  1  0  0  0  0
 54 61  1  0  0  0  0
 55 62  1  0  0  0  0
 56 62  1  0  0  0  0
 57 62  1  0  0  0  0
 58 71  1  0  0  0  0
 59 80  1  0  0  0  0
 60 62  1  0  0  0  0
 60 70  1  0  0  0  0
 61 71  1  0  0  0  0
 63 64  1  0  0  0  0
M  CHG  1  71   1
M  ISO  4  35 100  38 100  59 101  80 101
M  END
> <Batch ID>
0127

> <Smiles>
CNC(C)C(=O)NC(C(=O)N1Cc2cc([101O:1][101CH2:1]C(=O)C=Cc3ccc(C=[100CH:0][100C:0](=O)N4CCCC(n5nc(-c6ccc(Oc7ccc(F)cc7F)cc6)c(C(N)=O)c5N)C4)o3)ccc2CC1C(=O)NC1CCCc2ccccc21)C(C)(C)C

> <Shape>
0.281

> <Color>
0.102

> <Negative vol penalty>
0.000

$$$$

  -OEChem-04052302143D

 85 94  0     1  0  0  0  0  0999 V2000
  -25.5980  -31.0127   20.9885 C   0  0  0  0  0  0  0  0  0  0  0  0
  -25.9545  -29.6963   21.2630 C   0  0  0  0  0  0  0  0  0  0  0  0
  -23.0148   -9.8755   19.9786 C   0  0  0  0  0  0  0  0  0  0  0  0
  -23.7280   -9.9429   22.2860 C   0  0  0  0  0  0  0  0  0  0  0  0
  -26.1532  -32.0536   21.7316 C   0  0  0  0  0  0  0  0  0  0  0  0
  -26.8674  -29.4201   22.2802 C   0  0  0  0  0  0  0  0  0  0  0  0
  -32.6227  -17.4754   23.4432 C   0  0  0  0  0  0  0  0  0  0  0  0
  -26.8661  -24.5619   26.0089 C   0  0  0  0  0  0  0  0  0  0  0  0
  -32.0251  -16.5793   22.5570 C   0  0  0  0  0  0  0  0  0  0  0  0
  -22.2529   -8.7384   20.2473 C   0  0  0  0  0  0  0  0  0  0  0  0
  -22.9660   -8.8059   22.5547 C   0  0  0  0  0  0  0  0  0  0  0  0
  -27.5767  -23.3626   25.9872 C   0  0  0  0  0  0  0  0  0  0  0  0
  -23.2303   -5.4657   22.1024 C   0  0  0  0  0  0  0  0  0  0  0  0
  -23.8194   -4.4558   22.8631 C   0  0  0  0  0  0  0  0  0  0  0  0
  -30.4519  -18.3870   23.9852 C   0  0  0  0  0  0  0  0  0  0  0  0
  -29.1960  -24.3017   27.5089 C   0  0  0  0  0  0  0  0  0  0  0  0
  -22.0858   -4.6988   24.5282 C   0  0  0  0  0  0  0  0  0  0  0  0
  -23.7524  -10.4777   20.9979 C   0  0  0  0  0  0  0  0  0  0  0  0
  -24.1253  -12.9943   20.8100 C   0  0  0  0  0  0  0  0  0  0  0  0
  -31.8361  -18.3793   24.1574 C   0  0  0  0  0  0  0  0  0  0  0  0
  -27.0660  -31.7894   22.7649 C   0  0  0  0  0  0  0  0  0  0  0  0
  -27.3217  -25.6455   26.7735 C   0  0  0  0  0  0  0  0  0  0  0  0
  -27.4364  -30.4585   23.0370 C   0  0  0  0  0  0  0  0  0  0  0  0
  -28.4879  -25.5127   27.5406 C   0  0  0  0  0  0  0  0  0  0  0  0
  -29.8543  -17.4909   23.0989 C   0  0  0  0  0  0  0  0  0  0  0  0
  -30.6410  -16.5870   22.3848 C   0  0  0  0  0  0  0  0  0  0  0  0
  -22.2285   -8.2036   21.5353 C   0  0  0  0  0  0  0  0  0  0  0  0
  -28.7435  -23.2333   26.7350 C   0  0  0  0  0  0  0  0  0  0  0  0
  -22.0690   -6.0923   22.5547 C   0  0  0  0  0  0  0  0  0  0  0  0
  -23.2471   -4.0723   24.0759 C   0  0  0  0  0  0  0  0  0  0  0  0
  -21.4967   -5.7088   23.7676 C   0  0  0  0  0  0  0  0  0  0  0  0
  -24.5401  -11.6520   20.7208 C   0  0  0  0  0  0  0  0  0  0  0  0
  -25.2331  -13.7207   20.4472 C   0  0  0  0  0  0  0  0  0  0  0  0
  -31.5488  -20.9458   26.1416 C   0  0  0  0  0  0  0  0  0  0  0  0
  -32.0390  -20.7999   24.8926 C   0  0  0  0  0  0  0  0  0  0  0  0
  -22.8526  -13.5361   21.1871 C   0  0  0  0  0  0  0  0  0  0  0  0
  -28.2767  -28.6064   26.1219 C   0  0  0  0  0  0  0  0  0  0  0  0
  -28.3488  -28.8776   29.3536 C   0  0  0  0  0  0  0  0  0  0  0  0
  -28.6022  -27.3320   32.3857 C   0  0  0  0  0  0  0  0  0  0  0  0
  -30.7062  -14.7120   20.7035 C   0  0  0  0  0  0  0  0  0  0  0  0
  -27.6756  -32.9506   23.5095 C   0  0  0  0  0  0  0  0  0  0  0  0
  -26.5292  -26.9235   26.8072 C   0  0  0  0  0  0  0  0  0  0  0  0
  -29.0084  -26.6394   28.3939 C   0  0  0  0  0  0  0  0  0  0  0  0
  -31.8910  -19.5273   26.5477 C   0  0  0  0  0  0  0  0  0  0  0  0
  -28.3505  -32.5481   24.8183 C   0  0  0  0  0  0  0  0  0  0  0  0
  -29.6127  -12.2406   18.3855 C   0  0  0  0  0  0  0  0  0  0  0  0
  -29.2337  -31.3222   24.6084 C   0  0  0  0  0  0  0  0  0  0  0  0
  -28.1614  -11.9775   18.7938 C   0  0  0  0  0  0  0  0  0  0  0  0
  -30.5057  -12.4954   19.5985 C   0  0  0  0  0  0  0  0  0  0  0  0
  -28.5795  -13.2814   20.9180 C   0  0  0  0  0  0  0  0  0  0  0  0
  -32.4936  -19.3646   25.1320 C   0  0  1  0  0  0  0  0  0  0  0  0
  -28.4045  -30.1170   24.1489 C   0  0  1  0  0  0  0  0  0  0  0  0
  -27.3634  -28.1332   27.2171 C   0  0  1  0  0  0  0  0  0  0  0  0
  -27.6289  -13.0835   19.7260 C   0  0  2  0  0  0  0  0  0  0  0  0
  -28.3694  -17.5213   22.9347 C   0  0  0  0  0  0  0  0  0  0  0  0
  -33.4450  -22.4802   23.7503 C   0  0  0  0  0  0  0  0  0  0  0  0
  -28.6675  -27.8203   34.8463 C   0  0  0  0  0  0  0  0  0  0  0  0
  -31.2310  -29.8418   29.0833 C   0  0  0  0  0  0  0  0  0  0  0  0
  -31.5341  -29.4017   31.5292 C   0  0  0  0  0  0  0  0  0  0  0  0
  -29.8661  -31.0919   30.7652 C   0  0  0  0  0  0  0  0  0  0  0  0
  -26.1560  -25.7424   32.8839 C   0  0  0  0  0  0  0  0  0  0  0  0
  -32.1406  -21.7480   23.6791 C   0  0  0  0  0  0  0  0  0  0  0  0
  -30.8515  -22.1454   26.9041 C   0  0  0  0  0  0  0  0  0  1  0  0
  -29.3849  -28.6334   30.4240 C   0  0  1  0  0  0  0  0  0  0  0  0
  -27.7856  -27.4699   33.6579 C   0  0  2  0  0  0  0  0  0  0  0  0
  -30.4955  -29.7215   30.4329 C   0  0  0  0  0  0  0  0  0  0  0  0
  -25.8120  -11.5300   20.3318 N   0  0  0  0  0  0  0  0  0  0  0  0
  -26.2060  -12.8050   20.1732 N   0  0  0  0  0  0  0  0  0  0  0  0
  -28.2017  -27.8710   28.3887 N   0  0  0  0  0  0  0  0  0  0  0  0
  -29.9408  -13.5580   20.4331 N   0  0  0  0  0  0  0  0  0  0  0  0
  -25.4601  -15.0471   20.3390 N   0  0  0  0  0  0  0  0  0  0  0  0
  -21.8237  -12.6484   21.5303 N   0  0  0  0  0  0  0  0  0  0  0  0
  -30.0529  -15.6681   21.4806 N   0  0  0  0  0  0  0  0  0  0  0  0
  -27.7020  -29.5300   25.2697 N   0  0  0  0  0  0  0  0  0  0  0  0
  -28.6534  -28.5160   31.6808 N   0  0  0  0  0  0  0  0  0  0  0  0
  -27.0764  -26.1942   33.9590 N   0  3  0  0  0  0  0  0  0  0  0  0
  -22.6293  -14.7704   21.2030 O   0  0  0  0  0  0  0  0  0  0  0  0
  -29.4189  -28.1673   26.0558 O   0  0  0  0  0  0  0  0  0  0  0  0
  -27.6892  -29.9197   29.3768 O   0  0  0  0  0  0  0  0  0  0  0  0
  -29.1438  -26.2802   32.0525 O   0  0  0  0  0  0  0  0  0  0  0  0
  -31.8464  -14.8545   20.2545 O   0  0  0  0  0  0  0  0  0  0  0  0
  -21.4849   -7.0942   21.7980 O   0  0  0  0  0  0  0  0  0  0  0  0
  -29.4394  -22.0641   26.7151 O   0  0  0  0  0  0  0  0  0  1  0  0
  -23.8121   -3.1014   24.8055 F   0  0  0  0  0  0  0  0  0  0  0  0
  -20.3805   -6.3062   24.2067 F   0  0  0  0  0  0  0  0  0  0  0  0
  1  2  1  0  0  0  0
  1  5  2  0  0  0  0
  2  6  2  0  0  0  0
  3 10  2  0  0  0  0
  3 18  1  0  0  0  0
  4 11  1  0  0  0  0
  4 18  2  0  0  0  0
  5 21  1  0  0  0  0
  6 23  1  0  0  0  0
  7  9  2  0  0  0  0
  7 20  1  0  0  0  0
  8 12  2  0  0  0  0
  8 22  1  0  0  0  0
  9 26  1  0  0  0  0
 10 27  1  0  0  0  0
 11 27  2  0  0  0  0
 12 28  1  0  0  0  0
 13 14  2  0  0  0  0
 13 29  1  0  0  0  0
 14 30  1  0  0  0  0
 15 20  2  0  0  0  0
 15 25  1  0  0  0  0
 16 24  1  0  0  0  0
 16 28  2  0  0  0  0
 17 30  2  0  0  0  0
 17 31  1  0  0  0  0
 18 32  1  0  0  0  0
 19 32  1  0  0  0  0
 19 33  2  0  0  0  0
 19 36  1  0  0  0  0
 20 51  1  0  0  0  0
 21 23  2  0  0  0  0
 21 41  1  0  0  0  0
 22 24  2  0  0  0  0
 22 42  1  0  0  0  0
 23 52  1  0  0  0  0
 24 43  1  0  0  0  0
 25 26  2  0  0  0  0
 25 55  1  0  0  0  0
 26 73  1  0  0  0  0
 27 82  1  0  0  0  0
 28 83  1  0  0  0  0
 29 31  2  0  0  0  0
 29 82  1  0  0  0  0
 30 84  1  0  0  0  0
 31 85  1  0  0  0  0
 32 67  2  0  0  0  0
 33 68  1  0  0  0  0
 33 71  1  0  0  0  0
 34 35  2  0  0  0  0
 34 44  1  0  0  0  0
 34 63  1  0  0  0  0
 35 51  1  0  0  0  0
 35 62  1  0  0  0  0
 36 72  1  0  0  0  0
 36 77  2  0  0  0  0
 37 53  1  0  0  0  0
 37 74  1  0  0  0  0
 37 78  2  0  0  0  0
 38 64  1  0  0  0  0
 38 69  1  0  0  0  0
 38 79  2  0  0  0  0
 39 65  1  0  0  0  0
 39 75  1  0  0  0  0
 39 80  2  0  0  0  0
 40 70  1  0  0  0  0
 40 73  1  0  0  0  0
 40 81  2  0  0  0  0
 41 45  1  0  0  0  0
 42 53  1  0  0  0  0
 43 69  1  0  0  0  0
 44 51  1  0  0  0  0
 45 47  1  0  0  0  0
 46 48  1  0  0  0  0
 46 49  1  0  0  0  0
 47 52  1  0  0  0  0
 48 54  1  0  0  0  0
 49 70  1  0  0  0  0
 50 54  1  0  0  0  0
 50 70  1  0  0  0  0
 52 74  1  0  0  0  0
 53 69  1  0  0  0  0
 54 68  1  0  0  0  0
 56 62  1  0  0  0  0
 57 65  1  0  0  0  0
 58 66  1  0  0  0  0
 59 66  1  0  0  0  0
 60 66  1  0  0  0  0
 61 76  1  0  0  0  0
 63 83  1  0  0  0  0
 64 66  1  0  0  0  0
 64 75  1  0  0  0  0
 65 76  1  0  0  0  0
 67 68  1  0  0  0  0
M  CHG  1  76   1
M  ISO  4  40 100  63 101  73 100  83 101
M  END
> <Batch ID>
0127

> <Smiles>
CCC1=C([101CH2:1][101O:1]c2ccc3c(c2)CN(C(=O)C(NC(=O)C(C)NC)C(C)(C)C)C(C(=O)NC2CCCc4ccccc42)C3)CC1c1ccc([100NH:0][100C:0](=O)N2CCCC(n3nc(-c4ccc(Oc5ccc(F)cc5F)cc4)c(C(N)=O)c3N)C2)c(C)c1

> <Shape>
0.231

> <Color>
0.198

> <Negative vol penalty>
0.000

$$$$

  -OEChem-04052302143D

 83 91  0     1  0  0  0  0  0999 V2000
  -24.5150  -35.2918   20.8511 C   0  0  0  0  0  0  0  0  0  0  0  0
  -25.3039  -34.1476   20.9143 C   0  0  0  0  0  0  0  0  0  0  0  0
  -21.7069  -11.3081   22.0734 C   0  0  0  0  0  0  0  0  0  0  0  0
  -23.6593  -10.9809   20.6885 C   0  0  0  0  0  0  0  0  0  0  0  0
  -23.2926  -35.3321   21.5205 C   0  0  0  0  0  0  0  0  0  0  0  0
  -24.8714  -33.0435   21.6480 C   0  0  0  0  0  0  0  0  0  0  0  0
  -25.5315  -28.6805   19.1634 C   0  0  0  0  0  0  0  0  0  0  0  0
  -21.4662   -9.9342   22.0587 C   0  0  0  0  0  0  0  0  0  0  0  0
  -23.4187   -9.6070   20.6738 C   0  0  0  0  0  0  0  0  0  0  0  0
  -26.8208  -28.1503   19.1392 C   0  0  0  0  0  0  0  0  0  0  0  0
  -20.5430   -6.4743   22.6846 C   0  0  0  0  0  0  0  0  0  0  0  0
  -20.2157   -5.8603   23.8935 C   0  0  0  0  0  0  0  0  0  0  0  0
  -27.7140  -21.6970   19.2070 C   0  0  0  0  0  0  0  0  0  0  0  0
  -27.6783  -19.4300   20.0413 C   0  0  0  0  0  0  0  0  0  0  0  0
  -29.5483  -20.8739   20.5468 C   0  0  0  0  0  0  0  0  0  0  0  0
  -26.2199  -26.6243   20.9082 C   0  0  0  0  0  0  0  0  0  0  0  0
  -22.3314   -6.5643   24.8238 C   0  0  0  0  0  0  0  0  0  0  0  0
  -22.8034  -11.8314   21.3882 C   0  0  0  0  0  0  0  0  0  0  0  0
  -27.0789  -20.4600   19.3166 C   0  0  0  0  0  0  0  0  0  0  0  0
  -28.9488  -21.9039   19.8221 C   0  0  0  0  0  0  0  0  0  0  0  0
  -23.8309  -13.9678   22.3305 C   0  0  0  0  0  0  0  0  0  0  0  0
  -22.8404  -34.2244   22.2548 C   0  0  0  0  0  0  0  0  0  0  0  0
  -24.5784  -28.1932   20.0692 C   0  0  0  0  0  0  0  0  0  0  0  0
  -23.6424  -33.0695   22.3290 C   0  0  0  0  0  0  0  0  0  0  0  0
  -24.9185  -27.1483   20.9401 C   0  0  0  0  0  0  0  0  0  0  0  0
  -28.9131  -19.6369   20.6565 C   0  0  0  0  0  0  0  0  0  0  0  0
  -22.3221   -9.0837   21.3590 C   0  0  0  0  0  0  0  0  0  0  0  0
  -27.1660  -27.1240   20.0137 C   0  0  0  0  0  0  0  0  0  0  0  0
  -21.7646   -7.1333   22.5452 C   0  0  0  0  0  0  0  0  0  0  0  0
  -21.1099   -5.9053   24.9631 C   0  0  0  0  0  0  0  0  0  0  0  0
  -22.6587   -7.1783   23.6149 C   0  0  0  0  0  0  0  0  0  0  0  0
  -23.0522  -13.2506   21.4025 C   0  0  0  0  0  0  0  0  0  0  0  0
  -23.7518  -15.2727   21.9092 C   0  0  0  0  0  0  0  0  0  0  0  0
  -25.7910  -20.2443   18.6757 C   0  0  0  0  0  0  0  0  0  0  0  0
  -29.6192  -23.2098   19.7069 C   0  0  0  0  0  0  0  0  0  0  0  0
  -25.2574  -19.0411   18.3756 C   0  0  0  0  0  0  0  0  0  0  0  0
  -29.3627  -24.1298   18.7638 C   0  0  0  0  0  0  0  0  0  0  0  0
  -24.5605  -13.4966   23.4712 C   0  0  0  0  0  0  0  0  0  0  0  0
  -23.9258  -18.9863   17.7296 C   0  0  0  0  0  0  0  0  0  0  0  0
  -22.9228  -29.4483   22.4749 C   0  0  0  0  0  0  0  0  0  0  0  0
  -21.4642  -26.5509   22.4697 C   0  0  0  0  0  0  0  0  0  0  0  0
  -21.6119  -23.2344   21.6785 C   0  0  0  0  0  0  0  0  0  0  0  0
  -21.5340  -34.3322   23.0006 C   0  0  0  0  0  0  0  0  0  0  0  0
  -23.1842  -28.7576   20.0643 C   0  0  0  0  0  0  0  0  0  0  0  0
  -23.9260  -26.5760   21.9178 C   0  0  0  0  0  0  0  0  0  0  0  0
  -20.9750  -32.9839   23.4480 C   0  0  0  0  0  0  0  0  0  0  0  0
  -20.7676  -17.4594   18.4719 C   0  0  0  0  0  0  0  0  0  0  0  0
  -22.0699  -32.1391   24.0916 C   0  0  0  0  0  0  0  0  0  0  0  0
  -21.1497  -16.2645   19.3448 C   0  0  0  0  0  0  0  0  0  0  0  0
  -21.8270  -17.7367   17.4102 C   0  0  0  0  0  0  0  0  0  0  0  0
  -23.5884  -16.7393   18.8425 C   0  0  0  0  0  0  0  0  0  0  0  0
  -23.1961  -31.8426   23.0941 C   0  0  1  0  0  0  0  0  0  0  0  0
  -22.4453  -28.5360   21.3806 C   0  0  1  0  0  0  0  0  0  0  0  0
  -22.5555  -16.4457   19.9444 C   0  0  2  0  0  0  0  0  0  0  0  0
  -29.5539  -18.5360   21.4321 C   0  0  0  0  0  0  0  0  0  0  0  0
  -20.2821  -21.1117   21.8313 C   0  0  0  0  0  0  0  0  0  0  0  0
  -22.1330  -26.3484   25.4398 C   0  0  0  0  0  0  0  0  0  0  0  0
  -21.6565  -23.8940   25.3085 C   0  0  0  0  0  0  0  0  0  0  0  0
  -19.8462  -25.5417   24.8281 C   0  0  0  0  0  0  0  0  0  0  0  0
  -21.5509  -22.9242   18.7359 C   0  0  0  0  0  0  0  0  0  0  0  0
  -30.0815  -25.4483   18.6754 C   0  0  0  0  0  0  0  0  0  0  0  0
  -29.1130  -26.6232   18.7432 C   0  0  0  0  0  0  0  0  0  1  0  0
  -21.7130  -25.2275   23.1522 C   0  0  1  0  0  0  0  0  0  0  0  0
  -20.6235  -22.3216   20.9755 C   0  0  2  0  0  0  0  0  0  0  0  0
  -21.3567  -25.2648   24.6652 C   0  0  0  0  0  0  0  0  0  0  0  0
  -22.5176  -14.0348   20.4627 N   0  0  0  0  0  0  0  0  0  0  0  0
  -22.9610  -15.2583   20.7980 N   0  0  0  0  0  0  0  0  0  0  0  0
  -23.1539  -17.8673   18.0090 N   0  0  0  0  0  0  0  0  0  0  0  0
  -22.5775  -27.1655   21.8791 N   0  0  0  0  0  0  0  0  0  0  0  0
  -24.2820  -16.4195   22.3846 N   0  0  0  0  0  0  0  0  0  0  0  0
  -24.5353  -12.1256   23.7608 N   0  0  0  0  0  0  0  0  0  0  0  0
  -22.7988  -30.7927   22.1806 N   0  0  0  0  0  0  0  0  0  0  0  0
  -20.9729  -24.2288   22.3884 N   0  0  0  0  0  0  0  0  0  0  0  0
  -21.1915  -21.8391   19.6849 N   0  3  0  0  0  0  0  0  0  0  0  0
  -25.2021  -14.2708   24.2213 O   0  0  0  0  0  0  0  0  0  0  0  0
  -23.6473  -19.9394   17.0138 O   0  0  0  0  0  0  0  0  0  0  0  0
  -23.3692  -28.9680   23.5101 O   0  0  0  0  0  0  0  0  0  0  0  0
  -20.3228  -27.0184   22.4546 O   0  0  0  0  0  0  0  0  0  0  0  0
  -22.8289  -23.0784   21.6083 O   0  0  0  0  0  0  0  0  0  0  0  0
  -22.0877   -7.7430   21.3446 O   0  0  0  0  0  0  0  0  0  0  0  0
  -28.4238  -26.6052   19.9926 O   0  0  0  0  0  0  0  0  0  1  0  0
  -20.7947   -5.3170   26.1245 F   0  0  0  0  0  0  0  0  0  0  0  0
  -23.8332   -7.8109   23.4874 F   0  0  0  0  0  0  0  0  0  0  0  0
  1  2  1  0  0  0  0
  1  5  2  0  0  0  0
  2  6  2  0  0  0  0
  3  8  2  0  0  0  0
  3 18  1  0  0  0  0
  4  9  1  0  0  0  0
  4 18  2  0  0  0  0
  5 22  1  0  0  0  0
  6 24  1  0  0  0  0
  7 10  2  0  0  0  0
  7 23  1  0  0  0  0
  8 27  1  0  0  0  0
  9 27  2  0  0  0  0
 10 28  1  0  0  0  0
 11 12  2  0  0  0  0
 11 29  1  0  0  0  0
 12 30  1  0  0  0  0
 13 19  1  0  0  0  0
 13 20  2  0  0  0  0
 14 19  2  0  0  0  0
 14 26  1  0  0  0  0
 15 20  1  0  0  0  0
 15 26  2  0  0  0  0
 16 25  1  0  0  0  0
 16 28  2  0  0  0  0
 17 30  2  0  0  0  0
 17 31  1  0  0  0  0
 18 32  1  0  0  0  0
 19 34  1  0  0  0  0
 20 35  1  0  0  0  0
 21 32  1  0  0  0  0
 21 33  2  0  0  0  0
 21 38  1  0  0  0  0
 22 24  2  0  0  0  0
 22 43  1  0  0  0  0
 23 25  2  0  0  0  0
 23 44  1  0  0  0  0
 24 52  1  0  0  0  0
 25 45  1  0  0  0  0
 26 55  1  0  0  0  0
 27 80  1  0  0  0  0
 28 81  1  0  0  0  0
 29 31  2  0  0  0  0
 29 80  1  0  0  0  0
 30 82  1  0  0  0  0
 31 83  1  0  0  0  0
 32 66  2  0  0  0  0
 33 67  1  0  0  0  0
 33 70  1  0  0  0  0
 34 36  2  0  0  0  0
 35 37  2  0  0  0  0
 36 39  1  0  0  0  0
 37 61  1  0  0  0  0
 38 71  1  0  0  0  0
 38 75  2  0  0  0  0
 39 68  1  0  0  0  0
 39 76  2  0  0  0  0
 40 53  1  0  0  0  0
 40 72  1  0  0  0  0
 40 77  2  0  0  0  0
 41 63  1  0  0  0  0
 41 69  1  0  0  0  0
 41 78  2  0  0  0  0
 42 64  1  0  0  0  0
 42 73  1  0  0  0  0
 42 79  2  0  0  0  0
 43 46  1  0  0  0  0
 44 53  1  0  0  0  0
 45 69  1  0  0  0  0
 46 48  1  0  0  0  0
 47 49  1  0  0  0  0
 47 50  1  0  0  0  0
 48 52  1  0  0  0  0
 49 54  1  0  0  0  0
 50 68  1  0  0  0  0
 51 54  1  0  0  0  0
 51 68  1  0  0  0  0
 52 72  1  0  0  0  0
 53 69  1  0  0  0  0
 54 67  1  0  0  0  0
 56 64  1  0  0  0  0
 57 65  1  0  0  0  0
 58 65  1  0  0  0  0
 59 65  1  0  0  0  0
 60 74  1  0  0  0  0
 61 62  1  0  0  0  0
 62 81  1  0  0  0  0
 63 65  1  0  0  0  0
 63 73  1  0  0  0  0
 64 74  1  0  0  0  0
 66 67  1  0  0  0  0
M  CHG  1  74   1
M  ISO  4  36 100  39 100  62 101  81 101
M  END
> <Batch ID>
0127

> <Smiles>
CNC(C)C(=O)NC(C(=O)N1Cc2cc([101O:1][101CH2:1]CC=Cc3cc(C)cc(C=[100CH:0][100C:0](=O)N4CCCC(n5nc(-c6ccc(Oc7ccc(F)cc7F)cc6)c(C(N)=O)c5N)C4)c3)ccc2CC1C(=O)NC1CCCc2ccccc21)C(C)(C)C

> <Shape>
0.226

> <Color>
0.083

> <Negative vol penalty>
0.000

$$$$

  -OEChem-04052302143D

 83 91  0     1  0  0  0  0  0999 V2000
  -16.3988  -29.8297   23.0616 C   0  0  0  0  0  0  0  0  0  0  0  0
  -17.3728  -30.1198   22.1115 C   0  0  0  0  0  0  0  0  0  0  0  0
  -26.4722  -12.5630   21.3042 C   0  0  0  0  0  0  0  0  0  0  0  0
  -25.5180  -13.6698   19.3804 C   0  0  0  0  0  0  0  0  0  0  0  0
  -16.7740  -29.4098   24.3371 C   0  0  0  0  0  0  0  0  0  0  0  0
  -18.7226  -29.9913   22.4368 C   0  0  0  0  0  0  0  0  0  0  0  0
  -25.0291  -28.2586   19.5140 C   0  0  0  0  0  0  0  0  0  0  0  0
  -29.2621  -26.0465   18.3893 C   0  0  0  0  0  0  0  0  0  0  0  0
  -25.2626  -11.9046   21.5255 C   0  0  0  0  0  0  0  0  0  0  0  0
  -24.3083  -13.0115   19.6016 C   0  0  0  0  0  0  0  0  0  0  0  0
  -26.3262  -28.7520   19.3804 C   0  0  0  0  0  0  0  0  0  0  0  0
  -29.0167  -24.6753   18.3176 C   0  0  0  0  0  0  0  0  0  0  0  0
  -22.5366   -9.6581   22.3841 C   0  0  0  0  0  0  0  0  0  0  0  0
  -22.5839   -8.2946   22.6741 C   0  0  0  0  0  0  0  0  0  0  0  0
  -26.8552  -27.9425   21.5904 C   0  0  0  0  0  0  0  0  0  0  0  0
  -31.3147  -24.2327   18.9177 C   0  0  0  0  0  0  0  0  0  0  0  0
  -23.6527   -7.8794   20.5475 C   0  0  0  0  0  0  0  0  0  0  0  0
  -26.5999  -13.4456   20.2317 C   0  0  0  0  0  0  0  0  0  0  0  0
  -28.9266  -13.6830   19.2131 C   0  0  0  0  0  0  0  0  0  0  0  0
  -18.1290  -29.2668   24.6751 C   0  0  0  0  0  0  0  0  0  0  0  0
  -24.6314  -27.6120   20.6930 C   0  0  0  0  0  0  0  0  0  0  0  0
  -19.1163  -29.5704   23.7184 C   0  0  0  0  0  0  0  0  0  0  0  0
  -25.5532  -27.4395   21.7354 C   0  0  0  0  0  0  0  0  0  0  0  0
  -30.5339  -26.5108   18.7252 C   0  0  0  0  0  0  0  0  0  0  0  0
  -31.5601  -25.6039   18.9894 C   0  0  0  0  0  0  0  0  0  0  0  0
  -24.1806  -12.1288   20.6742 C   0  0  0  0  0  0  0  0  0  0  0  0
  -27.2386  -28.5965   20.4199 C   0  0  0  0  0  0  0  0  0  0  0  0
  -30.0430  -23.7684   18.5818 C   0  0  0  0  0  0  0  0  0  0  0  0
  -23.0472  -10.1323   21.1757 C   0  0  0  0  0  0  0  0  0  0  0  0
  -23.1420   -7.4052   21.7558 C   0  0  0  0  0  0  0  0  0  0  0  0
  -23.6053   -9.2430   20.2575 C   0  0  0  0  0  0  0  0  0  0  0  0
  -27.8490  -14.1264   20.0030 C   0  0  0  0  0  0  0  0  0  0  0  0
  -29.8646  -14.6806   19.3208 C   0  0  0  0  0  0  0  0  0  0  0  0
  -29.0672  -12.4772   18.4502 C   0  0  0  0  0  0  0  0  0  0  0  0
  -22.4450  -28.1729   22.9310 C   0  0  0  0  0  0  0  0  0  0  0  0
  -29.3722  -20.5286   20.6131 C   0  0  0  0  0  0  0  0  0  0  0  0
  -23.3958  -25.2747   24.0349 C   0  0  0  0  0  0  0  0  0  0  0  0
  -25.8351  -22.8934   24.1954 C   0  0  0  0  0  0  0  0  0  0  0  0
  -18.4868  -28.8554   26.0813 C   0  0  0  0  0  0  0  0  0  0  0  0
  -23.2365  -27.0618   20.8109 C   0  0  0  0  0  0  0  0  0  0  0  0
  -25.1820  -26.7348   23.0137 C   0  0  0  0  0  0  0  0  0  0  0  0
  -19.9313  -28.3846   26.2293 C   0  0  0  0  0  0  0  0  0  0  0  0
  -31.3893  -18.0920   22.2966 C   0  0  0  0  0  0  0  0  0  0  0  0
  -20.8820  -29.3507   25.5295 C   0  0  0  0  0  0  0  0  0  0  0  0
  -30.7899  -16.7592   21.8498 C   0  0  0  0  0  0  0  0  0  0  0  0
  -30.3152  -19.1647   22.4474 C   0  0  0  0  0  0  0  0  0  0  0  0
  -28.8837  -18.0372   20.7737 C   0  0  0  0  0  0  0  0  0  0  0  0
  -20.5904  -29.4193   24.0255 C   0  0  1  0  0  0  0  0  0  0  0  0
  -22.7882  -26.8746   22.2570 C   0  0  1  0  0  0  0  0  0  0  0  0
  -29.9389  -16.9340   20.5795 C   0  0  2  0  0  0  0  0  0  0  0  0
  -32.9298  -26.0777   19.3499 C   0  0  0  0  0  0  0  0  0  0  0  0
  -26.9098  -20.6946   24.7502 C   0  0  0  0  0  0  0  0  0  0  0  0
  -23.8630  -26.5992   26.7436 C   0  0  0  0  0  0  0  0  0  0  0  0
  -25.2222  -24.6039   27.4066 C   0  0  0  0  0  0  0  0  0  0  0  0
  -22.8036  -24.3366   26.8576 C   0  0  0  0  0  0  0  0  0  0  0  0
  -24.8754  -21.6584   21.6829 C   0  0  0  0  0  0  0  0  0  0  0  0
  -30.7747  -27.9976   18.7964 C   0  0  0  0  0  0  0  0  0  0  0  0
  -28.5358  -20.5720   19.3591 C   0  0  0  0  0  0  0  0  0  0  0  0
  -30.8430  -28.5428   20.2245 C   0  0  0  0  0  0  0  0  0  0  0  0
  -28.4819  -21.9900   18.8186 C   0  0  0  0  0  0  0  0  0  0  0  0
  -29.5368  -28.3851   20.9941 C   0  0  0  0  0  0  0  0  0  1  0  0
  -24.4540  -24.7918   24.9972 C   0  0  1  0  0  0  0  0  0  0  0  0
  -25.7900  -21.3898   23.9916 C   0  0  2  0  0  0  0  0  0  0  0  0
  -24.0924  -25.0979   26.4781 C   0  0  0  0  0  0  0  0  0  0  0  0
  -28.0798  -15.3132   20.5707 N   0  0  0  0  0  0  0  0  0  0  0  0
  -29.3133  -15.6240   20.1371 N   0  0  0  0  0  0  0  0  0  0  0  0
  -23.8045  -26.2201   23.0835 N   0  0  0  0  0  0  0  0  0  0  0  0
  -29.5143  -19.2845   21.2278 N   0  0  0  0  0  0  0  0  0  0  0  0
  -31.0989  -14.8340   18.7959 N   0  0  0  0  0  0  0  0  0  0  0  0
  -28.0075  -11.5600   18.4490 N   0  0  0  0  0  0  0  0  0  0  0  0
  -21.1317  -28.2582   23.3523 N   0  0  0  0  0  0  0  0  0  0  0  0
  -24.6502  -23.3748   24.7106 N   0  0  0  0  0  0  0  0  0  0  0  0
  -25.9262  -21.0588   22.5450 N   0  3  0  0  0  0  0  0  0  0  0  0
  -30.1084  -12.2132   17.8024 O   0  0  0  0  0  0  0  0  0  0  0  0
  -23.3082  -29.0331   23.0606 O   0  0  0  0  0  0  0  0  0  0  0  0
  -29.8856  -21.5699   21.0306 O   0  0  0  0  0  0  0  0  0  0  0  0
  -22.2505  -24.8242   24.1194 O   0  0  0  0  0  0  0  0  0  0  0  0
  -26.8241  -23.5724   23.9279 O   0  0  0  0  0  0  0  0  0  0  0  0
  -23.0002  -11.4864   20.8896 O   0  0  0  0  0  0  0  0  0  0  0  0
  -28.5051  -29.0777   20.2924 O   0  0  0  0  0  0  0  0  0  1  0  0
  -29.8038  -22.4304   18.5114 O   0  0  0  0  0  0  0  0  0  0  0  0
  -23.1888   -6.0960   22.0351 F   0  0  0  0  0  0  0  0  0  0  0  0
  -24.0986   -9.6927   19.0955 F   0  0  0  0  0  0  0  0  0  0  0  0
  1  2  1  0  0  0  0
  1  5  2  0  0  0  0
  2  6  2  0  0  0  0
  3  9  2  0  0  0  0
  3 18  1  0  0  0  0
  4 10  1  0  0  0  0
  4 18  2  0  0  0  0
  5 20  1  0  0  0  0
  6 22  1  0  0  0  0
  7 11  2  0  0  0  0
  7 21  1  0  0  0  0
  8 12  2  0  0  0  0
  8 24  1  0  0  0  0
  9 26  1  0  0  0  0
 10 26  2  0  0  0  0
 11 27  1  0  0  0  0
 12 28  1  0  0  0  0
 13 14  2  0  0  0  0
 13 29  1  0  0  0  0
 14 30  1  0  0  0  0
 15 23  1  0  0  0  0
 15 27  2  0  0  0  0
 16 25  1  0  0  0  0
 16 28  2  0  0  0  0
 17 30  2  0  0  0  0
 17 31  1  0  0  0  0
 18 32  1  0  0  0  0
 19 32  1  0  0  0  0
 19 33  2  0  0  0  0
 19 34  1  0  0  0  0
 20 22  2  0  0  0  0
 20 39  1  0  0  0  0
 21 23  2  0  0  0  0
 21 40  1  0  0  0  0
 22 48  1  0  0  0  0
 23 41  1  0  0  0  0
 24 25  2  0  0  0  0
 24 57  1  0  0  0  0
 25 51  1  0  0  0  0
 26 79  1  0  0  0  0
 27 80  1  0  0  0  0
 28 81  1  0  0  0  0
 29 31  2  0  0  0  0
 29 79  1  0  0  0  0
 30 82  1  0  0  0  0
 31 83  1  0  0  0  0
 32 65  2  0  0  0  0
 33 66  1  0  0  0  0
 33 69  1  0  0  0  0
 34 70  1  0  0  0  0
 34 74  2  0  0  0  0
 35 49  1  0  0  0  0
 35 71  1  0  0  0  0
 35 75  2  0  0  0  0
 36 58  1  0  0  0  0
 36 68  1  0  0  0  0
 36 76  2  0  0  0  0
 37 62  1  0  0  0  0
 37 67  1  0  0  0  0
 37 77  2  0  0  0  0
 38 63  1  0  0  0  0
 38 72  1  0  0  0  0
 38 78  2  0  0  0  0
 39 42  1  0  0  0  0
 40 49  1  0  0  0  0
 41 67  1  0  0  0  0
 42 44  1  0  0  0  0
 43 45  1  0  0  0  0
 43 46  1  0  0  0  0
 44 48  1  0  0  0  0
 45 50  1  0  0  0  0
 46 68  1  0  0  0  0
 47 50  1  0  0  0  0
 47 68  1  0  0  0  0
 48 71  1  0  0  0  0
 49 67  1  0  0  0  0
 50 66  1  0  0  0  0
 52 63  1  0  0  0  0
 53 64  1  0  0  0  0
 54 64  1  0  0  0  0
 55 64  1  0  0  0  0
 56 73  1  0  0  0  0
 57 59  1  0  0  0  0
 58 60  1  0  0  0  0
 59 61  1  0  0  0  0
 60 81  1  0  0  0  0
 61 80  1  0  0  0  0
 62 64  1  0  0  0  0
 62 72  1  0  0  0  0
 63 73  1  0  0  0  0
 65 66  1  0  0  0  0
M  CHG  1  73   1
M  ISO  4  36 100  58 100  61 101  80 101
M  END
> <Batch ID>
0127

> <Smiles>
CNC(C)C(=O)NC(C(=O)N1Cc2cc([101O:1][101CH2:1]CCc3ccc(OC[100CH2:0][100C:0](=O)N4CCCC(n5nc(-c6ccc(Oc7ccc(F)cc7F)cc6)c(C(N)=O)c5N)C4)cc3C)ccc2CC1C(=O)NC1CCCc2ccccc21)C(C)(C)C

> <Shape>
0.291

> <Color>
0.101

> <Negative vol penalty>
0.000

$$$$

  -OEChem-04052302143D

 81 89  0     1  0  0  0  0  0999 V2000
  -31.2744  -32.9678   16.1411 C   0  0  0  0  0  0  0  0  0  0  0  0
  -31.3410  -32.1622   17.2733 C   0  0  0  0  0  0  0  0  0  0  0  0
  -23.0763   -9.8654   19.9400 C   0  0  0  0  0  0  0  0  0  0  0  0
  -23.8369   -9.8721   22.2331 C   0  0  0  0  0  0  0  0  0  0  0  0
  -30.5894  -32.5243   15.0106 C   0  0  0  0  0  0  0  0  0  0  0  0
  -30.7216  -30.9128   17.2760 C   0  0  0  0  0  0  0  0  0  0  0  0
  -32.6707  -25.8438   20.1066 C   0  0  0  0  0  0  0  0  0  0  0  0
  -22.3337   -8.7114   20.1896 C   0  0  0  0  0  0  0  0  0  0  0  0
  -23.0943   -8.7180   22.4827 C   0  0  0  0  0  0  0  0  0  0  0  0
  -32.3203  -25.2534   21.3200 C   0  0  0  0  0  0  0  0  0  0  0  0
  -21.1127   -5.9782   23.8187 C   0  0  0  0  0  0  0  0  0  0  0  0
  -20.3568   -5.9333   24.9901 C   0  0  0  0  0  0  0  0  0  0  0  0
  -30.7852  -23.7973   20.1613 C   0  0  0  0  0  0  0  0  0  0  0  0
  -19.1100   -7.8696   24.2599 C   0  0  0  0  0  0  0  0  0  0  0  0
  -32.0841  -18.5070   22.0995 C   0  0  0  0  0  0  0  0  0  0  0  0
  -23.8280  -10.4458   20.9617 C   0  0  0  0  0  0  0  0  0  0  0  0
  -31.0059  -18.9311   22.8409 C   0  0  0  0  0  0  0  0  0  0  0  0
  -24.1671  -12.9713   20.8428 C   0  0  0  0  0  0  0  0  0  0  0  0
  -29.9695  -31.2648   14.9961 C   0  0  0  0  0  0  0  0  0  0  0  0
  -32.0720  -25.4221   18.9107 C   0  0  0  0  0  0  0  0  0  0  0  0
  -30.0266  -30.4526   16.1448 C   0  0  0  0  0  0  0  0  0  0  0  0
  -31.1317  -24.3822   18.9337 C   0  0  0  0  0  0  0  0  0  0  0  0
  -30.0285  -17.9134   22.7309 C   0  0  0  0  0  0  0  0  0  0  0  0
  -22.3427   -8.1377   21.4610 C   0  0  0  0  0  0  0  0  0  0  0  0
  -31.3753  -24.2320   21.3479 C   0  0  0  0  0  0  0  0  0  0  0  0
  -20.8673   -6.9689   22.8678 C   0  0  0  0  0  0  0  0  0  0  0  0
  -19.3555   -6.8789   25.2107 C   0  0  0  0  0  0  0  0  0  0  0  0
  -19.8659   -7.9146   23.0885 C   0  0  0  0  0  0  0  0  0  0  0  0
  -24.5957  -11.6376   20.7043 C   0  0  0  0  0  0  0  0  0  0  0  0
  -25.2584  -13.7221   20.4795 C   0  0  0  0  0  0  0  0  0  0  0  0
  -30.5790  -16.9400   21.9298 C   0  0  0  0  0  0  0  0  0  0  0  0
  -30.9348  -20.2012   23.5823 C   0  0  0  0  0  0  0  0  0  0  0  0
  -31.9192  -21.1109   23.6535 C   0  0  0  0  0  0  0  0  0  0  0  0
  -22.8963  -13.4856   21.2624 C   0  0  0  0  0  0  0  0  0  0  0  0
  -30.2516  -26.8070   16.7034 C   0  0  0  0  0  0  0  0  0  0  0  0
  -30.6509  -23.9817   15.1605 C   0  0  0  0  0  0  0  0  0  0  0  0
  -31.3398  -20.6450   15.3577 C   0  0  0  0  0  0  0  0  0  0  0  0
  -30.7236  -14.7732   20.6530 C   0  0  0  0  0  0  0  0  0  0  0  0
  -29.2005  -30.8484   13.7674 C   0  0  0  0  0  0  0  0  0  0  0  0
  -32.4805  -26.0509   17.6068 C   0  0  0  0  0  0  0  0  0  0  0  0
  -30.4746  -23.8792   17.6752 C   0  0  0  0  0  0  0  0  0  0  0  0
  -28.8898  -29.3545   13.7205 C   0  0  0  0  0  0  0  0  0  0  0  0
  -29.6108  -12.3596   18.2838 C   0  0  0  0  0  0  0  0  0  0  0  0
  -28.3517  -28.8787   15.0662 C   0  0  0  0  0  0  0  0  0  0  0  0
  -28.1716  -12.0663   18.7137 C   0  0  0  0  0  0  0  0  0  0  0  0
  -30.5261  -12.5886   19.4852 C   0  0  0  0  0  0  0  0  0  0  0  0
  -28.6189  -13.3104   20.8676 C   0  0  0  0  0  0  0  0  0  0  0  0
  -29.3886  -29.0807   16.1777 C   0  0  1  0  0  0  0  0  0  0  0  0
  -31.4294  -25.8938   16.5124 C   0  0  1  0  0  0  0  0  0  0  0  0
  -27.6459  -13.1368   19.6900 C   0  0  2  0  0  0  0  0  0  0  0  0
  -28.6871  -17.8929   23.3478 C   0  0  0  0  0  0  0  0  0  0  0  0
  -31.5572  -18.5909   13.9326 C   0  0  0  0  0  0  0  0  0  0  0  0
  -27.6122  -23.8148   14.9416 C   0  0  0  0  0  0  0  0  0  0  0  0
  -27.8546  -21.3832   14.3972 C   0  0  0  0  0  0  0  0  0  0  0  0
  -28.8468  -23.1026   12.8867 C   0  0  0  0  0  0  0  0  0  0  0  0
  -34.1739  -20.2721   16.1241 C   0  0  0  0  0  0  0  0  0  0  0  0
  -31.8087  -22.3919   24.4342 C   0  0  0  0  0  0  0  0  0  0  0  0
  -32.0307  -23.6121   23.5483 C   0  0  0  0  0  0  0  0  0  1  0  0
  -29.9151  -22.6638   15.1357 C   0  0  1  0  0  0  0  0  0  0  0  0
  -32.2891  -19.7640   14.5659 C   0  0  2  0  0  0  0  0  0  0  0  0
  -28.5679  -22.7517   14.3644 C   0  0  0  0  0  0  0  0  0  0  0  0
  -25.8606  -11.5433   20.2855 N   0  0  0  0  0  0  0  0  0  0  0  0
  -26.2361  -12.8273   20.1577 N   0  0  0  0  0  0  0  0  0  0  0  0
  -30.9028  -24.5302   16.4261 N   0  0  0  0  0  0  0  0  0  0  0  0
  -29.9664  -13.6184   20.3634 N   0  0  0  0  0  0  0  0  0  0  0  0
  -25.4674  -15.0539   20.4071 N   0  0  0  0  0  0  0  0  0  0  0  0
  -21.8854  -12.5752   21.5996 N   0  0  0  0  0  0  0  0  0  0  0  0
  -30.0756  -15.6971   21.4722 N   0  0  0  0  0  0  0  0  0  0  0  0
  -30.4019  -28.0492   16.1171 N   0  0  0  0  0  0  0  0  0  0  0  0
  -30.8507  -21.6840   14.5944 N   0  0  0  0  0  0  0  0  0  0  0  0
  -33.3590  -19.2267   15.4534 N   0  3  0  0  0  0  0  0  0  0  0  0
  -22.6587  -14.7160   21.3204 O   0  0  0  0  0  0  0  0  0  0  0  0
  -29.2779  -26.4132   17.3347 O   0  0  0  0  0  0  0  0  0  0  0  0
  -30.9961  -24.5018   14.0965 O   0  0  0  0  0  0  0  0  0  0  0  0
  -31.0572  -20.4307   16.5344 O   0  0  0  0  0  0  0  0  0  0  0  0
  -31.8523  -14.9433   20.1851 O   0  0  0  0  0  0  0  0  0  0  0  0
  -31.8319  -17.2943   21.5407 O   0  0  0  0  0  0  0  0  0  0  0  0
  -21.6180   -7.0117   21.7050 O   0  0  0  0  0  0  0  0  0  0  0  0
  -31.0309  -23.6544   22.5310 O   0  0  0  0  0  0  0  0  0  1  0  0
  -18.6287   -6.8347   26.3350 F   0  0  0  0  0  0  0  0  0  0  0  0
  -19.6247   -8.8680   22.1781 F   0  0  0  0  0  0  0  0  0  0  0  0
  1  2  1  0  0  0  0
  1  5  2  0  0  0  0
  2  6  2  0  0  0  0
  3  8  2  0  0  0  0
  3 16  1  0  0  0  0
  4  9  1  0  0  0  0
  4 16  2  0  0  0  0
  5 19  1  0  0  0  0
  6 21  1  0  0  0  0
  7 10  2  0  0  0  0
  7 20  1  0  0  0  0
  8 24  1  0  0  0  0
  9 24  2  0  0  0  0
 10 25  1  0  0  0  0
 11 12  2  0  0  0  0
 11 26  1  0  0  0  0
 12 27  1  0  0  0  0
 13 22  1  0  0  0  0
 13 25  2  0  0  0  0
 14 27  2  0  0  0  0
 14 28  1  0  0  0  0
 15 17  2  0  0  0  0
 15 77  1  0  0  0  0
 16 29  1  0  0  0  0
 17 23  1  0  0  0  0
 17 32  1  0  0  0  0
 18 29  1  0  0  0  0
 18 30  2  0  0  0  0
 18 34  1  0  0  0  0
 19 21  2  0  0  0  0
 19 39  1  0  0  0  0
 20 22  2  0  0  0  0
 20 40  1  0  0  0  0
 21 48  1  0  0  0  0
 22 41  1  0  0  0  0
 23 31  2  0  0  0  0
 23 51  1  0  0  0  0
 24 78  1  0  0  0  0
 25 79  1  0  0  0  0
 26 28  2  0  0  0  0
 26 78  1  0  0  0  0
 27 80  1  0  0  0  0
 28 81  1  0  0  0  0
 29 62  2  0  0  0  0
 30 63  1  0  0  0  0
 30 66  1  0  0  0  0
 31 68  1  0  0  0  0
 31 77  1  0  0  0  0
 32 33  2  0  0  0  0
 33 57  1  0  0  0  0
 34 67  1  0  0  0  0
 34 72  2  0  0  0  0
 35 49  1  0  0  0  0
 35 69  1  0  0  0  0
 35 73  2  0  0  0  0
 36 59  1  0  0  0  0
 36 64  1  0  0  0  0
 36 74  2  0  0  0  0
 37 60  1  0  0  0  0
 37 70  1  0  0  0  0
 37 75  2  0  0  0  0
 38 65  1  0  0  0  0
 38 68  1  0  0  0  0
 38 76  2  0  0  0  0
 39 42  1  0  0  0  0
 40 49  1  0  0  0  0
 41 64  1  0  0  0  0
 42 44  1  0  0  0  0
 43 45  1  0  0  0  0
 43 46  1  0  0  0  0
 44 48  1  0  0  0  0
 45 50  1  0  0  0  0
 46 65  1  0  0  0  0
 47 50  1  0  0  0  0
 47 65  1  0  0  0  0
 48 69  1  0  0  0  0
 49 64  1  0  0  0  0
 50 63  1  0  0  0  0
 52 60  1  0  0  0  0
 53 61  1  0  0  0  0
 54 61  1  0  0  0  0
 55 61  1  0  0  0  0
 56 71  1  0  0  0  0
 57 58  1  0  0  0  0
 58 79  1  0  0  0  0
 59 61  1  0  0  0  0
 59 70  1  0  0  0  0
 60 71  1  0  0  0  0
 62 63  1  0  0  0  0
M  CHG  1  71   1
M  ISO  4  38 100  58 101  68 100  79 101
M  END
> <Batch ID>
0127

> <Smiles>
CNC(C)C(=O)NC(C(=O)N1Cc2cc([101O:1][101CH2:1]CC=Cc3coc([100NH:0][100C:0](=O)N4CCCC(n5nc(-c6ccc(Oc7ccc(F)cc7F)cc6)c(C(N)=O)c5N)C4)c3C)ccc2CC1C(=O)NC1CCCc2ccccc21)C(C)(C)C

> <Shape>
0.203

> <Color>
0.196

> <Negative vol penalty>
0.000

$$$$

  -OEChem-04052302143D

 83 91  0     1  0  0  0  0  0999 V2000
  -27.8091   -8.3028   30.4543 C   0  0  0  0  0  0  0  0  0  0  0  0
  -28.5728   -9.4360   30.1930 C   0  0  0  0  0  0  0  0  0  0  0  0
  -23.2011   -9.8533   19.9525 C   0  0  0  0  0  0  0  0  0  0  0  0
  -23.9115   -9.9303   22.2604 C   0  0  0  0  0  0  0  0  0  0  0  0
  -30.2899  -16.7149   21.6764 C   0  0  0  0  0  0  0  0  0  0  0  0
  -26.5217   -8.1951   29.9299 C   0  0  0  0  0  0  0  0  0  0  0  0
  -28.0498  -10.4616   29.4063 C   0  0  0  0  0  0  0  0  0  0  0  0
  -28.2489  -17.5838   28.6640 C   0  0  0  0  0  0  0  0  0  0  0  0
  -29.7176  -17.9782   21.8248 C   0  0  0  0  0  0  0  0  0  0  0  0
  -22.5070   -8.6701   20.2056 C   0  0  0  0  0  0  0  0  0  0  0  0
  -23.2174   -8.7472   22.5135 C   0  0  0  0  0  0  0  0  0  0  0  0
  -28.4771  -18.5597   27.6948 C   0  0  0  0  0  0  0  0  0  0  0  0
  -20.0183   -7.8069   23.0631 C   0  0  0  0  0  0  0  0  0  0  0  0
  -19.2396   -7.7487   24.2189 C   0  0  0  0  0  0  0  0  0  0  0  0
  -26.2117  -18.2994   26.9078 C   0  0  0  0  0  0  0  0  0  0  0  0
  -28.4268  -17.1730   23.7017 C   0  0  0  0  0  0  0  0  0  0  0  0
  -20.5548   -5.8832   25.0110 C   0  0  0  0  0  0  0  0  0  0  0  0
  -23.9034  -10.4833   20.9799 C   0  0  0  0  0  0  0  0  0  0  0  0
  -29.9307  -15.6806   22.5406 C   0  0  0  0  0  0  0  0  0  0  0  0
  -24.1288  -13.0198   20.8267 C   0  0  0  0  0  0  0  0  0  0  0  0
  -25.9791   -9.2242   29.1444 C   0  0  0  0  0  0  0  0  0  0  0  0
  -27.0016  -16.9495   28.7554 C   0  0  0  0  0  0  0  0  0  0  0  0
  -26.7544  -10.3670   28.8698 C   0  0  0  0  0  0  0  0  0  0  0  0
  -25.9694  -17.3176   27.8807 C   0  0  0  0  0  0  0  0  0  0  0  0
  -28.7860  -18.2073   22.8374 C   0  0  0  0  0  0  0  0  0  0  0  0
  -28.9992  -15.9096   23.5532 C   0  0  0  0  0  0  0  0  0  0  0  0
  -22.5152   -8.1171   21.4861 C   0  0  0  0  0  0  0  0  0  0  0  0
  -27.4594  -18.9156   26.8147 C   0  0  0  0  0  0  0  0  0  0  0  0
  -21.0652   -6.9032   22.8812 C   0  0  0  0  0  0  0  0  0  0  0  0
  -19.5079   -6.7869   25.1929 C   0  0  0  0  0  0  0  0  0  0  0  0
  -21.3334   -5.9414   23.8552 C   0  0  0  0  0  0  0  0  0  0  0  0
  -24.6210  -11.7052   20.7189 C   0  0  0  0  0  0  0  0  0  0  0  0
  -25.1920  -13.8145   20.4738 C   0  0  0  0  0  0  0  0  0  0  0  0
  -30.5437  -14.3711   22.3631 C   0  0  0  0  0  0  0  0  0  0  0  0
  -22.8270  -13.4812   21.2116 C   0  0  0  0  0  0  0  0  0  0  0  0
  -30.9763  -13.8987   21.0278 C   0  0  0  0  0  0  0  0  0  0  0  0
  -25.9800  -13.9552   28.4487 C   0  0  0  0  0  0  0  0  0  0  0  0
  -23.1605  -15.2296   29.4230 C   0  0  0  0  0  0  0  0  0  0  0  0
  -21.1699  -17.9876   29.7011 C   0  0  0  0  0  0  0  0  0  0  0  0
  -24.6006   -9.0417   28.5603 C   0  0  0  0  0  0  0  0  0  0  0  0
  -26.7632  -15.9178   29.8237 C   0  0  0  0  0  0  0  0  0  0  0  0
  -24.6061  -16.6812   27.9504 C   0  0  0  0  0  0  0  0  0  0  0  0
  -23.9802  -10.3385   28.0466 C   0  0  0  0  0  0  0  0  0  0  0  0
  -29.3594  -13.1476   17.9169 C   0  0  0  0  0  0  0  0  0  0  0  0
  -24.9883  -11.1167   27.2071 C   0  0  0  0  0  0  0  0  0  0  0  0
  -27.9351  -12.7865   18.3374 C   0  0  0  0  0  0  0  0  0  0  0  0
  -30.3794  -12.7013   18.9594 C   0  0  0  0  0  0  0  0  0  0  0  0
  -28.6812  -12.8684   20.7585 C   0  0  0  0  0  0  0  0  0  0  0  0
  -26.2129  -11.5117   28.0414 C   0  0  1  0  0  0  0  0  0  0  0  0
  -25.6136  -14.9707   29.4937 C   0  0  1  0  0  0  0  0  0  0  0  0
  -27.6204  -13.3280   19.7432 C   0  0  2  0  0  0  0  0  0  0  0  0
  -29.2621  -14.9600   25.8588 C   0  0  0  0  0  0  0  0  0  0  0  0
  -18.9054  -18.7096   30.5063 C   0  0  0  0  0  0  0  0  0  0  0  0
  -21.8859  -13.9868   26.9449 C   0  0  0  0  0  0  0  0  0  0  0  0
  -19.9166  -15.4944   27.2873 C   0  0  0  0  0  0  0  0  0  0  0  0
  -20.5111  -13.8077   29.0264 C   0  0  0  0  0  0  0  0  0  0  0  0
  -22.3398  -19.8456   31.6856 C   0  0  0  0  0  0  0  0  0  0  0  0
  -28.1681  -19.5732   22.9985 C   0  0  0  0  0  0  0  0  0  0  0  0
  -28.5970  -14.8202   24.4930 C   0  0  0  0  0  0  0  0  0  0  0  0
  -28.9517  -20.4974   23.9331 C   0  0  0  0  0  0  0  0  0  0  0  0
  -29.0114  -19.9931   25.3703 C   0  0  0  0  0  0  0  0  0  1  0  0
  -21.9715  -15.8501   28.7300 C   0  0  1  0  0  0  0  0  0  0  0  0
  -20.3728  -18.5410   30.8685 C   0  0  2  0  0  0  0  0  0  0  0  0
  -21.0975  -14.7956   27.9943 C   0  0  0  0  0  0  0  0  0  0  0  0
  -25.8974  -11.6630   20.3279 N   0  0  0  0  0  0  0  0  0  0  0  0
  -30.7522  -13.5408   23.3473 N   0  0  0  0  0  0  0  0  0  0  0  0
  -26.2163  -12.9609   20.1869 N   0  0  0  0  0  0  0  0  0  0  0  0
  -30.0313  -13.2021   20.2876 N   0  0  0  0  0  0  0  0  0  0  0  0
  -24.4242  -15.6733   29.0080 N   0  0  0  0  0  0  0  0  0  0  0  0
  -25.3412  -15.1531   20.3840 N   0  0  0  0  0  0  0  0  0  0  0  0
  -21.8520  -12.5304   21.5427 N   0  0  0  0  0  0  0  0  0  0  0  0
  -25.9048  -12.6463   28.8853 N   0  0  0  0  0  0  0  0  0  0  0  0
  -21.2575  -16.6124   29.7486 N   0  0  0  0  0  0  0  0  0  0  0  0
  -20.9108  -19.8684   31.2801 N   0  3  0  0  0  0  0  0  0  0  0  0
  -22.5322  -14.7000   21.2446 O   0  0  0  0  0  0  0  0  0  0  0  0
  -32.1280  -14.1746   20.7185 O   0  0  0  0  0  0  0  0  0  0  0  0
  -26.3052  -14.3313   27.3286 O   0  0  0  0  0  0  0  0  0  0  0  0
  -22.9748  -14.3875   30.3051 O   0  0  0  0  0  0  0  0  0  0  0  0
  -21.6623  -18.7035   28.8318 O   0  0  0  0  0  0  0  0  0  0  0  0
  -21.8378   -6.9627   21.7335 O   0  0  0  0  0  0  0  0  0  0  0  0
  -27.6797  -19.8674   25.8674 O   0  0  0  0  0  0  0  0  0  1  0  0
  -18.7610   -6.7322   26.3034 F   0  0  0  0  0  0  0  0  0  0  0  0
  -22.3386   -5.0713   23.6866 F   0  0  0  0  0  0  0  0  0  0  0  0
  1  2  1  0  0  0  0
  1  6  2  0  0  0  0
  2  7  2  0  0  0  0
  3 10  2  0  0  0  0
  3 18  1  0  0  0  0
  4 11  1  0  0  0  0
  4 18  2  0  0  0  0
  5  9  2  0  0  0  0
  5 19  1  0  0  0  0
  6 21  1  0  0  0  0
  7 23  1  0  0  0  0
  8 12  2  0  0  0  0
  8 22  1  0  0  0  0
  9 25  1  0  0  0  0
 10 27  1  0  0  0  0
 11 27  2  0  0  0  0
 12 28  1  0  0  0  0
 13 14  2  0  0  0  0
 13 29  1  0  0  0  0
 14 30  1  0  0  0  0
 15 24  1  0  0  0  0
 15 28  2  0  0  0  0
 16 25  2  0  0  0  0
 16 26  1  0  0  0  0
 17 30  2  0  0  0  0
 17 31  1  0  0  0  0
 18 32  1  0  0  0  0
 19 26  2  0  0  0  0
 19 34  1  0  0  0  0
 20 32  1  0  0  0  0
 20 33  2  0  0  0  0
 20 35  1  0  0  0  0
 21 23  2  0  0  0  0
 21 40  1  0  0  0  0
 22 24  2  0  0  0  0
 22 41  1  0  0  0  0
 23 49  1  0  0  0  0
 24 42  1  0  0  0  0
 25 58  1  0  0  0  0
 26 59  1  0  0  0  0
 27 80  1  0  0  0  0
 28 81  1  0  0  0  0
 29 31  2  0  0  0  0
 29 80  1  0  0  0  0
 30 82  1  0  0  0  0
 31 83  1  0  0  0  0
 32 65  2  0  0  0  0
 33 67  1  0  0  0  0
 33 70  1  0  0  0  0
 34 36  1  0  0  0  0
 34 66  2  0  0  0  0
 35 71  1  0  0  0  0
 35 75  2  0  0  0  0
 36 68  1  0  0  0  0
 36 76  2  0  0  0  0
 37 50  1  0  0  0  0
 37 72  1  0  0  0  0
 37 77  2  0  0  0  0
 38 62  1  0  0  0  0
 38 69  1  0  0  0  0
 38 78  2  0  0  0  0
 39 63  1  0  0  0  0
 39 73  1  0  0  0  0
 39 79  2  0  0  0  0
 40 43  1  0  0  0  0
 41 50  1  0  0  0  0
 42 69  1  0  0  0  0
 43 45  1  0  0  0  0
 44 46  1  0  0  0  0
 44 47  1  0  0  0  0
 45 49  1  0  0  0  0
 46 51  1  0  0  0  0
 47 68  1  0  0  0  0
 48 51  1  0  0  0  0
 48 68  1  0  0  0  0
 49 72  1  0  0  0  0
 50 69  1  0  0  0  0
 51 67  1  0  0  0  0
 52 59  1  0  0  0  0
 53 63  1  0  0  0  0
 54 64  1  0  0  0  0
 55 64  1  0  0  0  0
 56 64  1  0  0  0  0
 57 74  1  0  0  0  0
 58 60  1  0  0  0  0
 60 61  1  0  0  0  0
 61 81  1  0  0  0  0
 62 64  1  0  0  0  0
 62 73  1  0  0  0  0
 63 74  1  0  0  0  0
 65 67  1  0  0  0  0
M  CHG  1  74   1
M  ISO  4  34 100  36 100  61 101  81 101
M  END
> <Batch ID>
0127

> <Smiles>
CCc1cc(CC[101CH2:1][101O:1]c2ccc3c(c2)CN(C(=O)C(NC(=O)C(C)NC)C(C)(C)C)C(C(=O)NC2CCCc4ccccc42)C3)ccc1[100C:0](=N)[100C:0](=O)N1CCCC(n2nc(-c3ccc(Oc4ccc(F)cc4F)cc3)c(C(N)=O)c2N)C1

> <Shape>
0.171

> <Color>
0.179

> <Negative vol penalty>
0.000

$$$$

  -OEChem-04052302143D

 85 94  0     1  0  0  0  0  0999 V2000
  -33.2410  -19.4703   25.8862 C   0  0  0  0  0  0  0  0  0  0  0  0
  -33.3084  -19.9227   24.5723 C   0  0  0  0  0  0  0  0  0  0  0  0
  -23.7244  -15.2426   12.0379 C   0  0  0  0  0  0  0  0  0  0  0  0
  -26.2254  -27.8983   18.8347 C   0  0  0  0  0  0  0  0  0  0  0  0
  -26.1570  -27.1771   21.1395 C   0  0  0  0  0  0  0  0  0  0  0  0
  -32.7533  -18.1928   26.1582 C   0  0  0  0  0  0  0  0  0  0  0  0
  -32.8892  -19.0973   23.5296 C   0  0  0  0  0  0  0  0  0  0  0  0
  -29.8117  -19.3929   17.0675 C   0  0  0  0  0  0  0  0  0  0  0  0
  -22.9178  -16.2860   12.4921 C   0  0  0  0  0  0  0  0  0  0  0  0
  -25.1122  -15.3381   12.1411 C   0  0  0  0  0  0  0  0  0  0  0  0
  -25.7066  -29.1383   19.2072 C   0  0  0  0  0  0  0  0  0  0  0  0
  -25.6382  -28.4171   21.5121 C   0  0  0  0  0  0  0  0  0  0  0  0
  -30.0094  -18.9534   15.7592 C   0  0  0  0  0  0  0  0  0  0  0  0
  -22.6445  -29.9870   21.4457 C   0  0  0  0  0  0  0  0  0  0  0  0
  -21.5673  -29.9991   22.3317 C   0  0  0  0  0  0  0  0  0  0  0  0
  -29.1108  -16.7954   16.3548 C   0  0  0  0  0  0  0  0  0  0  0  0
  -22.8782  -31.2772   23.9081 C   0  0  0  0  0  0  0  0  0  0  0  0
  -26.4506  -26.9176   19.8008 C   0  0  0  0  0  0  0  0  0  0  0  0
  -24.8868  -17.5205   13.1527 C   0  0  0  0  0  0  0  0  0  0  0  0
  -28.3431  -25.2697   19.3423 C   0  0  0  0  0  0  0  0  0  0  0  0
  -32.3189  -17.3549   25.1190 C   0  0  0  0  0  0  0  0  0  0  0  0
  -29.2712  -18.5320   18.0335 C   0  0  0  0  0  0  0  0  0  0  0  0
  -32.3965  -17.8068   23.7878 C   0  0  0  0  0  0  0  0  0  0  0  0
  -28.9049  -17.2272   17.6740 C   0  0  0  0  0  0  0  0  0  0  0  0
  -23.4990  -17.4249   13.0495 C   0  0  0  0  0  0  0  0  0  0  0  0
  -25.6934  -16.4770   12.6984 C   0  0  0  0  0  0  0  0  0  0  0  0
  -25.4130  -29.3977   20.5459 C   0  0  0  0  0  0  0  0  0  0  0  0
  -29.6617  -17.6536   15.4034 C   0  0  0  0  0  0  0  0  0  0  0  0
  -23.8387  -30.6199   21.7909 C   0  0  0  0  0  0  0  0  0  0  0  0
  -21.6841  -30.6442   23.5629 C   0  0  0  0  0  0  0  0  0  0  0  0
  -23.9555  -31.2650   23.0221 C   0  0  0  0  0  0  0  0  0  0  0  0
  -26.9860  -25.6363   19.4165 C   0  0  0  0  0  0  0  0  0  0  0  0
  -28.3228  -23.9589   18.9325 C   0  0  0  0  0  0  0  0  0  0  0  0
  -25.4951  -18.7124   13.7366 C   0  0  0  0  0  0  0  0  0  0  0  0
  -25.7967  -18.8728   15.0394 C   0  0  0  0  0  0  0  0  0  0  0  0
  -29.5172  -26.0447   19.6192 C   0  0  0  0  0  0  0  0  0  0  0  0
  -26.4208  -20.1381   15.4757 C   0  0  0  0  0  0  0  0  0  0  0  0
  -30.3032  -17.3155   20.7828 C   0  0  0  0  0  0  0  0  0  0  0  0
  -27.2708  -16.1789   20.9693 C   0  0  0  0  0  0  0  0  0  0  0  0
  -24.2947  -14.7091   19.5550 C   0  0  0  0  0  0  0  0  0  0  0  0
  -31.8436  -15.9643   25.4582 C   0  0  0  0  0  0  0  0  0  0  0  0
  -29.0394  -19.0298   19.4338 C   0  0  0  0  0  0  0  0  0  0  0  0
  -28.3022  -16.2701   18.6687 C   0  0  0  0  0  0  0  0  0  0  0  0
  -31.0691  -15.2925   24.3273 C   0  0  0  0  0  0  0  0  0  0  0  0
  -24.5182  -20.6697   18.5627 C   0  0  0  0  0  0  0  0  0  0  0  0
  -31.8021  -15.4673   23.0010 C   0  0  0  0  0  0  0  0  0  0  0  0
  -25.0778  -22.0124   19.0250 C   0  0  0  0  0  0  0  0  0  0  0  0
  -30.1389  -16.4432   11.2490 C   0  0  0  0  0  0  0  0  0  0  0  0
  -30.1008  -17.7849   10.5749 C   0  0  0  0  0  0  0  0  0  0  0  0
  -24.4504  -20.5725   17.0394 C   0  0  0  0  0  0  0  0  0  0  0  0
  -26.3113  -22.1951   16.8284 C   0  0  0  0  0  0  0  0  0  0  0  0
  -31.9280  -16.9503   22.6315 C   0  0  1  0  0  0  0  0  0  0  0  0
  -28.9592  -17.9056   20.4620 C   0  0  1  0  0  0  0  0  0  0  0  0
  -26.4324  -22.2966   18.3569 C   0  0  1  0  0  0  0  0  0  0  0  0
  -29.2984  -17.5541   11.8341 C   0  0  0  0  0  0  0  0  0  0  0  0
  -22.6002  -18.5218   13.5243 C   0  0  0  0  0  0  0  0  0  0  0  0
  -22.0803  -14.1749   20.6078 C   0  0  0  0  0  0  0  0  0  0  0  0
  -28.4697  -13.4057   21.3959 C   0  0  0  0  0  0  0  0  0  0  0  0
  -26.2277  -12.4301   20.8573 C   0  0  0  0  0  0  0  0  0  0  0  0
  -26.4935  -13.9212   22.8393 C   0  0  0  0  0  0  0  0  0  0  0  0
  -22.8218  -16.2973   17.5383 C   0  0  0  0  0  0  0  0  0  0  0  0
  -27.1969  -16.5433   12.7914 C   0  0  0  0  0  0  0  0  0  0  0  0
  -27.8035  -17.4484   11.7083 C   0  0  0  0  0  0  0  0  0  0  0  0
  -29.7706  -18.1996   13.0913 C   0  0  0  0  0  0  0  0  0  1  0  0
  -26.5714  -14.9196   20.5178 C   0  0  1  0  0  0  0  0  0  0  0  0
  -22.8642  -15.1707   19.7672 C   0  0  2  0  0  0  0  0  0  0  0  0
  -26.9537  -13.6863   21.3841 C   0  0  0  0  0  0  0  0  0  0  0  0
  -26.1633  -24.6391   19.0806 N   0  0  0  0  0  0  0  0  0  0  0  0
  -27.0060  -23.6329   18.7913 N   0  0  0  0  0  0  0  0  0  0  0  0
  -25.7423  -20.9056   16.4207 N   0  0  0  0  0  0  0  0  0  0  0  0
  -28.1011  -16.8018   20.0267 N   0  0  0  0  0  0  0  0  0  0  0  0
  -29.3030  -23.0650   18.6826 N   0  0  0  0  0  0  0  0  0  0  0  0
  -29.3580  -27.3752   20.0300 N   0  0  0  0  0  0  0  0  0  0  0  0
  -30.6746  -17.4487   22.1072 N   0  0  0  0  0  0  0  0  0  0  0  0
  -25.1449  -15.2252   20.5101 N   0  0  0  0  0  0  0  0  0  0  0  0
  -22.1711  -15.3282   18.4573 N   0  3  0  0  0  0  0  0  0  0  0  0
  -30.6736  -25.5762   19.4899 O   0  0  0  0  0  0  0  0  0  0  0  0
  -27.5041  -20.4410   14.9724 O   0  0  0  0  0  0  0  0  0  0  0  0
  -30.9545  -16.7776   19.8950 O   0  0  0  0  0  0  0  0  0  0  0  0
  -27.0815  -16.5987   22.1137 O   0  0  0  0  0  0  0  0  0  0  0  0
  -24.6244  -13.9622   18.6364 O   0  0  0  0  0  0  0  0  0  0  0  0
  -24.9070  -30.6077   20.9099 O   0  0  0  0  0  0  0  0  0  0  0  0
  -29.8542  -17.2218   14.1273 O   0  0  0  0  0  0  0  0  0  1  0  0
  -20.6491  -30.6570   24.4129 F   0  0  0  0  0  0  0  0  0  0  0  0
  -25.0998  -31.8758   23.3588 F   0  0  0  0  0  0  0  0  0  0  0  0
  1  2  1  0  0  0  0
  1  6  2  0  0  0  0
  2  7  2  0  0  0  0
  3  9  1  0  0  0  0
  3 10  2  0  0  0  0
  4 11  2  0  0  0  0
  4 18  1  0  0  0  0
  5 12  1  0  0  0  0
  5 18  2  0  0  0  0
  6 21  1  0  0  0  0
  7 23  1  0  0  0  0
  8 13  2  0  0  0  0
  8 22  1  0  0  0  0
  9 25  2  0  0  0  0
 10 26  1  0  0  0  0
 11 27  1  0  0  0  0
 12 27  2  0  0  0  0
 13 28  1  0  0  0  0
 14 15  2  0  0  0  0
 14 29  1  0  0  0  0
 15 30  1  0  0  0  0
 16 24  1  0  0  0  0
 16 28  2  0  0  0  0
 17 30  2  0  0  0  0
 17 31  1  0  0  0  0
 18 32  1  0  0  0  0
 19 25  1  0  0  0  0
 19 26  2  0  0  0  0
 19 34  1  0  0  0  0
 20 32  1  0  0  0  0
 20 33  2  0  0  0  0
 20 36  1  0  0  0  0
 21 23  2  0  0  0  0
 21 41  1  0  0  0  0
 22 24  2  0  0  0  0
 22 42  1  0  0  0  0
 23 52  1  0  0  0  0
 24 43  1  0  0  0  0
 25 56  1  0  0  0  0
 26 62  1  0  0  0  0
 27 82  1  0  0  0  0
 28 83  1  0  0  0  0
 29 31  2  0  0  0  0
 29 82  1  0  0  0  0
 30 84  1  0  0  0  0
 31 85  1  0  0  0  0
 32 68  2  0  0  0  0
 33 69  1  0  0  0  0
 33 72  1  0  0  0  0
 34 35  2  0  0  0  0
 35 37  1  0  0  0  0
 36 73  1  0  0  0  0
 36 77  2  0  0  0  0
 37 70  1  0  0  0  0
 37 78  2  0  0  0  0
 38 53  1  0  0  0  0
 38 74  1  0  0  0  0
 38 79  2  0  0  0  0
 39 65  1  0  0  0  0
 39 71  1  0  0  0  0
 39 80  2  0  0  0  0
 40 66  1  0  0  0  0
 40 75  1  0  0  0  0
 40 81  2  0  0  0  0
 41 44  1  0  0  0  0
 42 53  1  0  0  0  0
 43 71  1  0  0  0  0
 44 46  1  0  0  0  0
 45 47  1  0  0  0  0
 45 50  1  0  0  0  0
 46 52  1  0  0  0  0
 47 54  1  0  0  0  0
 48 49  1  0  0  0  0
 48 55  1  0  0  0  0
 49 55  1  0  0  0  0
 50 70  1  0  0  0  0
 51 54  1  0  0  0  0
 51 70  1  0  0  0  0
 52 74  1  0  0  0  0
 53 71  1  0  0  0  0
 54 69  1  0  0  0  0
 55 63  1  0  0  0  0
 55 64  1  0  0  0  0
 57 66  1  0  0  0  0
 58 67  1  0  0  0  0
 59 67  1  0  0  0  0
 60 67  1  0  0  0  0
 61 76  1  0  0  0  0
 62 63  1  0  0  0  0
 64 83  1  0  0  0  0
 65 67  1  0  0  0  0
 65 75  1  0  0  0  0
 66 76  1  0  0  0  0
 68 69  1  0  0  0  0
M  CHG  1  76   1
M  ISO  4  35 100  37 100  64 101  83 101
M  END
> <Batch ID>
0127

> <Smiles>
CNC(C)C(=O)NC(C(=O)N1Cc2cc([101O:1][101CH2:1]C3(CCc4cccc(C)c4C=[100CH:0][100C:0](=O)N4CCCC(n5nc(-c6ccc(Oc7ccc(F)cc7F)cc6)c(C(N)=O)c5N)C4)CC3)ccc2CC1C(=O)NC1CCCc2ccccc21)C(C)(C)C

> <Shape>
0.188

> <Color>
0.082

> <Negative vol penalty>
0.000

$$$$

  -OEChem-04052302143D

 82 90  0     1  0  0  0  0  0999 V2000
  -28.5682  -31.2873   27.2348 C   0  0  0  0  0  0  0  0  0  0  0  0
  -28.2548  -30.2387   26.3760 C   0  0  0  0  0  0  0  0  0  0  0  0
  -23.8986   -9.8111   22.1909 C   0  0  0  0  0  0  0  0  0  0  0  0
  -24.4523   -8.4226   20.2929 C   0  0  0  0  0  0  0  0  0  0  0  0
  -27.4865  -21.3436   19.9361 C   0  0  0  0  0  0  0  0  0  0  0  0
  -27.6246  -32.2805   27.4939 C   0  0  0  0  0  0  0  0  0  0  0  0
  -26.9970  -30.1821   25.7765 C   0  0  0  0  0  0  0  0  0  0  0  0
  -27.2429  -29.0364   20.8499 C   0  0  0  0  0  0  0  0  0  0  0  0
  -27.4680  -22.6824   20.3272 C   0  0  0  0  0  0  0  0  0  0  0  0
  -22.6840   -9.1392   22.3281 C   0  0  0  0  0  0  0  0  0  0  0  0
  -23.2376   -7.7507   20.4301 C   0  0  0  0  0  0  0  0  0  0  0  0
  -27.4538  -27.6991   20.5169 C   0  0  0  0  0  0  0  0  0  0  0  0
  -19.5962   -7.5485   23.4009 C   0  0  0  0  0  0  0  0  0  0  0  0
  -19.2105   -7.1617   24.6843 C   0  0  0  0  0  0  0  0  0  0  0  0
  -25.0953  -27.4421   20.0803 C   0  0  0  0  0  0  0  0  0  0  0  0
  -28.4364  -23.3153   18.2061 C   0  0  0  0  0  0  0  0  0  0  0  0
  -21.2054   -5.8125   24.8772 C   0  0  0  0  0  0  0  0  0  0  0  0
  -24.7827   -9.4529   21.1732 C   0  0  0  0  0  0  0  0  0  0  0  0
  -27.9800  -20.9906   18.6801 C   0  0  0  0  0  0  0  0  0  0  0  0
  -27.2659   -9.8145   21.6320 C   0  0  0  0  0  0  0  0  0  0  0  0
  -26.3580  -32.2412   26.8898 C   0  0  0  0  0  0  0  0  0  0  0  0
  -25.9528  -29.5847   20.8110 C   0  0  0  0  0  0  0  0  0  0  0  0
  -26.0351  -31.1750   26.0288 C   0  0  0  0  0  0  0  0  0  0  0  0
  -24.8710  -28.7873   20.4107 C   0  0  0  0  0  0  0  0  0  0  0  0
  -27.9429  -23.6682   19.4622 C   0  0  0  0  0  0  0  0  0  0  0  0
  -28.4549  -21.9765   17.8151 C   0  0  0  0  0  0  0  0  0  0  0  0
  -22.3535   -8.1090   21.4478 C   0  0  0  0  0  0  0  0  0  0  0  0
  -26.3795  -26.9009   20.1348 C   0  0  0  0  0  0  0  0  0  0  0  0
  -20.7865   -7.0673   22.8556 C   0  0  0  0  0  0  0  0  0  0  0  0
  -20.0151   -6.2937   25.4225 C   0  0  0  0  0  0  0  0  0  0  0  0
  -21.5911   -6.1993   23.5937 C   0  0  0  0  0  0  0  0  0  0  0  0
  -26.0373  -10.1470   21.0306 C   0  0  0  0  0  0  0  0  0  0  0  0
  -28.1391  -10.7750   21.1830 C   0  0  0  0  0  0  0  0  0  0  0  0
  -27.9879  -19.5689   18.2928 C   0  0  0  0  0  0  0  0  0  0  0  0
  -27.5891   -8.7340   22.5173 C   0  0  0  0  0  0  0  0  0  0  0  0
  -23.9999  -30.8790   22.9591 C   0  0  0  0  0  0  0  0  0  0  0  0
  -22.1729  -31.4975   20.3510 C   0  0  0  0  0  0  0  0  0  0  0  0
  -21.3400  -30.6940   17.1405 C   0  0  0  0  0  0  0  0  0  0  0  0
  -27.1890  -16.3290   19.3370 C   0  0  0  0  0  0  0  0  0  0  0  0
  -25.3544  -33.3120   27.2373 C   0  0  0  0  0  0  0  0  0  0  0  0
  -25.7459  -31.0360   21.1473 C   0  0  0  0  0  0  0  0  0  0  0  0
  -23.4695  -29.3332   20.3331 C   0  0  0  0  0  0  0  0  0  0  0  0
  -24.1760  -33.3797   26.2693 C   0  0  0  0  0  0  0  0  0  0  0  0
  -28.9272  -13.6944   17.4870 C   0  0  0  0  0  0  0  0  0  0  0  0
  -23.6283  -31.9824   25.9966 C   0  0  0  0  0  0  0  0  0  0  0  0
  -28.4635  -12.4474   18.2370 C   0  0  0  0  0  0  0  0  0  0  0  0
  -27.8276  -14.7522   17.4128 C   0  0  0  0  0  0  0  0  0  0  0  0
  -26.8043  -13.8872   19.4900 C   0  0  0  0  0  0  0  0  0  0  0  0
  -24.6902  -31.0920   25.3401 C   0  0  1  0  0  0  0  0  0  0  0  0
  -24.3145  -31.3536   21.5686 C   0  0  1  0  0  0  0  0  0  0  0  0
  -27.8995  -12.8158   19.6193 C   0  0  1  0  0  0  0  0  0  0  0  0
  -30.3970  -21.0453   16.5315 C   0  0  0  0  0  0  0  0  0  0  0  0
  -19.7849  -31.3539   15.2848 C   0  0  0  0  0  0  0  0  0  0  0  0
  -19.8701  -30.1049   21.7889 C   0  0  0  0  0  0  0  0  0  0  0  0
  -18.6832  -29.9492   19.5900 C   0  0  0  0  0  0  0  0  0  0  0  0
  -19.2259  -32.1837   20.5569 C   0  0  0  0  0  0  0  0  0  0  0  0
  -23.5892  -31.3788   15.3429 C   0  0  0  0  0  0  0  0  0  0  0  0
  -28.9881  -21.6265   16.4642 C   0  0  0  0  0  0  0  0  0  0  0  0
  -27.9220  -25.1085   19.8824 C   0  0  0  0  0  0  0  0  0  1  0  0
  -21.0863  -30.7591   19.6074 C   0  0  1  0  0  0  0  0  0  0  0  0
  -21.1608  -31.5524   15.9014 C   0  0  2  0  0  0  0  0  0  0  0  0
  -19.7424  -30.7381   20.3890 C   0  0  0  0  0  0  0  0  0  0  0  0
  -26.1185  -11.2339   20.2586 N   0  0  0  0  0  0  0  0  0  0  0  0
  -27.5514  -18.6422   19.0827 N   0  0  0  0  0  0  0  0  0  0  0  0
  -27.4087  -11.5927   20.3718 N   0  0  0  0  0  0  0  0  0  0  0  0
  -23.3174  -30.7564   20.6778 N   0  0  0  0  0  0  0  0  0  0  0  0
  -27.2952  -15.0560   18.7498 N   0  0  0  0  0  0  0  0  0  0  0  0
  -29.4526  -10.9914   21.4070 N   0  0  0  0  0  0  0  0  0  0  0  0
  -26.5730   -7.8383   22.8771 N   0  0  0  0  0  0  0  0  0  0  0  0
  -24.8200  -31.4126   23.9348 N   0  0  0  0  0  0  0  0  0  0  0  0
  -21.0011  -31.3777   18.2889 N   0  0  0  0  0  0  0  0  0  0  0  0
  -27.6329  -17.3912   18.5648 N   0  0  0  0  0  0  0  0  0  0  0  0
  -22.1884  -31.2069   14.8788 N   0  3  0  0  0  0  0  0  0  0  0  0
  -28.7409   -8.5773   22.9888 O   0  0  0  0  0  0  0  0  0  0  0  0
  -23.0801  -30.0883   23.1340 O   0  0  0  0  0  0  0  0  0  0  0  0
  -22.0152  -32.6897   20.6253 O   0  0  0  0  0  0  0  0  0  0  0  0
  -21.7372  -29.5318   17.0939 O   0  0  0  0  0  0  0  0  0  0  0  0
  -26.7283  -16.5045   20.4708 O   0  0  0  0  0  0  0  0  0  0  0  0
  -21.1685   -7.4529   21.5816 O   0  0  0  0  0  0  0  0  0  0  0  0
  -26.5825  -25.5951   19.8099 O   0  0  0  0  0  0  0  0  0  1  0  0
  -19.6453   -5.9235   26.6555 F   0  0  0  0  0  0  0  0  0  0  0  0
  -22.7363   -5.7347   23.0756 F   0  0  0  0  0  0  0  0  0  0  0  0
  1  2  1  0  0  0  0
  1  6  2  0  0  0  0
  2  7  2  0  0  0  0
  3 10  2  0  0  0  0
  3 18  1  0  0  0  0
  4 11  1  0  0  0  0
  4 18  2  0  0  0  0
  5  9  2  0  0  0  0
  5 19  1  0  0  0  0
  6 21  1  0  0  0  0
  7 23  1  0  0  0  0
  8 12  2  0  0  0  0
  8 22  1  0  0  0  0
  9 25  1  0  0  0  0
 10 27  1  0  0  0  0
 11 27  2  0  0  0  0
 12 28  1  0  0  0  0
 13 14  2  0  0  0  0
 13 29  1  0  0  0  0
 14 30  1  0  0  0  0
 15 24  1  0  0  0  0
 15 28  2  0  0  0  0
 16 25  2  0  0  0  0
 16 26  1  0  0  0  0
 17 30  2  0  0  0  0
 17 31  1  0  0  0  0
 18 32  1  0  0  0  0
 19 26  2  0  0  0  0
 19 34  1  0  0  0  0
 20 32  1  0  0  0  0
 20 33  2  0  0  0  0
 20 35  1  0  0  0  0
 21 23  2  0  0  0  0
 21 40  1  0  0  0  0
 22 24  2  0  0  0  0
 22 41  1  0  0  0  0
 23 49  1  0  0  0  0
 24 42  1  0  0  0  0
 25 59  1  0  0  0  0
 26 58  1  0  0  0  0
 27 79  1  0  0  0  0
 28 80  1  0  0  0  0
 29 31  2  0  0  0  0
 29 79  1  0  0  0  0
 30 81  1  0  0  0  0
 31 82  1  0  0  0  0
 32 63  2  0  0  0  0
 33 65  1  0  0  0  0
 33 68  1  0  0  0  0
 34 64  2  0  0  0  0
 35 69  1  0  0  0  0
 35 74  2  0  0  0  0
 36 50  1  0  0  0  0
 36 70  1  0  0  0  0
 36 75  2  0  0  0  0
 37 60  1  0  0  0  0
 37 66  1  0  0  0  0
 37 76  2  0  0  0  0
 38 61  1  0  0  0  0
 38 71  1  0  0  0  0
 38 77  2  0  0  0  0
 39 67  1  0  0  0  0
 39 72  1  0  0  0  0
 39 78  2  0  0  0  0
 40 43  1  0  0  0  0
 41 50  1  0  0  0  0
 42 66  1  0  0  0  0
 43 45  1  0  0  0  0
 44 46  1  0  0  0  0
 44 47  1  0  0  0  0
 45 49  1  0  0  0  0
 46 51  1  0  0  0  0
 47 67  1  0  0  0  0
 48 51  1  0  0  0  0
 48 67  1  0  0  0  0
 49 70  1  0  0  0  0
 50 66  1  0  0  0  0
 51 65  1  0  0  0  0
 52 58  1  0  0  0  0
 53 61  1  0  0  0  0
 54 62  1  0  0  0  0
 55 62  1  0  0  0  0
 56 62  1  0  0  0  0
 57 73  1  0  0  0  0
 59 80  1  0  0  0  0
 60 62  1  0  0  0  0
 60 71  1  0  0  0  0
 61 73  1  0  0  0  0
 63 65  1  0  0  0  0
 64 72  1  0  0  0  0
M  CHG  1  73   1
M  ISO  4  39 100  59 101  72 100  80 101
M  END
> <Batch ID>
0127

> <Smiles>
CCc1cc([101CH2:1][101O:1]c2ccc3c(c2)CN(C(=O)C(NC(=O)C(C)NC)C(C)(C)C)C(C(=O)NC2CCCc4ccccc42)C3)ccc1C=N[100NH:0][100C:0](=O)N1CCCC(n2nc(-c3ccc(Oc4ccc(F)cc4F)cc3)c(C(N)=O)c2N)C1

> <Shape>
0.259

> <Color>
0.079

> <Negative vol penalty>
0.000

$$$$

  -OEChem-04052302143D

 83 91  0     1  0  0  0  0  0999 V2000
  -19.5203  -21.2353   23.1341 C   0  0  0  0  0  0  0  0  0  0  0  0
  -20.8993  -21.1311   22.9833 C   0  0  0  0  0  0  0  0  0  0  0  0
  -23.5041   -9.8903   22.1568 C   0  0  0  0  0  0  0  0  0  0  0  0
  -24.2132  -11.3734   23.9273 C   0  0  0  0  0  0  0  0  0  0  0  0
  -18.8593  -22.3886   22.7135 C   0  0  0  0  0  0  0  0  0  0  0  0
  -21.6182  -22.1798   22.4108 C   0  0  0  0  0  0  0  0  0  0  0  0
  -27.2915  -23.9759   23.8575 C   0  0  0  0  0  0  0  0  0  0  0  0
  -22.9101   -9.0501   23.0985 C   0  0  0  0  0  0  0  0  0  0  0  0
  -23.6192  -10.5332   24.8690 C   0  0  0  0  0  0  0  0  0  0  0  0
  -28.5329  -23.7212   23.2763 C   0  0  0  0  0  0  0  0  0  0  0  0
  -23.8989   -6.6806   25.2967 C   0  0  0  0  0  0  0  0  0  0  0  0
  -24.1154   -5.3087   25.1681 C   0  0  0  0  0  0  0  0  0  0  0  0
  -29.7000  -19.8934   19.8355 C   0  0  0  0  0  0  0  0  0  0  0  0
  -28.3818  -25.7976   22.0577 C   0  0  0  0  0  0  0  0  0  0  0  0
  -31.5022  -17.7781   19.5908 C   0  0  0  0  0  0  0  0  0  0  0  0
  -21.7365   -4.9548   24.9390 C   0  0  0  0  0  0  0  0  0  0  0  0
  -24.1556  -11.0520   22.5712 C   0  0  0  0  0  0  0  0  0  0  0  0
  -31.0726  -20.1402   19.8604 C   0  0  0  0  0  0  0  0  0  0  0  0
  -24.1720  -13.0048   20.9299 C   0  0  0  0  0  0  0  0  0  0  0  0
  -19.5717  -23.4559   22.1443 C   0  0  0  0  0  0  0  0  0  0  0  0
  -26.5798  -25.1402   23.5343 C   0  0  0  0  0  0  0  0  0  0  0  0
  -20.9660  -23.3480   21.9809 C   0  0  0  0  0  0  0  0  0  0  0  0
  -27.1327  -26.0660   22.6382 C   0  0  0  0  0  0  0  0  0  0  0  0
  -29.2284  -18.5889   19.6884 C   0  0  0  0  0  0  0  0  0  0  0  0
  -30.1295  -17.5313   19.5660 C   0  0  0  0  0  0  0  0  0  0  0  0
  -22.9676   -9.3715   24.4546 C   0  0  0  0  0  0  0  0  0  0  0  0
  -29.0769  -24.6307   22.3741 C   0  0  0  0  0  0  0  0  0  0  0  0
  -22.6012   -7.1896   25.2466 C   0  0  0  0  0  0  0  0  0  0  0  0
  -23.0343   -4.4458   24.9892 C   0  0  0  0  0  0  0  0  0  0  0  0
  -31.9737  -19.0826   19.7380 C   0  0  0  0  0  0  0  0  0  0  0  0
  -21.5200   -6.3267   25.0677 C   0  0  0  0  0  0  0  0  0  0  0  0
  -24.7699  -11.9200   21.5989 C   0  0  0  0  0  0  0  0  0  0  0  0
  -25.1654  -13.4983   20.1198 C   0  0  0  0  0  0  0  0  0  0  0  0
  -31.5651  -21.5190   20.0159 C   0  0  0  0  0  0  0  0  0  0  0  0
  -30.9365  -22.6190   19.5726 C   0  0  0  0  0  0  0  0  0  0  0  0
  -22.8380  -13.5204   21.0317 C   0  0  0  0  0  0  0  0  0  0  0  0
  -23.7685  -25.7477   22.1810 C   0  0  0  0  0  0  0  0  0  0  0  0
  -24.4894  -28.8103   22.9702 C   0  0  0  0  0  0  0  0  0  0  0  0
  -26.8879  -31.1286   23.6912 C   0  0  0  0  0  0  0  0  0  0  0  0
  -30.4473  -15.0483   19.2824 C   0  0  0  0  0  0  0  0  0  0  0  0
  -18.8075  -24.6632   21.6614 C   0  0  0  0  0  0  0  0  0  0  0  0
  -25.2540  -25.4132   24.1903 C   0  0  0  0  0  0  0  0  0  0  0  0
  -26.4181  -27.3407   22.2733 C   0  0  0  0  0  0  0  0  0  0  0  0
  -19.6911  -25.8818   21.4075 C   0  0  0  0  0  0  0  0  0  0  0  0
  -29.6978  -11.5858   18.9277 C   0  0  0  0  0  0  0  0  0  0  0  0
  -20.9309  -25.4859   20.6120 C   0  0  0  0  0  0  0  0  0  0  0  0
  -28.2997  -11.4533   19.5360 C   0  0  0  0  0  0  0  0  0  0  0  0
  -30.5529  -12.5988   19.6868 C   0  0  0  0  0  0  0  0  0  0  0  0
  -28.5428  -13.7899   20.4676 C   0  0  0  0  0  0  0  0  0  0  0  0
  -21.7838  -24.4743   21.3870 C   0  0  1  0  0  0  0  0  0  0  0  0
  -24.3829  -26.3821   23.3966 C   0  0  1  0  0  0  0  0  0  0  0  0
  -27.6228  -12.8285   19.6976 C   0  0  2  0  0  0  0  0  0  0  0  0
  -27.7528  -18.3531   19.6652 C   0  0  0  0  0  0  0  0  0  0  0  0
  -27.1739  -33.5565   24.2573 C   0  0  0  0  0  0  0  0  0  0  0  0
  -23.9967  -29.5467   20.0504 C   0  0  0  0  0  0  0  0  0  0  0  0
  -25.1909  -31.7075   20.4665 C   0  0  0  0  0  0  0  0  0  0  0  0
  -23.0904  -31.1864   21.7071 C   0  0  0  0  0  0  0  0  0  0  0  0
  -28.1103  -30.4933   26.3105 C   0  0  0  0  0  0  0  0  0  0  0  0
  -31.4826  -24.0104   19.7421 C   0  0  0  0  0  0  0  0  0  0  0  0
  -30.5098  -24.9090   20.4965 C   0  0  0  0  0  0  0  0  0  1  0  0
  -25.2150  -29.9468   22.2914 C   0  0  1  0  0  0  0  0  0  0  0  0
  -26.9978  -32.1502   24.8086 C   0  0  2  0  0  0  0  0  0  0  0  0
  -24.3861  -30.5720   21.1340 C   0  0  0  0  0  0  0  0  0  0  0  0
  -26.0443  -11.7347   21.2445 N   0  0  0  0  0  0  0  0  0  0  0  0
  -26.2553  -12.7096   20.3439 N   0  0  0  0  0  0  0  0  0  0  0  0
  -25.1219  -27.5595   22.9363 N   0  0  0  0  0  0  0  0  0  0  0  0
  -29.8495  -13.8785   19.7972 N   0  0  0  0  0  0  0  0  0  0  0  0
  -25.2041  -14.5255   19.2448 N   0  0  0  0  0  0  0  0  0  0  0  0
  -21.9453  -12.8946   21.9124 N   0  0  0  0  0  0  0  0  0  0  0  0
  -29.6710  -16.1991   19.4153 N   0  0  0  0  0  0  0  0  0  0  0  0
  -22.5489  -25.1428   22.4177 N   0  0  0  0  0  0  0  0  0  0  0  0
  -25.5747  -30.8890   23.3455 N   0  0  0  0  0  0  0  0  0  0  0  0
  -28.1641  -31.8385   25.6825 N   0  3  0  0  0  0  0  0  0  0  0  0
  -22.4444  -14.4966   20.3493 O   0  0  0  0  0  0  0  0  0  0  0  0
  -24.3567  -25.8042   21.1074 O   0  0  0  0  0  0  0  0  0  0  0  0
  -23.4048  -29.0260   23.5168 O   0  0  0  0  0  0  0  0  0  0  0  0
  -27.8690  -30.5990   23.1739 O   0  0  0  0  0  0  0  0  0  0  0  0
  -31.5540  -15.0258   18.7377 O   0  0  0  0  0  0  0  0  0  0  0  0
  -22.3879   -8.5520   25.3737 O   0  0  0  0  0  0  0  0  0  0  0  0
  -30.2881  -24.3841   21.8048 O   0  0  0  0  0  0  0  0  0  1  0  0
  -23.2425   -3.1285   24.8641 F   0  0  0  0  0  0  0  0  0  0  0  0
  -33.2962  -19.3041   19.7607 F   0  0  0  0  0  0  0  0  0  0  0  0
  -20.2711   -6.8100   25.0176 F   0  0  0  0  0  0  0  0  0  0  0  0
  1  2  1  0  0  0  0
  1  5  2  0  0  0  0
  2  6  2  0  0  0  0
  3  8  2  0  0  0  0
  3 17  1  0  0  0  0
  4  9  1  0  0  0  0
  4 17  2  0  0  0  0
  5 20  1  0  0  0  0
  6 22  1  0  0  0  0
  7 10  2  0  0  0  0
  7 21  1  0  0  0  0
  8 26  1  0  0  0  0
  9 26  2  0  0  0  0
 10 27  1  0  0  0  0
 11 12  2  0  0  0  0
 11 28  1  0  0  0  0
 12 29  1  0  0  0  0
 13 18  1  0  0  0  0
 13 24  2  0  0  0  0
 14 23  1  0  0  0  0
 14 27  2  0  0  0  0
 15 25  2  0  0  0  0
 15 30  1  0  0  0  0
 16 29  2  0  0  0  0
 16 31  1  0  0  0  0
 17 32  1  0  0  0  0
 18 30  2  0  0  0  0
 18 34  1  0  0  0  0
 19 32  1  0  0  0  0
 19 33  2  0  0  0  0
 19 36  1  0  0  0  0
 20 22  2  0  0  0  0
 20 41  1  0  0  0  0
 21 23  2  0  0  0  0
 21 42  1  0  0  0  0
 22 50  1  0  0  0  0
 23 43  1  0  0  0  0
 24 25  1  0  0  0  0
 24 53  1  0  0  0  0
 25 70  1  0  0  0  0
 26 79  1  0  0  0  0
 27 80  1  0  0  0  0
 28 31  2  0  0  0  0
 28 79  1  0  0  0  0
 29 81  1  0  0  0  0
 30 82  1  0  0  0  0
 31 83  1  0  0  0  0
 32 64  2  0  0  0  0
 33 65  1  0  0  0  0
 33 68  1  0  0  0  0
 34 35  2  0  0  0  0
 35 59  1  0  0  0  0
 36 69  1  0  0  0  0
 36 74  2  0  0  0  0
 37 51  1  0  0  0  0
 37 71  1  0  0  0  0
 37 75  2  0  0  0  0
 38 61  1  0  0  0  0
 38 66  1  0  0  0  0
 38 76  2  0  0  0  0
 39 62  1  0  0  0  0
 39 72  1  0  0  0  0
 39 77  2  0  0  0  0
 40 67  1  0  0  0  0
 40 70  1  0  0  0  0
 40 78  2  0  0  0  0
 41 44  1  0  0  0  0
 42 51  1  0  0  0  0
 43 66  1  0  0  0  0
 44 46  1  0  0  0  0
 45 47  1  0  0  0  0
 45 48  1  0  0  0  0
 46 50  1  0  0  0  0
 47 52  1  0  0  0  0
 48 67  1  0  0  0  0
 49 52  1  0  0  0  0
 49 67  1  0  0  0  0
 50 71  1  0  0  0  0
 51 66  1  0  0  0  0
 52 65  1  0  0  0  0
 54 62  1  0  0  0  0
 55 63  1  0  0  0  0
 56 63  1  0  0  0  0
 57 63  1  0  0  0  0
 58 73  1  0  0  0  0
 59 60  1  0  0  0  0
 60 80  1  0  0  0  0
 61 63  1  0  0  0  0
 61 72  1  0  0  0  0
 62 73  1  0  0  0  0
 64 65  1  0  0  0  0
M  CHG  1  73   1
M  ISO  4  40 100  60 101  70 100  80 101
M  END
> <Batch ID>
0127

> <Smiles>
CNC(C)C(=O)NC(C(=O)N1Cc2cc([101O:1][101CH2:1]CC=Cc3cc(C)c([100NH:0][100C:0](=O)N4CCCC(n5nc(-c6ccc(Oc7ccc(F)cc7F)cc6)c(C(N)=O)c5N)C4)cc3F)ccc2CC1C(=O)NC1CCCc2ccccc21)C(C)(C)C

> <Shape>
0.249

> <Color>
0.122

> <Negative vol penalty>
0.000

$$$$

  -OEChem-04052302143D

 85 93  0     1  0  0  0  0  0999 V2000
  -21.7529   -7.8216   22.0093 C   0  0  0  0  0  0  0  0  0  0  0  0
  -22.7068   -8.5247   21.2806 C   0  0  0  0  0  0  0  0  0  0  0  0
  -24.3983  -28.4902   21.9296 C   0  0  0  0  0  0  0  0  0  0  0  0
  -25.6777  -30.0677   20.6212 C   0  0  0  0  0  0  0  0  0  0  0  0
  -20.6141   -8.4753   22.4780 C   0  0  0  0  0  0  0  0  0  0  0  0
  -22.5219   -9.8819   21.0192 C   0  0  0  0  0  0  0  0  0  0  0  0
  -26.7243  -12.5995   21.7934 C   0  0  0  0  0  0  0  0  0  0  0  0
  -23.9237  -29.5340   22.7239 C   0  0  0  0  0  0  0  0  0  0  0  0
  -25.2031  -31.1115   21.4155 C   0  0  0  0  0  0  0  0  0  0  0  0
  -27.7057  -12.5501   20.8043 C   0  0  0  0  0  0  0  0  0  0  0  0
  -25.8604  -32.4209   24.4625 C   0  0  0  0  0  0  0  0  0  0  0  0
  -26.7813  -33.3727   24.9000 C   0  0  0  0  0  0  0  0  0  0  0  0
  -30.8234  -17.3619   20.3830 C   0  0  0  0  0  0  0  0  0  0  0  0
  -26.9377  -14.6692   19.9449 C   0  0  0  0  0  0  0  0  0  0  0  0
  -33.2488  -18.0574   21.5730 C   0  0  0  0  0  0  0  0  0  0  0  0
  -25.5352  -35.1016   23.7620 C   0  0  0  0  0  0  0  0  0  0  0  0
  -25.2753  -28.7571   20.8782 C   0  0  0  0  0  0  0  0  0  0  0  0
  -31.0412  -18.6724   20.8080 C   0  0  0  0  0  0  0  0  0  0  0  0
  -25.1842  -27.1745   18.8795 C   0  0  0  0  0  0  0  0  0  0  0  0
  -20.4198   -9.8434   22.2306 C   0  0  0  0  0  0  0  0  0  0  0  0
  -25.8338  -13.6807   21.8590 C   0  0  0  0  0  0  0  0  0  0  0  0
  -21.3788  -10.5543   21.4839 C   0  0  0  0  0  0  0  0  0  0  0  0
  -25.9475  -14.7312   20.9373 C   0  0  0  0  0  0  0  0  0  0  0  0
  -32.2539  -19.0202   21.4029 C   0  0  0  0  0  0  0  0  0  0  0  0
  -33.0310  -16.7468   21.1481 C   0  0  0  0  0  0  0  0  0  0  0  0
  -24.3261  -30.8446   22.4668 C   0  0  0  0  0  0  0  0  0  0  0  0
  -27.8107  -13.5837   19.8781 C   0  0  0  0  0  0  0  0  0  0  0  0
  -24.7769  -32.8094   23.6746 C   0  0  0  0  0  0  0  0  0  0  0  0
  -31.8182  -16.3990   20.5532 C   0  0  0  0  0  0  0  0  0  0  0  0
  -26.6187  -34.7130   24.5498 C   0  0  0  0  0  0  0  0  0  0  0  0
  -24.6143  -34.1497   23.3244 C   0  0  0  0  0  0  0  0  0  0  0  0
  -25.7664  -27.6792   20.0577 C   0  0  0  0  0  0  0  0  0  0  0  0
  -26.0275  -26.1647   18.4852 C   0  0  0  0  0  0  0  0  0  0  0  0
  -29.9822  -19.6550   20.6179 C   0  0  0  0  0  0  0  0  0  0  0  0
  -30.0810  -20.7750   19.8732 C   0  0  0  0  0  0  0  0  0  0  0  0
  -23.9881  -27.5820   18.2021 C   0  0  0  0  0  0  0  0  0  0  0  0
  -28.9111  -21.6703   19.7701 C   0  0  0  0  0  0  0  0  0  0  0  0
  -22.6824  -14.0095   21.6053 C   0  0  0  0  0  0  0  0  0  0  0  0
  -23.3269  -17.0772   22.4396 C   0  0  0  0  0  0  0  0  0  0  0  0
  -25.5859  -19.6323   22.5639 C   0  0  0  0  0  0  0  0  0  0  0  0
  -19.1501  -10.4960   22.7171 C   0  0  0  0  0  0  0  0  0  0  0  0
  -24.7978  -13.7320   22.9483 C   0  0  0  0  0  0  0  0  0  0  0  0
  -25.0289  -15.9241   20.9771 C   0  0  0  0  0  0  0  0  0  0  0  0
  -19.2110  -12.0213   22.7181 C   0  0  0  0  0  0  0  0  0  0  0  0
  -30.6345  -24.8887   20.0910 C   0  0  0  0  0  0  0  0  0  0  0  0
  -19.7906  -12.5334   21.4034 C   0  0  0  0  0  0  0  0  0  0  0  0
  -29.4553  -25.8575   20.0609 C   0  0  0  0  0  0  0  0  0  0  0  0
  -30.2769  -23.5742   20.7828 C   0  0  0  0  0  0  0  0  0  0  0  0
  -27.8926  -23.8766   20.1795 C   0  0  0  0  0  0  0  0  0  0  0  0
  -21.2260  -12.0331   21.2012 C   0  0  1  0  0  0  0  0  0  0  0  0
  -23.6146  -14.6320   22.6058 C   0  0  1  0  0  0  0  0  0  0  0  0
  -28.2161  -25.1877   19.4462 C   0  0  1  0  0  0  0  0  0  0  0  0
  -32.5222  -20.4149   21.8699 C   0  0  0  0  0  0  0  0  0  0  0  0
  -33.8209  -14.7988   22.5148 C   0  0  0  0  0  0  0  0  0  0  0  0
  -25.8099  -22.0313   23.2656 C   0  0  0  0  0  0  0  0  0  0  0  0
  -21.7822  -17.9456   19.9557 C   0  0  0  0  0  0  0  0  0  0  0  0
  -22.8275  -20.2092   20.1822 C   0  0  0  0  0  0  0  0  0  0  0  0
  -21.3500  -19.3330   21.9910 C   0  0  0  0  0  0  0  0  0  0  0  0
  -27.6972  -18.9802   24.5327 C   0  0  0  0  0  0  0  0  0  0  0  0
  -34.1065  -15.7289   21.3394 C   0  0  0  0  0  0  0  0  0  0  0  0
  -31.1330  -13.4579   18.4435 C   0  0  0  0  0  0  0  0  0  0  0  0
  -29.9791  -12.8542   19.2287 C   0  0  0  0  0  0  0  0  0  1  0  0
  -31.3150  -14.9369   18.7464 C   0  0  0  0  0  0  0  0  0  0  0  0
  -23.6564  -18.3433   21.6864 C   0  0  1  0  0  0  0  0  0  0  0  0
  -25.9754  -20.5788   23.6850 C   0  0  2  0  0  0  0  0  0  0  0  0
  -22.4203  -18.9345   20.9516 C   0  0  0  0  0  0  0  0  0  0  0  0
  -26.8924  -27.0425   20.3902 N   0  0  0  0  0  0  0  0  0  0  0  0
  -27.0246  -26.1272   19.4151 N   0  0  0  0  0  0  0  0  0  0  0  0
  -29.0554  -22.9827   20.2164 N   0  0  0  0  0  0  0  0  0  0  0  0
  -24.0284  -15.9251   22.0571 N   0  0  0  0  0  0  0  0  0  0  0  0
  -26.0060  -25.3139   17.4372 N   0  0  0  0  0  0  0  0  0  0  0  0
  -23.2400  -28.6365   18.7433 N   0  0  0  0  0  0  0  0  0  0  0  0
  -22.1477  -12.8014   22.0102 N   0  0  0  0  0  0  0  0  0  0  0  0
  -24.2648  -19.2484   22.6555 N   0  0  0  0  0  0  0  0  0  0  0  0
  -27.3970  -20.3616   24.0759 N   0  3  0  0  0  0  0  0  0  0  0  0
  -23.5855  -27.0167   17.1572 O   0  0  0  0  0  0  0  0  0  0  0  0
  -27.8744  -21.1992   19.2988 O   0  0  0  0  0  0  0  0  0  0  0  0
  -22.4632  -14.5836   20.5451 O   0  0  0  0  0  0  0  0  0  0  0  0
  -22.4836  -17.1109   23.3392 O   0  0  0  0  0  0  0  0  0  0  0  0
  -26.3737  -19.2728   21.6918 O   0  0  0  0  0  0  0  0  0  0  0  0
  -23.8630  -31.8634   23.2416 O   0  0  0  0  0  0  0  0  0  0  0  0
  -28.7673  -13.5377   18.9113 O   0  0  0  0  0  0  0  0  0  1  0  0
  -31.5882  -15.1160   20.1295 O   0  0  0  0  0  0  0  0  0  0  0  0
  -27.5024  -35.6272   24.9714 F   0  0  0  0  0  0  0  0  0  0  0  0
  -23.5747  -34.5292   22.5687 F   0  0  0  0  0  0  0  0  0  0  0  0
  1  2  1  0  0  0  0
  1  5  2  0  0  0  0
  2  6  2  0  0  0  0
  3  8  2  0  0  0  0
  3 17  1  0  0  0  0
  4  9  1  0  0  0  0
  4 17  2  0  0  0  0
  5 20  1  0  0  0  0
  6 22  1  0  0  0  0
  7 10  2  0  0  0  0
  7 21  1  0  0  0  0
  8 26  1  0  0  0  0
  9 26  2  0  0  0  0
 10 27  1  0  0  0  0
 11 12  2  0  0  0  0
 11 28  1  0  0  0  0
 12 30  1  0  0  0  0
 13 18  2  0  0  0  0
 13 29  1  0  0  0  0
 14 23  1  0  0  0  0
 14 27  2  0  0  0  0
 15 24  2  0  0  0  0
 15 25  1  0  0  0  0
 16 30  2  0  0  0  0
 16 31  1  0  0  0  0
 17 32  1  0  0  0  0
 18 24  1  0  0  0  0
 18 34  1  0  0  0  0
 19 32  1  0  0  0  0
 19 33  2  0  0  0  0
 19 36  1  0  0  0  0
 20 22  2  0  0  0  0
 20 41  1  0  0  0  0
 21 23  2  0  0  0  0
 21 42  1  0  0  0  0
 22 50  1  0  0  0  0
 23 43  1  0  0  0  0
 24 53  1  0  0  0  0
 25 29  2  0  0  0  0
 25 60  1  0  0  0  0
 26 81  1  0  0  0  0
 27 82  1  0  0  0  0
 28 31  2  0  0  0  0
 28 81  1  0  0  0  0
 29 83  1  0  0  0  0
 30 84  1  0  0  0  0
 31 85  1  0  0  0  0
 32 67  2  0  0  0  0
 33 68  1  0  0  0  0
 33 71  1  0  0  0  0
 34 35  2  0  0  0  0
 35 37  1  0  0  0  0
 36 72  1  0  0  0  0
 36 76  2  0  0  0  0
 37 69  1  0  0  0  0
 37 77  2  0  0  0  0
 38 51  1  0  0  0  0
 38 73  1  0  0  0  0
 38 78  2  0  0  0  0
 39 64  1  0  0  0  0
 39 70  1  0  0  0  0
 39 79  2  0  0  0  0
 40 65  1  0  0  0  0
 40 74  1  0  0  0  0
 40 80  2  0  0  0  0
 41 44  1  0  0  0  0
 42 51  1  0  0  0  0
 43 70  1  0  0  0  0
 44 46  1  0  0  0  0
 45 47  1  0  0  0  0
 45 48  1  0  0  0  0
 46 50  1  0  0  0  0
 47 52  1  0  0  0  0
 48 69  1  0  0  0  0
 49 52  1  0  0  0  0
 49 69  1  0  0  0  0
 50 73  1  0  0  0  0
 51 70  1  0  0  0  0
 52 68  1  0  0  0  0
 54 60  1  0  0  0  0
 55 65  1  0  0  0  0
 56 66  1  0  0  0  0
 57 66  1  0  0  0  0
 58 66  1  0  0  0  0
 59 75  1  0  0  0  0
 61 62  1  0  0  0  0
 61 63  1  0  0  0  0
 62 82  1  0  0  0  0
 63 83  1  0  0  0  0
 64 66  1  0  0  0  0
 64 74  1  0  0  0  0
 65 75  1  0  0  0  0
 67 68  1  0  0  0  0
M  CHG  1  75   1
M  ISO  4  35 100  37 100  62 101  82 101
M  END
> <Batch ID>
0127

> <Smiles>
CCc1cc(C)c(C=[100CH:0][100C:0](=O)N2CCCC(n3nc(-c4ccc(Oc5ccc(F)cc5F)cc4)c(C(N)=O)c3N)C2)cc1OCC[101CH2:1][101O:1]c1ccc2c(c1)CN(C(=O)C(NC(=O)C(C)NC)C(C)(C)C)C(C(=O)NC1CCCc3ccccc31)C2

> <Shape>
0.265

> <Color>
0.084

> <Negative vol penalty>
0.000

$$$$

  -OEChem-04052302143D

 84 92  0     1  0  0  0  0  0999 V2000
  -19.0964   -7.9249   27.0867 C   0  0  0  0  0  0  0  0  0  0  0  0
  -20.2945   -8.6311   27.0503 C   0  0  0  0  0  0  0  0  0  0  0  0
  -32.9039  -16.6909   23.9825 C   0  0  0  0  0  0  0  0  0  0  0  0
  -23.2869   -9.8003   19.9127 C   0  0  0  0  0  0  0  0  0  0  0  0
  -23.7353   -9.9416   22.2825 C   0  0  0  0  0  0  0  0  0  0  0  0
  -31.8875  -17.3102   24.7098 C   0  0  0  0  0  0  0  0  0  0  0  0
  -17.9462   -8.4761   26.5236 C   0  0  0  0  0  0  0  0  0  0  0  0
  -20.3432   -9.8886   26.4498 C   0  0  0  0  0  0  0  0  0  0  0  0
  -23.7752  -14.6599   28.1711 C   0  0  0  0  0  0  0  0  0  0  0  0
  -32.8191  -15.3309   23.6844 C   0  0  0  0  0  0  0  0  0  0  0  0
  -22.5597   -8.6283   20.1202 C   0  0  0  0  0  0  0  0  0  0  0  0
  -23.0080   -8.7696   22.4900 C   0  0  0  0  0  0  0  0  0  0  0  0
  -24.9943  -15.1537   27.7089 C   0  0  0  0  0  0  0  0  0  0  0  0
  -20.2816   -5.7958   20.0716 C   0  0  0  0  0  0  0  0  0  0  0  0
  -19.0548   -5.6698   19.4198 C   0  0  0  0  0  0  0  0  0  0  0  0
  -23.8192  -16.7340   26.3158 C   0  0  0  0  0  0  0  0  0  0  0  0
  -18.2482   -7.6430   20.5569 C   0  0  0  0  0  0  0  0  0  0  0  0
  -23.8748  -10.4570   20.9939 C   0  0  0  0  0  0  0  0  0  0  0  0
  -30.7863  -16.5694   25.1392 C   0  0  0  0  0  0  0  0  0  0  0  0
  -30.7016  -15.2093   24.8411 C   0  0  0  0  0  0  0  0  0  0  0  0
  -24.1358  -12.9868   20.7945 C   0  0  0  0  0  0  0  0  0  0  0  0
  -17.9787   -9.7452   25.9244 C   0  0  0  0  0  0  0  0  0  0  0  0
  -22.5667  -15.1930   27.7001 C   0  0  0  0  0  0  0  0  0  0  0  0
  -19.1927  -10.4568   25.8769 C   0  0  0  0  0  0  0  0  0  0  0  0
  -22.5861  -16.2470   26.7755 C   0  0  0  0  0  0  0  0  0  0  0  0
  -31.7180  -14.5901   24.1137 C   0  0  0  0  0  0  0  0  0  0  0  0
  -22.4202   -8.1130   21.4089 C   0  0  0  0  0  0  0  0  0  0  0  0
  -25.0165  -16.1889   26.7789 C   0  0  0  0  0  0  0  0  0  0  0  0
  -20.4917   -6.8453   20.9661 C   0  0  0  0  0  0  0  0  0  0  0  0
  -18.0381   -6.5934   19.6625 C   0  0  0  0  0  0  0  0  0  0  0  0
  -19.4749   -7.7689   21.2087 C   0  0  0  0  0  0  0  0  0  0  0  0
  -24.6267  -11.6674   20.7801 C   0  0  0  0  0  0  0  0  0  0  0  0
  -25.2380  -13.7659   20.5404 C   0  0  0  0  0  0  0  0  0  0  0  0
  -28.4676  -14.2383   24.5554 C   0  0  0  0  0  0  0  0  0  0  0  0
  -29.7414  -17.2693   25.9047 C   0  0  0  0  0  0  0  0  0  0  0  0
  -29.5543  -14.4203   25.2859 C   0  0  0  0  0  0  0  0  0  0  0  0
  -28.6789  -17.8924   25.3715 C   0  0  0  0  0  0  0  0  0  0  0  0
  -22.8028  -13.4652   21.0178 C   0  0  0  0  0  0  0  0  0  0  0  0
  -20.0808  -14.0371   26.0915 C   0  0  0  0  0  0  0  0  0  0  0  0
  -18.8321  -16.9728   26.6787 C   0  0  0  0  0  0  0  0  0  0  0  0
  -19.3809  -20.2658   27.3868 C   0  0  0  0  0  0  0  0  0  0  0  0
  -31.1077  -12.9199   21.3663 C   0  0  0  0  0  0  0  0  0  0  0  0
  -16.7205  -10.2795   25.2871 C   0  0  0  0  0  0  0  0  0  0  0  0
  -21.2603  -14.6673   28.2286 C   0  0  0  0  0  0  0  0  0  0  0  0
  -21.3168  -16.8676   26.2537 C   0  0  0  0  0  0  0  0  0  0  0  0
  -16.7714  -11.7782   25.0018 C   0  0  0  0  0  0  0  0  0  0  0  0
  -29.4623  -13.6590   18.2966 C   0  0  0  0  0  0  0  0  0  0  0  0
  -18.0934  -12.1507   24.3381 C   0  0  0  0  0  0  0  0  0  0  0  0
  -27.9921  -13.3515   18.5863 C   0  0  0  0  0  0  0  0  0  0  0  0
  -30.3943  -12.6794   19.0063 C   0  0  0  0  0  0  0  0  0  0  0  0
  -28.7057  -12.2517   20.7496 C   0  0  0  0  0  0  0  0  0  0  0  0
  -19.2801  -11.8343   25.2564 C   0  0  1  0  0  0  0  0  0  0  0  0
  -20.0853  -14.9380   27.2940 C   0  0  1  0  0  0  0  0  0  0  0  0
  -27.7289  -13.2472   20.1006 C   0  0  2  0  0  0  0  0  0  0  0  0
  -18.1653  -22.4272   27.7715 C   0  0  0  0  0  0  0  0  0  0  0  0
  -18.3306  -17.2217   23.6793 C   0  0  0  0  0  0  0  0  0  0  0  0
  -18.0228  -19.6848   24.0058 C   0  0  0  0  0  0  0  0  0  0  0  0
  -16.4755  -18.0775   25.1217 C   0  0  0  0  0  0  0  0  0  0  0  0
  -20.4514  -20.5130   30.1349 C   0  0  0  0  0  0  0  0  0  0  0  0
  -31.6672  -13.1343   23.7747 C   0  0  0  0  0  0  0  0  0  0  0  0
  -27.6400  -18.6073   26.1915 C   0  0  0  0  0  0  0  0  0  0  0  0
  -26.2443  -18.0470   25.9446 C   0  0  0  0  0  0  0  0  0  1  0  0
  -18.8480  -18.3034   25.9658 C   0  0  1  0  0  0  0  0  0  0  0  0
  -18.7647  -21.1899   28.4216 C   0  0  2  0  0  0  0  0  0  0  0  0
  -17.9433  -18.3091   24.7013 C   0  0  0  0  0  0  0  0  0  0  0  0
  -25.9385  -11.6079   20.5360 N   0  0  0  0  0  0  0  0  0  0  0  0
  -26.2813  -12.8996   20.3945 N   0  0  0  0  0  0  0  0  0  0  0  0
  -20.0647  -16.3149   26.7960 N   0  0  0  0  0  0  0  0  0  0  0  0
  -30.0935  -12.6287   20.4391 N   0  0  0  0  0  0  0  0  0  0  0  0
  -25.4068  -15.1007   20.4295 N   0  0  0  0  0  0  0  0  0  0  0  0
  -21.7895  -12.5290   21.2646 N   0  0  0  0  0  0  0  0  0  0  0  0
  -19.4079  -12.8455   26.2837 N   0  0  0  0  0  0  0  0  0  0  0  0
  -18.4872  -19.3051   26.9632 N   0  0  0  0  0  0  0  0  0  0  0  0
  -30.7366  -12.8551   22.7038 N   0  0  0  0  0  0  0  0  0  0  0  0
  -19.7958  -21.6281   29.4043 N   0  3  0  0  0  0  0  0  0  0  0  0
  -22.5157  -14.6858   20.9827 O   0  0  0  0  0  0  0  0  0  0  0  0
  -20.6447  -14.3970   25.0648 O   0  0  0  0  0  0  0  0  0  0  0  0
  -17.7666  -16.5366   27.1216 O   0  0  0  0  0  0  0  0  0  0  0  0
  -20.5382  -20.3866   26.9910 O   0  0  0  0  0  0  0  0  0  0  0  0
  -32.2572  -13.2209   21.0272 O   0  0  0  0  0  0  0  0  0  0  0  0
  -21.7104   -6.9694   21.6117 O   0  0  0  0  0  0  0  0  0  0  0  0
  -26.2051  -16.6723   26.3257 O   0  0  0  0  0  0  0  0  0  1  0  0
  -16.8606   -6.4733   19.0354 F   0  0  0  0  0  0  0  0  0  0  0  0
  -19.6712   -8.7800   22.0661 F   0  0  0  0  0  0  0  0  0  0  0  0
  1  2  1  0  0  0  0
  1  7  2  0  0  0  0
  2  8  2  0  0  0  0
  3  6  1  0  0  0  0
  3 10  2  0  0  0  0
  4 11  2  0  0  0  0
  4 18  1  0  0  0  0
  5 12  1  0  0  0  0
  5 18  2  0  0  0  0
  6 19  2  0  0  0  0
  7 22  1  0  0  0  0
  8 24  1  0  0  0  0
  9 13  2  0  0  0  0
  9 23  1  0  0  0  0
 10 26  1  0  0  0  0
 11 27  1  0  0  0  0
 12 27  2  0  0  0  0
 13 28  1  0  0  0  0
 14 15  2  0  0  0  0
 14 29  1  0  0  0  0
 15 30  1  0  0  0  0
 16 25  1  0  0  0  0
 16 28  2  0  0  0  0
 17 30  2  0  0  0  0
 17 31  1  0  0  0  0
 18 32  1  0  0  0  0
 19 20  1  0  0  0  0
 19 35  1  0  0  0  0
 20 26  2  0  0  0  0
 20 36  1  0  0  0  0
 21 32  1  0  0  0  0
 21 33  2  0  0  0  0
 21 38  1  0  0  0  0
 22 24  2  0  0  0  0
 22 43  1  0  0  0  0
 23 25  2  0  0  0  0
 23 44  1  0  0  0  0
 24 52  1  0  0  0  0
 25 45  1  0  0  0  0
 26 60  1  0  0  0  0
 27 81  1  0  0  0  0
 28 82  1  0  0  0  0
 29 31  2  0  0  0  0
 29 81  1  0  0  0  0
 30 83  1  0  0  0  0
 31 84  1  0  0  0  0
 32 66  2  0  0  0  0
 33 67  1  0  0  0  0
 33 70  1  0  0  0  0
 34 36  2  0  0  0  0
 35 37  2  0  0  0  0
 37 61  1  0  0  0  0
 38 71  1  0  0  0  0
 38 76  2  0  0  0  0
 39 53  1  0  0  0  0
 39 72  1  0  0  0  0
 39 77  2  0  0  0  0
 40 63  1  0  0  0  0
 40 68  1  0  0  0  0
 40 78  2  0  0  0  0
 41 64  1  0  0  0  0
 41 73  1  0  0  0  0
 41 79  2  0  0  0  0
 42 69  1  0  0  0  0
 42 74  1  0  0  0  0
 42 80  2  0  0  0  0
 43 46  1  0  0  0  0
 44 53  1  0  0  0  0
 45 68  1  0  0  0  0
 46 48  1  0  0  0  0
 47 49  1  0  0  0  0
 47 50  1  0  0  0  0
 48 52  1  0  0  0  0
 49 54  1  0  0  0  0
 50 69  1  0  0  0  0
 51 54  1  0  0  0  0
 51 69  1  0  0  0  0
 52 72  1  0  0  0  0
 53 68  1  0  0  0  0
 54 67  1  0  0  0  0
 55 64  1  0  0  0  0
 56 65  1  0  0  0  0
 57 65  1  0  0  0  0
 58 65  1  0  0  0  0
 59 75  1  0  0  0  0
 60 74  1  0  0  0  0
 61 62  1  0  0  0  0
 62 82  1  0  0  0  0
 63 65  1  0  0  0  0
 63 73  1  0  0  0  0
 64 75  1  0  0  0  0
 66 67  1  0  0  0  0
M  CHG  1  75   1
M  ISO  4  42 100  62 101  74 100  82 101
M  END
> <Batch ID>
0127

> <Smiles>
C=Cc1c(C=CC[101CH2:1][101O:1]c2ccc3c(c2)CN(C(=O)C(NC(=O)C(C)NC)C(C)(C)C)C(C(=O)NC2CCCc4ccccc42)C3)cccc1C[100NH:0][100C:0](=O)N1CCCC(n2nc(-c3ccc(Oc4ccc(F)cc4F)cc3)c(C(N)=O)c2N)C1

> <Shape>
0.119

> <Color>
0.178

> <Negative vol penalty>
0.000

$$$$

  -OEChem-04052302143D

 84 92  0     1  0  0  0  0  0999 V2000
  -24.0728  -21.1704   37.6345 C   0  0  0  0  0  0  0  0  0  0  0  0
  -24.4179  -20.7857   36.3428 C   0  0  0  0  0  0  0  0  0  0  0  0
  -23.0734   -9.8699   19.9416 C   0  0  0  0  0  0  0  0  0  0  0  0
  -23.8316   -9.8779   22.2356 C   0  0  0  0  0  0  0  0  0  0  0  0
  -25.0674  -21.3626   38.5925 C   0  0  0  0  0  0  0  0  0  0  0  0
  -25.7579  -20.5941   36.0081 C   0  0  0  0  0  0  0  0  0  0  0  0
  -28.0214  -16.4562   32.1017 C   0  0  0  0  0  0  0  0  0  0  0  0
  -22.3283   -8.7176   20.1918 C   0  0  0  0  0  0  0  0  0  0  0  0
  -23.0864   -8.7255   22.4858 C   0  0  0  0  0  0  0  0  0  0  0  0
  -28.4154  -16.5434   30.7672 C   0  0  0  0  0  0  0  0  0  0  0  0
  -19.9407   -5.9794   20.3204 C   0  0  0  0  0  0  0  0  0  0  0  0
  -18.6353   -5.9322   19.8312 C   0  0  0  0  0  0  0  0  0  0  0  0
  -30.7011  -16.8628   31.4692 C   0  0  0  0  0  0  0  0  0  0  0  0
  -31.8944  -18.3430   24.1896 C   0  0  0  0  0  0  0  0  0  0  0  0
  -32.0663  -16.5892   22.5369 C   0  0  0  0  0  0  0  0  0  0  0  0
  -18.0709   -7.8765   21.1495 C   0  0  0  0  0  0  0  0  0  0  0  0
  -23.8251  -10.4500   20.9635 C   0  0  0  0  0  0  0  0  0  0  0  0
  -24.1692  -12.9748   20.8419 C   0  0  0  0  0  0  0  0  0  0  0  0
  -26.4196  -21.1639   38.2720 C   0  0  0  0  0  0  0  0  0  0  0  0
  -28.9642  -16.5828   33.1320 C   0  0  0  0  0  0  0  0  0  0  0  0
  -26.7716  -20.7851   36.9624 C   0  0  0  0  0  0  0  0  0  0  0  0
  -30.3169  -16.7743   32.8159 C   0  0  0  0  0  0  0  0  0  0  0  0
  -32.6741  -17.4664   23.4351 C   0  0  0  0  0  0  0  0  0  0  0  0
  -30.5069  -18.3423   24.0460 C   0  0  0  0  0  0  0  0  0  0  0  0
  -29.8992  -17.4651   23.1478 C   0  0  0  0  0  0  0  0  0  0  0  0
  -30.6788  -16.5886   22.3932 C   0  0  0  0  0  0  0  0  0  0  0  0
  -22.3348   -8.1454   21.4639 C   0  0  0  0  0  0  0  0  0  0  0  0
  -29.7550  -16.7496   30.4508 C   0  0  0  0  0  0  0  0  0  0  0  0
  -20.3111   -6.9751   21.2243 C   0  0  0  0  0  0  0  0  0  0  0  0
  -17.7004   -6.8808   20.2457 C   0  0  0  0  0  0  0  0  0  0  0  0
  -19.3762   -7.9237   21.6388 C   0  0  0  0  0  0  0  0  0  0  0  0
  -24.5954  -11.6400   20.7054 C   0  0  0  0  0  0  0  0  0  0  0  0
  -25.2623  -13.7230   20.4789 C   0  0  0  0  0  0  0  0  0  0  0  0
  -22.8989  -13.4920   21.2595 C   0  0  0  0  0  0  0  0  0  0  0  0
  -29.4010  -18.6166   35.5354 C   0  0  0  0  0  0  0  0  0  0  0  0
  -31.7543  -16.5389   36.3524 C   0  0  0  0  0  0  0  0  0  0  0  0
  -33.9566  -14.1238   35.3703 C   0  0  0  0  0  0  0  0  0  0  0  0
  -30.7293  -14.7639   20.6570 C   0  0  0  0  0  0  0  0  0  0  0  0
  -27.4627  -21.4297   39.3284 C   0  0  0  0  0  0  0  0  0  0  0  0
  -28.5270  -16.4597   34.5659 C   0  0  0  0  0  0  0  0  0  0  0  0
  -31.3713  -16.8965   33.8844 C   0  0  0  0  0  0  0  0  0  0  0  0
  -28.8314  -20.8422   38.9943 C   0  0  0  0  0  0  0  0  0  0  0  0
  -29.6146  -12.3494   18.2896 C   0  0  0  0  0  0  0  0  0  0  0  0
  -29.2120  -21.1620   37.5522 C   0  0  0  0  0  0  0  0  0  0  0  0
  -28.1743  -12.0594   18.7183 C   0  0  0  0  0  0  0  0  0  0  0  0
  -30.5290  -12.5782   19.4918 C   0  0  0  0  0  0  0  0  0  0  0  0
  -28.6216  -13.3054   20.8711 C   0  0  0  0  0  0  0  0  0  0  0  0
  -28.2123  -20.5434   36.5676 C   0  0  1  0  0  0  0  0  0  0  0  0
  -29.4955  -17.1170   35.5443 C   0  0  1  0  0  0  0  0  0  0  0  0
  -27.6495  -13.1321   19.6926 C   0  0  2  0  0  0  0  0  0  0  0  0
  -34.1574  -17.4660   23.5897 C   0  0  0  0  0  0  0  0  0  0  0  0
  -27.9604  -18.1846   21.7299 C   0  0  0  0  0  0  0  0  0  0  0  0
  -35.7771  -12.6405   36.2551 C   0  0  0  0  0  0  0  0  0  0  0  0
  -33.6657  -18.9168   36.3993 C   0  0  0  0  0  0  0  0  0  0  0  0
  -35.5729  -17.2959   36.3395 C   0  0  0  0  0  0  0  0  0  0  0  0
  -33.9873  -17.2829   38.2652 C   0  0  0  0  0  0  0  0  0  0  0  0
  -32.4657  -11.6702   34.6522 C   0  0  0  0  0  0  0  0  0  0  0  0
  -29.6875  -19.2988   24.8752 C   0  0  0  0  0  0  0  0  0  0  0  0
  -28.4100  -17.4679   22.9981 C   0  0  0  0  0  0  0  0  0  0  0  0
  -28.9721  -18.6366   26.0579 C   0  0  0  0  0  0  0  0  0  0  0  0
  -29.9371  -18.0397   27.0833 C   0  0  0  0  0  0  0  0  0  0  0  0
  -29.1912  -17.3570   28.2217 C   0  0  0  0  0  0  0  0  0  1  0  0
  -33.2211  -16.4015   36.0228 C   0  0  1  0  0  0  0  0  0  0  0  0
  -34.2905  -12.7653   35.9597 C   0  0  2  0  0  0  0  0  0  0  0  0
  -34.0918  -17.4740   36.7364 C   0  0  0  0  0  0  0  0  0  0  0  0
  -25.8605  -11.5428   20.2882 N   0  0  0  0  0  0  0  0  0  0  0  0
  -26.2386  -12.8259   20.1592 N   0  0  0  0  0  0  0  0  0  0  0  0
  -30.8931  -16.7756   35.2716 N   0  0  0  0  0  0  0  0  0  0  0  0
  -29.9702  -13.6102   20.3680 N   0  0  0  0  0  0  0  0  0  0  0  0
  -25.4740  -15.0543   20.4051 N   0  0  0  0  0  0  0  0  0  0  0  0
  -21.8859  -12.5840   21.5966 N   0  0  0  0  0  0  0  0  0  0  0  0
  -30.0821  -15.6901   21.4742 N   0  0  0  0  0  0  0  0  0  0  0  0
  -28.4647  -19.1266   36.4144 N   0  0  0  0  0  0  0  0  0  0  0  0
  -33.5847  -15.0258   36.3447 N   0  0  0  0  0  0  0  0  0  0  0  0
  -33.9071  -11.6811   35.0119 N   0  3  0  0  0  0  0  0  0  0  0  0
  -22.6637  -14.7229   21.3157 O   0  0  0  0  0  0  0  0  0  0  0  0
  -30.1251  -19.2632   34.7875 O   0  0  0  0  0  0  0  0  0  0  0  0
  -31.3854  -16.4327   37.5247 O   0  0  0  0  0  0  0  0  0  0  0  0
  -34.0228  -14.3622   34.1665 O   0  0  0  0  0  0  0  0  0  0  0  0
  -31.8589  -14.9313   20.1901 O   0  0  0  0  0  0  0  0  0  0  0  0
  -21.6077   -7.0211   21.7085 O   0  0  0  0  0  0  0  0  0  0  0  0
  -30.1422  -16.8357   29.1491 O   0  0  0  0  0  0  0  0  0  1  0  0
  -16.4473   -6.8362   19.7746 F   0  0  0  0  0  0  0  0  0  0  0  0
  -19.7266   -8.8834   22.5061 F   0  0  0  0  0  0  0  0  0  0  0  0
  1  2  1  0  0  0  0
  1  5  2  0  0  0  0
  2  6  2  0  0  0  0
  3  8  2  0  0  0  0
  3 17  1  0  0  0  0
  4  9  1  0  0  0  0
  4 17  2  0  0  0  0
  5 19  1  0  0  0  0
  6 21  1  0  0  0  0
  7 10  2  0  0  0  0
  7 20  1  0  0  0  0
  8 27  1  0  0  0  0
  9 27  2  0  0  0  0
 10 28  1  0  0  0  0
 11 12  2  0  0  0  0
 11 29  1  0  0  0  0
 12 30  1  0  0  0  0
 13 22  1  0  0  0  0
 13 28  2  0  0  0  0
 14 23  1  0  0  0  0
 14 24  2  0  0  0  0
 15 23  2  0  0  0  0
 15 26  1  0  0  0  0
 16 30  2  0  0  0  0
 16 31  1  0  0  0  0
 17 32  1  0  0  0  0
 18 32  1  0  0  0  0
 18 33  2  0  0  0  0
 18 34  1  0  0  0  0
 19 21  2  0  0  0  0
 19 39  1  0  0  0  0
 20 22  2  0  0  0  0
 20 40  1  0  0  0  0
 21 48  1  0  0  0  0
 22 41  1  0  0  0  0
 23 51  1  0  0  0  0
 24 25  1  0  0  0  0
 24 58  1  0  0  0  0
 25 26  2  0  0  0  0
 25 59  1  0  0  0  0
 26 72  1  0  0  0  0
 27 81  1  0  0  0  0
 28 82  1  0  0  0  0
 29 31  2  0  0  0  0
 29 81  1  0  0  0  0
 30 83  1  0  0  0  0
 31 84  1  0  0  0  0
 32 66  2  0  0  0  0
 33 67  1  0  0  0  0
 33 70  1  0  0  0  0
 34 71  1  0  0  0  0
 34 76  2  0  0  0  0
 35 49  1  0  0  0  0
 35 73  1  0  0  0  0
 35 77  2  0  0  0  0
 36 63  1  0  0  0  0
 36 68  1  0  0  0  0
 36 78  2  0  0  0  0
 37 64  1  0  0  0  0
 37 74  1  0  0  0  0
 37 79  2  0  0  0  0
 38 69  1  0  0  0  0
 38 72  1  0  0  0  0
 38 80  2  0  0  0  0
 39 42  1  0  0  0  0
 40 49  1  0  0  0  0
 41 68  1  0  0  0  0
 42 44  1  0  0  0  0
 43 45  1  0  0  0  0
 43 46  1  0  0  0  0
 44 48  1  0  0  0  0
 45 50  1  0  0  0  0
 46 69  1  0  0  0  0
 47 50  1  0  0  0  0
 47 69  1  0  0  0  0
 48 73  1  0  0  0  0
 49 68  1  0  0  0  0
 50 67  1  0  0  0  0
 52 59  1  0  0  0  0
 53 64  1  0  0  0  0
 54 65  1  0  0  0  0
 55 65  1  0  0  0  0
 56 65  1  0  0  0  0
 57 75  1  0  0  0  0
 58 60  1  0  0  0  0
 60 61  1  0  0  0  0
 61 62  1  0  0  0  0
 62 82  1  0  0  0  0
 63 65  1  0  0  0  0
 63 74  1  0  0  0  0
 64 75  1  0  0  0  0
 66 67  1  0  0  0  0
M  CHG  1  75   1
M  ISO  4  38 100  62 101  72 100  82 101
M  END
> <Batch ID>
0127

> <Smiles>
CCc1c(CCC[101CH2:1][101O:1]c2ccc3c(c2)CN(C(=O)C(NC(=O)C(C)NC)C(C)(C)C)C(C(=O)NC2CCCc4ccccc42)C3)cc(C)cc1[100NH:0][100C:0](=O)N1CCCC(n2nc(-c3ccc(Oc4ccc(F)cc4F)cc3)c(C(N)=O)c2N)C1

> <Shape>
0.150

> <Color>
0.196

> <Negative vol penalty>
0.000

$$$$

  -OEChem-04052302143D

 85 93  0     1  0  0  0  0  0999 V2000
  -25.3717  -19.9700   18.5455 C   0  0  0  0  0  0  0  0  0  0  0  0
  -25.0811  -21.2539   18.9957 C   0  0  0  0  0  0  0  0  0  0  0  0
  -24.1377  -14.9836   19.6466 C   0  0  0  0  0  0  0  0  0  0  0  0
  -23.3078  -13.9516   21.6673 C   0  0  0  0  0  0  0  0  0  0  0  0
  -26.5751  -19.3631   18.9025 C   0  0  0  0  0  0  0  0  0  0  0  0
  -25.9933  -21.9312   19.8042 C   0  0  0  0  0  0  0  0  0  0  0  0
  -26.6449  -26.7482   18.3841 C   0  0  0  0  0  0  0  0  0  0  0  0
  -25.1187  -13.9972   19.5457 C   0  0  0  0  0  0  0  0  0  0  0  0
  -24.2888  -12.9651   21.5664 C   0  0  0  0  0  0  0  0  0  0  0  0
  -25.6551  -27.6594   18.7500 C   0  0  0  0  0  0  0  0  0  0  0  0
  -28.1117  -13.3080   20.9569 C   0  0  0  0  0  0  0  0  0  0  0  0
  -29.4110  -13.7158   20.6551 C   0  0  0  0  0  0  0  0  0  0  0  0
  -20.3341  -27.0487   21.7842 C   0  0  0  0  0  0  0  0  0  0  0  0
  -27.0280  -28.4031   20.5889 C   0  0  0  0  0  0  0  0  0  0  0  0
  -18.2600  -27.5753   23.5741 C   0  0  0  0  0  0  0  0  0  0  0  0
  -29.3700  -12.3644   18.6528 C   0  0  0  0  0  0  0  0  0  0  0  0
  -23.2322  -14.9608   20.7074 C   0  0  0  0  0  0  0  0  0  0  0  0
  -19.4494  -26.0325   22.1450 C   0  0  0  0  0  0  0  0  0  0  0  0
  -20.9225  -15.9492   20.2646 C   0  0  0  0  0  0  0  0  0  0  0  0
  -27.5068  -20.0371   19.7077 C   0  0  0  0  0  0  0  0  0  0  0  0
  -27.8311  -26.6499   19.1256 C   0  0  0  0  0  0  0  0  0  0  0  0
  -27.2097  -21.3322   20.1733 C   0  0  0  0  0  0  0  0  0  0  0  0
  -28.0324  -27.4917   20.2288 C   0  0  0  0  0  0  0  0  0  0  0  0
  -18.4123  -26.2958   23.0399 C   0  0  0  0  0  0  0  0  0  0  0  0
  -25.1943  -12.9879   20.5056 C   0  0  0  0  0  0  0  0  0  0  0  0
  -25.8453  -28.4849   19.8543 C   0  0  0  0  0  0  0  0  0  0  0  0
  -27.4415  -12.4284   20.1067 C   0  0  0  0  0  0  0  0  0  0  0  0
  -20.1819  -28.3282   22.3185 C   0  0  0  0  0  0  0  0  0  0  0  0
  -30.0402  -13.2440   19.5030 C   0  0  0  0  0  0  0  0  0  0  0  0
  -19.1448  -28.5915   23.2133 C   0  0  0  0  0  0  0  0  0  0  0  0
  -28.0706  -11.9566   18.9547 C   0  0  0  0  0  0  0  0  0  0  0  0
  -22.2190  -15.9798   20.8124 C   0  0  0  0  0  0  0  0  0  0  0  0
  -20.3608  -17.1435   20.6448 C   0  0  0  0  0  0  0  0  0  0  0  0
  -19.6336  -24.7067   21.5690 C   0  0  0  0  0  0  0  0  0  0  0  0
  -20.7278  -23.9337   21.7236 C   0  0  0  0  0  0  0  0  0  0  0  0
  -20.2832  -14.9321   19.4820 C   0  0  0  0  0  0  0  0  0  0  0  0
  -20.7596  -22.6038   21.0824 C   0  0  0  0  0  0  0  0  0  0  0  0
  -29.2331  -24.3554   20.8207 C   0  0  0  0  0  0  0  0  0  0  0  0
  -31.6443  -26.5159   21.0228 C   0  0  0  0  0  0  0  0  0  0  0  0
  -32.6234  -29.7833   20.9132 C   0  0  0  0  0  0  0  0  0  0  0  0
  -28.7734  -19.3219   20.1063 C   0  0  0  0  0  0  0  0  0  0  0  0
  -28.9004  -25.6806   18.7019 C   0  0  0  0  0  0  0  0  0  0  0  0
  -29.2966  -27.4395   21.0458 C   0  0  0  0  0  0  0  0  0  0  0  0
  -29.8506  -20.2525   20.6576 C   0  0  0  0  0  0  0  0  0  0  0  0
  -21.9160  -20.6265   23.9434 C   0  0  0  0  0  0  0  0  0  0  0  0
  -29.2524  -21.2171   21.6766 C   0  0  0  0  0  0  0  0  0  0  0  0
  -22.0351  -19.2411   23.3139 C   0  0  0  0  0  0  0  0  0  0  0  0
  -22.2647  -21.7364   22.9529 C   0  0  0  0  0  0  0  0  0  0  0  0
  -21.5991  -20.2870   21.0564 C   0  0  0  0  0  0  0  0  0  0  0  0
  -28.1846  -22.1088   21.0315 C   0  0  1  0  0  0  0  0  0  0  0  0
  -29.8508  -25.3066   19.8351 C   0  0  1  0  0  0  0  0  0  0  0  0
  -21.2073  -19.1574   22.0217 C   0  0  1  0  0  0  0  0  0  0  0  0
  -17.7422  -24.6883   24.8436 C   0  0  0  0  0  0  0  0  0  0  0  0
  -34.6522  -31.2409   21.1520 C   0  0  0  0  0  0  0  0  0  0  0  0
  -31.5356  -26.1667   24.0520 C   0  0  0  0  0  0  0  0  0  0  0  0
  -32.8634  -28.2777   24.2731 C   0  0  0  0  0  0  0  0  0  0  0  0
  -33.8440  -26.3066   23.1001 C   0  0  0  0  0  0  0  0  0  0  0  0
  -32.3684  -30.7914   18.1423 C   0  0  0  0  0  0  0  0  0  0  0  0
  -17.4461  -25.2313   23.4494 C   0  0  0  0  0  0  0  0  0  0  0  0
  -23.3439  -30.0661   21.9410 C   0  0  0  0  0  0  0  0  0  0  0  0
  -24.7794  -29.6979   21.6002 C   0  0  0  0  0  0  0  0  0  1  0  0
  -22.3778  -28.9327   21.6340 C   0  0  0  0  0  0  0  0  0  0  0  0
  -32.0053  -27.6289   21.9766 C   0  0  1  0  0  0  0  0  0  0  0  0
  -33.7667  -30.4684   20.1866 C   0  0  2  0  0  0  0  0  0  0  0  0
  -32.5373  -27.0948   23.3364 C   0  0  0  0  0  0  0  0  0  0  0  0
  -22.4664  -17.1045   21.4891 N   0  0  0  0  0  0  0  0  0  0  0  0
  -21.3178  -17.7918   21.3688 N   0  0  0  0  0  0  0  0  0  0  0  0
  -21.5028  -21.6008   21.7024 N   0  0  0  0  0  0  0  0  0  0  0  0
  -30.3097  -26.4709   20.5954 N   0  0  0  0  0  0  0  0  0  0  0  0
  -19.1466  -17.6919   20.4271 N   0  0  0  0  0  0  0  0  0  0  0  0
  -21.0037  -13.7678   19.1825 N   0  0  0  0  0  0  0  0  0  0  0  0
  -28.8060  -23.1657   20.2625 N   0  0  0  0  0  0  0  0  0  0  0  0
  -32.9439  -28.4889   21.2639 N   0  0  0  0  0  0  0  0  0  0  0  0
  -33.2376  -31.4207   19.1696 N   0  3  0  0  0  0  0  0  0  0  0  0
  -19.1135  -15.0592   19.0470 O   0  0  0  0  0  0  0  0  0  0  0  0
  -20.1292  -22.4633   20.0329 O   0  0  0  0  0  0  0  0  0  0  0  0
  -29.1514  -24.6765   22.0005 O   0  0  0  0  0  0  0  0  0  0  0  0
  -32.5160  -25.7201   20.6643 O   0  0  0  0  0  0  0  0  0  0  0  0
  -31.5545  -30.3419   21.1495 O   0  0  0  0  0  0  0  0  0  0  0  0
  -26.1513  -12.0251   20.4074 O   0  0  0  0  0  0  0  0  0  0  0  0
  -24.8806  -29.3747   20.2140 O   0  0  0  0  0  0  0  0  0  1  0  0
  -21.0525  -29.3258   21.9642 O   0  0  0  0  0  0  0  0  0  0  0  0
  -31.2873  -13.6368   19.2125 F   0  0  0  0  0  0  0  0  0  0  0  0
  -18.9927  -29.8186   23.7300 F   0  0  0  0  0  0  0  0  0  0  0  0
  -27.4314  -11.1123   18.1335 F   0  0  0  0  0  0  0  0  0  0  0  0
  1  2  1  0  0  0  0
  1  5  2  0  0  0  0
  2  6  2  0  0  0  0
  3  8  2  0  0  0  0
  3 17  1  0  0  0  0
  4  9  1  0  0  0  0
  4 17  2  0  0  0  0
  5 20  1  0  0  0  0
  6 22  1  0  0  0  0
  7 10  2  0  0  0  0
  7 21  1  0  0  0  0
  8 25  1  0  0  0  0
  9 25  2  0  0  0  0
 10 26  1  0  0  0  0
 11 12  2  0  0  0  0
 11 27  1  0  0  0  0
 12 29  1  0  0  0  0
 13 18  1  0  0  0  0
 13 28  2  0  0  0  0
 14 23  1  0  0  0  0
 14 26  2  0  0  0  0
 15 24  1  0  0  0  0
 15 30  2  0  0  0  0
 16 29  2  0  0  0  0
 16 31  1  0  0  0  0
 17 32  1  0  0  0  0
 18 24  2  0  0  0  0
 18 34  1  0  0  0  0
 19 32  1  0  0  0  0
 19 33  2  0  0  0  0
 19 36  1  0  0  0  0
 20 22  2  0  0  0  0
 20 41  1  0  0  0  0
 21 23  2  0  0  0  0
 21 42  1  0  0  0  0
 22 50  1  0  0  0  0
 23 43  1  0  0  0  0
 24 59  1  0  0  0  0
 25 80  1  0  0  0  0
 26 81  1  0  0  0  0
 27 31  2  0  0  0  0
 27 80  1  0  0  0  0
 28 30  1  0  0  0  0
 28 82  1  0  0  0  0
 29 83  1  0  0  0  0
 30 84  1  0  0  0  0
 31 85  1  0  0  0  0
 32 66  2  0  0  0  0
 33 67  1  0  0  0  0
 33 70  1  0  0  0  0
 34 35  2  0  0  0  0
 35 37  1  0  0  0  0
 36 71  1  0  0  0  0
 36 75  2  0  0  0  0
 37 68  1  0  0  0  0
 37 76  2  0  0  0  0
 38 51  1  0  0  0  0
 38 72  1  0  0  0  0
 38 77  2  0  0  0  0
 39 63  1  0  0  0  0
 39 69  1  0  0  0  0
 39 78  2  0  0  0  0
 40 64  1  0  0  0  0
 40 73  1  0  0  0  0
 40 79  2  0  0  0  0
 41 44  1  0  0  0  0
 42 51  1  0  0  0  0
 43 69  1  0  0  0  0
 44 46  1  0  0  0  0
 45 47  1  0  0  0  0
 45 48  1  0  0  0  0
 46 50  1  0  0  0  0
 47 52  1  0  0  0  0
 48 68  1  0  0  0  0
 49 52  1  0  0  0  0
 49 68  1  0  0  0  0
 50 72  1  0  0  0  0
 51 69  1  0  0  0  0
 52 67  1  0  0  0  0
 53 59  1  0  0  0  0
 54 64  1  0  0  0  0
 55 65  1  0  0  0  0
 56 65  1  0  0  0  0
 57 65  1  0  0  0  0
 58 74  1  0  0  0  0
 60 61  1  0  0  0  0
 60 62  1  0  0  0  0
 61 81  1  0  0  0  0
 62 82  1  0  0  0  0
 63 65  1  0  0  0  0
 63 73  1  0  0  0  0
 64 74  1  0  0  0  0
 66 67  1  0  0  0  0
M  CHG  1  74   1
M  ISO  4  35 100  37 100  61 101  81 101
M  END
> <Batch ID>
0127

> <Smiles>
CCc1cc(F)c(OCC[101CH2:1][101O:1]c2ccc3c(c2)CN(C(=O)C(NC(=O)C(C)NC)C(C)(C)C)C(C(=O)NC2CCCc4ccccc42)C3)cc1C=[100CH:0][100C:0](=O)N1CCCC(n2nc(-c3ccc(Oc4ccc(F)cc4F)cc3)c(C(N)=O)c2N)C1

> <Shape>
0.259

> <Color>
0.055

> <Negative vol penalty>
0.000

$$$$

  -OEChem-04052302143D

 81 89  0     1  0  0  0  0  0999 V2000
  -29.7533  -36.6833   25.1007 C   0  0  0  0  0  0  0  0  0  0  0  0
  -29.8211  -35.3241   24.8122 C   0  0  0  0  0  0  0  0  0  0  0  0
  -24.4464   -9.1305   21.7601 C   0  0  0  0  0  0  0  0  0  0  0  0
  -24.2709   -8.2927   19.5008 C   0  0  0  0  0  0  0  0  0  0  0  0
  -28.5732  -37.2301   25.6030 C   0  0  0  0  0  0  0  0  0  0  0  0
  -28.7091  -34.5105   25.0269 C   0  0  0  0  0  0  0  0  0  0  0  0
  -27.8432  -31.3461   21.1693 C   0  0  0  0  0  0  0  0  0  0  0  0
  -23.3138   -8.3998   22.1191 C   0  0  0  0  0  0  0  0  0  0  0  0
  -23.1383   -7.5619   19.8598 C   0  0  0  0  0  0  0  0  0  0  0  0
  -28.6481  -30.2109   21.0839 C   0  0  0  0  0  0  0  0  0  0  0  0
  -22.5572   -5.1950   22.8871 C   0  0  0  0  0  0  0  0  0  0  0  0
  -22.6009   -4.4771   24.0822 C   0  0  0  0  0  0  0  0  0  0  0  0
  -26.8865  -28.8946   22.0755 C   0  0  0  0  0  0  0  0  0  0  0  0
  -28.7870  -20.8480   20.1051 C   0  0  0  0  0  0  0  0  0  0  0  0
  -20.7245   -5.7505   24.9157 C   0  0  0  0  0  0  0  0  0  0  0  0
  -28.0845  -21.6647   18.1516 C   0  0  0  0  0  0  0  0  0  0  0  0
  -24.9249   -9.0770   20.4509 C   0  0  0  0  0  0  0  0  0  0  0  0
  -27.4347   -9.4049   20.1335 C   0  0  0  0  0  0  0  0  0  0  0  0
  -27.4431  -36.4247   25.8149 C   0  0  0  0  0  0  0  0  0  0  0  0
  -26.5557  -31.2660   21.7194 C   0  0  0  0  0  0  0  0  0  0  0  0
  -27.5132  -35.0468   25.5338 C   0  0  0  0  0  0  0  0  0  0  0  0
  -26.0663  -30.0296   22.1644 C   0  0  0  0  0  0  0  0  0  0  0  0
  -28.7975  -21.9978   19.2798 C   0  0  0  0  0  0  0  0  0  0  0  0
  -22.6598   -7.6155   21.1689 C   0  0  0  0  0  0  0  0  0  0  0  0
  -28.1709  -28.9855   21.5397 C   0  0  0  0  0  0  0  0  0  0  0  0
  -21.5972   -6.1907   22.7063 C   0  0  0  0  0  0  0  0  0  0  0  0
  -21.6845   -4.7548   25.0965 C   0  0  0  0  0  0  0  0  0  0  0  0
  -20.6809   -6.4684   23.7206 C   0  0  0  0  0  0  0  0  0  0  0  0
  -26.0944   -9.8321   20.0794 C   0  0  0  0  0  0  0  0  0  0  0  0
  -28.0681  -19.8944   19.4225 C   0  0  0  0  0  0  0  0  0  0  0  0
  -28.1567  -10.4808   19.6776 C   0  0  0  0  0  0  0  0  0  0  0  0
  -27.7812  -18.5745   19.8410 C   0  0  0  0  0  0  0  0  0  0  0  0
  -27.0797  -17.6227   19.1413 C   0  0  0  0  0  0  0  0  0  0  0  0
  -27.9785   -8.1480   20.5578 C   0  0  0  0  0  0  0  0  0  0  0  0
  -26.8710  -16.2772   19.7130 C   0  0  0  0  0  0  0  0  0  0  0  0
  -25.1047  -32.5659   24.2310 C   0  0  0  0  0  0  0  0  0  0  0  0
  -22.4893  -31.1083   22.9831 C   0  0  0  0  0  0  0  0  0  0  0  0
  -21.2175  -28.6202   21.0239 C   0  0  0  0  0  0  0  0  0  0  0  0
  -26.2046  -37.0521   26.4041 C   0  0  0  0  0  0  0  0  0  0  0  0
  -25.6899  -32.4944   21.7798 C   0  0  0  0  0  0  0  0  0  0  0  0
  -24.6838  -29.8864   22.7446 C   0  0  0  0  0  0  0  0  0  0  0  0
  -24.9535  -36.1912   26.2501 C   0  0  0  0  0  0  0  0  0  0  0  0
  -27.8333  -14.2718   16.8003 C   0  0  0  0  0  0  0  0  0  0  0  0
  -25.2483  -34.7464   26.6408 C   0  0  0  0  0  0  0  0  0  0  0  0
  -27.5682  -12.8596   17.3154 C   0  0  0  0  0  0  0  0  0  0  0  0
  -26.8347  -15.2824   17.3624 C   0  0  0  0  0  0  0  0  0  0  0  0
  -26.4930  -13.8667   19.3673 C   0  0  0  0  0  0  0  0  0  0  0  0
  -26.3204  -34.1364   25.7299 C   0  0  1  0  0  0  0  0  0  0  0  0
  -24.5878  -32.3976   22.8302 C   0  0  1  0  0  0  0  0  0  0  0  0
  -27.5149  -12.8416   18.8513 C   0  0  1  0  0  0  0  0  0  0  0  0
  -19.0411  -27.6589   20.2262 C   0  0  0  0  0  0  0  0  0  0  0  0
  -22.0648  -29.8111   25.7121 C   0  0  0  0  0  0  0  0  0  0  0  0
  -20.5094  -28.1824   24.6184 C   0  0  0  0  0  0  0  0  0  0  0  0
  -19.9732  -30.6186   24.6042 C   0  0  0  0  0  0  0  0  0  0  0  0
  -21.8813  -29.1656   18.1917 C   0  0  0  0  0  0  0  0  0  0  0  0
  -29.4563  -23.3215   19.5755 C   0  0  0  0  0  0  0  0  0  0  0  0
  -28.5483  -24.3150   20.3088 C   0  0  0  0  0  0  0  0  0  0  0  0
  -29.2074  -25.6769   20.5312 C   0  0  0  0  0  0  0  0  0  0  0  0
  -28.2918  -26.6229   21.2964 C   0  0  0  0  0  0  0  0  0  1  0  0
  -21.8439  -29.7527   23.1404 C   0  0  1  0  0  0  0  0  0  0  0  0
  -20.1660  -28.6381   19.9291 C   0  0  2  0  0  0  0  0  0  0  0  0
  -21.1247  -29.5939   24.5097 C   0  0  0  0  0  0  0  0  0  0  0  0
  -25.9696  -11.0820   19.6251 N   0  0  0  0  0  0  0  0  0  0  0  0
  -27.2407  -11.4494   19.3897 N   0  0  0  0  0  0  0  0  0  0  0  0
  -26.7589  -15.2054   18.8291 N   0  0  0  0  0  0  0  0  0  0  0  0
  -23.8777  -31.1177   22.7881 N   0  0  0  0  0  0  0  0  0  0  0  0
  -29.4794  -10.6833   19.4990 N   0  0  0  0  0  0  0  0  0  0  0  0
  -27.0955   -7.1519   20.9965 N   0  0  0  0  0  0  0  0  0  0  0  0
  -25.7486  -33.7684   24.4524 N   0  0  0  0  0  0  0  0  0  0  0  0
  -20.9718  -29.5791   21.9837 N   0  0  0  0  0  0  0  0  0  0  0  0
  -20.7754  -28.2707   18.6196 N   0  3  0  0  0  0  0  0  0  0  0  0
  -29.2121   -7.9207   20.5637 O   0  0  0  0  0  0  0  0  0  0  0  0
  -26.8036  -16.1849   20.9401 O   0  0  0  0  0  0  0  0  0  0  0  0
  -24.9309  -31.6718   25.0507 O   0  0  0  0  0  0  0  0  0  0  0  0
  -21.7865  -32.1212   23.0245 O   0  0  0  0  0  0  0  0  0  0  0  0
  -22.1603  -27.8317   21.0291 O   0  0  0  0  0  0  0  0  0  0  0  0
  -27.6364  -20.3843   18.2308 O   0  0  0  0  0  0  0  0  0  0  0  0
  -21.5547   -6.9021   21.5189 O   0  0  0  0  0  0  0  0  0  0  0  0
  -28.9548  -27.8761   21.4582 O   0  0  0  0  0  0  0  0  0  1  0  0
  -21.7255   -4.0642   26.2435 F   0  0  0  0  0  0  0  0  0  0  0  0
  -19.7556   -7.4231   23.5522 F   0  0  0  0  0  0  0  0  0  0  0  0
  1  2  1  0  0  0  0
  1  5  2  0  0  0  0
  2  6  2  0  0  0  0
  3  8  2  0  0  0  0
  3 17  1  0  0  0  0
  4  9  1  0  0  0  0
  4 17  2  0  0  0  0
  5 19  1  0  0  0  0
  6 21  1  0  0  0  0
  7 10  2  0  0  0  0
  7 20  1  0  0  0  0
  8 24  1  0  0  0  0
  9 24  2  0  0  0  0
 10 25  1  0  0  0  0
 11 12  2  0  0  0  0
 11 26  1  0  0  0  0
 12 27  1  0  0  0  0
 13 22  1  0  0  0  0
 13 25  2  0  0  0  0
 14 23  1  0  0  0  0
 14 30  2  0  0  0  0
 15 27  2  0  0  0  0
 15 28  1  0  0  0  0
 16 23  2  0  0  0  0
 16 77  1  0  0  0  0
 17 29  1  0  0  0  0
 18 29  1  0  0  0  0
 18 31  2  0  0  0  0
 18 34  1  0  0  0  0
 19 21  2  0  0  0  0
 19 39  1  0  0  0  0
 20 22  2  0  0  0  0
 20 40  1  0  0  0  0
 21 48  1  0  0  0  0
 22 41  1  0  0  0  0
 23 56  1  0  0  0  0
 24 78  1  0  0  0  0
 25 79  1  0  0  0  0
 26 28  2  0  0  0  0
 26 78  1  0  0  0  0
 27 80  1  0  0  0  0
 28 81  1  0  0  0  0
 29 63  2  0  0  0  0
 30 32  1  0  0  0  0
 30 77  1  0  0  0  0
 31 64  1  0  0  0  0
 31 67  1  0  0  0  0
 32 33  2  0  0  0  0
 33 35  1  0  0  0  0
 34 68  1  0  0  0  0
 34 72  2  0  0  0  0
 35 65  1  0  0  0  0
 35 73  2  0  0  0  0
 36 49  1  0  0  0  0
 36 69  1  0  0  0  0
 36 74  2  0  0  0  0
 37 60  1  0  0  0  0
 37 66  1  0  0  0  0
 37 75  2  0  0  0  0
 38 61  1  0  0  0  0
 38 70  1  0  0  0  0
 38 76  2  0  0  0  0
 39 42  1  0  0  0  0
 40 49  1  0  0  0  0
 41 66  1  0  0  0  0
 42 44  1  0  0  0  0
 43 45  1  0  0  0  0
 43 46  1  0  0  0  0
 44 48  1  0  0  0  0
 45 50  1  0  0  0  0
 46 65  1  0  0  0  0
 47 50  1  0  0  0  0
 47 65  1  0  0  0  0
 48 69  1  0  0  0  0
 49 66  1  0  0  0  0
 50 64  1  0  0  0  0
 51 61  1  0  0  0  0
 52 62  1  0  0  0  0
 53 62  1  0  0  0  0
 54 62  1  0  0  0  0
 55 71  1  0  0  0  0
 56 57  1  0  0  0  0
 57 58  1  0  0  0  0
 58 59  1  0  0  0  0
 59 79  1  0  0  0  0
 60 62  1  0  0  0  0
 60 70  1  0  0  0  0
 61 71  1  0  0  0  0
 63 64  1  0  0  0  0
M  CHG  1  71   1
M  ISO  4  33 100  35 100  59 101  79 101
M  END
> <Batch ID>
0127

> <Smiles>
CNC(C)C(=O)NC(C(=O)N1Cc2cc([101O:1][101CH2:1]CCCc3coc(C=[100CH:0][100C:0](=O)N4CCCC(n5nc(-c6ccc(Oc7ccc(F)cc7F)cc6)c(C(N)=O)c5N)C4)c3)ccc2CC1C(=O)NC1CCCc2ccccc21)C(C)(C)C

> <Shape>
0.281

> <Color>
0.083

> <Negative vol penalty>
0.000

$$$$
