
  -OEChem-04052302163D

 83 91  0     1  0  0  0  0  0999 V2000
  -26.3980  -33.2109   26.7808 C   0  0  0  0  0  0  0  0  0  0  0  0
  -26.8676  -32.1663   25.9910 C   0  0  0  0  0  0  0  0  0  0  0  0
  -23.5894   -9.9335   22.1575 C   0  0  0  0  0  0  0  0  0  0  0  0
  -24.6690   -8.7121   20.3743 C   0  0  0  0  0  0  0  0  0  0  0  0
  -29.8845  -21.2481   19.1565 C   0  0  0  0  0  0  0  0  0  0  0  0
  -25.0454  -33.2793   27.1119 C   0  0  0  0  0  0  0  0  0  0  0  0
  -25.9850  -31.1889   25.5327 C   0  0  0  0  0  0  0  0  0  0  0  0
  -26.6880  -30.0752   20.6429 C   0  0  0  0  0  0  0  0  0  0  0  0
  -30.1342  -22.4569   18.5067 C   0  0  0  0  0  0  0  0  0  0  0  0
  -22.6006   -8.9524   22.2308 C   0  0  0  0  0  0  0  0  0  0  0  0
  -23.6802   -7.7310   20.4477 C   0  0  0  0  0  0  0  0  0  0  0  0
  -27.7615  -29.2435   20.3272 C   0  0  0  0  0  0  0  0  0  0  0  0
  -22.2585   -5.8534   23.5393 C   0  0  0  0  0  0  0  0  0  0  0  0
  -21.8868   -5.4011   24.8053 C   0  0  0  0  0  0  0  0  0  0  0  0
  -27.5508  -21.4047   18.5508 C   0  0  0  0  0  0  0  0  0  0  0  0
  -26.2516  -27.3700   20.1553 C   0  0  0  0  0  0  0  0  0  0  0  0
  -19.6200   -6.1329   24.4012 C   0  0  0  0  0  0  0  0  0  0  0  0
  -24.6236   -9.8134   21.2292 C   0  0  0  0  0  0  0  0  0  0  0  0
  -28.5928  -20.7220   19.1785 C   0  0  0  0  0  0  0  0  0  0  0  0
  -26.8601  -10.8643   21.8624 C   0  0  0  0  0  0  0  0  0  0  0  0
  -24.1440  -32.3075   26.6495 C   0  0  0  0  0  0  0  0  0  0  0  0
  -25.3875  -29.5575   20.7280 C   0  0  0  0  0  0  0  0  0  0  0  0
  -24.6193  -31.2437   25.8591 C   0  0  0  0  0  0  0  0  0  0  0  0
  -25.1630  -28.1977   20.4697 C   0  0  0  0  0  0  0  0  0  0  0  0
  -29.0923  -23.1395   17.8790 C   0  0  0  0  0  0  0  0  0  0  0  0
  -27.8006  -22.6135   17.9011 C   0  0  0  0  0  0  0  0  0  0  0  0
  -22.6460   -7.8512   21.3759 C   0  0  0  0  0  0  0  0  0  0  0  0
  -27.5438  -27.8901   20.0862 C   0  0  0  0  0  0  0  0  0  0  0  0
  -21.3110   -6.4456   22.7043 C   0  0  0  0  0  0  0  0  0  0  0  0
  -20.5675   -5.5407   25.2363 C   0  0  0  0  0  0  0  0  0  0  0  0
  -19.9917   -6.5853   23.1352 C   0  0  0  0  0  0  0  0  0  0  0  0
  -25.6450  -10.8267   21.1526 C   0  0  0  0  0  0  0  0  0  0  0  0
  -27.4696  -12.0199   21.4387 C   0  0  0  0  0  0  0  0  0  0  0  0
  -28.3326  -19.4612   19.8557 C   0  0  0  0  0  0  0  0  0  0  0  0
  -27.2646  -18.6634   19.6421 C   0  0  0  0  0  0  0  0  0  0  0  0
  -27.3906   -9.9374   22.8190 C   0  0  0  0  0  0  0  0  0  0  0  0
  -27.1467  -17.4044   20.4048 C   0  0  0  0  0  0  0  0  0  0  0  0
  -23.2163  -29.3152   23.0368 C   0  0  0  0  0  0  0  0  0  0  0  0
  -21.3415  -28.2245   20.6247 C   0  0  0  0  0  0  0  0  0  0  0  0
  -21.1381  -26.7639   17.5470 C   0  0  0  0  0  0  0  0  0  0  0  0
  -22.6993  -32.3976   27.0727 C   0  0  0  0  0  0  0  0  0  0  0  0
  -24.2366  -30.4731   21.0433 C   0  0  0  0  0  0  0  0  0  0  0  0
  -23.7832  -27.5967   20.5284 C   0  0  0  0  0  0  0  0  0  0  0  0
  -21.7642  -31.5281   26.2361 C   0  0  0  0  0  0  0  0  0  0  0  0
  -26.3616  -15.1382   17.6335 C   0  0  0  0  0  0  0  0  0  0  0  0
  -22.3473  -30.1292   26.0641 C   0  0  0  0  0  0  0  0  0  0  0  0
  -26.1585  -13.8219   18.3791 C   0  0  0  0  0  0  0  0  0  0  0  0
  -25.8918  -16.3385   18.4541 C   0  0  0  0  0  0  0  0  0  0  0  0
  -26.3039  -15.0936   20.5567 C   0  0  0  0  0  0  0  0  0  0  0  0
  -23.6885  -30.1780   25.3222 C   0  0  1  0  0  0  0  0  0  0  0  0
  -23.0251  -29.7375   21.6075 C   0  0  1  0  0  0  0  0  0  0  0  0
  -26.8132  -13.8767   19.7685 C   0  0  1  0  0  0  0  0  0  0  0  0
  -26.2899  -22.6911   15.9015 C   0  0  0  0  0  0  0  0  0  0  0  0
  -19.4688  -25.9651   15.8521 C   0  0  0  0  0  0  0  0  0  0  0  0
  -20.7781  -25.7661   22.3419 C   0  0  0  0  0  0  0  0  0  0  0  0
  -19.9249  -24.6141   20.2893 C   0  0  0  0  0  0  0  0  0  0  0  0
  -18.7868  -26.6693   21.1280 C   0  0  0  0  0  0  0  0  0  0  0  0
  -22.1424  -28.6489   15.4983 C   0  0  0  0  0  0  0  0  0  0  0  0
  -29.3870  -24.4442   17.1830 C   0  0  0  0  0  0  0  0  0  0  0  0
  -26.6694  -23.3264   17.2357 C   0  0  0  0  0  0  0  0  0  0  0  0
  -29.5709  -25.6247   18.1392 C   0  0  0  0  0  0  0  0  0  0  0  0
  -28.3158  -25.9557   18.9382 C   0  0  0  0  0  0  0  0  0  1  0  0
  -21.0525  -26.8700   20.0241 C   0  0  1  0  0  0  0  0  0  0  0  0
  -20.3358  -27.1273   16.3106 C   0  0  2  0  0  0  0  0  0  0  0  0
  -20.1619  -25.9905   20.9465 C   0  0  0  0  0  0  0  0  0  0  0  0
  -25.4899  -11.8753   20.3399 N   0  0  0  0  0  0  0  0  0  0  0  0
  -26.6156  -12.5826   20.5363 N   0  0  0  0  0  0  0  0  0  0  0  0
  -26.4864  -16.3368   19.7992 N   0  0  0  0  0  0  0  0  0  0  0  0
  -22.6914  -28.5315   20.8469 N   0  0  0  0  0  0  0  0  0  0  0  0
  -28.6474  -12.5996   21.7538 N   0  0  0  0  0  0  0  0  0  0  0  0
  -26.6341   -8.8020   23.1397 N   0  0  0  0  0  0  0  0  0  0  0  0
  -23.4745  -30.3607   23.9026 N   0  0  0  0  0  0  0  0  0  0  0  0
  -20.4813  -27.1216   18.7054 N   0  0  0  0  0  0  0  0  0  0  0  0
  -21.2477  -27.5028   15.1933 N   0  3  0  0  0  0  0  0  0  0  0  0
  -28.4950  -10.1193   23.3852 O   0  0  0  0  0  0  0  0  0  0  0  0
  -27.6365  -17.3764   21.5353 O   0  0  0  0  0  0  0  0  0  0  0  0
  -23.1340  -28.1288   23.3324 O   0  0  0  0  0  0  0  0  0  0  0  0
  -20.4046  -28.9850   20.8804 O   0  0  0  0  0  0  0  0  0  0  0  0
  -22.2358  -26.2140   17.4909 O   0  0  0  0  0  0  0  0  0  0  0  0
  -21.6814   -6.8935   21.4474 O   0  0  0  0  0  0  0  0  0  0  0  0
  -28.5899  -27.0759   19.7786 O   0  0  0  0  0  0  0  0  0  1  0  0
  -20.2104   -5.1049   26.4514 F   0  0  0  0  0  0  0  0  0  0  0  0
  -19.0768   -7.1523   22.3370 F   0  0  0  0  0  0  0  0  0  0  0  0
  1  2  1  0  0  0  0
  1  6  2  0  0  0  0
  2  7  2  0  0  0  0
  3 10  2  0  0  0  0
  3 18  1  0  0  0  0
  4 11  1  0  0  0  0
  4 18  2  0  0  0  0
  5  9  2  0  0  0  0
  5 19  1  0  0  0  0
  6 21  1  0  0  0  0
  7 23  1  0  0  0  0
  8 12  2  0  0  0  0
  8 22  1  0  0  0  0
  9 25  1  0  0  0  0
 10 27  1  0  0  0  0
 11 27  2  0  0  0  0
 12 28  1  0  0  0  0
 13 14  2  0  0  0  0
 13 29  1  0  0  0  0
 14 30  1  0  0  0  0
 15 19  2  0  0  0  0
 15 26  1  0  0  0  0
 16 24  1  0  0  0  0
 16 28  2  0  0  0  0
 17 30  2  0  0  0  0
 17 31  1  0  0  0  0
 18 32  1  0  0  0  0
 19 34  1  0  0  0  0
 20 32  1  0  0  0  0
 20 33  2  0  0  0  0
 20 36  1  0  0  0  0
 21 23  2  0  0  0  0
 21 41  1  0  0  0  0
 22 24  2  0  0  0  0
 22 42  1  0  0  0  0
 23 50  1  0  0  0  0
 24 43  1  0  0  0  0
 25 26  2  0  0  0  0
 25 59  1  0  0  0  0
 26 60  1  0  0  0  0
 27 80  1  0  0  0  0
 28 81  1  0  0  0  0
 29 31  2  0  0  0  0
 29 80  1  0  0  0  0
 30 82  1  0  0  0  0
 31 83  1  0  0  0  0
 32 66  2  0  0  0  0
 33 67  1  0  0  0  0
 33 70  1  0  0  0  0
 34 35  2  0  0  0  0
 35 37  1  0  0  0  0
 36 71  1  0  0  0  0
 36 75  2  0  0  0  0
 37 68  1  0  0  0  0
 37 76  2  0  0  0  0
 38 51  1  0  0  0  0
 38 72  1  0  0  0  0
 38 77  2  0  0  0  0
 39 63  1  0  0  0  0
 39 69  1  0  0  0  0
 39 78  2  0  0  0  0
 40 64  1  0  0  0  0
 40 73  1  0  0  0  0
 40 79  2  0  0  0  0
 41 44  1  0  0  0  0
 42 51  1  0  0  0  0
 43 69  1  0  0  0  0
 44 46  1  0  0  0  0
 45 47  1  0  0  0  0
 45 48  1  0  0  0  0
 46 50  1  0  0  0  0
 47 52  1  0  0  0  0
 48 68  1  0  0  0  0
 49 52  1  0  0  0  0
 49 68  1  0  0  0  0
 50 72  1  0  0  0  0
 51 69  1  0  0  0  0
 52 67  1  0  0  0  0
 53 60  1  0  0  0  0
 54 64  1  0  0  0  0
 55 65  1  0  0  0  0
 56 65  1  0  0  0  0
 57 65  1  0  0  0  0
 58 74  1  0  0  0  0
 59 61  1  0  0  0  0
 61 62  1  0  0  0  0
 62 81  1  0  0  0  0
 63 65  1  0  0  0  0
 63 73  1  0  0  0  0
 64 74  1  0  0  0  0
 66 67  1  0  0  0  0
M  CHG  1  74   1
M  ISO  4  35 100  37 100  62 101  81 101
M  END
> <Batch ID>
0128

> <Smiles>
CCc1cc(C=[100CH:0][100C:0](=O)N2CCCC(n3nc(-c4ccc(Oc5ccc(F)cc5F)cc4)c(C(N)=O)c3N)C2)ccc1CC[101CH2:1][101O:1]c1ccc2c(c1)CN(C(=O)C(NC(=O)C(C)NC)C(C)(C)C)C(C(=O)NC1CCCc3ccccc31)C2

> <Shape>
0.285

> <Color>
0.102

> <Negative vol penalty>
0.000

$$$$

  -OEChem-04052302163D

 85 93  0     1  0  0  0  0  0999 V2000
  -31.6151  -29.1523   25.3742 C   0  0  0  0  0  0  0  0  0  0  0  0
  -30.8611  -28.4551   24.4356 C   0  0  0  0  0  0  0  0  0  0  0  0
  -27.3089  -11.1987   20.9323 C   0  0  0  0  0  0  0  0  0  0  0  0
  -27.3790  -11.2110   18.5174 C   0  0  0  0  0  0  0  0  0  0  0  0
  -30.9770  -29.8806   26.3773 C   0  0  0  0  0  0  0  0  0  0  0  0
  -29.4685  -28.4850   24.5002 C   0  0  0  0  0  0  0  0  0  0  0  0
  -27.3286  -29.2172   19.9693 C   0  0  0  0  0  0  0  0  0  0  0  0
  -27.7359  -18.5642   13.0769 C   0  0  0  0  0  0  0  0  0  0  0  0
  -28.2119  -18.1231   14.3116 C   0  0  0  0  0  0  0  0  0  0  0  0
  -26.3605  -10.1765   20.8996 C   0  0  0  0  0  0  0  0  0  0  0  0
  -26.4306  -10.1887   18.4846 C   0  0  0  0  0  0  0  0  0  0  0  0
  -27.2581  -28.1189   19.1135 C   0  0  0  0  0  0  0  0  0  0  0  0
  -23.0380   -9.8783   20.3549 C   0  0  0  0  0  0  0  0  0  0  0  0
  -21.9319   -9.9943   21.1967 C   0  0  0  0  0  0  0  0  0  0  0  0
  -27.3861  -20.1416   15.3511 C   0  0  0  0  0  0  0  0  0  0  0  0
  -24.9515  -27.7883   19.7376 C   0  0  0  0  0  0  0  0  0  0  0  0
  -22.5456   -7.9280   22.2878 C   0  0  0  0  0  0  0  0  0  0  0  0
  -27.8181  -11.7160   19.7412 C   0  0  0  0  0  0  0  0  0  0  0  0
  -26.9101  -20.5827   14.1164 C   0  0  0  0  0  0  0  0  0  0  0  0
  -30.1977  -12.6326   19.8140 C   0  0  0  0  0  0  0  0  0  0  0  0
  -29.5758  -29.9274   26.4485 C   0  0  0  0  0  0  0  0  0  0  0  0
  -26.2124  -29.6034   20.7252 C   0  0  0  0  0  0  0  0  0  0  0  0
  -28.8111  -29.2136   25.5060 C   0  0  0  0  0  0  0  0  0  0  0  0
  -25.0097  -28.8935   20.6004 C   0  0  0  0  0  0  0  0  0  0  0  0
  -27.0850  -19.7940   12.9793 C   0  0  0  0  0  0  0  0  0  0  0  0
  -28.0370  -18.9118   15.4487 C   0  0  0  0  0  0  0  0  0  0  0  0
  -25.9214   -9.6714   19.6758 C   0  0  0  0  0  0  0  0  0  0  0  0
  -26.0703  -27.4025   18.9997 C   0  0  0  0  0  0  0  0  0  0  0  0
  -23.8979   -8.7870   20.4795 C   0  0  0  0  0  0  0  0  0  0  0  0
  -21.6857   -9.0192   22.1632 C   0  0  0  0  0  0  0  0  0  0  0  0
  -23.6517   -7.8119   21.4460 C   0  0  0  0  0  0  0  0  0  0  0  0
  -28.7974  -12.7725   19.7743 C   0  0  0  0  0  0  0  0  0  0  0  0
  -30.6710  -13.9218   19.8335 C   0  0  0  0  0  0  0  0  0  0  0  0
  -26.2282  -21.8855   14.0464 C   0  0  0  0  0  0  0  0  0  0  0  0
  -26.7836  -23.0672   14.3604 C   0  0  0  0  0  0  0  0  0  0  0  0
  -24.8536  -25.3752   16.2448 C   0  0  0  0  0  0  0  0  0  0  0  0
  -25.9958  -25.0599   15.6138 C   0  0  0  0  0  0  0  0  0  0  0  0
  -30.9988  -11.4437   19.8317 C   0  0  0  0  0  0  0  0  0  0  0  0
  -25.5749  -29.8263   23.8312 C   0  0  0  0  0  0  0  0  0  0  0  0
  -22.8065  -31.1433   22.7712 C   0  0  0  0  0  0  0  0  0  0  0  0
  -20.5294  -31.4628   20.2494 C   0  0  0  0  0  0  0  0  0  0  0  0
  -28.4292  -19.1228   17.9282 C   0  0  0  0  0  0  0  0  0  0  0  0
  -28.9314  -30.6897   27.5791 C   0  0  0  0  0  0  0  0  0  0  0  0
  -26.2970  -30.8067   21.6237 C   0  0  0  0  0  0  0  0  0  0  0  0
  -23.7769  -29.2796   21.3747 C   0  0  0  0  0  0  0  0  0  0  0  0
  -27.4488  -30.9755   27.3540 C   0  0  0  0  0  0  0  0  0  0  0  0
  -29.4594  -18.3350   21.2441 C   0  0  0  0  0  0  0  0  0  0  0  0
  -26.7306  -29.7198   26.8702 C   0  0  0  0  0  0  0  0  0  0  0  0
  -29.5399  -16.8068   21.2454 C   0  0  0  0  0  0  0  0  0  0  0  0
  -28.2957  -18.8410   20.3935 C   0  0  0  0  0  0  0  0  0  0  0  0
  -28.3408  -16.7959   19.0207 C   0  0  0  0  0  0  0  0  0  0  0  0
  -27.2982  -29.2419   25.5282 C   0  0  1  0  0  0  0  0  0  0  0  0
  -25.2498  -30.7988   22.7330 C   0  0  1  0  0  0  0  0  0  0  0  0
  -29.5368  -16.2411   19.8116 C   0  0  2  0  0  0  0  0  0  0  0  0
  -26.5882  -20.2351   11.6400 C   0  0  0  0  0  0  0  0  0  0  0  0
  -26.7262  -25.2945   13.2427 C   0  0  0  0  0  0  0  0  0  0  0  0
  -18.3510  -32.5768   19.6917 C   0  0  0  0  0  0  0  0  0  0  0  0
  -21.3241  -29.0926   24.4762 C   0  0  0  0  0  0  0  0  0  0  0  0
  -19.2500  -29.6123   23.1738 C   0  0  0  0  0  0  0  0  0  0  0  0
  -20.3485  -31.3947   24.5300 C   0  0  0  0  0  0  0  0  0  0  0  0
  -21.7438  -32.9808   18.0178 C   0  0  0  0  0  0  0  0  0  0  0  0
  -24.7291  -26.0458   17.5797 C   0  0  0  0  0  0  0  0  0  1  0  0
  -26.0455  -24.3819   14.2655 C   0  0  1  0  0  0  0  0  0  0  0  0
  -21.4459  -30.6108   22.3915 C   0  0  1  0  0  0  0  0  0  0  0  0
  -19.8670  -32.6849   19.6392 C   0  0  2  0  0  0  0  0  0  0  0  0
  -20.6158  -30.1689   23.6296 C   0  0  0  0  0  0  0  0  0  0  0  0
  -28.4067  -14.0497   19.7689 N   0  0  0  0  0  0  0  0  0  0  0  0
  -29.5685  -14.7242   19.8056 N   0  0  0  0  0  0  0  0  0  0  0  0
  -23.9116  -30.4596   22.2447 N   0  0  0  0  0  0  0  0  0  0  0  0
  -28.3606  -18.2669   19.0478 N   0  0  0  0  0  0  0  0  0  0  0  0
  -31.9186  -14.4360   19.8716 N   0  0  0  0  0  0  0  0  0  0  0  0
  -30.3510  -10.2011   19.8074 N   0  0  0  0  0  0  0  0  0  0  0  0
  -28.5201  -18.4632   16.7029 N   0  0  0  0  0  0  0  0  0  0  0  0
  -26.7909  -30.0575   24.4457 N   0  0  0  0  0  0  0  0  0  0  0  0
  -20.8115  -31.6488   21.5862 N   0  0  0  0  0  0  0  0  0  0  0  0
  -20.2781  -32.8401   18.2152 N   0  3  0  0  0  0  0  0  0  0  0  0
  -32.2515  -11.4821   19.8846 O   0  0  0  0  0  0  0  0  0  0  0  0
  -24.7808  -28.9332   24.1021 O   0  0  0  0  0  0  0  0  0  0  0  0
  -22.8858  -32.1338   23.5021 O   0  0  0  0  0  0  0  0  0  0  0  0
  -20.7690  -30.4438   19.6055 O   0  0  0  0  0  0  0  0  0  0  0  0
  -28.4363  -20.3505   18.0494 O   0  0  0  0  0  0  0  0  0  0  0  0
  -24.9961   -8.6737   19.6435 O   0  0  0  0  0  0  0  0  0  0  0  0
  -25.9989  -26.3296   18.1656 O   0  0  0  0  0  0  0  0  0  1  0  0
  -20.6243   -9.1315   22.9725 F   0  0  0  0  0  0  0  0  0  0  0  0
  -24.4749   -6.7619   21.5713 F   0  0  0  0  0  0  0  0  0  0  0  0
  1  2  1  0  0  0  0
  1  5  2  0  0  0  0
  2  6  2  0  0  0  0
  3 10  2  0  0  0  0
  3 18  1  0  0  0  0
  4 11  1  0  0  0  0
  4 18  2  0  0  0  0
  5 21  1  0  0  0  0
  6 23  1  0  0  0  0
  7 12  2  0  0  0  0
  7 22  1  0  0  0  0
  8  9  2  0  0  0  0
  8 25  1  0  0  0  0
  9 26  1  0  0  0  0
 10 27  1  0  0  0  0
 11 27  2  0  0  0  0
 12 28  1  0  0  0  0
 13 14  2  0  0  0  0
 13 29  1  0  0  0  0
 14 30  1  0  0  0  0
 15 19  1  0  0  0  0
 15 26  2  0  0  0  0
 16 24  1  0  0  0  0
 16 28  2  0  0  0  0
 17 30  2  0  0  0  0
 17 31  1  0  0  0  0
 18 32  1  0  0  0  0
 19 25  2  0  0  0  0
 19 34  1  0  0  0  0
 20 32  1  0  0  0  0
 20 33  2  0  0  0  0
 20 38  1  0  0  0  0
 21 23  2  0  0  0  0
 21 43  1  0  0  0  0
 22 24  2  0  0  0  0
 22 44  1  0  0  0  0
 23 52  1  0  0  0  0
 24 45  1  0  0  0  0
 25 55  1  0  0  0  0
 26 73  1  0  0  0  0
 27 82  1  0  0  0  0
 28 83  1  0  0  0  0
 29 31  2  0  0  0  0
 29 82  1  0  0  0  0
 30 84  1  0  0  0  0
 31 85  1  0  0  0  0
 32 67  2  0  0  0  0
 33 68  1  0  0  0  0
 33 71  1  0  0  0  0
 34 35  2  0  0  0  0
 35 63  1  0  0  0  0
 36 37  2  0  0  0  0
 36 62  1  0  0  0  0
 37 63  1  0  0  0  0
 38 72  1  0  0  0  0
 38 77  2  0  0  0  0
 39 53  1  0  0  0  0
 39 74  1  0  0  0  0
 39 78  2  0  0  0  0
 40 64  1  0  0  0  0
 40 69  1  0  0  0  0
 40 79  2  0  0  0  0
 41 65  1  0  0  0  0
 41 75  1  0  0  0  0
 41 80  2  0  0  0  0
 42 70  1  0  0  0  0
 42 73  1  0  0  0  0
 42 81  2  0  0  0  0
 43 46  1  0  0  0  0
 44 53  1  0  0  0  0
 45 69  1  0  0  0  0
 46 48  1  0  0  0  0
 47 49  1  0  0  0  0
 47 50  1  0  0  0  0
 48 52  1  0  0  0  0
 49 54  1  0  0  0  0
 50 70  1  0  0  0  0
 51 54  1  0  0  0  0
 51 70  1  0  0  0  0
 52 74  1  0  0  0  0
 53 69  1  0  0  0  0
 54 68  1  0  0  0  0
 56 63  1  0  0  0  0
 57 65  1  0  0  0  0
 58 66  1  0  0  0  0
 59 66  1  0  0  0  0
 60 66  1  0  0  0  0
 61 76  1  0  0  0  0
 62 83  1  0  0  0  0
 64 66  1  0  0  0  0
 64 75  1  0  0  0  0
 65 76  1  0  0  0  0
 67 68  1  0  0  0  0
M  CHG  1  76   1
M  ISO  4  42 100  62 101  73 100  83 101
M  END
> <Batch ID>
0128

> <Smiles>
CNC(C)C(=O)NC(C(=O)N1Cc2cc([101O:1][101CH2:1]C=CC(C)C=Cc3cc([100NH:0][100C:0](=O)N4CCCC(n5nc(-c6ccc(Oc7ccc(F)cc7F)cc6)c(C(N)=O)c5N)C4)ccc3C)ccc2CC1C(=O)NC1CCCc2ccccc21)C(C)(C)C

> <Shape>
0.231

> <Color>
0.084

> <Negative vol penalty>
0.000

$$$$

  -OEChem-04052302163D

 84 92  0     1  0  0  0  0  0999 V2000
  -27.7973  -32.7231   27.5012 C   0  0  0  0  0  0  0  0  0  0  0  0
  -27.9550  -31.6525   26.6270 C   0  0  0  0  0  0  0  0  0  0  0  0
  -24.2959   -8.9743   21.4396 C   0  0  0  0  0  0  0  0  0  0  0  0
  -24.8335  -10.2622   23.4117 C   0  0  0  0  0  0  0  0  0  0  0  0
  -26.5250  -33.2352   27.7520 C   0  0  0  0  0  0  0  0  0  0  0  0
  -26.8402  -31.0926   26.0038 C   0  0  0  0  0  0  0  0  0  0  0  0
  -27.6005  -30.2294   21.0721 C   0  0  0  0  0  0  0  0  0  0  0  0
  -23.9856   -7.8759   22.2414 C   0  0  0  0  0  0  0  0  0  0  0  0
  -24.5232   -9.1638   24.2136 C   0  0  0  0  0  0  0  0  0  0  0  0
  -28.3480  -29.1032   20.7307 C   0  0  0  0  0  0  0  0  0  0  0  0
  -21.4028   -6.8474   24.1660 C   0  0  0  0  0  0  0  0  0  0  0  0
  -20.2342   -6.1430   23.8765 C   0  0  0  0  0  0  0  0  0  0  0  0
  -26.3108  -27.9048   20.2481 C   0  0  0  0  0  0  0  0  0  0  0  0
  -30.1491  -18.7862   19.9410 C   0  0  0  0  0  0  0  0  0  0  0  0
  -27.9663  -20.3652   20.6655 C   0  0  0  0  0  0  0  0  0  0  0  0
  -21.5338   -4.1413   23.5006 C   0  0  0  0  0  0  0  0  0  0  0  0
  -24.7200  -10.1674   22.0247 C   0  0  0  0  0  0  0  0  0  0  0  0
  -24.1657  -12.3192   20.7717 C   0  0  0  0  0  0  0  0  0  0  0  0
  -25.3951  -32.6876   27.1242 C   0  0  0  0  0  0  0  0  0  0  0  0
  -26.1997  -30.1983   21.0144 C   0  0  0  0  0  0  0  0  0  0  0  0
  -25.5515  -31.5970   26.2475 C   0  0  0  0  0  0  0  0  0  0  0  0
  -25.5479  -29.0328   20.5868 C   0  0  0  0  0  0  0  0  0  0  0  0
  -30.3418  -20.1204   20.2994 C   0  0  0  0  0  0  0  0  0  0  0  0
  -27.7736  -19.0311   20.3070 C   0  0  0  0  0  0  0  0  0  0  0  0
  -28.8649  -18.2416   19.9448 C   0  0  0  0  0  0  0  0  0  0  0  0
  -24.0992   -7.9707   23.6284 C   0  0  0  0  0  0  0  0  0  0  0  0
  -27.7031  -27.9397   20.3213 C   0  0  0  0  0  0  0  0  0  0  0  0
  -22.6370   -6.1987   24.1227 C   0  0  0  0  0  0  0  0  0  0  0  0
  -29.2505  -20.9099   20.6617 C   0  0  0  0  0  0  0  0  0  0  0  0
  -20.2997   -4.7900   23.5439 C   0  0  0  0  0  0  0  0  0  0  0  0
  -22.7025   -4.8457   23.7901 C   0  0  0  0  0  0  0  0  0  0  0  0
  -25.0413  -11.3021   21.1970 C   0  0  0  0  0  0  0  0  0  0  0  0
  -24.9508  -13.1534   20.0139 C   0  0  0  0  0  0  0  0  0  0  0  0
  -22.7678  -12.4943   21.0379 C   0  0  0  0  0  0  0  0  0  0  0  0
  -23.8592  -30.5387   23.1380 C   0  0  0  0  0  0  0  0  0  0  0  0
  -28.8754  -24.5158   20.5044 C   0  0  0  0  0  0  0  0  0  0  0  0
  -21.9738  -30.3919   20.5024 C   0  0  0  0  0  0  0  0  0  0  0  0
  -21.5879  -29.3686   17.2697 C   0  0  0  0  0  0  0  0  0  0  0  0
  -29.6781  -15.9787   19.1933 C   0  0  0  0  0  0  0  0  0  0  0  0
  -24.0350  -33.2444   27.4631 C   0  0  0  0  0  0  0  0  0  0  0  0
  -25.4088  -31.4300   21.3604 C   0  0  0  0  0  0  0  0  0  0  0  0
  -24.0471  -28.9542   20.4884 C   0  0  0  0  0  0  0  0  0  0  0  0
  -22.9462  -32.8363   26.4741 C   0  0  0  0  0  0  0  0  0  0  0  0
  -29.6560  -12.5457   18.2493 C   0  0  0  0  0  0  0  0  0  0  0  0
  -23.0264  -31.3420   26.1783 C   0  0  0  0  0  0  0  0  0  0  0  0
  -28.3814  -11.9998   18.8970 C   0  0  0  0  0  0  0  0  0  0  0  0
  -30.3418  -13.5848   19.1346 C   0  0  0  0  0  0  0  0  0  0  0  0
  -28.2053  -14.1412   20.2276 C   0  0  0  0  0  0  0  0  0  0  0  0
  -24.3693  -30.9786   25.5332 C   0  0  1  0  0  0  0  0  0  0  0  0
  -23.9684  -31.1231   21.7581 C   0  0  1  0  0  0  0  0  0  0  0  0
  -27.4444  -13.1388   19.3446 C   0  0  2  0  0  0  0  0  0  0  0  0
  -31.7234  -20.6866   20.2881 C   0  0  0  0  0  0  0  0  0  0  0  0
  -26.3872  -18.4736   20.3198 C   0  0  0  0  0  0  0  0  0  0  0  0
  -19.9234  -29.3593   15.3918 C   0  0  0  0  0  0  0  0  0  0  0  0
  -20.4308  -28.1515   21.8844 C   0  0  0  0  0  0  0  0  0  0  0  0
  -19.4423  -27.5563   19.6625 C   0  0  0  0  0  0  0  0  0  0  0  0
  -19.0034  -29.8002   20.6601 C   0  0  0  0  0  0  0  0  0  0  0  0
  -23.3783  -30.9478   15.5205 C   0  0  0  0  0  0  0  0  0  0  0  0
  -27.8238  -25.5670   20.2140 C   0  0  0  0  0  0  0  0  0  1  0  0
  -28.3578  -23.1126   20.7450 C   0  0  0  0  0  0  0  0  0  0  0  0
  -21.2977  -29.2836   19.7320 C   0  0  1  0  0  0  0  0  0  0  0  0
  -21.0871  -30.0969   16.0356 C   0  0  2  0  0  0  0  0  0  0  0  0
  -20.0718  -28.6985   20.4884 C   0  0  0  0  0  0  0  0  0  0  0  0
  -26.2871  -11.4726   20.7467 N   0  0  0  0  0  0  0  0  0  0  0  0
  -26.2001  -12.6064   20.0305 N   0  0  0  0  0  0  0  0  0  0  0  0
  -23.3176  -30.1828   20.8435 N   0  0  0  0  0  0  0  0  0  0  0  0
  -29.3946  -14.6347   19.5157 N   0  0  0  0  0  0  0  0  0  0  0  0
  -24.6875  -14.2941   19.3417 N   0  0  0  0  0  0  0  0  0  0  0  0
  -22.1154  -11.5441   21.8353 N   0  0  0  0  0  0  0  0  0  0  0  0
  -28.6896  -16.8845   19.5768 N   0  0  0  0  0  0  0  0  0  0  0  0
  -24.3738  -31.3469   24.1337 N   0  0  0  0  0  0  0  0  0  0  0  0
  -20.9824  -29.8334   18.4180 N   0  0  0  0  0  0  0  0  0  0  0  0
  -22.1790  -30.2218   15.0290 N   0  3  0  0  0  0  0  0  0  0  0  0
  -22.1129  -13.4557   20.5685 O   0  0  0  0  0  0  0  0  0  0  0  0
  -23.3447  -29.4367   23.2885 O   0  0  0  0  0  0  0  0  0  0  0  0
  -30.0750  -24.7853   20.5430 O   0  0  0  0  0  0  0  0  0  0  0  0
  -21.3353  -31.4088   20.7849 O   0  0  0  0  0  0  0  0  0  0  0  0
  -22.4292  -28.4740   17.2197 O   0  0  0  0  0  0  0  0  0  0  0  0
  -30.7084  -16.2992   18.5951 O   0  0  0  0  0  0  0  0  0  0  0  0
  -23.7962   -6.8992   24.4112 O   0  0  0  0  0  0  0  0  0  0  0  0
  -28.4303  -26.8388   19.9881 O   0  0  0  0  0  0  0  0  0  1  0  0
  -29.4231  -22.2267   21.0171 O   0  0  0  0  0  0  0  0  0  0  0  0
  -19.1773   -4.1133   23.2674 F   0  0  0  0  0  0  0  0  0  0  0  0
  -23.8851   -4.2169   23.7480 F   0  0  0  0  0  0  0  0  0  0  0  0
  1  2  1  0  0  0  0
  1  5  2  0  0  0  0
  2  6  2  0  0  0  0
  3  8  2  0  0  0  0
  3 17  1  0  0  0  0
  4  9  1  0  0  0  0
  4 17  2  0  0  0  0
  5 19  1  0  0  0  0
  6 21  1  0  0  0  0
  7 10  2  0  0  0  0
  7 20  1  0  0  0  0
  8 26  1  0  0  0  0
  9 26  2  0  0  0  0
 10 27  1  0  0  0  0
 11 12  2  0  0  0  0
 11 28  1  0  0  0  0
 12 30  1  0  0  0  0
 13 22  1  0  0  0  0
 13 27  2  0  0  0  0
 14 23  1  0  0  0  0
 14 25  2  0  0  0  0
 15 24  2  0  0  0  0
 15 29  1  0  0  0  0
 16 30  2  0  0  0  0
 16 31  1  0  0  0  0
 17 32  1  0  0  0  0
 18 32  1  0  0  0  0
 18 33  2  0  0  0  0
 18 34  1  0  0  0  0
 19 21  2  0  0  0  0
 19 40  1  0  0  0  0
 20 22  2  0  0  0  0
 20 41  1  0  0  0  0
 21 49  1  0  0  0  0
 22 42  1  0  0  0  0
 23 29  2  0  0  0  0
 23 52  1  0  0  0  0
 24 25  1  0  0  0  0
 24 53  1  0  0  0  0
 25 70  1  0  0  0  0
 26 80  1  0  0  0  0
 27 81  1  0  0  0  0
 28 31  2  0  0  0  0
 28 80  1  0  0  0  0
 29 82  1  0  0  0  0
 30 83  1  0  0  0  0
 31 84  1  0  0  0  0
 32 64  2  0  0  0  0
 33 65  1  0  0  0  0
 33 68  1  0  0  0  0
 34 69  1  0  0  0  0
 34 74  2  0  0  0  0
 35 50  1  0  0  0  0
 35 71  1  0  0  0  0
 35 75  2  0  0  0  0
 36 59  1  0  0  0  0
 36 60  1  0  0  0  0
 36 76  2  0  0  0  0
 37 61  1  0  0  0  0
 37 66  1  0  0  0  0
 37 77  2  0  0  0  0
 38 62  1  0  0  0  0
 38 72  1  0  0  0  0
 38 78  2  0  0  0  0
 39 67  1  0  0  0  0
 39 70  1  0  0  0  0
 39 79  2  0  0  0  0
 40 43  1  0  0  0  0
 41 50  1  0  0  0  0
 42 66  1  0  0  0  0
 43 45  1  0  0  0  0
 44 46  1  0  0  0  0
 44 47  1  0  0  0  0
 45 49  1  0  0  0  0
 46 51  1  0  0  0  0
 47 67  1  0  0  0  0
 48 51  1  0  0  0  0
 48 67  1  0  0  0  0
 49 71  1  0  0  0  0
 50 66  1  0  0  0  0
 51 65  1  0  0  0  0
 54 62  1  0  0  0  0
 55 63  1  0  0  0  0
 56 63  1  0  0  0  0
 57 63  1  0  0  0  0
 58 73  1  0  0  0  0
 59 81  1  0  0  0  0
 60 82  1  0  0  0  0
 61 63  1  0  0  0  0
 61 72  1  0  0  0  0
 62 73  1  0  0  0  0
 64 65  1  0  0  0  0
M  CHG  1  73   1
M  ISO  4  39 100  59 101  70 100  81 101
M  END
> <Batch ID>
0128

> <Smiles>
CNC(C)C(=O)NC(C(=O)N1Cc2cc([101O:1][101CH2:1]C(=O)COc3cc(C)c([100NH:0][100C:0](=O)N4CCCC(n5nc(-c6ccc(Oc7ccc(F)cc7F)cc6)c(C(N)=O)c5N)C4)cc3C)ccc2CC1C(=O)NC1CCCc2ccccc21)C(C)(C)C

> <Shape>
0.339

> <Color>
0.137

> <Negative vol penalty>
0.000

$$$$

  -OEChem-04052302163D

 86 94  0     1  0  0  0  0  0999 V2000
  -30.6440  -36.1063   21.2283 C   0  0  0  0  0  0  0  0  0  0  0  0
  -30.6009  -34.7164   21.2701 C   0  0  0  0  0  0  0  0  0  0  0  0
  -23.5638   -9.6271   21.7003 C   0  0  0  0  0  0  0  0  0  0  0  0
  -24.2061  -10.8538   23.6801 C   0  0  0  0  0  0  0  0  0  0  0  0
  -29.6641  -36.8529   21.8812 C   0  0  0  0  0  0  0  0  0  0  0  0
  -29.5785  -34.0723   21.9660 C   0  0  0  0  0  0  0  0  0  0  0  0
  -27.5990  -30.2021   19.3681 C   0  0  0  0  0  0  0  0  0  0  0  0
  -23.0021   -8.6314   22.4994 C   0  0  0  0  0  0  0  0  0  0  0  0
  -23.6443   -9.8580   24.4793 C   0  0  0  0  0  0  0  0  0  0  0  0
  -28.3247  -29.0119   19.3472 C   0  0  0  0  0  0  0  0  0  0  0  0
  -24.0808   -5.9994   24.3250 C   0  0  0  0  0  0  0  0  0  0  0  0
  -24.3539   -4.6723   23.9934 C   0  0  0  0  0  0  0  0  0  0  0  0
  -26.5188  -20.5070   20.1676 C   0  0  0  0  0  0  0  0  0  0  0  0
  -26.7379  -18.1028   20.0757 C   0  0  0  0  0  0  0  0  0  0  0  0
  -28.5899  -19.5103   19.4231 C   0  0  0  0  0  0  0  0  0  0  0  0
  -26.8878  -28.1126   21.0635 C   0  0  0  0  0  0  0  0  0  0  0  0
  -21.9921   -4.2617   23.6920 C   0  0  0  0  0  0  0  0  0  0  0  0
  -24.1659  -10.7383   22.2906 C   0  0  0  0  0  0  0  0  0  0  0  0
  -25.9745  -19.2365   20.3545 C   0  0  0  0  0  0  0  0  0  0  0  0
  -27.8265  -20.6440   19.7018 C   0  0  0  0  0  0  0  0  0  0  0  0
  -24.1070  -12.9153   20.9621 C   0  0  0  0  0  0  0  0  0  0  0  0
  -28.6237  -36.2176   22.5773 C   0  0  0  0  0  0  0  0  0  0  0  0
  -26.5172  -30.3608   20.2462 C   0  0  0  0  0  0  0  0  0  0  0  0
  -28.5845  -34.8111   22.6299 C   0  0  0  0  0  0  0  0  0  0  0  0
  -26.1484  -29.3049   21.0919 C   0  0  0  0  0  0  0  0  0  0  0  0
  -28.0456  -18.2397   19.6100 C   0  0  0  0  0  0  0  0  0  0  0  0
  -23.0423   -8.7469   23.8888 C   0  0  0  0  0  0  0  0  0  0  0  0
  -27.9710  -27.9680   20.1970 C   0  0  0  0  0  0  0  0  0  0  0  0
  -22.7634   -6.4576   24.3402 C   0  0  0  0  0  0  0  0  0  0  0  0
  -23.3095   -3.8035   23.6768 C   0  0  0  0  0  0  0  0  0  0  0  0
  -21.7191   -5.5888   24.0237 C   0  0  0  0  0  0  0  0  0  0  0  0
  -24.7469  -11.7669   21.4657 C   0  0  0  0  0  0  0  0  0  0  0  0
  -25.0816  -13.5646   20.2446 C   0  0  0  0  0  0  0  0  0  0  0  0
  -24.2009  -18.0845   21.5965 C   0  0  0  0  0  0  0  0  0  0  0  0
  -24.6110  -19.0935   20.8402 C   0  0  0  0  0  0  0  0  0  0  0  0
  -28.4018  -21.9863   19.5045 C   0  0  0  0  0  0  0  0  0  0  0  0
  -27.9371  -23.1052   20.0777 C   0  0  0  0  0  0  0  0  0  0  0  0
  -22.7526  -13.3556   21.1281 C   0  0  0  0  0  0  0  0  0  0  0  0
  -29.5404  -16.5770   20.2661 C   0  0  0  0  0  0  0  0  0  0  0  0
  -28.5867  -24.4201   19.8044 C   0  0  0  0  0  0  0  0  0  0  0  0
  -30.3528  -15.4010   19.8786 C   0  0  0  0  0  0  0  0  0  0  0  0
  -25.8580  -32.3176   22.6628 C   0  0  0  0  0  0  0  0  0  0  0  0
  -22.9687  -30.8469   22.5548 C   0  0  0  0  0  0  0  0  0  0  0  0
  -21.1477  -28.0989   21.6721 C   0  0  0  0  0  0  0  0  0  0  0  0
  -27.6138  -37.0672   23.3073 C   0  0  0  0  0  0  0  0  0  0  0  0
  -25.7279  -31.6412   20.2376 C   0  0  0  0  0  0  0  0  0  0  0  0
  -24.9826  -29.4174   22.0388 C   0  0  0  0  0  0  0  0  0  0  0  0
  -26.3532  -36.3055   23.7082 C   0  0  0  0  0  0  0  0  0  0  0  0
  -29.6752  -12.0521   18.7911 C   0  0  0  0  0  0  0  0  0  0  0  0
  -26.7173  -34.9672   24.3431 C   0  0  0  0  0  0  0  0  0  0  0  0
  -28.2963  -11.7610   19.3825 C   0  0  0  0  0  0  0  0  0  0  0  0
  -30.4992  -12.9476   19.7106 C   0  0  0  0  0  0  0  0  0  0  0  0
  -28.4379  -13.9447   20.6620 C   0  0  0  0  0  0  0  0  0  0  0  0
  -27.4774  -34.0758   23.3536 C   0  0  1  0  0  0  0  0  0  0  0  0
  -24.9644  -31.8811   21.5364 C   0  0  1  0  0  0  0  0  0  0  0  0
  -27.5660  -13.0654   19.7486 C   0  0  2  0  0  0  0  0  0  0  0  0
  -29.6832  -17.0574   21.6827 C   0  0  0  0  0  0  0  0  0  0  0  0
  -18.8161  -27.1739   21.7457 C   0  0  0  0  0  0  0  0  0  0  0  0
  -23.3040  -30.2447   25.5271 C   0  0  0  0  0  0  0  0  0  0  0  0
  -21.4716  -28.5514   25.3195 C   0  0  0  0  0  0  0  0  0  0  0  0
  -21.0015  -30.9578   24.8605 C   0  0  0  0  0  0  0  0  0  0  0  0
  -20.9981  -27.9277   18.7213 C   0  0  0  0  0  0  0  0  0  0  0  0
  -27.9716  -25.6104   20.5096 C   0  0  0  0  0  0  0  0  0  1  0  0
  -22.3669  -29.6235   23.2029 C   0  0  1  0  0  0  0  0  0  0  0  0
  -19.8312  -27.9590   20.9294 C   0  0  2  0  0  0  0  0  0  0  0  0
  -22.0593  -29.8426   24.7112 C   0  0  0  0  0  0  0  0  0  0  0  0
  -26.0288  -11.6884   21.0990 N   0  0  0  0  0  0  0  0  0  0  0  0
  -28.8110  -17.1030   19.3297 N   0  0  0  0  0  0  0  0  0  0  0  0
  -26.2023  -12.7956   20.3573 N   0  0  0  0  0  0  0  0  0  0  0  0
  -29.7632  -14.1588   20.0674 N   0  0  0  0  0  0  0  0  0  0  0  0
  -24.2460  -30.6915   21.9978 N   0  0  0  0  0  0  0  0  0  0  0  0
  -25.0807  -14.7127   19.5344 N   0  0  0  0  0  0  0  0  0  0  0  0
  -21.8837  -12.5689   21.8965 N   0  0  0  0  0  0  0  0  0  0  0  0
  -26.5618  -33.4785   22.4052 N   0  0  0  0  0  0  0  0  0  0  0  0
  -21.2013  -29.2683   22.4008 N   0  0  0  0  0  0  0  0  0  0  0  0
  -20.0398  -27.2526   19.6339 N   0  3  0  0  0  0  0  0  0  0  0  0
  -22.3213  -14.4069   20.5968 O   0  0  0  0  0  0  0  0  0  0  0  0
  -29.5555  -24.5263   19.0572 O   0  0  0  0  0  0  0  0  0  0  0  0
  -31.4641  -15.6520   19.4311 O   0  0  0  0  0  0  0  0  0  0  0  0
  -25.9043  -31.6512   23.6902 O   0  0  0  0  0  0  0  0  0  0  0  0
  -22.3262  -31.8998   22.5369 O   0  0  0  0  0  0  0  0  0  0  0  0
  -22.0380  -27.2536   21.6147 O   0  0  0  0  0  0  0  0  0  0  0  0
  -22.4940   -7.7756   24.6689 O   0  0  0  0  0  0  0  0  0  0  0  0
  -28.6780  -26.8054   20.1790 O   0  0  0  0  0  0  0  0  0  1  0  0
  -23.5720   -2.5296   23.3568 F   0  0  0  0  0  0  0  0  0  0  0  0
  -20.4516   -6.0235   24.0354 F   0  0  0  0  0  0  0  0  0  0  0  0
  1  2  1  0  0  0  0
  1  5  2  0  0  0  0
  2  6  2  0  0  0  0
  3  8  2  0  0  0  0
  3 18  1  0  0  0  0
  4  9  1  0  0  0  0
  4 18  2  0  0  0  0
  5 22  1  0  0  0  0
  6 24  1  0  0  0  0
  7 10  2  0  0  0  0
  7 23  1  0  0  0  0
  8 27  1  0  0  0  0
  9 27  2  0  0  0  0
 10 28  1  0  0  0  0
 11 12  2  0  0  0  0
 11 29  1  0  0  0  0
 12 30  1  0  0  0  0
 13 19  1  0  0  0  0
 13 20  2  0  0  0  0
 14 19  2  0  0  0  0
 14 26  1  0  0  0  0
 15 20  1  0  0  0  0
 15 26  2  0  0  0  0
 16 25  1  0  0  0  0
 16 28  2  0  0  0  0
 17 30  2  0  0  0  0
 17 31  1  0  0  0  0
 18 32  1  0  0  0  0
 19 35  1  0  0  0  0
 20 36  1  0  0  0  0
 21 32  1  0  0  0  0
 21 33  2  0  0  0  0
 21 38  1  0  0  0  0
 22 24  2  0  0  0  0
 22 45  1  0  0  0  0
 23 25  2  0  0  0  0
 23 46  1  0  0  0  0
 24 54  1  0  0  0  0
 25 47  1  0  0  0  0
 26 68  1  0  0  0  0
 27 83  1  0  0  0  0
 28 84  1  0  0  0  0
 29 31  2  0  0  0  0
 29 83  1  0  0  0  0
 30 85  1  0  0  0  0
 31 86  1  0  0  0  0
 32 67  2  0  0  0  0
 33 69  1  0  0  0  0
 33 72  1  0  0  0  0
 34 35  2  0  0  0  0
 36 37  2  0  0  0  0
 37 40  1  0  0  0  0
 38 73  1  0  0  0  0
 38 77  2  0  0  0  0
 39 41  1  0  0  0  0
 39 57  1  0  0  0  0
 39 68  2  0  0  0  0
 40 63  1  0  0  0  0
 40 78  2  0  0  0  0
 41 70  1  0  0  0  0
 41 79  2  0  0  0  0
 42 55  1  0  0  0  0
 42 74  1  0  0  0  0
 42 80  2  0  0  0  0
 43 64  1  0  0  0  0
 43 71  1  0  0  0  0
 43 81  2  0  0  0  0
 44 65  1  0  0  0  0
 44 75  1  0  0  0  0
 44 82  2  0  0  0  0
 45 48  1  0  0  0  0
 46 55  1  0  0  0  0
 47 71  1  0  0  0  0
 48 50  1  0  0  0  0
 49 51  1  0  0  0  0
 49 52  1  0  0  0  0
 50 54  1  0  0  0  0
 51 56  1  0  0  0  0
 52 70  1  0  0  0  0
 53 56  1  0  0  0  0
 53 70  1  0  0  0  0
 54 74  1  0  0  0  0
 55 71  1  0  0  0  0
 56 69  1  0  0  0  0
 58 65  1  0  0  0  0
 59 66  1  0  0  0  0
 60 66  1  0  0  0  0
 61 66  1  0  0  0  0
 62 76  1  0  0  0  0
 63 84  1  0  0  0  0
 64 66  1  0  0  0  0
 64 75  1  0  0  0  0
 65 76  1  0  0  0  0
 67 69  1  0  0  0  0
M  CHG  1  76   1
M  ISO  4  39 100  41 100  63 101  84 101
M  END
> <Batch ID>
0128

> <Smiles>
C=Cc1cc(C=CC(=O)[101CH2:1][101O:1]c2ccc3c(c2)CN(C(=O)C(NC(=O)C(C)NC)C(C)(C)C)C(C(=O)NC2CCCc4ccccc42)C3)cc(N=[100C:0](C)[100C:0](=O)N2CCCC(n3nc(-c4ccc(Oc5ccc(F)cc5F)cc4)c(C(N)=O)c3N)C2)c1

> <Shape>
0.347

> <Color>
0.174

> <Negative vol penalty>
0.000

$$$$

  -OEChem-04052302163D

 86 94  0     1  0  0  0  0  0999 V2000
  -36.1034  -30.5909   24.2668 C   0  0  0  0  0  0  0  0  0  0  0  0
  -35.6663  -29.4942   25.0028 C   0  0  0  0  0  0  0  0  0  0  0  0
  -23.8439   -9.7758   21.9248 C   0  0  0  0  0  0  0  0  0  0  0  0
  -24.4143  -11.0906   23.8697 C   0  0  0  0  0  0  0  0  0  0  0  0
  -35.3165  -31.0919   23.2307 C   0  0  0  0  0  0  0  0  0  0  0  0
  -34.4415  -28.8986   24.7038 C   0  0  0  0  0  0  0  0  0  0  0  0
  -33.0505  -22.9469   25.0890 C   0  0  0  0  0  0  0  0  0  0  0  0
  -23.3452   -8.7691   22.7515 C   0  0  0  0  0  0  0  0  0  0  0  0
  -23.9156  -10.0839   24.6965 C   0  0  0  0  0  0  0  0  0  0  0  0
  -32.3941  -22.1983   26.0650 C   0  0  0  0  0  0  0  0  0  0  0  0
  -20.8947   -9.0040   25.7589 C   0  0  0  0  0  0  0  0  0  0  0  0
  -20.0795   -9.3868   26.8240 C   0  0  0  0  0  0  0  0  0  0  0  0
  -33.0237  -14.8906   22.7632 C   0  0  0  0  0  0  0  0  0  0  0  0
  -33.4215  -15.7910   24.9695 C   0  0  0  0  0  0  0  0  0  0  0  0
  -30.3306  -22.4145   24.8344 C   0  0  0  0  0  0  0  0  0  0  0  0
  -31.1650  -15.6208   24.1230 C   0  0  0  0  0  0  0  0  0  0  0  0
  -21.6460   -8.4014   28.3771 C   0  0  0  0  0  0  0  0  0  0  0  0
  -24.3785  -10.9365   22.4839 C   0  0  0  0  0  0  0  0  0  0  0  0
  -33.9084  -15.2474   23.7807 C   0  0  0  0  0  0  0  0  0  0  0  0
  -24.1849  -13.0703   21.0993 C   0  0  0  0  0  0  0  0  0  0  0  0
  -34.0859  -30.4961   22.9124 C   0  0  0  0  0  0  0  0  0  0  0  0
  -32.3484  -23.4450   23.9821 C   0  0  0  0  0  0  0  0  0  0  0  0
  -33.6368  -29.3929   23.6632 C   0  0  0  0  0  0  0  0  0  0  0  0
  -30.9810  -23.1670   23.8445 C   0  0  0  0  0  0  0  0  0  0  0  0
  -31.6519  -15.0773   22.9343 C   0  0  0  0  0  0  0  0  0  0  0  0
  -23.3810   -8.9232   24.1374 C   0  0  0  0  0  0  0  0  0  0  0  0
  -31.0334  -21.9344   25.9393 C   0  0  0  0  0  0  0  0  0  0  0  0
  -22.0856   -8.3199   26.0029 C   0  0  0  0  0  0  0  0  0  0  0  0
  -32.0497  -15.9776   25.1406 C   0  0  0  0  0  0  0  0  0  0  0  0
  -20.4551   -9.0855   28.1331 C   0  0  0  0  0  0  0  0  0  0  0  0
  -22.4612   -8.0186   27.3120 C   0  0  0  0  0  0  0  0  0  0  0  0
  -24.8944  -11.9765   21.6304 C   0  0  0  0  0  0  0  0  0  0  0  0
  -25.1170  -13.7586   20.3617 C   0  0  0  0  0  0  0  0  0  0  0  0
  -35.9537  -15.1361   22.4318 C   0  0  0  0  0  0  0  0  0  0  0  0
  -35.3386  -15.0525   23.6037 C   0  0  0  0  0  0  0  0  0  0  0  0
  -22.8067  -13.4319   21.2585 C   0  0  0  0  0  0  0  0  0  0  0  0
  -31.7111  -26.3461   22.8502 C   0  0  0  0  0  0  0  0  0  0  0  0
  -30.3387  -18.3208   27.3246 C   0  0  0  0  0  0  0  0  0  0  0  0
  -30.4521  -24.6765   20.3703 C   0  0  0  0  0  0  0  0  0  0  0  0
  -29.0923  -21.7596   19.2347 C   0  0  0  0  0  0  0  0  0  0  0  0
  -31.0712  -14.1618   20.6603 C   0  0  0  0  0  0  0  0  0  0  0  0
  -33.2482  -31.1023   21.8144 C   0  0  0  0  0  0  0  0  0  0  0  0
  -33.0767  -24.2282   22.9244 C   0  0  0  0  0  0  0  0  0  0  0  0
  -30.1860  -23.6616   22.6648 C   0  0  0  0  0  0  0  0  0  0  0  0
  -32.1366  -30.1817   21.3176 C   0  0  0  0  0  0  0  0  0  0  0  0
  -29.1469  -13.0945   17.8612 C   0  0  0  0  0  0  0  0  0  0  0  0
  -31.3892  -29.5636   22.4949 C   0  0  0  0  0  0  0  0  0  0  0  0
  -27.7717  -12.7921   18.4607 C   0  0  0  0  0  0  0  0  0  0  0  0
  -30.2780  -12.7040   18.8108 C   0  0  0  0  0  0  0  0  0  0  0  0
  -28.7985  -12.9618   20.7637 C   0  0  0  0  0  0  0  0  0  0  0  0
  -32.3255  -28.7041   23.3529 C   0  0  1  0  0  0  0  0  0  0  0  0
  -32.1541  -25.1214   22.1008 C   0  0  1  0  0  0  0  0  0  0  0  0
  -27.6259  -13.3981   19.8703 C   0  0  2  0  0  0  0  0  0  0  0  0
  -28.7608  -19.5972   28.8102 C   0  0  0  0  0  0  0  0  0  0  0  0
  -28.1250  -20.7091   17.1712 C   0  0  0  0  0  0  0  0  0  0  0  0
  -27.8764  -26.2617   20.7737 C   0  0  0  0  0  0  0  0  0  0  0  0
  -26.6903  -24.5568   19.3755 C   0  0  0  0  0  0  0  0  0  0  0  0
  -28.5281  -25.9210   18.3834 C   0  0  0  0  0  0  0  0  0  0  0  0
  -31.1766  -19.6591   19.1863 C   0  0  0  0  0  0  0  0  0  0  0  0
  -30.3762  -17.2642   26.2359 C   0  0  0  0  0  0  0  0  0  0  0  0
  -29.2739  -20.4235   26.4660 C   0  0  0  0  0  0  0  0  0  1  0  0
  -29.0923  -19.2048   27.3712 C   0  0  1  0  0  0  0  0  0  0  0  0
  -29.0932  -24.1035   20.0475 C   0  0  1  0  0  0  0  0  0  0  0  0
  -29.3821  -20.9271   17.9988 C   0  0  2  0  0  0  0  0  0  0  0  0
  -28.0613  -25.2029   19.6684 C   0  0  0  0  0  0  0  0  0  0  0  0
  -26.1780  -11.9663   21.2614 N   0  0  0  0  0  0  0  0  0  0  0  0
  -26.2825  -13.0622   20.4905 N   0  0  0  0  0  0  0  0  0  0  0  0
  -30.9417  -24.4283   21.6605 N   0  0  0  0  0  0  0  0  0  0  0  0
  -30.0752  -13.3180   20.1248 N   0  0  0  0  0  0  0  0  0  0  0  0
  -25.0450  -14.8855   19.6219 N   0  0  0  0  0  0  0  0  0  0  0  0
  -21.9886  -12.6144   22.0502 N   0  0  0  0  0  0  0  0  0  0  0  0
  -30.7533  -14.7140   21.9007 N   0  0  0  0  0  0  0  0  0  0  0  0
  -32.5628  -27.4260   22.7169 N   0  0  0  0  0  0  0  0  0  0  0  0
  -29.3087  -23.1024   19.0083 N   0  0  0  0  0  0  0  0  0  0  0  0
  -29.9259  -19.5951   18.3872 N   0  3  0  0  0  0  0  0  0  0  0  0
  -22.3112  -14.4408   20.7016 O   0  0  0  0  0  0  0  0  0  0  0  0
  -30.6725  -26.3141   23.4999 O   0  0  0  0  0  0  0  0  0  0  0  0
  -31.2719  -18.4657   28.1144 O   0  0  0  0  0  0  0  0  0  0  0  0
  -31.0600  -25.3144   19.5071 O   0  0  0  0  0  0  0  0  0  0  0  0
  -28.7085  -21.2682   20.2938 O   0  0  0  0  0  0  0  0  0  0  0  0
  -32.1166  -14.4001   20.0501 O   0  0  0  0  0  0  0  0  0  0  0  0
  -22.8943   -7.9412   24.9444 O   0  0  0  0  0  0  0  0  0  0  0  0
  -31.5697  -16.5127   26.3123 O   0  0  0  0  0  0  0  0  0  0  0  0
  -30.3901  -21.2046   26.8908 O   0  0  0  0  0  0  0  0  0  1  0  0
  -19.6729   -9.4545   29.1559 F   0  0  0  0  0  0  0  0  0  0  0  0
  -23.6047   -7.3626   27.5527 F   0  0  0  0  0  0  0  0  0  0  0  0
  1  2  1  0  0  0  0
  1  5  2  0  0  0  0
  2  6  2  0  0  0  0
  3  8  2  0  0  0  0
  3 18  1  0  0  0  0
  4  9  1  0  0  0  0
  4 18  2  0  0  0  0
  5 21  1  0  0  0  0
  6 23  1  0  0  0  0
  7 10  2  0  0  0  0
  7 22  1  0  0  0  0
  8 26  1  0  0  0  0
  9 26  2  0  0  0  0
 10 27  1  0  0  0  0
 11 12  2  0  0  0  0
 11 28  1  0  0  0  0
 12 30  1  0  0  0  0
 13 19  1  0  0  0  0
 13 25  2  0  0  0  0
 14 19  2  0  0  0  0
 14 29  1  0  0  0  0
 15 24  1  0  0  0  0
 15 27  2  0  0  0  0
 16 25  1  0  0  0  0
 16 29  2  0  0  0  0
 17 30  2  0  0  0  0
 17 31  1  0  0  0  0
 18 32  1  0  0  0  0
 19 35  1  0  0  0  0
 20 32  1  0  0  0  0
 20 33  2  0  0  0  0
 20 36  1  0  0  0  0
 21 23  2  0  0  0  0
 21 42  1  0  0  0  0
 22 24  2  0  0  0  0
 22 43  1  0  0  0  0
 23 51  1  0  0  0  0
 24 44  1  0  0  0  0
 25 72  1  0  0  0  0
 26 82  1  0  0  0  0
 27 84  1  0  0  0  0
 28 31  2  0  0  0  0
 28 82  1  0  0  0  0
 29 83  1  0  0  0  0
 30 85  1  0  0  0  0
 31 86  1  0  0  0  0
 32 66  2  0  0  0  0
 33 67  1  0  0  0  0
 33 70  1  0  0  0  0
 34 35  2  0  0  0  0
 36 71  1  0  0  0  0
 36 76  2  0  0  0  0
 37 52  1  0  0  0  0
 37 73  1  0  0  0  0
 37 77  2  0  0  0  0
 38 60  1  0  0  0  0
 38 62  1  0  0  0  0
 38 78  2  0  0  0  0
 39 63  1  0  0  0  0
 39 68  1  0  0  0  0
 39 79  2  0  0  0  0
 40 64  1  0  0  0  0
 40 74  1  0  0  0  0
 40 80  2  0  0  0  0
 41 69  1  0  0  0  0
 41 72  1  0  0  0  0
 41 81  2  0  0  0  0
 42 45  1  0  0  0  0
 43 52  1  0  0  0  0
 44 68  1  0  0  0  0
 45 47  1  0  0  0  0
 46 48  1  0  0  0  0
 46 49  1  0  0  0  0
 47 51  1  0  0  0  0
 48 53  1  0  0  0  0
 49 69  1  0  0  0  0
 50 53  1  0  0  0  0
 50 69  1  0  0  0  0
 51 73  1  0  0  0  0
 52 68  1  0  0  0  0
 53 67  1  0  0  0  0
 54 62  1  0  0  0  0
 55 64  1  0  0  0  0
 56 65  1  0  0  0  0
 57 65  1  0  0  0  0
 58 65  1  0  0  0  0
 59 75  1  0  0  0  0
 60 83  1  0  0  0  0
 61 62  1  0  0  0  0
 61 84  1  0  0  0  0
 63 65  1  0  0  0  0
 63 74  1  0  0  0  0
 64 75  1  0  0  0  0
 66 67  1  0  0  0  0
M  CHG  1  75   1
M  ISO  4  41 100  61 101  72 100  84 101
M  END
> <Batch ID>
0128

> <Smiles>
C=Cc1cc([100NH:0][100C:0](=O)N2CCCC(n3nc(-c4ccc(Oc5ccc(F)cc5F)cc4)c(C(N)=O)c3N)C2)cc(OCC(=O)C(C)[101CH2:1][101O:1]c2ccc3c(c2)CN(C(=O)C(NC(=O)C(C)NC)C(C)(C)C)C(C(=O)NC2CCCc4ccccc42)C3)c1

> <Shape>
0.160

> <Color>
0.140

> <Negative vol penalty>
0.000

$$$$

  -OEChem-04052302163D

 82 90  0     1  0  0  0  0  0999 V2000
  -28.7722  -37.2104   24.2702 C   0  0  0  0  0  0  0  0  0  0  0  0
  -29.0927  -36.0125   23.6395 C   0  0  0  0  0  0  0  0  0  0  0  0
  -24.3460   -8.5674   22.0594 C   0  0  0  0  0  0  0  0  0  0  0  0
  -24.6261   -7.6944   19.8241 C   0  0  0  0  0  0  0  0  0  0  0  0
  -27.6592  -37.2802   25.1071 C   0  0  0  0  0  0  0  0  0  0  0  0
  -28.3010  -34.8834   23.8462 C   0  0  0  0  0  0  0  0  0  0  0  0
  -27.0194  -30.4903   19.7763 C   0  0  0  0  0  0  0  0  0  0  0  0
  -23.2193   -7.7635   22.2322 C   0  0  0  0  0  0  0  0  0  0  0  0
  -23.4994   -6.8904   19.9970 C   0  0  0  0  0  0  0  0  0  0  0  0
  -27.5604  -29.2233   19.5621 C   0  0  0  0  0  0  0  0  0  0  0  0
  -20.4802   -5.6741   23.3927 C   0  0  0  0  0  0  0  0  0  0  0  0
  -20.3591   -4.9771   24.5948 C   0  0  0  0  0  0  0  0  0  0  0  0
  -27.3987  -20.1208   18.9111 C   0  0  0  0  0  0  0  0  0  0  0  0
  -27.7924  -21.4902   18.9053 C   0  0  0  0  0  0  0  0  0  0  0  0
  -25.7979  -28.2524   20.8925 C   0  0  0  0  0  0  0  0  0  0  0  0
  -22.4329   -3.8255   24.1360 C   0  0  0  0  0  0  0  0  0  0  0  0
  -25.0494   -8.5329   20.8553 C   0  0  0  0  0  0  0  0  0  0  0  0
  -27.5484   -9.0315   20.9728 C   0  0  0  0  0  0  0  0  0  0  0  0
  -26.8479  -36.1539   25.3166 C   0  0  0  0  0  0  0  0  0  0  0  0
  -25.8679  -30.6493   20.5606 C   0  0  0  0  0  0  0  0  0  0  0  0
  -27.1769  -34.9379   24.6878 C   0  0  0  0  0  0  0  0  0  0  0  0
  -25.2428  -29.5222   21.1131 C   0  0  0  0  0  0  0  0  0  0  0  0
  -22.7960   -6.9250   21.2010 C   0  0  0  0  0  0  0  0  0  0  0  0
  -26.9513  -28.1045   20.1226 C   0  0  0  0  0  0  0  0  0  0  0  0
  -21.5776   -5.4468   22.5622 C   0  0  0  0  0  0  0  0  0  0  0  0
  -21.3354   -4.0528   24.9665 C   0  0  0  0  0  0  0  0  0  0  0  0
  -22.5539   -4.5225   22.9338 C   0  0  0  0  0  0  0  0  0  0  0  0
  -26.2130   -9.3636   20.6760 C   0  0  0  0  0  0  0  0  0  0  0  0
  -27.5955  -19.5310   20.1404 C   0  0  0  0  0  0  0  0  0  0  0  0
  -28.2658  -10.1499   20.6250 C   0  0  0  0  0  0  0  0  0  0  0  0
  -28.2748  -21.8950   20.1306 C   0  0  0  0  0  0  0  0  0  0  0  0
  -27.3288  -18.2017   20.5322 C   0  0  0  0  0  0  0  0  0  0  0  0
  -26.8256  -17.1929   19.7438 C   0  0  0  0  0  0  0  0  0  0  0  0
  -28.7555  -26.6319   20.3395 C   0  0  0  0  0  0  0  0  0  1  0  0
  -28.0919   -7.8203   21.5145 C   0  0  0  0  0  0  0  0  0  0  0  0
  -29.3969  -25.4613   20.2002 C   0  0  0  0  0  0  0  0  0  0  0  0
  -26.6100  -15.8426   20.3014 C   0  0  0  0  0  0  0  0  0  0  0  0
  -25.1938  -32.1582   23.2758 C   0  0  0  0  0  0  0  0  0  0  0  0
  -22.1596  -31.2533   22.5709 C   0  0  0  0  0  0  0  0  0  0  0  0
  -20.0872  -29.0921   20.9336 C   0  0  0  0  0  0  0  0  0  0  0  0
  -25.6824  -36.2655   26.2673 C   0  0  0  0  0  0  0  0  0  0  0  0
  -25.2815  -32.0199   20.7600 C   0  0  0  0  0  0  0  0  0  0  0  0
  -23.9932  -29.6370   21.9460 C   0  0  0  0  0  0  0  0  0  0  0  0
  -24.6795  -35.1219   26.1383 C   0  0  0  0  0  0  0  0  0  0  0  0
  -28.2003  -13.8769   17.6484 C   0  0  0  0  0  0  0  0  0  0  0  0
  -25.4034  -33.7802   26.0878 C   0  0  0  0  0  0  0  0  0  0  0  0
  -27.9436  -12.4556   18.1420 C   0  0  0  0  0  0  0  0  0  0  0  0
  -27.0533  -14.8216   18.0042 C   0  0  0  0  0  0  0  0  0  0  0  0
  -26.4603  -13.4079   19.9510 C   0  0  0  0  0  0  0  0  0  0  0  0
  -26.3283  -33.6978   24.8674 C   0  0  1  0  0  0  0  0  0  0  0  0
  -24.3996  -32.1177   22.0010 C   0  0  1  0  0  0  0  0  0  0  0  0
  -27.6230  -12.4509   19.6450 C   0  0  1  0  0  0  0  0  0  0  0  0
  -30.8100  -25.2998   20.6889 C   0  0  0  0  0  0  0  0  0  0  0  0
  -17.6559  -28.5817   20.5786 C   0  0  0  0  0  0  0  0  0  0  0  0
  -22.0161  -30.0127   25.3549 C   0  0  0  0  0  0  0  0  0  0  0  0
  -19.9988  -28.7335   24.6047 C   0  0  0  0  0  0  0  0  0  0  0  0
  -19.9479  -31.2272   24.6461 C   0  0  0  0  0  0  0  0  0  0  0  0
  -20.2973  -29.5509   18.0174 C   0  0  0  0  0  0  0  0  0  0  0  0
  -28.7788  -24.2633   19.5287 C   0  0  0  0  0  0  0  0  0  0  0  0
  -21.3071  -30.0445   22.8724 C   0  0  1  0  0  0  0  0  0  0  0  0
  -18.8715  -29.3316   20.0565 C   0  0  2  0  0  0  0  0  0  0  0  0
  -20.8421  -30.0022   24.3555 C   0  0  0  0  0  0  0  0  0  0  0  0
  -26.0867  -10.5965   20.1781 N   0  0  0  0  0  0  0  0  0  0  0  0
  -27.3519  -11.0490   20.1594 N   0  0  0  0  0  0  0  0  0  0  0  0
  -26.7266  -14.7559   19.4366 N   0  0  0  0  0  0  0  0  0  0  0  0
  -23.4618  -30.9992   22.1175 N   0  0  0  0  0  0  0  0  0  0  0  0
  -29.5828  -10.4422   20.6751 N   0  0  0  0  0  0  0  0  0  0  0  0
  -27.2140   -6.7701   21.8155 N   0  0  0  0  0  0  0  0  0  0  0  0
  -28.7376  -23.1603   20.4574 N   0  0  0  0  0  0  0  0  0  0  0  0
  -25.5617  -33.4307   23.6694 N   0  0  0  0  0  0  0  0  0  0  0  0
  -20.2158  -30.0628   21.9044 N   0  0  0  0  0  0  0  0  0  0  0  0
  -19.1408  -28.8778   18.6628 N   0  3  0  0  0  0  0  0  0  0  0  0
  -29.3177   -7.6798   21.7407 O   0  0  0  0  0  0  0  0  0  0  0  0
  -26.3346  -15.7595   21.4997 O   0  0  0  0  0  0  0  0  0  0  0  0
  -25.4525  -31.1124   23.8600 O   0  0  0  0  0  0  0  0  0  0  0  0
  -21.6851  -32.3815   22.7250 O   0  0  0  0  0  0  0  0  0  0  0  0
  -20.8446  -28.1371   20.7759 O   0  0  0  0  0  0  0  0  0  0  0  0
  -21.6968   -6.1402   21.3694 O   0  0  0  0  0  0  0  0  0  0  0  0
  -27.4777  -26.8667   19.9156 O   0  0  0  0  0  0  0  0  0  1  0  0
  -21.2198   -3.3846   26.1216 F   0  0  0  0  0  0  0  0  0  0  0  0
  -23.6111   -4.3008   22.1407 F   0  0  0  0  0  0  0  0  0  0  0  0
  -28.2522  -20.6266   21.2809 S   0  0  0  0  0  0  0  0  0  0  0  0
  1  2  1  0  0  0  0
  1  5  2  0  0  0  0
  2  6  2  0  0  0  0
  3  8  2  0  0  0  0
  3 17  1  0  0  0  0
  4  9  1  0  0  0  0
  4 17  2  0  0  0  0
  5 19  1  0  0  0  0
  6 21  1  0  0  0  0
  7 10  2  0  0  0  0
  7 20  1  0  0  0  0
  8 23  1  0  0  0  0
  9 23  2  0  0  0  0
 10 24  1  0  0  0  0
 11 12  2  0  0  0  0
 11 25  1  0  0  0  0
 12 26  1  0  0  0  0
 13 14  1  0  0  0  0
 13 29  2  0  0  0  0
 14 31  2  0  0  0  0
 15 22  1  0  0  0  0
 15 24  2  0  0  0  0
 16 26  2  0  0  0  0
 16 27  1  0  0  0  0
 17 28  1  0  0  0  0
 18 28  1  0  0  0  0
 18 30  2  0  0  0  0
 18 35  1  0  0  0  0
 19 21  2  0  0  0  0
 19 41  1  0  0  0  0
 20 22  2  0  0  0  0
 20 42  1  0  0  0  0
 21 50  1  0  0  0  0
 22 43  1  0  0  0  0
 23 78  1  0  0  0  0
 24 79  1  0  0  0  0
 25 27  2  0  0  0  0
 25 78  1  0  0  0  0
 26 80  1  0  0  0  0
 27 81  1  0  0  0  0
 28 63  2  0  0  0  0
 29 32  1  0  0  0  0
 29 82  1  0  0  0  0
 30 64  1  0  0  0  0
 30 67  1  0  0  0  0
 31 69  1  0  0  0  0
 31 82  1  0  0  0  0
 32 33  2  0  0  0  0
 33 37  1  0  0  0  0
 34 36  2  0  0  0  0
 34 79  1  0  0  0  0
 35 68  1  0  0  0  0
 35 73  2  0  0  0  0
 36 53  1  0  0  0  0
 36 59  1  0  0  0  0
 37 65  1  0  0  0  0
 37 74  2  0  0  0  0
 38 51  1  0  0  0  0
 38 70  1  0  0  0  0
 38 75  2  0  0  0  0
 39 60  1  0  0  0  0
 39 66  1  0  0  0  0
 39 76  2  0  0  0  0
 40 61  1  0  0  0  0
 40 71  1  0  0  0  0
 40 77  2  0  0  0  0
 41 44  1  0  0  0  0
 42 51  1  0  0  0  0
 43 66  1  0  0  0  0
 44 46  1  0  0  0  0
 45 47  1  0  0  0  0
 45 48  1  0  0  0  0
 46 50  1  0  0  0  0
 47 52  1  0  0  0  0
 48 65  1  0  0  0  0
 49 52  1  0  0  0  0
 49 65  1  0  0  0  0
 50 70  1  0  0  0  0
 51 66  1  0  0  0  0
 52 64  1  0  0  0  0
 54 61  1  0  0  0  0
 55 62  1  0  0  0  0
 56 62  1  0  0  0  0
 57 62  1  0  0  0  0
 58 72  1  0  0  0  0
 59 69  1  0  0  0  0
 60 62  1  0  0  0  0
 60 71  1  0  0  0  0
 61 72  1  0  0  0  0
 63 64  1  0  0  0  0
M  CHG  1  72   1
M  ISO  4  33 100  34 101  37 100  79 101
M  END
> <Batch ID>
0128

> <Smiles>
CNC(C)C(=O)NC(C(=O)N1Cc2cc([101O:1][101CH:1]=C(C)CNc3ccc(C=[100CH:0][100C:0](=O)N4CCCC(n5nc(-c6ccc(Oc7ccc(F)cc7F)cc6)c(C(N)=O)c5N)C4)s3)ccc2CC1C(=O)NC1CCCc2ccccc21)C(C)(C)C

> <Shape>
0.300

> <Color>
0.072

> <Negative vol penalty>
0.000

$$$$

  -OEChem-04052302163D

 83 91  0     1  0  0  0  0  0999 V2000
  -16.6781  -24.7876   23.5296 C   0  0  0  0  0  0  0  0  0  0  0  0
  -17.5076  -24.1692   22.6009 C   0  0  0  0  0  0  0  0  0  0  0  0
  -26.9573  -15.0440   19.4135 C   0  0  0  0  0  0  0  0  0  0  0  0
  -24.9299  -15.3872   20.6818 C   0  0  0  0  0  0  0  0  0  0  0  0
  -16.9134  -26.1111   23.8961 C   0  0  0  0  0  0  0  0  0  0  0  0
  -18.5796  -24.8701   22.0474 C   0  0  0  0  0  0  0  0  0  0  0  0
  -25.8100  -27.3474   18.7329 C   0  0  0  0  0  0  0  0  0  0  0  0
  -26.8882  -13.6753   19.6732 C   0  0  0  0  0  0  0  0  0  0  0  0
  -24.8607  -14.0185   20.9416 C   0  0  0  0  0  0  0  0  0  0  0  0
  -26.6226  -28.4707   18.8801 C   0  0  0  0  0  0  0  0  0  0  0  0
  -23.8971  -11.2206   19.3094 C   0  0  0  0  0  0  0  0  0  0  0  0
  -22.6586  -10.5963   19.1619 C   0  0  0  0  0  0  0  0  0  0  0  0
  -31.9010  -26.4895   21.6147 C   0  0  0  0  0  0  0  0  0  0  0  0
  -30.4567  -27.8405   20.2271 C   0  0  0  0  0  0  0  0  0  0  0  0
  -26.1921  -28.4636   21.2537 C   0  0  0  0  0  0  0  0  0  0  0  0
  -22.7111   -9.9429   21.4873 C   0  0  0  0  0  0  0  0  0  0  0  0
  -25.9782  -15.9000   19.9178 C   0  0  0  0  0  0  0  0  0  0  0  0
  -30.8990  -26.5868   20.6493 C   0  0  0  0  0  0  0  0  0  0  0  0
  -25.4838  -18.0025   18.5603 C   0  0  0  0  0  0  0  0  0  0  0  0
  -17.9816  -26.8317   23.3370 C   0  0  0  0  0  0  0  0  0  0  0  0
  -25.1726  -26.7793   19.8453 C   0  0  0  0  0  0  0  0  0  0  0  0
  -18.8479  -26.1990   22.4224 C   0  0  0  0  0  0  0  0  0  0  0  0
  -25.3741  -27.3316   21.1183 C   0  0  0  0  0  0  0  0  0  0  0  0
  -32.4607  -27.6459   22.1581 C   0  0  0  0  0  0  0  0  0  0  0  0
  -31.0164  -28.9969   20.7705 C   0  0  0  0  0  0  0  0  0  0  0  0
  -32.0184  -28.8996   21.7360 C   0  0  0  0  0  0  0  0  0  0  0  0
  -25.8399  -13.1625   20.4373 C   0  0  0  0  0  0  0  0  0  0  0  0
  -26.8114  -29.0308   20.1402 C   0  0  0  0  0  0  0  0  0  0  0  0
  -24.5427  -11.2060   20.5458 C   0  0  0  0  0  0  0  0  0  0  0  0
  -22.0655   -9.9575   20.2508 C   0  0  0  0  0  0  0  0  0  0  0  0
  -23.9497  -10.5672   21.6347 C   0  0  0  0  0  0  0  0  0  0  0  0
  -26.0494  -17.3140   19.6503 C   0  0  0  0  0  0  0  0  0  0  0  0
  -25.8329  -19.3150   18.7648 C   0  0  0  0  0  0  0  0  0  0  0  0
  -30.3152  -25.3807   20.0829 C   0  0  0  0  0  0  0  0  0  0  0  0
  -30.3577  -24.1530   20.6425 C   0  0  0  0  0  0  0  0  0  0  0  0
  -24.7119  -17.5005   17.4613 C   0  0  0  0  0  0  0  0  0  0  0  0
  -29.7065  -23.0252   19.9463 C   0  0  0  0  0  0  0  0  0  0  0  0
  -22.1471  -26.3114   20.7005 C   0  0  0  0  0  0  0  0  0  0  0  0
  -23.5018  -24.7018   23.1695 C   0  0  0  0  0  0  0  0  0  0  0  0
  -26.3150  -25.1568   25.3823 C   0  0  0  0  0  0  0  0  0  0  0  0
  -18.1951  -28.2592   23.7753 C   0  0  0  0  0  0  0  0  0  0  0  0
  -24.3207  -25.5516   19.6737 C   0  0  0  0  0  0  0  0  0  0  0  0
  -24.7286  -26.7474   22.3474 C   0  0  0  0  0  0  0  0  0  0  0  0
  -19.0741  -29.0513   22.8129 C   0  0  0  0  0  0  0  0  0  0  0  0
  -27.8520  -21.6126   22.7742 C   0  0  0  0  0  0  0  0  0  0  0  0
  -20.3388  -28.2664   22.4981 C   0  0  0  0  0  0  0  0  0  0  0  0
  -27.2087  -20.3912   22.1229 C   0  0  0  0  0  0  0  0  0  0  0  0
  -29.2335  -21.9094   22.1930 C   0  0  0  0  0  0  0  0  0  0  0  0
  -28.5940  -20.8290   20.0566 C   0  0  0  0  0  0  0  0  0  0  0  0
  -20.0017  -26.9512   21.7842 C   0  0  1  0  0  0  0  0  0  0  0  0
  -23.3091  -25.3641   20.8002 C   0  0  1  0  0  0  0  0  0  0  0  0
  -27.1834  -20.5400   20.5934 C   0  0  1  0  0  0  0  0  0  0  0  0
  -33.5331  -27.5145   23.1899 C   0  0  0  0  0  0  0  0  0  0  0  0
  -32.6182  -30.1395   22.3188 C   0  0  0  0  0  0  0  0  0  0  0  0
  -27.7123  -23.4738   26.6121 C   0  0  0  0  0  0  0  0  0  0  0  0
  -21.5711  -25.2146   25.4758 C   0  0  0  0  0  0  0  0  0  0  0  0
  -23.5140  -25.0528   27.0465 C   0  0  0  0  0  0  0  0  0  0  0  0
  -22.8693  -23.0846   25.6561 C   0  0  0  0  0  0  0  0  0  0  0  0
  -28.8195  -26.1989   24.1989 C   0  0  0  0  0  0  0  0  0  0  0  0
  -30.5207  -30.3401   20.2975 C   0  0  0  0  0  0  0  0  0  0  0  0
  -29.5853  -31.0355   21.2889 C   0  0  0  0  0  0  0  0  0  0  0  0
  -28.2873  -30.2736   21.5305 C   0  0  0  0  0  0  0  0  0  1  0  0
  -23.9783  -25.0712   24.5535 C   0  0  1  0  0  0  0  0  0  0  0  0
  -27.6088  -24.3626   25.3825 C   0  0  2  0  0  0  0  0  0  0  0  0
  -22.9833  -24.6247   25.6616 C   0  0  0  0  0  0  0  0  0  0  0  0
  -26.7079  -18.1223   20.4851 N   0  0  0  0  0  0  0  0  0  0  0  0
  -26.5584  -19.3322   19.9196 N   0  0  0  0  0  0  0  0  0  0  0  0
  -29.1941  -21.9891   20.7250 N   0  0  0  0  0  0  0  0  0  0  0  0
  -23.8997  -25.5508   22.1270 N   0  0  0  0  0  0  0  0  0  0  0  0
  -25.5871  -20.4446   18.0676 N   0  0  0  0  0  0  0  0  0  0  0  0
  -24.4449  -16.1257   17.4052 N   0  0  0  0  0  0  0  0  0  0  0  0
  -21.1985  -26.1444   21.6912 N   0  0  0  0  0  0  0  0  0  0  0  0
  -25.3165  -24.5061   24.6889 N   0  0  0  0  0  0  0  0  0  0  0  0
  -28.7812  -25.2825   25.3675 N   0  3  0  0  0  0  0  0  0  0  0  0
  -24.2858  -18.2464   16.5473 O   0  0  0  0  0  0  0  0  0  0  0  0
  -29.6601  -23.0672   18.7155 O   0  0  0  0  0  0  0  0  0  0  0  0
  -22.1145  -27.1341   19.7928 O   0  0  0  0  0  0  0  0  0  0  0  0
  -22.8084  -23.6929   23.0179 O   0  0  0  0  0  0  0  0  0  0  0  0
  -26.2005  -26.2438   25.9443 O   0  0  0  0  0  0  0  0  0  0  0  0
  -25.7720  -11.8270   20.6908 O   0  0  0  0  0  0  0  0  0  0  0  0
  -27.6035  -30.1276   20.2865 O   0  0  0  0  0  0  0  0  0  1  0  0
  -20.8754   -9.3593   20.1095 F   0  0  0  0  0  0  0  0  0  0  0  0
  -24.5645  -10.5509   22.8253 F   0  0  0  0  0  0  0  0  0  0  0  0
  1  2  1  0  0  0  0
  1  5  2  0  0  0  0
  2  6  2  0  0  0  0
  3  8  2  0  0  0  0
  3 17  1  0  0  0  0
  4  9  1  0  0  0  0
  4 17  2  0  0  0  0
  5 20  1  0  0  0  0
  6 22  1  0  0  0  0
  7 10  2  0  0  0  0
  7 21  1  0  0  0  0
  8 27  1  0  0  0  0
  9 27  2  0  0  0  0
 10 28  1  0  0  0  0
 11 12  2  0  0  0  0
 11 29  1  0  0  0  0
 12 30  1  0  0  0  0
 13 18  1  0  0  0  0
 13 24  2  0  0  0  0
 14 18  2  0  0  0  0
 14 25  1  0  0  0  0
 15 23  1  0  0  0  0
 15 28  2  0  0  0  0
 16 30  2  0  0  0  0
 16 31  1  0  0  0  0
 17 32  1  0  0  0  0
 18 34  1  0  0  0  0
 19 32  1  0  0  0  0
 19 33  2  0  0  0  0
 19 36  1  0  0  0  0
 20 22  2  0  0  0  0
 20 41  1  0  0  0  0
 21 23  2  0  0  0  0
 21 42  1  0  0  0  0
 22 50  1  0  0  0  0
 23 43  1  0  0  0  0
 24 26  1  0  0  0  0
 24 53  1  0  0  0  0
 25 26  2  0  0  0  0
 25 60  1  0  0  0  0
 26 54  1  0  0  0  0
 27 80  1  0  0  0  0
 28 81  1  0  0  0  0
 29 31  2  0  0  0  0
 29 80  1  0  0  0  0
 30 82  1  0  0  0  0
 31 83  1  0  0  0  0
 32 66  2  0  0  0  0
 33 67  1  0  0  0  0
 33 70  1  0  0  0  0
 34 35  2  0  0  0  0
 35 37  1  0  0  0  0
 36 71  1  0  0  0  0
 36 75  2  0  0  0  0
 37 68  1  0  0  0  0
 37 76  2  0  0  0  0
 38 51  1  0  0  0  0
 38 72  1  0  0  0  0
 38 77  2  0  0  0  0
 39 63  1  0  0  0  0
 39 69  1  0  0  0  0
 39 78  2  0  0  0  0
 40 64  1  0  0  0  0
 40 73  1  0  0  0  0
 40 79  2  0  0  0  0
 41 44  1  0  0  0  0
 42 51  1  0  0  0  0
 43 69  1  0  0  0  0
 44 46  1  0  0  0  0
 45 47  1  0  0  0  0
 45 48  1  0  0  0  0
 46 50  1  0  0  0  0
 47 52  1  0  0  0  0
 48 68  1  0  0  0  0
 49 52  1  0  0  0  0
 49 68  1  0  0  0  0
 50 72  1  0  0  0  0
 51 69  1  0  0  0  0
 52 67  1  0  0  0  0
 55 64  1  0  0  0  0
 56 65  1  0  0  0  0
 57 65  1  0  0  0  0
 58 65  1  0  0  0  0
 59 74  1  0  0  0  0
 60 61  1  0  0  0  0
 61 62  1  0  0  0  0
 62 81  1  0  0  0  0
 63 65  1  0  0  0  0
 63 73  1  0  0  0  0
 64 74  1  0  0  0  0
 66 67  1  0  0  0  0
M  CHG  1  74   1
M  ISO  4  35 100  37 100  62 101  81 101
M  END
> <Batch ID>
0128

> <Smiles>
CNC(C)C(=O)NC(C(=O)N1Cc2cc([101O:1][101CH2:1]CCc3cc(C=[100CH:0][100C:0](=O)N4CCCC(n5nc(-c6ccc(Oc7ccc(F)cc7F)cc6)c(C(N)=O)c5N)C4)cc(C)c3C)ccc2CC1C(=O)NC1CCCc2ccccc21)C(C)(C)C

> <Shape>
0.210

> <Color>
0.069

> <Negative vol penalty>
0.000

$$$$

  -OEChem-04052302163D

 85 93  0     1  0  0  0  0  0999 V2000
  -29.1782  -32.0761   17.2332 C   0  0  0  0  0  0  0  0  0  0  0  0
  -29.0058  -30.7810   17.7112 C   0  0  0  0  0  0  0  0  0  0  0  0
  -23.1350   -9.7316   20.0770 C   0  0  0  0  0  0  0  0  0  0  0  0
  -23.6609  -10.1032   22.4056 C   0  0  0  0  0  0  0  0  0  0  0  0
  -29.0669  -33.1597   18.1034 C   0  0  0  0  0  0  0  0  0  0  0  0
  -28.7231  -30.5688   19.0600 C   0  0  0  0  0  0  0  0  0  0  0  0
  -25.1572  -26.1897   21.4294 C   0  0  0  0  0  0  0  0  0  0  0  0
  -22.3915   -8.6039   20.4248 C   0  0  0  0  0  0  0  0  0  0  0  0
  -22.9173   -8.9754   22.7535 C   0  0  0  0  0  0  0  0  0  0  0  0
  -25.4470  -24.9538   22.0059 C   0  0  0  0  0  0  0  0  0  0  0  0
  -23.3246   -5.6192   22.7331 C   0  0  0  0  0  0  0  0  0  0  0  0
  -23.8840   -4.7325   23.6532 C   0  0  0  0  0  0  0  0  0  0  0  0
  -31.3135  -19.0366   23.8322 C   0  0  0  0  0  0  0  0  0  0  0  0
  -25.3548  -25.9606   24.1961 C   0  0  0  0  0  0  0  0  0  0  0  0
  -31.6907  -17.0670   22.4849 C   0  0  0  0  0  0  0  0  0  0  0  0
  -22.0171   -5.0996   25.1421 C   0  0  0  0  0  0  0  0  0  0  0  0
  -23.7698  -10.4812   21.0674 C   0  0  0  0  0  0  0  0  0  0  0  0
  -29.9482  -18.9640   23.5561 C   0  0  0  0  0  0  0  0  0  0  0  0
  -24.0747  -12.9709   20.6022 C   0  0  0  0  0  0  0  0  0  0  0  0
  -28.7731  -32.9612   19.4617 C   0  0  0  0  0  0  0  0  0  0  0  0
  -24.9744  -27.3245   22.2327 C   0  0  0  0  0  0  0  0  0  0  0  0
  -28.6091  -31.6507   19.9495 C   0  0  0  0  0  0  0  0  0  0  0  0
  -25.0602  -27.2092   23.6275 C   0  0  0  0  0  0  0  0  0  0  0  0
  -30.3254  -16.9944   22.2088 C   0  0  0  0  0  0  0  0  0  0  0  0
  -22.2826   -8.2258   21.7630 C   0  0  0  0  0  0  0  0  0  0  0  0
  -25.5487  -24.8397   23.3892 C   0  0  0  0  0  0  0  0  0  0  0  0
  -22.1115   -6.2461   23.0176 C   0  0  0  0  0  0  0  0  0  0  0  0
  -29.4541  -17.9429   22.7444 C   0  0  0  0  0  0  0  0  0  0  0  0
  -23.2303   -4.4727   24.8576 C   0  0  0  0  0  0  0  0  0  0  0  0
  -32.1848  -18.0881   23.2966 C   0  0  0  0  0  0  0  0  0  0  0  0
  -21.4577   -5.9863   24.2221 C   0  0  0  0  0  0  0  0  0  0  0  0
  -24.5384  -11.6460   20.7087 C   0  0  0  0  0  0  0  0  0  0  0  0
  -25.1836  -13.6945   20.2372 C   0  0  0  0  0  0  0  0  0  0  0  0
  -29.0509  -19.9793   24.1355 C   0  0  0  0  0  0  0  0  0  0  0  0
  -28.2992  -20.8278   23.4203 C   0  0  0  0  0  0  0  0  0  0  0  0
  -22.7592  -13.5002   20.8143 C   0  0  0  0  0  0  0  0  0  0  0  0
  -27.4291  -21.8276   24.1050 C   0  0  0  0  0  0  0  0  0  0  0  0
  -26.4521  -30.1229   22.5314 C   0  0  0  0  0  0  0  0  0  0  0  0
  -23.9932  -30.7650   24.5473 C   0  0  0  0  0  0  0  0  0  0  0  0
  -21.5627  -29.5718   26.6247 C   0  0  0  0  0  0  0  0  0  0  0  0
  -30.5842  -14.9368   20.7785 C   0  0  0  0  0  0  0  0  0  0  0  0
  -28.7093  -34.1609   20.3734 C   0  0  0  0  0  0  0  0  0  0  0  0
  -24.6360  -28.6449   21.5968 C   0  0  0  0  0  0  0  0  0  0  0  0
  -24.8526  -28.3930   24.5353 C   0  0  0  0  0  0  0  0  0  0  0  0
  -28.0371  -33.8726   21.7133 C   0  0  0  0  0  0  0  0  0  0  0  0
  -29.7582  -12.1633   18.7042 C   0  0  0  0  0  0  0  0  0  0  0  0
  -28.5756  -32.5775   22.3129 C   0  0  0  0  0  0  0  0  0  0  0  0
  -28.2884  -11.8905   19.0321 C   0  0  0  0  0  0  0  0  0  0  0  0
  -30.5437  -12.5978   19.9403 C   0  0  0  0  0  0  0  0  0  0  0  0
  -28.4947  -13.4544   21.0065 C   0  0  0  0  0  0  0  0  0  0  0  0
  -28.2768  -31.3813   21.4011 C   0  0  1  0  0  0  0  0  0  0  0  0
  -24.9773  -29.8394   22.4823 C   0  0  1  0  0  0  0  0  0  0  0  0
  -27.6483  -13.0764   19.7800 C   0  0  2  0  0  0  0  0  0  0  0  0
  -19.7337  -30.3394   28.1619 C   0  0  0  0  0  0  0  0  0  0  0  0
  -26.0757  -31.5078   26.6501 C   0  0  0  0  0  0  0  0  0  0  0  0
  -24.2805  -31.3386   28.3870 C   0  0  0  0  0  0  0  0  0  0  0  0
  -24.0928  -33.0294   26.5625 C   0  0  0  0  0  0  0  0  0  0  0  0
  -19.4830  -28.2085   25.0199 C   0  0  0  0  0  0  0  0  0  0  0  0
  -27.3185  -17.0997   23.3640 C   0  0  0  0  0  0  0  0  0  0  0  0
  -26.6281  -22.7299   23.1902 C   0  0  0  0  0  0  0  0  0  1  0  0
  -23.7474  -30.5831   26.0257 C   0  0  1  0  0  0  0  0  0  0  0  0
  -20.0875  -29.9086   26.7470 C   0  0  2  0  0  0  0  0  0  0  0  0
  -24.5550  -31.5926   26.8894 C   0  0  0  0  0  0  0  0  0  0  0  0
  -25.8404  -11.5317   20.4335 N   0  0  0  0  0  0  0  0  0  0  0  0
  -26.2043  -12.7941   20.1503 N   0  0  0  0  0  0  0  0  0  0  0  0
  -24.5300  -29.6638   23.8655 N   0  0  0  0  0  0  0  0  0  0  0  0
  -29.8804  -13.7278   20.5945 N   0  0  0  0  0  0  0  0  0  0  0  0
  -25.3753  -15.0068   19.9853 N   0  0  0  0  0  0  0  0  0  0  0  0
  -21.7357  -12.6175   21.1855 N   0  0  0  0  0  0  0  0  0  0  0  0
  -29.8408  -15.9506   21.3821 N   0  0  0  0  0  0  0  0  0  0  0  0
  -26.8946  -30.9748   21.5374 N   0  0  0  0  0  0  0  0  0  0  0  0
  -22.3024  -30.6597   26.2116 N   0  0  0  0  0  0  0  0  0  0  0  0
  -19.2548  -28.7240   26.3944 N   0  3  0  0  0  0  0  0  0  0  0  0
  -22.4954  -14.7171   20.6628 O   0  0  0  0  0  0  0  0  0  0  0  0
  -27.3686  -21.9103   25.3287 O   0  0  0  0  0  0  0  0  0  0  0  0
  -27.1374  -29.6081   23.4071 O   0  0  0  0  0  0  0  0  0  0  0  0
  -23.7124  -31.8421   24.0157 O   0  0  0  0  0  0  0  0  0  0  0  0
  -22.0142  -28.4563   26.8745 O   0  0  0  0  0  0  0  0  0  0  0  0
  -31.7511  -15.0722   20.4018 O   0  0  0  0  0  0  0  0  0  0  0  0
  -21.5570   -7.1256   22.1028 O   0  0  0  0  0  0  0  0  0  0  0  0
  -28.1185  -17.8675   22.4695 O   0  0  0  0  0  0  0  0  0  0  0  0
  -25.8322  -23.6347   23.9545 O   0  0  0  0  0  0  0  0  0  1  0  0
  -23.7669   -3.6200   25.7404 F   0  0  0  0  0  0  0  0  0  0  0  0
  -33.4958  -18.1579   23.5622 F   0  0  0  0  0  0  0  0  0  0  0  0
  -20.2914   -6.5847   24.5004 F   0  0  0  0  0  0  0  0  0  0  0  0
  1  2  1  0  0  0  0
  1  5  2  0  0  0  0
  2  6  2  0  0  0  0
  3  8  2  0  0  0  0
  3 17  1  0  0  0  0
  4  9  1  0  0  0  0
  4 17  2  0  0  0  0
  5 20  1  0  0  0  0
  6 22  1  0  0  0  0
  7 10  2  0  0  0  0
  7 21  1  0  0  0  0
  8 25  1  0  0  0  0
  9 25  2  0  0  0  0
 10 26  1  0  0  0  0
 11 12  2  0  0  0  0
 11 27  1  0  0  0  0
 12 29  1  0  0  0  0
 13 18  1  0  0  0  0
 13 30  2  0  0  0  0
 14 23  1  0  0  0  0
 14 26  2  0  0  0  0
 15 24  2  0  0  0  0
 15 30  1  0  0  0  0
 16 29  2  0  0  0  0
 16 31  1  0  0  0  0
 17 32  1  0  0  0  0
 18 28  2  0  0  0  0
 18 34  1  0  0  0  0
 19 32  1  0  0  0  0
 19 33  2  0  0  0  0
 19 36  1  0  0  0  0
 20 22  2  0  0  0  0
 20 42  1  0  0  0  0
 21 23  2  0  0  0  0
 21 43  1  0  0  0  0
 22 51  1  0  0  0  0
 23 44  1  0  0  0  0
 24 28  1  0  0  0  0
 24 70  1  0  0  0  0
 25 80  1  0  0  0  0
 26 82  1  0  0  0  0
 27 31  2  0  0  0  0
 27 80  1  0  0  0  0
 28 81  1  0  0  0  0
 29 83  1  0  0  0  0
 30 84  1  0  0  0  0
 31 85  1  0  0  0  0
 32 64  2  0  0  0  0
 33 65  1  0  0  0  0
 33 68  1  0  0  0  0
 34 35  2  0  0  0  0
 35 37  1  0  0  0  0
 36 69  1  0  0  0  0
 36 74  2  0  0  0  0
 37 60  1  0  0  0  0
 37 75  2  0  0  0  0
 38 52  1  0  0  0  0
 38 71  1  0  0  0  0
 38 76  2  0  0  0  0
 39 61  1  0  0  0  0
 39 66  1  0  0  0  0
 39 77  2  0  0  0  0
 40 62  1  0  0  0  0
 40 72  1  0  0  0  0
 40 78  2  0  0  0  0
 41 67  1  0  0  0  0
 41 70  1  0  0  0  0
 41 79  2  0  0  0  0
 42 45  1  0  0  0  0
 43 52  1  0  0  0  0
 44 66  1  0  0  0  0
 45 47  1  0  0  0  0
 46 48  1  0  0  0  0
 46 49  1  0  0  0  0
 47 51  1  0  0  0  0
 48 53  1  0  0  0  0
 49 67  1  0  0  0  0
 50 53  1  0  0  0  0
 50 67  1  0  0  0  0
 51 71  1  0  0  0  0
 52 66  1  0  0  0  0
 53 65  1  0  0  0  0
 54 62  1  0  0  0  0
 55 63  1  0  0  0  0
 56 63  1  0  0  0  0
 57 63  1  0  0  0  0
 58 73  1  0  0  0  0
 59 81  1  0  0  0  0
 60 82  1  0  0  0  0
 61 63  1  0  0  0  0
 61 72  1  0  0  0  0
 62 73  1  0  0  0  0
 64 65  1  0  0  0  0
M  CHG  1  73   1
M  ISO  4  41 100  60 101  70 100  82 101
M  END
> <Batch ID>
0128

> <Smiles>
CNC(C)C(=O)NC(C(=O)N1Cc2cc([101O:1][101CH2:1]C(=O)C=Cc3cc(F)cc([100NH:0][100C:0](=O)N4CCCC(n5nc(-c6ccc(Oc7ccc(F)cc7F)cc6)c(C(N)=O)c5N)C4)c3OC)ccc2CC1C(=O)NC1CCCc2ccccc21)C(C)(C)C

> <Shape>
0.237

> <Color>
0.198

> <Negative vol penalty>
0.000

$$$$

  -OEChem-04052302163D

 84 92  0     1  0  0  0  0  0999 V2000
  -31.2257  -32.5165   18.3478 C   0  0  0  0  0  0  0  0  0  0  0  0
  -30.7362  -31.2571   18.6790 C   0  0  0  0  0  0  0  0  0  0  0  0
  -23.0671  -10.0569   21.5126 C   0  0  0  0  0  0  0  0  0  0  0  0
  -23.8324  -10.9808   23.6097 C   0  0  0  0  0  0  0  0  0  0  0  0
  -30.9517  -33.6082   19.1706 C   0  0  0  0  0  0  0  0  0  0  0  0
  -29.9732  -31.0885   19.8339 C   0  0  0  0  0  0  0  0  0  0  0  0
  -25.8706  -28.2248   19.0508 C   0  0  0  0  0  0  0  0  0  0  0  0
  -22.3219   -9.1026   22.2049 C   0  0  0  0  0  0  0  0  0  0  0  0
  -23.0871  -10.0265   24.3021 C   0  0  0  0  0  0  0  0  0  0  0  0
  -26.0605  -26.8452   18.9834 C   0  0  0  0  0  0  0  0  0  0  0  0
  -22.8892   -6.1777   23.8010 C   0  0  0  0  0  0  0  0  0  0  0  0
  -22.9521   -4.8580   23.3538 C   0  0  0  0  0  0  0  0  0  0  0  0
  -29.8911  -18.2754   21.3893 C   0  0  0  0  0  0  0  0  0  0  0  0
  -31.8687  -19.5217   21.9993 C   0  0  0  0  0  0  0  0  0  0  0  0
  -25.3148  -26.6372   21.2682 C   0  0  0  0  0  0  0  0  0  0  0  0
  -32.0719  -17.2555   21.1869 C   0  0  0  0  0  0  0  0  0  0  0  0
  -20.5670   -4.8748   22.9686 C   0  0  0  0  0  0  0  0  0  0  0  0
  -23.8225  -10.9960   22.2149 C   0  0  0  0  0  0  0  0  0  0  0  0
  -30.4826  -19.4462   21.8635 C   0  0  0  0  0  0  0  0  0  0  0  0
  -24.1683  -13.2604   21.0921 C   0  0  0  0  0  0  0  0  0  0  0  0
  -30.1768  -33.4547   20.3311 C   0  0  0  0  0  0  0  0  0  0  0  0
  -25.4110  -28.8231   20.2328 C   0  0  0  0  0  0  0  0  0  0  0  0
  -29.6896  -32.1789   20.6737 C   0  0  0  0  0  0  0  0  0  0  0  0
  -25.1175  -28.0242   21.3471 C   0  0  0  0  0  0  0  0  0  0  0  0
  -30.6857  -17.1800   21.0511 C   0  0  0  0  0  0  0  0  0  0  0  0
  -22.3318   -9.0874   23.5997 C   0  0  0  0  0  0  0  0  0  0  0  0
  -25.7854  -26.0515   20.0931 C   0  0  0  0  0  0  0  0  0  0  0  0
  -21.6652   -6.8460   23.8321 C   0  0  0  0  0  0  0  0  0  0  0  0
  -21.7910   -4.2065   22.9376 C   0  0  0  0  0  0  0  0  0  0  0  0
  -32.6634  -18.4263   21.6610 C   0  0  0  0  0  0  0  0  0  0  0  0
  -20.5041   -6.1946   23.4159 C   0  0  0  0  0  0  0  0  0  0  0  0
  -24.5930  -11.9818   21.5002 C   0  0  0  0  0  0  0  0  0  0  0  0
  -25.2609  -13.7986   20.4572 C   0  0  0  0  0  0  0  0  0  0  0  0
  -29.6441  -20.6022   22.2216 C   0  0  0  0  0  0  0  0  0  0  0  0
  -28.3866  -20.8071   21.7988 C   0  0  0  0  0  0  0  0  0  0  0  0
  -22.8997  -13.9041   21.2709 C   0  0  0  0  0  0  0  0  0  0  0  0
  -26.5900  -30.9576   22.2718 C   0  0  0  0  0  0  0  0  0  0  0  0
  -27.1530  -22.8047   20.9608 C   0  0  0  0  0  0  0  0  0  0  0  0
  -23.6406  -30.7361   23.6038 C   0  0  0  0  0  0  0  0  0  0  0  0
  -20.8050  -28.8964   24.0746 C   0  0  0  0  0  0  0  0  0  0  0  0
  -30.7293  -14.8128   20.1901 C   0  0  0  0  0  0  0  0  0  0  0  0
  -29.9466  -34.6553   21.2144 C   0  0  0  0  0  0  0  0  0  0  0  0
  -25.1859  -30.3096   20.2807 C   0  0  0  0  0  0  0  0  0  0  0  0
  -24.6027  -28.6153   22.6332 C   0  0  0  0  0  0  0  0  0  0  0  0
  -28.8159  -34.4626   22.2217 C   0  0  0  0  0  0  0  0  0  0  0  0
  -29.6052  -11.6548   18.9899 C   0  0  0  0  0  0  0  0  0  0  0  0
  -28.9432  -33.1097   22.9147 C   0  0  0  0  0  0  0  0  0  0  0  0
  -28.1661  -11.5636   19.5024 C   0  0  0  0  0  0  0  0  0  0  0  0
  -30.5235  -12.3439   19.9977 C   0  0  0  0  0  0  0  0  0  0  0  0
  -28.6210  -13.5661   20.9754 C   0  0  0  0  0  0  0  0  0  0  0  0
  -28.8374  -31.9604   21.9050 C   0  0  1  0  0  0  0  0  0  0  0  0
  -25.2036  -30.8712   21.6990 C   0  0  1  0  0  0  0  0  0  0  0  0
  -27.6452  -12.9377   19.9672 C   0  0  2  0  0  0  0  0  0  0  0  0
  -18.5844  -28.9634   25.2417 C   0  0  0  0  0  0  0  0  0  0  0  0
  -25.0215  -30.1458   26.2598 C   0  0  0  0  0  0  0  0  0  0  0  0
  -22.8315  -29.3016   27.1312 C   0  0  0  0  0  0  0  0  0  0  0  0
  -23.0562  -31.6835   26.4250 C   0  0  0  0  0  0  0  0  0  0  0  0
  -19.3252  -28.7036   21.5188 C   0  0  0  0  0  0  0  0  0  0  0  0
  -27.5733  -22.0043   22.1855 C   0  0  0  0  0  0  0  0  0  0  0  0
  -26.3193  -24.0398   21.2438 C   0  0  0  0  0  0  0  0  0  1  0  0
  -23.0096  -29.8683   24.6658 C   0  0  1  0  0  0  0  0  0  0  0  0
  -19.3362  -29.2607   23.9536 C   0  0  2  0  0  0  0  0  0  0  0  0
  -23.4912  -30.2386   26.0970 C   0  0  0  0  0  0  0  0  0  0  0  0
  -25.8567  -11.7231   21.1536 N   0  0  0  0  0  0  0  0  0  0  0  0
  -26.2355  -12.8466   20.5209 N   0  0  0  0  0  0  0  0  0  0  0  0
  -24.4049  -30.0742   22.6324 N   0  0  0  0  0  0  0  0  0  0  0  0
  -29.9683  -13.6414   20.3890 N   0  0  0  0  0  0  0  0  0  0  0  0
  -25.4734  -14.9886   19.8563 N   0  0  0  0  0  0  0  0  0  0  0  0
  -21.8870  -13.2089   21.9459 N   0  0  0  0  0  0  0  0  0  0  0  0
  -30.0854  -15.9900   20.5700 N   0  0  0  0  0  0  0  0  0  0  0  0
  -27.4563  -31.7404   21.5327 N   0  0  0  0  0  0  0  0  0  0  0  0
  -21.5670  -29.9735   24.4749 N   0  0  0  0  0  0  0  0  0  0  0  0
  -18.7002  -28.4882   22.8492 N   0  3  0  0  0  0  0  0  0  0  0  0
  -22.6657  -15.0550   20.8305 O   0  0  0  0  0  0  0  0  0  0  0  0
  -26.8538  -30.3597   23.3085 O   0  0  0  0  0  0  0  0  0  0  0  0
  -27.4733  -22.4918   19.8148 O   0  0  0  0  0  0  0  0  0  0  0  0
  -23.4561  -31.9555   23.6309 O   0  0  0  0  0  0  0  0  0  0  0  0
  -21.2328  -27.7681   23.8411 O   0  0  0  0  0  0  0  0  0  0  0  0
  -31.8576  -14.7771   19.6925 O   0  0  0  0  0  0  0  0  0  0  0  0
  -21.6045   -8.1564   24.2756 O   0  0  0  0  0  0  0  0  0  0  0  0
  -25.9704  -24.7048   20.0303 O   0  0  0  0  0  0  0  0  0  1  0  0
  -21.8518   -2.9397   22.5067 F   0  0  0  0  0  0  0  0  0  0  0  0
  -33.9944  -18.4975   21.7938 F   0  0  0  0  0  0  0  0  0  0  0  0
  -19.3256   -6.8318   23.4424 F   0  0  0  0  0  0  0  0  0  0  0  0
  1  2  1  0  0  0  0
  1  5  2  0  0  0  0
  2  6  2  0  0  0  0
  3  8  2  0  0  0  0
  3 18  1  0  0  0  0
  4  9  1  0  0  0  0
  4 18  2  0  0  0  0
  5 21  1  0  0  0  0
  6 23  1  0  0  0  0
  7 10  2  0  0  0  0
  7 22  1  0  0  0  0
  8 26  1  0  0  0  0
  9 26  2  0  0  0  0
 10 27  1  0  0  0  0
 11 12  2  0  0  0  0
 11 28  1  0  0  0  0
 12 29  1  0  0  0  0
 13 19  2  0  0  0  0
 13 25  1  0  0  0  0
 14 19  1  0  0  0  0
 14 30  2  0  0  0  0
 15 24  1  0  0  0  0
 15 27  2  0  0  0  0
 16 25  2  0  0  0  0
 16 30  1  0  0  0  0
 17 29  2  0  0  0  0
 17 31  1  0  0  0  0
 18 32  1  0  0  0  0
 19 34  1  0  0  0  0
 20 32  1  0  0  0  0
 20 33  2  0  0  0  0
 20 36  1  0  0  0  0
 21 23  2  0  0  0  0
 21 42  1  0  0  0  0
 22 24  2  0  0  0  0
 22 43  1  0  0  0  0
 23 51  1  0  0  0  0
 24 44  1  0  0  0  0
 25 70  1  0  0  0  0
 26 80  1  0  0  0  0
 27 81  1  0  0  0  0
 28 31  2  0  0  0  0
 28 80  1  0  0  0  0
 29 82  1  0  0  0  0
 30 83  1  0  0  0  0
 31 84  1  0  0  0  0
 32 64  2  0  0  0  0
 33 65  1  0  0  0  0
 33 68  1  0  0  0  0
 34 35  2  0  0  0  0
 35 59  1  0  0  0  0
 36 69  1  0  0  0  0
 36 74  2  0  0  0  0
 37 52  1  0  0  0  0
 37 71  1  0  0  0  0
 37 75  2  0  0  0  0
 38 59  1  0  0  0  0
 38 60  1  0  0  0  0
 38 76  2  0  0  0  0
 39 61  1  0  0  0  0
 39 66  1  0  0  0  0
 39 77  2  0  0  0  0
 40 62  1  0  0  0  0
 40 72  1  0  0  0  0
 40 78  2  0  0  0  0
 41 67  1  0  0  0  0
 41 70  1  0  0  0  0
 41 79  2  0  0  0  0
 42 45  1  0  0  0  0
 43 52  1  0  0  0  0
 44 66  1  0  0  0  0
 45 47  1  0  0  0  0
 46 48  1  0  0  0  0
 46 49  1  0  0  0  0
 47 51  1  0  0  0  0
 48 53  1  0  0  0  0
 49 67  1  0  0  0  0
 50 53  1  0  0  0  0
 50 67  1  0  0  0  0
 51 71  1  0  0  0  0
 52 66  1  0  0  0  0
 53 65  1  0  0  0  0
 54 62  1  0  0  0  0
 55 63  1  0  0  0  0
 56 63  1  0  0  0  0
 57 63  1  0  0  0  0
 58 73  1  0  0  0  0
 60 81  1  0  0  0  0
 61 63  1  0  0  0  0
 61 72  1  0  0  0  0
 62 73  1  0  0  0  0
 64 65  1  0  0  0  0
M  CHG  1  73   1
M  ISO  4  41 100  60 101  70 100  81 101
M  END
> <Batch ID>
0128

> <Smiles>
CNC(C)C(=O)NC(C(=O)N1Cc2cc([101O:1][101CH2:1]C(=O)CC=Cc3cc(F)cc([100NH:0][100C:0](=O)N4CCCC(n5nc(-c6ccc(Oc7ccc(F)cc7F)cc6)c(C(N)=O)c5N)C4)c3)ccc2CC1C(=O)NC1CCCc2ccccc21)C(C)(C)C

> <Shape>
0.292

> <Color>
0.197

> <Negative vol penalty>
0.000

$$$$

  -OEChem-04052302163D

 84 92  0     1  0  0  0  0  0999 V2000
  -19.6012  -33.9511   21.3134 C   0  0  0  0  0  0  0  0  0  0  0  0
  -20.8990  -33.5548   21.0064 C   0  0  0  0  0  0  0  0  0  0  0  0
  -24.2136   -9.5588   22.0618 C   0  0  0  0  0  0  0  0  0  0  0  0
  -23.4754   -9.4348   19.7647 C   0  0  0  0  0  0  0  0  0  0  0  0
  -18.8610  -33.2395   22.2567 C   0  0  0  0  0  0  0  0  0  0  0  0
  -21.4577  -32.4474   21.6434 C   0  0  0  0  0  0  0  0  0  0  0  0
  -25.3668  -28.3969   19.2312 C   0  0  0  0  0  0  0  0  0  0  0  0
  -23.1819   -8.6996   22.4398 C   0  0  0  0  0  0  0  0  0  0  0  0
  -22.4437   -8.5755   20.1427 C   0  0  0  0  0  0  0  0  0  0  0  0
  -26.7536  -28.2736   19.3043 C   0  0  0  0  0  0  0  0  0  0  0  0
  -22.5470   -5.3796   22.3519 C   0  0  0  0  0  0  0  0  0  0  0  0
  -22.8586   -4.3374   23.2250 C   0  0  0  0  0  0  0  0  0  0  0  0
  -29.2211  -21.1604   21.2639 C   0  0  0  0  0  0  0  0  0  0  0  0
  -31.1876  -20.6735   19.9475 C   0  0  0  0  0  0  0  0  0  0  0  0
  -26.5118  -26.6915   21.1092 C   0  0  0  0  0  0  0  0  0  0  0  0
  -21.2739   -5.2068   24.8282 C   0  0  0  0  0  0  0  0  0  0  0  0
  -24.3603   -9.9265   20.7242 C   0  0  0  0  0  0  0  0  0  0  0  0
  -30.0798  -20.2339   20.6722 C   0  0  0  0  0  0  0  0  0  0  0  0
  -30.5781  -22.9659   20.4061 C   0  0  0  0  0  0  0  0  0  0  0  0
  -26.7272  -10.4567   19.9340 C   0  0  0  0  0  0  0  0  0  0  0  0
  -19.4076  -32.1170   22.8985 C   0  0  0  0  0  0  0  0  0  0  0  0
  -24.5410  -27.6755   20.1054 C   0  0  0  0  0  0  0  0  0  0  0  0
  -20.7246  -31.7209   22.5971 C   0  0  0  0  0  0  0  0  0  0  0  0
  -25.1147  -26.8055   21.0435 C   0  0  0  0  0  0  0  0  0  0  0  0
  -29.4703  -22.5264   21.1307 C   0  0  0  0  0  0  0  0  0  0  0  0
  -31.4368  -22.0395   19.8144 C   0  0  0  0  0  0  0  0  0  0  0  0
  -22.2970   -8.2079   21.4802 C   0  0  0  0  0  0  0  0  0  0  0  0
  -27.3264  -27.4230   20.2453 C   0  0  0  0  0  0  0  0  0  0  0  0
  -21.5990   -6.3355   22.7169 C   0  0  0  0  0  0  0  0  0  0  0  0
  -22.2220   -4.2510   24.4631 C   0  0  0  0  0  0  0  0  0  0  0  0
  -20.9624   -6.2491   23.9550 C   0  0  0  0  0  0  0  0  0  0  0  0
  -25.4255  -10.8145   20.3332 C   0  0  0  0  0  0  0  0  0  0  0  0
  -27.3464  -11.6538   19.6695 C   0  0  0  0  0  0  0  0  0  0  0  0
  -29.8204  -18.8093   20.8101 C   0  0  0  0  0  0  0  0  0  0  0  0
  -30.8397  -24.4080   20.2650 C   0  0  0  0  0  0  0  0  0  0  0  0
  -28.6316  -18.2575   21.1339 C   0  0  0  0  0  0  0  0  0  0  0  0
  -30.3874  -25.1815   19.2657 C   0  0  0  0  0  0  0  0  0  0  0  0
  -27.3232   -9.1583   19.8130 C   0  0  0  0  0  0  0  0  0  0  0  0
  -28.5251  -16.7875   21.2256 C   0  0  0  0  0  0  0  0  0  0  0  0
  -22.4309  -28.4527   22.3519 C   0  0  0  0  0  0  0  0  0  0  0  0
  -21.8955  -25.2538   22.4064 C   0  0  0  0  0  0  0  0  0  0  0  0
  -23.0676  -22.1092   21.7864 C   0  0  0  0  0  0  0  0  0  0  0  0
  -18.5859  -31.4079   23.9457 C   0  0  0  0  0  0  0  0  0  0  0  0
  -23.0460  -27.7993   19.9959 C   0  0  0  0  0  0  0  0  0  0  0  0
  -24.2717  -25.9934   21.9913 C   0  0  0  0  0  0  0  0  0  0  0  0
  -19.1174  -30.0218   24.3013 C   0  0  0  0  0  0  0  0  0  0  0  0
  -25.4787  -16.3186   19.2428 C   0  0  0  0  0  0  0  0  0  0  0  0
  -20.6259  -30.0690   24.5225 C   0  0  0  0  0  0  0  0  0  0  0  0
  -25.2797  -14.8100   19.3626 C   0  0  0  0  0  0  0  0  0  0  0  0
  -26.0771  -16.9190   20.5140 C   0  0  0  0  0  0  0  0  0  0  0  0
  -27.1454  -14.7519   21.0643 C   0  0  0  0  0  0  0  0  0  0  0  0
  -21.3567  -30.5101   23.2486 C   0  0  1  0  0  0  0  0  0  0  0  0
  -22.3186  -27.4075   21.2784 C   0  0  1  0  0  0  0  0  0  0  0  0
  -26.5881  -14.1197   19.7794 C   0  0  1  0  0  0  0  0  0  0  0  0
  -28.5265  -23.4877   21.7796 C   0  0  0  0  0  0  0  0  0  0  0  0
  -32.6344  -22.4709   19.0293 C   0  0  0  0  0  0  0  0  0  0  0  0
  -22.4158  -19.6927   21.9680 C   0  0  0  0  0  0  0  0  0  0  0  0
  -22.3929  -25.3482   25.4154 C   0  0  0  0  0  0  0  0  0  0  0  0
  -22.6713  -22.8604   25.3770 C   0  0  0  0  0  0  0  0  0  0  0  0
  -20.4923  -23.8801   24.7177 C   0  0  0  0  0  0  0  0  0  0  0  0
  -23.2990  -21.7072   18.8635 C   0  0  0  0  0  0  0  0  0  0  0  0
  -30.6896  -26.6508   19.1535 C   0  0  0  0  0  0  0  0  0  0  0  0
  -29.4154  -27.4860   19.1104 C   0  0  0  0  0  0  0  0  0  1  0  0
  -22.4770  -24.0853   23.1650 C   0  0  1  0  0  0  0  0  0  0  0  0
  -22.4420  -20.9232   21.0747 C   0  0  2  0  0  0  0  0  0  0  0  0
  -22.0246  -24.0602   24.6523 C   0  0  0  0  0  0  0  0  0  0  0  0
  -25.2284  -12.1355   20.3247 N   0  0  0  0  0  0  0  0  0  0  0  0
  -26.4145  -12.6183   19.9170 N   0  0  0  0  0  0  0  0  0  0  0  0
  -27.2952  -16.2048   20.9249 N   0  0  0  0  0  0  0  0  0  0  0  0
  -22.8151  -26.1538   21.8494 N   0  0  0  0  0  0  0  0  0  0  0  0
  -28.5919  -11.9649   19.2517 N   0  0  0  0  0  0  0  0  0  0  0  0
  -26.5457   -8.0346   20.1244 N   0  0  0  0  0  0  0  0  0  0  0  0
  -21.4389  -29.4136   22.3077 N   0  0  0  0  0  0  0  0  0  0  0  0
  -22.1174  -22.8894   22.4108 N   0  0  0  0  0  0  0  0  0  0  0  0
  -23.2125  -20.5932   19.8425 N   0  3  0  0  0  0  0  0  0  0  0  0
  -28.5152   -9.0003   19.4557 O   0  0  0  0  0  0  0  0  0  0  0  0
  -29.5318  -16.1646   21.5681 O   0  0  0  0  0  0  0  0  0  0  0  0
  -23.3489  -28.3911   23.1614 O   0  0  0  0  0  0  0  0  0  0  0  0
  -20.6707  -25.3602   22.3055 O   0  0  0  0  0  0  0  0  0  0  0  0
  -24.2783  -22.3202   21.7914 O   0  0  0  0  0  0  0  0  0  0  0  0
  -21.2903   -7.3692   21.8487 O   0  0  0  0  0  0  0  0  0  0  0  0
  -28.6798  -27.3013   20.3191 O   0  0  0  0  0  0  0  0  0  1  0  0
  -22.5201   -3.2492   25.3008 F   0  0  0  0  0  0  0  0  0  0  0  0
  -20.0499   -7.1638   24.3108 F   0  0  0  0  0  0  0  0  0  0  0  0
  1  2  1  0  0  0  0
  1  5  2  0  0  0  0
  2  6  2  0  0  0  0
  3  8  2  0  0  0  0
  3 17  1  0  0  0  0
  4  9  1  0  0  0  0
  4 17  2  0  0  0  0
  5 21  1  0  0  0  0
  6 23  1  0  0  0  0
  7 10  2  0  0  0  0
  7 22  1  0  0  0  0
  8 27  1  0  0  0  0
  9 27  2  0  0  0  0
 10 28  1  0  0  0  0
 11 12  2  0  0  0  0
 11 29  1  0  0  0  0
 12 30  1  0  0  0  0
 13 18  1  0  0  0  0
 13 25  2  0  0  0  0
 14 18  2  0  0  0  0
 14 26  1  0  0  0  0
 15 24  1  0  0  0  0
 15 28  2  0  0  0  0
 16 30  2  0  0  0  0
 16 31  1  0  0  0  0
 17 32  1  0  0  0  0
 18 34  1  0  0  0  0
 19 25  1  0  0  0  0
 19 26  2  0  0  0  0
 19 35  1  0  0  0  0
 20 32  1  0  0  0  0
 20 33  2  0  0  0  0
 20 38  1  0  0  0  0
 21 23  2  0  0  0  0
 21 43  1  0  0  0  0
 22 24  2  0  0  0  0
 22 44  1  0  0  0  0
 23 52  1  0  0  0  0
 24 45  1  0  0  0  0
 25 55  1  0  0  0  0
 26 56  1  0  0  0  0
 27 81  1  0  0  0  0
 28 82  1  0  0  0  0
 29 31  2  0  0  0  0
 29 81  1  0  0  0  0
 30 83  1  0  0  0  0
 31 84  1  0  0  0  0
 32 67  2  0  0  0  0
 33 68  1  0  0  0  0
 33 71  1  0  0  0  0
 34 36  2  0  0  0  0
 35 37  2  0  0  0  0
 36 39  1  0  0  0  0
 37 62  1  0  0  0  0
 38 72  1  0  0  0  0
 38 76  2  0  0  0  0
 39 69  1  0  0  0  0
 39 77  2  0  0  0  0
 40 53  1  0  0  0  0
 40 73  1  0  0  0  0
 40 78  2  0  0  0  0
 41 64  1  0  0  0  0
 41 70  1  0  0  0  0
 41 79  2  0  0  0  0
 42 65  1  0  0  0  0
 42 74  1  0  0  0  0
 42 80  2  0  0  0  0
 43 46  1  0  0  0  0
 44 53  1  0  0  0  0
 45 70  1  0  0  0  0
 46 48  1  0  0  0  0
 47 49  1  0  0  0  0
 47 50  1  0  0  0  0
 48 52  1  0  0  0  0
 49 54  1  0  0  0  0
 50 69  1  0  0  0  0
 51 54  1  0  0  0  0
 51 69  1  0  0  0  0
 52 73  1  0  0  0  0
 53 70  1  0  0  0  0
 54 68  1  0  0  0  0
 57 65  1  0  0  0  0
 58 66  1  0  0  0  0
 59 66  1  0  0  0  0
 60 66  1  0  0  0  0
 61 75  1  0  0  0  0
 62 63  1  0  0  0  0
 63 82  1  0  0  0  0
 64 66  1  0  0  0  0
 64 74  1  0  0  0  0
 65 75  1  0  0  0  0
 67 68  1  0  0  0  0
M  CHG  1  75   1
M  ISO  4  36 100  39 100  63 101  82 101
M  END
> <Batch ID>
0128

> <Smiles>
CNC(C)C(=O)NC(C(=O)N1Cc2cc([101O:1][101CH2:1]CC=Cc3c(C)cc(C=[100CH:0][100C:0](=O)N4CCCC(n5nc(-c6ccc(Oc7ccc(F)cc7F)cc6)c(C(N)=O)c5N)C4)cc3C)ccc2CC1C(=O)NC1CCCc2ccccc21)C(C)(C)C

> <Shape>
0.262

> <Color>
0.128

> <Negative vol penalty>
0.000

$$$$

  -OEChem-04052302163D

 81 89  0     1  0  0  0  0  0999 V2000
  -29.2953  -36.9862   20.5713 C   0  0  0  0  0  0  0  0  0  0  0  0
  -29.5226  -35.6421   20.2934 C   0  0  0  0  0  0  0  0  0  0  0  0
  -22.2208  -10.4568   22.1253 C   0  0  0  0  0  0  0  0  0  0  0  0
  -24.2724   -9.2319   22.4823 C   0  0  0  0  0  0  0  0  0  0  0  0
  -28.4037  -37.3471   21.5805 C   0  0  0  0  0  0  0  0  0  0  0  0
  -28.8590  -34.6581   21.0254 C   0  0  0  0  0  0  0  0  0  0  0  0
  -26.8994  -29.2326   18.9688 C   0  0  0  0  0  0  0  0  0  0  0  0
  -21.5823   -9.2766   21.7449 C   0  0  0  0  0  0  0  0  0  0  0  0
  -23.6338   -8.0515   22.1020 C   0  0  0  0  0  0  0  0  0  0  0  0
  -27.4406  -27.9499   19.0438 C   0  0  0  0  0  0  0  0  0  0  0  0
  -21.5255   -5.8037   23.4886 C   0  0  0  0  0  0  0  0  0  0  0  0
  -21.7408   -4.6705   24.2728 C   0  0  0  0  0  0  0  0  0  0  0  0
  -26.0852  -27.4982   20.9875 C   0  0  0  0  0  0  0  0  0  0  0  0
  -28.2371  -22.4141   21.2528 C   0  0  0  0  0  0  0  0  0  0  0  0
  -22.6642   -3.5213   22.3587 C   0  0  0  0  0  0  0  0  0  0  0  0
  -28.7375  -22.4809   19.0799 C   0  0  0  0  0  0  0  0  0  0  0  0
  -23.5659  -10.4345   22.4940 C   0  0  0  0  0  0  0  0  0  0  0  0
  -24.3204  -12.1893   24.1849 C   0  0  0  0  0  0  0  0  0  0  0  0
  -27.7216  -36.3672   22.3188 C   0  0  0  0  0  0  0  0  0  0  0  0
  -25.9535  -29.6622   19.9106 C   0  0  0  0  0  0  0  0  0  0  0  0
  -27.9584  -35.0062   22.0464 C   0  0  0  0  0  0  0  0  0  0  0  0
  -25.5316  -28.7859   20.9207 C   0  0  0  0  0  0  0  0  0  0  0  0
  -28.8766  -23.1853   20.2531 C   0  0  0  0  0  0  0  0  0  0  0  0
  -22.2887   -8.0739   21.7333 C   0  0  0  0  0  0  0  0  0  0  0  0
  -27.0357  -27.0835   20.0549 C   0  0  0  0  0  0  0  0  0  0  0  0
  -21.8795   -5.7958   22.1394 C   0  0  0  0  0  0  0  0  0  0  0  0
  -22.3102   -3.5293   23.7079 C   0  0  0  0  0  0  0  0  0  0  0  0
  -22.4489   -4.6546   21.5745 C   0  0  0  0  0  0  0  0  0  0  0  0
  -24.2263  -11.6536   22.8865 C   0  0  0  0  0  0  0  0  0  0  0  0
  -27.7525  -21.2935   20.6192 C   0  0  0  0  0  0  0  0  0  0  0  0
  -25.0408  -13.3480   24.0268 C   0  0  0  0  0  0  0  0  0  0  0  0
  -32.0427  -24.6540   20.9231 C   0  0  0  0  0  0  0  0  0  0  0  0
  -27.0360  -20.2222   21.2008 C   0  0  0  0  0  0  0  0  0  0  0  0
  -26.5747  -19.0966   20.5619 C   0  0  0  0  0  0  0  0  0  0  0  0
  -31.0391  -24.4353   20.0652 C   0  0  0  0  0  0  0  0  0  0  0  0
  -23.8031  -11.6846   25.4232 C   0  0  0  0  0  0  0  0  0  0  0  0
  -25.8466  -18.0554   21.3145 C   0  0  0  0  0  0  0  0  0  0  0  0
  -25.8482  -31.9734   22.0903 C   0  0  0  0  0  0  0  0  0  0  0  0
  -22.7837  -30.9692   22.4409 C   0  0  0  0  0  0  0  0  0  0  0  0
  -20.5030  -28.4530   22.1037 C   0  0  0  0  0  0  0  0  0  0  0  0
  -26.8030  -36.8052   23.4319 C   0  0  0  0  0  0  0  0  0  0  0  0
  -25.3595  -31.0397   19.8001 C   0  0  0  0  0  0  0  0  0  0  0  0
  -24.5040  -29.1917   21.9443 C   0  0  0  0  0  0  0  0  0  0  0  0
  -25.8574  -35.7060   23.9094 C   0  0  0  0  0  0  0  0  0  0  0  0
  -27.6461  -15.1090   20.0846 C   0  0  0  0  0  0  0  0  0  0  0  0
  -26.6180  -34.3999   24.1155 C   0  0  0  0  0  0  0  0  0  0  0  0
  -26.8831  -13.9864   20.7825 C   0  0  0  0  0  0  0  0  0  0  0  0
  -26.7327  -16.2761   19.7128 C   0  0  0  0  0  0  0  0  0  0  0  0
  -25.1926  -15.6926   21.5642 C   0  0  0  0  0  0  0  0  0  0  0  0
  -27.2390  -33.9100   22.8019 C   0  0  1  0  0  0  0  0  0  0  0  0
  -24.7841  -31.5498   21.1177 C   0  0  1  0  0  0  0  0  0  0  0  0
  -26.1008  -14.5283   21.9894 C   0  0  1  0  0  0  0  0  0  0  0  0
  -18.0849  -27.9186   22.5099 C   0  0  0  0  0  0  0  0  0  0  0  0
  -23.3508  -30.6830   25.4252 C   0  0  0  0  0  0  0  0  0  0  0  0
  -21.2833  -29.2836   25.6130 C   0  0  0  0  0  0  0  0  0  0  0  0
  -21.1154  -31.6613   24.8773 C   0  0  0  0  0  0  0  0  0  0  0  0
  -20.0101  -27.9546   19.2284 C   0  0  0  0  0  0  0  0  0  0  0  0
  -28.8960  -25.6576   19.6524 C   0  0  0  0  0  0  0  0  0  1  0  0
  -29.5777  -24.5247   20.4368 C   0  0  1  0  0  0  0  0  0  0  0  0
  -22.0871  -29.9413   23.2994 C   0  0  1  0  0  0  0  0  0  0  0  0
  -19.1070  -28.4320   21.5077 C   0  0  2  0  0  0  0  0  0  0  0  0
  -21.9800  -30.3850   24.7857 C   0  0  0  0  0  0  0  0  0  0  0  0
  -24.8378  -12.4099   21.9710 N   0  0  0  0  0  0  0  0  0  0  0  0
  -25.3230  -13.4327   22.6952 N   0  0  0  0  0  0  0  0  0  0  0  0
  -25.9521  -16.7385   20.8702 N   0  0  0  0  0  0  0  0  0  0  0  0
  -23.9573  -30.5508   21.7978 N   0  0  0  0  0  0  0  0  0  0  0  0
  -25.4539  -14.2925   24.8984 N   0  0  0  0  0  0  0  0  0  0  0  0
  -23.0861  -10.4805   25.4065 N   0  0  0  0  0  0  0  0  0  0  0  0
  -26.2312  -33.2952   21.9648 N   0  0  0  0  0  0  0  0  0  0  0  0
  -20.8023  -29.6786   22.6602 N   0  0  0  0  0  0  0  0  0  0  0  0
  -19.0701  -27.5516   20.3058 N   0  3  0  0  0  0  0  0  0  0  0  0
  -23.9575  -12.2922   26.5097 O   0  0  0  0  0  0  0  0  0  0  0  0
  -25.1844  -18.4163   22.2891 O   0  0  0  0  0  0  0  0  0  0  0  0
  -26.2881  -31.1616   22.8960 O   0  0  0  0  0  0  0  0  0  0  0  0
  -22.3004  -32.0995   22.3386 O   0  0  0  0  0  0  0  0  0  0  0  0
  -21.2515  -27.4784   22.0814 O   0  0  0  0  0  0  0  0  0  0  0  0
  -28.0533  -21.3266   19.2944 O   0  0  0  0  0  0  0  0  0  0  0  0
  -21.6659   -6.9219   21.3624 O   0  0  0  0  0  0  0  0  0  0  0  0
  -27.5628  -25.8312   20.1308 O   0  0  0  0  0  0  0  0  0  1  0  0
  -22.5183   -2.4416   24.4614 F   0  0  0  0  0  0  0  0  0  0  0  0
  -22.7922   -4.6414   20.2792 F   0  0  0  0  0  0  0  0  0  0  0  0
  1  2  1  0  0  0  0
  1  5  2  0  0  0  0
  2  6  2  0  0  0  0
  3  8  2  0  0  0  0
  3 17  1  0  0  0  0
  4  9  1  0  0  0  0
  4 17  2  0  0  0  0
  5 19  1  0  0  0  0
  6 21  1  0  0  0  0
  7 10  2  0  0  0  0
  7 20  1  0  0  0  0
  8 24  1  0  0  0  0
  9 24  2  0  0  0  0
 10 25  1  0  0  0  0
 11 12  2  0  0  0  0
 11 26  1  0  0  0  0
 12 27  1  0  0  0  0
 13 22  1  0  0  0  0
 13 25  2  0  0  0  0
 14 23  1  0  0  0  0
 14 30  2  0  0  0  0
 15 27  2  0  0  0  0
 15 28  1  0  0  0  0
 16 23  2  0  0  0  0
 16 77  1  0  0  0  0
 17 29  1  0  0  0  0
 18 29  1  0  0  0  0
 18 31  2  0  0  0  0
 18 36  1  0  0  0  0
 19 21  2  0  0  0  0
 19 41  1  0  0  0  0
 20 22  2  0  0  0  0
 20 42  1  0  0  0  0
 21 50  1  0  0  0  0
 22 43  1  0  0  0  0
 23 59  1  0  0  0  0
 24 78  1  0  0  0  0
 25 79  1  0  0  0  0
 26 28  2  0  0  0  0
 26 78  1  0  0  0  0
 27 80  1  0  0  0  0
 28 81  1  0  0  0  0
 29 63  2  0  0  0  0
 30 33  1  0  0  0  0
 30 77  1  0  0  0  0
 31 64  1  0  0  0  0
 31 67  1  0  0  0  0
 32 35  2  0  0  0  0
 33 34  2  0  0  0  0
 34 37  1  0  0  0  0
 35 59  1  0  0  0  0
 36 68  1  0  0  0  0
 36 72  2  0  0  0  0
 37 65  1  0  0  0  0
 37 73  2  0  0  0  0
 38 51  1  0  0  0  0
 38 69  1  0  0  0  0
 38 74  2  0  0  0  0
 39 60  1  0  0  0  0
 39 66  1  0  0  0  0
 39 75  2  0  0  0  0
 40 61  1  0  0  0  0
 40 70  1  0  0  0  0
 40 76  2  0  0  0  0
 41 44  1  0  0  0  0
 42 51  1  0  0  0  0
 43 66  1  0  0  0  0
 44 46  1  0  0  0  0
 45 47  1  0  0  0  0
 45 48  1  0  0  0  0
 46 50  1  0  0  0  0
 47 52  1  0  0  0  0
 48 65  1  0  0  0  0
 49 52  1  0  0  0  0
 49 65  1  0  0  0  0
 50 69  1  0  0  0  0
 51 66  1  0  0  0  0
 52 64  1  0  0  0  0
 53 61  1  0  0  0  0
 54 62  1  0  0  0  0
 55 62  1  0  0  0  0
 56 62  1  0  0  0  0
 57 71  1  0  0  0  0
 58 59  1  0  0  0  0
 58 79  1  0  0  0  0
 60 62  1  0  0  0  0
 60 70  1  0  0  0  0
 61 71  1  0  0  0  0
 63 64  1  0  0  0  0
M  CHG  1  71   1
M  ISO  4  34 100  37 100  58 101  79 101
M  END
> <Batch ID>
0128

> <Smiles>
C=CC(c1coc(C=[100CH:0][100C:0](=O)N2CCCC(n3nc(-c4ccc(Oc5ccc(F)cc5F)cc4)c(C(N)=O)c3N)C2)c1)[101CH2:1][101O:1]c1ccc2c(c1)CN(C(=O)C(NC(=O)C(C)NC)C(C)(C)C)C(C(=O)NC1CCCc3ccccc31)C2

> <Shape>
0.276

> <Color>
0.087

> <Negative vol penalty>
0.000

$$$$

  -OEChem-04052302163D

 86 94  0     1  0  0  0  0  0999 V2000
  -26.9606  -34.4928   25.1259 C   0  0  0  0  0  0  0  0  0  0  0  0
  -27.3431  -33.2644   24.5966 C   0  0  0  0  0  0  0  0  0  0  0  0
  -23.9864   -9.2150   20.2926 C   0  0  0  0  0  0  0  0  0  0  0  0
  -23.0535  -11.1877   21.3295 C   0  0  0  0  0  0  0  0  0  0  0  0
  -25.6493  -34.6863   25.5585 C   0  0  0  0  0  0  0  0  0  0  0  0
  -26.4147  -32.2284   24.5007 C   0  0  0  0  0  0  0  0  0  0  0  0
  -26.6081  -29.8543   20.0317 C   0  0  0  0  0  0  0  0  0  0  0  0
  -22.9527   -8.4455   20.8263 C   0  0  0  0  0  0  0  0  0  0  0  0
  -22.0197  -10.4182   21.8632 C   0  0  0  0  0  0  0  0  0  0  0  0
  -27.6407  -28.9369   19.8423 C   0  0  0  0  0  0  0  0  0  0  0  0
  -19.7022   -7.8191   20.1374 C   0  0  0  0  0  0  0  0  0  0  0  0
  -19.0779   -6.8987   19.2955 C   0  0  0  0  0  0  0  0  0  0  0  0
  -26.1149  -27.1302   20.3186 C   0  0  0  0  0  0  0  0  0  0  0  0
  -30.6901  -18.5798   20.9083 C   0  0  0  0  0  0  0  0  0  0  0  0
  -29.0302  -18.5632   19.1530 C   0  0  0  0  0  0  0  0  0  0  0  0
  -19.7326   -5.1030   20.7734 C   0  0  0  0  0  0  0  0  0  0  0  0
  -24.0369  -10.5861   20.5442 C   0  0  0  0  0  0  0  0  0  0  0  0
  -30.0143  -20.6515   19.8653 C   0  0  0  0  0  0  0  0  0  0  0  0
  -25.1190  -12.0417   18.7504 C   0  0  0  0  0  0  0  0  0  0  0  0
  -24.7020  -33.6552   25.4588 C   0  0  0  0  0  0  0  0  0  0  0  0
  -25.3215  -29.4164   20.3773 C   0  0  0  0  0  0  0  0  0  0  0  0
  -25.0899  -32.4078   24.9336 C   0  0  0  0  0  0  0  0  0  0  0  0
  -25.0671  -28.0438   20.5093 C   0  0  0  0  0  0  0  0  0  0  0  0
  -30.7929  -19.9665   20.7981 C   0  0  0  0  0  0  0  0  0  0  0  0
  -29.8088  -17.8781   20.0858 C   0  0  0  0  0  0  0  0  0  0  0  0
  -21.9693   -9.0471   21.6116 C   0  0  0  0  0  0  0  0  0  0  0  0
  -27.3949  -27.5748   19.9885 C   0  0  0  0  0  0  0  0  0  0  0  0
  -20.3417   -7.3815   21.2972 C   0  0  0  0  0  0  0  0  0  0  0  0
  -29.1329  -19.9499   19.0427 C   0  0  0  0  0  0  0  0  0  0  0  0
  -19.0931   -5.5406   19.6135 C   0  0  0  0  0  0  0  0  0  0  0  0
  -20.3569   -6.0234   21.6152 C   0  0  0  0  0  0  0  0  0  0  0  0
  -25.1048  -11.3813   19.9936 C   0  0  0  0  0  0  0  0  0  0  0  0
  -26.3488  -12.6512   18.6994 C   0  0  0  0  0  0  0  0  0  0  0  0
  -30.1188  -22.1164   19.7443 C   0  0  0  0  0  0  0  0  0  0  0  0
  -29.0979  -22.9687   19.9116 C   0  0  0  0  0  0  0  0  0  0  0  0
  -24.1106  -12.0992   17.7328 C   0  0  0  0  0  0  0  0  0  0  0  0
  -29.3069  -24.4377   19.7572 C   0  0  0  0  0  0  0  0  0  0  0  0
  -23.3980  -29.8519   22.8701 C   0  0  0  0  0  0  0  0  0  0  0  0
  -21.2818  -28.2258   21.0263 C   0  0  0  0  0  0  0  0  0  0  0  0
  -20.7585  -26.0183   18.4768 C   0  0  0  0  0  0  0  0  0  0  0  0
  -30.4072  -15.6373   21.0691 C   0  0  0  0  0  0  0  0  0  0  0  0
  -23.3086  -33.8965   25.9832 C   0  0  0  0  0  0  0  0  0  0  0  0
  -24.2122  -30.4170   20.5520 C   0  0  0  0  0  0  0  0  0  0  0  0
  -23.6986  -27.5211   20.8594 C   0  0  0  0  0  0  0  0  0  0  0  0
  -22.2896  -32.8672   25.5009 C   0  0  0  0  0  0  0  0  0  0  0  0
  -30.4099  -12.1288   21.6754 C   0  0  0  0  0  0  0  0  0  0  0  0
  -22.8473  -31.4550   25.6467 C   0  0  0  0  0  0  0  0  0  0  0  0
  -29.0311  -11.6759   21.1896 C   0  0  0  0  0  0  0  0  0  0  0  0
  -30.3537  -13.5029   22.3405 C   0  0  0  0  0  0  0  0  0  0  0  0
  -28.3425  -14.1036   21.0507 C   0  0  0  0  0  0  0  0  0  0  0  0
  -24.1054  -31.2675   24.7902 C   0  0  1  0  0  0  0  0  0  0  0  0
  -23.0625  -29.8915   21.4061 C   0  0  1  0  0  0  0  0  0  0  0  0
  -28.3596  -12.7533   20.3157 C   0  0  2  0  0  0  0  0  0  0  0  0
  -31.7486  -20.6831   21.6976 C   0  0  0  0  0  0  0  0  0  0  0  0
  -28.2203  -21.4135   15.8773 C   0  0  0  0  0  0  0  0  0  0  0  0
  -18.9213  -24.8550   17.2243 C   0  0  0  0  0  0  0  0  0  0  0  0
  -20.8894  -26.3201   23.3766 C   0  0  0  0  0  0  0  0  0  0  0  0
  -19.8261  -24.6979   21.7936 C   0  0  0  0  0  0  0  0  0  0  0  0
  -18.7871  -26.9344   22.1694 C   0  0  0  0  0  0  0  0  0  0  0  0
  -21.5535  -27.2708   15.9160 C   0  0  0  0  0  0  0  0  0  0  0  0
  -28.0787  -25.2971   19.9706 C   0  0  0  0  0  0  0  0  0  1  0  0
  -28.5377  -20.2227   16.7564 C   0  0  0  0  0  0  0  0  0  0  0  0
  -20.9281  -26.7708   20.8347 C   0  0  1  0  0  0  0  0  0  0  0  0
  -19.8347  -26.0699   17.2734 C   0  0  2  0  0  0  0  0  0  0  0  0
  -20.1340  -26.1904   22.0389 C   0  0  0  0  0  0  0  0  0  0  0  0
  -26.2358  -11.5547   20.6825 N   0  0  0  0  0  0  0  0  0  0  0  0
  -26.9723  -12.3310   19.8694 N   0  0  0  0  0  0  0  0  0  0  0  0
  -22.6484  -28.5393   21.0262 N   0  0  0  0  0  0  0  0  0  0  0  0
  -29.7088  -14.4729   21.4527 N   0  0  0  0  0  0  0  0  0  0  0  0
  -26.9469  -13.4243   17.7683 N   0  0  0  0  0  0  0  0  0  0  0  0
  -22.9057  -11.4160   17.9467 N   0  0  0  0  0  0  0  0  0  0  0  0
  -29.7058  -16.4693   20.1971 N   0  0  0  0  0  0  0  0  0  0  0  0
  -23.7474  -31.0791   23.4006 N   0  0  0  0  0  0  0  0  0  0  0  0
  -20.2254  -26.6861   19.5590 N   0  0  0  0  0  0  0  0  0  0  0  0
  -20.6283  -26.1125   16.0127 N   0  3  0  0  0  0  0  0  0  0  0  0
  -24.2796  -12.7240   16.6582 O   0  0  0  0  0  0  0  0  0  0  0  0
  -30.4031  -24.9147   19.4761 O   0  0  0  0  0  0  0  0  0  0  0  0
  -23.3425  -28.7871   23.4741 O   0  0  0  0  0  0  0  0  0  0  0  0
  -20.3787  -29.0548   21.1636 O   0  0  0  0  0  0  0  0  0  0  0  0
  -21.8428  -25.4399   18.4599 O   0  0  0  0  0  0  0  0  0  0  0  0
  -31.5543  -15.8651   21.4620 O   0  0  0  0  0  0  0  0  0  0  0  0
  -20.9603   -8.2966   22.1324 O   0  0  0  0  0  0  0  0  0  0  0  0
  -28.4011  -26.6772   19.8048 O   0  0  0  0  0  0  0  0  0  1  0  0
  -28.3594  -20.5926   18.1215 O   0  0  0  0  0  0  0  0  0  0  0  0
  -18.4923   -4.6570   18.8058 F   0  0  0  0  0  0  0  0  0  0  0  0
  -20.9686   -5.5972   22.7287 F   0  0  0  0  0  0  0  0  0  0  0  0
  1  2  1  0  0  0  0
  1  5  2  0  0  0  0
  2  6  2  0  0  0  0
  3  8  2  0  0  0  0
  3 17  1  0  0  0  0
  4  9  1  0  0  0  0
  4 17  2  0  0  0  0
  5 20  1  0  0  0  0
  6 22  1  0  0  0  0
  7 10  2  0  0  0  0
  7 21  1  0  0  0  0
  8 26  1  0  0  0  0
  9 26  2  0  0  0  0
 10 27  1  0  0  0  0
 11 12  2  0  0  0  0
 11 28  1  0  0  0  0
 12 30  1  0  0  0  0
 13 23  1  0  0  0  0
 13 27  2  0  0  0  0
 14 24  2  0  0  0  0
 14 25  1  0  0  0  0
 15 25  2  0  0  0  0
 15 29  1  0  0  0  0
 16 30  2  0  0  0  0
 16 31  1  0  0  0  0
 17 32  1  0  0  0  0
 18 24  1  0  0  0  0
 18 29  2  0  0  0  0
 18 34  1  0  0  0  0
 19 32  1  0  0  0  0
 19 33  2  0  0  0  0
 19 36  1  0  0  0  0
 20 22  2  0  0  0  0
 20 42  1  0  0  0  0
 21 23  2  0  0  0  0
 21 43  1  0  0  0  0
 22 51  1  0  0  0  0
 23 44  1  0  0  0  0
 24 54  1  0  0  0  0
 25 72  1  0  0  0  0
 26 82  1  0  0  0  0
 27 83  1  0  0  0  0
 28 31  2  0  0  0  0
 28 82  1  0  0  0  0
 29 84  1  0  0  0  0
 30 85  1  0  0  0  0
 31 86  1  0  0  0  0
 32 66  2  0  0  0  0
 33 67  1  0  0  0  0
 33 70  1  0  0  0  0
 34 35  2  0  0  0  0
 35 37  1  0  0  0  0
 36 71  1  0  0  0  0
 36 76  2  0  0  0  0
 37 61  1  0  0  0  0
 37 77  2  0  0  0  0
 38 52  1  0  0  0  0
 38 73  1  0  0  0  0
 38 78  2  0  0  0  0
 39 63  1  0  0  0  0
 39 68  1  0  0  0  0
 39 79  2  0  0  0  0
 40 64  1  0  0  0  0
 40 74  1  0  0  0  0
 40 80  2  0  0  0  0
 41 69  1  0  0  0  0
 41 72  1  0  0  0  0
 41 81  2  0  0  0  0
 42 45  1  0  0  0  0
 43 52  1  0  0  0  0
 44 68  1  0  0  0  0
 45 47  1  0  0  0  0
 46 48  1  0  0  0  0
 46 49  1  0  0  0  0
 47 51  1  0  0  0  0
 48 53  1  0  0  0  0
 49 69  1  0  0  0  0
 50 53  1  0  0  0  0
 50 69  1  0  0  0  0
 51 73  1  0  0  0  0
 52 68  1  0  0  0  0
 53 67  1  0  0  0  0
 55 62  1  0  0  0  0
 56 64  1  0  0  0  0
 57 65  1  0  0  0  0
 58 65  1  0  0  0  0
 59 65  1  0  0  0  0
 60 75  1  0  0  0  0
 61 83  1  0  0  0  0
 62 84  1  0  0  0  0
 63 65  1  0  0  0  0
 63 74  1  0  0  0  0
 64 75  1  0  0  0  0
 66 67  1  0  0  0  0
M  CHG  1  75   1
M  ISO  4  41 100  61 101  72 100  83 101
M  END
> <Batch ID>
0128

> <Smiles>
CCOc1cc([100NH:0][100C:0](=O)N2CCCC(n3nc(-c4ccc(Oc5ccc(F)cc5F)cc4)c(C(N)=O)c3N)C2)cc(C)c1C=CC(=O)[101CH2:1][101O:1]c1ccc2c(c1)CN(C(=O)C(NC(=O)C(C)NC)C(C)(C)C)C(C(=O)NC1CCCc3ccccc31)C2

> <Shape>
0.314

> <Color>
0.109

> <Negative vol penalty>
0.000

$$$$

  -OEChem-04052302163D

 84 92  0     1  0  0  0  0  0999 V2000
  -27.9990  -32.5613   27.0411 C   0  0  0  0  0  0  0  0  0  0  0  0
  -28.0616  -31.4164   26.2532 C   0  0  0  0  0  0  0  0  0  0  0  0
  -26.3630  -14.5026   22.2399 C   0  0  0  0  0  0  0  0  0  0  0  0
  -26.9773  -13.0225   20.4319 C   0  0  0  0  0  0  0  0  0  0  0  0
  -26.7680  -33.1645   27.2956 C   0  0  0  0  0  0  0  0  0  0  0  0
  -26.8930  -30.8734   25.7203 C   0  0  0  0  0  0  0  0  0  0  0  0
  -27.3991  -29.5732   20.8522 C   0  0  0  0  0  0  0  0  0  0  0  0
  -25.6265  -13.4758   22.8303 C   0  0  0  0  0  0  0  0  0  0  0  0
  -26.2408  -11.9956   21.0224 C   0  0  0  0  0  0  0  0  0  0  0  0
  -28.0693  -28.3819   20.5777 C   0  0  0  0  0  0  0  0  0  0  0  0
  -22.9954  -11.0798   21.2669 C   0  0  0  0  0  0  0  0  0  0  0  0
  -22.1663  -10.3199   20.4419 C   0  0  0  0  0  0  0  0  0  0  0  0
  -30.9990  -20.3565   16.4588 C   0  0  0  0  0  0  0  0  0  0  0  0
  -33.2950  -20.3410   17.2107 C   0  0  0  0  0  0  0  0  0  0  0  0
  -32.5214  -18.6607   15.6566 C   0  0  0  0  0  0  0  0  0  0  0  0
  -25.9515  -27.2681   20.2717 C   0  0  0  0  0  0  0  0  0  0  0  0
  -23.3966   -8.3284   21.0400 C   0  0  0  0  0  0  0  0  0  0  0  0
  -27.0384  -14.2760   21.0406 C   0  0  0  0  0  0  0  0  0  0  0  0
  -32.0222  -20.9114   17.2275 C   0  0  0  0  0  0  0  0  0  0  0  0
  -31.2486  -19.2311   15.6734 C   0  0  0  0  0  0  0  0  0  0  0  0
  -29.1570  -15.6401   20.6426 C   0  0  0  0  0  0  0  0  0  0  0  0
  -25.5848  -32.6342   26.7575 C   0  0  0  0  0  0  0  0  0  0  0  0
  -25.9975  -29.6184   20.8492 C   0  0  0  0  0  0  0  0  0  0  0  0
  -25.6449  -31.4693   25.9689 C   0  0  0  0  0  0  0  0  0  0  0  0
  -25.2660  -28.4618   20.5440 C   0  0  0  0  0  0  0  0  0  0  0  0
  -33.5446  -19.2156   16.4252 C   0  0  0  0  0  0  0  0  0  0  0  0
  -25.5654  -12.2222   22.2216 C   0  0  0  0  0  0  0  0  0  0  0  0
  -27.3454  -27.2284   20.2903 C   0  0  0  0  0  0  0  0  0  0  0  0
  -24.0252  -10.4641   21.9784 C   0  0  0  0  0  0  0  0  0  0  0  0
  -22.3668   -8.9442   20.3285 C   0  0  0  0  0  0  0  0  0  0  0  0
  -24.2257   -9.0884   21.8650 C   0  0  0  0  0  0  0  0  0  0  0  0
  -27.7989  -15.3365   20.4299 C   0  0  0  0  0  0  0  0  0  0  0  0
  -29.3970  -16.7248   19.8349 C   0  0  0  0  0  0  0  0  0  0  0  0
  -31.7580  -22.0997   18.0574 C   0  0  0  0  0  0  0  0  0  0  0  0
  -30.7335  -22.9494   17.8815 C   0  0  0  0  0  0  0  0  0  0  0  0
  -30.5248  -24.1082   18.7224 C   0  0  0  0  0  0  0  0  0  0  0  0
  -29.5046  -24.9627   18.5548 C   0  0  0  0  0  0  0  0  0  0  0  0
  -30.1816  -18.6520   14.8725 C   0  0  0  0  0  0  0  0  0  0  0  0
  -30.1159  -14.9988   21.4940 C   0  0  0  0  0  0  0  0  0  0  0  0
  -28.8191  -19.2323   14.8681 C   0  0  0  0  0  0  0  0  0  0  0  0
  -23.7694  -30.2633   23.0226 C   0  0  0  0  0  0  0  0  0  0  0  0
  -21.7708  -30.0137   20.4798 C   0  0  0  0  0  0  0  0  0  0  0  0
  -21.1955  -28.7572   17.3594 C   0  0  0  0  0  0  0  0  0  0  0  0
  -24.2724  -33.2940   27.0993 C   0  0  0  0  0  0  0  0  0  0  0  0
  -25.2901  -30.9177   21.1211 C   0  0  0  0  0  0  0  0  0  0  0  0
  -23.7602  -28.4623   20.5081 C   0  0  0  0  0  0  0  0  0  0  0  0
  -23.1227  -32.8711   26.1885 C   0  0  0  0  0  0  0  0  0  0  0  0
  -26.2220  -19.7173   17.2922 C   0  0  0  0  0  0  0  0  0  0  0  0
  -23.1090  -31.3557   26.0147 C   0  0  0  0  0  0  0  0  0  0  0  0
  -26.4904  -18.6199   18.3215 C   0  0  0  0  0  0  0  0  0  0  0  0
  -26.5737  -19.2573   15.8812 C   0  0  0  0  0  0  0  0  0  0  0  0
  -28.2522  -17.6633   16.7703 C   0  0  0  0  0  0  0  0  0  0  0  0
  -24.4021  -30.8647   25.3526 C   0  0  1  0  0  0  0  0  0  0  0  0
  -23.8528  -30.7274   21.5959 C   0  0  1  0  0  0  0  0  0  0  0  0
  -27.9349  -18.1006   18.2110 C   0  0  2  0  0  0  0  0  0  0  0  0
  -34.9056  -18.6056   16.4074 C   0  0  0  0  0  0  0  0  0  0  0  0
  -19.4562  -28.6928   15.5516 C   0  0  0  0  0  0  0  0  0  0  0  0
  -20.1669  -27.9848   22.0987 C   0  0  0  0  0  0  0  0  0  0  0  0
  -19.0558  -27.2706   19.9719 C   0  0  0  0  0  0  0  0  0  0  0  0
  -18.7817  -29.6091   20.7958 C   0  0  0  0  0  0  0  0  0  0  0  0
  -22.9948  -30.0844   15.4204 C   0  0  0  0  0  0  0  0  0  0  0  0
  -29.2840  -26.1651   19.4144 C   0  0  0  0  0  0  0  0  0  1  0  0
  -21.0038  -28.8878   19.8293 C   0  0  1  0  0  0  0  0  0  0  0  0
  -20.6841  -29.4115   16.0886 C   0  0  2  0  0  0  0  0  0  0  0  0
  -19.7804  -28.4373   20.6764 C   0  0  0  0  0  0  0  0  0  0  0  0
  -27.2168  -16.1619   19.5558 N   0  0  0  0  0  0  0  0  0  0  0  0
  -30.3444  -17.6019   14.1138 N   0  0  0  0  0  0  0  0  0  0  0  0
  -28.2140  -16.9948   19.2121 N   0  0  0  0  0  0  0  0  0  0  0  0
  -27.9382  -18.7373   15.8195 N   0  0  0  0  0  0  0  0  0  0  0  0
  -23.1143  -29.7556   20.7870 N   0  0  0  0  0  0  0  0  0  0  0  0
  -30.5023  -17.4645   19.6039 N   0  0  0  0  0  0  0  0  0  0  0  0
  -29.7020  -13.8976   22.2558 N   0  0  0  0  0  0  0  0  0  0  0  0
  -24.3684  -31.1181   23.9281 N   0  0  0  0  0  0  0  0  0  0  0  0
  -20.6645  -29.3473   18.4869 N   0  0  0  0  0  0  0  0  0  0  0  0
  -21.7383  -29.3916   15.0354 N   0  3  0  0  0  0  0  0  0  0  0  0
  -31.3004  -15.4008   21.5891 O   0  0  0  0  0  0  0  0  0  0  0  0
  -28.6145  -20.0912   14.0203 O   0  0  0  0  0  0  0  0  0  0  0  0
  -23.2024  -29.2086   23.2827 O   0  0  0  0  0  0  0  0  0  0  0  0
  -21.2010  -31.0852   20.7006 O   0  0  0  0  0  0  0  0  0  0  0  0
  -21.9839  -27.8145   17.3525 O   0  0  0  0  0  0  0  0  0  0  0  0
  -24.8470  -11.2199   22.7976 O   0  0  0  0  0  0  0  0  0  0  0  0
  -27.9971  -26.0641   20.0226 O   0  0  0  0  0  0  0  0  0  1  0  0
  -21.5696   -8.2142   19.5374 F   0  0  0  0  0  0  0  0  0  0  0  0
  -25.2126   -8.4911   22.5470 F   0  0  0  0  0  0  0  0  0  0  0  0
  1  2  1  0  0  0  0
  1  5  2  0  0  0  0
  2  6  2  0  0  0  0
  3  8  2  0  0  0  0
  3 18  1  0  0  0  0
  4  9  1  0  0  0  0
  4 18  2  0  0  0  0
  5 22  1  0  0  0  0
  6 24  1  0  0  0  0
  7 10  2  0  0  0  0
  7 23  1  0  0  0  0
  8 27  1  0  0  0  0
  9 27  2  0  0  0  0
 10 28  1  0  0  0  0
 11 12  2  0  0  0  0
 11 29  1  0  0  0  0
 12 30  1  0  0  0  0
 13 19  2  0  0  0  0
 13 20  1  0  0  0  0
 14 19  1  0  0  0  0
 14 26  2  0  0  0  0
 15 20  2  0  0  0  0
 15 26  1  0  0  0  0
 16 25  1  0  0  0  0
 16 28  2  0  0  0  0
 17 30  2  0  0  0  0
 17 31  1  0  0  0  0
 18 32  1  0  0  0  0
 19 34  1  0  0  0  0
 20 38  1  0  0  0  0
 21 32  1  0  0  0  0
 21 33  2  0  0  0  0
 21 39  1  0  0  0  0
 22 24  2  0  0  0  0
 22 44  1  0  0  0  0
 23 25  2  0  0  0  0
 23 45  1  0  0  0  0
 24 53  1  0  0  0  0
 25 46  1  0  0  0  0
 26 56  1  0  0  0  0
 27 81  1  0  0  0  0
 28 82  1  0  0  0  0
 29 31  2  0  0  0  0
 29 81  1  0  0  0  0
 30 83  1  0  0  0  0
 31 84  1  0  0  0  0
 32 66  2  0  0  0  0
 33 68  1  0  0  0  0
 33 71  1  0  0  0  0
 34 35  2  0  0  0  0
 35 36  1  0  0  0  0
 36 37  2  0  0  0  0
 37 62  1  0  0  0  0
 38 40  1  0  0  0  0
 38 67  2  0  0  0  0
 39 72  1  0  0  0  0
 39 76  2  0  0  0  0
 40 69  1  0  0  0  0
 40 77  2  0  0  0  0
 41 54  1  0  0  0  0
 41 73  1  0  0  0  0
 41 78  2  0  0  0  0
 42 63  1  0  0  0  0
 42 70  1  0  0  0  0
 42 79  2  0  0  0  0
 43 64  1  0  0  0  0
 43 74  1  0  0  0  0
 43 80  2  0  0  0  0
 44 47  1  0  0  0  0
 45 54  1  0  0  0  0
 46 70  1  0  0  0  0
 47 49  1  0  0  0  0
 48 50  1  0  0  0  0
 48 51  1  0  0  0  0
 49 53  1  0  0  0  0
 50 55  1  0  0  0  0
 51 69  1  0  0  0  0
 52 55  1  0  0  0  0
 52 69  1  0  0  0  0
 53 73  1  0  0  0  0
 54 70  1  0  0  0  0
 55 68  1  0  0  0  0
 57 64  1  0  0  0  0
 58 65  1  0  0  0  0
 59 65  1  0  0  0  0
 60 65  1  0  0  0  0
 61 75  1  0  0  0  0
 62 82  1  0  0  0  0
 63 65  1  0  0  0  0
 63 74  1  0  0  0  0
 64 75  1  0  0  0  0
 66 68  1  0  0  0  0
M  CHG  1  75   1
M  ISO  4  38 100  40 100  62 101  82 101
M  END
> <Batch ID>
0128

> <Smiles>
CNC(C)C(=O)NC(C(=O)N1Cc2cc([101O:1][101CH2:1]C=CC=Cc3cc(C)cc([100C:0](=N)[100C:0](=O)N4CCCC(n5nc(-c6ccc(Oc7ccc(F)cc7F)cc6)c(C(N)=O)c5N)C4)c3)ccc2CC1C(=O)NC1CCCc2ccccc21)C(C)(C)C

> <Shape>
0.263

> <Color>
0.088

> <Negative vol penalty>
0.000

$$$$

  -OEChem-04052302163D

 81 89  0     1  0  0  0  0  0999 V2000
  -18.0345  -27.1486   22.7318 C   0  0  0  0  0  0  0  0  0  0  0  0
  -18.7320  -26.8531   21.5650 C   0  0  0  0  0  0  0  0  0  0  0  0
  -30.8002  -21.3965   14.3787 C   0  0  0  0  0  0  0  0  0  0  0  0
  -26.8354  -14.0888   22.9879 C   0  0  0  0  0  0  0  0  0  0  0  0
  -25.7956  -14.1488   20.8080 C   0  0  0  0  0  0  0  0  0  0  0  0
  -18.5849  -28.0212   23.6696 C   0  0  0  0  0  0  0  0  0  0  0  0
  -19.9800  -27.4309   21.3347 C   0  0  0  0  0  0  0  0  0  0  0  0
  -24.7534  -24.8681   18.4794 C   0  0  0  0  0  0  0  0  0  0  0  0
  -30.3694  -22.6582   13.9687 C   0  0  0  0  0  0  0  0  0  0  0  0
  -30.5083  -20.9439   15.6655 C   0  0  0  0  0  0  0  0  0  0  0  0
  -25.9289  -13.1093   23.3934 C   0  0  0  0  0  0  0  0  0  0  0  0
  -24.8891  -13.1692   21.2134 C   0  0  0  0  0  0  0  0  0  0  0  0
  -25.2319  -24.9723   17.1741 C   0  0  0  0  0  0  0  0  0  0  0  0
  -24.8675   -9.8151   21.6253 C   0  0  0  0  0  0  0  0  0  0  0  0
  -24.6194   -8.7604   20.7468 C   0  0  0  0  0  0  0  0  0  0  0  0
  -26.7990  -26.6609   17.8897 C   0  0  0  0  0  0  0  0  0  0  0  0
  -29.3550  -23.0148   16.1323 C   0  0  0  0  0  0  0  0  0  0  0  0
  -22.2822   -9.3685   20.6771 C   0  0  0  0  0  0  0  0  0  0  0  0
  -26.7687  -14.6086   21.6952 C   0  0  0  0  0  0  0  0  0  0  0  0
  -28.9599  -15.4200   20.6715 C   0  0  0  0  0  0  0  0  0  0  0  0
  -19.8446  -28.6025   23.4552 C   0  0  0  0  0  0  0  0  0  0  0  0
  -25.2875  -25.6687   19.4993 C   0  0  0  0  0  0  0  0  0  0  0  0
  -20.5472  -28.3132   22.2699 C   0  0  0  0  0  0  0  0  0  0  0  0
  -26.3272  -26.5631   19.2077 C   0  0  0  0  0  0  0  0  0  0  0  0
  -29.6468  -23.4674   14.8455 C   0  0  0  0  0  0  0  0  0  0  0  0
  -29.7857  -21.7531   16.5422 C   0  0  0  0  0  0  0  0  0  0  0  0
  -24.9557  -12.6495   22.5061 C   0  0  0  0  0  0  0  0  0  0  0  0
  -26.2529  -25.8708   16.8785 C   0  0  0  0  0  0  0  0  0  0  0  0
  -23.8230  -10.6464   22.0298 C   0  0  0  0  0  0  0  0  0  0  0  0
  -23.3267   -8.5371   20.2727 C   0  0  0  0  0  0  0  0  0  0  0  0
  -22.5303  -10.4231   21.5556 C   0  0  0  0  0  0  0  0  0  0  0  0
  -27.7045  -15.6208   21.2760 C   0  0  0  0  0  0  0  0  0  0  0  0
  -29.4511  -16.6868   20.4711 C   0  0  0  0  0  0  0  0  0  0  0  0
  -29.6226  -14.1975   20.3222 C   0  0  0  0  0  0  0  0  0  0  0  0
  -24.1242  -27.9008   21.4405 C   0  0  0  0  0  0  0  0  0  0  0  0
  -27.0768  -27.7281   22.7727 C   0  0  0  0  0  0  0  0  0  0  0  0
  -30.3763  -26.9349   22.4115 C   0  0  0  0  0  0  0  0  0  0  0  0
  -28.7824  -21.9693   18.8429 C   0  0  0  0  0  0  0  0  0  0  0  0
  -20.3777  -29.5767   24.4758 C   0  0  0  0  0  0  0  0  0  0  0  0
  -24.7786  -25.5252   20.9075 C   0  0  0  0  0  0  0  0  0  0  0  0
  -26.9485  -27.4307   20.2706 C   0  0  0  0  0  0  0  0  0  0  0  0
  -21.8716  -29.8547   24.3301 C   0  0  0  0  0  0  0  0  0  0  0  0
  -27.8105  -21.1631   22.1719 C   0  0  0  0  0  0  0  0  0  0  0  0
  -22.2252  -30.1214   22.8704 C   0  0  0  0  0  0  0  0  0  0  0  0
  -27.7995  -19.6328   22.1859 C   0  0  0  0  0  0  0  0  0  0  0  0
  -27.3206  -21.7217   20.8371 C   0  0  0  0  0  0  0  0  0  0  0  0
  -27.9980  -19.6624   19.6666 C   0  0  0  0  0  0  0  0  0  0  0  0
  -21.9145  -28.9008   21.9957 C   0  0  1  0  0  0  0  0  0  0  0  0
  -25.0431  -26.7577   21.7669 C   0  0  1  0  0  0  0  0  0  0  0  0
  -28.5448  -19.0528   20.9678 C   0  0  2  0  0  0  0  0  0  0  0  0
  -32.5514  -26.9373   23.6631 C   0  0  0  0  0  0  0  0  0  0  0  0
  -27.6442  -26.0666   12.8433 C   0  0  0  0  0  0  0  0  0  0  0  0
  -27.2839  -30.7496   22.4020 C   0  0  0  0  0  0  0  0  0  0  0  0
  -29.7537  -30.5546   22.7631 C   0  0  0  0  0  0  0  0  0  0  0  0
  -28.1739  -29.9024   24.5802 C   0  0  0  0  0  0  0  0  0  0  0  0
  -30.6577  -23.9995   22.1601 C   0  0  0  0  0  0  0  0  0  0  0  0
  -29.1809  -24.8327   14.4013 C   0  0  0  0  0  0  0  0  0  0  0  0
  -26.6630  -24.8025   14.7937 C   0  0  0  0  0  0  0  0  0  1  0  0
  -28.3964  -28.4239   22.5414 C   0  0  1  0  0  0  0  0  0  0  0  0
  -31.3200  -26.1287   23.2855 C   0  0  2  0  0  0  0  0  0  0  0  0
  -27.7852  -24.8345   13.7463 C   0  0  1  0  0  0  0  0  0  0  0  0
  -28.3891  -29.8928   23.0510 C   0  0  0  0  0  0  0  0  0  0  0  0
  -27.4162  -16.9135   21.4485 N   0  0  0  0  0  0  0  0  0  0  0  0
  -28.4974  -17.5364   20.9495 N   0  0  0  0  0  0  0  0  0  0  0  0
  -26.4124  -27.2583   21.6309 N   0  0  0  0  0  0  0  0  0  0  0  0
  -28.0748  -21.1304   19.7296 N   0  0  0  0  0  0  0  0  0  0  0  0
  -30.6015  -17.1458   19.9342 N   0  0  0  0  0  0  0  0  0  0  0  0
  -28.9764  -12.9847   20.5979 N   0  0  0  0  0  0  0  0  0  0  0  0
  -29.4888  -21.2927   17.8490 N   0  0  0  0  0  0  0  0  0  0  0  0
  -22.9403  -27.8921   22.1530 N   0  0  0  0  0  0  0  0  0  0  0  0
  -29.4154  -27.5822   23.1591 N   0  0  0  0  0  0  0  0  0  0  0  0
  -31.7660  -24.8997   22.5701 N   0  3  0  0  0  0  0  0  0  0  0  0
  -30.7615  -14.1807   19.7966 O   0  0  0  0  0  0  0  0  0  0  0  0
  -24.4648  -28.7303   20.6052 O   0  0  0  0  0  0  0  0  0  0  0  0
  -26.6546  -27.5996   23.9246 O   0  0  0  0  0  0  0  0  0  0  0  0
  -30.4833  -26.9882   21.1883 O   0  0  0  0  0  0  0  0  0  0  0  0
  -28.7852  -23.1961   18.9731 O   0  0  0  0  0  0  0  0  0  0  0  0
  -24.0711  -11.6935   22.9014 O   0  0  0  0  0  0  0  0  0  0  0  0
  -26.7213  -25.9749   15.6051 O   0  0  0  0  0  0  0  0  0  1  0  0
  -23.0888   -7.5253   19.4279 F   0  0  0  0  0  0  0  0  0  0  0  0
  -21.5230  -11.2192   21.9397 F   0  0  0  0  0  0  0  0  0  0  0  0
  1  2  1  0  0  0  0
  1  6  2  0  0  0  0
  2  7  2  0  0  0  0
  3  9  2  0  0  0  0
  3 10  1  0  0  0  0
  4 11  2  0  0  0  0
  4 19  1  0  0  0  0
  5 12  1  0  0  0  0
  5 19  2  0  0  0  0
  6 21  1  0  0  0  0
  7 23  1  0  0  0  0
  8 13  2  0  0  0  0
  8 22  1  0  0  0  0
  9 25  1  0  0  0  0
 10 26  2  0  0  0  0
 11 27  1  0  0  0  0
 12 27  2  0  0  0  0
 13 28  1  0  0  0  0
 14 15  2  0  0  0  0
 14 29  1  0  0  0  0
 15 30  1  0  0  0  0
 16 24  1  0  0  0  0
 16 28  2  0  0  0  0
 17 25  2  0  0  0  0
 17 26  1  0  0  0  0
 18 30  2  0  0  0  0
 18 31  1  0  0  0  0
 19 32  1  0  0  0  0
 20 32  1  0  0  0  0
 20 33  2  0  0  0  0
 20 34  1  0  0  0  0
 21 23  2  0  0  0  0
 21 39  1  0  0  0  0
 22 24  2  0  0  0  0
 22 40  1  0  0  0  0
 23 48  1  0  0  0  0
 24 41  1  0  0  0  0
 25 57  1  0  0  0  0
 26 69  1  0  0  0  0
 27 78  1  0  0  0  0
 28 79  1  0  0  0  0
 29 31  2  0  0  0  0
 29 78  1  0  0  0  0
 30 80  1  0  0  0  0
 31 81  1  0  0  0  0
 32 63  2  0  0  0  0
 33 64  1  0  0  0  0
 33 67  1  0  0  0  0
 34 68  1  0  0  0  0
 34 73  2  0  0  0  0
 35 49  1  0  0  0  0
 35 70  1  0  0  0  0
 35 74  2  0  0  0  0
 36 59  1  0  0  0  0
 36 65  1  0  0  0  0
 36 75  2  0  0  0  0
 37 60  1  0  0  0  0
 37 71  1  0  0  0  0
 37 76  2  0  0  0  0
 38 66  1  0  0  0  0
 38 69  1  0  0  0  0
 38 77  2  0  0  0  0
 39 42  1  0  0  0  0
 40 49  1  0  0  0  0
 41 65  1  0  0  0  0
 42 44  1  0  0  0  0
 43 45  1  0  0  0  0
 43 46  1  0  0  0  0
 44 48  1  0  0  0  0
 45 50  1  0  0  0  0
 46 66  1  0  0  0  0
 47 50  1  0  0  0  0
 47 66  1  0  0  0  0
 48 70  1  0  0  0  0
 49 65  1  0  0  0  0
 50 64  1  0  0  0  0
 51 60  1  0  0  0  0
 52 61  1  0  0  0  0
 53 62  1  0  0  0  0
 54 62  1  0  0  0  0
 55 62  1  0  0  0  0
 56 72  1  0  0  0  0
 57 61  1  0  0  0  0
 58 61  1  0  0  0  0
 58 79  1  0  0  0  0
 59 62  1  0  0  0  0
 59 71  1  0  0  0  0
 60 72  1  0  0  0  0
 63 64  1  0  0  0  0
M  CHG  1  72   1
M  ISO  4  38 100  58 101  69 100  79 101
M  END
> <Batch ID>
0128

> <Smiles>
CNC(C)C(=O)NC(C(=O)N1Cc2cc([101O:1][101CH2:1]C(C)Cc3cccc([100NH:0][100C:0](=O)N4CCCC(n5nc(-c6ccc(Oc7ccc(F)cc7F)cc6)c(C(N)=O)c5N)C4)c3)ccc2CC1C(=O)NC1CCCc2ccccc21)C(C)(C)C

> <Shape>
0.238

> <Color>
0.072

> <Negative vol penalty>
0.000

$$$$

  -OEChem-04052302163D

 83 91  0     1  0  0  0  0  0999 V2000
  -19.3840  -28.7232   26.8168 C   0  0  0  0  0  0  0  0  0  0  0  0
  -20.5889  -28.1586   26.4106 C   0  0  0  0  0  0  0  0  0  0  0  0
  -24.4917  -10.0571   22.9206 C   0  0  0  0  0  0  0  0  0  0  0  0
  -23.0395  -11.9203   22.4139 C   0  0  0  0  0  0  0  0  0  0  0  0
  -18.4749  -29.1827   25.8648 C   0  0  0  0  0  0  0  0  0  0  0  0
  -20.8849  -28.0522   25.0521 C   0  0  0  0  0  0  0  0  0  0  0  0
  -26.3981  -28.5610   22.4346 C   0  0  0  0  0  0  0  0  0  0  0  0
  -23.7609   -9.8032   24.0813 C   0  0  0  0  0  0  0  0  0  0  0  0
  -22.3087  -11.6664   23.5745 C   0  0  0  0  0  0  0  0  0  0  0  0
  -27.3239  -27.6110   22.0055 C   0  0  0  0  0  0  0  0  0  0  0  0
  -20.8333   -8.3275   24.9087 C   0  0  0  0  0  0  0  0  0  0  0  0
  -20.4897   -7.0035   25.1818 C   0  0  0  0  0  0  0  0  0  0  0  0
  -28.2005  -19.3126   19.4974 C   0  0  0  0  0  0  0  0  0  0  0  0
  -26.5279  -21.0550   19.4442 C   0  0  0  0  0  0  0  0  0  0  0  0
  -26.4460  -27.7763   19.7647 C   0  0  0  0  0  0  0  0  0  0  0  0
  -25.8912  -18.7571   19.0551 C   0  0  0  0  0  0  0  0  0  0  0  0
  -21.7119   -7.1156   27.2628 C   0  0  0  0  0  0  0  0  0  0  0  0
  -24.1310  -11.1157   22.0869 C   0  0  0  0  0  0  0  0  0  0  0  0
  -27.8552  -20.6593   19.6094 C   0  0  0  0  0  0  0  0  0  0  0  0
  -24.6544  -10.8495   19.6044 C   0  0  0  0  0  0  0  0  0  0  0  0
  -18.7641  -29.0908   24.4942 C   0  0  0  0  0  0  0  0  0  0  0  0
  -25.4805  -29.1187   21.5327 C   0  0  0  0  0  0  0  0  0  0  0  0
  -19.9782  -28.5098   24.0809 C   0  0  0  0  0  0  0  0  0  0  0  0
  -25.5112  -28.7351   20.1843 C   0  0  0  0  0  0  0  0  0  0  0  0
  -27.2186  -18.3614   19.2202 C   0  0  0  0  0  0  0  0  0  0  0  0
  -22.6694  -10.6078   24.4082 C   0  0  0  0  0  0  0  0  0  0  0  0
  -27.3461  -27.2164   20.6710 C   0  0  0  0  0  0  0  0  0  0  0  0
  -21.6163   -9.0455   25.8127 C   0  0  0  0  0  0  0  0  0  0  0  0
  -20.9290   -6.3975   26.3588 C   0  0  0  0  0  0  0  0  0  0  0  0
  -25.5459  -20.1039   19.1671 C   0  0  0  0  0  0  0  0  0  0  0  0
  -22.0555   -8.4396   26.9897 C   0  0  0  0  0  0  0  0  0  0  0  0
  -24.8859  -11.3789   20.8882 C   0  0  0  0  0  0  0  0  0  0  0  0
  -25.6376  -11.4041   18.8219 C   0  0  0  0  0  0  0  0  0  0  0  0
  -28.4688  -22.8821   20.6632 C   0  0  0  0  0  0  0  0  0  0  0  0
  -29.0617  -24.0679   20.4696 C   0  0  0  0  0  0  0  0  0  0  0  0
  -28.9038  -21.6757   19.9027 C   0  0  0  0  0  0  0  0  0  0  0  0
  -23.6411   -9.9381   19.1591 C   0  0  0  0  0  0  0  0  0  0  0  0
  -22.3114  -29.1491   21.2880 C   0  0  0  0  0  0  0  0  0  0  0  0
  -22.9091  -31.1974   18.8448 C   0  0  0  0  0  0  0  0  0  0  0  0
  -25.0938  -32.3245   16.4776 C   0  0  0  0  0  0  0  0  0  0  0  0
  -28.8385  -16.4323   19.2420 C   0  0  0  0  0  0  0  0  0  0  0  0
  -17.7297  -29.5581   23.5011 C   0  0  0  0  0  0  0  0  0  0  0  0
  -24.5057  -30.1619   22.0058 C   0  0  0  0  0  0  0  0  0  0  0  0
  -24.5609  -29.3186   19.1720 C   0  0  0  0  0  0  0  0  0  0  0  0
  -18.2821  -29.7503   22.0911 C   0  0  0  0  0  0  0  0  0  0  0  0
  -30.1057  -13.1093   19.0715 C   0  0  0  0  0  0  0  0  0  0  0  0
  -19.1380  -28.5545   21.6855 C   0  0  0  0  0  0  0  0  0  0  0  0
  -28.8884  -12.2400   19.3952 C   0  0  0  0  0  0  0  0  0  0  0  0
  -30.1142  -14.4001   19.8885 C   0  0  0  0  0  0  0  0  0  0  0  0
  -27.6639  -14.3243   20.1322 C   0  0  0  0  0  0  0  0  0  0  0  0
  -20.3461  -28.3995   22.6171 C   0  0  1  0  0  0  0  0  0  0  0  0
  -23.2788  -30.2845   21.1074 C   0  0  1  0  0  0  0  0  0  0  0  0
  -27.5775  -13.0432   19.2866 C   0  0  2  0  0  0  0  0  0  0  0  0
  -25.2845  -33.9812   14.6024 C   0  0  0  0  0  0  0  0  0  0  0  0
  -21.2032  -29.3884   17.0763 C   0  0  0  0  0  0  0  0  0  0  0  0
  -22.1911  -30.5276   15.0777 C   0  0  0  0  0  0  0  0  0  0  0  0
  -20.8435  -31.8372   16.7183 C   0  0  0  0  0  0  0  0  0  0  0  0
  -27.3300  -33.7407   17.8015 C   0  0  0  0  0  0  0  0  0  0  0  0
  -28.6655  -25.3099   21.2004 C   0  0  0  0  0  0  0  0  0  1  0  0
  -23.1580  -31.0504   17.3631 C   0  0  1  0  0  0  0  0  0  0  0  0
  -25.5165  -33.7283   16.0839 C   0  0  2  0  0  0  0  0  0  0  0  0
  -21.8657  -30.6883   16.5781 C   0  0  0  0  0  0  0  0  0  0  0  0
  -25.9340  -12.2060   20.9235 N   0  0  0  0  0  0  0  0  0  0  0  0
  -30.1278  -21.4518   19.5439 N   0  0  0  0  0  0  0  0  0  0  0  0
  -26.3699  -12.2006   19.6523 N   0  0  0  0  0  0  0  0  0  0  0  0
  -23.6224  -30.3304   19.6847 N   0  0  0  0  0  0  0  0  0  0  0  0
  -28.8425  -15.1097   19.7336 N   0  0  0  0  0  0  0  0  0  0  0  0
  -25.9385  -11.2831   17.5115 N   0  0  0  0  0  0  0  0  0  0  0  0
  -22.7099   -9.4656   20.0938 N   0  0  0  0  0  0  0  0  0  0  0  0
  -27.5690  -16.9932   19.1065 N   0  0  0  0  0  0  0  0  0  0  0  0
  -21.3721  -29.3625   22.2788 N   0  0  0  0  0  0  0  0  0  0  0  0
  -23.7919  -32.2912   16.9306 N   0  0  0  0  0  0  0  0  0  0  0  0
  -26.9636  -33.9343   16.3748 N   0  3  0  0  0  0  0  0  0  0  0  0
  -23.5738   -9.5413   17.9710 O   0  0  0  0  0  0  0  0  0  0  0  0
  -22.4090  -28.1537   20.5799 O   0  0  0  0  0  0  0  0  0  0  0  0
  -22.1165  -32.0548   19.2427 O   0  0  0  0  0  0  0  0  0  0  0  0
  -25.8423  -31.3537   16.3883 O   0  0  0  0  0  0  0  0  0  0  0  0
  -29.8825  -17.0140   18.9361 O   0  0  0  0  0  0  0  0  0  0  0  0
  -21.9559  -10.3602   25.5405 O   0  0  0  0  0  0  0  0  0  0  0  0
  -28.2484  -26.2889   20.2497 O   0  0  0  0  0  0  0  0  0  1  0  0
  -20.5977   -5.1266   26.6216 F   0  0  0  0  0  0  0  0  0  0  0  0
  -24.2718  -20.4841   19.0056 F   0  0  0  0  0  0  0  0  0  0  0  0
  -22.8069   -9.1247   27.8626 F   0  0  0  0  0  0  0  0  0  0  0  0
  1  2  1  0  0  0  0
  1  5  2  0  0  0  0
  2  6  2  0  0  0  0
  3  8  2  0  0  0  0
  3 18  1  0  0  0  0
  4  9  1  0  0  0  0
  4 18  2  0  0  0  0
  5 21  1  0  0  0  0
  6 23  1  0  0  0  0
  7 10  2  0  0  0  0
  7 22  1  0  0  0  0
  8 26  1  0  0  0  0
  9 26  2  0  0  0  0
 10 27  1  0  0  0  0
 11 12  2  0  0  0  0
 11 28  1  0  0  0  0
 12 29  1  0  0  0  0
 13 19  2  0  0  0  0
 13 25  1  0  0  0  0
 14 19  1  0  0  0  0
 14 30  2  0  0  0  0
 15 24  1  0  0  0  0
 15 27  2  0  0  0  0
 16 25  2  0  0  0  0
 16 30  1  0  0  0  0
 17 29  2  0  0  0  0
 17 31  1  0  0  0  0
 18 32  1  0  0  0  0
 19 36  1  0  0  0  0
 20 32  1  0  0  0  0
 20 33  2  0  0  0  0
 20 37  1  0  0  0  0
 21 23  2  0  0  0  0
 21 42  1  0  0  0  0
 22 24  2  0  0  0  0
 22 43  1  0  0  0  0
 23 51  1  0  0  0  0
 24 44  1  0  0  0  0
 25 70  1  0  0  0  0
 26 79  1  0  0  0  0
 27 80  1  0  0  0  0
 28 31  2  0  0  0  0
 28 79  1  0  0  0  0
 29 81  1  0  0  0  0
 30 82  1  0  0  0  0
 31 83  1  0  0  0  0
 32 63  2  0  0  0  0
 33 65  1  0  0  0  0
 33 68  1  0  0  0  0
 34 35  2  0  0  0  0
 34 36  1  0  0  0  0
 35 59  1  0  0  0  0
 36 64  2  0  0  0  0
 37 69  1  0  0  0  0
 37 74  2  0  0  0  0
 38 52  1  0  0  0  0
 38 71  1  0  0  0  0
 38 75  2  0  0  0  0
 39 60  1  0  0  0  0
 39 66  1  0  0  0  0
 39 76  2  0  0  0  0
 40 61  1  0  0  0  0
 40 72  1  0  0  0  0
 40 77  2  0  0  0  0
 41 67  1  0  0  0  0
 41 70  1  0  0  0  0
 41 78  2  0  0  0  0
 42 45  1  0  0  0  0
 43 52  1  0  0  0  0
 44 66  1  0  0  0  0
 45 47  1  0  0  0  0
 46 48  1  0  0  0  0
 46 49  1  0  0  0  0
 47 51  1  0  0  0  0
 48 53  1  0  0  0  0
 49 67  1  0  0  0  0
 50 53  1  0  0  0  0
 50 67  1  0  0  0  0
 51 71  1  0  0  0  0
 52 66  1  0  0  0  0
 53 65  1  0  0  0  0
 54 61  1  0  0  0  0
 55 62  1  0  0  0  0
 56 62  1  0  0  0  0
 57 62  1  0  0  0  0
 58 73  1  0  0  0  0
 59 80  1  0  0  0  0
 60 62  1  0  0  0  0
 60 72  1  0  0  0  0
 61 73  1  0  0  0  0
 63 65  1  0  0  0  0
M  CHG  1  73   1
M  ISO  4  41 100  59 101  70 100  80 101
M  END
> <Batch ID>
0128

> <Smiles>
CNC(C)C(=O)NC(C(=O)N1Cc2cc([101O:1][101CH2:1]C=CC(=N)c3cc(F)cc([100NH:0][100C:0](=O)N4CCCC(n5nc(-c6ccc(Oc7ccc(F)cc7F)cc6)c(C(N)=O)c5N)C4)c3)ccc2CC1C(=O)NC1CCCc2ccccc21)C(C)(C)C

> <Shape>
0.238

> <Color>
0.091

> <Negative vol penalty>
0.000

$$$$

  -OEChem-04052302163D

 79 87  0     1  0  0  0  0  0999 V2000
  -28.8436   -6.9978   24.7228 C   0  0  0  0  0  0  0  0  0  0  0  0
  -29.0689   -8.3541   24.9352 C   0  0  0  0  0  0  0  0  0  0  0  0
  -23.1992   -9.8519   19.9526 C   0  0  0  0  0  0  0  0  0  0  0  0
  -23.9119   -9.9295   22.2598 C   0  0  0  0  0  0  0  0  0  0  0  0
  -27.6365   -6.4226   25.1179 C   0  0  0  0  0  0  0  0  0  0  0  0
  -28.0867   -9.1363   25.5418 C   0  0  0  0  0  0  0  0  0  0  0  0
  -29.9735  -12.2156   29.0918 C   0  0  0  0  0  0  0  0  0  0  0  0
  -22.5069   -8.6679   20.2062 C   0  0  0  0  0  0  0  0  0  0  0  0
  -23.2195   -8.7454   22.5135 C   0  0  0  0  0  0  0  0  0  0  0  0
  -30.6153  -13.3735   28.6546 C   0  0  0  0  0  0  0  0  0  0  0  0
  -20.0221   -7.8011   23.0661 C   0  0  0  0  0  0  0  0  0  0  0  0
  -19.2446   -7.7418   24.2226 C   0  0  0  0  0  0  0  0  0  0  0  0
  -28.6245  -14.6497   29.1312 C   0  0  0  0  0  0  0  0  0  0  0  0
  -20.5629   -5.8778   25.0131 C   0  0  0  0  0  0  0  0  0  0  0  0
  -32.6227  -16.7704   24.0102 C   0  0  0  0  0  0  0  0  0  0  0  0
  -23.9018  -10.4827   20.9794 C   0  0  0  0  0  0  0  0  0  0  0  0
  -24.1240  -13.0194   20.8264 C   0  0  0  0  0  0  0  0  0  0  0  0
  -26.6429   -7.1961   25.7384 C   0  0  0  0  0  0  0  0  0  0  0  0
  -28.6465  -12.2643   29.5426 C   0  0  0  0  0  0  0  0  0  0  0  0
  -26.8647   -8.5711   25.9444 C   0  0  0  0  0  0  0  0  0  0  0  0
  -27.9690  -13.4915   29.5761 C   0  0  0  0  0  0  0  0  0  0  0  0
  -22.5170   -8.1146   21.4866 C   0  0  0  0  0  0  0  0  0  0  0  0
  -29.9399  -14.5903   28.6715 C   0  0  0  0  0  0  0  0  0  0  0  0
  -21.0699   -6.8987   22.8830 C   0  0  0  0  0  0  0  0  0  0  0  0
  -19.5150   -6.7802   25.1962 C   0  0  0  0  0  0  0  0  0  0  0  0
  -21.3403   -5.9371   23.8565 C   0  0  0  0  0  0  0  0  0  0  0  0
  -24.6176  -11.7055   20.7179 C   0  0  0  0  0  0  0  0  0  0  0  0
  -31.6305  -16.8472   24.9650 C   0  0  0  0  0  0  0  0  0  0  0  0
  -25.1858  -13.8155   20.4726 C   0  0  0  0  0  0  0  0  0  0  0  0
  -31.1466  -15.4573   23.0580 C   0  0  0  0  0  0  0  0  0  0  0  0
  -22.8220  -13.4792   21.2126 C   0  0  0  0  0  0  0  0  0  0  0  0
  -25.9072  -10.9576   28.5978 C   0  0  0  0  0  0  0  0  0  0  0  0
  -24.7723  -12.3160   31.3161 C   0  0  0  0  0  0  0  0  0  0  0  0
  -25.0994  -14.7348   33.7013 C   0  0  0  0  0  0  0  0  0  0  0  0
  -30.9351  -14.0836   20.9569 C   0  0  0  0  0  0  0  0  0  0  0  0
  -25.3355   -6.5397   26.1053 C   0  0  0  0  0  0  0  0  0  0  0  0
  -27.9772  -11.0110   30.0360 C   0  0  0  0  0  0  0  0  0  0  0  0
  -26.5503  -13.6008   30.0697 C   0  0  0  0  0  0  0  0  0  0  0  0
  -24.4950   -7.3596   27.0808 C   0  0  0  0  0  0  0  0  0  0  0  0
  -29.3621  -13.1193   17.9118 C   0  0  0  0  0  0  0  0  0  0  0  0
  -24.4352   -8.8183   26.6387 C   0  0  0  0  0  0  0  0  0  0  0  0
  -27.9296  -12.7846   18.3338 C   0  0  0  0  0  0  0  0  0  0  0  0
  -30.3787  -12.6973   18.9711 C   0  0  0  0  0  0  0  0  0  0  0  0
  -28.6788  -12.8669   20.7461 C   0  0  0  0  0  0  0  0  0  0  0  0
  -25.8335   -9.4474   26.6218 C   0  0  1  0  0  0  0  0  0  0  0  0
  -26.4543  -11.0894   29.9910 C   0  0  1  0  0  0  0  0  0  0  0  0
  -27.6138  -13.3320   19.7396 C   0  0  2  0  0  0  0  0  0  0  0  0
  -23.9977  -15.6172   35.7761 C   0  0  0  0  0  0  0  0  0  0  0  0
  -22.6190  -13.6396   29.6069 C   0  0  0  0  0  0  0  0  0  0  0  0
  -22.1686  -15.2036   31.5094 C   0  0  0  0  0  0  0  0  0  0  0  0
  -21.8104  -12.7522   31.8008 C   0  0  0  0  0  0  0  0  0  0  0  0
  -27.4901  -14.1684   35.3514 C   0  0  0  0  0  0  0  0  0  0  0  0
  -31.5988  -17.6102   26.2651 C   0  0  0  0  0  0  0  0  0  0  0  0
  -32.4252  -16.9637   27.3790 C   0  0  0  0  0  0  0  0  0  0  0  0
  -31.9108  -15.5898   27.7926 C   0  0  0  0  0  0  0  0  0  1  0  0
  -24.1690  -13.6534   31.6717 C   0  0  1  0  0  0  0  0  0  0  0  0
  -25.0466  -14.6686   35.2170 C   0  0  2  0  0  0  0  0  0  0  0  0
  -22.7178  -13.8101   31.1360 C   0  0  0  0  0  0  0  0  0  0  0  0
  -32.3472  -15.9735   22.9162 N   0  0  0  0  0  0  0  0  0  0  0  0
  -25.8938  -11.6649   20.3256 N   0  0  0  0  0  0  0  0  0  0  0  0
  -26.2109  -12.9632   20.1845 N   0  0  0  0  0  0  0  0  0  0  0  0
  -25.9368  -12.3463   30.5358 N   0  0  0  0  0  0  0  0  0  0  0  0
  -30.0174  -13.2563   20.2756 N   0  0  0  0  0  0  0  0  0  0  0  0
  -25.3333  -15.1543   20.3828 N   0  0  0  0  0  0  0  0  0  0  0  0
  -21.8485  -12.5271   21.5445 N   0  0  0  0  0  0  0  0  0  0  0  0
  -30.4687  -14.5832   22.1725 N   0  0  0  0  0  0  0  0  0  0  0  0
  -26.2549   -9.7789   27.9661 N   0  0  0  0  0  0  0  0  0  0  0  0
  -24.2886  -13.7831   33.1199 N   0  0  0  0  0  0  0  0  0  0  0  0
  -26.3692  -15.0352   35.7979 N   0  3  0  0  0  0  0  0  0  0  0  0
  -22.5257  -14.6976   21.2461 O   0  0  0  0  0  0  0  0  0  0  0  0
  -25.2194  -11.8580   28.1311 O   0  0  0  0  0  0  0  0  0  0  0  0
  -24.2343  -11.2828   31.7219 O   0  0  0  0  0  0  0  0  0  0  0  0
  -25.7880  -15.5518   33.0938 O   0  0  0  0  0  0  0  0  0  0  0  0
  -32.0420  -14.3527   20.4832 O   0  0  0  0  0  0  0  0  0  0  0  0
  -21.8413   -6.9594   21.7345 O   0  0  0  0  0  0  0  0  0  0  0  0
  -30.5638  -15.7219   28.2447 O   0  0  0  0  0  0  0  0  0  1  0  0
  -18.7694   -6.7244   26.3075 F   0  0  0  0  0  0  0  0  0  0  0  0
  -22.3464   -5.0683   23.6868 F   0  0  0  0  0  0  0  0  0  0  0  0
  -30.2929  -15.8881   24.4830 S   0  0  0  0  0  0  0  0  0  0  0  0
  1  2  1  0  0  0  0
  1  5  2  0  0  0  0
  2  6  2  0  0  0  0
  3  8  2  0  0  0  0
  3 16  1  0  0  0  0
  4  9  1  0  0  0  0
  4 16  2  0  0  0  0
  5 18  1  0  0  0  0
  6 20  1  0  0  0  0
  7 10  2  0  0  0  0
  7 19  1  0  0  0  0
  8 22  1  0  0  0  0
  9 22  2  0  0  0  0
 10 23  1  0  0  0  0
 11 12  2  0  0  0  0
 11 24  1  0  0  0  0
 12 25  1  0  0  0  0
 13 21  1  0  0  0  0
 13 23  2  0  0  0  0
 14 25  2  0  0  0  0
 14 26  1  0  0  0  0
 15 28  2  0  0  0  0
 15 59  1  0  0  0  0
 16 27  1  0  0  0  0
 17 27  1  0  0  0  0
 17 29  2  0  0  0  0
 17 31  1  0  0  0  0
 18 20  2  0  0  0  0
 18 36  1  0  0  0  0
 19 21  2  0  0  0  0
 19 37  1  0  0  0  0
 20 45  1  0  0  0  0
 21 38  1  0  0  0  0
 22 75  1  0  0  0  0
 23 76  1  0  0  0  0
 24 26  2  0  0  0  0
 24 75  1  0  0  0  0
 25 77  1  0  0  0  0
 26 78  1  0  0  0  0
 27 60  2  0  0  0  0
 28 53  1  0  0  0  0
 28 79  1  0  0  0  0
 29 61  1  0  0  0  0
 29 64  1  0  0  0  0
 30 59  2  0  0  0  0
 30 66  1  0  0  0  0
 30 79  1  0  0  0  0
 31 65  1  0  0  0  0
 31 70  2  0  0  0  0
 32 46  1  0  0  0  0
 32 67  1  0  0  0  0
 32 71  2  0  0  0  0
 33 56  1  0  0  0  0
 33 62  1  0  0  0  0
 33 72  2  0  0  0  0
 34 57  1  0  0  0  0
 34 68  1  0  0  0  0
 34 73  2  0  0  0  0
 35 63  1  0  0  0  0
 35 66  1  0  0  0  0
 35 74  2  0  0  0  0
 36 39  1  0  0  0  0
 37 46  1  0  0  0  0
 38 62  1  0  0  0  0
 39 41  1  0  0  0  0
 40 42  1  0  0  0  0
 40 43  1  0  0  0  0
 41 45  1  0  0  0  0
 42 47  1  0  0  0  0
 43 63  1  0  0  0  0
 44 47  1  0  0  0  0
 44 63  1  0  0  0  0
 45 67  1  0  0  0  0
 46 62  1  0  0  0  0
 47 61  1  0  0  0  0
 48 57  1  0  0  0  0
 49 58  1  0  0  0  0
 50 58  1  0  0  0  0
 51 58  1  0  0  0  0
 52 69  1  0  0  0  0
 53 54  1  0  0  0  0
 54 55  1  0  0  0  0
 55 76  1  0  0  0  0
 56 58  1  0  0  0  0
 56 68  1  0  0  0  0
 57 69  1  0  0  0  0
 60 61  1  0  0  0  0
M  CHG  1  69   1
M  ISO  4  35 100  55 101  66 100  76 101
M  END
> <Batch ID>
0128

> <Smiles>
CNC(C)C(=O)NC(C(=O)N1Cc2cc([101O:1][101CH2:1]CCc3cnc([100NH:0][100C:0](=O)N4CCCC(n5nc(-c6ccc(Oc7ccc(F)cc7F)cc6)c(C(N)=O)c5N)C4)s3)ccc2CC1C(=O)NC1CCCc2ccccc21)C(C)(C)C

> <Shape>
0.159

> <Color>
0.189

> <Negative vol penalty>
0.000

$$$$

  -OEChem-04052302163D

 83 91  0     1  0  0  0  0  0999 V2000
  -29.0812  -35.3021   20.9466 C   0  0  0  0  0  0  0  0  0  0  0  0
  -28.9335  -34.1548   21.7195 C   0  0  0  0  0  0  0  0  0  0  0  0
  -32.3618  -18.0446   23.0141 C   0  0  0  0  0  0  0  0  0  0  0  0
  -23.1593   -9.6897   20.2418 C   0  0  0  0  0  0  0  0  0  0  0  0
  -23.7672  -10.0975   22.5443 C   0  0  0  0  0  0  0  0  0  0  0  0
  -31.5032  -19.0022   23.5538 C   0  0  0  0  0  0  0  0  0  0  0  0
  -28.0148  -36.1894   20.8073 C   0  0  0  0  0  0  0  0  0  0  0  0
  -27.7195  -33.8946   22.3543 C   0  0  0  0  0  0  0  0  0  0  0  0
  -26.2558  -29.0733   21.8469 C   0  0  0  0  0  0  0  0  0  0  0  0
  -31.8484  -17.0067   22.2362 C   0  0  0  0  0  0  0  0  0  0  0  0
  -22.4191   -8.5747   20.6348 C   0  0  0  0  0  0  0  0  0  0  0  0
  -23.0269   -8.9825   22.9372 C   0  0  0  0  0  0  0  0  0  0  0  0
  -26.8771  -28.1299   22.6641 C   0  0  0  0  0  0  0  0  0  0  0  0
  -19.3951   -7.9521   22.0135 C   0  0  0  0  0  0  0  0  0  0  0  0
  -18.1237   -7.7912   21.4629 C   0  0  0  0  0  0  0  0  0  0  0  0
  -29.6176  -17.8840   22.5382 C   0  0  0  0  0  0  0  0  0  0  0  0
  -24.9719  -28.1656   24.1434 C   0  0  0  0  0  0  0  0  0  0  0  0
  -18.7996   -5.6711   20.5218 C   0  0  0  0  0  0  0  0  0  0  0  0
  -23.8335  -10.4511   21.1966 C   0  0  0  0  0  0  0  0  0  0  0  0
  -30.1311  -18.9218   23.3159 C   0  0  0  0  0  0  0  0  0  0  0  0
  -24.1423  -12.9294   20.6770 C   0  0  0  0  0  0  0  0  0  0  0  0
  -26.7841  -35.9351   21.4328 C   0  0  0  0  0  0  0  0  0  0  0  0
  -24.9905  -29.5789   22.1782 C   0  0  0  0  0  0  0  0  0  0  0  0
  -26.6360  -34.7800   22.2243 C   0  0  0  0  0  0  0  0  0  0  0  0
  -24.3356  -29.1135   23.3274 C   0  0  0  0  0  0  0  0  0  0  0  0
  -30.4763  -16.9264   21.9984 C   0  0  0  0  0  0  0  0  0  0  0  0
  -22.3528   -8.2211   21.9824 C   0  0  0  0  0  0  0  0  0  0  0  0
  -26.2364  -27.6781   23.8141 C   0  0  0  0  0  0  0  0  0  0  0  0
  -20.3688   -6.9725   21.8183 C   0  0  0  0  0  0  0  0  0  0  0  0
  -17.8259   -6.6507   20.7171 C   0  0  0  0  0  0  0  0  0  0  0  0
  -20.0710   -5.8320   21.0724 C   0  0  0  0  0  0  0  0  0  0  0  0
  -24.5988  -11.6026   20.7913 C   0  0  0  0  0  0  0  0  0  0  0  0
  -25.2439  -13.6369   20.2617 C   0  0  0  0  0  0  0  0  0  0  0  0
  -29.2260  -19.9334   23.8858 C   0  0  0  0  0  0  0  0  0  0  0  0
  -29.5984  -21.1512   24.3096 C   0  0  0  0  0  0  0  0  0  0  0  0
  -22.8391  -13.4737   20.9242 C   0  0  0  0  0  0  0  0  0  0  0  0
  -23.8382  -32.4571   22.8794 C   0  0  0  0  0  0  0  0  0  0  0  0
  -20.9921  -30.9018   22.8266 C   0  0  0  0  0  0  0  0  0  0  0  0
  -19.2939  -27.9567   23.1258 C   0  0  0  0  0  0  0  0  0  0  0  0
  -30.6696  -14.8419   20.5970 C   0  0  0  0  0  0  0  0  0  0  0  0
  -25.6750  -36.9474   21.2915 C   0  0  0  0  0  0  0  0  0  0  0  0
  -24.3223  -30.5763   21.2720 C   0  0  0  0  0  0  0  0  0  0  0  0
  -22.9679  -29.6097   23.7165 C   0  0  0  0  0  0  0  0  0  0  0  0
  -24.3039  -36.4086   21.6915 C   0  0  0  0  0  0  0  0  0  0  0  0
  -29.7511  -12.0396   18.6018 C   0  0  0  0  0  0  0  0  0  0  0  0
  -24.3906  -35.6599   23.0177 C   0  0  0  0  0  0  0  0  0  0  0  0
  -28.2912  -11.7853   18.9841 C   0  0  0  0  0  0  0  0  0  0  0  0
  -30.5818  -12.4890   19.8025 C   0  0  0  0  0  0  0  0  0  0  0  0
  -28.5773  -13.3818   20.9223 C   0  0  0  0  0  0  0  0  0  0  0  0
  -25.3270  -34.4505   22.9083 C   0  0  1  0  0  0  0  0  0  0  0  0
  -23.2546  -31.4049   21.9795 C   0  0  1  0  0  0  0  0  0  0  0  0
  -27.6865  -12.9896   19.7321 C   0  0  2  0  0  0  0  0  0  0  0  0
  -16.9716  -27.0075   23.0702 C   0  0  0  0  0  0  0  0  0  0  0  0
  -20.4699  -32.0226   25.6161 C   0  0  0  0  0  0  0  0  0  0  0  0
  -18.6504  -30.3235   25.8822 C   0  0  0  0  0  0  0  0  0  0  0  0
  -18.4875  -32.0527   24.0918 C   0  0  0  0  0  0  0  0  0  0  0  0
  -19.9357  -26.2157   20.8201 C   0  0  0  0  0  0  0  0  0  0  0  0
  -28.6410  -22.1518   24.8934 C   0  0  0  0  0  0  0  0  0  0  0  0
  -28.6464  -23.4884   24.1450 C   0  0  0  0  0  0  0  0  0  0  0  0
  -27.7251  -24.5327   24.7772 C   0  0  0  0  0  0  0  0  0  0  0  0
  -27.7271  -25.8330   23.9849 C   0  0  0  0  0  0  0  0  0  1  0  0
  -20.1554  -30.1685   23.8470 C   0  0  1  0  0  0  0  0  0  0  0  0
  -18.2206  -27.3206   22.2611 C   0  0  2  0  0  0  0  0  0  0  0  0
  -19.4674  -31.1337   24.8532 C   0  0  0  0  0  0  0  0  0  0  0  0
  -25.8897  -11.4723   20.4741 N   0  0  0  0  0  0  0  0  0  0  0  0
  -26.2538  -12.7263   20.1563 N   0  0  0  0  0  0  0  0  0  0  0  0
  -22.3586  -30.5891   22.8016 N   0  0  0  0  0  0  0  0  0  0  0  0
  -29.9503  -13.6360   20.4586 N   0  0  0  0  0  0  0  0  0  0  0  0
  -25.4375  -14.9429   19.9800 N   0  0  0  0  0  0  0  0  0  0  0  0
  -21.8218  -12.6066   21.3456 N   0  0  0  0  0  0  0  0  0  0  0  0
  -29.9555  -15.8724   21.2073 N   0  0  0  0  0  0  0  0  0  0  0  0
  -24.6631  -33.3569   22.2318 N   0  0  0  0  0  0  0  0  0  0  0  0
  -19.2284  -29.3336   23.0908 N   0  0  0  0  0  0  0  0  0  0  0  0
  -18.7227  -26.0518   21.6619 N   0  3  0  0  0  0  0  0  0  0  0  0
  -22.5801  -14.6900   20.7600 O   0  0  0  0  0  0  0  0  0  0  0  0
  -23.5595  -32.4539   24.0728 O   0  0  0  0  0  0  0  0  0  0  0  0
  -20.4518  -31.7167   22.0745 O   0  0  0  0  0  0  0  0  0  0  0  0
  -20.1067  -27.2981   23.7709 O   0  0  0  0  0  0  0  0  0  0  0  0
  -31.8241  -14.9606   20.1785 O   0  0  0  0  0  0  0  0  0  0  0  0
  -21.6304   -7.1333   22.3662 O   0  0  0  0  0  0  0  0  0  0  0  0
  -26.8408  -26.7578   24.6138 O   0  0  0  0  0  0  0  0  0  1  0  0
  -16.6045   -6.4957   20.1897 F   0  0  0  0  0  0  0  0  0  0  0  0
  -21.0019   -4.8870   20.8824 F   0  0  0  0  0  0  0  0  0  0  0  0
  1  2  1  0  0  0  0
  1  7  2  0  0  0  0
  2  8  2  0  0  0  0
  3  6  2  0  0  0  0
  3 10  1  0  0  0  0
  4 11  2  0  0  0  0
  4 19  1  0  0  0  0
  5 12  1  0  0  0  0
  5 19  2  0  0  0  0
  6 20  1  0  0  0  0
  7 22  1  0  0  0  0
  8 24  1  0  0  0  0
  9 13  2  0  0  0  0
  9 23  1  0  0  0  0
 10 26  2  0  0  0  0
 11 27  1  0  0  0  0
 12 27  2  0  0  0  0
 13 28  1  0  0  0  0
 14 15  2  0  0  0  0
 14 29  1  0  0  0  0
 15 30  1  0  0  0  0
 16 20  2  0  0  0  0
 16 26  1  0  0  0  0
 17 25  1  0  0  0  0
 17 28  2  0  0  0  0
 18 30  2  0  0  0  0
 18 31  1  0  0  0  0
 19 32  1  0  0  0  0
 20 34  1  0  0  0  0
 21 32  1  0  0  0  0
 21 33  2  0  0  0  0
 21 36  1  0  0  0  0
 22 24  2  0  0  0  0
 22 41  1  0  0  0  0
 23 25  2  0  0  0  0
 23 42  1  0  0  0  0
 24 50  1  0  0  0  0
 25 43  1  0  0  0  0
 26 71  1  0  0  0  0
 27 80  1  0  0  0  0
 28 81  1  0  0  0  0
 29 31  2  0  0  0  0
 29 80  1  0  0  0  0
 30 82  1  0  0  0  0
 31 83  1  0  0  0  0
 32 65  2  0  0  0  0
 33 66  1  0  0  0  0
 33 69  1  0  0  0  0
 34 35  2  0  0  0  0
 35 58  1  0  0  0  0
 36 70  1  0  0  0  0
 36 75  2  0  0  0  0
 37 51  1  0  0  0  0
 37 72  1  0  0  0  0
 37 76  2  0  0  0  0
 38 62  1  0  0  0  0
 38 67  1  0  0  0  0
 38 77  2  0  0  0  0
 39 63  1  0  0  0  0
 39 73  1  0  0  0  0
 39 78  2  0  0  0  0
 40 68  1  0  0  0  0
 40 71  1  0  0  0  0
 40 79  2  0  0  0  0
 41 44  1  0  0  0  0
 42 51  1  0  0  0  0
 43 67  1  0  0  0  0
 44 46  1  0  0  0  0
 45 47  1  0  0  0  0
 45 48  1  0  0  0  0
 46 50  1  0  0  0  0
 47 52  1  0  0  0  0
 48 68  1  0  0  0  0
 49 52  1  0  0  0  0
 49 68  1  0  0  0  0
 50 72  1  0  0  0  0
 51 67  1  0  0  0  0
 52 66  1  0  0  0  0
 53 63  1  0  0  0  0
 54 64  1  0  0  0  0
 55 64  1  0  0  0  0
 56 64  1  0  0  0  0
 57 74  1  0  0  0  0
 58 59  1  0  0  0  0
 59 60  1  0  0  0  0
 60 61  1  0  0  0  0
 61 81  1  0  0  0  0
 62 64  1  0  0  0  0
 62 73  1  0  0  0  0
 63 74  1  0  0  0  0
 65 66  1  0  0  0  0
M  CHG  1  74   1
M  ISO  4  40 100  61 101  71 100  81 101
M  END
> <Batch ID>
0128

> <Smiles>
CNC(C)C(=O)NC(C(=O)N1Cc2cc([101O:1][101CH2:1]CCCC=Cc3cccc([100NH:0][100C:0](=O)N4CCCC(n5nc(-c6ccc(Oc7ccc(F)cc7F)cc6)c(C(N)=O)c5N)C4)c3)ccc2CC1C(=O)NC1CCCc2ccccc21)C(C)(C)C

> <Shape>
0.293

> <Color>
0.195

> <Negative vol penalty>
0.000

$$$$

  -OEChem-04052302163D

 83 91  0     1  0  0  0  0  0999 V2000
  -20.4776  -26.4702   20.0632 C   0  0  0  0  0  0  0  0  0  0  0  0
  -21.0611  -25.2085   20.0078 C   0  0  0  0  0  0  0  0  0  0  0  0
  -29.7348  -23.4833   18.8353 C   0  0  0  0  0  0  0  0  0  0  0  0
  -28.0323  -23.1729   20.5212 C   0  0  0  0  0  0  0  0  0  0  0  0
  -28.4808  -14.1382   18.5914 C   0  0  0  0  0  0  0  0  0  0  0  0
  -20.7530  -27.3178   21.1354 C   0  0  0  0  0  0  0  0  0  0  0  0
  -21.9212  -24.7941   21.0241 C   0  0  0  0  0  0  0  0  0  0  0  0
  -22.5583  -19.1125   23.2194 C   0  0  0  0  0  0  0  0  0  0  0  0
  -29.6220  -24.8664   18.9760 C   0  0  0  0  0  0  0  0  0  0  0  0
  -27.9195  -24.5561   20.6619 C   0  0  0  0  0  0  0  0  0  0  0  0
  -23.4897  -18.1071   22.9638 C   0  0  0  0  0  0  0  0  0  0  0  0
  -26.4531  -27.1168   19.0117 C   0  0  0  0  0  0  0  0  0  0  0  0
  -29.7511  -13.5941   18.7803 C   0  0  0  0  0  0  0  0  0  0  0  0
  -25.1696  -27.6602   19.0654 C   0  0  0  0  0  0  0  0  0  0  0  0
  -29.3114  -13.3893   21.1471 C   0  0  0  0  0  0  0  0  0  0  0  0
  -24.7589  -18.8002   24.8946 C   0  0  0  0  0  0  0  0  0  0  0  0
  -25.6399  -28.5540   21.2602 C   0  0  0  0  0  0  0  0  0  0  0  0
  -28.9399  -22.6365   19.6078 C   0  0  0  0  0  0  0  0  0  0  0  0
  -27.6257  -14.3080   19.6803 C   0  0  0  0  0  0  0  0  0  0  0  0
  -28.0410  -13.9335   20.9582 C   0  0  0  0  0  0  0  0  0  0  0  0
  -29.9150  -20.3478   20.1724 C   0  0  0  0  0  0  0  0  0  0  0  0
  -21.6094  -26.9099   22.1703 C   0  0  0  0  0  0  0  0  0  0  0  0
  -22.7262  -19.9777   24.3101 C   0  0  0  0  0  0  0  0  0  0  0  0
  -22.2094  -25.6376   22.1105 C   0  0  0  0  0  0  0  0  0  0  0  0
  -23.8268  -19.8141   25.1634 C   0  0  0  0  0  0  0  0  0  0  0  0
  -28.7144  -25.4028   19.8893 C   0  0  0  0  0  0  0  0  0  0  0  0
  -24.5917  -17.9526   23.7997 C   0  0  0  0  0  0  0  0  0  0  0  0
  -27.3300  -27.2919   20.0822 C   0  0  0  0  0  0  0  0  0  0  0  0
  -30.1664  -13.2196   20.0582 C   0  0  0  0  0  0  0  0  0  0  0  0
  -24.7630  -28.3788   20.1896 C   0  0  0  0  0  0  0  0  0  0  0  0
  -26.9234  -28.0105   21.2065 C   0  0  0  0  0  0  0  0  0  0  0  0
  -29.0556  -21.2077   19.4625 C   0  0  0  0  0  0  0  0  0  0  0  0
  -29.6434  -19.0989   19.6693 C   0  0  0  0  0  0  0  0  0  0  0  0
  -27.1656  -14.0998   22.1303 C   0  0  0  0  0  0  0  0  0  0  0  0
  -27.4586  -14.8323   23.2162 C   0  0  0  0  0  0  0  0  0  0  0  0
  -26.3072  -14.8831   19.4399 C   0  0  0  0  0  0  0  0  0  0  0  0
  -30.8731  -20.6509   21.1951 C   0  0  0  0  0  0  0  0  0  0  0  0
  -25.8787  -15.2795   18.0788 C   0  0  0  0  0  0  0  0  0  0  0  0
  -23.1332  -23.1124   24.6448 C   0  0  0  0  0  0  0  0  0  0  0  0
  -22.8775  -22.4147   27.8024 C   0  0  0  0  0  0  0  0  0  0  0  0
  -23.1723  -20.0978   30.2907 C   0  0  0  0  0  0  0  0  0  0  0  0
  -21.9142  -27.8791   23.2849 C   0  0  0  0  0  0  0  0  0  0  0  0
  -21.6984  -21.0402   24.5878 C   0  0  0  0  0  0  0  0  0  0  0  0
  -24.0421  -20.7039   26.3594 C   0  0  0  0  0  0  0  0  0  0  0  0
  -22.5420  -27.2202   24.5104 C   0  0  0  0  0  0  0  0  0  0  0  0
  -26.9576  -17.6736   15.6374 C   0  0  0  0  0  0  0  0  0  0  0  0
  -23.6630  -26.2740   24.0923 C   0  0  0  0  0  0  0  0  0  0  0  0
  -27.6358  -18.7545   16.4786 C   0  0  0  0  0  0  0  0  0  0  0  0
  -25.7741  -17.0540   16.3734 C   0  0  0  0  0  0  0  0  0  0  0  0
  -26.8022  -17.5839   18.5667 C   0  0  0  0  0  0  0  0  0  0  0  0
  -23.1282  -25.1425   23.2062 C   0  0  1  0  0  0  0  0  0  0  0  0
  -22.2413  -22.1916   25.4286 C   0  0  1  0  0  0  0  0  0  0  0  0
  -28.0195  -18.2137   17.8674 C   0  0  2  0  0  0  0  0  0  0  0  0
  -22.9325  -19.8334   32.7746 C   0  0  0  0  0  0  0  0  0  0  0  0
  -25.5268  -23.8722   28.2109 C   0  0  0  0  0  0  0  0  0  0  0  0
  -25.7027  -22.7780   30.4558 C   0  0  0  0  0  0  0  0  0  0  0  0
  -23.8061  -24.3234   29.9687 C   0  0  0  0  0  0  0  0  0  0  0  0
  -21.0524  -18.0553   29.9854 C   0  0  0  0  0  0  0  0  0  0  0  0
  -26.5387  -14.9649   24.3990 C   0  0  0  0  0  0  0  0  0  0  0  0
  -26.1857  -16.4212   24.6772 C   0  0  0  0  0  0  0  0  0  1  0  0
  -23.8472  -22.0347   28.8952 C   0  0  1  0  0  0  0  0  0  0  0  0
  -22.2401  -19.7146   31.4258 C   0  0  2  0  0  0  0  0  0  0  0  0
  -24.7180  -23.2364   29.3591 C   0  0  0  0  0  0  0  0  0  0  0  0
  -28.2951  -20.5599   18.5760 N   0  0  0  0  0  0  0  0  0  0  0  0
  -25.4331  -15.0818   20.3863 N   0  0  0  0  0  0  0  0  0  0  0  0
  -28.6758  -19.2797   18.7253 N   0  0  0  0  0  0  0  0  0  0  0  0
  -26.1645  -16.5839   17.7010 N   0  0  0  0  0  0  0  0  0  0  0  0
  -23.0128  -21.7320   26.5852 N   0  0  0  0  0  0  0  0  0  0  0  0
  -30.1403  -17.8748   19.9468 N   0  0  0  0  0  0  0  0  0  0  0  0
  -31.0253  -21.9859   21.5935 N   0  0  0  0  0  0  0  0  0  0  0  0
  -22.4625  -24.1414   24.0119 N   0  0  0  0  0  0  0  0  0  0  0  0
  -23.0495  -21.4299   29.9565 N   0  0  0  0  0  0  0  0  0  0  0  0
  -21.7721  -18.3095   31.2599 N   0  3  0  0  0  0  0  0  0  0  0  0
  -31.5851  -19.7662   21.7278 O   0  0  0  0  0  0  0  0  0  0  0  0
  -25.3144  -14.4089   17.4292 O   0  0  0  0  0  0  0  0  0  0  0  0
  -24.3407  -22.9054   24.6176 O   0  0  0  0  0  0  0  0  0  0  0  0
  -22.0267  -23.2802   28.0229 O   0  0  0  0  0  0  0  0  0  0  0  0
  -23.9359  -19.2965   29.7565 O   0  0  0  0  0  0  0  0  0  0  0  0
  -28.6042  -26.7524   20.0271 O   0  0  0  0  0  0  0  0  0  0  0  0
  -25.5027  -16.9725   23.5520 O   0  0  0  0  0  0  0  0  0  1  0  0
  -31.3861  -12.6967   20.2396 F   0  0  0  0  0  0  0  0  0  0  0  0
  -23.5309  -28.9019   20.2405 F   0  0  0  0  0  0  0  0  0  0  0  0
  -27.7618  -28.1831   22.2376 F   0  0  0  0  0  0  0  0  0  0  0  0
  1  2  1  0  0  0  0
  1  6  2  0  0  0  0
  2  7  2  0  0  0  0
  3  9  2  0  0  0  0
  3 18  1  0  0  0  0
  4 10  1  0  0  0  0
  4 18  2  0  0  0  0
  5 13  2  0  0  0  0
  5 19  1  0  0  0  0
  6 22  1  0  0  0  0
  7 24  1  0  0  0  0
  8 11  2  0  0  0  0
  8 23  1  0  0  0  0
  9 26  1  0  0  0  0
 10 26  2  0  0  0  0
 11 27  1  0  0  0  0
 12 14  2  0  0  0  0
 12 28  1  0  0  0  0
 13 29  1  0  0  0  0
 14 30  1  0  0  0  0
 15 20  1  0  0  0  0
 15 29  2  0  0  0  0
 16 25  1  0  0  0  0
 16 27  2  0  0  0  0
 17 30  2  0  0  0  0
 17 31  1  0  0  0  0
 18 32  1  0  0  0  0
 19 20  2  0  0  0  0
 19 36  1  0  0  0  0
 20 34  1  0  0  0  0
 21 32  1  0  0  0  0
 21 33  2  0  0  0  0
 21 37  1  0  0  0  0
 22 24  2  0  0  0  0
 22 42  1  0  0  0  0
 23 25  2  0  0  0  0
 23 43  1  0  0  0  0
 24 51  1  0  0  0  0
 25 44  1  0  0  0  0
 26 79  1  0  0  0  0
 27 80  1  0  0  0  0
 28 31  2  0  0  0  0
 28 79  1  0  0  0  0
 29 81  1  0  0  0  0
 30 82  1  0  0  0  0
 31 83  1  0  0  0  0
 32 64  2  0  0  0  0
 33 66  1  0  0  0  0
 33 69  1  0  0  0  0
 34 35  2  0  0  0  0
 35 59  1  0  0  0  0
 36 38  1  0  0  0  0
 36 65  2  0  0  0  0
 37 70  1  0  0  0  0
 37 74  2  0  0  0  0
 38 67  1  0  0  0  0
 38 75  2  0  0  0  0
 39 52  1  0  0  0  0
 39 71  1  0  0  0  0
 39 76  2  0  0  0  0
 40 61  1  0  0  0  0
 40 68  1  0  0  0  0
 40 77  2  0  0  0  0
 41 62  1  0  0  0  0
 41 72  1  0  0  0  0
 41 78  2  0  0  0  0
 42 45  1  0  0  0  0
 43 52  1  0  0  0  0
 44 68  1  0  0  0  0
 45 47  1  0  0  0  0
 46 48  1  0  0  0  0
 46 49  1  0  0  0  0
 47 51  1  0  0  0  0
 48 53  1  0  0  0  0
 49 67  1  0  0  0  0
 50 53  1  0  0  0  0
 50 67  1  0  0  0  0
 51 71  1  0  0  0  0
 52 68  1  0  0  0  0
 53 66  1  0  0  0  0
 54 62  1  0  0  0  0
 55 63  1  0  0  0  0
 56 63  1  0  0  0  0
 57 63  1  0  0  0  0
 58 73  1  0  0  0  0
 59 60  1  0  0  0  0
 60 80  1  0  0  0  0
 61 63  1  0  0  0  0
 61 72  1  0  0  0  0
 62 73  1  0  0  0  0
 64 66  1  0  0  0  0
M  CHG  1  73   1
M  ISO  4  36 100  38 100  60 101  80 101
M  END
> <Batch ID>
0128

> <Smiles>
CNC(C)C(=O)NC(C(=O)N1Cc2cc([101O:1][101CH2:1]CC=Cc3cc(F)ccc3[100C:0](=N)[100C:0](=O)N3CCCC(n4nc(-c5ccc(Oc6ccc(F)cc6F)cc5)c(C(N)=O)c4N)C3)ccc2CC1C(=O)NC1CCCc2ccccc21)C(C)(C)C

> <Shape>
0.174

> <Color>
0.102

> <Negative vol penalty>
0.000

$$$$

  -OEChem-04052302163D

 83 91  0     1  0  0  0  0  0999 V2000
  -21.7857  -29.5095   24.9344 C   0  0  0  0  0  0  0  0  0  0  0  0
  -22.5803  -28.3828   24.7486 C   0  0  0  0  0  0  0  0  0  0  0  0
  -24.5045  -11.2738   20.9399 C   0  0  0  0  0  0  0  0  0  0  0  0
  -29.2207  -22.0836   20.0016 C   0  0  0  0  0  0  0  0  0  0  0  0
  -30.5803  -22.2222   18.0092 C   0  0  0  0  0  0  0  0  0  0  0  0
  -23.8008  -12.4190   20.5673 C   0  0  0  0  0  0  0  0  0  0  0  0
  -25.8905  -11.3245   21.0890 C   0  0  0  0  0  0  0  0  0  0  0  0
  -20.5763  -29.6287   24.2510 C   0  0  0  0  0  0  0  0  0  0  0  0
  -22.1653  -27.3740   23.8799 C   0  0  0  0  0  0  0  0  0  0  0  0
  -24.7819  -22.5002   19.3283 C   0  0  0  0  0  0  0  0  0  0  0  0
  -29.4316  -23.4416   20.2400 C   0  0  0  0  0  0  0  0  0  0  0  0
  -30.7912  -23.5802   18.2476 C   0  0  0  0  0  0  0  0  0  0  0  0
  -24.7116  -21.1349   19.0547 C   0  0  0  0  0  0  0  0  0  0  0  0
  -29.3159  -26.9522   21.1767 C   0  0  0  0  0  0  0  0  0  0  0  0
  -28.2133  -27.7261   21.5383 C   0  0  0  0  0  0  0  0  0  0  0  0
  -25.8690  -13.6657   20.4928 C   0  0  0  0  0  0  0  0  0  0  0  0
  -22.6413  -21.4855   17.8672 C   0  0  0  0  0  0  0  0  0  0  0  0
  -27.1337  -27.1630   19.4515 C   0  0  0  0  0  0  0  0  0  0  0  0
  -29.7950  -21.4739   18.8862 C   0  0  0  0  0  0  0  0  0  0  0  0
  -24.4830  -13.6150   20.3437 C   0  0  0  0  0  0  0  0  0  0  0  0
  -26.5727  -12.5204   20.8655 C   0  0  0  0  0  0  0  0  0  0  0  0
  -28.5378  -19.4907   17.8893 C   0  0  0  0  0  0  0  0  0  0  0  0
  -20.1510  -28.6254   23.3661 C   0  0  0  0  0  0  0  0  0  0  0  0
  -23.7751  -23.3683   18.8820 C   0  0  0  0  0  0  0  0  0  0  0  0
  -20.9485  -27.4793   23.1849 C   0  0  0  0  0  0  0  0  0  0  0  0
  -22.7024  -22.8618   18.1343 C   0  0  0  0  0  0  0  0  0  0  0  0
  -30.2169  -24.1900   19.3630 C   0  0  0  0  0  0  0  0  0  0  0  0
  -23.6398  -20.6270   18.3266 C   0  0  0  0  0  0  0  0  0  0  0  0
  -29.3276  -26.2838   19.9525 C   0  0  0  0  0  0  0  0  0  0  0  0
  -27.1221  -27.8315   20.6758 C   0  0  0  0  0  0  0  0  0  0  0  0
  -28.2365  -26.3891   19.0899 C   0  0  0  0  0  0  0  0  0  0  0  0
  -29.5780  -20.0709   18.6397 C   0  0  0  0  0  0  0  0  0  0  0  0
  -28.7772  -18.1399   17.9577 C   0  0  0  0  0  0  0  0  0  0  0  0
  -23.7384  -14.8242   19.9503 C   0  0  0  0  0  0  0  0  0  0  0  0
  -28.0370  -12.5725   21.0233 C   0  0  0  0  0  0  0  0  0  0  0  0
  -24.2833  -15.8923   19.3513 C   0  0  0  0  0  0  0  0  0  0  0  0
  -27.4522  -20.1166   17.1926 C   0  0  0  0  0  0  0  0  0  0  0  0
  -23.4420  -17.0737   19.0019 C   0  0  0  0  0  0  0  0  0  0  0  0
  -21.6743  -25.2852   20.3018 C   0  0  0  0  0  0  0  0  0  0  0  0
  -21.0199  -26.1817   17.2538 C   0  0  0  0  0  0  0  0  0  0  0  0
  -21.0681  -25.4037   13.9313 C   0  0  0  0  0  0  0  0  0  0  0  0
  -30.0763  -13.6361   20.9876 C   0  0  0  0  0  0  0  0  0  0  0  0
  -18.8135  -28.7768   22.6857 C   0  0  0  0  0  0  0  0  0  0  0  0
  -23.8792  -24.8423   19.1625 C   0  0  0  0  0  0  0  0  0  0  0  0
  -21.6062  -23.7546   17.6150 C   0  0  0  0  0  0  0  0  0  0  0  0
  -18.6245  -27.8367   21.4979 C   0  0  0  0  0  0  0  0  0  0  0  0
  -32.7957  -15.5761   19.6288 C   0  0  0  0  0  0  0  0  0  0  0  0
  -19.0565  -26.4203   21.8641 C   0  0  0  0  0  0  0  0  0  0  0  0
  -32.1188  -16.8846   19.2214 C   0  0  0  0  0  0  0  0  0  0  0  0
  -32.1690  -14.9906   20.8906 C   0  0  0  0  0  0  0  0  0  0  0  0
  -30.0096  -16.0998   20.3854 C   0  0  0  0  0  0  0  0  0  0  0  0
  -20.5444  -26.3751   22.2322 C   0  0  1  0  0  0  0  0  0  0  0  0
  -22.5339  -25.5590   19.1002 C   0  0  1  0  0  0  0  0  0  0  0  0
  -30.5953  -16.7039   19.0977 C   0  0  1  0  0  0  0  0  0  0  0  0
  -20.4315  -26.3209   11.6839 C   0  0  0  0  0  0  0  0  0  0  0  0
  -18.0895  -25.5589   17.8324 C   0  0  0  0  0  0  0  0  0  0  0  0
  -17.6720  -25.5696   15.3639 C   0  0  0  0  0  0  0  0  0  0  0  0
  -18.4702  -27.6415   16.5011 C   0  0  0  0  0  0  0  0  0  0  0  0
  -23.8700  -25.3351   12.9805 C   0  0  0  0  0  0  0  0  0  0  0  0
  -24.1568  -18.4085   19.0099 C   0  0  0  0  0  0  0  0  0  1  0  0
  -20.0686  -25.7089   16.1812 C   0  0  1  0  0  0  0  0  0  0  0  0
  -21.5372  -26.1888   12.7196 C   0  0  2  0  0  0  0  0  0  0  0  0
  -18.5945  -26.1024   16.4809 C   0  0  0  0  0  0  0  0  0  0  0  0
  -30.4158  -19.1632   19.1477 N   0  0  0  0  0  0  0  0  0  0  0  0
  -28.7047  -13.6611   20.8223 N   0  0  0  0  0  0  0  0  0  0  0  0
  -29.9023  -17.9988   18.7157 N   0  0  0  0  0  0  0  0  0  0  0  0
  -21.7497  -25.1876   17.9207 N   0  0  0  0  0  0  0  0  0  0  0  0
  -30.7179  -14.8650   20.7477 N   0  0  0  0  0  0  0  0  0  0  0  0
  -28.1331  -17.0711   17.4429 N   0  0  0  0  0  0  0  0  0  0  0  0
  -27.3553  -21.5145   17.2245 N   0  0  0  0  0  0  0  0  0  0  0  0
  -21.3617  -26.4118   21.0384 N   0  0  0  0  0  0  0  0  0  0  0  0
  -20.5823  -26.2327   14.9202 N   0  0  0  0  0  0  0  0  0  0  0  0
  -22.7004  -25.5103   12.0813 N   0  3  0  0  0  0  0  0  0  0  0  0
  -26.5843  -19.4551   16.5741 O   0  0  0  0  0  0  0  0  0  0  0  0
  -22.2500  -16.9672   18.7265 O   0  0  0  0  0  0  0  0  0  0  0  0
  -21.3196  -24.1371   20.5420 O   0  0  0  0  0  0  0  0  0  0  0  0
  -21.1172  -27.3893   17.4863 O   0  0  0  0  0  0  0  0  0  0  0  0
  -21.1235  -24.1775   13.9927 O   0  0  0  0  0  0  0  0  0  0  0  0
  -30.7101  -12.6327   21.3234 O   0  0  0  0  0  0  0  0  0  0  0  0
  -30.4227  -25.5152   19.5952 O   0  0  0  0  0  0  0  0  0  0  0  0
  -23.5684  -19.2947   18.0587 O   0  0  0  0  0  0  0  0  0  1  0  0
  -26.0626  -28.5735   21.0238 F   0  0  0  0  0  0  0  0  0  0  0  0
  -28.2414  -25.7483   17.9130 F   0  0  0  0  0  0  0  0  0  0  0  0
  1  2  1  0  0  0  0
  1  8  2  0  0  0  0
  2  9  2  0  0  0  0
  3  6  2  0  0  0  0
  3  7  1  0  0  0  0
  4 11  2  0  0  0  0
  4 19  1  0  0  0  0
  5 12  1  0  0  0  0
  5 19  2  0  0  0  0
  6 20  1  0  0  0  0
  7 21  2  0  0  0  0
  8 23  1  0  0  0  0
  9 25  1  0  0  0  0
 10 13  2  0  0  0  0
 10 24  1  0  0  0  0
 11 27  1  0  0  0  0
 12 27  2  0  0  0  0
 13 28  1  0  0  0  0
 14 15  2  0  0  0  0
 14 29  1  0  0  0  0
 15 30  1  0  0  0  0
 16 20  2  0  0  0  0
 16 21  1  0  0  0  0
 17 26  1  0  0  0  0
 17 28  2  0  0  0  0
 18 30  2  0  0  0  0
 18 31  1  0  0  0  0
 19 32  1  0  0  0  0
 20 34  1  0  0  0  0
 21 35  1  0  0  0  0
 22 32  1  0  0  0  0
 22 33  2  0  0  0  0
 22 37  1  0  0  0  0
 23 25  2  0  0  0  0
 23 43  1  0  0  0  0
 24 26  2  0  0  0  0
 24 44  1  0  0  0  0
 25 52  1  0  0  0  0
 26 45  1  0  0  0  0
 27 80  1  0  0  0  0
 28 81  1  0  0  0  0
 29 31  2  0  0  0  0
 29 80  1  0  0  0  0
 30 82  1  0  0  0  0
 31 83  1  0  0  0  0
 32 64  2  0  0  0  0
 33 66  1  0  0  0  0
 33 69  1  0  0  0  0
 34 36  2  0  0  0  0
 35 65  2  0  0  0  0
 36 38  1  0  0  0  0
 37 70  1  0  0  0  0
 37 74  2  0  0  0  0
 38 60  1  0  0  0  0
 38 75  2  0  0  0  0
 39 53  1  0  0  0  0
 39 71  1  0  0  0  0
 39 76  2  0  0  0  0
 40 61  1  0  0  0  0
 40 67  1  0  0  0  0
 40 77  2  0  0  0  0
 41 62  1  0  0  0  0
 41 72  1  0  0  0  0
 41 78  2  0  0  0  0
 42 65  1  0  0  0  0
 42 68  1  0  0  0  0
 42 79  2  0  0  0  0
 43 46  1  0  0  0  0
 44 53  1  0  0  0  0
 45 67  1  0  0  0  0
 46 48  1  0  0  0  0
 47 49  1  0  0  0  0
 47 50  1  0  0  0  0
 48 52  1  0  0  0  0
 49 54  1  0  0  0  0
 50 68  1  0  0  0  0
 51 54  1  0  0  0  0
 51 68  1  0  0  0  0
 52 71  1  0  0  0  0
 53 67  1  0  0  0  0
 54 66  1  0  0  0  0
 55 62  1  0  0  0  0
 56 63  1  0  0  0  0
 57 63  1  0  0  0  0
 58 63  1  0  0  0  0
 59 73  1  0  0  0  0
 60 81  1  0  0  0  0
 61 63  1  0  0  0  0
 61 72  1  0  0  0  0
 62 73  1  0  0  0  0
 64 66  1  0  0  0  0
M  CHG  1  73   1
M  ISO  4  42 100  60 101  65 100  81 101
M  END
> <Batch ID>
0128

> <Smiles>
CNC(C)C(=O)NC(C(=O)N1Cc2cc([101O:1][101CH2:1]C(=O)C=Cc3cccc(C=[100N:0][100C:0](=O)N4CCCC(n5nc(-c6ccc(Oc7ccc(F)cc7F)cc6)c(C(N)=O)c5N)C4)c3)ccc2CC1C(=O)NC1CCCc2ccccc21)C(C)(C)C

> <Shape>
0.224

> <Color>
0.052

> <Negative vol penalty>
0.000

$$$$

  -OEChem-04052302163D

 85 93  0     1  0  0  0  0  0999 V2000
  -19.6453  -20.6358   26.2687 C   0  0  0  0  0  0  0  0  0  0  0  0
  -20.2891  -20.7164   25.0381 C   0  0  0  0  0  0  0  0  0  0  0  0
  -26.9606  -12.3876   21.8565 C   0  0  0  0  0  0  0  0  0  0  0  0
  -26.4222  -14.0386   20.1767 C   0  0  0  0  0  0  0  0  0  0  0  0
  -19.0488  -21.7701   26.8177 C   0  0  0  0  0  0  0  0  0  0  0  0
  -20.3358  -21.9312   24.3552 C   0  0  0  0  0  0  0  0  0  0  0  0
  -24.9303  -22.9259   22.4720 C   0  0  0  0  0  0  0  0  0  0  0  0
  -25.6283  -11.9752   21.8782 C   0  0  0  0  0  0  0  0  0  0  0  0
  -25.0898  -13.6261   20.1984 C   0  0  0  0  0  0  0  0  0  0  0  0
  -25.2961  -22.2623   21.3018 C   0  0  0  0  0  0  0  0  0  0  0  0
  -23.5863  -10.0481   19.9943 C   0  0  0  0  0  0  0  0  0  0  0  0
  -23.3320   -8.6767   19.9818 C   0  0  0  0  0  0  0  0  0  0  0  0
  -30.6985  -22.2369   22.2469 C   0  0  0  0  0  0  0  0  0  0  0  0
  -29.6745  -23.7156   20.6339 C   0  0  0  0  0  0  0  0  0  0  0  0
  -24.7508  -24.2325   20.0211 C   0  0  0  0  0  0  0  0  0  0  0  0
  -29.9444  -21.3700   20.1216 C   0  0  0  0  0  0  0  0  0  0  0  0
  -22.1854   -8.8701   22.0997 C   0  0  0  0  0  0  0  0  0  0  0  0
  -27.3575  -13.4194   21.0058 C   0  0  0  0  0  0  0  0  0  0  0  0
  -30.2673  -23.5116   21.8800 C   0  0  0  0  0  0  0  0  0  0  0  0
  -29.7646  -13.3491   20.1638 C   0  0  0  0  0  0  0  0  0  0  0  0
  -19.0966  -23.0017   26.1457 C   0  0  0  0  0  0  0  0  0  0  0  0
  -24.4608  -24.2465   22.4244 C   0  0  0  0  0  0  0  0  0  0  0  0
  -19.7382  -23.0828   24.8951 C   0  0  0  0  0  0  0  0  0  0  0  0
  -24.3821  -24.9116   21.1925 C   0  0  0  0  0  0  0  0  0  0  0  0
  -30.5371  -21.1661   21.3677 C   0  0  0  0  0  0  0  0  0  0  0  0
  -24.6929  -12.5944   21.0492 C   0  0  0  0  0  0  0  0  0  0  0  0
  -25.2037  -22.9146   20.0758 C   0  0  0  0  0  0  0  0  0  0  0  0
  -23.1402  -10.8305   21.0594 C   0  0  0  0  0  0  0  0  0  0  0  0
  -29.5131  -22.6447   19.7547 C   0  0  0  0  0  0  0  0  0  0  0  0
  -22.6315   -8.0877   21.0345 C   0  0  0  0  0  0  0  0  0  0  0  0
  -22.4398  -10.2415   22.1121 C   0  0  0  0  0  0  0  0  0  0  0  0
  -28.7335  -13.8463   20.9833 C   0  0  0  0  0  0  0  0  0  0  0  0
  -30.8714  -14.0780   20.5243 C   0  0  0  0  0  0  0  0  0  0  0  0
  -30.4343  -24.6286   22.7962 C   0  0  0  0  0  0  0  0  0  0  0  0
  -30.6248  -24.5364   24.1320 C   0  0  0  0  0  0  0  0  0  0  0  0
  -29.7253  -12.3203   19.1659 C   0  0  0  0  0  0  0  0  0  0  0  0
  -21.7351  -25.6873   23.1974 C   0  0  0  0  0  0  0  0  0  0  0  0
  -23.4080  -28.3750   22.4902 C   0  0  0  0  0  0  0  0  0  0  0  0
  -26.0047  -29.8121   20.8055 C   0  0  0  0  0  0  0  0  0  0  0  0
  -31.5813  -19.4972   22.9396 C   0  0  0  0  0  0  0  0  0  0  0  0
  -18.3964  -24.1896   26.7566 C   0  0  0  0  0  0  0  0  0  0  0  0
  -24.0955  -24.9573   23.6986 C   0  0  0  0  0  0  0  0  0  0  0  0
  -23.9035  -26.3359   21.0895 C   0  0  0  0  0  0  0  0  0  0  0  0
  -18.8148  -25.5241   26.1448 C   0  0  0  0  0  0  0  0  0  0  0  0
  -32.7693  -16.4083   24.2528 C   0  0  0  0  0  0  0  0  0  0  0  0
  -18.8215  -25.4346   24.6221 C   0  0  0  0  0  0  0  0  0  0  0  0
  -31.9673  -15.3553   23.4845 C   0  0  0  0  0  0  0  0  0  0  0  0
  -31.9298  -17.6468   24.5612 C   0  0  0  0  0  0  0  0  0  0  0  0
  -30.4658  -17.2003   22.6309 C   0  0  0  0  0  0  0  0  0  0  0  0
  -19.8315  -24.3883   24.1354 C   0  0  1  0  0  0  0  0  0  0  0  0
  -23.1437  -26.1289   23.4774 C   0  0  1  0  0  0  0  0  0  0  0  0
  -31.2881  -15.9612   22.2407 C   0  0  2  0  0  0  0  0  0  0  0  0
  -30.7828  -25.7144   25.0377 C   0  0  0  0  0  0  0  0  0  0  0  0
  -27.0971  -32.0334   20.3936 C   0  0  0  0  0  0  0  0  0  0  0  0
  -27.6732  -23.1048   15.9109 C   0  0  0  0  0  0  0  0  0  0  0  0
  -21.1463  -29.1315   20.5870 C   0  0  0  0  0  0  0  0  0  0  0  0
  -22.6858  -30.8005   19.5321 C   0  0  0  0  0  0  0  0  0  0  0  0
  -22.0554  -31.0321   21.9345 C   0  0  0  0  0  0  0  0  0  0  0  0
  -28.5623  -28.9039   21.9858 C   0  0  0  0  0  0  0  0  0  0  0  0
  -26.0743  -23.0685   17.8680 C   0  0  0  0  0  0  0  0  0  1  0  0
  -28.2108  -21.7510   17.9767 C   0  0  0  0  0  0  0  0  0  0  0  0
  -23.6430  -29.1905   21.2417 C   0  0  1  0  0  0  0  0  0  0  0  0
  -27.0843  -30.7801   21.2548 C   0  0  2  0  0  0  0  0  0  0  0  0
  -27.0983  -22.2670   17.0595 C   0  0  2  0  0  0  0  0  0  0  0  0
  -22.3898  -30.0112   20.8252 C   0  0  0  0  0  0  0  0  0  0  0  0
  -29.1484  -14.8160   21.8027 N   0  0  0  0  0  0  0  0  0  0  0  0
  -30.4525  -14.9340   21.5000 N   0  0  0  0  0  0  0  0  0  0  0  0
  -23.5520  -26.9862   22.3627 N   0  0  0  0  0  0  0  0  0  0  0  0
  -31.3211  -18.1682   23.3355 N   0  0  0  0  0  0  0  0  0  0  0  0
  -32.1525  -14.0639   20.0987 N   0  0  0  0  0  0  0  0  0  0  0  0
  -28.5065  -11.6729   18.9213 N   0  0  0  0  0  0  0  0  0  0  0  0
  -30.9746  -19.8711   21.7410 N   0  0  0  0  0  0  0  0  0  0  0  0
  -21.1773  -24.9168   24.1997 N   0  0  0  0  0  0  0  0  0  0  0  0
  -24.8287  -30.0002   21.5003 N   0  0  0  0  0  0  0  0  0  0  0  0
  -28.4258  -30.1366   21.1680 N   0  3  0  0  0  0  0  0  0  0  0  0
  -30.7445  -11.9738   18.5220 O   0  0  0  0  0  0  0  0  0  0  0  0
  -21.1937  -26.0223   22.1503 O   0  0  0  0  0  0  0  0  0  0  0  0
  -23.1146  -28.9497   23.5416 O   0  0  0  0  0  0  0  0  0  0  0  0
  -26.1854  -28.9753   19.9235 O   0  0  0  0  0  0  0  0  0  0  0  0
  -32.3122  -20.2398   23.6001 O   0  0  0  0  0  0  0  0  0  0  0  0
  -23.3928  -12.1920   21.0699 O   0  0  0  0  0  0  0  0  0  0  0  0
  -25.5594  -22.2689   18.9319 O   0  0  0  0  0  0  0  0  0  1  0  0
  -28.9302  -22.8448   18.5306 O   0  0  0  0  0  0  0  0  0  0  0  0
  -22.3860   -6.7710   21.0217 F   0  0  0  0  0  0  0  0  0  0  0  0
  -22.0077  -10.9882   23.1376 F   0  0  0  0  0  0  0  0  0  0  0  0
  1  2  1  0  0  0  0
  1  5  2  0  0  0  0
  2  6  2  0  0  0  0
  3  8  2  0  0  0  0
  3 18  1  0  0  0  0
  4  9  1  0  0  0  0
  4 18  2  0  0  0  0
  5 21  1  0  0  0  0
  6 23  1  0  0  0  0
  7 10  2  0  0  0  0
  7 22  1  0  0  0  0
  8 26  1  0  0  0  0
  9 26  2  0  0  0  0
 10 27  1  0  0  0  0
 11 12  2  0  0  0  0
 11 28  1  0  0  0  0
 12 30  1  0  0  0  0
 13 19  1  0  0  0  0
 13 25  2  0  0  0  0
 14 19  2  0  0  0  0
 14 29  1  0  0  0  0
 15 24  1  0  0  0  0
 15 27  2  0  0  0  0
 16 25  1  0  0  0  0
 16 29  2  0  0  0  0
 17 30  2  0  0  0  0
 17 31  1  0  0  0  0
 18 32  1  0  0  0  0
 19 34  1  0  0  0  0
 20 32  1  0  0  0  0
 20 33  2  0  0  0  0
 20 36  1  0  0  0  0
 21 23  2  0  0  0  0
 21 41  1  0  0  0  0
 22 24  2  0  0  0  0
 22 42  1  0  0  0  0
 23 50  1  0  0  0  0
 24 43  1  0  0  0  0
 25 72  1  0  0  0  0
 26 81  1  0  0  0  0
 27 82  1  0  0  0  0
 28 31  2  0  0  0  0
 28 81  1  0  0  0  0
 29 83  1  0  0  0  0
 30 84  1  0  0  0  0
 31 85  1  0  0  0  0
 32 66  2  0  0  0  0
 33 67  1  0  0  0  0
 33 70  1  0  0  0  0
 34 35  2  0  0  0  0
 35 53  1  0  0  0  0
 36 71  1  0  0  0  0
 36 76  2  0  0  0  0
 37 51  1  0  0  0  0
 37 73  1  0  0  0  0
 37 77  2  0  0  0  0
 38 62  1  0  0  0  0
 38 68  1  0  0  0  0
 38 78  2  0  0  0  0
 39 63  1  0  0  0  0
 39 74  1  0  0  0  0
 39 79  2  0  0  0  0
 40 69  1  0  0  0  0
 40 72  1  0  0  0  0
 40 80  2  0  0  0  0
 41 44  1  0  0  0  0
 42 51  1  0  0  0  0
 43 68  1  0  0  0  0
 44 46  1  0  0  0  0
 45 47  1  0  0  0  0
 45 48  1  0  0  0  0
 46 50  1  0  0  0  0
 47 52  1  0  0  0  0
 48 69  1  0  0  0  0
 49 52  1  0  0  0  0
 49 69  1  0  0  0  0
 50 73  1  0  0  0  0
 51 68  1  0  0  0  0
 52 67  1  0  0  0  0
 54 63  1  0  0  0  0
 55 64  1  0  0  0  0
 56 65  1  0  0  0  0
 57 65  1  0  0  0  0
 58 65  1  0  0  0  0
 59 75  1  0  0  0  0
 60 64  1  0  0  0  0
 60 82  1  0  0  0  0
 61 64  1  0  0  0  0
 61 83  1  0  0  0  0
 62 65  1  0  0  0  0
 62 74  1  0  0  0  0
 63 75  1  0  0  0  0
 66 67  1  0  0  0  0
M  CHG  1  75   1
M  ISO  4  40 100  60 101  72 100  82 101
M  END
> <Batch ID>
0128

> <Smiles>
CC=Cc1cc([100NH:0][100C:0](=O)N2CCCC(n3nc(-c4ccc(Oc5ccc(F)cc5F)cc4)c(C(N)=O)c3N)C2)cc(OCC(C)[101CH2:1][101O:1]c2ccc3c(c2)CN(C(=O)C(NC(=O)C(C)NC)C(C)(C)C)C(C(=O)NC2CCCc4ccccc42)C3)c1

> <Shape>
0.230

> <Color>
0.067

> <Negative vol penalty>
0.000

$$$$

  -OEChem-04052302163D

 88 96  0     1  0  0  0  0  0999 V2000
  -20.6759  -23.3419   21.8957 C   0  0  0  0  0  0  0  0  0  0  0  0
  -21.9997  -23.5676   22.2589 C   0  0  0  0  0  0  0  0  0  0  0  0
  -24.5622   -9.2671   21.6308 C   0  0  0  0  0  0  0  0  0  0  0  0
  -24.1402  -10.8081   23.4430 C   0  0  0  0  0  0  0  0  0  0  0  0
  -19.9463  -24.3482   21.2639 C   0  0  0  0  0  0  0  0  0  0  0  0
  -22.5951  -24.7995   21.9897 C   0  0  0  0  0  0  0  0  0  0  0  0
  -25.2621  -26.5675   25.9147 C   0  0  0  0  0  0  0  0  0  0  0  0
  -24.2080   -8.1997   22.4559 C   0  0  0  0  0  0  0  0  0  0  0  0
  -23.7859   -9.7407   24.2682 C   0  0  0  0  0  0  0  0  0  0  0  0
  -26.5232  -26.0130   26.1291 C   0  0  0  0  0  0  0  0  0  0  0  0
  -21.3641   -6.7747   23.6027 C   0  0  0  0  0  0  0  0  0  0  0  0
  -20.5196   -5.7989   23.0736 C   0  0  0  0  0  0  0  0  0  0  0  0
  -27.5377  -27.9204   25.0560 C   0  0  0  0  0  0  0  0  0  0  0  0
  -26.2573  -19.6999   20.0825 C   0  0  0  0  0  0  0  0  0  0  0  0
  -28.6106  -20.0109   20.5320 C   0  0  0  0  0  0  0  0  0  0  0  0
  -22.2203   -4.1241   23.4476 C   0  0  0  0  0  0  0  0  0  0  0  0
  -24.5283  -10.5713   22.1244 C   0  0  0  0  0  0  0  0  0  0  0  0
  -24.0434  -12.4230   20.4380 C   0  0  0  0  0  0  0  0  0  0  0  0
  -20.5301  -25.5963   20.9955 C   0  0  0  0  0  0  0  0  0  0  0  0
  -25.1285  -27.7996   25.2585 C   0  0  0  0  0  0  0  0  0  0  0  0
  -21.8731  -25.8229   21.3525 C   0  0  0  0  0  0  0  0  0  0  0  0
  -26.2740  -28.4896   24.8367 C   0  0  0  0  0  0  0  0  0  0  0  0
  -26.0420  -21.0660   20.2646 C   0  0  0  0  0  0  0  0  0  0  0  0
  -28.3954  -21.3770   20.7140 C   0  0  0  0  0  0  0  0  0  0  0  0
  -27.1110  -21.9045   20.5803 C   0  0  0  0  0  0  0  0  0  0  0  0
  -27.5416  -19.1724   20.2163 C   0  0  0  0  0  0  0  0  0  0  0  0
  -23.8198   -8.4365   23.7746 C   0  0  0  0  0  0  0  0  0  0  0  0
  -27.6611  -26.6881   25.6972 C   0  0  0  0  0  0  0  0  0  0  0  0
  -22.6369   -6.4253   24.0542 C   0  0  0  0  0  0  0  0  0  0  0  0
  -20.9476   -4.4736   22.9961 C   0  0  0  0  0  0  0  0  0  0  0  0
  -23.0649   -5.1000   23.9767 C   0  0  0  0  0  0  0  0  0  0  0  0
  -24.8946  -11.6742   21.2727 C   0  0  0  0  0  0  0  0  0  0  0  0
  -24.8691  -13.3470   19.8457 C   0  0  0  0  0  0  0  0  0  0  0  0
  -30.1880  -23.7166   22.9922 C   0  0  0  0  0  0  0  0  0  0  0  0
  -29.6269  -22.5965   22.5179 C   0  0  0  0  0  0  0  0  0  0  0  0
  -22.6325  -12.2948   20.2179 C   0  0  0  0  0  0  0  0  0  0  0  0
  -30.2217  -23.9953   24.4569 C   0  0  0  0  0  0  0  0  0  0  0  0
  -23.7460  -28.7682   22.5652 C   0  0  0  0  0  0  0  0  0  0  0  0
  -24.5811  -31.7082   23.6521 C   0  0  0  0  0  0  0  0  0  0  0  0
  -26.6366  -33.5941   25.6180 C   0  0  0  0  0  0  0  0  0  0  0  0
  -28.9721  -17.1006   20.1264 C   0  0  0  0  0  0  0  0  0  0  0  0
  -19.7162  -26.6370   20.2681 C   0  0  0  0  0  0  0  0  0  0  0  0
  -23.7626  -28.3969   25.0587 C   0  0  0  0  0  0  0  0  0  0  0  0
  -26.1858  -29.8248   24.1455 C   0  0  0  0  0  0  0  0  0  0  0  0
  -20.3060  -28.0423   20.3558 C   0  0  0  0  0  0  0  0  0  0  0  0
  -29.9191  -13.6863   19.7767 C   0  0  0  0  0  0  0  0  0  0  0  0
  -21.8036  -28.0116   20.0678 C   0  0  0  0  0  0  0  0  0  0  0  0
  -28.6263  -12.9200   20.0660 C   0  0  0  0  0  0  0  0  0  0  0  0
  -30.0524  -14.9269   20.6580 C   0  0  0  0  0  0  0  0  0  0  0  0
  -27.6068  -15.0698   20.9182 C   0  0  0  0  0  0  0  0  0  0  0  0
  -22.5464  -27.1544   21.0997 C   0  0  1  0  0  0  0  0  0  0  0  0
  -23.7154  -29.4132   23.9219 C   0  0  1  0  0  0  0  0  0  0  0  0
  -27.3967  -13.8476   20.0094 C   0  0  2  0  0  0  0  0  0  0  0  0
  -24.6571  -21.6058   20.1165 C   0  0  0  0  0  0  0  0  0  0  0  0
  -26.4391  -25.5883   19.6405 C   0  0  0  0  0  0  0  0  0  0  0  0
  -27.1016  -35.9724   26.2700 C   0  0  0  0  0  0  0  0  0  0  0  0
  -25.9540  -32.1732   20.9671 C   0  0  0  0  0  0  0  0  0  0  0  0
  -27.1723  -34.0998   22.0027 C   0  0  0  0  0  0  0  0  0  0  0  0
  -24.6832  -34.1408   21.8436 C   0  0  0  0  0  0  0  0  0  0  0  0
  -26.0388  -33.0524   28.4655 C   0  0  0  0  0  0  0  0  0  0  0  0
  -29.5683  -22.2616   21.0547 C   0  0  0  0  0  0  0  0  0  0  0  0
  -26.8801  -23.3694   20.7750 C   0  0  0  0  0  0  0  0  0  0  0  0
  -30.8887  -25.3025   24.8558 C   0  0  0  0  0  0  0  0  0  0  0  0
  -26.7067  -24.1051   19.4394 C   0  0  0  0  0  0  0  0  0  0  0  0
  -29.9082  -26.4625   24.9519 C   0  0  0  0  0  0  0  0  0  1  0  0
  -25.7935  -32.5962   23.5090 C   0  0  1  0  0  0  0  0  0  0  0  0
  -26.3409  -34.7012   26.6138 C   0  0  2  0  0  0  0  0  0  0  0  0
  -25.9027  -33.2265   22.0919 C   0  0  0  0  0  0  0  0  0  0  0  0
  -26.1638  -12.0868   21.2181 N   0  0  0  0  0  0  0  0  0  0  0  0
  -26.1162  -13.1048   20.3420 N   0  0  0  0  0  0  0  0  0  0  0  0
  -24.8276  -30.3645   23.9676 N   0  0  0  0  0  0  0  0  0  0  0  0
  -28.8529  -15.7601   20.5501 N   0  0  0  0  0  0  0  0  0  0  0  0
  -24.6429  -14.3349   18.9539 N   0  0  0  0  0  0  0  0  0  0  0  0
  -21.9370  -11.2922   20.9075 N   0  0  0  0  0  0  0  0  0  0  0  0
  -27.7608  -17.7849   20.0303 N   0  0  0  0  0  0  0  0  0  0  0  0
  -22.7089  -27.8833   22.3394 N   0  0  0  0  0  0  0  0  0  0  0  0
  -25.7158  -33.5707   24.5920 N   0  0  0  0  0  0  0  0  0  0  0  0
  -26.7294  -34.2783   27.9890 N   0  3  0  0  0  0  0  0  0  0  0  0
  -22.0098  -13.0364   19.4205 O   0  0  0  0  0  0  0  0  0  0  0  0
  -29.7396  -23.2146   25.2730 O   0  0  0  0  0  0  0  0  0  0  0  0
  -24.6432  -29.0534   21.7807 O   0  0  0  0  0  0  0  0  0  0  0  0
  -23.4565  -32.1906   23.4967 O   0  0  0  0  0  0  0  0  0  0  0  0
  -27.5913  -32.8292   25.7365 O   0  0  0  0  0  0  0  0  0  0  0  0
  -30.0653  -17.5965   19.8416 O   0  0  0  0  0  0  0  0  0  0  0  0
  -23.4739   -7.3952   24.5800 O   0  0  0  0  0  0  0  0  0  0  0  0
  -28.8931  -26.1487   25.9046 O   0  0  0  0  0  0  0  0  0  1  0  0
  -20.1359   -3.5363   22.4894 F   0  0  0  0  0  0  0  0  0  0  0  0
  -24.2861   -4.7581   24.4100 F   0  0  0  0  0  0  0  0  0  0  0  0
  1  2  1  0  0  0  0
  1  5  2  0  0  0  0
  2  6  2  0  0  0  0
  3  8  2  0  0  0  0
  3 17  1  0  0  0  0
  4  9  1  0  0  0  0
  4 17  2  0  0  0  0
  5 19  1  0  0  0  0
  6 21  1  0  0  0  0
  7 10  2  0  0  0  0
  7 20  1  0  0  0  0
  8 27  1  0  0  0  0
  9 27  2  0  0  0  0
 10 28  1  0  0  0  0
 11 12  2  0  0  0  0
 11 29  1  0  0  0  0
 12 30  1  0  0  0  0
 13 22  1  0  0  0  0
 13 28  2  0  0  0  0
 14 23  2  0  0  0  0
 14 26  1  0  0  0  0
 15 24  1  0  0  0  0
 15 26  2  0  0  0  0
 16 30  2  0  0  0  0
 16 31  1  0  0  0  0
 17 32  1  0  0  0  0
 18 32  1  0  0  0  0
 18 33  2  0  0  0  0
 18 36  1  0  0  0  0
 19 21  2  0  0  0  0
 19 42  1  0  0  0  0
 20 22  2  0  0  0  0
 20 43  1  0  0  0  0
 21 51  1  0  0  0  0
 22 44  1  0  0  0  0
 23 25  1  0  0  0  0
 23 54  1  0  0  0  0
 24 25  2  0  0  0  0
 24 61  1  0  0  0  0
 25 62  1  0  0  0  0
 26 75  1  0  0  0  0
 27 85  1  0  0  0  0
 28 86  1  0  0  0  0
 29 31  2  0  0  0  0
 29 85  1  0  0  0  0
 30 87  1  0  0  0  0
 31 88  1  0  0  0  0
 32 69  2  0  0  0  0
 33 70  1  0  0  0  0
 33 73  1  0  0  0  0
 34 35  2  0  0  0  0
 34 37  1  0  0  0  0
 35 61  1  0  0  0  0
 36 74  1  0  0  0  0
 36 79  2  0  0  0  0
 37 63  1  0  0  0  0
 37 80  2  0  0  0  0
 38 52  1  0  0  0  0
 38 76  1  0  0  0  0
 38 81  2  0  0  0  0
 39 66  1  0  0  0  0
 39 71  1  0  0  0  0
 39 82  2  0  0  0  0
 40 67  1  0  0  0  0
 40 77  1  0  0  0  0
 40 83  2  0  0  0  0
 41 72  1  0  0  0  0
 41 75  1  0  0  0  0
 41 84  2  0  0  0  0
 42 45  1  0  0  0  0
 43 52  1  0  0  0  0
 44 71  1  0  0  0  0
 45 47  1  0  0  0  0
 46 48  1  0  0  0  0
 46 49  1  0  0  0  0
 47 51  1  0  0  0  0
 48 53  1  0  0  0  0
 49 72  1  0  0  0  0
 50 53  1  0  0  0  0
 50 72  1  0  0  0  0
 51 76  1  0  0  0  0
 52 71  1  0  0  0  0
 53 70  1  0  0  0  0
 55 64  1  0  0  0  0
 56 67  1  0  0  0  0
 57 68  1  0  0  0  0
 58 68  1  0  0  0  0
 59 68  1  0  0  0  0
 60 78  1  0  0  0  0
 62 64  1  0  0  0  0
 63 65  1  0  0  0  0
 65 86  1  0  0  0  0
 66 68  1  0  0  0  0
 66 77  1  0  0  0  0
 67 78  1  0  0  0  0
 69 70  1  0  0  0  0
M  CHG  1  78   1
M  ISO  4  41 100  65 101  75 100  86 101
M  END
> <Batch ID>
0128

> <Smiles>
CCCc1c(C)cc([100NH:0][100C:0](=O)N2CCCC(n3nc(-c4ccc(Oc5ccc(F)cc5F)cc4)c(C(N)=O)c3N)C2)cc1CC=CC(=O)C[101CH2:1][101O:1]c1ccc2c(c1)CN(C(=O)C(NC(=O)C(C)NC)C(C)(C)C)C(C(=O)NC1CCCc3ccccc31)C2

> <Shape>
0.260

> <Color>
0.103

> <Negative vol penalty>
0.000

$$$$

  -OEChem-04052302163D

 85 93  0     1  0  0  0  0  0999 V2000
  -37.1629  -29.3498   21.9647 C   0  0  0  0  0  0  0  0  0  0  0  0
  -37.5508  -28.0147   21.9142 C   0  0  0  0  0  0  0  0  0  0  0  0
  -22.9884   -9.9023   19.9933 C   0  0  0  0  0  0  0  0  0  0  0  0
  -23.7675   -9.9375   22.2800 C   0  0  0  0  0  0  0  0  0  0  0  0
  -36.3235  -29.7924   22.9861 C   0  0  0  0  0  0  0  0  0  0  0  0
  -37.1004  -27.1217   22.8858 C   0  0  0  0  0  0  0  0  0  0  0  0
  -35.2587  -20.2505   23.7289 C   0  0  0  0  0  0  0  0  0  0  0  0
  -22.2296   -8.7649   20.2693 C   0  0  0  0  0  0  0  0  0  0  0  0
  -23.0087   -8.8000   22.5560 C   0  0  0  0  0  0  0  0  0  0  0  0
  -35.5381  -19.1524   24.5412 C   0  0  0  0  0  0  0  0  0  0  0  0
  -23.2457   -5.4650   22.0542 C   0  0  0  0  0  0  0  0  0  0  0  0
  -23.8519   -4.4431   22.7848 C   0  0  0  0  0  0  0  0  0  0  0  0
  -30.8441  -14.7676   23.8487 C   0  0  0  0  0  0  0  0  0  0  0  0
  -34.0275  -20.0129   26.2136 C   0  0  0  0  0  0  0  0  0  0  0  0
  -31.7370  -17.3150   24.5531 C   0  0  0  0  0  0  0  0  0  0  0  0
  -22.1676   -4.6716   24.5018 C   0  0  0  0  0  0  0  0  0  0  0  0
  -23.7574  -10.4886   20.9987 C   0  0  0  0  0  0  0  0  0  0  0  0
  -30.7378  -15.8200   22.9395 C   0  0  0  0  0  0  0  0  0  0  0  0
  -24.1355  -13.0059   20.8320 C   0  0  0  0  0  0  0  0  0  0  0  0
  -35.8547  -28.9023   23.9652 C   0  0  0  0  0  0  0  0  0  0  0  0
  -34.3685  -21.2452   24.1581 C   0  0  0  0  0  0  0  0  0  0  0  0
  -36.2550  -27.5532   23.9221 C   0  0  0  0  0  0  0  0  0  0  0  0
  -33.7366  -21.1213   25.4037 C   0  0  0  0  0  0  0  0  0  0  0  0
  -31.1843  -17.0937   23.2916 C   0  0  0  0  0  0  0  0  0  0  0  0
  -31.8432  -16.2625   25.4623 C   0  0  0  0  0  0  0  0  0  0  0  0
  -22.2397   -8.2137   21.5506 C   0  0  0  0  0  0  0  0  0  0  0  0
  -34.9247  -19.0349   25.7850 C   0  0  0  0  0  0  0  0  0  0  0  0
  -22.1004   -6.0902   22.5473 C   0  0  0  0  0  0  0  0  0  0  0  0
  -23.3129   -4.0464   24.0086 C   0  0  0  0  0  0  0  0  0  0  0  0
  -31.3968  -14.9888   25.1102 C   0  0  0  0  0  0  0  0  0  0  0  0
  -21.5614   -5.6935   23.7711 C   0  0  0  0  0  0  0  0  0  0  0  0
  -24.5418  -11.6632   20.7140 C   0  0  0  0  0  0  0  0  0  0  0  0
  -25.2356  -13.7326   20.4469 C   0  0  0  0  0  0  0  0  0  0  0  0
  -30.1564  -15.5609   21.6293 C   0  0  0  0  0  0  0  0  0  0  0  0
  -22.8764  -13.5478   21.2522 C   0  0  0  0  0  0  0  0  0  0  0  0
  -30.7594  -14.5773   20.7008 C   0  0  0  0  0  0  0  0  0  0  0  0
  -34.6042  -24.3566   24.7645 C   0  0  0  0  0  0  0  0  0  0  0  0
  -31.3902  -24.1302   25.1402 C   0  0  0  0  0  0  0  0  0  0  0  0
  -28.6863  -22.1700   25.8428 C   0  0  0  0  0  0  0  0  0  0  0  0
  -34.9872  -29.4373   25.0769 C   0  0  0  0  0  0  0  0  0  0  0  0
  -34.0573  -22.4100   23.2587 C   0  0  0  0  0  0  0  0  0  0  0  0
  -32.7576  -22.1516   25.9023 C   0  0  0  0  0  0  0  0  0  0  0  0
  -34.2520  -28.3480   25.8537 C   0  0  0  0  0  0  0  0  0  0  0  0
  -29.5350  -12.2910   18.2248 C   0  0  0  0  0  0  0  0  0  0  0  0
  -35.2038  -27.2097   26.2074 C   0  0  0  0  0  0  0  0  0  0  0  0
  -28.1059  -12.0046   18.6847 C   0  0  0  0  0  0  0  0  0  0  0  0
  -30.4719  -12.4987   19.4103 C   0  0  0  0  0  0  0  0  0  0  0  0
  -28.5885  -13.2832   20.8195 C   0  0  0  0  0  0  0  0  0  0  0  0
  -35.7673  -26.5488   24.9436 C   0  0  1  0  0  0  0  0  0  0  0  0
  -33.5273  -23.6242   24.0151 C   0  0  1  0  0  0  0  0  0  0  0  0
  -27.6073  -13.0953   19.6494 C   0  0  2  0  0  0  0  0  0  0  0  0
  -32.1594  -18.1873   21.2570 C   0  0  0  0  0  0  0  0  0  0  0  0
  -26.1937  -22.2756   26.1132 C   0  0  0  0  0  0  0  0  0  0  0  0
  -36.1798  -15.8654   25.9588 C   0  0  0  0  0  0  0  0  0  0  0  0
  -31.7446  -25.4286   27.8785 C   0  0  0  0  0  0  0  0  0  0  0  0
  -29.4393  -24.6502   28.4687 C   0  0  0  0  0  0  0  0  0  0  0  0
  -29.7693  -26.2493   26.5827 C   0  0  0  0  0  0  0  0  0  0  0  0
  -28.2480  -20.2690   23.6172 C   0  0  0  0  0  0  0  0  0  0  0  0
  -31.0828  -18.2381   22.3367 C   0  0  0  0  0  0  0  0  0  0  0  0
  -32.4400  -16.5053   26.8256 C   0  0  0  0  0  0  0  0  0  0  0  0
  -33.8759  -15.9819   26.9751 C   0  0  0  0  0  0  0  0  0  0  0  0
  -30.4672  -23.8360   26.2981 C   0  0  1  0  0  0  0  0  0  0  0  0
  -27.3434  -22.0207   25.1509 C   0  0  2  0  0  0  0  0  0  0  0  0
  -34.8914  -16.6725   26.0565 C   0  0  1  0  0  0  0  0  0  1  0  0
  -30.3750  -25.0224   27.2987 C   0  0  0  0  0  0  0  0  0  0  0  0
  -25.8016  -11.5412   20.2872 N   0  0  0  0  0  0  0  0  0  0  0  0
  -29.0851  -16.1628   21.1914 N   0  0  0  0  0  0  0  0  0  0  0  0
  -26.1963  -12.8166   20.1336 N   0  0  0  0  0  0  0  0  0  0  0  0
  -29.9514  -13.5137   20.3240 N   0  0  0  0  0  0  0  0  0  0  0  0
  -32.4911  -23.2752   24.9890 N   0  0  0  0  0  0  0  0  0  0  0  0
  -25.4650  -15.0593   20.3491 N   0  0  0  0  0  0  0  0  0  0  0  0
  -21.8539  -12.6598   21.6134 N   0  0  0  0  0  0  0  0  0  0  0  0
  -34.7849  -25.6640   24.3551 N   0  0  0  0  0  0  0  0  0  0  0  0
  -29.1887  -23.4474   25.7125 N   0  0  0  0  0  0  0  0  0  0  0  0
  -27.1963  -20.6451   24.5968 N   0  3  0  0  0  0  0  0  0  0  0  0
  -22.6588  -14.7826   21.2900 O   0  0  0  0  0  0  0  0  0  0  0  0
  -31.9131  -14.8089   20.3635 O   0  0  0  0  0  0  0  0  0  0  0  0
  -35.2241  -23.7788   25.6497 O   0  0  0  0  0  0  0  0  0  0  0  0
  -31.1395  -25.0792   24.3931 O   0  0  0  0  0  0  0  0  0  0  0  0
  -29.2330  -21.2469   26.4424 O   0  0  0  0  0  0  0  0  0  0  0  0
  -21.4993   -7.1040   21.8204 O   0  0  0  0  0  0  0  0  0  0  0  0
  -35.1961  -17.9645   26.5802 O   0  0  0  0  0  0  0  0  0  1  0  0
  -23.8943   -3.0640   24.7094 F   0  0  0  0  0  0  0  0  0  0  0  0
  -31.4946  -13.9713   25.9772 F   0  0  0  0  0  0  0  0  0  0  0  0
  -20.4607   -6.2896   24.2495 F   0  0  0  0  0  0  0  0  0  0  0  0
  1  2  1  0  0  0  0
  1  5  2  0  0  0  0
  2  6  2  0  0  0  0
  3  8  2  0  0  0  0
  3 17  1  0  0  0  0
  4  9  1  0  0  0  0
  4 17  2  0  0  0  0
  5 20  1  0  0  0  0
  6 22  1  0  0  0  0
  7 10  2  0  0  0  0
  7 21  1  0  0  0  0
  8 26  1  0  0  0  0
  9 26  2  0  0  0  0
 10 27  1  0  0  0  0
 11 12  2  0  0  0  0
 11 28  1  0  0  0  0
 12 29  1  0  0  0  0
 13 18  1  0  0  0  0
 13 30  2  0  0  0  0
 14 23  1  0  0  0  0
 14 27  2  0  0  0  0
 15 24  1  0  0  0  0
 15 25  2  0  0  0  0
 16 29  2  0  0  0  0
 16 31  1  0  0  0  0
 17 32  1  0  0  0  0
 18 24  2  0  0  0  0
 18 34  1  0  0  0  0
 19 32  1  0  0  0  0
 19 33  2  0  0  0  0
 19 35  1  0  0  0  0
 20 22  2  0  0  0  0
 20 40  1  0  0  0  0
 21 23  2  0  0  0  0
 21 41  1  0  0  0  0
 22 49  1  0  0  0  0
 23 42  1  0  0  0  0
 24 59  1  0  0  0  0
 25 30  1  0  0  0  0
 25 60  1  0  0  0  0
 26 81  1  0  0  0  0
 27 82  1  0  0  0  0
 28 31  2  0  0  0  0
 28 81  1  0  0  0  0
 29 83  1  0  0  0  0
 30 84  1  0  0  0  0
 31 85  1  0  0  0  0
 32 66  2  0  0  0  0
 33 68  1  0  0  0  0
 33 71  1  0  0  0  0
 34 36  1  0  0  0  0
 34 67  2  0  0  0  0
 35 72  1  0  0  0  0
 35 76  2  0  0  0  0
 36 69  1  0  0  0  0
 36 77  2  0  0  0  0
 37 50  1  0  0  0  0
 37 73  1  0  0  0  0
 37 78  2  0  0  0  0
 38 62  1  0  0  0  0
 38 70  1  0  0  0  0
 38 79  2  0  0  0  0
 39 63  1  0  0  0  0
 39 74  1  0  0  0  0
 39 80  2  0  0  0  0
 40 43  1  0  0  0  0
 41 50  1  0  0  0  0
 42 70  1  0  0  0  0
 43 45  1  0  0  0  0
 44 46  1  0  0  0  0
 44 47  1  0  0  0  0
 45 49  1  0  0  0  0
 46 51  1  0  0  0  0
 47 69  1  0  0  0  0
 48 51  1  0  0  0  0
 48 69  1  0  0  0  0
 49 73  1  0  0  0  0
 50 70  1  0  0  0  0
 51 68  1  0  0  0  0
 52 59  1  0  0  0  0
 53 63  1  0  0  0  0
 54 64  1  0  0  0  0
 55 65  1  0  0  0  0
 56 65  1  0  0  0  0
 57 65  1  0  0  0  0
 58 75  1  0  0  0  0
 60 61  1  0  0  0  0
 61 64  1  0  0  0  0
 62 65  1  0  0  0  0
 62 74  1  0  0  0  0
 63 75  1  0  0  0  0
 64 82  1  0  0  0  0
 66 68  1  0  0  0  0
M  CHG  1  75   1
M  ISO  4  34 100  36 100  64 101  82 101
M  END
> <Batch ID>
0128

> <Smiles>
CCc1cc(CC[101CH:1](C)[101O:1]c2ccc3c(c2)CN(C(=O)C(NC(=O)C(C)NC)C(C)(C)C)C(C(=O)NC2CCCc4ccccc42)C3)c(F)cc1[100C:0](=N)[100C:0](=O)N1CCCC(n2nc(-c3ccc(Oc4ccc(F)cc4F)cc3)c(C(N)=O)c2N)C1

> <Shape>
0.175

> <Color>
0.194

> <Negative vol penalty>
0.000

$$$$

  -OEChem-04052302163D

 82 90  0     1  0  0  0  0  0999 V2000
  -26.8791  -23.5064   18.0791 C   0  0  0  0  0  0  0  0  0  0  0  0
  -25.7103  -24.1306   18.5029 C   0  0  0  0  0  0  0  0  0  0  0  0
  -25.6723  -13.6979   21.0399 C   0  0  0  0  0  0  0  0  0  0  0  0
  -25.8645  -13.6468   18.6321 C   0  0  0  0  0  0  0  0  0  0  0  0
  -20.9863  -25.2504   22.0754 C   0  0  0  0  0  0  0  0  0  0  0  0
  -28.0707  -23.7162   18.7719 C   0  0  0  0  0  0  0  0  0  0  0  0
  -25.7322  -24.9640   19.6207 C   0  0  0  0  0  0  0  0  0  0  0  0
  -23.1840  -29.2769   18.8782 C   0  0  0  0  0  0  0  0  0  0  0  0
  -20.2244  -26.4173   22.0184 C   0  0  0  0  0  0  0  0  0  0  0  0
  -25.4907  -12.3150   21.0549 C   0  0  0  0  0  0  0  0  0  0  0  0
  -25.6830  -12.2638   18.6470 C   0  0  0  0  0  0  0  0  0  0  0  0
  -21.7935  -29.2169   18.9591 C   0  0  0  0  0  0  0  0  0  0  0  0
  -24.6175   -8.8437   21.6962 C   0  0  0  0  0  0  0  0  0  0  0  0
  -23.6018   -8.3301   22.5024 C   0  0  0  0  0  0  0  0  0  0  0  0
  -19.0677  -23.9630   21.3693 C   0  0  0  0  0  0  0  0  0  0  0  0
  -21.8923  -30.0943   21.2040 C   0  0  0  0  0  0  0  0  0  0  0  0
  -21.9702   -9.6091   21.2616 C   0  0  0  0  0  0  0  0  0  0  0  0
  -25.8591  -14.3638   19.8286 C   0  0  0  0  0  0  0  0  0  0  0  0
  -20.4080  -24.0232   21.7508 C   0  0  0  0  0  0  0  0  0  0  0  0
  -27.2655  -16.4911   19.8948 C   0  0  0  0  0  0  0  0  0  0  0  0
  -28.1092  -24.5602   19.8930 C   0  0  0  0  0  0  0  0  0  0  0  0
  -23.9411  -29.7366   19.9653 C   0  0  0  0  0  0  0  0  0  0  0  0
  -26.9251  -25.1842   20.3300 C   0  0  0  0  0  0  0  0  0  0  0  0
  -23.2922  -30.1616   21.1334 C   0  0  0  0  0  0  0  0  0  0  0  0
  -18.8840  -26.3571   21.6370 C   0  0  0  0  0  0  0  0  0  0  0  0
  -18.3057  -25.1300   21.3124 C   0  0  0  0  0  0  0  0  0  0  0  0
  -25.4961  -11.5980   19.8584 C   0  0  0  0  0  0  0  0  0  0  0  0
  -21.1476  -29.6229   20.1232 C   0  0  0  0  0  0  0  0  0  0  0  0
  -24.3097   -9.7401   20.6727 C   0  0  0  0  0  0  0  0  0  0  0  0
  -22.2781   -8.7127   22.2851 C   0  0  0  0  0  0  0  0  0  0  0  0
  -22.9860  -10.1227   20.4554 C   0  0  0  0  0  0  0  0  0  0  0  0
  -26.0461  -15.7924   19.8125 C   0  0  0  0  0  0  0  0  0  0  0  0
  -26.9068  -17.8157   19.8372 C   0  0  0  0  0  0  0  0  0  0  0  0
  -21.2029  -22.8064   21.8097 C   0  0  0  0  0  0  0  0  0  0  0  0
  -20.9102  -21.6486   21.1802 C   0  0  0  0  0  0  0  0  0  0  0  0
  -28.6028  -15.9878   20.0127 C   0  0  0  0  0  0  0  0  0  0  0  0
  -21.8257  -20.4997   21.3308 C   0  0  0  0  0  0  0  0  0  0  0  0
  -26.1611  -28.4638   21.8509 C   0  0  0  0  0  0  0  0  0  0  0  0
  -26.3461  -31.4848   23.0178 C   0  0  0  0  0  0  0  0  0  0  0  0
  -24.8285  -34.5039   23.4960 C   0  0  0  0  0  0  0  0  0  0  0  0
  -29.4110  -24.7189   20.6378 C   0  0  0  0  0  0  0  0  0  0  0  0
  -25.4386  -29.8204   19.8524 C   0  0  0  0  0  0  0  0  0  0  0  0
  -24.0578  -30.6822   22.3213 C   0  0  0  0  0  0  0  0  0  0  0  0
  -29.4268  -25.9127   21.5891 C   0  0  0  0  0  0  0  0  0  0  0  0
  -23.5465  -20.7234   18.1027 C   0  0  0  0  0  0  0  0  0  0  0  0
  -28.1475  -25.9511   22.4189 C   0  0  0  0  0  0  0  0  0  0  0  0
  -24.4651  -19.5065   18.1747 C   0  0  0  0  0  0  0  0  0  0  0  0
  -22.2138  -20.4763   18.8079 C   0  0  0  0  0  0  0  0  0  0  0  0
  -23.2812  -18.8038   20.2924 C   0  0  0  0  0  0  0  0  0  0  0  0
  -26.9137  -26.1150   21.5231 C   0  0  1  0  0  0  0  0  0  0  0  0
  -26.1408  -29.8212   21.2068 C   0  0  1  0  0  0  0  0  0  0  0  0
  -24.6463  -19.0466   19.6299 C   0  0  1  0  0  0  0  0  0  0  0  0
  -16.8728  -25.0411   20.9009 C   0  0  0  0  0  0  0  0  0  0  0  0
  -25.2164  -36.7643   24.5146 C   0  0  0  0  0  0  0  0  0  0  0  0
  -25.9132  -30.3038   25.7976 C   0  0  0  0  0  0  0  0  0  0  0  0
  -25.3651  -32.6061   26.6143 C   0  0  0  0  0  0  0  0  0  0  0  0
  -27.6306  -32.1186   25.6911 C   0  0  0  0  0  0  0  0  0  0  0  0
  -24.5051  -35.8634   20.8871 C   0  0  0  0  0  0  0  0  0  0  0  0
  -18.0809  -27.6321   21.5826 C   0  0  0  0  0  0  0  0  0  0  0  0
  -17.8499  -28.1545   20.1630 C   0  0  0  0  0  0  0  0  0  0  0  0
  -19.1371  -28.5473   19.4473 C   0  0  0  0  0  0  0  0  0  1  0  0
  -25.6539  -32.2493   24.1202 C   0  0  1  0  0  0  0  0  0  0  0  0
  -25.3091  -35.9229   23.2511 C   0  0  2  0  0  0  0  0  0  0  0  0
  -26.1261  -31.8079   25.5343 C   0  0  0  0  0  0  0  0  0  0  0  0
  -24.9916  -16.6058   19.7105 N   0  0  0  0  0  0  0  0  0  0  0  0
  -25.5473  -17.8293   19.7284 N   0  0  0  0  0  0  0  0  0  0  0  0
  -22.4135  -19.9814   20.1783 N   0  0  0  0  0  0  0  0  0  0  0  0
  -25.5206  -30.7390   22.1645 N   0  0  0  0  0  0  0  0  0  0  0  0
  -27.6248  -18.9584   19.8695 N   0  0  0  0  0  0  0  0  0  0  0  0
  -28.7928  -14.5999   20.0581 N   0  0  0  0  0  0  0  0  0  0  0  0
  -26.7814  -27.4901   21.0917 N   0  0  0  0  0  0  0  0  0  0  0  0
  -25.8683  -33.6635   23.8331 N   0  0  0  0  0  0  0  0  0  0  0  0
  -24.4864  -36.5730   22.1921 N   0  3  0  0  0  0  0  0  0  0  0  0
  -29.5985  -16.7466   20.0924 O   0  0  0  0  0  0  0  0  0  0  0  0
  -22.0105  -20.0653   22.4692 O   0  0  0  0  0  0  0  0  0  0  0  0
  -25.6530  -28.3116   22.9556 O   0  0  0  0  0  0  0  0  0  0  0  0
  -27.5733  -31.5528   22.9130 O   0  0  0  0  0  0  0  0  0  0  0  0
  -23.6481  -34.1748   23.4014 O   0  0  0  0  0  0  0  0  0  0  0  0
  -25.3192  -10.2485   19.8726 O   0  0  0  0  0  0  0  0  0  0  0  0
  -19.7905  -29.5647   20.2050 O   0  0  0  0  0  0  0  0  0  1  0  0
  -21.3026   -8.2182   23.0584 F   0  0  0  0  0  0  0  0  0  0  0  0
  -22.6840  -10.9825   19.4729 F   0  0  0  0  0  0  0  0  0  0  0  0
  1  2  1  0  0  0  0
  1  6  2  0  0  0  0
  2  7  2  0  0  0  0
  3 10  2  0  0  0  0
  3 18  1  0  0  0  0
  4 11  1  0  0  0  0
  4 18  2  0  0  0  0
  5  9  2  0  0  0  0
  5 19  1  0  0  0  0
  6 21  1  0  0  0  0
  7 23  1  0  0  0  0
  8 12  2  0  0  0  0
  8 22  1  0  0  0  0
  9 25  1  0  0  0  0
 10 27  1  0  0  0  0
 11 27  2  0  0  0  0
 12 28  1  0  0  0  0
 13 14  2  0  0  0  0
 13 29  1  0  0  0  0
 14 30  1  0  0  0  0
 15 19  2  0  0  0  0
 15 26  1  0  0  0  0
 16 24  1  0  0  0  0
 16 28  2  0  0  0  0
 17 30  2  0  0  0  0
 17 31  1  0  0  0  0
 18 32  1  0  0  0  0
 19 34  1  0  0  0  0
 20 32  1  0  0  0  0
 20 33  2  0  0  0  0
 20 36  1  0  0  0  0
 21 23  2  0  0  0  0
 21 41  1  0  0  0  0
 22 24  2  0  0  0  0
 22 42  1  0  0  0  0
 23 50  1  0  0  0  0
 24 43  1  0  0  0  0
 25 26  2  0  0  0  0
 25 59  1  0  0  0  0
 26 53  1  0  0  0  0
 27 79  1  0  0  0  0
 28 80  1  0  0  0  0
 29 31  2  0  0  0  0
 29 79  1  0  0  0  0
 30 81  1  0  0  0  0
 31 82  1  0  0  0  0
 32 65  2  0  0  0  0
 33 66  1  0  0  0  0
 33 69  1  0  0  0  0
 34 35  2  0  0  0  0
 35 37  1  0  0  0  0
 36 70  1  0  0  0  0
 36 74  2  0  0  0  0
 37 67  1  0  0  0  0
 37 75  2  0  0  0  0
 38 51  1  0  0  0  0
 38 71  1  0  0  0  0
 38 76  2  0  0  0  0
 39 62  1  0  0  0  0
 39 68  1  0  0  0  0
 39 77  2  0  0  0  0
 40 63  1  0  0  0  0
 40 72  1  0  0  0  0
 40 78  2  0  0  0  0
 41 44  1  0  0  0  0
 42 51  1  0  0  0  0
 43 68  1  0  0  0  0
 44 46  1  0  0  0  0
 45 47  1  0  0  0  0
 45 48  1  0  0  0  0
 46 50  1  0  0  0  0
 47 52  1  0  0  0  0
 48 67  1  0  0  0  0
 49 52  1  0  0  0  0
 49 67  1  0  0  0  0
 50 71  1  0  0  0  0
 51 68  1  0  0  0  0
 52 66  1  0  0  0  0
 54 63  1  0  0  0  0
 55 64  1  0  0  0  0
 56 64  1  0  0  0  0
 57 64  1  0  0  0  0
 58 73  1  0  0  0  0
 59 60  1  0  0  0  0
 60 61  1  0  0  0  0
 61 80  1  0  0  0  0
 62 64  1  0  0  0  0
 62 72  1  0  0  0  0
 63 73  1  0  0  0  0
 65 66  1  0  0  0  0
M  CHG  1  73   1
M  ISO  4  35 100  37 100  61 101  80 101
M  END
> <Batch ID>
0128

> <Smiles>
CNC(C)C(=O)NC(C(=O)N1Cc2cc([101O:1][101CH2:1]CCc3ccc(C=[100CH:0][100C:0](=O)N4CCCC(n5nc(-c6ccc(Oc7ccc(F)cc7F)cc6)c(C(N)=O)c5N)C4)cc3C)ccc2CC1C(=O)NC1CCCc2ccccc21)C(C)(C)C

> <Shape>
0.280

> <Color>
0.082

> <Negative vol penalty>
0.000

$$$$

  -OEChem-04052302163D

 86 94  0     1  0  0  0  0  0999 V2000
  -26.7767  -22.7744   12.9331 C   0  0  0  0  0  0  0  0  0  0  0  0
  -19.1599  -24.2045   23.8184 C   0  0  0  0  0  0  0  0  0  0  0  0
  -20.4232  -24.1331   23.2401 C   0  0  0  0  0  0  0  0  0  0  0  0
  -24.9780  -14.0966   21.4808 C   0  0  0  0  0  0  0  0  0  0  0  0
  -24.7059  -14.6081   19.1353 C   0  0  0  0  0  0  0  0  0  0  0  0
  -18.4501  -25.4043   23.7942 C   0  0  0  0  0  0  0  0  0  0  0  0
  -20.9770  -25.2614   22.6363 C   0  0  0  0  0  0  0  0  0  0  0  0
  -26.8903  -26.8513   22.5295 C   0  0  0  0  0  0  0  0  0  0  0  0
  -24.0733  -13.0423   21.3559 C   0  0  0  0  0  0  0  0  0  0  0  0
  -23.8012  -13.5538   19.0104 C   0  0  0  0  0  0  0  0  0  0  0  0
  -27.8861  -26.6960   21.5662 C   0  0  0  0  0  0  0  0  0  0  0  0
  -24.0949   -9.8652   20.1989 C   0  0  0  0  0  0  0  0  0  0  0  0
  -24.4312   -8.6487   20.7926 C   0  0  0  0  0  0  0  0  0  0  0  0
  -26.6498  -24.3117   15.4256 C   0  0  0  0  0  0  0  0  0  0  0  0
  -25.6249  -22.3340   16.3610 C   0  0  0  0  0  0  0  0  0  0  0  0
  -27.4579  -28.9330   20.7715 C   0  0  0  0  0  0  0  0  0  0  0  0
  -26.3391  -24.1269   17.8144 C   0  0  0  0  0  0  0  0  0  0  0  0
  -22.4477   -8.7710   22.1667 C   0  0  0  0  0  0  0  0  0  0  0  0
  -25.2943  -14.8795   20.3706 C   0  0  0  0  0  0  0  0  0  0  0  0
  -26.0702  -23.0548   15.2530 C   0  0  0  0  0  0  0  0  0  0  0  0
  -27.6244  -15.9169   20.3256 C   0  0  0  0  0  0  0  0  0  0  0  0
  -18.9996  -26.5504   23.1983 C   0  0  0  0  0  0  0  0  0  0  0  0
  -26.1621  -28.0467   22.6141 C   0  0  0  0  0  0  0  0  0  0  0  0
  -20.2734  -26.4774   22.6029 C   0  0  0  0  0  0  0  0  0  0  0  0
  -26.4551  -29.1019   21.7385 C   0  0  0  0  0  0  0  0  0  0  0  0
  -26.7843  -24.8477   16.7064 C   0  0  0  0  0  0  0  0  0  0  0  0
  -25.7594  -22.8700   17.6418 C   0  0  0  0  0  0  0  0  0  0  0  0
  -23.4849  -12.7709   20.1207 C   0  0  0  0  0  0  0  0  0  0  0  0
  -28.1681  -27.7358   20.6851 C   0  0  0  0  0  0  0  0  0  0  0  0
  -22.9351  -10.5348   20.5892 C   0  0  0  0  0  0  0  0  0  0  0  0
  -23.6076   -8.1015   21.7764 C   0  0  0  0  0  0  0  0  0  0  0  0
  -22.1115   -9.9876   21.5731 C   0  0  0  0  0  0  0  0  0  0  0  0
  -26.2283  -15.9691   20.4991 C   0  0  0  0  0  0  0  0  0  0  0  0
  -28.0473  -17.2032   20.5562 C   0  0  0  0  0  0  0  0  0  0  0  0
  -27.5972  -23.0391   11.9613 C   0  0  0  0  0  0  0  0  0  0  0  0
  -25.9303  -22.4951   13.9178 C   0  0  0  0  0  0  0  0  0  0  0  0
  -28.4638  -14.8052   19.9861 C   0  0  0  0  0  0  0  0  0  0  0  0
  -23.1003  -28.8360   22.2886 C   0  0  0  0  0  0  0  0  0  0  0  0
  -24.1502  -31.7468   23.2618 C   0  0  0  0  0  0  0  0  0  0  0  0
  -26.7467  -33.9429   23.5489 C   0  0  0  0  0  0  0  0  0  0  0  0
  -25.3666  -22.5244   20.1061 C   0  0  0  0  0  0  0  0  0  0  0  0
  -18.1749  -27.8124   23.1550 C   0  0  0  0  0  0  0  0  0  0  0  0
  -25.1094  -28.2082   23.6762 C   0  0  0  0  0  0  0  0  0  0  0  0
  -25.7161  -30.4128   21.8010 C   0  0  0  0  0  0  0  0  0  0  0  0
  -18.9890  -29.0610   22.8256 C   0  0  0  0  0  0  0  0  0  0  0  0
  -26.8834  -21.1436   23.0163 C   0  0  0  0  0  0  0  0  0  0  0  0
  -19.9127  -28.7988   21.6404 C   0  0  0  0  0  0  0  0  0  0  0  0
  -27.0202  -19.6562   22.6829 C   0  0  0  0  0  0  0  0  0  0  0  0
  -25.5932  -21.7352   22.4514 C   0  0  0  0  0  0  0  0  0  0  0  0
  -25.5202  -20.0224   20.6821 C   0  0  0  0  0  0  0  0  0  0  0  0
  -20.9183  -27.6862   21.9603 C   0  0  1  0  0  0  0  0  0  0  0  0
  -24.0791  -29.2813   23.3380 C   0  0  1  0  0  0  0  0  0  0  0  0
  -26.8357  -19.3975   21.1747 C   0  0  2  0  0  0  0  0  0  0  0  0
  -24.7617  -21.5670   13.5998 C   0  0  0  0  0  0  0  0  0  0  0  0
  -27.2891  -36.2578   24.3516 C   0  0  0  0  0  0  0  0  0  0  0  0
  -31.0991  -27.3294   17.5916 C   0  0  0  0  0  0  0  0  0  0  0  0
  -22.8274  -32.9169   20.7736 C   0  0  0  0  0  0  0  0  0  0  0  0
  -24.1783  -34.9964   21.1184 C   0  0  0  0  0  0  0  0  0  0  0  0
  -22.5325  -34.2789   22.8502 C   0  0  0  0  0  0  0  0  0  0  0  0
  -28.6777  -32.9231   25.5465 C   0  0  0  0  0  0  0  0  0  0  0  0
  -27.4116  -26.2065   16.8937 C   0  0  0  0  0  0  0  0  0  0  0  0
  -28.9337  -26.1695   17.0889 C   0  0  0  0  0  0  0  0  0  0  0  0
  -28.9756  -28.3063   18.5221 C   0  0  0  0  0  0  0  0  0  1  0  0
  -24.6820  -32.9780   22.5688 C   0  0  1  0  0  0  0  0  0  0  0  0
  -27.2311  -34.7827   24.7170 C   0  0  2  0  0  0  0  0  0  0  0  0
  -29.5991  -27.5393   17.3482 C   0  0  1  0  0  0  0  0  0  0  0  0
  -23.5678  -33.7673   21.8251 C   0  0  0  0  0  0  0  0  0  0  0  0
  -25.7934  -17.1916   20.8157 N   0  0  0  0  0  0  0  0  0  0  0  0
  -26.9228  -17.9196   20.8430 N   0  0  0  0  0  0  0  0  0  0  0  0
  -24.6914  -30.5198   22.8527 N   0  0  0  0  0  0  0  0  0  0  0  0
  -25.4887  -21.4546   21.0178 N   0  0  0  0  0  0  0  0  0  0  0  0
  -29.2678  -17.7799   20.5396 N   0  0  0  0  0  0  0  0  0  0  0  0
  -27.8659  -13.5539   19.7834 N   0  0  0  0  0  0  0  0  0  0  0  0
  -25.3081  -22.1375   18.7676 N   0  0  0  0  0  0  0  0  0  0  0  0
  -21.9859  -28.1944   22.7947 N   0  0  0  0  0  0  0  0  0  0  0  0
  -25.3819  -33.7507   23.5894 N   0  0  0  0  0  0  0  0  0  0  0  0
  -28.5935  -34.3487   25.1372 N   0  3  0  0  0  0  0  0  0  0  0  0
  -29.7091  -14.9146   19.8823 O   0  0  0  0  0  0  0  0  0  0  0  0
  -23.3377  -29.0592   21.1073 O   0  0  0  0  0  0  0  0  0  0  0  0
  -23.2916  -31.8698   24.1389 O   0  0  0  0  0  0  0  0  0  0  0  0
  -27.5028  -33.5046   22.6848 O   0  0  0  0  0  0  0  0  0  0  0  0
  -25.3449  -23.6990   20.4829 O   0  0  0  0  0  0  0  0  0  0  0  0
  -22.6022  -11.7421   19.9983 O   0  0  0  0  0  0  0  0  0  0  0  0
  -29.1391  -27.5866   19.7435 O   0  0  0  0  0  0  0  0  0  1  0  0
  -23.9298   -6.9324   22.3453 F   0  0  0  0  0  0  0  0  0  0  0  0
  -20.9954  -10.6256   21.9513 F   0  0  0  0  0  0  0  0  0  0  0  0
  1 35  2  0  0  0  0
  1 36  2  0  0  0  0
  2  3  1  0  0  0  0
  2  6  2  0  0  0  0
  3  7  2  0  0  0  0
  4  9  2  0  0  0  0
  4 19  1  0  0  0  0
  5 10  1  0  0  0  0
  5 19  2  0  0  0  0
  6 22  1  0  0  0  0
  7 24  1  0  0  0  0
  8 11  2  0  0  0  0
  8 23  1  0  0  0  0
  9 28  1  0  0  0  0
 10 28  2  0  0  0  0
 11 29  1  0  0  0  0
 12 13  2  0  0  0  0
 12 30  1  0  0  0  0
 13 31  1  0  0  0  0
 14 20  1  0  0  0  0
 14 26  2  0  0  0  0
 15 20  2  0  0  0  0
 15 27  1  0  0  0  0
 16 25  1  0  0  0  0
 16 29  2  0  0  0  0
 17 26  1  0  0  0  0
 17 27  2  0  0  0  0
 18 31  2  0  0  0  0
 18 32  1  0  0  0  0
 19 33  1  0  0  0  0
 20 36  1  0  0  0  0
 21 33  1  0  0  0  0
 21 34  2  0  0  0  0
 21 37  1  0  0  0  0
 22 24  2  0  0  0  0
 22 42  1  0  0  0  0
 23 25  2  0  0  0  0
 23 43  1  0  0  0  0
 24 51  1  0  0  0  0
 25 44  1  0  0  0  0
 26 61  1  0  0  0  0
 27 74  1  0  0  0  0
 28 83  1  0  0  0  0
 29 84  1  0  0  0  0
 30 32  2  0  0  0  0
 30 83  1  0  0  0  0
 31 85  1  0  0  0  0
 32 86  1  0  0  0  0
 33 68  2  0  0  0  0
 34 69  1  0  0  0  0
 34 72  1  0  0  0  0
 36 54  1  0  0  0  0
 37 73  1  0  0  0  0
 37 78  2  0  0  0  0
 38 52  1  0  0  0  0
 38 75  1  0  0  0  0
 38 79  2  0  0  0  0
 39 64  1  0  0  0  0
 39 70  1  0  0  0  0
 39 80  2  0  0  0  0
 40 65  1  0  0  0  0
 40 76  1  0  0  0  0
 40 81  2  0  0  0  0
 41 71  1  0  0  0  0
 41 74  1  0  0  0  0
 41 82  2  0  0  0  0
 42 45  1  0  0  0  0
 43 52  1  0  0  0  0
 44 70  1  0  0  0  0
 45 47  1  0  0  0  0
 46 48  1  0  0  0  0
 46 49  1  0  0  0  0
 47 51  1  0  0  0  0
 48 53  1  0  0  0  0
 49 71  1  0  0  0  0
 50 53  1  0  0  0  0
 50 71  1  0  0  0  0
 51 75  1  0  0  0  0
 52 70  1  0  0  0  0
 53 69  1  0  0  0  0
 55 65  1  0  0  0  0
 56 66  1  0  0  0  0
 57 67  1  0  0  0  0
 58 67  1  0  0  0  0
 59 67  1  0  0  0  0
 60 77  1  0  0  0  0
 61 62  1  0  0  0  0
 62 66  1  0  0  0  0
 63 66  1  0  0  0  0
 63 84  1  0  0  0  0
 64 67  1  0  0  0  0
 64 76  1  0  0  0  0
 65 77  1  0  0  0  0
 68 69  1  0  0  0  0
M  CHG  1  77   1
M  ISO  4  41 100  63 101  74 100  84 101
M  END
> <Batch ID>
0128

> <Smiles>
C=C=C(C)c1cc(CCC(C)[101CH2:1][101O:1]c2ccc3c(c2)CN(C(=O)C(NC(=O)C(C)NC)C(C)(C)C)C(C(=O)NC2CCCc4ccccc42)C3)cc([100NH:0][100C:0](=O)N2CCCC(n3nc(-c4ccc(Oc5ccc(F)cc5F)cc4)c(C(N)=O)c3N)C2)c1

> <Shape>
0.242

> <Color>
0.080

> <Negative vol penalty>
0.000

$$$$

  -OEChem-04052302163D

 83 91  0     1  0  0  0  0  0999 V2000
  -27.6262  -23.3320   18.0828 C   0  0  0  0  0  0  0  0  0  0  0  0
  -26.4234  -23.8027   18.5996 C   0  0  0  0  0  0  0  0  0  0  0  0
  -18.5362  -24.3134   26.4138 C   0  0  0  0  0  0  0  0  0  0  0  0
  -27.5172  -16.9113   22.5159 C   0  0  0  0  0  0  0  0  0  0  0  0
  -25.3541  -17.2458   21.4932 C   0  0  0  0  0  0  0  0  0  0  0  0
  -18.1537  -24.7247   25.1370 C   0  0  0  0  0  0  0  0  0  0  0  0
  -28.8333  -23.7312   18.6551 C   0  0  0  0  0  0  0  0  0  0  0  0
  -26.4270  -24.6721   19.6898 C   0  0  0  0  0  0  0  0  0  0  0  0
  -23.2358  -28.5577   19.0867 C   0  0  0  0  0  0  0  0  0  0  0  0
  -19.8127  -23.7925   26.6256 C   0  0  0  0  0  0  0  0  0  0  0  0
  -27.5695  -15.6229   21.9840 C   0  0  0  0  0  0  0  0  0  0  0  0
  -25.4064  -15.9574   20.9612 C   0  0  0  0  0  0  0  0  0  0  0  0
  -21.8808  -28.3078   19.2996 C   0  0  0  0  0  0  0  0  0  0  0  0
  -28.2568  -14.1855   19.0017 C   0  0  0  0  0  0  0  0  0  0  0  0
  -29.4499  -13.7787   18.4045 C   0  0  0  0  0  0  0  0  0  0  0  0
  -22.0552  -29.2733   21.5033 C   0  0  0  0  0  0  0  0  0  0  0  0
  -29.6294  -11.9695   19.9957 C   0  0  0  0  0  0  0  0  0  0  0  0
  -26.4094  -17.7227   22.2706 C   0  0  0  0  0  0  0  0  0  0  0  0
  -19.0477  -24.6149   24.0720 C   0  0  0  0  0  0  0  0  0  0  0  0
  -26.8203  -20.2400   22.2228 C   0  0  0  0  0  0  0  0  0  0  0  0
  -28.8520  -24.6135   19.7468 C   0  0  0  0  0  0  0  0  0  0  0  0
  -24.0145  -29.1584   20.0863 C   0  0  0  0  0  0  0  0  0  0  0  0
  -27.6354  -25.0824   20.2782 C   0  0  0  0  0  0  0  0  0  0  0  0
  -23.4193  -29.5321   21.2997 C   0  0  0  0  0  0  0  0  0  0  0  0
  -20.3242  -24.0940   24.2837 C   0  0  0  0  0  0  0  0  0  0  0  0
  -20.7067  -23.6828   25.5605 C   0  0  0  0  0  0  0  0  0  0  0  0
  -26.5141  -15.1460   21.2066 C   0  0  0  0  0  0  0  0  0  0  0  0
  -21.2910  -28.6629   20.5091 C   0  0  0  0  0  0  0  0  0  0  0  0
  -27.7500  -13.4843   20.0959 C   0  0  0  0  0  0  0  0  0  0  0  0
  -30.1362  -12.6707   18.9015 C   0  0  0  0  0  0  0  0  0  0  0  0
  -28.4363  -12.3763   20.5929 C   0  0  0  0  0  0  0  0  0  0  0  0
  -26.3546  -19.0535   22.8204 C   0  0  0  0  0  0  0  0  0  0  0  0
  -26.5369  -21.2211   23.1412 C   0  0  0  0  0  0  0  0  0  0  0  0
  -18.6102  -25.0586   22.7379 C   0  0  0  0  0  0  0  0  0  0  0  0
  -18.7388  -26.3052   22.2572 C   0  0  0  0  0  0  0  0  0  0  0  0
  -27.4526  -20.4375   20.9512 C   0  0  0  0  0  0  0  0  0  0  0  0
  -26.5530  -28.2780   21.7846 C   0  0  0  0  0  0  0  0  0  0  0  0
  -26.4111  -31.3366   22.8557 C   0  0  0  0  0  0  0  0  0  0  0  0
  -24.5292  -34.1307   23.4016 C   0  0  0  0  0  0  0  0  0  0  0  0
  -22.5145  -22.6996   27.0135 C   0  0  0  0  0  0  0  0  0  0  0  0
  -30.1796  -24.9794   20.3618 C   0  0  0  0  0  0  0  0  0  0  0  0
  -25.4687  -29.4455   19.8309 C   0  0  0  0  0  0  0  0  0  0  0  0
  -24.2068  -30.1980   22.3973 C   0  0  0  0  0  0  0  0  0  0  0  0
  -30.1111  -26.1983   21.2782 C   0  0  0  0  0  0  0  0  0  0  0  0
  -25.6278  -21.2846   28.0047 C   0  0  0  0  0  0  0  0  0  0  0  0
  -28.9190  -26.0890   22.2236 C   0  0  0  0  0  0  0  0  0  0  0  0
  -26.1796  -20.6805   26.7113 C   0  0  0  0  0  0  0  0  0  0  0  0
  -24.1105  -21.1342   28.0986 C   0  0  0  0  0  0  0  0  0  0  0  0
  -23.9156  -21.0324   25.6449 C   0  0  0  0  0  0  0  0  0  0  0  0
  -27.5990  -26.0462   21.4443 C   0  0  1  0  0  0  0  0  0  0  0  0
  -26.2824  -29.5944   21.1127 C   0  0  1  0  0  0  0  0  0  0  0  0
  -25.4323  -21.2175   25.4749 C   0  0  2  0  0  0  0  0  0  0  0  0
  -22.3487  -25.0686   23.1711 C   0  0  0  0  0  0  0  0  0  0  0  0
  -24.6820  -36.4594   24.3243 C   0  0  0  0  0  0  0  0  0  0  0  0
  -26.4018  -30.2109   25.6916 C   0  0  0  0  0  0  0  0  0  0  0  0
  -25.6078  -32.4433   26.5005 C   0  0  0  0  0  0  0  0  0  0  0  0
  -27.8274  -32.2419   25.3801 C   0  0  0  0  0  0  0  0  0  0  0  0
  -23.7830  -35.3341   20.8027 C   0  0  0  0  0  0  0  0  0  0  0  0
  -21.2898  -23.9731   23.1443 C   0  0  0  0  0  0  0  0  0  0  0  0
  -18.2657  -26.7190   20.8906 C   0  0  0  0  0  0  0  0  0  0  0  0
  -19.4011  -27.2935   20.0517 C   0  0  0  0  0  0  0  0  0  1  0  0
  -25.7192  -32.0377   23.9996 C   0  0  1  0  0  0  0  0  0  0  0  0
  -24.7795  -35.5927   23.0784 C   0  0  2  0  0  0  0  0  0  0  0  0
  -26.3744  -31.7192   25.3732 C   0  0  0  0  0  0  0  0  0  0  0  0
  -25.8163  -19.2598   24.0252 N   0  0  0  0  0  0  0  0  0  0  0  0
  -25.9421  -20.5873   24.1922 N   0  0  0  0  0  0  0  0  0  0  0  0
  -25.6266  -30.4519   22.1021 N   0  0  0  0  0  0  0  0  0  0  0  0
  -23.4698  -21.6681   26.8947 N   0  0  0  0  0  0  0  0  0  0  0  0
  -26.7410  -22.5556   23.1442 N   0  0  0  0  0  0  0  0  0  0  0  0
  -27.6682  -19.3212   20.1317 N   0  0  0  0  0  0  0  0  0  0  0  0
  -21.9975  -23.1494   25.7990 N   0  0  0  0  0  0  0  0  0  0  0  0
  -27.2346  -27.3725   20.9941 N   0  0  0  0  0  0  0  0  0  0  0  0
  -25.7039  -33.4564   23.6596 N   0  0  0  0  0  0  0  0  0  0  0  0
  -23.7810  -36.0822   22.0862 N   0  3  0  0  0  0  0  0  0  0  0  0
  -27.8303  -21.5681   20.5606 O   0  0  0  0  0  0  0  0  0  0  0  0
  -26.1729  -28.0977   22.9356 O   0  0  0  0  0  0  0  0  0  0  0  0
  -27.6018  -31.5708   22.6342 O   0  0  0  0  0  0  0  0  0  0  0  0
  -23.4039  -33.6373   23.4266 O   0  0  0  0  0  0  0  0  0  0  0  0
  -22.1998  -23.1695   28.1100 O   0  0  0  0  0  0  0  0  0  0  0  0
  -26.5650  -13.8890   20.6871 O   0  0  0  0  0  0  0  0  0  0  0  0
  -19.9688  -28.4195   20.7198 O   0  0  0  0  0  0  0  0  0  1  0  0
  -31.2812  -12.2792   18.3270 F   0  0  0  0  0  0  0  0  0  0  0  0
  -27.9537  -11.6980   21.6430 F   0  0  0  0  0  0  0  0  0  0  0  0
  1  2  1  0  0  0  0
  1  7  2  0  0  0  0
  2  8  2  0  0  0  0
  3  6  1  0  0  0  0
  3 10  2  0  0  0  0
  4 11  2  0  0  0  0
  4 18  1  0  0  0  0
  5 12  1  0  0  0  0
  5 18  2  0  0  0  0
  6 19  2  0  0  0  0
  7 21  1  0  0  0  0
  8 23  1  0  0  0  0
  9 13  2  0  0  0  0
  9 22  1  0  0  0  0
 10 26  1  0  0  0  0
 11 27  1  0  0  0  0
 12 27  2  0  0  0  0
 13 28  1  0  0  0  0
 14 15  2  0  0  0  0
 14 29  1  0  0  0  0
 15 30  1  0  0  0  0
 16 24  1  0  0  0  0
 16 28  2  0  0  0  0
 17 30  2  0  0  0  0
 17 31  1  0  0  0  0
 18 32  1  0  0  0  0
 19 25  1  0  0  0  0
 19 34  1  0  0  0  0
 20 32  1  0  0  0  0
 20 33  2  0  0  0  0
 20 36  1  0  0  0  0
 21 23  2  0  0  0  0
 21 41  1  0  0  0  0
 22 24  2  0  0  0  0
 22 42  1  0  0  0  0
 23 50  1  0  0  0  0
 24 43  1  0  0  0  0
 25 26  2  0  0  0  0
 25 59  1  0  0  0  0
 26 71  1  0  0  0  0
 27 80  1  0  0  0  0
 28 81  1  0  0  0  0
 29 31  2  0  0  0  0
 29 80  1  0  0  0  0
 30 82  1  0  0  0  0
 31 83  1  0  0  0  0
 32 65  2  0  0  0  0
 33 66  1  0  0  0  0
 33 69  1  0  0  0  0
 34 35  2  0  0  0  0
 35 60  1  0  0  0  0
 36 70  1  0  0  0  0
 36 75  2  0  0  0  0
 37 51  1  0  0  0  0
 37 72  1  0  0  0  0
 37 76  2  0  0  0  0
 38 62  1  0  0  0  0
 38 67  1  0  0  0  0
 38 77  2  0  0  0  0
 39 63  1  0  0  0  0
 39 73  1  0  0  0  0
 39 78  2  0  0  0  0
 40 68  1  0  0  0  0
 40 71  1  0  0  0  0
 40 79  2  0  0  0  0
 41 44  1  0  0  0  0
 42 51  1  0  0  0  0
 43 67  1  0  0  0  0
 44 46  1  0  0  0  0
 45 47  1  0  0  0  0
 45 48  1  0  0  0  0
 46 50  1  0  0  0  0
 47 52  1  0  0  0  0
 48 68  1  0  0  0  0
 49 52  1  0  0  0  0
 49 68  1  0  0  0  0
 50 72  1  0  0  0  0
 51 67  1  0  0  0  0
 52 66  1  0  0  0  0
 53 59  1  0  0  0  0
 54 63  1  0  0  0  0
 55 64  1  0  0  0  0
 56 64  1  0  0  0  0
 57 64  1  0  0  0  0
 58 74  1  0  0  0  0
 60 61  1  0  0  0  0
 61 81  1  0  0  0  0
 62 64  1  0  0  0  0
 62 73  1  0  0  0  0
 63 74  1  0  0  0  0
 65 66  1  0  0  0  0
M  CHG  1  74   1
M  ISO  4  40 100  61 101  71 100  81 101
M  END
> <Batch ID>
0128

> <Smiles>
CCc1c(C=CC[101CH2:1][101O:1]c2ccc3c(c2)CN(C(=O)C(NC(=O)C(C)NC)C(C)(C)C)C(C(=O)NC2CCCc4ccccc42)C3)cccc1[100NH:0][100C:0](=O)N1CCCC(n2nc(-c3ccc(Oc4ccc(F)cc4F)cc3)c(C(N)=O)c2N)C1

> <Shape>
0.257

> <Color>
0.064

> <Negative vol penalty>
0.000

$$$$

  -OEChem-04052302163D

 85 93  0     1  0  0  0  0  0999 V2000
  -16.5742  -28.9993   22.7538 C   0  0  0  0  0  0  0  0  0  0  0  0
  -17.3556  -29.7621   21.8917 C   0  0  0  0  0  0  0  0  0  0  0  0
  -29.1884  -13.7578   22.9072 C   0  0  0  0  0  0  0  0  0  0  0  0
  -30.3432  -15.6855   22.0197 C   0  0  0  0  0  0  0  0  0  0  0  0
  -17.0312  -28.7157   24.0401 C   0  0  0  0  0  0  0  0  0  0  0  0
  -18.5939  -30.2426   22.3160 C   0  0  0  0  0  0  0  0  0  0  0  0
  -24.6406  -28.5280   18.7962 C   0  0  0  0  0  0  0  0  0  0  0  0
  -29.8465  -12.9405   21.9882 C   0  0  0  0  0  0  0  0  0  0  0  0
  -31.0013  -14.8682   21.1008 C   0  0  0  0  0  0  0  0  0  0  0  0
  -25.8165  -28.4170   18.0538 C   0  0  0  0  0  0  0  0  0  0  0  0
  -30.9545  -10.3980   19.6363 C   0  0  0  0  0  0  0  0  0  0  0  0
  -30.1978   -9.4436   18.9565 C   0  0  0  0  0  0  0  0  0  0  0  0
  -25.6331  -24.4961   19.8627 C   0  0  0  0  0  0  0  0  0  0  0  0
  -26.6823  -22.9197   21.3630 C   0  0  0  0  0  0  0  0  0  0  0  0
  -27.0165  -29.6551   19.7494 C   0  0  0  0  0  0  0  0  0  0  0  0
  -24.2823  -22.9096   21.0856 C   0  0  0  0  0  0  0  0  0  0  0  0
  -28.8178  -11.1974   18.0308 C   0  0  0  0  0  0  0  0  0  0  0  0
  -29.4367  -15.1304   22.9229 C   0  0  0  0  0  0  0  0  0  0  0  0
  -26.7828  -23.9740   20.4554 C   0  0  0  0  0  0  0  0  0  0  0  0
  -29.1866  -16.3150   25.1682 C   0  0  0  0  0  0  0  0  0  0  0  0
  -18.2801  -29.1849   24.4770 C   0  0  0  0  0  0  0  0  0  0  0  0
  -24.6516  -29.1904   20.0269 C   0  0  0  0  0  0  0  0  0  0  0  0
  -19.0674  -29.9661   23.6098 C   0  0  0  0  0  0  0  0  0  0  0  0
  -25.8445  -29.7586   20.5034 C   0  0  0  0  0  0  0  0  0  0  0  0
  -24.3828  -23.9639   20.1779 C   0  0  0  0  0  0  0  0  0  0  0  0
  -25.4320  -22.3874   21.6782 C   0  0  0  0  0  0  0  0  0  0  0  0
  -30.7530  -13.4957   21.0851 C   0  0  0  0  0  0  0  0  0  0  0  0
  -27.0014  -28.9794   18.5291 C   0  0  0  0  0  0  0  0  0  0  0  0
  -30.6429  -11.7520   19.5135 C   0  0  0  0  0  0  0  0  0  0  0  0
  -29.1295   -9.8433   18.1537 C   0  0  0  0  0  0  0  0  0  0  0  0
  -29.5745  -12.1517   18.7106 C   0  0  0  0  0  0  0  0  0  0  0  0
  -28.7567  -15.9753   23.8715 C   0  0  0  0  0  0  0  0  0  0  0  0
  -28.1965  -17.1332   25.6548 C   0  0  0  0  0  0  0  0  0  0  0  0
  -28.1036  -24.5361   20.1233 C   0  0  0  0  0  0  0  0  0  0  0  0
  -28.3673  -25.2560   19.0238 C   0  0  0  0  0  0  0  0  0  0  0  0
  -30.3747  -15.9259   25.8701 C   0  0  0  0  0  0  0  0  0  0  0  0
  -29.7444  -25.7747   18.7722 C   0  0  0  0  0  0  0  0  0  0  0  0
  -22.7030  -30.2942   23.0369 C   0  0  0  0  0  0  0  0  0  0  0  0
  -25.4347  -29.3319   24.0477 C   0  0  0  0  0  0  0  0  0  0  0  0
  -27.8955  -27.4671   24.6558 C   0  0  0  0  0  0  0  0  0  0  0  0
  -24.1664  -20.6742   23.0234 C   0  0  0  0  0  0  0  0  0  0  0  0
  -18.7107  -28.8924   25.8925 C   0  0  0  0  0  0  0  0  0  0  0  0
  -23.3955  -29.3873   20.8313 C   0  0  0  0  0  0  0  0  0  0  0  0
  -25.8015  -30.4920   21.8161 C   0  0  0  0  0  0  0  0  0  0  0  0
  -20.1998  -29.1237   26.1362 C   0  0  0  0  0  0  0  0  0  0  0  0
  -23.4999  -17.9770   25.2500 C   0  0  0  0  0  0  0  0  0  0  0  0
  -20.6365  -30.4598   25.5438 C   0  0  0  0  0  0  0  0  0  0  0  0
  -24.8134  -17.1919   25.2719 C   0  0  0  0  0  0  0  0  0  0  0  0
  -23.2011  -18.5440   23.8632 C   0  0  0  0  0  0  0  0  0  0  0  0
  -25.5978  -18.5543   23.2931 C   0  0  0  0  0  0  0  0  0  0  0  0
  -20.4273  -30.4844   24.0248 C   0  0  1  0  0  0  0  0  0  0  0  0
  -23.6386  -29.3429   22.3505 C   0  0  1  0  0  0  0  0  0  0  0  0
  -25.9739  -18.0186   24.6842 C   0  0  2  0  0  0  0  0  0  0  0  0
  -23.1531  -24.5222   19.5450 C   0  0  0  0  0  0  0  0  0  0  0  0
  -29.8302  -26.6663   26.0390 C   0  0  0  0  0  0  0  0  0  0  0  0
  -26.3552  -32.2324   24.2565 C   0  0  0  0  0  0  0  0  0  0  0  0
  -28.3985  -31.4234   25.4559 C   0  0  0  0  0  0  0  0  0  0  0  0
  -26.1408  -31.0454   26.4472 C   0  0  0  0  0  0  0  0  0  0  0  0
  -26.7647  -24.7404   24.8687 C   0  0  0  0  0  0  0  0  0  0  0  0
  -29.9212  -26.5770   17.4936 C   0  0  0  0  0  0  0  0  0  0  0  0
  -30.3883  -28.0093   17.7383 C   0  0  0  0  0  0  0  0  0  0  0  0
  -29.3753  -28.8313   18.5265 C   0  0  0  0  0  0  0  0  0  1  0  0
  -26.8467  -29.7033   24.4241 C   0  0  1  0  0  0  0  0  0  0  0  0
  -28.3596  -26.4718   25.7038 C   0  0  2  0  0  0  0  0  0  0  0  0
  -26.9289  -31.0913   25.1200 C   0  0  0  0  0  0  0  0  0  0  0  0
  -27.5847  -16.5320   23.5544 N   0  0  0  0  0  0  0  0  0  0  0  0
  -27.2697  -17.2298   24.6589 N   0  0  0  0  0  0  0  0  0  0  0  0
  -24.9885  -29.7405   22.7850 N   0  0  0  0  0  0  0  0  0  0  0  0
  -24.3431  -19.3186   23.3725 N   0  0  0  0  0  0  0  0  0  0  0  0
  -28.0370  -17.7722   26.8332 N   0  0  0  0  0  0  0  0  0  0  0  0
  -31.2865  -15.0808   25.2230 N   0  0  0  0  0  0  0  0  0  0  0  0
  -25.3296  -21.3171   22.6011 N   0  0  0  0  0  0  0  0  0  0  0  0
  -21.4768  -29.7439   23.3580 N   0  0  0  0  0  0  0  0  0  0  0  0
  -27.3581  -28.5998   25.2298 N   0  0  0  0  0  0  0  0  0  0  0  0
  -28.1699  -25.0772   25.2137 N   0  3  0  0  0  0  0  0  0  0  0  0
  -30.6126  -16.3028   27.0427 O   0  0  0  0  0  0  0  0  0  0  0  0
  -30.6745  -25.5361   19.5381 O   0  0  0  0  0  0  0  0  0  0  0  0
  -23.0662  -31.4430   23.2606 O   0  0  0  0  0  0  0  0  0  0  0  0
  -24.7422  -28.7016   24.8516 O   0  0  0  0  0  0  0  0  0  0  0  0
  -28.0027  -27.2621   23.4487 O   0  0  0  0  0  0  0  0  0  0  0  0
  -23.0701  -21.2316   23.1197 O   0  0  0  0  0  0  0  0  0  0  0  0
  -31.3956  -12.6984   20.1884 O   0  0  0  0  0  0  0  0  0  0  0  0
  -28.1467  -28.8636   17.8014 O   0  0  0  0  0  0  0  0  0  1  0  0
  -28.4038   -8.9268   17.4997 F   0  0  0  0  0  0  0  0  0  0  0  0
  -29.2710  -13.4512   18.5877 F   0  0  0  0  0  0  0  0  0  0  0  0
  1  2  1  0  0  0  0
  1  5  2  0  0  0  0
  2  6  2  0  0  0  0
  3  8  2  0  0  0  0
  3 18  1  0  0  0  0
  4  9  1  0  0  0  0
  4 18  2  0  0  0  0
  5 21  1  0  0  0  0
  6 23  1  0  0  0  0
  7 10  2  0  0  0  0
  7 22  1  0  0  0  0
  8 27  1  0  0  0  0
  9 27  2  0  0  0  0
 10 28  1  0  0  0  0
 11 12  2  0  0  0  0
 11 29  1  0  0  0  0
 12 30  1  0  0  0  0
 13 19  1  0  0  0  0
 13 25  2  0  0  0  0
 14 19  2  0  0  0  0
 14 26  1  0  0  0  0
 15 24  1  0  0  0  0
 15 28  2  0  0  0  0
 16 25  1  0  0  0  0
 16 26  2  0  0  0  0
 17 30  2  0  0  0  0
 17 31  1  0  0  0  0
 18 32  1  0  0  0  0
 19 34  1  0  0  0  0
 20 32  1  0  0  0  0
 20 33  2  0  0  0  0
 20 36  1  0  0  0  0
 21 23  2  0  0  0  0
 21 42  1  0  0  0  0
 22 24  2  0  0  0  0
 22 43  1  0  0  0  0
 23 51  1  0  0  0  0
 24 44  1  0  0  0  0
 25 54  1  0  0  0  0
 26 72  1  0  0  0  0
 27 82  1  0  0  0  0
 28 83  1  0  0  0  0
 29 31  2  0  0  0  0
 29 82  1  0  0  0  0
 30 84  1  0  0  0  0
 31 85  1  0  0  0  0
 32 66  2  0  0  0  0
 33 67  1  0  0  0  0
 33 70  1  0  0  0  0
 34 35  2  0  0  0  0
 35 37  1  0  0  0  0
 36 71  1  0  0  0  0
 36 76  2  0  0  0  0
 37 60  1  0  0  0  0
 37 77  2  0  0  0  0
 38 52  1  0  0  0  0
 38 73  1  0  0  0  0
 38 78  2  0  0  0  0
 39 63  1  0  0  0  0
 39 68  1  0  0  0  0
 39 79  2  0  0  0  0
 40 64  1  0  0  0  0
 40 74  1  0  0  0  0
 40 80  2  0  0  0  0
 41 69  1  0  0  0  0
 41 72  1  0  0  0  0
 41 81  2  0  0  0  0
 42 45  1  0  0  0  0
 43 52  1  0  0  0  0
 44 68  1  0  0  0  0
 45 47  1  0  0  0  0
 46 48  1  0  0  0  0
 46 49  1  0  0  0  0
 47 51  1  0  0  0  0
 48 53  1  0  0  0  0
 49 69  1  0  0  0  0
 50 53  1  0  0  0  0
 50 69  1  0  0  0  0
 51 73  1  0  0  0  0
 52 68  1  0  0  0  0
 53 67  1  0  0  0  0
 55 64  1  0  0  0  0
 56 65  1  0  0  0  0
 57 65  1  0  0  0  0
 58 65  1  0  0  0  0
 59 75  1  0  0  0  0
 60 61  1  0  0  0  0
 61 62  1  0  0  0  0
 62 83  1  0  0  0  0
 63 65  1  0  0  0  0
 63 74  1  0  0  0  0
 64 75  1  0  0  0  0
 66 67  1  0  0  0  0
M  CHG  1  75   1
M  ISO  4  41 100  62 101  72 100  83 101
M  END
> <Batch ID>
0128

> <Smiles>
CNC(C)C(=O)NC(C(=O)N1Cc2cc([101O:1][101CH2:1]CCC(=O)C=Cc3cc(C)cc([100NH:0][100C:0](=O)N4CCCC(n5nc(-c6ccc(Oc7ccc(F)cc7F)cc6)c(C(N)=O)c5N)C4)c3)ccc2CC1C(=O)NC1CCCc2ccccc21)C(C)(C)C

> <Shape>
0.201

> <Color>
0.087

> <Negative vol penalty>
0.000

$$$$

  -OEChem-04052302163D

 84 92  0     1  0  0  0  0  0999 V2000
  -27.4256  -33.7309   26.4648 C   0  0  0  0  0  0  0  0  0  0  0  0
  -27.7091  -32.5644   25.7617 C   0  0  0  0  0  0  0  0  0  0  0  0
  -26.2711  -11.7378   21.3211 C   0  0  0  0  0  0  0  0  0  0  0  0
  -25.6064  -12.3575   19.0826 C   0  0  0  0  0  0  0  0  0  0  0  0
  -26.1047  -34.0549   26.7716 C   0  0  0  0  0  0  0  0  0  0  0  0
  -26.6719  -31.7206   25.3659 C   0  0  0  0  0  0  0  0  0  0  0  0
  -27.1752  -30.1346   20.5830 C   0  0  0  0  0  0  0  0  0  0  0  0
  -24.9879  -11.2494   21.5670 C   0  0  0  0  0  0  0  0  0  0  0  0
  -24.3232  -11.8691   19.3284 C   0  0  0  0  0  0  0  0  0  0  0  0
  -28.0900  -29.1098   20.3450 C   0  0  0  0  0  0  0  0  0  0  0  0
  -23.1991   -8.4722   20.8459 C   0  0  0  0  0  0  0  0  0  0  0  0
  -23.0868   -7.2335   21.4772 C   0  0  0  0  0  0  0  0  0  0  0  0
  -27.8386  -21.4169   14.9157 C   0  0  0  0  0  0  0  0  0  0  0  0
  -28.9705  -20.9680   17.0024 C   0  0  0  0  0  0  0  0  0  0  0  0
  -26.2808  -27.5150   20.2933 C   0  0  0  0  0  0  0  0  0  0  0  0
  -28.3598  -19.1425   15.5424 C   0  0  0  0  0  0  0  0  0  0  0  0
  -21.8767   -8.2691   23.2939 C   0  0  0  0  0  0  0  0  0  0  0  0
  -26.5804  -12.2919   20.0789 C   0  0  0  0  0  0  0  0  0  0  0  0
  -28.4194  -21.8758   16.0979 C   0  0  0  0  0  0  0  0  0  0  0  0
  -29.0012  -12.0843   19.3016 C   0  0  0  0  0  0  0  0  0  0  0  0
  -25.0500  -33.2196   26.3710 C   0  0  0  0  0  0  0  0  0  0  0  0
  -25.8051  -29.8553   20.6890 C   0  0  0  0  0  0  0  0  0  0  0  0
  -25.3357  -32.0331   25.6689 C   0  0  0  0  0  0  0  0  0  0  0  0
  -25.3504  -28.5384   20.5302 C   0  0  0  0  0  0  0  0  0  0  0  0
  -27.8087  -20.0502   14.6380 C   0  0  0  0  0  0  0  0  0  0  0  0
  -28.9407  -19.6014   16.7246 C   0  0  0  0  0  0  0  0  0  0  0  0
  -24.0139  -11.3150   20.5707 C   0  0  0  0  0  0  0  0  0  0  0  0
  -27.6432  -27.7994   20.2030 C   0  0  0  0  0  0  0  0  0  0  0  0
  -22.6502   -9.6094   21.4386 C   0  0  0  0  0  0  0  0  0  0  0  0
  -22.4256   -7.1319   22.7012 C   0  0  0  0  0  0  0  0  0  0  0  0
  -21.9890   -9.5078   22.6626 C   0  0  0  0  0  0  0  0  0  0  0  0
  -27.9056  -12.7971   19.8245 C   0  0  0  0  0  0  0  0  0  0  0  0
  -30.0188  -13.0056   19.2536 C   0  0  0  0  0  0  0  0  0  0  0  0
  -28.4508  -23.3194   16.3921 C   0  0  0  0  0  0  0  0  0  0  0  0
  -29.2861  -23.9005   17.2646 C   0  0  0  0  0  0  0  0  0  0  0  0
  -29.0910  -10.7122   18.8956 C   0  0  0  0  0  0  0  0  0  0  0  0
  -29.2310  -25.3744   17.4989 C   0  0  0  0  0  0  0  0  0  0  0  0
  -23.6235  -30.1645   22.9801 C   0  0  0  0  0  0  0  0  0  0  0  0
  -21.5903  -29.2309   20.6313 C   0  0  0  0  0  0  0  0  0  0  0  0
  -21.1403  -27.5971   17.6690 C   0  0  0  0  0  0  0  0  0  0  0  0
  -30.1128  -18.9674   18.8625 C   0  0  0  0  0  0  0  0  0  0  0  0
  -23.6420  -33.5876   26.7669 C   0  0  0  0  0  0  0  0  0  0  0  0
  -24.8284  -30.9758   20.9195 C   0  0  0  0  0  0  0  0  0  0  0  0
  -23.8879  -28.1887   20.6152 C   0  0  0  0  0  0  0  0  0  0  0  0
  -22.5718  -32.8301   25.9851 C   0  0  0  0  0  0  0  0  0  0  0  0
  -31.5793  -16.9781   21.4256 C   0  0  0  0  0  0  0  0  0  0  0  0
  -22.9061  -31.3430   25.9260 C   0  0  0  0  0  0  0  0  0  0  0  0
  -30.9078  -15.6136   21.2544 C   0  0  0  0  0  0  0  0  0  0  0  0
  -30.6104  -18.1260   21.1471 C   0  0  0  0  0  0  0  0  0  0  0  0
  -29.2459  -16.6891   19.6833 C   0  0  0  0  0  0  0  0  0  0  0  0
  -24.2360  -31.1049   25.2007 C   0  0  1  0  0  0  0  0  0  0  0  0
  -23.5083  -30.5035   21.5208 C   0  0  1  0  0  0  0  0  0  0  0  0
  -30.1997  -15.5012   19.8900 C   0  0  2  0  0  0  0  0  0  0  0  0
  -27.1871  -19.5590   13.3744 C   0  0  0  0  0  0  0  0  0  0  0  0
  -19.3593  -26.9695   16.0163 C   0  0  0  0  0  0  0  0  0  0  0  0
  -20.6122  -27.0430   22.5198 C   0  0  0  0  0  0  0  0  0  0  0  0
  -19.5746  -25.9015   20.5478 C   0  0  0  0  0  0  0  0  0  0  0  0
  -18.8062  -28.1790   21.2151 C   0  0  0  0  0  0  0  0  0  0  0  0
  -22.4543  -29.1210   15.4988 C   0  0  0  0  0  0  0  0  0  0  0  0
  -30.2309  -25.9099   18.5124 C   0  0  0  0  0  0  0  0  0  0  0  0
  -29.7214  -27.1361   19.2559 C   0  0  0  0  0  0  0  0  0  1  0  0
  -21.0731  -27.9042   20.1298 C   0  0  1  0  0  0  0  0  0  0  0  0
  -20.4128  -27.9975   16.3982 C   0  0  2  0  0  0  0  0  0  0  0  0
  -20.0444  -27.2629   21.1034 C   0  0  0  0  0  0  0  0  0  0  0  0
  -28.1995  -14.0727   20.0898 N   0  0  0  0  0  0  0  0  0  0  0  0
  -29.4914  -14.1687   19.7323 N   0  0  0  0  0  0  0  0  0  0  0  0
  -22.9727  -29.3182   20.8481 N   0  0  0  0  0  0  0  0  0  0  0  0
  -29.9807  -17.9547   19.8360 N   0  0  0  0  0  0  0  0  0  0  0  0
  -31.3042  -12.9260   18.8491 N   0  0  0  0  0  0  0  0  0  0  0  0
  -27.9511   -9.9051   19.0115 N   0  0  0  0  0  0  0  0  0  0  0  0
  -29.4995  -18.6791   17.6438 N   0  0  0  0  0  0  0  0  0  0  0  0
  -24.0572  -31.2131   23.7687 N   0  0  0  0  0  0  0  0  0  0  0  0
  -20.5542  -28.1490   18.7885 N   0  0  0  0  0  0  0  0  0  0  0  0
  -21.3761  -28.1253   15.2683 N   0  3  0  0  0  0  0  0  0  0  0  0
  -30.1553  -10.2122   18.4588 O   0  0  0  0  0  0  0  0  0  0  0  0
  -28.4303  -26.0931   16.9070 O   0  0  0  0  0  0  0  0  0  0  0  0
  -23.3385  -29.0357   23.3624 O   0  0  0  0  0  0  0  0  0  0  0  0
  -20.7978  -30.1578   20.8168 O   0  0  0  0  0  0  0  0  0  0  0  0
  -22.1273  -26.8647   17.6690 O   0  0  0  0  0  0  0  0  0  0  0  0
  -30.7480  -20.0015   19.0840 O   0  0  0  0  0  0  0  0  0  0  0  0
  -22.7617  -10.8384   20.8102 O   0  0  0  0  0  0  0  0  0  0  0  0
  -28.5340  -26.7971   19.9712 O   0  0  0  0  0  0  0  0  0  1  0  0
  -22.3166   -5.9421   23.3066 F   0  0  0  0  0  0  0  0  0  0  0  0
  -21.4586  -10.5966   23.2363 F   0  0  0  0  0  0  0  0  0  0  0  0
  1  2  1  0  0  0  0
  1  5  2  0  0  0  0
  2  6  2  0  0  0  0
  3  8  2  0  0  0  0
  3 18  1  0  0  0  0
  4  9  1  0  0  0  0
  4 18  2  0  0  0  0
  5 21  1  0  0  0  0
  6 23  1  0  0  0  0
  7 10  2  0  0  0  0
  7 22  1  0  0  0  0
  8 27  1  0  0  0  0
  9 27  2  0  0  0  0
 10 28  1  0  0  0  0
 11 12  2  0  0  0  0
 11 29  1  0  0  0  0
 12 30  1  0  0  0  0
 13 19  1  0  0  0  0
 13 25  2  0  0  0  0
 14 19  2  0  0  0  0
 14 26  1  0  0  0  0
 15 24  1  0  0  0  0
 15 28  2  0  0  0  0
 16 25  1  0  0  0  0
 16 26  2  0  0  0  0
 17 30  2  0  0  0  0
 17 31  1  0  0  0  0
 18 32  1  0  0  0  0
 19 34  1  0  0  0  0
 20 32  1  0  0  0  0
 20 33  2  0  0  0  0
 20 36  1  0  0  0  0
 21 23  2  0  0  0  0
 21 42  1  0  0  0  0
 22 24  2  0  0  0  0
 22 43  1  0  0  0  0
 23 51  1  0  0  0  0
 24 44  1  0  0  0  0
 25 54  1  0  0  0  0
 26 71  1  0  0  0  0
 27 81  1  0  0  0  0
 28 82  1  0  0  0  0
 29 31  2  0  0  0  0
 29 81  1  0  0  0  0
 30 83  1  0  0  0  0
 31 84  1  0  0  0  0
 32 65  2  0  0  0  0
 33 66  1  0  0  0  0
 33 69  1  0  0  0  0
 34 35  2  0  0  0  0
 35 37  1  0  0  0  0
 36 70  1  0  0  0  0
 36 75  2  0  0  0  0
 37 60  1  0  0  0  0
 37 76  2  0  0  0  0
 38 52  1  0  0  0  0
 38 72  1  0  0  0  0
 38 77  2  0  0  0  0
 39 62  1  0  0  0  0
 39 67  1  0  0  0  0
 39 78  2  0  0  0  0
 40 63  1  0  0  0  0
 40 73  1  0  0  0  0
 40 79  2  0  0  0  0
 41 68  1  0  0  0  0
 41 71  1  0  0  0  0
 41 80  2  0  0  0  0
 42 45  1  0  0  0  0
 43 52  1  0  0  0  0
 44 67  1  0  0  0  0
 45 47  1  0  0  0  0
 46 48  1  0  0  0  0
 46 49  1  0  0  0  0
 47 51  1  0  0  0  0
 48 53  1  0  0  0  0
 49 68  1  0  0  0  0
 50 53  1  0  0  0  0
 50 68  1  0  0  0  0
 51 72  1  0  0  0  0
 52 67  1  0  0  0  0
 53 66  1  0  0  0  0
 55 63  1  0  0  0  0
 56 64  1  0  0  0  0
 57 64  1  0  0  0  0
 58 64  1  0  0  0  0
 59 74  1  0  0  0  0
 60 61  1  0  0  0  0
 61 82  1  0  0  0  0
 62 64  1  0  0  0  0
 62 73  1  0  0  0  0
 63 74  1  0  0  0  0
 65 66  1  0  0  0  0
M  CHG  1  74   1
M  ISO  4  41 100  61 101  71 100  82 101
M  END
> <Batch ID>
0128

> <Smiles>
CNC(C)C(=O)NC(C(=O)N1Cc2cc([101O:1][101CH2:1]CC(=O)C=Cc3cc(C)cc([100NH:0][100C:0](=O)N4CCCC(n5nc(-c6ccc(Oc7ccc(F)cc7F)cc6)c(C(N)=O)c5N)C4)c3)ccc2CC1C(=O)NC1CCCc2ccccc21)C(C)(C)C

> <Shape>
0.329

> <Color>
0.088

> <Negative vol penalty>
0.000

$$$$

  -OEChem-04052302163D

 85 93  0     1  0  0  0  0  0999 V2000
  -28.7758  -39.8686   22.8249 C   0  0  0  0  0  0  0  0  0  0  0  0
  -29.2939  -38.6758   22.3307 C   0  0  0  0  0  0  0  0  0  0  0  0
  -24.3977   -9.2721   22.1643 C   0  0  0  0  0  0  0  0  0  0  0  0
  -24.2442   -8.7611   19.8079 C   0  0  0  0  0  0  0  0  0  0  0  0
  -27.9259  -39.8533   23.9301 C   0  0  0  0  0  0  0  0  0  0  0  0
  -28.9633  -37.4670   22.9422 C   0  0  0  0  0  0  0  0  0  0  0  0
  -28.1868  -32.0460   20.2007 C   0  0  0  0  0  0  0  0  0  0  0  0
  -23.2391   -8.5321   22.4002 C   0  0  0  0  0  0  0  0  0  0  0  0
  -23.0856   -8.0210   20.0439 C   0  0  0  0  0  0  0  0  0  0  0  0
  -29.0275  -30.9448   20.0448 C   0  0  0  0  0  0  0  0  0  0  0  0
  -22.3821   -5.2753   22.7030 C   0  0  0  0  0  0  0  0  0  0  0  0
  -22.3830   -4.3977   23.7872 C   0  0  0  0  0  0  0  0  0  0  0  0
  -30.3700  -21.5343   19.9921 C   0  0  0  0  0  0  0  0  0  0  0  0
  -28.3598  -22.3010   21.0913 C   0  0  0  0  0  0  0  0  0  0  0  0
  -28.0180  -29.9085   21.9752 C   0  0  0  0  0  0  0  0  0  0  0  0
  -20.5254   -5.5976   24.7601 C   0  0  0  0  0  0  0  0  0  0  0  0
  -24.9002   -9.3867   20.8681 C   0  0  0  0  0  0  0  0  0  0  0  0
  -29.5438  -22.5783   20.4080 C   0  0  0  0  0  0  0  0  0  0  0  0
  -28.8282  -19.9355   20.9429 C   0  0  0  0  0  0  0  0  0  0  0  0
  -27.4237   -9.6819   20.6388 C   0  0  0  0  0  0  0  0  0  0  0  0
  -27.5770  -38.6428   24.5494 C   0  0  0  0  0  0  0  0  0  0  0  0
  -27.2614  -32.0917   21.2533 C   0  0  0  0  0  0  0  0  0  0  0  0
  -28.1091  -37.4356   24.0575 C   0  0  0  0  0  0  0  0  0  0  0  0
  -27.1650  -31.0104   22.1408 C   0  0  0  0  0  0  0  0  0  0  0  0
  -30.0122  -20.2128   20.2595 C   0  0  0  0  0  0  0  0  0  0  0  0
  -22.5831   -7.9065   21.3401 C   0  0  0  0  0  0  0  0  0  0  0  0
  -28.9452  -29.8771   20.9339 C   0  0  0  0  0  0  0  0  0  0  0  0
  -21.4529   -6.3141   22.6474 C   0  0  0  0  0  0  0  0  0  0  0  0
  -21.4547   -4.5588   24.8157 C   0  0  0  0  0  0  0  0  0  0  0  0
  -28.0020  -20.9796   21.3588 C   0  0  0  0  0  0  0  0  0  0  0  0
  -20.5245   -6.4753   23.6759 C   0  0  0  0  0  0  0  0  0  0  0  0
  -26.0966  -10.1514   20.6236 C   0  0  0  0  0  0  0  0  0  0  0  0
  -28.1830  -10.7889   20.3484 C   0  0  0  0  0  0  0  0  0  0  0  0
  -29.9216  -23.9745   20.1261 C   0  0  0  0  0  0  0  0  0  0  0  0
  -28.4330  -18.5636   21.2351 C   0  0  0  0  0  0  0  0  0  0  0  0
  -29.4393  -25.0404   20.7803 C   0  0  0  0  0  0  0  0  0  0  0  0
  -27.3083  -17.9646   20.7939 C   0  0  0  0  0  0  0  0  0  0  0  0
  -27.9252   -8.3629   20.8927 C   0  0  0  0  0  0  0  0  0  0  0  0
  -29.8799  -26.4169   20.4105 C   0  0  0  0  0  0  0  0  0  0  0  0
  -27.0525  -16.5596   21.1695 C   0  0  0  0  0  0  0  0  0  0  0  0
  -26.8117  -33.9883   23.7641 C   0  0  0  0  0  0  0  0  0  0  0  0
  -24.1313  -32.2010   24.1427 C   0  0  0  0  0  0  0  0  0  0  0  0
  -22.5070  -29.2561   23.5632 C   0  0  0  0  0  0  0  0  0  0  0  0
  -26.6926  -38.6806   25.7705 C   0  0  0  0  0  0  0  0  0  0  0  0
  -26.3433  -33.2750   21.3918 C   0  0  0  0  0  0  0  0  0  0  0  0
  -26.1744  -31.0015   23.2753 C   0  0  0  0  0  0  0  0  0  0  0  0
  -26.0929  -37.3238   26.1305 C   0  0  0  0  0  0  0  0  0  0  0  0
  -28.0178  -14.9499   18.0216 C   0  0  0  0  0  0  0  0  0  0  0  0
  -27.1637  -36.2383   26.0869 C   0  0  0  0  0  0  0  0  0  0  0  0
  -27.7048  -13.4884   18.3311 C   0  0  0  0  0  0  0  0  0  0  0  0
  -27.0357  -15.9016   18.7031 C   0  0  0  0  0  0  0  0  0  0  0  0
  -26.6170  -14.2323   20.4860 C   0  0  0  0  0  0  0  0  0  0  0  0
  -27.7540  -36.1019   24.6782 C   0  0  1  0  0  0  0  0  0  0  0  0
  -25.7926  -33.4418   22.8048 C   0  0  1  0  0  0  0  0  0  0  0  0
  -27.6210  -13.2592   19.8486 C   0  0  1  0  0  0  0  0  0  0  0  0
  -30.9214  -19.1195   19.7976 C   0  0  0  0  0  0  0  0  0  0  0  0
  -20.3421  -28.0756   24.0293 C   0  0  0  0  0  0  0  0  0  0  0  0
  -25.0389  -31.6730   27.0076 C   0  0  0  0  0  0  0  0  0  0  0  0
  -23.4007  -29.7821   27.1041 C   0  0  0  0  0  0  0  0  0  0  0  0
  -22.5905  -32.1153   26.7536 C   0  0  0  0  0  0  0  0  0  0  0  0
  -21.8720  -29.0367   20.6809 C   0  0  0  0  0  0  0  0  0  0  0  0
  -29.2652  -27.5381   21.2214 C   0  0  0  0  0  0  0  0  0  1  0  0
  -23.7918  -30.9248   24.8742 C   0  0  1  0  0  0  0  0  0  0  0  0
  -21.1065  -28.9608   23.0572 C   0  0  2  0  0  0  0  0  0  0  0  0
  -23.7256  -31.1245   26.4148 C   0  0  0  0  0  0  0  0  0  0  0  0
  -26.0142  -11.4553   20.3457 N   0  0  0  0  0  0  0  0  0  0  0  0
  -27.2990  -11.8144   20.1836 N   0  0  0  0  0  0  0  0  0  0  0  0
  -26.9291  -15.6244   20.1435 N   0  0  0  0  0  0  0  0  0  0  0  0
  -25.3029  -32.1841   23.3727 N   0  0  0  0  0  0  0  0  0  0  0  0
  -29.5139  -10.9755   20.2205 N   0  0  0  0  0  0  0  0  0  0  0  0
  -27.0073   -7.3419   21.1746 N   0  0  0  0  0  0  0  0  0  0  0  0
  -26.8487  -35.3685   23.8198 N   0  0  0  0  0  0  0  0  0  0  0  0
  -22.5530  -30.4320   24.2818 N   0  0  0  0  0  0  0  0  0  0  0  0
  -21.1673  -28.2682   21.7391 N   0  3  0  0  0  0  0  0  0  0  0  0
  -29.1519   -8.1010   20.8863 O   0  0  0  0  0  0  0  0  0  0  0  0
  -30.6874  -26.6231   19.5086 O   0  0  0  0  0  0  0  0  0  0  0  0
  -26.9586  -16.3002   22.3706 O   0  0  0  0  0  0  0  0  0  0  0  0
  -27.5116  -33.2150   24.4074 O   0  0  0  0  0  0  0  0  0  0  0  0
  -23.3808  -33.1746   24.2448 O   0  0  0  0  0  0  0  0  0  0  0  0
  -23.4636  -28.5156   23.3460 O   0  0  0  0  0  0  0  0  0  0  0  0
  -21.4527   -7.1841   21.5700 O   0  0  0  0  0  0  0  0  0  0  0  0
  -29.7650  -28.8013   20.7844 O   0  0  0  0  0  0  0  0  0  1  0  0
  -21.4547   -3.7151   25.8560 F   0  0  0  0  0  0  0  0  0  0  0  0
  -26.8599  -20.7307   22.0165 F   0  0  0  0  0  0  0  0  0  0  0  0
  -19.6286   -7.4707   23.6275 F   0  0  0  0  0  0  0  0  0  0  0  0
  1  2  1  0  0  0  0
  1  5  2  0  0  0  0
  2  6  2  0  0  0  0
  3  8  2  0  0  0  0
  3 17  1  0  0  0  0
  4  9  1  0  0  0  0
  4 17  2  0  0  0  0
  5 21  1  0  0  0  0
  6 23  1  0  0  0  0
  7 10  2  0  0  0  0
  7 22  1  0  0  0  0
  8 26  1  0  0  0  0
  9 26  2  0  0  0  0
 10 27  1  0  0  0  0
 11 12  2  0  0  0  0
 11 28  1  0  0  0  0
 12 29  1  0  0  0  0
 13 18  1  0  0  0  0
 13 25  2  0  0  0  0
 14 18  2  0  0  0  0
 14 30  1  0  0  0  0
 15 24  1  0  0  0  0
 15 27  2  0  0  0  0
 16 29  2  0  0  0  0
 16 31  1  0  0  0  0
 17 32  1  0  0  0  0
 18 34  1  0  0  0  0
 19 25  1  0  0  0  0
 19 30  2  0  0  0  0
 19 35  1  0  0  0  0
 20 32  1  0  0  0  0
 20 33  2  0  0  0  0
 20 38  1  0  0  0  0
 21 23  2  0  0  0  0
 21 44  1  0  0  0  0
 22 24  2  0  0  0  0
 22 45  1  0  0  0  0
 23 53  1  0  0  0  0
 24 46  1  0  0  0  0
 25 56  1  0  0  0  0
 26 81  1  0  0  0  0
 27 82  1  0  0  0  0
 28 31  2  0  0  0  0
 28 81  1  0  0  0  0
 29 83  1  0  0  0  0
 30 84  1  0  0  0  0
 31 85  1  0  0  0  0
 32 66  2  0  0  0  0
 33 67  1  0  0  0  0
 33 70  1  0  0  0  0
 34 36  2  0  0  0  0
 35 37  2  0  0  0  0
 36 39  1  0  0  0  0
 37 40  1  0  0  0  0
 38 71  1  0  0  0  0
 38 75  2  0  0  0  0
 39 62  1  0  0  0  0
 39 76  2  0  0  0  0
 40 68  1  0  0  0  0
 40 77  2  0  0  0  0
 41 54  1  0  0  0  0
 41 72  1  0  0  0  0
 41 78  2  0  0  0  0
 42 63  1  0  0  0  0
 42 69  1  0  0  0  0
 42 79  2  0  0  0  0
 43 64  1  0  0  0  0
 43 73  1  0  0  0  0
 43 80  2  0  0  0  0
 44 47  1  0  0  0  0
 45 54  1  0  0  0  0
 46 69  1  0  0  0  0
 47 49  1  0  0  0  0
 48 50  1  0  0  0  0
 48 51  1  0  0  0  0
 49 53  1  0  0  0  0
 50 55  1  0  0  0  0
 51 68  1  0  0  0  0
 52 55  1  0  0  0  0
 52 68  1  0  0  0  0
 53 72  1  0  0  0  0
 54 69  1  0  0  0  0
 55 67  1  0  0  0  0
 57 64  1  0  0  0  0
 58 65  1  0  0  0  0
 59 65  1  0  0  0  0
 60 65  1  0  0  0  0
 61 74  1  0  0  0  0
 62 82  1  0  0  0  0
 63 65  1  0  0  0  0
 63 73  1  0  0  0  0
 64 74  1  0  0  0  0
 66 67  1  0  0  0  0
M  CHG  1  74   1
M  ISO  4  37 100  40 100  62 101  82 101
M  END
> <Batch ID>
0128

> <Smiles>
CNC(C)C(=O)NC(C(=O)N1Cc2cc([101O:1][101CH2:1]C(=O)C=Cc3cc(C)c(C=[100CH:0][100C:0](=O)N4CCCC(n5nc(-c6ccc(Oc7ccc(F)cc7F)cc6)c(C(N)=O)c5N)C4)c(F)c3)ccc2CC1C(=O)NC1CCCc2ccccc21)C(C)(C)C

> <Shape>
0.315

> <Color>
0.097

> <Negative vol penalty>
0.000

$$$$

  -OEChem-04052302163D

 84 92  0     1  0  0  0  0  0999 V2000
  -27.4271  -33.7328   26.4622 C   0  0  0  0  0  0  0  0  0  0  0  0
  -27.7101  -32.5658   25.7598 C   0  0  0  0  0  0  0  0  0  0  0  0
  -26.2730  -11.7286   21.3206 C   0  0  0  0  0  0  0  0  0  0  0  0
  -25.6058  -12.3501   19.0833 C   0  0  0  0  0  0  0  0  0  0  0  0
  -26.1064  -34.0576   26.7688 C   0  0  0  0  0  0  0  0  0  0  0  0
  -26.6724  -31.7223   25.3645 C   0  0  0  0  0  0  0  0  0  0  0  0
  -27.1749  -30.1332   20.5826 C   0  0  0  0  0  0  0  0  0  0  0  0
  -24.9902  -11.2398   21.5675 C   0  0  0  0  0  0  0  0  0  0  0  0
  -24.3229  -11.8612   19.3302 C   0  0  0  0  0  0  0  0  0  0  0  0
  -28.0892  -29.1078   20.3451 C   0  0  0  0  0  0  0  0  0  0  0  0
  -23.2010   -8.4629   20.8459 C   0  0  0  0  0  0  0  0  0  0  0  0
  -23.0897   -7.2236   21.4763 C   0  0  0  0  0  0  0  0  0  0  0  0
  -28.9659  -20.9631   17.0064 C   0  0  0  0  0  0  0  0  0  0  0  0
  -27.8346  -21.4128   14.9197 C   0  0  0  0  0  0  0  0  0  0  0  0
  -26.2793  -27.5139   20.2944 C   0  0  0  0  0  0  0  0  0  0  0  0
  -28.3557  -19.1382   15.5454 C   0  0  0  0  0  0  0  0  0  0  0  0
  -21.8814   -8.2574   23.2952 C   0  0  0  0  0  0  0  0  0  0  0  0
  -26.5808  -12.2838   20.0786 C   0  0  0  0  0  0  0  0  0  0  0  0
  -28.4151  -21.8712   16.1022 C   0  0  0  0  0  0  0  0  0  0  0  0
  -29.0009  -12.0773   19.2985 C   0  0  0  0  0  0  0  0  0  0  0  0
  -25.0513  -33.2226   26.3687 C   0  0  0  0  0  0  0  0  0  0  0  0
  -25.8047  -29.8546   20.6887 C   0  0  0  0  0  0  0  0  0  0  0  0
  -25.3364  -32.0356   25.6673 C   0  0  0  0  0  0  0  0  0  0  0  0
  -25.3494  -28.5379   20.5307 C   0  0  0  0  0  0  0  0  0  0  0  0
  -28.9362  -19.5966   16.7280 C   0  0  0  0  0  0  0  0  0  0  0  0
  -24.0151  -11.3060   20.5723 C   0  0  0  0  0  0  0  0  0  0  0  0
  -27.6418  -27.7975   20.2038 C   0  0  0  0  0  0  0  0  0  0  0  0
  -22.6526   -9.5994   21.4402 C   0  0  0  0  0  0  0  0  0  0  0  0
  -22.4299   -7.1208   22.7009 C   0  0  0  0  0  0  0  0  0  0  0  0
  -27.8048  -20.0463   14.6412 C   0  0  0  0  0  0  0  0  0  0  0  0
  -21.9928   -9.4967   22.6648 C   0  0  0  0  0  0  0  0  0  0  0  0
  -27.9057  -12.7894   19.8232 C   0  0  0  0  0  0  0  0  0  0  0  0
  -30.0182  -12.9987   19.2501 C   0  0  0  0  0  0  0  0  0  0  0  0
  -28.4471  -23.3149   16.3956 C   0  0  0  0  0  0  0  0  0  0  0  0
  -29.2827  -23.8962   17.2677 C   0  0  0  0  0  0  0  0  0  0  0  0
  -29.0905  -10.7055   18.8912 C   0  0  0  0  0  0  0  0  0  0  0  0
  -29.2284  -25.3703   17.5012 C   0  0  0  0  0  0  0  0  0  0  0  0
  -23.6233  -30.1663   22.9796 C   0  0  0  0  0  0  0  0  0  0  0  0
  -21.5896  -29.2323   20.6313 C   0  0  0  0  0  0  0  0  0  0  0  0
  -21.1388  -27.5970   17.6700 C   0  0  0  0  0  0  0  0  0  0  0  0
  -30.1107  -18.9609   18.8641 C   0  0  0  0  0  0  0  0  0  0  0  0
  -23.6434  -33.5915   26.7644 C   0  0  0  0  0  0  0  0  0  0  0  0
  -24.8286  -30.9757   20.9185 C   0  0  0  0  0  0  0  0  0  0  0  0
  -23.8867  -28.1890   20.6158 C   0  0  0  0  0  0  0  0  0  0  0  0
  -22.5729  -32.8341   25.9831 C   0  0  0  0  0  0  0  0  0  0  0  0
  -31.5804  -16.9698   21.4238 C   0  0  0  0  0  0  0  0  0  0  0  0
  -22.9064  -31.3468   25.9248 C   0  0  0  0  0  0  0  0  0  0  0  0
  -30.9090  -15.6053   21.2522 C   0  0  0  0  0  0  0  0  0  0  0  0
  -30.6110  -18.1176   21.1474 C   0  0  0  0  0  0  0  0  0  0  0  0
  -29.2452  -16.6818   19.6838 C   0  0  0  0  0  0  0  0  0  0  0  0
  -24.2362  -31.1076   25.1997 C   0  0  1  0  0  0  0  0  0  0  0  0
  -23.5082  -30.5045   21.5201 C   0  0  1  0  0  0  0  0  0  0  0  0
  -30.1994  -15.4939   19.8885 C   0  0  2  0  0  0  0  0  0  0  0  0
  -19.3575  -26.9693   16.0177 C   0  0  0  0  0  0  0  0  0  0  0  0
  -20.6104  -27.0460   22.5211 C   0  0  0  0  0  0  0  0  0  0  0  0
  -19.5723  -25.9039   20.5498 C   0  0  0  0  0  0  0  0  0  0  0  0
  -18.8050  -28.1821   21.2157 C   0  0  0  0  0  0  0  0  0  0  0  0
  -22.4536  -29.1190   15.4989 C   0  0  0  0  0  0  0  0  0  0  0  0
  -30.2286  -25.9058   18.5143 C   0  0  0  0  0  0  0  0  0  0  0  0
  -29.7197  -27.1326   19.2572 C   0  0  0  0  0  0  0  0  0  1  0  0
  -21.0718  -27.9056   20.1307 C   0  0  1  0  0  0  0  0  0  0  0  0
  -20.4115  -27.9971   16.3990 C   0  0  2  0  0  0  0  0  0  0  0  0
  -20.0427  -27.2654   21.1046 C   0  0  0  0  0  0  0  0  0  0  0  0
  -28.1997  -14.0648   20.0892 N   0  0  0  0  0  0  0  0  0  0  0  0
  -29.4912  -14.1614   19.7304 N   0  0  0  0  0  0  0  0  0  0  0  0
  -22.9721  -29.3191   20.8481 N   0  0  0  0  0  0  0  0  0  0  0  0
  -29.9799  -17.9473   19.8368 N   0  0  0  0  0  0  0  0  0  0  0  0
  -31.3033  -12.9198   18.8442 N   0  0  0  0  0  0  0  0  0  0  0  0
  -27.9508   -9.8981   19.0076 N   0  0  0  0  0  0  0  0  0  0  0  0
  -29.4962  -18.6735   17.6457 N   0  0  0  0  0  0  0  0  0  0  0  0
  -24.0575  -31.2151   23.7676 N   0  0  0  0  0  0  0  0  0  0  0  0
  -20.5530  -28.1499   18.7892 N   0  0  0  0  0  0  0  0  0  0  0  0
  -21.3749  -28.1237   15.2690 N   0  3  0  0  0  0  0  0  0  0  0  0
  -30.1544  -10.2061   18.4528 O   0  0  0  0  0  0  0  0  0  0  0  0
  -28.4281  -26.0890   16.9089 O   0  0  0  0  0  0  0  0  0  0  0  0
  -23.3378  -29.0378   23.3626 O   0  0  0  0  0  0  0  0  0  0  0  0
  -20.7976  -30.1597   20.8163 O   0  0  0  0  0  0  0  0  0  0  0  0
  -22.1254  -26.8641   17.6704 O   0  0  0  0  0  0  0  0  0  0  0  0
  -30.7460  -19.9950   19.0857 O   0  0  0  0  0  0  0  0  0  0  0  0
  -22.7633  -10.8289   20.8127 O   0  0  0  0  0  0  0  0  0  0  0  0
  -28.5321  -26.7947   19.9726 O   0  0  0  0  0  0  0  0  0  1  0  0
  -22.3217   -5.9304   23.3054 F   0  0  0  0  0  0  0  0  0  0  0  0
  -27.2499  -19.6059   13.5045 F   0  0  0  0  0  0  0  0  0  0  0  0
  -21.4628  -10.5848   23.2400 F   0  0  0  0  0  0  0  0  0  0  0  0
  1  2  1  0  0  0  0
  1  5  2  0  0  0  0
  2  6  2  0  0  0  0
  3  8  2  0  0  0  0
  3 18  1  0  0  0  0
  4  9  1  0  0  0  0
  4 18  2  0  0  0  0
  5 21  1  0  0  0  0
  6 23  1  0  0  0  0
  7 10  2  0  0  0  0
  7 22  1  0  0  0  0
  8 26  1  0  0  0  0
  9 26  2  0  0  0  0
 10 27  1  0  0  0  0
 11 12  2  0  0  0  0
 11 28  1  0  0  0  0
 12 29  1  0  0  0  0
 13 19  2  0  0  0  0
 13 25  1  0  0  0  0
 14 19  1  0  0  0  0
 14 30  2  0  0  0  0
 15 24  1  0  0  0  0
 15 27  2  0  0  0  0
 16 25  2  0  0  0  0
 16 30  1  0  0  0  0
 17 29  2  0  0  0  0
 17 31  1  0  0  0  0
 18 32  1  0  0  0  0
 19 34  1  0  0  0  0
 20 32  1  0  0  0  0
 20 33  2  0  0  0  0
 20 36  1  0  0  0  0
 21 23  2  0  0  0  0
 21 42  1  0  0  0  0
 22 24  2  0  0  0  0
 22 43  1  0  0  0  0
 23 51  1  0  0  0  0
 24 44  1  0  0  0  0
 25 70  1  0  0  0  0
 26 80  1  0  0  0  0
 27 81  1  0  0  0  0
 28 31  2  0  0  0  0
 28 80  1  0  0  0  0
 29 82  1  0  0  0  0
 30 83  1  0  0  0  0
 31 84  1  0  0  0  0
 32 64  2  0  0  0  0
 33 65  1  0  0  0  0
 33 68  1  0  0  0  0
 34 35  2  0  0  0  0
 35 37  1  0  0  0  0
 36 69  1  0  0  0  0
 36 74  2  0  0  0  0
 37 59  1  0  0  0  0
 37 75  2  0  0  0  0
 38 52  1  0  0  0  0
 38 71  1  0  0  0  0
 38 76  2  0  0  0  0
 39 61  1  0  0  0  0
 39 66  1  0  0  0  0
 39 77  2  0  0  0  0
 40 62  1  0  0  0  0
 40 72  1  0  0  0  0
 40 78  2  0  0  0  0
 41 67  1  0  0  0  0
 41 70  1  0  0  0  0
 41 79  2  0  0  0  0
 42 45  1  0  0  0  0
 43 52  1  0  0  0  0
 44 66  1  0  0  0  0
 45 47  1  0  0  0  0
 46 48  1  0  0  0  0
 46 49  1  0  0  0  0
 47 51  1  0  0  0  0
 48 53  1  0  0  0  0
 49 67  1  0  0  0  0
 50 53  1  0  0  0  0
 50 67  1  0  0  0  0
 51 71  1  0  0  0  0
 52 66  1  0  0  0  0
 53 65  1  0  0  0  0
 54 62  1  0  0  0  0
 55 63  1  0  0  0  0
 56 63  1  0  0  0  0
 57 63  1  0  0  0  0
 58 73  1  0  0  0  0
 59 60  1  0  0  0  0
 60 81  1  0  0  0  0
 61 63  1  0  0  0  0
 61 72  1  0  0  0  0
 62 73  1  0  0  0  0
 64 65  1  0  0  0  0
M  CHG  1  73   1
M  ISO  4  41 100  60 101  70 100  81 101
M  END
> <Batch ID>
0128

> <Smiles>
CNC(C)C(=O)NC(C(=O)N1Cc2cc([101O:1][101CH2:1]CC(=O)C=Cc3cc(F)cc([100NH:0][100C:0](=O)N4CCCC(n5nc(-c6ccc(Oc7ccc(F)cc7F)cc6)c(C(N)=O)c5N)C4)c3)ccc2CC1C(=O)NC1CCCc2ccccc21)C(C)(C)C

> <Shape>
0.329

> <Color>
0.088

> <Negative vol penalty>
0.000

$$$$

  -OEChem-04052302163D

 84 92  0     1  0  0  0  0  0999 V2000
  -22.7006  -35.3829   21.4050 C   0  0  0  0  0  0  0  0  0  0  0  0
  -23.4613  -34.4586   20.6961 C   0  0  0  0  0  0  0  0  0  0  0  0
  -26.6504  -12.6760   21.6159 C   0  0  0  0  0  0  0  0  0  0  0  0
  -26.2550  -13.7219   19.4742 C   0  0  0  0  0  0  0  0  0  0  0  0
  -29.3393  -23.5873   18.7230 C   0  0  0  0  0  0  0  0  0  0  0  0
  -22.9724  -35.6213   22.7515 C   0  0  0  0  0  0  0  0  0  0  0  0
  -24.4950  -33.7730   21.3332 C   0  0  0  0  0  0  0  0  0  0  0  0
  -24.5092  -28.8281   20.2408 C   0  0  0  0  0  0  0  0  0  0  0  0
  -29.7855  -22.5150   19.4954 C   0  0  0  0  0  0  0  0  0  0  0  0
  -25.3504  -12.1706   21.6091 C   0  0  0  0  0  0  0  0  0  0  0  0
  -24.9550  -13.2165   19.4674 C   0  0  0  0  0  0  0  0  0  0  0  0
  -25.0307  -28.4507   19.0041 C   0  0  0  0  0  0  0  0  0  0  0  0
  -23.6802   -9.6114   20.1622 C   0  0  0  0  0  0  0  0  0  0  0  0
  -23.5015   -8.2770   20.5270 C   0  0  0  0  0  0  0  0  0  0  0  0
  -27.1069  -27.8435   20.0718 C   0  0  0  0  0  0  0  0  0  0  0  0
  -29.3652  -21.0117   17.6513 C   0  0  0  0  0  0  0  0  0  0  0  0
  -22.0748   -8.9667   22.3508 C   0  0  0  0  0  0  0  0  0  0  0  0
  -27.1028  -13.4516   20.5484 C   0  0  0  0  0  0  0  0  0  0  0  0
  -28.9059  -23.3718   17.4147 C   0  0  0  0  0  0  0  0  0  0  0  0
  -29.6008  -13.3567   20.0399 C   0  0  0  0  0  0  0  0  0  0  0  0
  -24.0037  -34.9312   23.4079 C   0  0  0  0  0  0  0  0  0  0  0  0
  -25.2877  -28.7261   21.4027 C   0  0  0  0  0  0  0  0  0  0  0  0
  -24.7817  -34.0034   22.6894 C   0  0  0  0  0  0  0  0  0  0  0  0
  -26.5920  -28.2179   21.3224 C   0  0  0  0  0  0  0  0  0  0  0  0
  -28.9188  -22.0841   16.8789 C   0  0  0  0  0  0  0  0  0  0  0  0
  -29.7985  -21.2272   18.9595 C   0  0  0  0  0  0  0  0  0  0  0  0
  -24.5026  -12.4408   20.5349 C   0  0  0  0  0  0  0  0  0  0  0  0
  -26.3308  -27.9611   18.9191 C   0  0  0  0  0  0  0  0  0  0  0  0
  -23.0563  -10.6234   20.8917 C   0  0  0  0  0  0  0  0  0  0  0  0
  -22.6988   -7.9546   21.6213 C   0  0  0  0  0  0  0  0  0  0  0  0
  -22.2536  -10.3011   21.9860 C   0  0  0  0  0  0  0  0  0  0  0  0
  -28.4454  -13.9744   20.5551 C   0  0  0  0  0  0  0  0  0  0  0  0
  -30.6104  -14.2535   20.2905 C   0  0  0  0  0  0  0  0  0  0  0  0
  -28.4410  -24.5248   16.6246 C   0  0  0  0  0  0  0  0  0  0  0  0
  -27.1663  -24.9456   16.5648 C   0  0  0  0  0  0  0  0  0  0  0  0
  -29.7481  -12.0859   19.3926 C   0  0  0  0  0  0  0  0  0  0  0  0
  -26.3942  -30.7922   23.5500 C   0  0  0  0  0  0  0  0  0  0  0  0
  -27.3742  -28.0961   25.0643 C   0  0  0  0  0  0  0  0  0  0  0  0
  -28.2449  -24.8036   24.8450 C   0  0  0  0  0  0  0  0  0  0  0  0
  -30.7097  -20.1782   21.0609 C   0  0  0  0  0  0  0  0  0  0  0  0
  -24.2907  -35.2573   24.8522 C   0  0  0  0  0  0  0  0  0  0  0  0
  -24.7012  -29.1123   22.7328 C   0  0  0  0  0  0  0  0  0  0  0  0
  -27.4619  -28.0696   22.5430 C   0  0  0  0  0  0  0  0  0  0  0  0
  -25.1607  -34.2153   25.5506 C   0  0  0  0  0  0  0  0  0  0  0  0
  -31.8715  -17.7132   23.3524 C   0  0  0  0  0  0  0  0  0  0  0  0
  -26.3542  -33.8437   24.6763 C   0  0  0  0  0  0  0  0  0  0  0  0
  -31.2348  -16.4175   22.8446 C   0  0  0  0  0  0  0  0  0  0  0  0
  -30.9352  -18.9087   23.1851 C   0  0  0  0  0  0  0  0  0  0  0  0
  -29.7662  -17.7997   21.3215 C   0  0  0  0  0  0  0  0  0  0  0  0
  -25.8954  -33.2217   23.3518 C   0  0  1  0  0  0  0  0  0  0  0  0
  -25.7605  -29.4490   23.7778 C   0  0  1  0  0  0  0  0  0  0  0  0
  -30.6965  -16.5788   21.4094 C   0  0  2  0  0  0  0  0  0  0  0  0
  -28.4623  -21.8160   15.4809 C   0  0  0  0  0  0  0  0  0  0  0  0
  -29.0364  -22.8778   26.2457 C   0  0  0  0  0  0  0  0  0  0  0  0
  -27.6892  -26.8847   14.9541 C   0  0  0  0  0  0  0  0  0  0  0  0
  -25.5675  -25.5777   14.7823 C   0  0  0  0  0  0  0  0  0  0  0  0
  -30.1723  -29.3101   25.1478 C   0  0  0  0  0  0  0  0  0  0  0  0
  -31.0702  -27.0308   25.6641 C   0  0  0  0  0  0  0  0  0  0  0  0
  -29.4835  -28.1314   27.2432 C   0  0  0  0  0  0  0  0  0  0  0  0
  -25.8461  -23.1957   24.1970 C   0  0  0  0  0  0  0  0  0  0  0  0
  -25.9221  -27.1011   16.7398 C   0  0  0  0  0  0  0  0  0  1  0  0
  -28.6228  -27.2479   25.0363 C   0  0  1  0  0  0  0  0  0  0  0  0
  -27.8283  -23.5948   25.6634 C   0  0  2  0  0  0  0  0  0  0  0  0
  -26.6202  -26.1253   15.7653 C   0  0  0  0  0  0  0  0  0  0  0  0
  -29.8217  -27.9345   25.7494 C   0  0  0  0  0  0  0  0  0  0  0  0
  -28.6966  -15.1711   21.0925 N   0  0  0  0  0  0  0  0  0  0  0  0
  -30.0214  -15.3125   20.9165 N   0  0  0  0  0  0  0  0  0  0  0  0
  -26.8455  -28.4665   23.8197 N   0  0  0  0  0  0  0  0  0  0  0  0
  -30.4687  -19.0007   21.7999 N   0  0  0  0  0  0  0  0  0  0  0  0
  -31.9357  -14.2317   20.0344 N   0  0  0  0  0  0  0  0  0  0  0  0
  -28.6081  -11.2902   19.2153 N   0  0  0  0  0  0  0  0  0  0  0  0
  -30.2492  -20.1376   19.7452 N   0  0  0  0  0  0  0  0  0  0  0  0
  -25.4984  -31.8443   23.5510 N   0  0  0  0  0  0  0  0  0  0  0  0
  -28.2512  -25.9557   25.6024 N   0  0  0  0  0  0  0  0  0  0  0  0
  -27.0730  -22.6301   24.8151 N   0  3  0  0  0  0  0  0  0  0  0  0
  -30.8606  -11.6612   18.9983 O   0  0  0  0  0  0  0  0  0  0  0  0
  -27.6063  -30.8685   23.3868 O   0  0  0  0  0  0  0  0  0  0  0  0
  -26.8821  -28.4121   26.1503 O   0  0  0  0  0  0  0  0  0  0  0  0
  -28.5391  -24.7321   23.6538 O   0  0  0  0  0  0  0  0  0  0  0  0
  -31.3066  -21.1407   21.5501 O   0  0  0  0  0  0  0  0  0  0  0  0
  -23.2341  -11.9477   20.5278 O   0  0  0  0  0  0  0  0  0  0  0  0
  -26.8425  -27.5926   17.7132 O   0  0  0  0  0  0  0  0  0  1  0  0
  -22.5260   -6.6731   21.9706 F   0  0  0  0  0  0  0  0  0  0  0  0
  -21.6507  -11.2690   22.6900 F   0  0  0  0  0  0  0  0  0  0  0  0
  1  2  1  0  0  0  0
  1  6  2  0  0  0  0
  2  7  2  0  0  0  0
  3 10  2  0  0  0  0
  3 18  1  0  0  0  0
  4 11  1  0  0  0  0
  4 18  2  0  0  0  0
  5  9  2  0  0  0  0
  5 19  1  0  0  0  0
  6 21  1  0  0  0  0
  7 23  1  0  0  0  0
  8 12  2  0  0  0  0
  8 22  1  0  0  0  0
  9 26  1  0  0  0  0
 10 27  1  0  0  0  0
 11 27  2  0  0  0  0
 12 28  1  0  0  0  0
 13 14  2  0  0  0  0
 13 29  1  0  0  0  0
 14 30  1  0  0  0  0
 15 24  1  0  0  0  0
 15 28  2  0  0  0  0
 16 25  1  0  0  0  0
 16 26  2  0  0  0  0
 17 30  2  0  0  0  0
 17 31  1  0  0  0  0
 18 32  1  0  0  0  0
 19 25  2  0  0  0  0
 19 34  1  0  0  0  0
 20 32  1  0  0  0  0
 20 33  2  0  0  0  0
 20 36  1  0  0  0  0
 21 23  2  0  0  0  0
 21 41  1  0  0  0  0
 22 24  2  0  0  0  0
 22 42  1  0  0  0  0
 23 50  1  0  0  0  0
 24 43  1  0  0  0  0
 25 53  1  0  0  0  0
 26 72  1  0  0  0  0
 27 81  1  0  0  0  0
 28 82  1  0  0  0  0
 29 31  2  0  0  0  0
 29 81  1  0  0  0  0
 30 83  1  0  0  0  0
 31 84  1  0  0  0  0
 32 66  2  0  0  0  0
 33 67  1  0  0  0  0
 33 70  1  0  0  0  0
 34 35  2  0  0  0  0
 35 64  1  0  0  0  0
 36 71  1  0  0  0  0
 36 76  2  0  0  0  0
 37 51  1  0  0  0  0
 37 73  1  0  0  0  0
 37 77  2  0  0  0  0
 38 62  1  0  0  0  0
 38 68  1  0  0  0  0
 38 78  2  0  0  0  0
 39 63  1  0  0  0  0
 39 74  1  0  0  0  0
 39 79  2  0  0  0  0
 40 69  1  0  0  0  0
 40 72  1  0  0  0  0
 40 80  2  0  0  0  0
 41 44  1  0  0  0  0
 42 51  1  0  0  0  0
 43 68  1  0  0  0  0
 44 46  1  0  0  0  0
 45 47  1  0  0  0  0
 45 48  1  0  0  0  0
 46 50  1  0  0  0  0
 47 52  1  0  0  0  0
 48 69  1  0  0  0  0
 49 52  1  0  0  0  0
 49 69  1  0  0  0  0
 50 73  1  0  0  0  0
 51 68  1  0  0  0  0
 52 67  1  0  0  0  0
 54 63  1  0  0  0  0
 55 64  1  0  0  0  0
 56 64  1  0  0  0  0
 57 65  1  0  0  0  0
 58 65  1  0  0  0  0
 59 65  1  0  0  0  0
 60 75  1  0  0  0  0
 61 64  1  0  0  0  0
 61 82  1  0  0  0  0
 62 65  1  0  0  0  0
 62 74  1  0  0  0  0
 63 75  1  0  0  0  0
 66 67  1  0  0  0  0
M  CHG  1  75   1
M  ISO  4  40 100  61 101  72 100  82 101
M  END
> <Batch ID>
0128

> <Smiles>
CNC(C)C(=O)NC(C(=O)N1Cc2cc([101O:1][101CH2:1]C(C)(C)C=Cc3ccc([100NH:0][100C:0](=O)N4CCCC(n5nc(-c6ccc(Oc7ccc(F)cc7F)cc6)c(C(N)=O)c5N)C4)cc3C)ccc2CC1C(=O)NC1CCCc2ccccc21)C(C)(C)C

> <Shape>
0.263

> <Color>
0.065

> <Negative vol penalty>
0.000

$$$$

  -OEChem-04052302163D

 82 90  0     1  0  0  0  0  0999 V2000
  -23.6419  -29.5919   20.2466 C   0  0  0  0  0  0  0  0  0  0  0  0
  -24.2224  -28.7839   21.2190 C   0  0  0  0  0  0  0  0  0  0  0  0
  -23.1897   -9.8642   19.9527 C   0  0  0  0  0  0  0  0  0  0  0  0
  -23.9025   -9.9360   22.2600 C   0  0  0  0  0  0  0  0  0  0  0  0
  -22.9134  -29.0156   19.2069 C   0  0  0  0  0  0  0  0  0  0  0  0
  -24.0738  -27.3990   21.1528 C   0  0  0  0  0  0  0  0  0  0  0  0
  -28.1806  -23.1721   22.8178 C   0  0  0  0  0  0  0  0  0  0  0  0
  -32.0925  -17.8500   22.7770 C   0  0  0  0  0  0  0  0  0  0  0  0
  -31.7439  -16.6427   22.1718 C   0  0  0  0  0  0  0  0  0  0  0  0
  -22.4923   -8.6828   20.2049 C   0  0  0  0  0  0  0  0  0  0  0  0
  -23.2050   -8.7546   22.5123 C   0  0  0  0  0  0  0  0  0  0  0  0
  -28.3249  -22.4095   23.9760 C   0  0  0  0  0  0  0  0  0  0  0  0
  -20.2275   -5.8419   20.3268 C   0  0  0  0  0  0  0  0  0  0  0  0
  -18.9352   -5.7296   19.8140 C   0  0  0  0  0  0  0  0  0  0  0  0
  -30.2723  -16.1406   24.0210 C   0  0  0  0  0  0  0  0  0  0  0  0
  -27.1504  -20.5884   22.9161 C   0  0  0  0  0  0  0  0  0  0  0  0
  -18.2591   -7.6635   21.0947 C   0  0  0  0  0  0  0  0  0  0  0  0
  -23.8949  -10.4907   20.9803 C   0  0  0  0  0  0  0  0  0  0  0  0
  -30.6210  -17.3480   24.6263 C   0  0  0  0  0  0  0  0  0  0  0  0
  -24.1279  -13.0266   20.8303 C   0  0  0  0  0  0  0  0  0  0  0  0
  -22.7639  -27.6223   19.1225 C   0  0  0  0  0  0  0  0  0  0  0  0
  -27.5094  -22.6516   21.7020 C   0  0  0  0  0  0  0  0  0  0  0  0
  -23.3415  -26.8036   20.1117 C   0  0  0  0  0  0  0  0  0  0  0  0
  -27.0011  -21.3455   21.7441 C   0  0  0  0  0  0  0  0  0  0  0  0
  -31.5311  -18.2027   24.0043 C   0  0  0  0  0  0  0  0  0  0  0  0
  -30.8337  -15.7880   22.7938 C   0  0  0  0  0  0  0  0  0  0  0  0
  -22.4999   -8.1281   21.4847 C   0  0  0  0  0  0  0  0  0  0  0  0
  -27.8073  -21.1185   24.0263 C   0  0  0  0  0  0  0  0  0  0  0  0
  -20.5356   -6.8649   21.2236 C   0  0  0  0  0  0  0  0  0  0  0  0
  -17.9510   -6.6404   20.1979 C   0  0  0  0  0  0  0  0  0  0  0  0
  -19.5514   -7.7757   21.6075 C   0  0  0  0  0  0  0  0  0  0  0  0
  -24.6160  -11.7108   20.7202 C   0  0  0  0  0  0  0  0  0  0  0  0
  -25.1932  -13.8186   20.4774 C   0  0  0  0  0  0  0  0  0  0  0  0
  -30.0139  -17.6897   25.9169 C   0  0  0  0  0  0  0  0  0  0  0  0
  -22.8279  -13.4915   21.2170 C   0  0  0  0  0  0  0  0  0  0  0  0
  -28.8678  -18.3742   26.0981 C   0  0  0  0  0  0  0  0  0  0  0  0
  -24.8912  -23.4494   20.0858 C   0  0  0  0  0  0  0  0  0  0  0  0
  -25.8623  -21.0728   18.1031 C   0  0  0  0  0  0  0  0  0  0  0  0
  -27.6537  -18.1981   17.6862 C   0  0  0  0  0  0  0  0  0  0  0  0
  -30.9435  -14.0616   20.9624 C   0  0  0  0  0  0  0  0  0  0  0  0
  -21.9277  -27.0482   18.0064 C   0  0  0  0  0  0  0  0  0  0  0  0
  -27.3856  -23.4772   20.4508 C   0  0  0  0  0  0  0  0  0  0  0  0
  -26.2900  -20.7329   20.5662 C   0  0  0  0  0  0  0  0  0  0  0  0
  -22.1328  -25.5495   17.8006 C   0  0  0  0  0  0  0  0  0  0  0  0
  -29.3666  -13.1075   17.9161 C   0  0  0  0  0  0  0  0  0  0  0  0
  -22.0959  -24.8170   19.1381 C   0  0  0  0  0  0  0  0  0  0  0  0
  -27.9327  -12.7784   18.3377 C   0  0  0  0  0  0  0  0  0  0  0  0
  -30.3814  -12.6799   18.9749 C   0  0  0  0  0  0  0  0  0  0  0  0
  -28.6821  -12.8548   20.7500 C   0  0  0  0  0  0  0  0  0  0  0  0
  -23.2235  -25.2957   20.0605 C   0  0  1  0  0  0  0  0  0  0  0  0
  -26.2337  -23.0340   19.5541 C   0  0  1  0  0  0  0  0  0  0  0  0
  -27.6191  -13.3256   19.7440 C   0  0  2  0  0  0  0  0  0  0  0  0
  -31.9281  -19.5040   24.6239 C   0  0  0  0  0  0  0  0  0  0  0  0
  -28.3611  -18.6388   27.4923 C   0  0  0  0  0  0  0  0  0  0  0  0
  -28.2261  -16.4661   15.9629 C   0  0  0  0  0  0  0  0  0  0  0  0
  -23.0860  -19.8466   18.4169 C   0  0  0  0  0  0  0  0  0  0  0  0
  -24.0019  -17.7085   17.4908 C   0  0  0  0  0  0  0  0  0  0  0  0
  -24.0020  -19.7732   16.0909 C   0  0  0  0  0  0  0  0  0  0  0  0
  -30.5441  -18.8090   17.8638 C   0  0  0  0  0  0  0  0  0  0  0  0
  -28.0251  -18.9568   24.9934 C   0  0  0  0  0  0  0  0  0  1  0  0
  -25.6238  -19.5844   18.0213 C   0  0  1  0  0  0  0  0  0  0  0  0
  -28.6437  -17.7744   16.6162 C   0  0  2  0  0  0  0  0  0  0  0  0
  -24.1901  -19.2401   17.5280 C   0  0  0  0  0  0  0  0  0  0  0  0
  -25.8920  -11.6652   20.3280 N   0  0  0  0  0  0  0  0  0  0  0  0
  -26.2147  -12.9623   20.1884 N   0  0  0  0  0  0  0  0  0  0  0  0
  -26.1887  -21.5822   19.3679 N   0  0  0  0  0  0  0  0  0  0  0  0
  -30.0224  -13.2390   20.2801 N   0  0  0  0  0  0  0  0  0  0  0  0
  -25.3464  -15.1569   20.3892 N   0  0  0  0  0  0  0  0  0  0  0  0
  -21.8503  -12.5433   21.5477 N   0  0  0  0  0  0  0  0  0  0  0  0
  -30.4792  -14.5618   22.1785 N   0  0  0  0  0  0  0  0  0  0  0  0
  -24.4837  -24.7020   19.6683 N   0  0  0  0  0  0  0  0  0  0  0  0
  -26.6895  -19.0457   17.1831 N   0  0  0  0  0  0  0  0  0  0  0  0
  -29.9994  -17.5926   17.2076 N   0  3  0  0  0  0  0  0  0  0  0  0
  -22.5368  -14.7112   21.2518 O   0  0  0  0  0  0  0  0  0  0  0  0
  -24.2702  -22.6890   20.8193 O   0  0  0  0  0  0  0  0  0  0  0  0
  -25.7697  -21.7572   17.0810 O   0  0  0  0  0  0  0  0  0  0  0  0
  -27.7262  -17.8126   18.8510 O   0  0  0  0  0  0  0  0  0  0  0  0
  -32.0516  -14.3265   20.4890 O   0  0  0  0  0  0  0  0  0  0  0  0
  -21.8193   -6.9754   21.7312 O   0  0  0  0  0  0  0  0  0  0  0  0
  -27.9462  -20.3723   25.1558 O   0  0  0  0  0  0  0  0  0  1  0  0
  -16.7105   -6.5334   19.7042 F   0  0  0  0  0  0  0  0  0  0  0  0
  -19.8417   -8.7613   22.4678 F   0  0  0  0  0  0  0  0  0  0  0  0
  1  2  1  0  0  0  0
  1  5  2  0  0  0  0
  2  6  2  0  0  0  0
  3 10  2  0  0  0  0
  3 18  1  0  0  0  0
  4 11  1  0  0  0  0
  4 18  2  0  0  0  0
  5 21  1  0  0  0  0
  6 23  1  0  0  0  0
  7 12  2  0  0  0  0
  7 22  1  0  0  0  0
  8  9  2  0  0  0  0
  8 25  1  0  0  0  0
  9 26  1  0  0  0  0
 10 27  1  0  0  0  0
 11 27  2  0  0  0  0
 12 28  1  0  0  0  0
 13 14  2  0  0  0  0
 13 29  1  0  0  0  0
 14 30  1  0  0  0  0
 15 19  1  0  0  0  0
 15 26  2  0  0  0  0
 16 24  1  0  0  0  0
 16 28  2  0  0  0  0
 17 30  2  0  0  0  0
 17 31  1  0  0  0  0
 18 32  1  0  0  0  0
 19 25  2  0  0  0  0
 19 34  1  0  0  0  0
 20 32  1  0  0  0  0
 20 33  2  0  0  0  0
 20 35  1  0  0  0  0
 21 23  2  0  0  0  0
 21 41  1  0  0  0  0
 22 24  2  0  0  0  0
 22 42  1  0  0  0  0
 23 50  1  0  0  0  0
 24 43  1  0  0  0  0
 25 53  1  0  0  0  0
 26 70  1  0  0  0  0
 27 79  1  0  0  0  0
 28 80  1  0  0  0  0
 29 31  2  0  0  0  0
 29 79  1  0  0  0  0
 30 81  1  0  0  0  0
 31 82  1  0  0  0  0
 32 64  2  0  0  0  0
 33 65  1  0  0  0  0
 33 68  1  0  0  0  0
 34 36  2  0  0  0  0
 35 69  1  0  0  0  0
 35 74  2  0  0  0  0
 36 54  1  0  0  0  0
 36 60  1  0  0  0  0
 37 51  1  0  0  0  0
 37 71  1  0  0  0  0
 37 75  2  0  0  0  0
 38 61  1  0  0  0  0
 38 66  1  0  0  0  0
 38 76  2  0  0  0  0
 39 62  1  0  0  0  0
 39 72  1  0  0  0  0
 39 77  2  0  0  0  0
 40 67  1  0  0  0  0
 40 70  1  0  0  0  0
 40 78  2  0  0  0  0
 41 44  1  0  0  0  0
 42 51  1  0  0  0  0
 43 66  1  0  0  0  0
 44 46  1  0  0  0  0
 45 47  1  0  0  0  0
 45 48  1  0  0  0  0
 46 50  1  0  0  0  0
 47 52  1  0  0  0  0
 48 67  1  0  0  0  0
 49 52  1  0  0  0  0
 49 67  1  0  0  0  0
 50 71  1  0  0  0  0
 51 66  1  0  0  0  0
 52 65  1  0  0  0  0
 55 62  1  0  0  0  0
 56 63  1  0  0  0  0
 57 63  1  0  0  0  0
 58 63  1  0  0  0  0
 59 73  1  0  0  0  0
 60 80  1  0  0  0  0
 61 63  1  0  0  0  0
 61 72  1  0  0  0  0
 62 73  1  0  0  0  0
 64 65  1  0  0  0  0
M  CHG  1  73   1
M  ISO  4  40 100  60 101  70 100  80 101
M  END
> <Batch ID>
0128

> <Smiles>
CNC(C)C(=O)NC(C(=O)N1Cc2cc([101O:1][101CH2:1]C(C)=Cc3cc([100NH:0][100C:0](=O)N4CCCC(n5nc(-c6ccc(Oc7ccc(F)cc7F)cc6)c(C(N)=O)c5N)C4)ccc3C)ccc2CC1C(=O)NC1CCCc2ccccc21)C(C)(C)C

> <Shape>
0.193

> <Color>
0.189

> <Negative vol penalty>
0.000

$$$$

  -OEChem-04052302163D

 86 94  0     1  0  0  0  0  0999 V2000
  -18.9304  -27.9395   26.3853 C   0  0  0  0  0  0  0  0  0  0  0  0
  -20.0094  -27.2271   25.8719 C   0  0  0  0  0  0  0  0  0  0  0  0
  -22.9750  -10.0496   19.9452 C   0  0  0  0  0  0  0  0  0  0  0  0
  -23.9029   -9.8660   22.1683 C   0  0  0  0  0  0  0  0  0  0  0  0
  -29.0682  -18.5828   19.7901 C   0  0  0  0  0  0  0  0  0  0  0  0
  -29.7754  -17.4297   20.1303 C   0  0  0  0  0  0  0  0  0  0  0  0
  -18.2348  -28.8320   25.5708 C   0  0  0  0  0  0  0  0  0  0  0  0
  -20.3928  -27.4060   24.5432 C   0  0  0  0  0  0  0  0  0  0  0  0
  -26.0890  -27.2365   22.3003 C   0  0  0  0  0  0  0  0  0  0  0  0
  -22.2347   -8.8868   20.1581 C   0  0  0  0  0  0  0  0  0  0  0  0
  -23.1625   -8.7032   22.3813 C   0  0  0  0  0  0  0  0  0  0  0  0
  -26.8130  -26.2359   21.6535 C   0  0  0  0  0  0  0  0  0  0  0  0
  -23.3619   -5.4341   21.5422 C   0  0  0  0  0  0  0  0  0  0  0  0
  -24.0136   -4.3491   22.1284 C   0  0  0  0  0  0  0  0  0  0  0  0
  -27.7860  -18.3981   21.8294 C   0  0  0  0  0  0  0  0  0  0  0  0
  -26.1956  -27.1767   19.5198 C   0  0  0  0  0  0  0  0  0  0  0  0
  -22.4463   -4.4006   23.9663 C   0  0  0  0  0  0  0  0  0  0  0  0
  -23.8092  -10.5392   20.9502 C   0  0  0  0  0  0  0  0  0  0  0  0
  -28.0735  -19.0671   20.6396 C   0  0  0  0  0  0  0  0  0  0  0  0
  -29.4879  -16.7608   21.3201 C   0  0  0  0  0  0  0  0  0  0  0  0
  -24.1787  -13.0627   21.0054 C   0  0  0  0  0  0  0  0  0  0  0  0
  -18.6159  -29.0291   24.2341 C   0  0  0  0  0  0  0  0  0  0  0  0
  -25.4027  -28.2100   21.5603 C   0  0  0  0  0  0  0  0  0  0  0  0
  -19.7008  -28.3010   23.7096 C   0  0  0  0  0  0  0  0  0  0  0  0
  -25.4657  -28.1901   20.1597 C   0  0  0  0  0  0  0  0  0  0  0  0
  -28.4932  -17.2450   22.1696 C   0  0  0  0  0  0  0  0  0  0  0  0
  -22.3284   -8.2136   21.3762 C   0  0  0  0  0  0  0  0  0  0  0  0
  -26.8640  -26.2042   20.2630 C   0  0  0  0  0  0  0  0  0  0  0  0
  -22.2524   -6.0024   22.1681 C   0  0  0  0  0  0  0  0  0  0  0  0
  -23.5558   -3.8323   23.3404 C   0  0  0  0  0  0  0  0  0  0  0  0
  -21.7945   -5.4856   23.3801 C   0  0  0  0  0  0  0  0  0  0  0  0
  -24.5747  -11.7400   20.7306 C   0  0  0  0  0  0  0  0  0  0  0  0
  -25.2519  -13.8291   20.6216 C   0  0  0  0  0  0  0  0  0  0  0  0
  -27.3272  -20.2855   20.2792 C   0  0  0  0  0  0  0  0  0  0  0  0
  -27.7487  -21.2038   19.3984 C   0  0  0  0  0  0  0  0  0  0  0  0
  -30.2422  -15.5592   21.6511 C   0  0  0  0  0  0  0  0  0  0  0  0
  -22.9506  -13.5546   21.5581 C   0  0  0  0  0  0  0  0  0  0  0  0
  -26.9201  -22.4122   19.1093 C   0  0  0  0  0  0  0  0  0  0  0  0
  -30.7816  -14.6738   20.5936 C   0  0  0  0  0  0  0  0  0  0  0  0
  -22.3551  -29.0594   21.2535 C   0  0  0  0  0  0  0  0  0  0  0  0
  -23.6092  -31.4625   19.4717 C   0  0  0  0  0  0  0  0  0  0  0  0
  -26.1908  -32.6037   17.5535 C   0  0  0  0  0  0  0  0  0  0  0  0
  -17.8040  -29.9695   23.3789 C   0  0  0  0  0  0  0  0  0  0  0  0
  -24.6482  -29.2984   22.2735 C   0  0  0  0  0  0  0  0  0  0  0  0
  -24.7632  -29.2241   19.3195 C   0  0  0  0  0  0  0  0  0  0  0  0
  -18.5077  -30.3797   22.0879 C   0  0  0  0  0  0  0  0  0  0  0  0
  -29.3940  -12.6331   17.9922 C   0  0  0  0  0  0  0  0  0  0  0  0
  -19.1067  -29.1597   21.3954 C   0  0  0  0  0  0  0  0  0  0  0  0
  -27.9979  -12.2959   18.5147 C   0  0  0  0  0  0  0  0  0  0  0  0
  -30.4072  -12.7292   19.1283 C   0  0  0  0  0  0  0  0  0  0  0  0
  -28.6216  -13.3631   20.7278 C   0  0  0  0  0  0  0  0  0  0  0  0
  -20.1625  -28.4860   22.2804 C   0  0  1  0  0  0  0  0  0  0  0  0
  -23.5641  -29.9376   21.4113 C   0  0  1  0  0  0  0  0  0  0  0  0
  -27.5652  -13.2848   19.6118 C   0  0  2  0  0  0  0  0  0  0  0  0
  -28.7518  -17.2631   24.6635 C   0  0  0  0  0  0  0  0  0  0  0  0
  -26.9121  -34.5914   16.2021 C   0  0  0  0  0  0  0  0  0  0  0  0
  -21.7046  -30.6314   17.2374 C   0  0  0  0  0  0  0  0  0  0  0  0
  -23.0949  -31.9756   15.6472 C   0  0  0  0  0  0  0  0  0  0  0  0
  -21.9350  -33.1024   17.5465 C   0  0  0  0  0  0  0  0  0  0  0  0
  -28.5614  -33.0545   19.2670 C   0  0  0  0  0  0  0  0  0  0  0  0
  -28.1663  -16.5477   23.4501 C   0  0  0  0  0  0  0  0  0  0  0  0
  -27.5095  -23.3770   18.0917 C   0  0  0  0  0  0  0  0  0  0  0  0
  -27.1047  -24.8224   18.3425 C   0  0  0  0  0  0  0  0  0  1  0  0
  -23.9487  -31.6463   18.0122 C   0  0  1  0  0  0  0  0  0  0  0  0
  -26.9500  -33.9183   17.5652 C   0  0  2  0  0  0  0  0  0  0  0  0
  -22.6825  -31.8182   17.1263 C   0  0  0  0  0  0  0  0  0  0  0  0
  -25.8034  -11.6667   20.2122 N   0  0  0  0  0  0  0  0  0  0  0  0
  -30.4919  -15.1876   22.8762 N   0  0  0  0  0  0  0  0  0  0  0  0
  -26.1888  -12.9531   20.1581 N   0  0  0  0  0  0  0  0  0  0  0  0
  -29.9491  -13.6478   20.1687 N   0  0  0  0  0  0  0  0  0  0  0  0
  -24.0334  -30.2642   20.0632 N   0  0  0  0  0  0  0  0  0  0  0  0
  -25.4761  -15.1602   20.6387 N   0  0  0  0  0  0  0  0  0  0  0  0
  -21.9531  -12.6303   21.8973 N   0  0  0  0  0  0  0  0  0  0  0  0
  -21.4037  -29.2292   22.2411 N   0  0  0  0  0  0  0  0  0  0  0  0
  -24.8797  -32.7676   17.9478 N   0  0  0  0  0  0  0  0  0  0  0  0
  -28.3749  -33.6902   17.9373 N   0  3  0  0  0  0  0  0  0  0  0  0
  -22.7376  -14.7787   21.7304 O   0  0  0  0  0  0  0  0  0  0  0  0
  -25.8392  -22.6013   19.6606 O   0  0  0  0  0  0  0  0  0  0  0  0
  -31.9108  -14.9431   20.2055 O   0  0  0  0  0  0  0  0  0  0  0  0
  -22.2896  -28.2862   20.3051 O   0  0  0  0  0  0  0  0  0  0  0  0
  -22.9966  -32.3525   20.0668 O   0  0  0  0  0  0  0  0  0  0  0  0
  -26.7080  -31.5388   17.2237 O   0  0  0  0  0  0  0  0  0  0  0  0
  -21.6059   -7.0790   21.5844 O   0  0  0  0  0  0  0  0  0  0  0  0
  -27.5694  -25.2282   19.6292 O   0  0  0  0  0  0  0  0  0  1  0  0
  -24.1808   -2.7894   23.9024 F   0  0  0  0  0  0  0  0  0  0  0  0
  -20.7284   -6.0266   23.9855 F   0  0  0  0  0  0  0  0  0  0  0  0
  1  2  1  0  0  0  0
  1  7  2  0  0  0  0
  2  8  2  0  0  0  0
  3 10  2  0  0  0  0
  3 18  1  0  0  0  0
  4 11  1  0  0  0  0
  4 18  2  0  0  0  0
  5  6  2  0  0  0  0
  5 19  1  0  0  0  0
  6 20  1  0  0  0  0
  7 22  1  0  0  0  0
  8 24  1  0  0  0  0
  9 12  2  0  0  0  0
  9 23  1  0  0  0  0
 10 27  1  0  0  0  0
 11 27  2  0  0  0  0
 12 28  1  0  0  0  0
 13 14  2  0  0  0  0
 13 29  1  0  0  0  0
 14 30  1  0  0  0  0
 15 19  2  0  0  0  0
 15 26  1  0  0  0  0
 16 25  1  0  0  0  0
 16 28  2  0  0  0  0
 17 30  2  0  0  0  0
 17 31  1  0  0  0  0
 18 32  1  0  0  0  0
 19 34  1  0  0  0  0
 20 26  2  0  0  0  0
 20 36  1  0  0  0  0
 21 32  1  0  0  0  0
 21 33  2  0  0  0  0
 21 37  1  0  0  0  0
 22 24  2  0  0  0  0
 22 43  1  0  0  0  0
 23 25  2  0  0  0  0
 23 44  1  0  0  0  0
 24 52  1  0  0  0  0
 25 45  1  0  0  0  0
 26 61  1  0  0  0  0
 27 83  1  0  0  0  0
 28 84  1  0  0  0  0
 29 31  2  0  0  0  0
 29 83  1  0  0  0  0
 30 85  1  0  0  0  0
 31 86  1  0  0  0  0
 32 67  2  0  0  0  0
 33 69  1  0  0  0  0
 33 72  1  0  0  0  0
 34 35  2  0  0  0  0
 35 38  1  0  0  0  0
 36 39  1  0  0  0  0
 36 68  2  0  0  0  0
 37 73  1  0  0  0  0
 37 77  2  0  0  0  0
 38 62  1  0  0  0  0
 38 78  2  0  0  0  0
 39 70  1  0  0  0  0
 39 79  2  0  0  0  0
 40 53  1  0  0  0  0
 40 74  1  0  0  0  0
 40 80  2  0  0  0  0
 41 64  1  0  0  0  0
 41 71  1  0  0  0  0
 41 81  2  0  0  0  0
 42 65  1  0  0  0  0
 42 75  1  0  0  0  0
 42 82  2  0  0  0  0
 43 46  1  0  0  0  0
 44 53  1  0  0  0  0
 45 71  1  0  0  0  0
 46 48  1  0  0  0  0
 47 49  1  0  0  0  0
 47 50  1  0  0  0  0
 48 52  1  0  0  0  0
 49 54  1  0  0  0  0
 50 70  1  0  0  0  0
 51 54  1  0  0  0  0
 51 70  1  0  0  0  0
 52 74  1  0  0  0  0
 53 71  1  0  0  0  0
 54 69  1  0  0  0  0
 55 61  1  0  0  0  0
 56 65  1  0  0  0  0
 57 66  1  0  0  0  0
 58 66  1  0  0  0  0
 59 66  1  0  0  0  0
 60 76  1  0  0  0  0
 62 63  1  0  0  0  0
 63 84  1  0  0  0  0
 64 66  1  0  0  0  0
 64 75  1  0  0  0  0
 65 76  1  0  0  0  0
 67 69  1  0  0  0  0
M  CHG  1  76   1
M  ISO  4  36 100  39 100  63 101  84 101
M  END
> <Batch ID>
0128

> <Smiles>
CCc1cc(C=CC(=O)C[101CH2:1][101O:1]c2ccc3c(c2)CN(C(=O)C(NC(=O)C(C)NC)C(C)(C)C)C(C(=O)NC2CCCc4ccccc42)C3)ccc1[100C:0](=N)[100C:0](=O)N1CCCC(n2nc(-c3ccc(Oc4ccc(F)cc4F)cc3)c(C(N)=O)c2N)C1

> <Shape>
0.323

> <Color>
0.229

> <Negative vol penalty>
0.000

$$$$

  -OEChem-04052302163D

 86 94  0     1  0  0  0  0  0999 V2000
  -37.6999  -22.4731   15.0662 C   0  0  0  0  0  0  0  0  0  0  0  0
  -38.0386  -22.9988   16.3089 C   0  0  0  0  0  0  0  0  0  0  0  0
  -23.0741   -9.8684   19.9811 C   0  0  0  0  0  0  0  0  0  0  0  0
  -23.7856   -9.9638   22.2879 C   0  0  0  0  0  0  0  0  0  0  0  0
  -36.4579  -22.7631   14.5029 C   0  0  0  0  0  0  0  0  0  0  0  0
  -37.1359  -23.8158   16.9886 C   0  0  0  0  0  0  0  0  0  0  0  0
  -34.7738  -22.0639   23.5645 C   0  0  0  0  0  0  0  0  0  0  0  0
  -22.3354   -8.7177   20.2565 C   0  0  0  0  0  0  0  0  0  0  0  0
  -23.0469   -8.8131   22.5634 C   0  0  0  0  0  0  0  0  0  0  0  0
  -34.4380  -21.9057   24.9093 C   0  0  0  0  0  0  0  0  0  0  0  0
  -23.3789   -5.4764   22.1307 C   0  0  0  0  0  0  0  0  0  0  0  0
  -23.9882   -4.4831   22.8972 C   0  0  0  0  0  0  0  0  0  0  0  0
  -31.4552  -19.5634   22.6649 C   0  0  0  0  0  0  0  0  0  0  0  0
  -33.0312  -23.8696   24.8001 C   0  0  0  0  0  0  0  0  0  0  0  0
  -31.4007  -17.7475   21.0722 C   0  0  0  0  0  0  0  0  0  0  0  0
  -22.2499   -4.7006   24.5610 C   0  0  0  0  0  0  0  0  0  0  0  0
  -23.7993  -10.4914   20.9968 C   0  0  0  0  0  0  0  0  0  0  0  0
  -30.5316  -18.8900   23.4644 C   0  0  0  0  0  0  0  0  0  0  0  0
  -24.1212  -13.0139   20.7941 C   0  0  0  0  0  0  0  0  0  0  0  0
  -35.5357  -23.5762   15.1805 C   0  0  0  0  0  0  0  0  0  0  0  0
  -34.2268  -23.1180   22.8275 C   0  0  0  0  0  0  0  0  0  0  0  0
  -35.8809  -24.1180   16.4333 C   0  0  0  0  0  0  0  0  0  0  0  0
  -33.3541  -24.0259   23.4496 C   0  0  0  0  0  0  0  0  0  0  0  0
  -31.8897  -18.9922   21.4688 C   0  0  0  0  0  0  0  0  0  0  0  0
  -30.0426  -17.6453   23.0678 C   0  0  0  0  0  0  0  0  0  0  0  0
  -30.4771  -17.0740   21.8717 C   0  0  0  0  0  0  0  0  0  0  0  0
  -22.3218   -8.1901   21.5476 C   0  0  0  0  0  0  0  0  0  0  0  0
  -33.5690  -22.8064   25.5256 C   0  0  0  0  0  0  0  0  0  0  0  0
  -22.2050   -6.0819   22.5793 C   0  0  0  0  0  0  0  0  0  0  0  0
  -23.4238   -4.0952   24.1123 C   0  0  0  0  0  0  0  0  0  0  0  0
  -21.6406   -5.6940   23.7944 C   0  0  0  0  0  0  0  0  0  0  0  0
  -24.5630  -11.6797   20.7128 C   0  0  0  0  0  0  0  0  0  0  0  0
  -25.2140  -13.7605   20.4271 C   0  0  0  0  0  0  0  0  0  0  0  0
  -30.0954  -19.5220   24.7217 C   0  0  0  0  0  0  0  0  0  0  0  0
  -30.9115  -19.8289   25.7398 C   0  0  0  0  0  0  0  0  0  0  0  0
  -22.8377  -13.5320   21.1681 C   0  0  0  0  0  0  0  0  0  0  0  0
  -30.3693  -20.4606   26.9790 C   0  0  0  0  0  0  0  0  0  0  0  0
  -33.9881  -24.8671   19.5170 C   0  0  0  0  0  0  0  0  0  0  0  0
  -31.1663  -24.8478   20.7201 C   0  0  0  0  0  0  0  0  0  0  0  0
  -28.4341  -23.8084   21.8853 C   0  0  0  0  0  0  0  0  0  0  0  0
  -30.6658  -14.8640   20.6773 C   0  0  0  0  0  0  0  0  0  0  0  0
  -34.2240  -23.9002   14.5103 C   0  0  0  0  0  0  0  0  0  0  0  0
  -34.6086  -23.3629   21.3929 C   0  0  0  0  0  0  0  0  0  0  0  0
  -32.8170  -25.1649   22.6267 C   0  0  0  0  0  0  0  0  0  0  0  0
  -33.1768  -24.4692   15.4642 C   0  0  0  0  0  0  0  0  0  0  0  0
  -29.6228  -12.3574   18.3738 C   0  0  0  0  0  0  0  0  0  0  0  0
  -33.7895  -25.5545   16.3437 C   0  0  0  0  0  0  0  0  0  0  0  0
  -28.1771  -12.0674   18.7837 C   0  0  0  0  0  0  0  0  0  0  0  0
  -30.5104  -12.6373   19.5852 C   0  0  0  0  0  0  0  0  0  0  0  0
  -28.5686  -13.3918   20.9002 C   0  0  0  0  0  0  0  0  0  0  0  0
  -34.9189  -24.9882   17.2127 C   0  0  1  0  0  0  0  0  0  0  0  0
  -33.4491  -23.9175   20.5461 C   0  0  1  0  0  0  0  0  0  0  0  0
  -27.6222  -13.1677   19.7094 C   0  0  2  0  0  0  0  0  0  0  0  0
  -32.8753  -19.7126   20.6122 C   0  0  0  0  0  0  0  0  0  0  0  0
  -29.0501  -16.9158   23.9210 C   0  0  0  0  0  0  0  0  0  0  0  0
  -25.9580  -23.9279   22.2750 C   0  0  0  0  0  0  0  0  0  0  0  0
  -31.5476  -27.7414   21.6062 C   0  0  0  0  0  0  0  0  0  0  0  0
  -29.1157  -27.8062   22.1978 C   0  0  0  0  0  0  0  0  0  0  0  0
  -29.8128  -27.4124   19.8352 C   0  0  0  0  0  0  0  0  0  0  0  0
  -27.9857  -21.1886   20.5835 C   0  0  0  0  0  0  0  0  0  0  0  0
  -31.3902  -20.7621   28.0638 C   0  0  0  0  0  0  0  0  0  0  0  0
  -31.4787  -22.2447   28.4156 C   0  0  0  0  0  0  0  0  0  0  0  0
  -31.9527  -23.0990   27.2458 C   0  0  0  0  0  0  0  0  0  1  0  0
  -30.1382  -25.5791   21.5456 C   0  0  1  0  0  0  0  0  0  0  0  0
  -27.0664  -23.3626   21.4005 C   0  0  2  0  0  0  0  0  0  0  0  0
  -30.1707  -27.1153   21.3077 C   0  0  0  0  0  0  0  0  0  0  0  0
  -25.8372  -11.5813   20.3244 N   0  0  0  0  0  0  0  0  0  0  0  0
  -26.2053  -12.8631   20.1583 N   0  0  0  0  0  0  0  0  0  0  0  0
  -32.4343  -24.6826   21.2904 N   0  0  0  0  0  0  0  0  0  0  0  0
  -29.9241  -13.6931   20.4137 N   0  0  0  0  0  0  0  0  0  0  0  0
  -25.4141  -15.0905   20.3111 N   0  0  0  0  0  0  0  0  0  0  0  0
  -21.8270  -12.6256   21.5165 N   0  0  0  0  0  0  0  0  0  0  0  0
  -29.9933  -15.8112   21.4487 N   0  0  0  0  0  0  0  0  0  0  0  0
  -34.3738  -24.2589   18.3376 N   0  0  0  0  0  0  0  0  0  0  0  0
  -28.8542  -24.9550   21.2449 N   0  0  0  0  0  0  0  0  0  0  0  0
  -26.9689  -21.8756   21.4209 N   0  3  0  0  0  0  0  0  0  0  0  0
  -22.5893  -14.7615   21.1768 O   0  0  0  0  0  0  0  0  0  0  0  0
  -29.1702  -20.6885   27.1166 O   0  0  0  0  0  0  0  0  0  0  0  0
  -34.0488  -26.0641   19.7723 O   0  0  0  0  0  0  0  0  0  0  0  0
  -30.8580  -24.4381   19.5974 O   0  0  0  0  0  0  0  0  0  0  0  0
  -29.0650  -23.2024   22.7485 O   0  0  0  0  0  0  0  0  0  0  0  0
  -31.8030  -15.0269   20.2274 O   0  0  0  0  0  0  0  0  0  0  0  0
  -21.6008   -7.0674   21.8168 O   0  0  0  0  0  0  0  0  0  0  0  0
  -33.2419  -22.6434   26.8375 O   0  0  0  0  0  0  0  0  0  1  0  0
  -24.0082   -3.1402   24.8476 F   0  0  0  0  0  0  0  0  0  0  0  0
  -20.5124   -6.2712   24.2301 F   0  0  0  0  0  0  0  0  0  0  0  0
  1  2  1  0  0  0  0
  1  5  2  0  0  0  0
  2  6  2  0  0  0  0
  3  8  2  0  0  0  0
  3 17  1  0  0  0  0
  4  9  1  0  0  0  0
  4 17  2  0  0  0  0
  5 20  1  0  0  0  0
  6 22  1  0  0  0  0
  7 10  2  0  0  0  0
  7 21  1  0  0  0  0
  8 27  1  0  0  0  0
  9 27  2  0  0  0  0
 10 28  1  0  0  0  0
 11 12  2  0  0  0  0
 11 29  1  0  0  0  0
 12 30  1  0  0  0  0
 13 18  1  0  0  0  0
 13 24  2  0  0  0  0
 14 23  1  0  0  0  0
 14 28  2  0  0  0  0
 15 24  1  0  0  0  0
 15 26  2  0  0  0  0
 16 30  2  0  0  0  0
 16 31  1  0  0  0  0
 17 32  1  0  0  0  0
 18 25  2  0  0  0  0
 18 34  1  0  0  0  0
 19 32  1  0  0  0  0
 19 33  2  0  0  0  0
 19 36  1  0  0  0  0
 20 22  2  0  0  0  0
 20 42  1  0  0  0  0
 21 23  2  0  0  0  0
 21 43  1  0  0  0  0
 22 51  1  0  0  0  0
 23 44  1  0  0  0  0
 24 54  1  0  0  0  0
 25 26  1  0  0  0  0
 25 55  1  0  0  0  0
 26 73  1  0  0  0  0
 27 83  1  0  0  0  0
 28 84  1  0  0  0  0
 29 31  2  0  0  0  0
 29 83  1  0  0  0  0
 30 85  1  0  0  0  0
 31 86  1  0  0  0  0
 32 67  2  0  0  0  0
 33 68  1  0  0  0  0
 33 71  1  0  0  0  0
 34 35  2  0  0  0  0
 35 37  1  0  0  0  0
 36 72  1  0  0  0  0
 36 77  2  0  0  0  0
 37 61  1  0  0  0  0
 37 78  2  0  0  0  0
 38 52  1  0  0  0  0
 38 74  1  0  0  0  0
 38 79  2  0  0  0  0
 39 64  1  0  0  0  0
 39 69  1  0  0  0  0
 39 80  2  0  0  0  0
 40 65  1  0  0  0  0
 40 75  1  0  0  0  0
 40 81  2  0  0  0  0
 41 70  1  0  0  0  0
 41 73  1  0  0  0  0
 41 82  2  0  0  0  0
 42 45  1  0  0  0  0
 43 52  1  0  0  0  0
 44 69  1  0  0  0  0
 45 47  1  0  0  0  0
 46 48  1  0  0  0  0
 46 49  1  0  0  0  0
 47 51  1  0  0  0  0
 48 53  1  0  0  0  0
 49 70  1  0  0  0  0
 50 53  1  0  0  0  0
 50 70  1  0  0  0  0
 51 74  1  0  0  0  0
 52 69  1  0  0  0  0
 53 68  1  0  0  0  0
 56 65  1  0  0  0  0
 57 66  1  0  0  0  0
 58 66  1  0  0  0  0
 59 66  1  0  0  0  0
 60 76  1  0  0  0  0
 61 62  1  0  0  0  0
 62 63  1  0  0  0  0
 63 84  1  0  0  0  0
 64 66  1  0  0  0  0
 64 75  1  0  0  0  0
 65 76  1  0  0  0  0
 67 68  1  0  0  0  0
M  CHG  1  76   1
M  ISO  4  41 100  63 101  73 100  84 101
M  END
> <Batch ID>
0128

> <Smiles>
CNC(C)C(=O)NC(C(=O)N1Cc2cc([101O:1][101CH2:1]CCC(=O)C=Cc3cc(C)cc([100NH:0][100C:0](=O)N4CCCC(n5nc(-c6ccc(Oc7ccc(F)cc7F)cc6)c(C(N)=O)c5N)C4)c3C)ccc2CC1C(=O)NC1CCCc2ccccc21)C(C)(C)C

> <Shape>
0.219

> <Color>
0.212

> <Negative vol penalty>
0.000

$$$$

  -OEChem-04052302163D

 85 93  0     1  0  0  0  0  0999 V2000
  -28.5387  -16.7359   14.3606 C   0  0  0  0  0  0  0  0  0  0  0  0
  -28.9586  -16.1457   15.5483 C   0  0  0  0  0  0  0  0  0  0  0  0
  -26.5531  -28.2576   18.9088 C   0  0  0  0  0  0  0  0  0  0  0  0
  -26.2800  -27.2648   21.0944 C   0  0  0  0  0  0  0  0  0  0  0  0
  -27.3034  -17.3798   14.3021 C   0  0  0  0  0  0  0  0  0  0  0  0
  -28.1438  -16.1999   16.6787 C   0  0  0  0  0  0  0  0  0  0  0  0
  -27.8532  -11.7505   19.0793 C   0  0  0  0  0  0  0  0  0  0  0  0
  -25.4715  -29.1025   19.1574 C   0  0  0  0  0  0  0  0  0  0  0  0
  -25.1983  -28.1097   21.3430 C   0  0  0  0  0  0  0  0  0  0  0  0
  -28.9331  -11.3895   19.8839 C   0  0  0  0  0  0  0  0  0  0  0  0
  -22.5913  -30.2533   22.6946 C   0  0  0  0  0  0  0  0  0  0  0  0
  -22.5308  -30.8817   23.9383 C   0  0  0  0  0  0  0  0  0  0  0  0
  -29.5185  -18.0760   20.7683 C   0  0  0  0  0  0  0  0  0  0  0  0
  -29.7572  -17.4878   23.0994 C   0  0  0  0  0  0  0  0  0  0  0  0
  -27.7093  -12.1034   21.8363 C   0  0  0  0  0  0  0  0  0  0  0  0
  -28.4391  -19.4116   22.4678 C   0  0  0  0  0  0  0  0  0  0  0  0
  -24.6485  -31.9579   23.4977 C   0  0  0  0  0  0  0  0  0  0  0  0
  -26.9574  -27.3387   19.8773 C   0  0  0  0  0  0  0  0  0  0  0  0
  -30.0375  -17.2388   21.7559 C   0  0  0  0  0  0  0  0  0  0  0  0
  -29.4306  -26.7144   19.9038 C   0  0  0  0  0  0  0  0  0  0  0  0
  -26.4688  -17.4335   15.4296 C   0  0  0  0  0  0  0  0  0  0  0  0
  -26.6956  -12.3018   19.6471 C   0  0  0  0  0  0  0  0  0  0  0  0
  -26.8968  -16.8463   16.6355 C   0  0  0  0  0  0  0  0  0  0  0  0
  -26.6152  -12.4683   21.0370 C   0  0  0  0  0  0  0  0  0  0  0  0
  -28.7194  -19.1625   21.1243 C   0  0  0  0  0  0  0  0  0  0  0  0
  -24.7941  -29.0286   20.3745 C   0  0  0  0  0  0  0  0  0  0  0  0
  -28.8623  -11.5686   21.2623 C   0  0  0  0  0  0  0  0  0  0  0  0
  -23.6805  -30.4771   21.8523 C   0  0  0  0  0  0  0  0  0  0  0  0
  -23.5594  -31.7340   24.3399 C   0  0  0  0  0  0  0  0  0  0  0  0
  -28.9580  -18.5743   23.4554 C   0  0  0  0  0  0  0  0  0  0  0  0
  -24.7091  -31.3294   22.2539 C   0  0  0  0  0  0  0  0  0  0  0  0
  -28.0743  -26.4653   19.6209 C   0  0  0  0  0  0  0  0  0  0  0  0
  -30.0840  -25.5854   19.4736 C   0  0  0  0  0  0  0  0  0  0  0  0
  -30.8473  -14.8938   22.2781 C   0  0  0  0  0  0  0  0  0  0  0  0
  -31.9190  -14.1039   22.4296 C   0  0  0  0  0  0  0  0  0  0  0  0
  -30.8931  -16.0800   21.3766 C   0  0  0  0  0  0  0  0  0  0  0  0
  -30.0450  -27.8634   20.5020 C   0  0  0  0  0  0  0  0  0  0  0  0
  -25.1728  -15.0796   19.3851 C   0  0  0  0  0  0  0  0  0  0  0  0
  -22.9692  -13.6035   21.2525 C   0  0  0  0  0  0  0  0  0  0  0  0
  -22.2737  -11.1662   23.5378 C   0  0  0  0  0  0  0  0  0  0  0  0
  -28.3730  -19.9071   18.7427 C   0  0  0  0  0  0  0  0  0  0  0  0
  -25.1630  -18.1817   15.3311 C   0  0  0  0  0  0  0  0  0  0  0  0
  -25.5291  -12.6613   18.7681 C   0  0  0  0  0  0  0  0  0  0  0  0
  -25.3871  -13.0371   21.6978 C   0  0  0  0  0  0  0  0  0  0  0  0
  -24.1950  -17.8698   16.4695 C   0  0  0  0  0  0  0  0  0  0  0  0
  -29.7391  -22.0565   16.2545 C   0  0  0  0  0  0  0  0  0  0  0  0
  -24.9174  -17.9156   17.8122 C   0  0  0  0  0  0  0  0  0  0  0  0
  -29.5962  -23.4531   16.8638 C   0  0  0  0  0  0  0  0  0  0  0  0
  -28.5521  -21.1609   16.6047 C   0  0  0  0  0  0  0  0  0  0  0  0
  -28.1041  -22.4633   18.6473 C   0  0  0  0  0  0  0  0  0  0  0  0
  -26.0303  -16.8625   17.8761 C   0  0  1  0  0  0  0  0  0  0  0  0
  -24.5988  -13.6912   19.4015 C   0  0  1  0  0  0  0  0  0  0  0  0
  -29.3070  -23.3814   18.3760 C   0  0  2  0  0  0  0  0  0  0  0  0
  -20.3911  -10.2291   24.9072 C   0  0  0  0  0  0  0  0  0  0  0  0
  -23.1756  -15.9784   23.1570 C   0  0  0  0  0  0  0  0  0  0  0  0
  -22.0467  -14.5858   24.9047 C   0  0  0  0  0  0  0  0  0  0  0  0
  -20.8497  -15.1372   22.7867 C   0  0  0  0  0  0  0  0  0  0  0  0
  -22.4974   -8.5145   22.2427 C   0  0  0  0  0  0  0  0  0  0  0  0
  -31.9358  -12.9012   23.3293 C   0  0  0  0  0  0  0  0  0  0  0  0
  -32.2240  -11.6012   22.5771 C   0  0  0  0  0  0  0  0  0  0  0  0
  -31.2167  -11.3063   21.4718 C   0  0  0  0  0  0  0  0  0  1  0  0
  -22.7470  -13.4668   22.7394 C   0  0  1  0  0  0  0  0  0  0  0  0
  -21.1644  -10.1318   23.6013 C   0  0  2  0  0  0  0  0  0  0  0  0
  -22.2288  -14.7831   23.3846 C   0  0  0  0  0  0  0  0  0  0  0  0
  -27.8763  -25.2719   19.0546 N   0  0  0  0  0  0  0  0  0  0  0  0
  -31.5806  -16.1261   20.2801 N   0  0  0  0  0  0  0  0  0  0  0  0
  -29.1170  -24.7611   18.9781 N   0  0  0  0  0  0  0  0  0  0  0  0
  -24.2755  -13.3792   20.7951 N   0  0  0  0  0  0  0  0  0  0  0  0
  -28.3408  -21.1380   18.0538 N   0  0  0  0  0  0  0  0  0  0  0  0
  -31.3857  -25.2275   19.4744 N   0  0  0  0  0  0  0  0  0  0  0  0
  -29.2269  -28.9348   20.8856 N   0  0  0  0  0  0  0  0  0  0  0  0
  -28.1919  -20.0132   20.1213 N   0  0  0  0  0  0  0  0  0  0  0  0
  -25.4709  -15.5503   18.1205 N   0  0  0  0  0  0  0  0  0  0  0  0
  -21.8572  -12.3242   22.9159 N   0  0  0  0  0  0  0  0  0  0  0  0
  -21.7306   -8.7577   23.4916 N   0  3  0  0  0  0  0  0  0  0  0  0
  -31.2847  -27.9447   20.6758 O   0  0  0  0  0  0  0  0  0  0  0  0
  -25.3321  -15.6801   20.4414 O   0  0  0  0  0  0  0  0  0  0  0  0
  -22.0172  -13.8913   20.5227 O   0  0  0  0  0  0  0  0  0  0  0  0
  -23.3962  -10.9681   23.9975 O   0  0  0  0  0  0  0  0  0  0  0  0
  -28.5753  -18.8405   18.1567 O   0  0  0  0  0  0  0  0  0  0  0  0
  -23.7387  -29.8530   20.6175 O   0  0  0  0  0  0  0  0  0  0  0  0
  -29.9151  -11.2176   22.0499 O   0  0  0  0  0  0  0  0  0  1  0  0
  -23.5004  -32.3387   25.5337 F   0  0  0  0  0  0  0  0  0  0  0  0
  -28.6913  -18.8153   24.7457 F   0  0  0  0  0  0  0  0  0  0  0  0
  -25.7574  -31.5492   21.4486 F   0  0  0  0  0  0  0  0  0  0  0  0
  1  2  1  0  0  0  0
  1  5  2  0  0  0  0
  2  6  2  0  0  0  0
  3  8  2  0  0  0  0
  3 18  1  0  0  0  0
  4  9  1  0  0  0  0
  4 18  2  0  0  0  0
  5 21  1  0  0  0  0
  6 23  1  0  0  0  0
  7 10  2  0  0  0  0
  7 22  1  0  0  0  0
  8 26  1  0  0  0  0
  9 26  2  0  0  0  0
 10 27  1  0  0  0  0
 11 12  2  0  0  0  0
 11 28  1  0  0  0  0
 12 29  1  0  0  0  0
 13 19  2  0  0  0  0
 13 25  1  0  0  0  0
 14 19  1  0  0  0  0
 14 30  2  0  0  0  0
 15 24  1  0  0  0  0
 15 27  2  0  0  0  0
 16 25  2  0  0  0  0
 16 30  1  0  0  0  0
 17 29  2  0  0  0  0
 17 31  1  0  0  0  0
 18 32  1  0  0  0  0
 19 36  1  0  0  0  0
 20 32  1  0  0  0  0
 20 33  2  0  0  0  0
 20 37  1  0  0  0  0
 21 23  2  0  0  0  0
 21 42  1  0  0  0  0
 22 24  2  0  0  0  0
 22 43  1  0  0  0  0
 23 51  1  0  0  0  0
 24 44  1  0  0  0  0
 25 72  1  0  0  0  0
 26 81  1  0  0  0  0
 27 82  1  0  0  0  0
 28 31  2  0  0  0  0
 28 81  1  0  0  0  0
 29 83  1  0  0  0  0
 30 84  1  0  0  0  0
 31 85  1  0  0  0  0
 32 65  2  0  0  0  0
 33 67  1  0  0  0  0
 33 70  1  0  0  0  0
 34 35  2  0  0  0  0
 34 36  1  0  0  0  0
 35 59  1  0  0  0  0
 36 66  2  0  0  0  0
 37 71  1  0  0  0  0
 37 76  2  0  0  0  0
 38 52  1  0  0  0  0
 38 73  1  0  0  0  0
 38 77  2  0  0  0  0
 39 62  1  0  0  0  0
 39 68  1  0  0  0  0
 39 78  2  0  0  0  0
 40 63  1  0  0  0  0
 40 74  1  0  0  0  0
 40 79  2  0  0  0  0
 41 69  1  0  0  0  0
 41 72  1  0  0  0  0
 41 80  2  0  0  0  0
 42 45  1  0  0  0  0
 43 52  1  0  0  0  0
 44 68  1  0  0  0  0
 45 47  1  0  0  0  0
 46 48  1  0  0  0  0
 46 49  1  0  0  0  0
 47 51  1  0  0  0  0
 48 53  1  0  0  0  0
 49 69  1  0  0  0  0
 50 53  1  0  0  0  0
 50 69  1  0  0  0  0
 51 73  1  0  0  0  0
 52 68  1  0  0  0  0
 53 67  1  0  0  0  0
 54 63  1  0  0  0  0
 55 64  1  0  0  0  0
 56 64  1  0  0  0  0
 57 64  1  0  0  0  0
 58 75  1  0  0  0  0
 59 60  1  0  0  0  0
 60 61  1  0  0  0  0
 61 82  1  0  0  0  0
 62 64  1  0  0  0  0
 62 74  1  0  0  0  0
 63 75  1  0  0  0  0
 65 67  1  0  0  0  0
M  CHG  1  75   1
M  ISO  4  41 100  61 101  72 100  82 101
M  END
> <Batch ID>
0128

> <Smiles>
CNC(C)C(=O)NC(C(=O)N1Cc2cc([101O:1][101CH2:1]CCC=CC(=N)c3cc(F)cc([100NH:0][100C:0](=O)N4CCCC(n5nc(-c6ccc(Oc7ccc(F)cc7F)cc6)c(C(N)=O)c5N)C4)c3)ccc2CC1C(=O)NC1CCCc2ccccc21)C(C)(C)C

> <Shape>
0.271

> <Color>
0.082

> <Negative vol penalty>
0.000

$$$$

  -OEChem-04052302163D

 85 93  0     1  0  0  0  0  0999 V2000
  -27.8737  -18.7379   28.0381 C   0  0  0  0  0  0  0  0  0  0  0  0
  -28.1389  -20.0303   27.5997 C   0  0  0  0  0  0  0  0  0  0  0  0
  -26.8088  -11.8405   21.7844 C   0  0  0  0  0  0  0  0  0  0  0  0
  -25.8011  -13.0285   19.9378 C   0  0  0  0  0  0  0  0  0  0  0  0
  -26.9474  -17.9512   27.3567 C   0  0  0  0  0  0  0  0  0  0  0  0
  -27.4694  -20.5407   26.4870 C   0  0  0  0  0  0  0  0  0  0  0  0
  -28.1050  -25.8550   23.5748 C   0  0  0  0  0  0  0  0  0  0  0  0
  -25.6695  -11.0431   21.8931 C   0  0  0  0  0  0  0  0  0  0  0  0
  -24.6618  -12.2311   20.0465 C   0  0  0  0  0  0  0  0  0  0  0  0
  -28.8378  -26.3589   22.5011 C   0  0  0  0  0  0  0  0  0  0  0  0
  -21.3435  -10.7485   20.0691 C   0  0  0  0  0  0  0  0  0  0  0  0
  -20.1016  -11.3807   20.0092 C   0  0  0  0  0  0  0  0  0  0  0  0
  -28.7959  -22.8714   17.5212 C   0  0  0  0  0  0  0  0  0  0  0  0
  -29.4026  -22.0846   19.7234 C   0  0  0  0  0  0  0  0  0  0  0  0
  -26.9472  -25.9948   21.0477 C   0  0  0  0  0  0  0  0  0  0  0  0
  -27.7056  -20.9267   18.4520 C   0  0  0  0  0  0  0  0  0  0  0  0
  -20.6754  -12.6925   21.9552 C   0  0  0  0  0  0  0  0  0  0  0  0
  -26.8746  -12.8333   20.8067 C   0  0  0  0  0  0  0  0  0  0  0  0
  -29.5638  -22.9951   18.6791 C   0  0  0  0  0  0  0  0  0  0  0  0
  -29.1927  -13.4072   19.9098 C   0  0  0  0  0  0  0  0  0  0  0  0
  -26.2758  -18.4485   26.2277 C   0  0  0  0  0  0  0  0  0  0  0  0
  -26.7892  -25.4064   23.3905 C   0  0  0  0  0  0  0  0  0  0  0  0
  -26.5134  -19.7707   25.8001 C   0  0  0  0  0  0  0  0  0  0  0  0
  -26.1989  -25.4881   22.1213 C   0  0  0  0  0  0  0  0  0  0  0  0
  -27.8668  -21.8372   17.4077 C   0  0  0  0  0  0  0  0  0  0  0  0
  -28.4735  -21.0504   19.6099 C   0  0  0  0  0  0  0  0  0  0  0  0
  -24.5960  -11.2384   21.0242 C   0  0  0  0  0  0  0  0  0  0  0  0
  -28.2599  -26.4262   21.2367 C   0  0  0  0  0  0  0  0  0  0  0  0
  -22.2514  -11.0883   21.0721 C   0  0  0  0  0  0  0  0  0  0  0  0
  -19.7675  -12.3527   20.9522 C   0  0  0  0  0  0  0  0  0  0  0  0
  -21.9173  -12.0603   22.0151 C   0  0  0  0  0  0  0  0  0  0  0  0
  -28.0509  -13.6576   20.6943 C   0  0  0  0  0  0  0  0  0  0  0  0
  -30.0161  -14.4800   20.1496 C   0  0  0  0  0  0  0  0  0  0  0  0
  -30.5580  -24.1020   18.8004 C   0  0  0  0  0  0  0  0  0  0  0  0
  -29.4830  -12.3035   19.0419 C   0  0  0  0  0  0  0  0  0  0  0  0
  -25.3021  -22.6175   23.7286 C   0  0  0  0  0  0  0  0  0  0  0  0
  -22.6632  -24.3885   23.0790 C   0  0  0  0  0  0  0  0  0  0  0  0
  -21.3319  -27.1878   21.6514 C   0  0  0  0  0  0  0  0  0  0  0  0
  -28.9912  -20.1046   21.8867 C   0  0  0  0  0  0  0  0  0  0  0  0
  -25.2775  -17.5567   25.5325 C   0  0  0  0  0  0  0  0  0  0  0  0
  -26.0031  -24.8904   24.5644 C   0  0  0  0  0  0  0  0  0  0  0  0
  -24.7828  -25.0383   21.8748 C   0  0  0  0  0  0  0  0  0  0  0  0
  -24.9519  -18.0197   24.1162 C   0  0  0  0  0  0  0  0  0  0  0  0
  -31.0650  -17.7158   23.5206 C   0  0  0  0  0  0  0  0  0  0  0  0
  -24.6148  -19.5032   24.1189 C   0  0  0  0  0  0  0  0  0  0  0  0
  -30.6356  -16.3819   22.9054 C   0  0  0  0  0  0  0  0  0  0  0  0
  -29.8806  -18.6628   23.7047 C   0  0  0  0  0  0  0  0  0  0  0  0
  -28.6445  -17.5560   21.8837 C   0  0  0  0  0  0  0  0  0  0  0  0
  -25.8197  -20.3362   24.5740 C   0  0  1  0  0  0  0  0  0  0  0  0
  -24.8459  -23.9837   24.1566 C   0  0  1  0  0  0  0  0  0  0  0  0
  -29.8136  -16.5933   21.6189 C   0  0  2  0  0  0  0  0  0  0  0  0
  -24.9075  -22.3804   14.9884 C   0  0  0  0  0  0  0  0  0  0  0  0
  -19.1402  -28.3418   21.2490 C   0  0  0  0  0  0  0  0  0  0  0  0
  -22.0197  -22.3893   20.8656 C   0  0  0  0  0  0  0  0  0  0  0  0
  -20.4183  -24.0629   19.9153 C   0  0  0  0  0  0  0  0  0  0  0  0
  -20.0428  -23.1386   22.2016 C   0  0  0  0  0  0  0  0  0  0  0  0
  -22.1703  -29.5696   23.1950 C   0  0  0  0  0  0  0  0  0  0  0  0
  -27.0454  -21.7048   16.1697 C   0  0  0  0  0  0  0  0  0  0  0  0
  -30.2856  -25.4113   18.0753 C   0  0  0  0  0  0  0  0  0  0  0  0
  -25.7277  -22.4887   16.2641 C   0  0  0  0  0  0  0  0  0  0  0  0
  -30.9027  -26.6091   18.7944 C   0  0  0  0  0  0  0  0  0  0  0  0
  -30.3881  -26.7347   20.2211 C   0  0  0  0  0  0  0  0  0  1  0  0
  -21.9240  -24.7849   21.8238 C   0  0  1  0  0  0  0  0  0  0  0  0
  -20.3398  -28.2108   22.1745 C   0  0  2  0  0  0  0  0  0  0  0  0
  -21.1286  -23.6007   21.2055 C   0  0  0  0  0  0  0  0  0  0  0  0
  -28.1377  -14.7999   21.3812 N   0  0  0  0  0  0  0  0  0  0  0  0
  -29.3439  -15.2766   21.0291 N   0  0  0  0  0  0  0  0  0  0  0  0
  -24.0572  -24.5356   23.0531 N   0  0  0  0  0  0  0  0  0  0  0  0
  -29.1516  -18.8184   22.4441 N   0  0  0  0  0  0  0  0  0  0  0  0
  -31.2425  -14.8101   19.6918 N   0  0  0  0  0  0  0  0  0  0  0  0
  -28.5268  -11.2871   18.9108 N   0  0  0  0  0  0  0  0  0  0  0  0
  -28.3096  -20.1250   20.6704 N   0  0  0  0  0  0  0  0  0  0  0  0
  -25.4010  -21.7075   24.7638 N   0  0  0  0  0  0  0  0  0  0  0  0
  -21.1014  -25.9357   22.1807 N   0  0  0  0  0  0  0  0  0  0  0  0
  -20.9886  -29.5470   22.2950 N   0  3  0  0  0  0  0  0  0  0  0  0
  -31.5672  -23.9300   19.4802 O   0  0  0  0  0  0  0  0  0  0  0  0
  -30.5653  -12.2128   18.4143 O   0  0  0  0  0  0  0  0  0  0  0  0
  -25.5449  -22.4043   22.5466 O   0  0  0  0  0  0  0  0  0  0  0  0
  -22.0264  -23.9706   24.0494 O   0  0  0  0  0  0  0  0  0  0  0  0
  -22.2201  -27.4704   20.8502 O   0  0  0  0  0  0  0  0  0  0  0  0
  -29.4502  -21.1108   22.4336 O   0  0  0  0  0  0  0  0  0  0  0  0
  -23.4842  -10.4604   21.1298 O   0  0  0  0  0  0  0  0  0  0  0  0
  -28.9732  -26.9169   20.1868 O   0  0  0  0  0  0  0  0  0  1  0  0
  -18.5755  -12.9608   20.8936 F   0  0  0  0  0  0  0  0  0  0  0  0
  -22.7858  -12.3918   22.9803 F   0  0  0  0  0  0  0  0  0  0  0  0
  1  2  1  0  0  0  0
  1  5  2  0  0  0  0
  2  6  2  0  0  0  0
  3  8  2  0  0  0  0
  3 18  1  0  0  0  0
  4  9  1  0  0  0  0
  4 18  2  0  0  0  0
  5 21  1  0  0  0  0
  6 23  1  0  0  0  0
  7 10  2  0  0  0  0
  7 22  1  0  0  0  0
  8 27  1  0  0  0  0
  9 27  2  0  0  0  0
 10 28  1  0  0  0  0
 11 12  2  0  0  0  0
 11 29  1  0  0  0  0
 12 30  1  0  0  0  0
 13 19  1  0  0  0  0
 13 25  2  0  0  0  0
 14 19  2  0  0  0  0
 14 26  1  0  0  0  0
 15 24  1  0  0  0  0
 15 28  2  0  0  0  0
 16 25  1  0  0  0  0
 16 26  2  0  0  0  0
 17 30  2  0  0  0  0
 17 31  1  0  0  0  0
 18 32  1  0  0  0  0
 19 34  1  0  0  0  0
 20 32  1  0  0  0  0
 20 33  2  0  0  0  0
 20 35  1  0  0  0  0
 21 23  2  0  0  0  0
 21 40  1  0  0  0  0
 22 24  2  0  0  0  0
 22 41  1  0  0  0  0
 23 49  1  0  0  0  0
 24 42  1  0  0  0  0
 25 58  1  0  0  0  0
 26 72  1  0  0  0  0
 27 82  1  0  0  0  0
 28 83  1  0  0  0  0
 29 31  2  0  0  0  0
 29 82  1  0  0  0  0
 30 84  1  0  0  0  0
 31 85  1  0  0  0  0
 32 66  2  0  0  0  0
 33 67  1  0  0  0  0
 33 70  1  0  0  0  0
 34 59  1  0  0  0  0
 34 76  2  0  0  0  0
 35 71  1  0  0  0  0
 35 77  2  0  0  0  0
 36 50  1  0  0  0  0
 36 73  1  0  0  0  0
 36 78  2  0  0  0  0
 37 63  1  0  0  0  0
 37 68  1  0  0  0  0
 37 79  2  0  0  0  0
 38 64  1  0  0  0  0
 38 74  1  0  0  0  0
 38 80  2  0  0  0  0
 39 69  1  0  0  0  0
 39 72  1  0  0  0  0
 39 81  2  0  0  0  0
 40 43  1  0  0  0  0
 41 50  1  0  0  0  0
 42 68  1  0  0  0  0
 43 45  1  0  0  0  0
 44 46  1  0  0  0  0
 44 47  1  0  0  0  0
 45 49  1  0  0  0  0
 46 51  1  0  0  0  0
 47 69  1  0  0  0  0
 48 51  1  0  0  0  0
 48 69  1  0  0  0  0
 49 73  1  0  0  0  0
 50 68  1  0  0  0  0
 51 67  1  0  0  0  0
 52 60  1  0  0  0  0
 53 64  1  0  0  0  0
 54 65  1  0  0  0  0
 55 65  1  0  0  0  0
 56 65  1  0  0  0  0
 57 75  1  0  0  0  0
 58 60  1  0  0  0  0
 59 61  1  0  0  0  0
 61 62  1  0  0  0  0
 62 83  1  0  0  0  0
 63 65  1  0  0  0  0
 63 74  1  0  0  0  0
 64 75  1  0  0  0  0
 66 67  1  0  0  0  0
M  CHG  1  75   1
M  ISO  4  39 100  62 101  72 100  83 101
M  END
> <Batch ID>
0128

> <Smiles>
CCCc1cc([100NH:0][100C:0](=O)N2CCCC(n3nc(-c4ccc(Oc5ccc(F)cc5F)cc4)c(C(N)=O)c3N)C2)cc(C(=O)CC[101CH2:1][101O:1]c2ccc3c(c2)CN(C(=O)C(NC(=O)C(C)NC)C(C)(C)C)C(C(=O)NC2CCCc4ccccc42)C3)c1

> <Shape>
0.230

> <Color>
0.051

> <Negative vol penalty>
0.000

$$$$

  -OEChem-04052302163D

 84 92  0     1  0  0  0  0  0999 V2000
  -28.3444  -35.6428   23.5112 C   0  0  0  0  0  0  0  0  0  0  0  0
  -28.5865  -34.3031   23.2253 C   0  0  0  0  0  0  0  0  0  0  0  0
  -23.7780   -8.7155   20.2741 C   0  0  0  0  0  0  0  0  0  0  0  0
  -22.6078  -10.6510   21.1236 C   0  0  0  0  0  0  0  0  0  0  0  0
  -29.0378  -20.2665   19.2801 C   0  0  0  0  0  0  0  0  0  0  0  0
  -27.1210  -36.0277   24.0582 C   0  0  0  0  0  0  0  0  0  0  0  0
  -27.6057  -33.3471   23.4872 C   0  0  0  0  0  0  0  0  0  0  0  0
  -27.0317  -30.0587   19.6791 C   0  0  0  0  0  0  0  0  0  0  0  0
  -29.1212  -18.8978   19.5352 C   0  0  0  0  0  0  0  0  0  0  0  0
  -22.8790   -7.8806   20.9377 C   0  0  0  0  0  0  0  0  0  0  0  0
  -21.7087   -9.8161   21.7871 C   0  0  0  0  0  0  0  0  0  0  0  0
  -27.9806  -29.0436   19.5659 C   0  0  0  0  0  0  0  0  0  0  0  0
  -22.3833   -6.7564   24.0864 C   0  0  0  0  0  0  0  0  0  0  0  0
  -22.9061   -5.6730   24.7924 C   0  0  0  0  0  0  0  0  0  0  0  0
  -27.3423  -19.8518   17.6096 C   0  0  0  0  0  0  0  0  0  0  0  0
  -26.4561  -27.5078   20.6319 C   0  0  0  0  0  0  0  0  0  0  0  0
  -21.6310   -4.1566   23.4097 C   0  0  0  0  0  0  0  0  0  0  0  0
  -23.6425  -10.1007   20.3671 C   0  0  0  0  0  0  0  0  0  0  0  0
  -28.1483  -20.7436   18.3173 C   0  0  0  0  0  0  0  0  0  0  0  0
  -24.4558  -11.4685   18.3733 C   0  0  0  0  0  0  0  0  0  0  0  0
  -26.1211  -35.0772   24.3180 C   0  0  0  0  0  0  0  0  0  0  0  0
  -25.7898  -29.8083   20.2804 C   0  0  0  0  0  0  0  0  0  0  0  0
  -26.3683  -33.7194   24.0395 C   0  0  0  0  0  0  0  0  0  0  0  0
  -25.4921  -28.5208   20.7492 C   0  0  0  0  0  0  0  0  0  0  0  0
  -27.4258  -18.4830   17.8647 C   0  0  0  0  0  0  0  0  0  0  0  0
  -28.3152  -18.0060   18.8276 C   0  0  0  0  0  0  0  0  0  0  0  0
  -21.8443   -8.4309   21.6942 C   0  0  0  0  0  0  0  0  0  0  0  0
  -27.6940  -27.7687   20.0449 C   0  0  0  0  0  0  0  0  0  0  0  0
  -21.4842   -6.5400   23.0421 C   0  0  0  0  0  0  0  0  0  0  0  0
  -22.5300   -4.3731   24.4541 C   0  0  0  0  0  0  0  0  0  0  0  0
  -21.1081   -5.2401   22.7037 C   0  0  0  0  0  0  0  0  0  0  0  0
  -24.5712  -10.9636   19.6823 C   0  0  0  0  0  0  0  0  0  0  0  0
  -25.5856  -12.2296   18.1980 C   0  0  0  0  0  0  0  0  0  0  0  0
  -28.0606  -22.1898   18.0483 C   0  0  0  0  0  0  0  0  0  0  0  0
  -29.0108  -23.0815   18.3624 C   0  0  0  0  0  0  0  0  0  0  0  0
  -23.4199  -11.2676   17.4027 C   0  0  0  0  0  0  0  0  0  0  0  0
  -28.8207  -24.5306   18.0552 C   0  0  0  0  0  0  0  0  0  0  0  0
  -24.2735  -30.9206   22.8431 C   0  0  0  0  0  0  0  0  0  0  0  0
  -21.8358  -29.1075   21.7061 C   0  0  0  0  0  0  0  0  0  0  0  0
  -20.8415  -26.4510   19.8084 C   0  0  0  0  0  0  0  0  0  0  0  0
  -29.2516  -15.9994   20.0288 C   0  0  0  0  0  0  0  0  0  0  0  0
  -24.8323  -35.5347   24.9538 C   0  0  0  0  0  0  0  0  0  0  0  0
  -24.7669  -30.9073   20.3708 C   0  0  0  0  0  0  0  0  0  0  0  0
  -24.1660  -28.1952   21.3847 C   0  0  0  0  0  0  0  0  0  0  0  0
  -23.7059  -34.5094   24.8531 C   0  0  0  0  0  0  0  0  0  0  0  0
  -29.7657  -12.6202   21.0258 C   0  0  0  0  0  0  0  0  0  0  0  0
  -24.2108  -33.1222   25.2371 C   0  0  0  0  0  0  0  0  0  0  0  0
  -28.4506  -11.9295   20.6575 C   0  0  0  0  0  0  0  0  0  0  0  0
  -29.5363  -14.0426   21.5338 C   0  0  0  0  0  0  0  0  0  0  0  0
  -27.4236  -14.2072   20.2774 C   0  0  0  0  0  0  0  0  0  0  0  0
  -25.3201  -32.6562   24.2864 C   0  0  1  0  0  0  0  0  0  0  0  0
  -23.7303  -30.6703   21.4647 C   0  0  1  0  0  0  0  0  0  0  0  0
  -27.6087  -12.7947   19.6992 C   0  0  2  0  0  0  0  0  0  0  0  0
  -26.5505  -17.5505   17.0919 C   0  0  0  0  0  0  0  0  0  0  0  0
  -18.7878  -25.1938   19.1018 C   0  0  0  0  0  0  0  0  0  0  0  0
  -21.6999  -27.7895   24.4546 C   0  0  0  0  0  0  0  0  0  0  0  0
  -20.3409  -25.9535   23.4299 C   0  0  0  0  0  0  0  0  0  0  0  0
  -19.4758  -28.2932   23.4281 C   0  0  0  0  0  0  0  0  0  0  0  0
  -21.3133  -27.0561   16.9500 C   0  0  0  0  0  0  0  0  0  0  0  0
  -29.9715  -25.4383   18.4617 C   0  0  0  0  0  0  0  0  0  0  0  0
  -29.5164  -26.8432   18.8290 C   0  0  0  0  0  0  0  0  0  1  0  0
  -21.3889  -27.6778   21.8940 C   0  0  1  0  0  0  0  0  0  0  0  0
  -19.7555  -26.3149   18.7564 C   0  0  2  0  0  0  0  0  0  0  0  0
  -20.7522  -27.4348   23.2915 C   0  0  0  0  0  0  0  0  0  0  0  0
  -25.6865  -11.3695   20.2951 N   0  0  0  0  0  0  0  0  0  0  0  0
  -26.2822  -12.1376   19.3670 N   0  0  0  0  0  0  0  0  0  0  0  0
  -23.2012  -29.3049   21.4557 N   0  0  0  0  0  0  0  0  0  0  0  0
  -28.7356  -14.8041   20.5727 N   0  0  0  0  0  0  0  0  0  0  0  0
  -26.0413  -12.9618   17.1594 N   0  0  0  0  0  0  0  0  0  0  0  0
  -22.3299  -10.4566   17.7469 N   0  0  0  0  0  0  0  0  0  0  0  0
  -28.4148  -16.6194   19.1015 N   0  0  0  0  0  0  0  0  0  0  0  0
  -24.7547  -32.2018   23.0341 N   0  0  0  0  0  0  0  0  0  0  0  0
  -20.5044  -27.3761   20.7737 N   0  0  0  0  0  0  0  0  0  0  0  0
  -20.3579  -26.0224   17.4250 N   0  3  0  0  0  0  0  0  0  0  0  0
  -23.4676  -11.7785   16.2580 O   0  0  0  0  0  0  0  0  0  0  0  0
  -27.8019  -24.9472   17.5108 O   0  0  0  0  0  0  0  0  0  0  0  0
  -24.2560  -30.0186   23.6724 O   0  0  0  0  0  0  0  0  0  0  0  0
  -21.0030  -30.0151   21.7717 O   0  0  0  0  0  0  0  0  0  0  0  0
  -21.8829  -25.7990   19.7790 O   0  0  0  0  0  0  0  0  0  0  0  0
  -30.3663  -16.4262   20.3409 O   0  0  0  0  0  0  0  0  0  0  0  0
  -20.9667   -7.6166   22.3416 O   0  0  0  0  0  0  0  0  0  0  0  0
  -28.6187  -26.7762   19.9363 O   0  0  0  0  0  0  0  0  0  1  0  0
  -23.0333   -3.3327   25.1311 F   0  0  0  0  0  0  0  0  0  0  0  0
  -20.2458   -5.0259   21.7006 F   0  0  0  0  0  0  0  0  0  0  0  0
  1  2  1  0  0  0  0
  1  6  2  0  0  0  0
  2  7  2  0  0  0  0
  3 10  2  0  0  0  0
  3 18  1  0  0  0  0
  4 11  1  0  0  0  0
  4 18  2  0  0  0  0
  5  9  2  0  0  0  0
  5 19  1  0  0  0  0
  6 21  1  0  0  0  0
  7 23  1  0  0  0  0
  8 12  2  0  0  0  0
  8 22  1  0  0  0  0
  9 26  1  0  0  0  0
 10 27  1  0  0  0  0
 11 27  2  0  0  0  0
 12 28  1  0  0  0  0
 13 14  2  0  0  0  0
 13 29  1  0  0  0  0
 14 30  1  0  0  0  0
 15 19  2  0  0  0  0
 15 25  1  0  0  0  0
 16 24  1  0  0  0  0
 16 28  2  0  0  0  0
 17 30  2  0  0  0  0
 17 31  1  0  0  0  0
 18 32  1  0  0  0  0
 19 34  1  0  0  0  0
 20 32  1  0  0  0  0
 20 33  2  0  0  0  0
 20 36  1  0  0  0  0
 21 23  2  0  0  0  0
 21 42  1  0  0  0  0
 22 24  2  0  0  0  0
 22 43  1  0  0  0  0
 23 51  1  0  0  0  0
 24 44  1  0  0  0  0
 25 26  2  0  0  0  0
 25 54  1  0  0  0  0
 26 71  1  0  0  0  0
 27 81  1  0  0  0  0
 28 82  1  0  0  0  0
 29 31  2  0  0  0  0
 29 81  1  0  0  0  0
 30 83  1  0  0  0  0
 31 84  1  0  0  0  0
 32 65  2  0  0  0  0
 33 66  1  0  0  0  0
 33 69  1  0  0  0  0
 34 35  2  0  0  0  0
 35 37  1  0  0  0  0
 36 70  1  0  0  0  0
 36 75  2  0  0  0  0
 37 60  1  0  0  0  0
 37 76  2  0  0  0  0
 38 52  1  0  0  0  0
 38 72  1  0  0  0  0
 38 77  2  0  0  0  0
 39 62  1  0  0  0  0
 39 67  1  0  0  0  0
 39 78  2  0  0  0  0
 40 63  1  0  0  0  0
 40 73  1  0  0  0  0
 40 79  2  0  0  0  0
 41 68  1  0  0  0  0
 41 71  1  0  0  0  0
 41 80  2  0  0  0  0
 42 45  1  0  0  0  0
 43 52  1  0  0  0  0
 44 67  1  0  0  0  0
 45 47  1  0  0  0  0
 46 48  1  0  0  0  0
 46 49  1  0  0  0  0
 47 51  1  0  0  0  0
 48 53  1  0  0  0  0
 49 68  1  0  0  0  0
 50 53  1  0  0  0  0
 50 68  1  0  0  0  0
 51 72  1  0  0  0  0
 52 67  1  0  0  0  0
 53 66  1  0  0  0  0
 55 63  1  0  0  0  0
 56 64  1  0  0  0  0
 57 64  1  0  0  0  0
 58 64  1  0  0  0  0
 59 74  1  0  0  0  0
 60 61  1  0  0  0  0
 61 82  1  0  0  0  0
 62 64  1  0  0  0  0
 62 73  1  0  0  0  0
 63 74  1  0  0  0  0
 65 66  1  0  0  0  0
M  CHG  1  74   1
M  ISO  4  41 100  61 101  71 100  82 101
M  END
> <Batch ID>
0128

> <Smiles>
CNC(C)C(=O)NC(C(=O)N1Cc2cc([101O:1][101CH2:1]CC(=O)C=Cc3ccc([100NH:0][100C:0](=O)N4CCCC(n5nc(-c6ccc(Oc7ccc(F)cc7F)cc6)c(C(N)=O)c5N)C4)c(C)c3)ccc2CC1C(=O)NC1CCCc2ccccc21)C(C)(C)C

> <Shape>
0.343

> <Color>
0.105

> <Negative vol penalty>
0.000

$$$$

  -OEChem-04052302163D

 84 92  0     1  0  0  0  0  0999 V2000
  -18.9983  -25.2439   19.5430 C   0  0  0  0  0  0  0  0  0  0  0  0
  -20.3307  -25.6117   19.3852 C   0  0  0  0  0  0  0  0  0  0  0  0
  -27.0433  -13.7073   22.0572 C   0  0  0  0  0  0  0  0  0  0  0  0
  -26.6324  -13.4663   19.6886 C   0  0  0  0  0  0  0  0  0  0  0  0
  -18.2443  -25.7884   20.5817 C   0  0  0  0  0  0  0  0  0  0  0  0
  -20.9096  -26.5251   20.2655 C   0  0  0  0  0  0  0  0  0  0  0  0
  -25.5106  -25.0829   21.8135 C   0  0  0  0  0  0  0  0  0  0  0  0
  -26.3205  -12.5396   22.3014 C   0  0  0  0  0  0  0  0  0  0  0  0
  -25.9097  -12.2986   19.9328 C   0  0  0  0  0  0  0  0  0  0  0  0
  -26.5699  -25.2760   20.9279 C   0  0  0  0  0  0  0  0  0  0  0  0
  -23.0756  -11.6155   22.5028 C   0  0  0  0  0  0  0  0  0  0  0  0
  -22.1557  -11.6309   23.5512 C   0  0  0  0  0  0  0  0  0  0  0  0
  -30.5466  -23.2651   17.2274 C   0  0  0  0  0  0  0  0  0  0  0  0
  -32.7108  -23.2933   16.1541 C   0  0  0  0  0  0  0  0  0  0  0  0
  -27.1987  -27.2736   22.1251 C   0  0  0  0  0  0  0  0  0  0  0  0
  -31.3586  -21.2921   16.0938 C   0  0  0  0  0  0  0  0  0  0  0  0
  -23.3562   -9.8336   24.6309 C   0  0  0  0  0  0  0  0  0  0  0  0
  -27.1992  -14.1707   20.7508 C   0  0  0  0  0  0  0  0  0  0  0  0
  -31.7187  -23.9415   16.8898 C   0  0  0  0  0  0  0  0  0  0  0  0
  -29.3262  -15.4859   20.2471 C   0  0  0  0  0  0  0  0  0  0  0  0
  -18.8170  -26.7016   21.4810 C   0  0  0  0  0  0  0  0  0  0  0  0
  -25.2804  -25.9912   22.8568 C   0  0  0  0  0  0  0  0  0  0  0  0
  -20.1622  -27.0834   21.3165 C   0  0  0  0  0  0  0  0  0  0  0  0
  -26.1374  -27.0884   23.0242 C   0  0  0  0  0  0  0  0  0  0  0  0
  -30.3665  -21.9403   16.8295 C   0  0  0  0  0  0  0  0  0  0  0  0
  -25.7537  -11.8352   21.2392 C   0  0  0  0  0  0  0  0  0  0  0  0
  -27.4124  -26.3731   21.0818 C   0  0  0  0  0  0  0  0  0  0  0  0
  -24.1357  -10.7091   22.5183 C   0  0  0  0  0  0  0  0  0  0  0  0
  -22.2960  -10.7400   24.6152 C   0  0  0  0  0  0  0  0  0  0  0  0
  -32.5308  -21.9686   15.7561 C   0  0  0  0  0  0  0  0  0  0  0  0
  -24.2760   -9.8182   23.5824 C   0  0  0  0  0  0  0  0  0  0  0  0
  -27.9453  -15.3772   20.4979 C   0  0  0  0  0  0  0  0  0  0  0  0
  -29.5386  -16.8316   20.0725 C   0  0  0  0  0  0  0  0  0  0  0  0
  -30.6820  -26.1844   17.4564 C   0  0  0  0  0  0  0  0  0  0  0  0
  -30.6174  -27.1686   18.3633 C   0  0  0  0  0  0  0  0  0  0  0  0
  -31.9127  -25.3553   17.3167 C   0  0  0  0  0  0  0  0  0  0  0  0
  -30.3275  -14.4621   20.1780 C   0  0  0  0  0  0  0  0  0  0  0  0
  -22.8945  -27.9344   23.6538 C   0  0  0  0  0  0  0  0  0  0  0  0
  -24.6972  -28.4251   26.3056 C   0  0  0  0  0  0  0  0  0  0  0  0
  -27.7830  -28.3691   27.7623 C   0  0  0  0  0  0  0  0  0  0  0  0
  -28.0927  -21.7490   17.8971 C   0  0  0  0  0  0  0  0  0  0  0  0
  -17.9490  -27.2995   22.5599 C   0  0  0  0  0  0  0  0  0  0  0  0
  -24.1495  -25.7541   23.8197 C   0  0  0  0  0  0  0  0  0  0  0  0
  -25.9455  -28.0815   24.1401 C   0  0  0  0  0  0  0  0  0  0  0  0
  -18.7425  -27.9755   23.6751 C   0  0  0  0  0  0  0  0  0  0  0  0
  -26.4959  -20.7850   20.9299 C   0  0  0  0  0  0  0  0  0  0  0  0
  -19.8305  -28.8700   23.0895 C   0  0  0  0  0  0  0  0  0  0  0  0
  -26.8442  -19.3011   21.0672 C   0  0  0  0  0  0  0  0  0  0  0  0
  -26.2581  -21.1792   19.4732 C   0  0  0  0  0  0  0  0  0  0  0  0
  -27.6879  -19.3343   18.6852 C   0  0  0  0  0  0  0  0  0  0  0  0
  -20.8328  -28.0524   22.2659 C   0  0  1  0  0  0  0  0  0  0  0  0
  -23.6994  -27.0232   24.5368 C   0  0  1  0  0  0  0  0  0  0  0  0
  -27.9999  -18.9042   20.1279 C   0  0  2  0  0  0  0  0  0  0  0  0
  -28.9469  -28.8599   29.9306 C   0  0  0  0  0  0  0  0  0  0  0  0
  -24.5139  -31.4148   25.7245 C   0  0  0  0  0  0  0  0  0  0  0  0
  -26.4227  -31.7683   27.3055 C   0  0  0  0  0  0  0  0  0  0  0  0
  -24.2778  -30.8049   28.1383 C   0  0  0  0  0  0  0  0  0  0  0  0
  -28.6819  -25.5639   28.0485 C   0  0  0  0  0  0  0  0  0  0  0  0
  -29.4023  -28.0323   18.5590 C   0  0  0  0  0  0  0  0  0  0  0  0
  -28.8477  -27.9117   19.9735 C   0  0  0  0  0  0  0  0  0  1  0  0
  -25.7924  -29.3903   26.6902 C   0  0  1  0  0  0  0  0  0  0  0  0
  -28.2625  -27.7977   29.0844 C   0  0  2  0  0  0  0  0  0  0  0  0
  -25.2544  -30.8271   26.9423 C   0  0  0  0  0  0  0  0  0  0  0  0
  -27.3241  -16.5596   20.4848 N   0  0  0  0  0  0  0  0  0  0  0  0
  -33.1120  -25.8112   17.4924 N   0  0  0  0  0  0  0  0  0  0  0  0
  -28.3194  -17.4241   20.2238 N   0  0  0  0  0  0  0  0  0  0  0  0
  -24.8219  -27.8098   25.0519 N   0  0  0  0  0  0  0  0  0  0  0  0
  -27.3956  -20.7757   18.6437 N   0  0  0  0  0  0  0  0  0  0  0  0
  -30.6473  -17.5541   19.8059 N   0  0  0  0  0  0  0  0  0  0  0  0
  -29.9376  -13.1314   20.3818 N   0  0  0  0  0  0  0  0  0  0  0  0
  -29.1758  -21.2529   17.1722 N   0  0  0  0  0  0  0  0  0  0  0  0
  -21.7520  -27.3530   23.1379 N   0  0  0  0  0  0  0  0  0  0  0  0
  -26.4746  -28.7981   27.8358 N   0  0  0  0  0  0  0  0  0  0  0  0
  -29.2300  -26.6889   28.8490 N   0  3  0  0  0  0  0  0  0  0  0  0
  -31.5351  -14.7212   19.9588 O   0  0  0  0  0  0  0  0  0  0  0  0
  -23.2806  -29.0805   23.4565 O   0  0  0  0  0  0  0  0  0  0  0  0
  -23.7692  -28.2190   27.0916 O   0  0  0  0  0  0  0  0  0  0  0  0
  -28.4987  -28.4322   26.7651 O   0  0  0  0  0  0  0  0  0  0  0  0
  -27.7706  -22.9396   17.9219 O   0  0  0  0  0  0  0  0  0  0  0  0
  -25.0486  -10.6956   21.4771 O   0  0  0  0  0  0  0  0  0  0  0  0
  -28.4467  -26.5643   20.2184 O   0  0  0  0  0  0  0  0  0  1  0  0
  -21.4134  -10.7559   25.6227 F   0  0  0  0  0  0  0  0  0  0  0  0
  -33.4847  -21.3451   15.0523 F   0  0  0  0  0  0  0  0  0  0  0  0
  -25.2931   -8.9459   23.6035 F   0  0  0  0  0  0  0  0  0  0  0  0
  1  2  1  0  0  0  0
  1  5  2  0  0  0  0
  2  6  2  0  0  0  0
  3  8  2  0  0  0  0
  3 18  1  0  0  0  0
  4  9  1  0  0  0  0
  4 18  2  0  0  0  0
  5 21  1  0  0  0  0
  6 23  1  0  0  0  0
  7 10  2  0  0  0  0
  7 22  1  0  0  0  0
  8 26  1  0  0  0  0
  9 26  2  0  0  0  0
 10 27  1  0  0  0  0
 11 12  2  0  0  0  0
 11 28  1  0  0  0  0
 12 29  1  0  0  0  0
 13 19  2  0  0  0  0
 13 25  1  0  0  0  0
 14 19  1  0  0  0  0
 14 30  2  0  0  0  0
 15 24  1  0  0  0  0
 15 27  2  0  0  0  0
 16 25  2  0  0  0  0
 16 30  1  0  0  0  0
 17 29  2  0  0  0  0
 17 31  1  0  0  0  0
 18 32  1  0  0  0  0
 19 36  1  0  0  0  0
 20 32  1  0  0  0  0
 20 33  2  0  0  0  0
 20 37  1  0  0  0  0
 21 23  2  0  0  0  0
 21 42  1  0  0  0  0
 22 24  2  0  0  0  0
 22 43  1  0  0  0  0
 23 51  1  0  0  0  0
 24 44  1  0  0  0  0
 25 71  1  0  0  0  0
 26 80  1  0  0  0  0
 27 81  1  0  0  0  0
 28 31  2  0  0  0  0
 28 80  1  0  0  0  0
 29 82  1  0  0  0  0
 30 83  1  0  0  0  0
 31 84  1  0  0  0  0
 32 64  2  0  0  0  0
 33 66  1  0  0  0  0
 33 69  1  0  0  0  0
 34 35  2  0  0  0  0
 34 36  1  0  0  0  0
 35 59  1  0  0  0  0
 36 65  2  0  0  0  0
 37 70  1  0  0  0  0
 37 75  2  0  0  0  0
 38 52  1  0  0  0  0
 38 72  1  0  0  0  0
 38 76  2  0  0  0  0
 39 61  1  0  0  0  0
 39 67  1  0  0  0  0
 39 77  2  0  0  0  0
 40 62  1  0  0  0  0
 40 73  1  0  0  0  0
 40 78  2  0  0  0  0
 41 68  1  0  0  0  0
 41 71  1  0  0  0  0
 41 79  2  0  0  0  0
 42 45  1  0  0  0  0
 43 52  1  0  0  0  0
 44 67  1  0  0  0  0
 45 47  1  0  0  0  0
 46 48  1  0  0  0  0
 46 49  1  0  0  0  0
 47 51  1  0  0  0  0
 48 53  1  0  0  0  0
 49 68  1  0  0  0  0
 50 53  1  0  0  0  0
 50 68  1  0  0  0  0
 51 72  1  0  0  0  0
 52 67  1  0  0  0  0
 53 66  1  0  0  0  0
 54 62  1  0  0  0  0
 55 63  1  0  0  0  0
 56 63  1  0  0  0  0
 57 63  1  0  0  0  0
 58 74  1  0  0  0  0
 59 60  1  0  0  0  0
 60 81  1  0  0  0  0
 61 63  1  0  0  0  0
 61 73  1  0  0  0  0
 62 74  1  0  0  0  0
 64 66  1  0  0  0  0
M  CHG  1  74   1
M  ISO  4  41 100  60 101  71 100  81 101
M  END
> <Batch ID>
0128

> <Smiles>
CNC(C)C(=O)NC(C(=O)N1Cc2cc([101O:1][101CH2:1]CC=CC(=N)c3cc(F)cc([100NH:0][100C:0](=O)N4CCCC(n5nc(-c6ccc(Oc7ccc(F)cc7F)cc6)c(C(N)=O)c5N)C4)c3)ccc2CC1C(=O)NC1CCCc2ccccc21)C(C)(C)C

> <Shape>
0.211

> <Color>
0.097

> <Negative vol penalty>
0.000

$$$$

  -OEChem-04052302163D

 84 92  0     1  0  0  0  0  0999 V2000
  -25.0021   -5.9442   23.2045 C   0  0  0  0  0  0  0  0  0  0  0  0
  -26.1426   -6.6382   22.8131 C   0  0  0  0  0  0  0  0  0  0  0  0
  -23.0355  -30.8178   21.0440 C   0  0  0  0  0  0  0  0  0  0  0  0
  -22.7240  -28.8820   22.4556 C   0  0  0  0  0  0  0  0  0  0  0  0
  -23.7403   -6.4356   22.8725 C   0  0  0  0  0  0  0  0  0  0  0  0
  -26.0218   -7.8235   22.0886 C   0  0  0  0  0  0  0  0  0  0  0  0
  -29.2321  -14.1625   21.1790 C   0  0  0  0  0  0  0  0  0  0  0  0
  -21.6591  -30.8811   20.8270 C   0  0  0  0  0  0  0  0  0  0  0  0
  -21.3476  -28.9453   22.2387 C   0  0  0  0  0  0  0  0  0  0  0  0
  -29.7308  -14.9819   20.1673 C   0  0  0  0  0  0  0  0  0  0  0  0
  -18.7289  -30.7529   23.3768 C   0  0  0  0  0  0  0  0  0  0  0  0
  -17.8925  -30.6044   24.4832 C   0  0  0  0  0  0  0  0  0  0  0  0
  -29.3019  -22.3605   20.4587 C   0  0  0  0  0  0  0  0  0  0  0  0
  -27.4979  -15.7770   19.7189 C   0  0  0  0  0  0  0  0  0  0  0  0
  -28.0429  -22.7291   22.4875 C   0  0  0  0  0  0  0  0  0  0  0  0
  -16.8791  -28.6661   23.4568 C   0  0  0  0  0  0  0  0  0  0  0  0
  -23.5680  -29.8182   21.8582 C   0  0  0  0  0  0  0  0  0  0  0  0
  -29.1810  -20.9820   20.6341 C   0  0  0  0  0  0  0  0  0  0  0  0
  -25.7190  -30.3825   23.1081 C   0  0  0  0  0  0  0  0  0  0  0  0
  -23.6037   -7.6325   22.1519 C   0  0  0  0  0  0  0  0  0  0  0  0
  -27.8588  -14.1360   21.4615 C   0  0  0  0  0  0  0  0  0  0  0  0
  -24.7569   -8.3306   21.7455 C   0  0  0  0  0  0  0  0  0  0  0  0
  -26.9846  -14.9582   20.7364 C   0  0  0  0  0  0  0  0  0  0  0  0
  -27.9219  -21.3506   22.6629 C   0  0  0  0  0  0  0  0  0  0  0  0
  -28.4910  -20.4771   21.7362 C   0  0  0  0  0  0  0  0  0  0  0  0
  -28.7330  -23.2341   21.3855 C   0  0  0  0  0  0  0  0  0  0  0  0
  -20.8151  -29.9449   21.4244 C   0  0  0  0  0  0  0  0  0  0  0  0
  -28.8633  -15.7872   19.4351 C   0  0  0  0  0  0  0  0  0  0  0  0
  -18.6403  -29.8581   22.3104 C   0  0  0  0  0  0  0  0  0  0  0  0
  -16.9676  -29.5610   24.5231 C   0  0  0  0  0  0  0  0  0  0  0  0
  -17.7155  -28.8147   22.3504 C   0  0  0  0  0  0  0  0  0  0  0  0
  -24.9898  -29.7520   22.0822 C   0  0  0  0  0  0  0  0  0  0  0  0
  -27.0213  -30.0082   22.8836 C   0  0  0  0  0  0  0  0  0  0  0  0
  -29.7943  -20.0884   19.6374 C   0  0  0  0  0  0  0  0  0  0  0  0
  -29.5075  -20.0779   18.3261 C   0  0  0  0  0  0  0  0  0  0  0  0
  -25.2602  -31.2306   24.1692 C   0  0  0  0  0  0  0  0  0  0  0  0
  -25.5917  -11.9100   21.3660 C   0  0  0  0  0  0  0  0  0  0  0  0
  -23.7856  -14.2464   22.7082 C   0  0  0  0  0  0  0  0  0  0  0  0
  -23.2722  -17.5825   23.2121 C   0  0  0  0  0  0  0  0  0  0  0  0
  -29.5056  -25.3003   20.1689 C   0  0  0  0  0  0  0  0  0  0  0  0
  -22.2199   -8.0994   21.7754 C   0  0  0  0  0  0  0  0  0  0  0  0
  -27.3402  -13.2665   22.5739 C   0  0  0  0  0  0  0  0  0  0  0  0
  -25.5045  -14.9816   21.0140 C   0  0  0  0  0  0  0  0  0  0  0  0
  -22.1697   -9.5585   21.3295 C   0  0  0  0  0  0  0  0  0  0  0  0
  -29.9954  -28.7315   19.3539 C   0  0  0  0  0  0  0  0  0  0  0  0
  -23.2911   -9.8526   20.3382 C   0  0  0  0  0  0  0  0  0  0  0  0
  -28.8372  -29.4407   20.0594 C   0  0  0  0  0  0  0  0  0  0  0  0
  -29.5742  -27.3721   18.7985 C   0  0  0  0  0  0  0  0  0  0  0  0
  -27.7805  -27.1832   20.4767 C   0  0  0  0  0  0  0  0  0  0  0  0
  -24.6664   -9.6328   20.9799 C   0  0  1  0  0  0  0  0  0  0  0  0
  -25.8578  -12.9353   22.4317 C   0  0  1  0  0  0  0  0  0  0  0  0
  -28.1734  -28.5282   21.1093 C   0  0  2  0  0  0  0  0  0  0  0  0
  -27.1776  -20.8368   23.8518 C   0  0  0  0  0  0  0  0  0  0  0  0
  -28.3544  -18.9992   21.9351 C   0  0  0  0  0  0  0  0  0  0  0  0
  -22.2239  -19.6619   24.1473 C   0  0  0  0  0  0  0  0  0  0  0  0
  -21.7661  -13.8010   20.4647 C   0  0  0  0  0  0  0  0  0  0  0  0
  -20.7299  -16.0024   21.0549 C   0  0  0  0  0  0  0  0  0  0  0  0
  -20.7543  -14.1497   22.7250 C   0  0  0  0  0  0  0  0  0  0  0  0
  -25.0559  -17.5591   25.5737 C   0  0  0  0  0  0  0  0  0  0  0  0
  -30.1636  -19.1490   17.3441 C   0  0  0  0  0  0  0  0  0  0  0  0
  -29.1418  -18.2164   16.6964 C   0  0  0  0  0  0  0  0  0  0  0  0
  -28.4020  -17.3864   17.7364 C   0  0  0  0  0  0  0  0  0  1  0  0
  -22.9085  -15.3559   22.1803 C   0  0  1  0  0  0  0  0  0  0  0  0
  -22.9695  -18.3763   24.4702 C   0  0  2  0  0  0  0  0  0  0  0  0
  -21.5673  -14.8256   21.5995 C   0  0  0  0  0  0  0  0  0  0  0  0
  -25.7645  -29.0319   21.2666 N   0  0  0  0  0  0  0  0  0  0  0  0
  -26.9941  -29.2077   21.7797 N   0  0  0  0  0  0  0  0  0  0  0  0
  -25.0449  -14.1092   22.1073 N   0  0  0  0  0  0  0  0  0  0  0  0
  -28.9574  -26.5608   19.8503 N   0  0  0  0  0  0  0  0  0  0  0  0
  -28.1757  -30.2891   23.5247 N   0  0  0  0  0  0  0  0  0  0  0  0
  -23.8901  -31.5135   24.2535 N   0  0  0  0  0  0  0  0  0  0  0  0
  -28.8550  -24.6345   21.2072 N   0  0  0  0  0  0  0  0  0  0  0  0
  -25.0089  -10.7485   21.8358 N   0  0  0  0  0  0  0  0  0  0  0  0
  -22.7509  -16.3075   23.2749 N   0  0  0  0  0  0  0  0  0  0  0  0
  -24.2334  -18.7305   25.1758 N   0  3  0  0  0  0  0  0  0  0  0  0
  -26.0442  -31.7364   25.0077 O   0  0  0  0  0  0  0  0  0  0  0  0
  -25.8916  -12.1552   20.2034 O   0  0  0  0  0  0  0  0  0  0  0  0
  -23.3716  -13.5325   23.6250 O   0  0  0  0  0  0  0  0  0  0  0  0
  -23.9045  -18.0482   22.2667 O   0  0  0  0  0  0  0  0  0  0  0  0
  -30.4970  -24.8571   19.5836 O   0  0  0  0  0  0  0  0  0  0  0  0
  -19.4720  -30.0065   21.2131 O   0  0  0  0  0  0  0  0  0  0  0  0
  -29.3473  -16.5874   18.4466 O   0  0  0  0  0  0  0  0  0  1  0  0
  -16.1656  -29.4175   25.5863 F   0  0  0  0  0  0  0  0  0  0  0  0
  -17.6267  -27.9513   21.3294 F   0  0  0  0  0  0  0  0  0  0  0  0
  1  2  1  0  0  0  0
  1  5  2  0  0  0  0
  2  6  2  0  0  0  0
  3  8  2  0  0  0  0
  3 17  1  0  0  0  0
  4  9  1  0  0  0  0
  4 17  2  0  0  0  0
  5 20  1  0  0  0  0
  6 22  1  0  0  0  0
  7 10  2  0  0  0  0
  7 21  1  0  0  0  0
  8 27  1  0  0  0  0
  9 27  2  0  0  0  0
 10 28  1  0  0  0  0
 11 12  2  0  0  0  0
 11 29  1  0  0  0  0
 12 30  1  0  0  0  0
 13 18  1  0  0  0  0
 13 26  2  0  0  0  0
 14 23  1  0  0  0  0
 14 28  2  0  0  0  0
 15 24  2  0  0  0  0
 15 26  1  0  0  0  0
 16 30  2  0  0  0  0
 16 31  1  0  0  0  0
 17 32  1  0  0  0  0
 18 25  2  0  0  0  0
 18 34  1  0  0  0  0
 19 32  1  0  0  0  0
 19 33  2  0  0  0  0
 19 36  1  0  0  0  0
 20 22  2  0  0  0  0
 20 41  1  0  0  0  0
 21 23  2  0  0  0  0
 21 42  1  0  0  0  0
 22 50  1  0  0  0  0
 23 43  1  0  0  0  0
 24 25  1  0  0  0  0
 24 53  1  0  0  0  0
 25 54  1  0  0  0  0
 26 72  1  0  0  0  0
 27 81  1  0  0  0  0
 28 82  1  0  0  0  0
 29 31  2  0  0  0  0
 29 81  1  0  0  0  0
 30 83  1  0  0  0  0
 31 84  1  0  0  0  0
 32 66  2  0  0  0  0
 33 67  1  0  0  0  0
 33 70  1  0  0  0  0
 34 35  2  0  0  0  0
 35 60  1  0  0  0  0
 36 71  1  0  0  0  0
 36 76  2  0  0  0  0
 37 51  1  0  0  0  0
 37 73  1  0  0  0  0
 37 77  2  0  0  0  0
 38 63  1  0  0  0  0
 38 68  1  0  0  0  0
 38 78  2  0  0  0  0
 39 64  1  0  0  0  0
 39 74  1  0  0  0  0
 39 79  2  0  0  0  0
 40 69  1  0  0  0  0
 40 72  1  0  0  0  0
 40 80  2  0  0  0  0
 41 44  1  0  0  0  0
 42 51  1  0  0  0  0
 43 68  1  0  0  0  0
 44 46  1  0  0  0  0
 45 47  1  0  0  0  0
 45 48  1  0  0  0  0
 46 50  1  0  0  0  0
 47 52  1  0  0  0  0
 48 69  1  0  0  0  0
 49 52  1  0  0  0  0
 49 69  1  0  0  0  0
 50 73  1  0  0  0  0
 51 68  1  0  0  0  0
 52 67  1  0  0  0  0
 55 64  1  0  0  0  0
 56 65  1  0  0  0  0
 57 65  1  0  0  0  0
 58 65  1  0  0  0  0
 59 75  1  0  0  0  0
 60 61  1  0  0  0  0
 61 62  1  0  0  0  0
 62 82  1  0  0  0  0
 63 65  1  0  0  0  0
 63 74  1  0  0  0  0
 64 75  1  0  0  0  0
 66 67  1  0  0  0  0
M  CHG  1  75   1
M  ISO  4  40 100  62 101  72 100  82 101
M  END
> <Batch ID>
0128

> <Smiles>
CNC(C)C(=O)NC(C(=O)N1Cc2cc([101O:1][101CH2:1]CCC=Cc3cc([100NH:0][100C:0](=O)N4CCCC(n5nc(-c6ccc(Oc7ccc(F)cc7F)cc6)c(C(N)=O)c5N)C4)cc(C)c3C)ccc2CC1C(=O)NC1CCCc2ccccc21)C(C)(C)C

> <Shape>
0.293

> <Color>
0.062

> <Negative vol penalty>
0.000

$$$$

  -OEChem-04052302163D

 86 94  0     1  0  0  0  0  0999 V2000
  -16.8960  -29.1683   24.3309 C   0  0  0  0  0  0  0  0  0  0  0  0
  -17.3246  -28.1432   23.4937 C   0  0  0  0  0  0  0  0  0  0  0  0
  -26.4776  -10.6837   19.6526 C   0  0  0  0  0  0  0  0  0  0  0  0
  -25.9898  -12.6288   18.3051 C   0  0  0  0  0  0  0  0  0  0  0  0
  -17.5577  -30.3955   24.3234 C   0  0  0  0  0  0  0  0  0  0  0  0
  -18.4145  -28.3452   22.6476 C   0  0  0  0  0  0  0  0  0  0  0  0
  -22.6189  -24.2052   21.0078 C   0  0  0  0  0  0  0  0  0  0  0  0
  -28.1624  -21.7446   22.7318 C   0  0  0  0  0  0  0  0  0  0  0  0
  -28.7034  -20.4680   22.8841 C   0  0  0  0  0  0  0  0  0  0  0  0
  -25.2291  -10.1497   19.3338 C   0  0  0  0  0  0  0  0  0  0  0  0
  -24.7413  -12.0948   17.9862 C   0  0  0  0  0  0  0  0  0  0  0  0
  -22.7610  -23.4129   19.8695 C   0  0  0  0  0  0  0  0  0  0  0  0
  -22.0188  -10.5714   20.3037 C   0  0  0  0  0  0  0  0  0  0  0  0
  -21.2680  -10.0170   21.3403 C   0  0  0  0  0  0  0  0  0  0  0  0
  -28.4236  -20.0672   20.5180 C   0  0  0  0  0  0  0  0  0  0  0  0
  -24.2659  -25.0462   18.9279 C   0  0  0  0  0  0  0  0  0  0  0  0
  -21.2729   -7.8851   20.2036 C   0  0  0  0  0  0  0  0  0  0  0  0
  -26.8580  -11.9233   19.1383 C   0  0  0  0  0  0  0  0  0  0  0  0
  -27.8826  -21.3438   20.3657 C   0  0  0  0  0  0  0  0  0  0  0  0
  -29.3546  -12.2931   18.7670 C   0  0  0  0  0  0  0  0  0  0  0  0
  -18.6622  -30.6095   23.4839 C   0  0  0  0  0  0  0  0  0  0  0  0
  -23.2918  -25.4312   21.1102 C   0  0  0  0  0  0  0  0  0  0  0  0
  -19.0907  -29.5769   22.6279 C   0  0  0  0  0  0  0  0  0  0  0  0
  -24.1327  -25.8510   20.0696 C   0  0  0  0  0  0  0  0  0  0  0  0
  -27.7520  -22.1825   21.4726 C   0  0  0  0  0  0  0  0  0  0  0  0
  -28.8341  -19.6293   21.7772 C   0  0  0  0  0  0  0  0  0  0  0  0
  -24.3609  -10.8553   18.5006 C   0  0  0  0  0  0  0  0  0  0  0  0
  -23.5823  -23.8347   18.8281 C   0  0  0  0  0  0  0  0  0  0  0  0
  -22.3966   -9.7827   19.2170 C   0  0  0  0  0  0  0  0  0  0  0  0
  -20.8951   -8.6738   21.2902 C   0  0  0  0  0  0  0  0  0  0  0  0
  -22.0237   -8.4395   19.1669 C   0  0  0  0  0  0  0  0  0  0  0  0
  -28.1473  -12.4756   19.4677 C   0  0  0  0  0  0  0  0  0  0  0  0
  -30.2780  -13.0190   19.4790 C   0  0  0  0  0  0  0  0  0  0  0  0
  -27.4542  -21.7850   19.0134 C   0  0  0  0  0  0  0  0  0  0  0  0
  -29.6177  -11.5353   17.5786 C   0  0  0  0  0  0  0  0  0  0  0  0
  -22.3925  -28.4666   21.3959 C   0  0  0  0  0  0  0  0  0  0  0  0
  -25.5778  -28.9709   21.7448 C   0  0  0  0  0  0  0  0  0  0  0  0
  -28.7628  -27.8901   21.1660 C   0  0  0  0  0  0  0  0  0  0  0  0
  -29.8358  -17.7423   23.1121 C   0  0  0  0  0  0  0  0  0  0  0  0
  -19.3160  -31.9686   23.4765 C   0  0  0  0  0  0  0  0  0  0  0  0
  -23.1489  -26.2617   22.3562 C   0  0  0  0  0  0  0  0  0  0  0  0
  -24.8929  -27.1494   20.1391 C   0  0  0  0  0  0  0  0  0  0  0  0
  -20.6950  -31.9775   22.8219 C   0  0  0  0  0  0  0  0  0  0  0  0
  -31.2161  -14.5600   23.9151 C   0  0  0  0  0  0  0  0  0  0  0  0
  -20.6627  -31.2197   21.4985 C   0  0  0  0  0  0  0  0  0  0  0  0
  -30.7007  -13.6490   22.7986 C   0  0  0  0  0  0  0  0  0  0  0  0
  -30.1748  -15.5999   24.3248 C   0  0  0  0  0  0  0  0  0  0  0  0
  -29.1131  -15.4888   22.1045 C   0  0  0  0  0  0  0  0  0  0  0  0
  -20.2844  -29.7493   21.7139 C   0  0  1  0  0  0  0  0  0  0  0  0
  -23.4778  -27.7346   22.1335 C   0  0  1  0  0  0  0  0  0  0  0  0
  -30.1508  -14.4663   21.6132 C   0  0  2  0  0  0  0  0  0  0  0  0
  -27.1760  -23.5544   21.3376 C   0  0  0  0  0  0  0  0  0  0  0  0
  -31.2682  -27.8484   21.3014 C   0  0  0  0  0  0  0  0  0  0  0  0
  -25.3714  -31.0266   19.4995 C   0  0  0  0  0  0  0  0  0  0  0  0
  -27.8628  -30.9270   19.2736 C   0  0  0  0  0  0  0  0  0  0  0  0
  -26.8361  -31.7098   21.4080 C   0  0  0  0  0  0  0  0  0  0  0  0
  -24.3283  -19.3731   17.0914 C   0  0  0  0  0  0  0  0  0  0  0  0
  -24.0237  -21.2504   15.4539 C   0  0  0  0  0  0  0  0  0  0  0  0
  -28.7180  -26.2553   23.6327 C   0  0  0  0  0  0  0  0  0  0  0  0
  -25.9652  -21.3049   17.0877 C   0  0  0  0  0  0  0  0  0  0  0  0
  -23.5975  -21.6520   17.8838 C   0  0  0  0  0  0  0  0  0  1  0  0
  -26.7242  -29.2570   20.8052 C   0  0  1  0  0  0  0  0  0  0  0  0
  -29.9662  -27.7648   22.0828 C   0  0  2  0  0  0  0  0  0  0  0  0
  -26.6829  -30.7065   20.2441 C   0  0  0  0  0  0  0  0  0  0  0  0
  -24.4895  -20.8901   16.8765 C   0  0  0  0  0  0  0  0  0  0  0  0
  -28.2879  -13.2561   20.5425 N   0  0  0  0  0  0  0  0  0  0  0  0
  -29.5944  -13.5703   20.5225 N   0  0  0  0  0  0  0  0  0  0  0  0
  -24.7154  -27.9291   21.3753 N   0  0  0  0  0  0  0  0  0  0  0  0
  -29.7027  -16.3382   23.1513 N   0  0  0  0  0  0  0  0  0  0  0  0
  -31.5999  -13.2329   19.3080 N   0  0  0  0  0  0  0  0  0  0  0  0
  -28.5551  -10.8495   16.9746 N   0  0  0  0  0  0  0  0  0  0  0  0
  -29.3818  -18.3318   21.9327 N   0  0  0  0  0  0  0  0  0  0  0  0
  -26.4669  -21.0195   18.4053 N   0  0  0  0  0  0  0  0  0  0  0  0
  -21.4187  -29.0038   22.2159 N   0  0  0  0  0  0  0  0  0  0  0  0
  -27.9434  -28.9347   21.5386 N   0  0  0  0  0  0  0  0  0  0  0  0
  -29.9340  -26.4614   22.8046 N   0  3  0  0  0  0  0  0  0  0  0  0
  -27.9920  -22.7645   18.5035 O   0  0  0  0  0  0  0  0  0  0  0  0
  -30.7646  -11.4550   17.0768 O   0  0  0  0  0  0  0  0  0  0  0  0
  -22.4362  -28.5398   20.1735 O   0  0  0  0  0  0  0  0  0  0  0  0
  -25.4564  -29.6422   22.7726 O   0  0  0  0  0  0  0  0  0  0  0  0
  -28.5708  -27.1390   20.2123 O   0  0  0  0  0  0  0  0  0  0  0  0
  -30.3421  -18.3724   24.0441 O   0  0  0  0  0  0  0  0  0  0  0  0
  -23.1426  -10.3344   18.1890 O   0  0  0  0  0  0  0  0  0  0  0  0
  -23.7223  -23.0635   17.7156 O   0  0  0  0  0  0  0  0  0  1  0  0
  -20.1754   -8.1411   22.2865 F   0  0  0  0  0  0  0  0  0  0  0  0
  -22.3847   -7.6766   18.1261 F   0  0  0  0  0  0  0  0  0  0  0  0
  1  2  1  0  0  0  0
  1  5  2  0  0  0  0
  2  6  2  0  0  0  0
  3 10  2  0  0  0  0
  3 18  1  0  0  0  0
  4 11  1  0  0  0  0
  4 18  2  0  0  0  0
  5 21  1  0  0  0  0
  6 23  1  0  0  0  0
  7 12  2  0  0  0  0
  7 22  1  0  0  0  0
  8  9  2  0  0  0  0
  8 25  1  0  0  0  0
  9 26  1  0  0  0  0
 10 27  1  0  0  0  0
 11 27  2  0  0  0  0
 12 28  1  0  0  0  0
 13 14  2  0  0  0  0
 13 29  1  0  0  0  0
 14 30  1  0  0  0  0
 15 19  1  0  0  0  0
 15 26  2  0  0  0  0
 16 24  1  0  0  0  0
 16 28  2  0  0  0  0
 17 30  2  0  0  0  0
 17 31  1  0  0  0  0
 18 32  1  0  0  0  0
 19 25  2  0  0  0  0
 19 34  1  0  0  0  0
 20 32  1  0  0  0  0
 20 33  2  0  0  0  0
 20 35  1  0  0  0  0
 21 23  2  0  0  0  0
 21 40  1  0  0  0  0
 22 24  2  0  0  0  0
 22 41  1  0  0  0  0
 23 49  1  0  0  0  0
 24 42  1  0  0  0  0
 25 52  1  0  0  0  0
 26 72  1  0  0  0  0
 27 83  1  0  0  0  0
 28 84  1  0  0  0  0
 29 31  2  0  0  0  0
 29 83  1  0  0  0  0
 30 85  1  0  0  0  0
 31 86  1  0  0  0  0
 32 66  2  0  0  0  0
 33 67  1  0  0  0  0
 33 70  1  0  0  0  0
 34 73  1  0  0  0  0
 34 77  2  0  0  0  0
 35 71  1  0  0  0  0
 35 78  2  0  0  0  0
 36 50  1  0  0  0  0
 36 74  1  0  0  0  0
 36 79  2  0  0  0  0
 37 62  1  0  0  0  0
 37 68  1  0  0  0  0
 37 80  2  0  0  0  0
 38 63  1  0  0  0  0
 38 75  1  0  0  0  0
 38 81  2  0  0  0  0
 39 69  1  0  0  0  0
 39 72  1  0  0  0  0
 39 82  2  0  0  0  0
 40 43  1  0  0  0  0
 41 50  1  0  0  0  0
 42 68  1  0  0  0  0
 43 45  1  0  0  0  0
 44 46  1  0  0  0  0
 44 47  1  0  0  0  0
 45 49  1  0  0  0  0
 46 51  1  0  0  0  0
 47 69  1  0  0  0  0
 48 51  1  0  0  0  0
 48 69  1  0  0  0  0
 49 74  1  0  0  0  0
 50 68  1  0  0  0  0
 51 67  1  0  0  0  0
 53 63  1  0  0  0  0
 54 64  1  0  0  0  0
 55 64  1  0  0  0  0
 56 64  1  0  0  0  0
 57 65  1  0  0  0  0
 58 65  1  0  0  0  0
 59 76  1  0  0  0  0
 60 65  1  0  0  0  0
 60 73  1  0  0  0  0
 61 65  1  0  0  0  0
 61 84  1  0  0  0  0
 62 64  1  0  0  0  0
 62 75  1  0  0  0  0
 63 76  1  0  0  0  0
 66 67  1  0  0  0  0
M  CHG  1  76   1
M  ISO  4  39 100  61 101  72 100  84 101
M  END
> <Batch ID>
0128

> <Smiles>
CNC(C)C(=O)NC(C(=O)N1Cc2cc([101O:1][101CH2:1]C(C)(C)CNC(=O)c3cc([100NH:0][100C:0](=O)N4CCCC(n5nc(-c6ccc(Oc7ccc(F)cc7F)cc6)c(C(N)=O)c5N)C4)ccc3C)ccc2CC1C(=O)NC1CCCc2ccccc21)C(C)(C)C

> <Shape>
0.246

> <Color>
0.076

> <Negative vol penalty>
0.000

$$$$

  -OEChem-04052302163D

 83 91  0     1  0  0  0  0  0999 V2000
  -19.2810  -23.6300   23.6399 C   0  0  0  0  0  0  0  0  0  0  0  0
  -20.4844  -23.7420   22.9509 C   0  0  0  0  0  0  0  0  0  0  0  0
  -24.6950   -8.9195   21.3284 C   0  0  0  0  0  0  0  0  0  0  0  0
  -23.2676  -10.3472   20.0014 C   0  0  0  0  0  0  0  0  0  0  0  0
  -29.0631  -19.8670   15.9738 C   0  0  0  0  0  0  0  0  0  0  0  0
  -18.4779  -24.7545   23.8251 C   0  0  0  0  0  0  0  0  0  0  0  0
  -20.8849  -24.9785   22.4458 C   0  0  0  0  0  0  0  0  0  0  0  0
  -25.7676  -25.9617   23.3609 C   0  0  0  0  0  0  0  0  0  0  0  0
  -29.0329  -18.5225   15.6037 C   0  0  0  0  0  0  0  0  0  0  0  0
  -23.5996   -8.1143   21.6405 C   0  0  0  0  0  0  0  0  0  0  0  0
  -22.1722   -9.5421   20.3134 C   0  0  0  0  0  0  0  0  0  0  0  0
  -26.7074  -25.3325   22.5457 C   0  0  0  0  0  0  0  0  0  0  0  0
  -20.9657   -8.2038   23.7569 C   0  0  0  0  0  0  0  0  0  0  0  0
  -20.8115   -7.8071   25.0851 C   0  0  0  0  0  0  0  0  0  0  0  0
  -28.8439  -19.2332   18.2948 C   0  0  0  0  0  0  0  0  0  0  0  0
  -26.9258  -27.3538   21.2474 C   0  0  0  0  0  0  0  0  0  0  0  0
  -20.9565   -5.4917   24.4104 C   0  0  0  0  0  0  0  0  0  0  0  0
  -24.5290  -10.0360   20.5089 C   0  0  0  0  0  0  0  0  0  0  0  0
  -28.9686  -20.2224   17.3193 C   0  0  0  0  0  0  0  0  0  0  0  0
  -26.5353  -10.7272   19.0931 C   0  0  0  0  0  0  0  0  0  0  0  0
  -18.8733  -26.0073   23.3305 C   0  0  0  0  0  0  0  0  0  0  0  0
  -25.3911  -27.2906   23.1183 C   0  0  0  0  0  0  0  0  0  0  0  0
  -20.0856  -26.1206   22.6235 C   0  0  0  0  0  0  0  0  0  0  0  0
  -25.9829  -27.9985   22.0625 C   0  0  0  0  0  0  0  0  0  0  0  0
  -28.9082  -17.5333   16.5792 C   0  0  0  0  0  0  0  0  0  0  0  0
  -28.8137  -17.8886   17.9248 C   0  0  0  0  0  0  0  0  0  0  0  0
  -22.3382   -8.4256   21.1330 C   0  0  0  0  0  0  0  0  0  0  0  0
  -27.2846  -26.0276   21.4870 C   0  0  0  0  0  0  0  0  0  0  0  0
  -21.1153   -7.2445   22.7553 C   0  0  0  0  0  0  0  0  0  0  0  0
  -20.8069   -6.4511   25.4120 C   0  0  0  0  0  0  0  0  0  0  0  0
  -21.1107   -5.8885   23.0821 C   0  0  0  0  0  0  0  0  0  0  0  0
  -25.6601  -10.8684   20.1866 C   0  0  0  0  0  0  0  0  0  0  0  0
  -27.4320  -11.7578   19.2357 C   0  0  0  0  0  0  0  0  0  0  0  0
  -29.0012  -21.6432   17.7086 C   0  0  0  0  0  0  0  0  0  0  0  0
  -28.5481  -22.1234   18.8751 C   0  0  0  0  0  0  0  0  0  0  0  0
  -26.5375   -9.7519   18.0422 C   0  0  0  0  0  0  0  0  0  0  0  0
  -28.6181  -23.5843   19.1692 C   0  0  0  0  0  0  0  0  0  0  0  0
  -22.6698  -28.7485   22.3615 C   0  0  0  0  0  0  0  0  0  0  0  0
  -24.4487  -31.4311   22.7638 C   0  0  0  0  0  0  0  0  0  0  0  0
  -27.5374  -32.8822   22.7908 C   0  0  0  0  0  0  0  0  0  0  0  0
  -28.5838  -17.0992   20.3061 C   0  0  0  0  0  0  0  0  0  0  0  0
  -17.9492  -27.1850   23.5143 C   0  0  0  0  0  0  0  0  0  0  0  0
  -24.3956  -27.9635   24.0232 C   0  0  0  0  0  0  0  0  0  0  0  0
  -25.6280  -29.4332   21.7723 C   0  0  0  0  0  0  0  0  0  0  0  0
  -18.6246  -28.5326   23.2732 C   0  0  0  0  0  0  0  0  0  0  0  0
  -28.2202  -14.9267   23.1034 C   0  0  0  0  0  0  0  0  0  0  0  0
  -19.4481  -28.4949   21.9897 C   0  0  0  0  0  0  0  0  0  0  0  0
  -27.5937  -13.6656   22.5040 C   0  0  0  0  0  0  0  0  0  0  0  0
  -27.6869  -16.1952   22.4399 C   0  0  0  0  0  0  0  0  0  0  0  0
  -27.1608  -14.9578   20.3756 C   0  0  0  0  0  0  0  0  0  0  0  0
  -20.5662  -27.4495   22.0821 C   0  0  1  0  0  0  0  0  0  0  0  0
  -23.7060  -29.1572   23.3699 C   0  0  1  0  0  0  0  0  0  0  0  0
  -27.7152  -13.6516   20.9675 C   0  0  2  0  0  0  0  0  0  0  0  0
  -28.8773  -16.1010   16.1538 C   0  0  0  0  0  0  0  0  0  0  0  0
  -28.6700  -35.0982   23.1130 C   0  0  0  0  0  0  0  0  0  0  0  0
  -23.5587  -32.2889   19.9741 C   0  0  0  0  0  0  0  0  0  0  0  0
  -25.4163  -33.9674   19.9735 C   0  0  0  0  0  0  0  0  0  0  0  0
  -23.5937  -34.1273   21.6692 C   0  0  0  0  0  0  0  0  0  0  0  0
  -29.0657  -31.8927   25.1240 C   0  0  0  0  0  0  0  0  0  0  0  0
  -28.0753  -24.0045   20.5188 C   0  0  0  0  0  0  0  0  0  1  0  0
  -25.3135  -32.2847   21.8680 C   0  0  1  0  0  0  0  0  0  0  0  0
  -28.2027  -33.8166   23.7851 C   0  0  2  0  0  0  0  0  0  0  0  0
  -24.4760  -33.1394   20.8752 C   0  0  0  0  0  0  0  0  0  0  0  0
  -25.9727  -11.9066   20.9666 N   0  0  0  0  0  0  0  0  0  0  0  0
  -27.0544  -12.4272   20.3624 N   0  0  0  0  0  0  0  0  0  0  0  0
  -24.6449  -30.0453   22.6815 N   0  0  0  0  0  0  0  0  0  0  0  0
  -27.8389  -16.1123   20.9856 N   0  0  0  0  0  0  0  0  0  0  0  0
  -28.4989  -12.1475   18.5061 N   0  0  0  0  0  0  0  0  0  0  0  0
  -25.5448   -8.7625   18.0469 N   0  0  0  0  0  0  0  0  0  0  0  0
  -28.6871  -16.8980   18.9300 N   0  0  0  0  0  0  0  0  0  0  0  0
  -21.6647  -27.9534   22.8782 N   0  0  0  0  0  0  0  0  0  0  0  0
  -26.1714  -33.0657   22.7525 N   0  0  0  0  0  0  0  0  0  0  0  0
  -29.3839  -33.1547   24.4076 N   0  3  0  0  0  0  0  0  0  0  0  0
  -27.4041   -9.7477   17.1353 O   0  0  0  0  0  0  0  0  0  0  0  0
  -29.0856  -24.3893   18.3682 O   0  0  0  0  0  0  0  0  0  0  0  0
  -22.7737  -29.1277   21.2008 O   0  0  0  0  0  0  0  0  0  0  0  0
  -23.6342  -31.9743   23.5142 O   0  0  0  0  0  0  0  0  0  0  0  0
  -28.1670  -32.0732   22.1128 O   0  0  0  0  0  0  0  0  0  0  0  0
  -29.1156  -18.0378   20.9046 O   0  0  0  0  0  0  0  0  0  0  0  0
  -21.2691   -7.6400   21.4371 O   0  0  0  0  0  0  0  0  0  0  0  0
  -28.2017  -25.4156   20.6894 O   0  0  0  0  0  0  0  0  0  1  0  0
  -20.6603   -6.0703   26.6878 F   0  0  0  0  0  0  0  0  0  0  0  0
  -21.2552   -4.9623   22.1244 F   0  0  0  0  0  0  0  0  0  0  0  0
  1  2  1  0  0  0  0
  1  6  2  0  0  0  0
  2  7  2  0  0  0  0
  3 10  2  0  0  0  0
  3 18  1  0  0  0  0
  4 11  1  0  0  0  0
  4 18  2  0  0  0  0
  5  9  2  0  0  0  0
  5 19  1  0  0  0  0
  6 21  1  0  0  0  0
  7 23  1  0  0  0  0
  8 12  2  0  0  0  0
  8 22  1  0  0  0  0
  9 25  1  0  0  0  0
 10 27  1  0  0  0  0
 11 27  2  0  0  0  0
 12 28  1  0  0  0  0
 13 14  2  0  0  0  0
 13 29  1  0  0  0  0
 14 30  1  0  0  0  0
 15 19  2  0  0  0  0
 15 26  1  0  0  0  0
 16 24  1  0  0  0  0
 16 28  2  0  0  0  0
 17 30  2  0  0  0  0
 17 31  1  0  0  0  0
 18 32  1  0  0  0  0
 19 34  1  0  0  0  0
 20 32  1  0  0  0  0
 20 33  2  0  0  0  0
 20 36  1  0  0  0  0
 21 23  2  0  0  0  0
 21 42  1  0  0  0  0
 22 24  2  0  0  0  0
 22 43  1  0  0  0  0
 23 51  1  0  0  0  0
 24 44  1  0  0  0  0
 25 26  2  0  0  0  0
 25 54  1  0  0  0  0
 26 70  1  0  0  0  0
 27 80  1  0  0  0  0
 28 81  1  0  0  0  0
 29 31  2  0  0  0  0
 29 80  1  0  0  0  0
 30 82  1  0  0  0  0
 31 83  1  0  0  0  0
 32 64  2  0  0  0  0
 33 65  1  0  0  0  0
 33 68  1  0  0  0  0
 34 35  2  0  0  0  0
 35 37  1  0  0  0  0
 36 69  1  0  0  0  0
 36 74  2  0  0  0  0
 37 60  1  0  0  0  0
 37 75  2  0  0  0  0
 38 52  1  0  0  0  0
 38 71  1  0  0  0  0
 38 76  2  0  0  0  0
 39 61  1  0  0  0  0
 39 66  1  0  0  0  0
 39 77  2  0  0  0  0
 40 62  1  0  0  0  0
 40 72  1  0  0  0  0
 40 78  2  0  0  0  0
 41 67  1  0  0  0  0
 41 70  1  0  0  0  0
 41 79  2  0  0  0  0
 42 45  1  0  0  0  0
 43 52  1  0  0  0  0
 44 66  1  0  0  0  0
 45 47  1  0  0  0  0
 46 48  1  0  0  0  0
 46 49  1  0  0  0  0
 47 51  1  0  0  0  0
 48 53  1  0  0  0  0
 49 67  1  0  0  0  0
 50 53  1  0  0  0  0
 50 67  1  0  0  0  0
 51 71  1  0  0  0  0
 52 66  1  0  0  0  0
 53 65  1  0  0  0  0
 55 62  1  0  0  0  0
 56 63  1  0  0  0  0
 57 63  1  0  0  0  0
 58 63  1  0  0  0  0
 59 73  1  0  0  0  0
 60 81  1  0  0  0  0
 61 63  1  0  0  0  0
 61 72  1  0  0  0  0
 62 73  1  0  0  0  0
 64 65  1  0  0  0  0
M  CHG  1  73   1
M  ISO  4  41 100  60 101  70 100  81 101
M  END
> <Batch ID>
0128

> <Smiles>
CNC(C)C(=O)NC(C(=O)N1Cc2cc([101O:1][101CH2:1]C(=O)C=Cc3ccc(C)c([100NH:0][100C:0](=O)N4CCCC(n5nc(-c6ccc(Oc7ccc(F)cc7F)cc6)c(C(N)=O)c5N)C4)c3)ccc2CC1C(=O)NC1CCCc2ccccc21)C(C)(C)C

> <Shape>
0.273

> <Color>
0.087

> <Negative vol penalty>
0.000

$$$$

  -OEChem-04052302163D

 87 95  0     1  0  0  0  0  0999 V2000
  -16.7876  -31.1571   18.7175 C   0  0  0  0  0  0  0  0  0  0  0  0
  -17.9120  -30.6835   18.0491 C   0  0  0  0  0  0  0  0  0  0  0  0
  -24.3204   -9.4569   21.9295 C   0  0  0  0  0  0  0  0  0  0  0  0
  -23.6519   -9.2077   19.6212 C   0  0  0  0  0  0  0  0  0  0  0  0
  -33.0350  -24.2153   19.1148 C   0  0  0  0  0  0  0  0  0  0  0  0
  -16.9191  -32.1616   19.6754 C   0  0  0  0  0  0  0  0  0  0  0  0
  -19.1686  -31.2149   18.3376 C   0  0  0  0  0  0  0  0  0  0  0  0
  -24.5255  -27.0071   20.6805 C   0  0  0  0  0  0  0  0  0  0  0  0
  -33.8769  -23.1057   19.0394 C   0  0  0  0  0  0  0  0  0  0  0  0
  -23.2723   -8.6249   22.3229 C   0  0  0  0  0  0  0  0  0  0  0  0
  -22.6038   -8.3755   20.0146 C   0  0  0  0  0  0  0  0  0  0  0  0
  -25.6602  -26.2352   20.9310 C   0  0  0  0  0  0  0  0  0  0  0  0
  -22.6198   -5.3081   22.4011 C   0  0  0  0  0  0  0  0  0  0  0  0
  -22.8980   -4.3151   23.3403 C   0  0  0  0  0  0  0  0  0  0  0  0
  -31.1793  -22.7700   19.6663 C   0  0  0  0  0  0  0  0  0  0  0  0
  -26.9954  -28.2421   21.1262 C   0  0  0  0  0  0  0  0  0  0  0  0
  -21.2705   -5.2801   24.8427 C   0  0  0  0  0  0  0  0  0  0  0  0
  -24.5102   -9.7484   20.5786 C   0  0  0  0  0  0  0  0  0  0  0  0
  -31.6862  -24.0475   19.4283 C   0  0  0  0  0  0  0  0  0  0  0  0
  -26.9034  -10.2228   19.8334 C   0  0  0  0  0  0  0  0  0  0  0  0
  -18.1791  -32.6988   19.9827 C   0  0  0  0  0  0  0  0  0  0  0  0
  -24.6185  -28.4016   20.6671 C   0  0  0  0  0  0  0  0  0  0  0  0
  -19.3168  -32.2284   19.2996 C   0  0  0  0  0  0  0  0  0  0  0  0
  -25.8597  -29.0208   20.8882 C   0  0  0  0  0  0  0  0  0  0  0  0
  -33.3699  -21.8282   19.2774 C   0  0  0  0  0  0  0  0  0  0  0  0
  -32.0211  -21.6603   19.5909 C   0  0  0  0  0  0  0  0  0  0  0  0
  -22.4141   -8.0842   21.3655 C   0  0  0  0  0  0  0  0  0  0  0  0
  -26.8921  -26.8512   21.1530 C   0  0  0  0  0  0  0  0  0  0  0  0
  -21.6670   -6.2872   22.6828 C   0  0  0  0  0  0  0  0  0  0  0  0
  -22.2233   -4.3010   24.5611 C   0  0  0  0  0  0  0  0  0  0  0  0
  -20.9924   -6.2732   23.9035 C   0  0  0  0  0  0  0  0  0  0  0  0
  -25.5923  -10.6083   20.1717 C   0  0  0  0  0  0  0  0  0  0  0  0
  -27.5379  -11.4003   19.5216 C   0  0  0  0  0  0  0  0  0  0  0  0
  -28.8188  -18.0699   20.6537 C   0  0  0  0  0  0  0  0  0  0  0  0
  -30.0162  -18.5751   20.3394 C   0  0  0  0  0  0  0  0  0  0  0  0
  -30.1727  -25.4794   20.6779 C   0  0  0  0  0  0  0  0  0  0  0  0
  -30.7941  -25.2265   19.5085 C   0  0  0  0  0  0  0  0  0  0  0  0
  -27.4947   -8.9170   19.8036 C   0  0  0  0  0  0  0  0  0  0  0  0
  -28.7004  -16.6078   20.8240 C   0  0  0  0  0  0  0  0  0  0  0  0
  -30.1761  -20.0491   20.1578 C   0  0  0  0  0  0  0  0  0  0  0  0
  -22.8434  -31.6813   20.2571 C   0  0  0  0  0  0  0  0  0  0  0  0
  -24.8325  -32.0273   22.5667 C   0  0  0  0  0  0  0  0  0  0  0  0
  -26.8406  -31.8689   25.3198 C   0  0  0  0  0  0  0  0  0  0  0  0
  -18.2653  -33.8164   20.9918 C   0  0  0  0  0  0  0  0  0  0  0  0
  -23.4347  -29.2709   20.3407 C   0  0  0  0  0  0  0  0  0  0  0  0
  -25.9191  -30.5228   20.8301 C   0  0  0  0  0  0  0  0  0  0  0  0
  -19.6807  -34.0637   21.5074 C   0  0  0  0  0  0  0  0  0  0  0  0
  -25.7131  -16.0422   18.7775 C   0  0  0  0  0  0  0  0  0  0  0  0
  -20.6719  -34.1017   20.3486 C   0  0  0  0  0  0  0  0  0  0  0  0
  -25.5011  -14.5437   18.9752 C   0  0  0  0  0  0  0  0  0  0  0  0
  -26.2762  -16.7103   20.0310 C   0  0  0  0  0  0  0  0  0  0  0  0
  -27.3136  -14.5727   20.7342 C   0  0  0  0  0  0  0  0  0  0  0  0
  -20.7001  -32.7623   19.6025 C   0  0  1  0  0  0  0  0  0  0  0  0
  -23.4299  -30.6003   21.1166 C   0  0  1  0  0  0  0  0  0  0  0  0
  -26.7919  -13.8720   19.4701 C   0  0  1  0  0  0  0  0  0  0  0  0
  -34.2945  -20.6576   19.1885 C   0  0  0  0  0  0  0  0  0  0  0  0
  -29.4814  -25.4832   17.3817 C   0  0  0  0  0  0  0  0  0  0  0  0
  -27.6825  -33.2659   27.2268 C   0  0  0  0  0  0  0  0  0  0  0  0
  -26.7526  -33.4505   20.6715 C   0  0  0  0  0  0  0  0  0  0  0  0
  -28.1449  -34.0670   22.6589 C   0  0  0  0  0  0  0  0  0  0  0  0
  -25.8005  -34.8990   22.4743 C   0  0  0  0  0  0  0  0  0  0  0  0
  -25.6135  -30.0745   27.3282 C   0  0  0  0  0  0  0  0  0  0  0  0
  -29.2533  -26.6195   20.9836 C   0  0  0  0  0  0  0  0  0  1  0  0
  -30.6150  -26.0284   18.2402 C   0  0  0  0  0  0  0  0  0  0  0  0
  -26.2125  -32.4592   22.9935 C   0  0  1  0  0  0  0  0  0  0  0  0
  -26.6117  -32.2924   26.7595 C   0  0  2  0  0  0  0  0  0  0  0  0
  -26.7216  -33.6917   22.1940 C   0  0  0  0  0  0  0  0  0  0  0  0
  -25.4038  -11.9276   20.0833 N   0  0  0  0  0  0  0  0  0  0  0  0
  -26.6048  -12.3814   19.6860 N   0  0  0  0  0  0  0  0  0  0  0  0
  -27.4766  -16.0148   20.5186 N   0  0  0  0  0  0  0  0  0  0  0  0
  -24.7552  -31.0987   21.5216 N   0  0  0  0  0  0  0  0  0  0  0  0
  -28.7974  -11.6820   19.1257 N   0  0  0  0  0  0  0  0  0  0  0  0
  -26.7011   -7.8160   20.1532 N   0  0  0  0  0  0  0  0  0  0  0  0
  -31.4954  -20.3886   19.8331 N   0  0  0  0  0  0  0  0  0  0  0  0
  -21.4684  -31.7862   20.3451 N   0  0  0  0  0  0  0  0  0  0  0  0
  -26.1470  -32.6682   24.4359 N   0  0  0  0  0  0  0  0  0  0  0  0
  -26.6324  -31.1040   27.6585 N   0  3  0  0  0  0  0  0  0  0  0  0
  -28.6961   -8.7338   19.4926 O   0  0  0  0  0  0  0  0  0  0  0  0
  -29.6922  -16.0006   21.2317 O   0  0  0  0  0  0  0  0  0  0  0  0
  -29.2270  -20.8128   20.2911 O   0  0  0  0  0  0  0  0  0  0  0  0
  -23.5832  -32.3714   19.5655 O   0  0  0  0  0  0  0  0  0  0  0  0
  -23.8477  -32.5031   23.1388 O   0  0  0  0  0  0  0  0  0  0  0  0
  -27.5653  -30.9258   25.0101 O   0  0  0  0  0  0  0  0  0  0  0  0
  -21.3914   -7.2720   21.7490 O   0  0  0  0  0  0  0  0  0  0  0  0
  -27.9950  -26.0918   21.4014 O   0  0  0  0  0  0  0  0  0  1  0  0
  -22.4895   -3.3465   25.4622 F   0  0  0  0  0  0  0  0  0  0  0  0
  -20.0752   -7.2105   24.1793 F   0  0  0  0  0  0  0  0  0  0  0  0
  1  2  1  0  0  0  0
  1  6  2  0  0  0  0
  2  7  2  0  0  0  0
  3 10  2  0  0  0  0
  3 18  1  0  0  0  0
  4 11  1  0  0  0  0
  4 18  2  0  0  0  0
  5  9  2  0  0  0  0
  5 19  1  0  0  0  0
  6 21  1  0  0  0  0
  7 23  1  0  0  0  0
  8 12  2  0  0  0  0
  8 22  1  0  0  0  0
  9 25  1  0  0  0  0
 10 27  1  0  0  0  0
 11 27  2  0  0  0  0
 12 28  1  0  0  0  0
 13 14  2  0  0  0  0
 13 29  1  0  0  0  0
 14 30  1  0  0  0  0
 15 19  2  0  0  0  0
 15 26  1  0  0  0  0
 16 24  1  0  0  0  0
 16 28  2  0  0  0  0
 17 30  2  0  0  0  0
 17 31  1  0  0  0  0
 18 32  1  0  0  0  0
 19 37  1  0  0  0  0
 20 32  1  0  0  0  0
 20 33  2  0  0  0  0
 20 38  1  0  0  0  0
 21 23  2  0  0  0  0
 21 44  1  0  0  0  0
 22 24  2  0  0  0  0
 22 45  1  0  0  0  0
 23 53  1  0  0  0  0
 24 46  1  0  0  0  0
 25 26  2  0  0  0  0
 25 56  1  0  0  0  0
 26 74  1  0  0  0  0
 27 84  1  0  0  0  0
 28 85  1  0  0  0  0
 29 31  2  0  0  0  0
 29 84  1  0  0  0  0
 30 86  1  0  0  0  0
 31 87  1  0  0  0  0
 32 68  2  0  0  0  0
 33 69  1  0  0  0  0
 33 72  1  0  0  0  0
 34 35  2  0  0  0  0
 34 39  1  0  0  0  0
 35 40  1  0  0  0  0
 36 37  2  0  0  0  0
 36 63  1  0  0  0  0
 37 64  1  0  0  0  0
 38 73  1  0  0  0  0
 38 78  2  0  0  0  0
 39 70  1  0  0  0  0
 39 79  2  0  0  0  0
 40 74  1  0  0  0  0
 40 80  2  0  0  0  0
 41 54  1  0  0  0  0
 41 75  1  0  0  0  0
 41 81  2  0  0  0  0
 42 65  1  0  0  0  0
 42 71  1  0  0  0  0
 42 82  2  0  0  0  0
 43 66  1  0  0  0  0
 43 76  1  0  0  0  0
 43 83  2  0  0  0  0
 44 47  1  0  0  0  0
 45 54  1  0  0  0  0
 46 71  1  0  0  0  0
 47 49  1  0  0  0  0
 48 50  1  0  0  0  0
 48 51  1  0  0  0  0
 49 53  1  0  0  0  0
 50 55  1  0  0  0  0
 51 70  1  0  0  0  0
 52 55  1  0  0  0  0
 52 70  1  0  0  0  0
 53 75  1  0  0  0  0
 54 71  1  0  0  0  0
 55 69  1  0  0  0  0
 57 64  1  0  0  0  0
 58 66  1  0  0  0  0
 59 67  1  0  0  0  0
 60 67  1  0  0  0  0
 61 67  1  0  0  0  0
 62 77  1  0  0  0  0
 63 85  1  0  0  0  0
 65 67  1  0  0  0  0
 65 76  1  0  0  0  0
 66 77  1  0  0  0  0
 68 69  1  0  0  0  0
M  CHG  1  77   1
M  ISO  4  34 100  39 100  63 101  85 101
M  END
> <Batch ID>
0128

> <Smiles>
CCC(=C[101CH2:1][101O:1]c1ccc2c(c1)CN(C(=O)C(NC(=O)C(C)NC)C(C)(C)C)C(C(=O)NC1CCCc3ccccc31)C2)c1ccc(C)c(NC(=O)C=[100CH:0][100C:0](=O)N2CCCC(n3nc(-c4ccc(Oc5ccc(F)cc5F)cc4)c(C(N)=O)c3N)C2)c1

> <Shape>
0.301

> <Color>
0.115

> <Negative vol penalty>
0.000

$$$$

  -OEChem-04052302163D

 84 92  0     1  0  0  0  0  0999 V2000
  -31.4247  -28.2213   16.0985 C   0  0  0  0  0  0  0  0  0  0  0  0
  -30.0607  -28.2658   15.8283 C   0  0  0  0  0  0  0  0  0  0  0  0
  -23.0952  -10.1555   22.1956 C   0  0  0  0  0  0  0  0  0  0  0  0
  -23.8178   -9.5447   19.9726 C   0  0  0  0  0  0  0  0  0  0  0  0
  -21.9650  -21.9754   19.2918 C   0  0  0  0  0  0  0  0  0  0  0  0
  -21.5198  -22.5061   21.6063 C   0  0  0  0  0  0  0  0  0  0  0  0
  -31.8704  -27.8902   17.3774 C   0  0  0  0  0  0  0  0  0  0  0  0
  -29.1416  -27.9781   16.8366 C   0  0  0  0  0  0  0  0  0  0  0  0
  -22.5830  -29.7728   19.0906 C   0  0  0  0  0  0  0  0  0  0  0  0
  -21.7114  -23.3008   18.9390 C   0  0  0  0  0  0  0  0  0  0  0  0
  -21.2662  -23.8316   21.2536 C   0  0  0  0  0  0  0  0  0  0  0  0
  -22.3681   -8.9685   22.2854 C   0  0  0  0  0  0  0  0  0  0  0  0
  -23.0907   -8.3577   20.0623 C   0  0  0  0  0  0  0  0  0  0  0  0
  -21.3690  -29.1873   19.4474 C   0  0  0  0  0  0  0  0  0  0  0  0
  -22.9955   -5.7033   22.8995 C   0  0  0  0  0  0  0  0  0  0  0  0
  -23.0961   -4.9693   24.0813 C   0  0  0  0  0  0  0  0  0  0  0  0
  -22.2528  -28.7051   21.6396 C   0  0  0  0  0  0  0  0  0  0  0  0
  -20.7152   -5.1952   24.4242 C   0  0  0  0  0  0  0  0  0  0  0  0
  -23.8200  -10.4436   21.0392 C   0  0  0  0  0  0  0  0  0  0  0  0
  -21.8691  -21.5780   20.6254 C   0  0  0  0  0  0  0  0  0  0  0  0
  -25.9109  -11.8770   21.3241 C   0  0  0  0  0  0  0  0  0  0  0  0
  -30.9560  -27.6077   18.4045 C   0  0  0  0  0  0  0  0  0  0  0  0
  -23.6464  -29.8191   20.0035 C   0  0  0  0  0  0  0  0  0  0  0  0
  -29.5755  -27.6415   18.1302 C   0  0  0  0  0  0  0  0  0  0  0  0
  -23.4784  -29.2940   21.2927 C   0  0  0  0  0  0  0  0  0  0  0  0
  -21.3620  -24.2290   19.9199 C   0  0  0  0  0  0  0  0  0  0  0  0
  -22.3658   -8.0697   21.2188 C   0  0  0  0  0  0  0  0  0  0  0  0
  -21.2047  -28.6508   20.7211 C   0  0  0  0  0  0  0  0  0  0  0  0
  -21.7548   -6.1834   22.4801 C   0  0  0  0  0  0  0  0  0  0  0  0
  -21.9559   -4.7152   24.8437 C   0  0  0  0  0  0  0  0  0  0  0  0
  -20.6147   -5.9293   23.2424 C   0  0  0  0  0  0  0  0  0  0  0  0
  -24.5709  -11.6698   20.9456 C   0  0  0  0  0  0  0  0  0  0  0  0
  -26.1483  -13.1990   21.0371 C   0  0  0  0  0  0  0  0  0  0  0  0
  -22.1338  -20.1960   20.9937 C   0  0  0  0  0  0  0  0  0  0  0  0
  -22.1038  -19.1414   20.1513 C   0  0  0  0  0  0  0  0  0  0  0  0
  -19.8803  -25.8414   19.2651 C   0  0  0  0  0  0  0  0  0  0  0  0
  -26.8566  -10.9567   21.8848 C   0  0  0  0  0  0  0  0  0  0  0  0
  -22.4067  -17.7951   20.6772 C   0  0  0  0  0  0  0  0  0  0  0  0
  -26.5943  -28.6321   20.0754 C   0  0  0  0  0  0  0  0  0  0  0  0
  -26.8215  -30.4005   22.7854 C   0  0  0  0  0  0  0  0  0  0  0  0
  -25.2312  -31.9253   25.3917 C   0  0  0  0  0  0  0  0  0  0  0  0
  -31.4862  -27.2085   19.7589 C   0  0  0  0  0  0  0  0  0  0  0  0
  -24.9407  -30.4779   19.6120 C   0  0  0  0  0  0  0  0  0  0  0  0
  -24.5823  -29.3367   22.3165 C   0  0  0  0  0  0  0  0  0  0  0  0
  -30.4404  -27.2832   20.8685 C   0  0  0  0  0  0  0  0  0  0  0  0
  -24.7844  -16.7087   18.1085 C   0  0  0  0  0  0  0  0  0  0  0  0
  -29.1367  -26.6319   20.4180 C   0  0  0  0  0  0  0  0  0  0  0  0
  -25.0811  -15.2834   18.5669 C   0  0  0  0  0  0  0  0  0  0  0  0
  -23.3407  -17.1146   18.4010 C   0  0  0  0  0  0  0  0  0  0  0  0
  -23.2463  -15.5112   20.2880 C   0  0  0  0  0  0  0  0  0  0  0  0
  -28.5470  -27.3600   19.2040 C   0  0  1  0  0  0  0  0  0  0  0  0
  -26.1266  -30.0101   20.4499 C   0  0  1  0  0  0  0  0  0  0  0  0
  -24.7066  -15.0983   20.0460 C   0  0  1  0  0  0  0  0  0  0  0  0
  -25.6858  -33.2602   27.4674 C   0  0  0  0  0  0  0  0  0  0  0  0
  -27.7266  -27.8623   24.2166 C   0  0  0  0  0  0  0  0  0  0  0  0
  -27.2481  -29.0026   26.3935 C   0  0  0  0  0  0  0  0  0  0  0  0
  -28.9838  -29.9267   24.8585 C   0  0  0  0  0  0  0  0  0  0  0  0
  -17.7667  -27.3752   20.7011 C   0  0  0  0  0  0  0  0  0  0  0  0
  -18.6465  -29.5047   19.7073 C   0  0  0  0  0  0  0  0  0  0  0  0
  -23.6886  -34.2399   24.3808 C   0  0  0  0  0  0  0  0  0  0  0  0
  -19.4840  -27.2448   18.8811 C   0  0  0  0  0  0  0  0  0  0  0  0
  -26.5410  -30.1556   24.2484 C   0  0  1  0  0  0  0  0  0  0  0  0
  -25.3701  -33.3174   25.9809 C   0  0  2  0  0  0  0  0  0  0  0  0
  -27.6045  -29.2341   24.9095 C   0  0  0  0  0  0  0  0  0  0  0  0
  -18.9902  -28.0616   20.0852 C   0  0  0  0  0  0  0  0  0  1  0  0
  -23.9971  -12.7720   20.4558 N   0  0  0  0  0  0  0  0  0  0  0  0
  -21.1072  -25.5641   19.5649 N   0  0  0  0  0  0  0  0  0  0  0  0
  -24.9813  -13.6845   20.5245 N   0  0  0  0  0  0  0  0  0  0  0  0
  -22.9885  -16.8736   19.8084 N   0  0  0  0  0  0  0  0  0  0  0  0
  -25.8310  -29.9857   21.8839 N   0  0  0  0  0  0  0  0  0  0  0  0
  -27.2392  -13.9820   21.1758 N   0  0  0  0  0  0  0  0  0  0  0  0
  -26.4477   -9.6361   22.1155 N   0  0  0  0  0  0  0  0  0  0  0  0
  -27.8968  -28.5854   19.6164 N   0  0  0  0  0  0  0  0  0  0  0  0
  -26.4230  -31.4715   24.8672 N   0  0  0  0  0  0  0  0  0  0  0  0
  -24.1062  -34.0857   25.7981 N   0  3  0  0  0  0  0  0  0  0  0  0
  -28.0246  -11.2996   22.1879 O   0  0  0  0  0  0  0  0  0  0  0  0
  -22.1213  -17.5669   21.8541 O   0  0  0  0  0  0  0  0  0  0  0  0
  -25.8304  -27.6815   20.1955 O   0  0  0  0  0  0  0  0  0  0  0  0
  -27.8772  -30.9464   22.4551 O   0  0  0  0  0  0  0  0  0  0  0  0
  -24.1725  -31.3012   25.3995 O   0  0  0  0  0  0  0  0  0  0  0  0
  -21.6566   -6.9113   21.3061 O   0  0  0  0  0  0  0  0  0  0  0  0
  -20.0211  -28.0782   21.0718 O   0  0  0  0  0  0  0  0  0  1  0  0
  -22.0524   -4.0090   25.9778 F   0  0  0  0  0  0  0  0  0  0  0  0
  -19.4199   -6.3869   22.8439 F   0  0  0  0  0  0  0  0  0  0  0  0
  1  2  1  0  0  0  0
  1  7  2  0  0  0  0
  2  8  2  0  0  0  0
  3 12  2  0  0  0  0
  3 19  1  0  0  0  0
  4 13  1  0  0  0  0
  4 19  2  0  0  0  0
  5 10  2  0  0  0  0
  5 20  1  0  0  0  0
  6 11  1  0  0  0  0
  6 20  2  0  0  0  0
  7 22  1  0  0  0  0
  8 24  1  0  0  0  0
  9 14  2  0  0  0  0
  9 23  1  0  0  0  0
 10 26  1  0  0  0  0
 11 26  2  0  0  0  0
 12 27  1  0  0  0  0
 13 27  2  0  0  0  0
 14 28  1  0  0  0  0
 15 16  2  0  0  0  0
 15 29  1  0  0  0  0
 16 30  1  0  0  0  0
 17 25  1  0  0  0  0
 17 28  2  0  0  0  0
 18 30  2  0  0  0  0
 18 31  1  0  0  0  0
 19 32  1  0  0  0  0
 20 34  1  0  0  0  0
 21 32  1  0  0  0  0
 21 33  2  0  0  0  0
 21 37  1  0  0  0  0
 22 24  2  0  0  0  0
 22 42  1  0  0  0  0
 23 25  2  0  0  0  0
 23 43  1  0  0  0  0
 24 51  1  0  0  0  0
 25 44  1  0  0  0  0
 26 67  1  0  0  0  0
 27 81  1  0  0  0  0
 28 82  1  0  0  0  0
 29 31  2  0  0  0  0
 29 81  1  0  0  0  0
 30 83  1  0  0  0  0
 31 84  1  0  0  0  0
 32 66  2  0  0  0  0
 33 68  1  0  0  0  0
 33 71  1  0  0  0  0
 34 35  2  0  0  0  0
 35 38  1  0  0  0  0
 36 61  1  0  0  0  0
 36 67  2  0  0  0  0
 37 72  1  0  0  0  0
 37 76  2  0  0  0  0
 38 69  1  0  0  0  0
 38 77  2  0  0  0  0
 39 52  1  0  0  0  0
 39 73  1  0  0  0  0
 39 78  2  0  0  0  0
 40 62  1  0  0  0  0
 40 70  1  0  0  0  0
 40 79  2  0  0  0  0
 41 63  1  0  0  0  0
 41 74  1  0  0  0  0
 41 80  2  0  0  0  0
 42 45  1  0  0  0  0
 43 52  1  0  0  0  0
 44 70  1  0  0  0  0
 45 47  1  0  0  0  0
 46 48  1  0  0  0  0
 46 49  1  0  0  0  0
 47 51  1  0  0  0  0
 48 53  1  0  0  0  0
 49 69  1  0  0  0  0
 50 53  1  0  0  0  0
 50 69  1  0  0  0  0
 51 73  1  0  0  0  0
 52 70  1  0  0  0  0
 53 68  1  0  0  0  0
 54 63  1  0  0  0  0
 55 64  1  0  0  0  0
 56 64  1  0  0  0  0
 57 64  1  0  0  0  0
 58 65  1  0  0  0  0
 59 65  1  0  0  0  0
 60 75  1  0  0  0  0
 61 65  1  0  0  0  0
 62 64  1  0  0  0  0
 62 74  1  0  0  0  0
 63 75  1  0  0  0  0
 65 82  1  0  0  0  0
 66 68  1  0  0  0  0
M  CHG  1  75   1
M  ISO  4  35 100  38 100  65 101  82 101
M  END
> <Batch ID>
0128

> <Smiles>
CNC(C)C(=O)NC(C(=O)N1Cc2cc([101O:1][101C:1](C)(C)C=CNc3ccc(C=[100CH:0][100C:0](=O)N4CCCC(n5nc(-c6ccc(Oc7ccc(F)cc7F)cc6)c(C(N)=O)c5N)C4)cc3)ccc2CC1C(=O)NC1CCCc2ccccc21)C(C)(C)C

> <Shape>
0.262

> <Color>
0.095

> <Negative vol penalty>
0.000

$$$$

  -OEChem-04052302163D

 85 93  0     1  0  0  0  0  0999 V2000
  -27.7972  -32.7234   27.5010 C   0  0  0  0  0  0  0  0  0  0  0  0
  -27.9549  -31.6528   26.6268 C   0  0  0  0  0  0  0  0  0  0  0  0
  -24.2960   -8.9744   21.4399 C   0  0  0  0  0  0  0  0  0  0  0  0
  -24.8336  -10.2623   23.4121 C   0  0  0  0  0  0  0  0  0  0  0  0
  -26.5248  -33.2355   27.7518 C   0  0  0  0  0  0  0  0  0  0  0  0
  -26.8401  -31.0929   26.0037 C   0  0  0  0  0  0  0  0  0  0  0  0
  -27.6004  -30.2296   21.0720 C   0  0  0  0  0  0  0  0  0  0  0  0
  -23.9857   -7.8761   22.2418 C   0  0  0  0  0  0  0  0  0  0  0  0
  -24.5232   -9.1640   24.2139 C   0  0  0  0  0  0  0  0  0  0  0  0
  -28.3479  -29.1033   20.7306 C   0  0  0  0  0  0  0  0  0  0  0  0
  -22.7059   -4.8461   23.7900 C   0  0  0  0  0  0  0  0  0  0  0  0
  -21.5393   -4.1393   23.4984 C   0  0  0  0  0  0  0  0  0  0  0  0
  -26.3107  -27.9049   20.2480 C   0  0  0  0  0  0  0  0  0  0  0  0
  -30.1491  -18.7864   19.9412 C   0  0  0  0  0  0  0  0  0  0  0  0
  -27.9663  -20.3654   20.6656 C   0  0  0  0  0  0  0  0  0  0  0  0
  -20.2348   -6.1381   23.8731 C   0  0  0  0  0  0  0  0  0  0  0  0
  -24.7200  -10.1675   22.0251 C   0  0  0  0  0  0  0  0  0  0  0  0
  -24.1658  -12.3193   20.7719 C   0  0  0  0  0  0  0  0  0  0  0  0
  -25.3950  -32.6879   27.1240 C   0  0  0  0  0  0  0  0  0  0  0  0
  -26.1996  -30.1984   21.0143 C   0  0  0  0  0  0  0  0  0  0  0  0
  -25.5514  -31.5973   26.2473 C   0  0  0  0  0  0  0  0  0  0  0  0
  -25.5478  -29.0329   20.5867 C   0  0  0  0  0  0  0  0  0  0  0  0
  -30.3418  -20.1205   20.2996 C   0  0  0  0  0  0  0  0  0  0  0  0
  -27.7736  -19.0312   20.3071 C   0  0  0  0  0  0  0  0  0  0  0  0
  -28.8649  -18.2417   19.9449 C   0  0  0  0  0  0  0  0  0  0  0  0
  -24.0992   -7.9709   23.6288 C   0  0  0  0  0  0  0  0  0  0  0  0
  -27.7030  -27.9398   20.3213 C   0  0  0  0  0  0  0  0  0  0  0  0
  -22.6370   -6.1989   24.1231 C   0  0  0  0  0  0  0  0  0  0  0  0
  -29.2505  -20.9100   20.6618 C   0  0  0  0  0  0  0  0  0  0  0  0
  -20.3038   -4.7853   23.5399 C   0  0  0  0  0  0  0  0  0  0  0  0
  -21.4015   -6.8449   24.1646 C   0  0  0  0  0  0  0  0  0  0  0  0
  -25.0413  -11.3022   21.1973 C   0  0  0  0  0  0  0  0  0  0  0  0
  -24.9509  -13.1535   20.0142 C   0  0  0  0  0  0  0  0  0  0  0  0
  -22.7678  -12.4944   21.0381 C   0  0  0  0  0  0  0  0  0  0  0  0
  -23.8591  -30.5388   23.1379 C   0  0  0  0  0  0  0  0  0  0  0  0
  -28.8754  -24.5159   20.5044 C   0  0  0  0  0  0  0  0  0  0  0  0
  -21.9738  -30.3920   20.5023 C   0  0  0  0  0  0  0  0  0  0  0  0
  -21.5878  -29.3686   17.2696 C   0  0  0  0  0  0  0  0  0  0  0  0
  -29.6781  -15.9788   19.1935 C   0  0  0  0  0  0  0  0  0  0  0  0
  -24.0349  -33.2446   27.4628 C   0  0  0  0  0  0  0  0  0  0  0  0
  -25.4088  -31.4302   21.3603 C   0  0  0  0  0  0  0  0  0  0  0  0
  -24.0470  -28.9543   20.4883 C   0  0  0  0  0  0  0  0  0  0  0  0
  -22.9460  -32.8365   26.4739 C   0  0  0  0  0  0  0  0  0  0  0  0
  -29.6560  -12.5458   18.2496 C   0  0  0  0  0  0  0  0  0  0  0  0
  -23.0263  -31.3422   26.1781 C   0  0  0  0  0  0  0  0  0  0  0  0
  -28.3815  -11.9999   18.8973 C   0  0  0  0  0  0  0  0  0  0  0  0
  -30.3419  -13.5849   19.1348 C   0  0  0  0  0  0  0  0  0  0  0  0
  -28.2053  -14.1413   20.2279 C   0  0  0  0  0  0  0  0  0  0  0  0
  -24.3692  -30.9788   25.5331 C   0  0  1  0  0  0  0  0  0  0  0  0
  -23.9683  -31.1232   21.7579 C   0  0  1  0  0  0  0  0  0  0  0  0
  -27.4444  -13.1389   19.3448 C   0  0  2  0  0  0  0  0  0  0  0  0
  -31.7234  -20.6868   20.2882 C   0  0  0  0  0  0  0  0  0  0  0  0
  -25.8002  -18.3526   18.9172 C   0  0  0  0  0  0  0  0  0  0  0  0
  -19.9233  -29.3593   15.3916 C   0  0  0  0  0  0  0  0  0  0  0  0
  -20.4307  -28.1516   21.8843 C   0  0  0  0  0  0  0  0  0  0  0  0
  -19.4422  -27.5564   19.6624 C   0  0  0  0  0  0  0  0  0  0  0  0
  -19.0033  -29.8003   20.6599 C   0  0  0  0  0  0  0  0  0  0  0  0
  -23.3782  -30.9478   15.5203 C   0  0  0  0  0  0  0  0  0  0  0  0
  -26.3872  -18.4737   20.3199 C   0  0  0  0  0  0  0  0  0  0  0  0
  -27.8238  -25.5671   20.2140 C   0  0  0  0  0  0  0  0  0  1  0  0
  -28.3577  -23.1127   20.7451 C   0  0  0  0  0  0  0  0  0  0  0  0
  -21.2976  -29.2837   19.7319 C   0  0  1  0  0  0  0  0  0  0  0  0
  -21.0870  -30.0969   16.0354 C   0  0  2  0  0  0  0  0  0  0  0  0
  -20.0717  -28.6985   20.4882 C   0  0  0  0  0  0  0  0  0  0  0  0
  -26.2871  -11.4727   20.7469 N   0  0  0  0  0  0  0  0  0  0  0  0
  -26.2001  -12.6065   20.0307 N   0  0  0  0  0  0  0  0  0  0  0  0
  -23.3176  -30.1829   20.8433 N   0  0  0  0  0  0  0  0  0  0  0  0
  -29.3946  -14.6348   19.5159 N   0  0  0  0  0  0  0  0  0  0  0  0
  -24.6875  -14.2942   19.3419 N   0  0  0  0  0  0  0  0  0  0  0  0
  -22.1154  -11.5442   21.8355 N   0  0  0  0  0  0  0  0  0  0  0  0
  -28.6896  -16.8846   19.5770 N   0  0  0  0  0  0  0  0  0  0  0  0
  -24.3737  -31.3471   24.1335 N   0  0  0  0  0  0  0  0  0  0  0  0
  -20.9823  -29.8334   18.4178 N   0  0  0  0  0  0  0  0  0  0  0  0
  -22.1789  -30.2217   15.0288 N   0  3  0  0  0  0  0  0  0  0  0  0
  -22.1129  -13.4558   20.5688 O   0  0  0  0  0  0  0  0  0  0  0  0
  -23.3446  -29.4368   23.2884 O   0  0  0  0  0  0  0  0  0  0  0  0
  -30.0750  -24.7854   20.5430 O   0  0  0  0  0  0  0  0  0  0  0  0
  -21.3352  -31.4089   20.7847 O   0  0  0  0  0  0  0  0  0  0  0  0
  -22.4291  -28.4740   17.2195 O   0  0  0  0  0  0  0  0  0  0  0  0
  -30.7084  -16.2993   18.5953 O   0  0  0  0  0  0  0  0  0  0  0  0
  -23.7962   -6.8994   24.4115 O   0  0  0  0  0  0  0  0  0  0  0  0
  -28.4302  -26.8389   19.9881 O   0  0  0  0  0  0  0  0  0  1  0  0
  -29.4231  -22.2268   21.0172 O   0  0  0  0  0  0  0  0  0  0  0  0
  -19.1837   -4.1068   23.2584 F   0  0  0  0  0  0  0  0  0  0  0  0
  -21.3290   -8.1446   24.4829 F   0  0  0  0  0  0  0  0  0  0  0  0
  1  2  1  0  0  0  0
  1  5  2  0  0  0  0
  2  6  2  0  0  0  0
  3  8  2  0  0  0  0
  3 17  1  0  0  0  0
  4  9  1  0  0  0  0
  4 17  2  0  0  0  0
  5 19  1  0  0  0  0
  6 21  1  0  0  0  0
  7 10  2  0  0  0  0
  7 20  1  0  0  0  0
  8 26  1  0  0  0  0
  9 26  2  0  0  0  0
 10 27  1  0  0  0  0
 11 12  2  0  0  0  0
 11 28  1  0  0  0  0
 12 30  1  0  0  0  0
 13 22  1  0  0  0  0
 13 27  2  0  0  0  0
 14 23  2  0  0  0  0
 14 25  1  0  0  0  0
 15 24  1  0  0  0  0
 15 29  2  0  0  0  0
 16 30  2  0  0  0  0
 16 31  1  0  0  0  0
 17 32  1  0  0  0  0
 18 32  1  0  0  0  0
 18 33  2  0  0  0  0
 18 34  1  0  0  0  0
 19 21  2  0  0  0  0
 19 40  1  0  0  0  0
 20 22  2  0  0  0  0
 20 41  1  0  0  0  0
 21 49  1  0  0  0  0
 22 42  1  0  0  0  0
 23 29  1  0  0  0  0
 23 52  1  0  0  0  0
 24 25  2  0  0  0  0
 24 59  1  0  0  0  0
 25 71  1  0  0  0  0
 26 81  1  0  0  0  0
 27 82  1  0  0  0  0
 28 31  2  0  0  0  0
 28 81  1  0  0  0  0
 29 83  1  0  0  0  0
 30 84  1  0  0  0  0
 31 85  1  0  0  0  0
 32 65  2  0  0  0  0
 33 66  1  0  0  0  0
 33 69  1  0  0  0  0
 34 70  1  0  0  0  0
 34 75  2  0  0  0  0
 35 50  1  0  0  0  0
 35 72  1  0  0  0  0
 35 76  2  0  0  0  0
 36 60  1  0  0  0  0
 36 61  1  0  0  0  0
 36 77  2  0  0  0  0
 37 62  1  0  0  0  0
 37 67  1  0  0  0  0
 37 78  2  0  0  0  0
 38 63  1  0  0  0  0
 38 73  1  0  0  0  0
 38 79  2  0  0  0  0
 39 68  1  0  0  0  0
 39 71  1  0  0  0  0
 39 80  2  0  0  0  0
 40 43  1  0  0  0  0
 41 50  1  0  0  0  0
 42 67  1  0  0  0  0
 43 45  1  0  0  0  0
 44 46  1  0  0  0  0
 44 47  1  0  0  0  0
 45 49  1  0  0  0  0
 46 51  1  0  0  0  0
 47 68  1  0  0  0  0
 48 51  1  0  0  0  0
 48 68  1  0  0  0  0
 49 72  1  0  0  0  0
 50 67  1  0  0  0  0
 51 66  1  0  0  0  0
 53 59  1  0  0  0  0
 54 63  1  0  0  0  0
 55 64  1  0  0  0  0
 56 64  1  0  0  0  0
 57 64  1  0  0  0  0
 58 74  1  0  0  0  0
 60 82  1  0  0  0  0
 61 83  1  0  0  0  0
 62 64  1  0  0  0  0
 62 73  1  0  0  0  0
 63 74  1  0  0  0  0
 65 66  1  0  0  0  0
M  CHG  1  74   1
M  ISO  4  39 100  60 101  71 100  82 101
M  END
> <Batch ID>
0128

> <Smiles>
CCc1cc(OCC(=O)[101CH2:1][101O:1]c2ccc3c(c2)CN(C(=O)C(NC(=O)C(C)NC)C(C)(C)C)C(C(=O)NC2CCCc4ccccc42)C3)c(C)cc1[100NH:0][100C:0](=O)N1CCCC(n2nc(-c3ccc(Oc4ccc(F)cc4F)cc3)c(C(N)=O)c2N)C1

> <Shape>
0.341

> <Color>
0.134

> <Negative vol penalty>
0.000

$$$$

  -OEChem-04052302163D

 83 91  0     1  0  0  0  0  0999 V2000
  -29.0407  -13.3258   13.7569 C   0  0  0  0  0  0  0  0  0  0  0  0
  -29.2923  -13.5876   15.0998 C   0  0  0  0  0  0  0  0  0  0  0  0
  -22.6676  -28.2787   19.7650 C   0  0  0  0  0  0  0  0  0  0  0  0
  -23.0338  -28.8855   22.0747 C   0  0  0  0  0  0  0  0  0  0  0  0
  -27.7492  -13.4663   13.2506 C   0  0  0  0  0  0  0  0  0  0  0  0
  -28.2528  -13.9913   15.9370 C   0  0  0  0  0  0  0  0  0  0  0  0
  -28.2940  -11.5765   20.3881 C   0  0  0  0  0  0  0  0  0  0  0  0
  -21.3973  -28.8526   19.8156 C   0  0  0  0  0  0  0  0  0  0  0  0
  -21.7635  -29.4595   22.1253 C   0  0  0  0  0  0  0  0  0  0  0  0
  -29.2177  -12.0089   21.3386 C   0  0  0  0  0  0  0  0  0  0  0  0
  -18.5656  -28.4086   22.4408 C   0  0  0  0  0  0  0  0  0  0  0  0
  -17.7715  -28.1280   23.5526 C   0  0  0  0  0  0  0  0  0  0  0  0
  -27.4793  -13.2576   22.4512 C   0  0  0  0  0  0  0  0  0  0  0  0
  -30.0466  -16.4418   18.4433 C   0  0  0  0  0  0  0  0  0  0  0  0
  -17.6824  -30.4834   24.0832 C   0  0  0  0  0  0  0  0  0  0  0  0
  -23.4858  -28.2950   20.8946 C   0  0  0  0  0  0  0  0  0  0  0  0
  -26.0035  -28.3346   20.4859 C   0  0  0  0  0  0  0  0  0  0  0  0
  -26.6915  -13.8626   14.0841 C   0  0  0  0  0  0  0  0  0  0  0  0
  -26.9560  -11.9908   20.4559 C   0  0  0  0  0  0  0  0  0  0  0  0
  -26.9463  -14.1386   15.4411 C   0  0  0  0  0  0  0  0  0  0  0  0
  -26.5400  -12.8269   21.5019 C   0  0  0  0  0  0  0  0  0  0  0  0
  -29.5022  -17.6088   17.8559 C   0  0  0  0  0  0  0  0  0  0  0  0
  -20.9453  -29.4431   20.9957 C   0  0  0  0  0  0  0  0  0  0  0  0
  -28.8111  -12.8519   22.3687 C   0  0  0  0  0  0  0  0  0  0  0  0
  -18.9181  -29.7265   22.1501 C   0  0  0  0  0  0  0  0  0  0  0  0
  -17.3298  -29.1654   24.3739 C   0  0  0  0  0  0  0  0  0  0  0  0
  -18.4765  -30.7639   22.9713 C   0  0  0  0  0  0  0  0  0  0  0  0
  -24.7979  -27.7018   20.8431 C   0  0  0  0  0  0  0  0  0  0  0  0
  -30.3302  -16.7681   19.7491 C   0  0  0  0  0  0  0  0  0  0  0  0
  -29.4918  -18.5649   18.8447 C   0  0  0  0  0  0  0  0  0  0  0  0
  -26.9540  -27.3491   20.5949 C   0  0  0  0  0  0  0  0  0  0  0  0
  -30.9136  -15.8946   20.7810 C   0  0  0  0  0  0  0  0  0  0  0  0
  -29.0396  -19.9027   18.7516 C   0  0  0  0  0  0  0  0  0  0  0  0
  -29.0579  -20.8483   19.7472 C   0  0  0  0  0  0  0  0  0  0  0  0
  -31.1505  -16.2503   22.0534 C   0  0  0  0  0  0  0  0  0  0  0  0
  -26.2429  -29.6920   20.0909 C   0  0  0  0  0  0  0  0  0  0  0  0
  -28.5561  -22.2132   19.4900 C   0  0  0  0  0  0  0  0  0  0  0  0
  -25.0271  -13.6636   18.5626 C   0  0  0  0  0  0  0  0  0  0  0  0
  -22.7886  -12.8278   20.7565 C   0  0  0  0  0  0  0  0  0  0  0  0
  -22.0837  -11.8599   23.9523 C   0  0  0  0  0  0  0  0  0  0  0  0
  -25.3215  -14.0465   13.4809 C   0  0  0  0  0  0  0  0  0  0  0  0
  -25.9661  -11.4940   19.4382 C   0  0  0  0  0  0  0  0  0  0  0  0
  -25.1108  -13.2841   21.6311 C   0  0  0  0  0  0  0  0  0  0  0  0
  -24.2036  -14.1164   14.5180 C   0  0  0  0  0  0  0  0  0  0  0  0
  -26.7151  -22.7351   22.6158 C   0  0  0  0  0  0  0  0  0  0  0  0
  -24.5890  -15.0565   15.6557 C   0  0  0  0  0  0  0  0  0  0  0  0
  -26.1118  -24.1161   22.3741 C   0  0  0  0  0  0  0  0  0  0  0  0
  -26.8089  -21.9187   21.3276 C   0  0  0  0  0  0  0  0  0  0  0  0
  -26.9340  -24.0001   19.9886 C   0  0  0  0  0  0  0  0  0  0  0  0
  -25.8402  -14.5546   16.3864 C   0  0  1  0  0  0  0  0  0  0  0  0
  -24.7396  -12.3921   19.3097 C   0  0  1  0  0  0  0  0  0  0  0  0
  -26.8736  -24.8562   21.2633 C   0  0  1  0  0  0  0  0  0  0  0  0
  -29.0434  -17.7499   16.4601 C   0  0  0  0  0  0  0  0  0  0  0  0
  -20.1595  -11.2892   25.4586 C   0  0  0  0  0  0  0  0  0  0  0  0
  -22.1115  -15.7921   21.0106 C   0  0  0  0  0  0  0  0  0  0  0  0
  -20.9114  -15.2636   23.1434 C   0  0  0  0  0  0  0  0  0  0  0  0
  -20.1296  -14.2669   20.9945 C   0  0  0  0  0  0  0  0  0  0  0  0
  -23.0905   -9.1114   24.3895 C   0  0  0  0  0  0  0  0  0  0  0  0
  -31.7444  -15.3215   23.0743 C   0  0  0  0  0  0  0  0  0  0  0  0
  -30.8216  -15.1621   24.2811 C   0  0  0  0  0  0  0  0  0  0  0  0
  -29.4822  -14.5555   23.8864 C   0  0  0  0  0  0  0  0  0  1  0  0
  -22.2735  -13.4304   22.0412 C   0  0  1  0  0  0  0  0  0  0  0  0
  -21.2063  -10.7476   24.4975 C   0  0  2  0  0  0  0  0  0  0  0  0
  -21.3839  -14.6814   21.7942 C   0  0  0  0  0  0  0  0  0  0  0  0
  -24.9644  -26.4139   21.1555 N   0  0  0  0  0  0  0  0  0  0  0  0
  -26.2859  -26.2294   20.9949 N   0  0  0  0  0  0  0  0  0  0  0  0
  -27.4898  -22.6702   20.2625 N   0  0  0  0  0  0  0  0  0  0  0  0
  -24.1819  -12.7763   20.6079 N   0  0  0  0  0  0  0  0  0  0  0  0
  -28.2878  -27.3398   20.3866 N   0  0  0  0  0  0  0  0  0  0  0  0
  -25.1541  -30.5724   20.0314 N   0  0  0  0  0  0  0  0  0  0  0  0
  -25.5018  -13.4675   17.2798 N   0  0  0  0  0  0  0  0  0  0  0  0
  -21.6018  -12.3515   22.7576 N   0  0  0  0  0  0  0  0  0  0  0  0
  -22.0345   -9.7427   25.2222 N   0  3  0  0  0  0  0  0  0  0  0  0
  -27.3859  -30.1074   19.7834 O   0  0  0  0  0  0  0  0  0  0  0  0
  -29.1095  -22.8646   18.6022 O   0  0  0  0  0  0  0  0  0  0  0  0
  -24.8312  -14.7429   19.1091 O   0  0  0  0  0  0  0  0  0  0  0  0
  -21.9846  -12.4114   19.9188 O   0  0  0  0  0  0  0  0  0  0  0  0
  -23.0935  -12.2559   24.5304 O   0  0  0  0  0  0  0  0  0  0  0  0
  -29.9948  -18.0605   20.0019 O   0  0  0  0  0  0  0  0  0  0  0  0
  -19.7059  -30.0035   21.0454 O   0  0  0  0  0  0  0  0  0  0  0  0
  -29.7109  -13.2760   23.2974 O   0  0  0  0  0  0  0  0  0  1  0  0
  -16.5660  -28.8960   25.4407 F   0  0  0  0  0  0  0  0  0  0  0  0
  -18.8109  -32.0322   22.6965 F   0  0  0  0  0  0  0  0  0  0  0  0
  1  2  1  0  0  0  0
  1  5  2  0  0  0  0
  2  6  2  0  0  0  0
  3  8  2  0  0  0  0
  3 16  1  0  0  0  0
  4  9  1  0  0  0  0
  4 16  2  0  0  0  0
  5 18  1  0  0  0  0
  6 20  1  0  0  0  0
  7 10  2  0  0  0  0
  7 19  1  0  0  0  0
  8 23  1  0  0  0  0
  9 23  2  0  0  0  0
 10 24  1  0  0  0  0
 11 12  2  0  0  0  0
 11 25  1  0  0  0  0
 12 26  1  0  0  0  0
 13 21  1  0  0  0  0
 13 24  2  0  0  0  0
 14 22  1  0  0  0  0
 14 29  2  0  0  0  0
 15 26  2  0  0  0  0
 15 27  1  0  0  0  0
 16 28  1  0  0  0  0
 17 28  1  0  0  0  0
 17 31  2  0  0  0  0
 17 36  1  0  0  0  0
 18 20  2  0  0  0  0
 18 41  1  0  0  0  0
 19 21  2  0  0  0  0
 19 42  1  0  0  0  0
 20 50  1  0  0  0  0
 21 43  1  0  0  0  0
 22 30  2  0  0  0  0
 22 53  1  0  0  0  0
 23 80  1  0  0  0  0
 24 81  1  0  0  0  0
 25 27  2  0  0  0  0
 25 80  1  0  0  0  0
 26 82  1  0  0  0  0
 27 83  1  0  0  0  0
 28 65  2  0  0  0  0
 29 32  1  0  0  0  0
 29 79  1  0  0  0  0
 30 33  1  0  0  0  0
 30 79  1  0  0  0  0
 31 66  1  0  0  0  0
 31 69  1  0  0  0  0
 32 35  2  0  0  0  0
 33 34  2  0  0  0  0
 34 37  1  0  0  0  0
 35 59  1  0  0  0  0
 36 70  1  0  0  0  0
 36 74  2  0  0  0  0
 37 67  1  0  0  0  0
 37 75  2  0  0  0  0
 38 51  1  0  0  0  0
 38 71  1  0  0  0  0
 38 76  2  0  0  0  0
 39 62  1  0  0  0  0
 39 68  1  0  0  0  0
 39 77  2  0  0  0  0
 40 63  1  0  0  0  0
 40 72  1  0  0  0  0
 40 78  2  0  0  0  0
 41 44  1  0  0  0  0
 42 51  1  0  0  0  0
 43 68  1  0  0  0  0
 44 46  1  0  0  0  0
 45 47  1  0  0  0  0
 45 48  1  0  0  0  0
 46 50  1  0  0  0  0
 47 52  1  0  0  0  0
 48 67  1  0  0  0  0
 49 52  1  0  0  0  0
 49 67  1  0  0  0  0
 50 71  1  0  0  0  0
 51 68  1  0  0  0  0
 52 66  1  0  0  0  0
 54 63  1  0  0  0  0
 55 64  1  0  0  0  0
 56 64  1  0  0  0  0
 57 64  1  0  0  0  0
 58 73  1  0  0  0  0
 59 60  1  0  0  0  0
 60 61  1  0  0  0  0
 61 81  1  0  0  0  0
 62 64  1  0  0  0  0
 62 72  1  0  0  0  0
 63 73  1  0  0  0  0
 65 66  1  0  0  0  0
M  CHG  1  73   1
M  ISO  4  34 100  37 100  61 101  81 101
M  END
> <Batch ID>
0128

> <Smiles>
CNC(C)C(=O)NC(C(=O)N1Cc2cc([101O:1][101CH2:1]CCC=Cc3cc(C)c(C=[100CH:0][100C:0](=O)N4CCCC(n5nc(-c6ccc(Oc7ccc(F)cc7F)cc6)c(C(N)=O)c5N)C4)o3)ccc2CC1C(=O)NC1CCCc2ccccc21)C(C)(C)C

> <Shape>
0.226

> <Color>
0.095

> <Negative vol penalty>
0.000

$$$$

  -OEChem-04052302163D

 84 92  0     1  0  0  0  0  0999 V2000
  -27.4268  -33.7312   26.4646 C   0  0  0  0  0  0  0  0  0  0  0  0
  -27.7100  -32.5645   25.7617 C   0  0  0  0  0  0  0  0  0  0  0  0
  -26.2720  -11.7342   21.3206 C   0  0  0  0  0  0  0  0  0  0  0  0
  -25.6058  -12.3549   19.0827 C   0  0  0  0  0  0  0  0  0  0  0  0
  -26.1059  -34.0558   26.7710 C   0  0  0  0  0  0  0  0  0  0  0  0
  -26.6725  -31.7211   25.3658 C   0  0  0  0  0  0  0  0  0  0  0  0
  -27.1764  -30.1342   20.5833 C   0  0  0  0  0  0  0  0  0  0  0  0
  -24.9890  -11.2459   21.5672 C   0  0  0  0  0  0  0  0  0  0  0  0
  -24.3227  -11.8665   19.3293 C   0  0  0  0  0  0  0  0  0  0  0  0
  -28.0908  -29.1090   20.3456 C   0  0  0  0  0  0  0  0  0  0  0  0
  -23.1994   -8.4691   20.8461 C   0  0  0  0  0  0  0  0  0  0  0  0
  -23.0875   -7.2302   21.4770 C   0  0  0  0  0  0  0  0  0  0  0  0
  -27.8375  -21.4160   14.9172 C   0  0  0  0  0  0  0  0  0  0  0  0
  -28.9692  -20.9661   17.0037 C   0  0  0  0  0  0  0  0  0  0  0  0
  -26.2810  -27.5150   20.2937 C   0  0  0  0  0  0  0  0  0  0  0  0
  -28.3581  -19.1413   15.5430 C   0  0  0  0  0  0  0  0  0  0  0  0
  -21.8787   -8.2651   23.2950 C   0  0  0  0  0  0  0  0  0  0  0  0
  -26.5804  -12.2888   20.0784 C   0  0  0  0  0  0  0  0  0  0  0  0
  -28.4184  -21.8743   16.0996 C   0  0  0  0  0  0  0  0  0  0  0  0
  -29.0007  -12.0814   19.2993 C   0  0  0  0  0  0  0  0  0  0  0  0
  -25.0510  -33.2208   26.3703 C   0  0  0  0  0  0  0  0  0  0  0  0
  -25.8061  -29.8555   20.6890 C   0  0  0  0  0  0  0  0  0  0  0  0
  -25.3364  -32.0342   25.6684 C   0  0  0  0  0  0  0  0  0  0  0  0
  -25.3510  -28.5388   20.5302 C   0  0  0  0  0  0  0  0  0  0  0  0
  -27.8073  -20.0495   14.6389 C   0  0  0  0  0  0  0  0  0  0  0  0
  -28.9390  -19.5995   16.7254 C   0  0  0  0  0  0  0  0  0  0  0  0
  -24.0143  -11.3120   20.5715 C   0  0  0  0  0  0  0  0  0  0  0  0
  -27.6435  -27.7988   20.2036 C   0  0  0  0  0  0  0  0  0  0  0  0
  -22.6510   -9.6061   21.4397 C   0  0  0  0  0  0  0  0  0  0  0  0
  -22.4272   -7.1281   22.7014 C   0  0  0  0  0  0  0  0  0  0  0  0
  -21.9907   -9.5041   22.6641 C   0  0  0  0  0  0  0  0  0  0  0  0
  -27.9055  -12.7940   19.8232 C   0  0  0  0  0  0  0  0  0  0  0  0
  -30.0183  -13.0026   19.2509 C   0  0  0  0  0  0  0  0  0  0  0  0
  -28.4502  -23.3179   16.3936 C   0  0  0  0  0  0  0  0  0  0  0  0
  -29.2855  -23.8988   17.2662 C   0  0  0  0  0  0  0  0  0  0  0  0
  -29.0901  -10.7094   18.8926 C   0  0  0  0  0  0  0  0  0  0  0  0
  -29.2310  -25.3728   17.5003 C   0  0  0  0  0  0  0  0  0  0  0  0
  -23.6241  -30.1659   22.9794 C   0  0  0  0  0  0  0  0  0  0  0  0
  -21.5911  -29.2328   20.6303 C   0  0  0  0  0  0  0  0  0  0  0  0
  -21.1411  -27.5988   17.6681 C   0  0  0  0  0  0  0  0  0  0  0  0
  -30.1125  -18.9645   18.8622 C   0  0  0  0  0  0  0  0  0  0  0  0
  -23.6430  -33.5895   26.7658 C   0  0  0  0  0  0  0  0  0  0  0  0
  -24.8299  -30.9764   20.9190 C   0  0  0  0  0  0  0  0  0  0  0  0
  -23.8883  -28.1897   20.6148 C   0  0  0  0  0  0  0  0  0  0  0  0
  -22.5727  -32.8323   25.9838 C   0  0  0  0  0  0  0  0  0  0  0  0
  -31.5807  -16.9741   21.4234 C   0  0  0  0  0  0  0  0  0  0  0  0
  -22.9064  -31.3451   25.9250 C   0  0  0  0  0  0  0  0  0  0  0  0
  -30.9090  -15.6097   21.2522 C   0  0  0  0  0  0  0  0  0  0  0  0
  -30.6117  -18.1221   21.1461 C   0  0  0  0  0  0  0  0  0  0  0  0
  -29.2461  -16.6860   19.6827 C   0  0  0  0  0  0  0  0  0  0  0  0
  -24.2364  -31.1063   25.2001 C   0  0  1  0  0  0  0  0  0  0  0  0
  -23.5094  -30.5047   21.5201 C   0  0  1  0  0  0  0  0  0  0  0  0
  -30.1999  -15.4979   19.8882 C   0  0  2  0  0  0  0  0  0  0  0  0
  -19.3603  -26.9717   16.0150 C   0  0  0  0  0  0  0  0  0  0  0  0
  -20.6116  -27.0456   22.5188 C   0  0  0  0  0  0  0  0  0  0  0  0
  -19.5741  -25.9042   20.5467 C   0  0  0  0  0  0  0  0  0  0  0  0
  -18.8064  -28.1821   21.2135 C   0  0  0  0  0  0  0  0  0  0  0  0
  -22.4563  -29.1219   15.4980 C   0  0  0  0  0  0  0  0  0  0  0  0
  -30.2309  -25.9080   18.5140 C   0  0  0  0  0  0  0  0  0  0  0  0
  -29.7217  -27.1345   19.2572 C   0  0  0  0  0  0  0  0  0  1  0  0
  -21.0735  -27.9063   20.1289 C   0  0  1  0  0  0  0  0  0  0  0  0
  -20.4142  -27.9993   16.3971 C   0  0  2  0  0  0  0  0  0  0  0  0
  -20.0442  -27.2655   21.1023 C   0  0  0  0  0  0  0  0  0  0  0  0
  -28.1997  -14.0695   20.0889 N   0  0  0  0  0  0  0  0  0  0  0  0
  -29.4914  -14.1656   19.7305 N   0  0  0  0  0  0  0  0  0  0  0  0
  -22.9735  -29.3196   20.8474 N   0  0  0  0  0  0  0  0  0  0  0  0
  -29.9811  -17.9514   19.8354 N   0  0  0  0  0  0  0  0  0  0  0  0
  -27.2198  -19.5860   13.4433 N   0  0  0  0  0  0  0  0  0  0  0  0
  -31.3035  -12.9231   18.8455 N   0  0  0  0  0  0  0  0  0  0  0  0
  -27.9502   -9.9024   19.0090 N   0  0  0  0  0  0  0  0  0  0  0  0
  -29.4984  -18.6768   17.6438 N   0  0  0  0  0  0  0  0  0  0  0  0
  -24.0580  -31.2144   23.7680 N   0  0  0  0  0  0  0  0  0  0  0  0
  -20.5550  -28.1511   18.7874 N   0  0  0  0  0  0  0  0  0  0  0  0
  -21.3778  -28.1266   15.2674 N   0  3  0  0  0  0  0  0  0  0  0  0
  -30.1541  -10.2096   18.4548 O   0  0  0  0  0  0  0  0  0  0  0  0
  -28.4308  -26.0918   16.9081 O   0  0  0  0  0  0  0  0  0  0  0  0
  -23.3386  -29.0372   23.3619 O   0  0  0  0  0  0  0  0  0  0  0  0
  -20.7990  -30.1601   20.8154 O   0  0  0  0  0  0  0  0  0  0  0  0
  -22.1278  -26.8660   17.6684 O   0  0  0  0  0  0  0  0  0  0  0  0
  -30.7480  -19.9985   19.0836 O   0  0  0  0  0  0  0  0  0  0  0  0
  -22.7622  -10.8353   20.8117 O   0  0  0  0  0  0  0  0  0  0  0  0
  -28.5340  -26.7961   19.9722 O   0  0  0  0  0  0  0  0  0  1  0  0
  -22.3185   -5.9380   23.3064 F   0  0  0  0  0  0  0  0  0  0  0  0
  -21.4608  -10.5926   23.2387 F   0  0  0  0  0  0  0  0  0  0  0  0
  1  2  1  0  0  0  0
  1  5  2  0  0  0  0
  2  6  2  0  0  0  0
  3  8  2  0  0  0  0
  3 18  1  0  0  0  0
  4  9  1  0  0  0  0
  4 18  2  0  0  0  0
  5 21  1  0  0  0  0
  6 23  1  0  0  0  0
  7 10  2  0  0  0  0
  7 22  1  0  0  0  0
  8 27  1  0  0  0  0
  9 27  2  0  0  0  0
 10 28  1  0  0  0  0
 11 12  2  0  0  0  0
 11 29  1  0  0  0  0
 12 30  1  0  0  0  0
 13 19  1  0  0  0  0
 13 25  2  0  0  0  0
 14 19  2  0  0  0  0
 14 26  1  0  0  0  0
 15 24  1  0  0  0  0
 15 28  2  0  0  0  0
 16 25  1  0  0  0  0
 16 26  2  0  0  0  0
 17 30  2  0  0  0  0
 17 31  1  0  0  0  0
 18 32  1  0  0  0  0
 19 34  1  0  0  0  0
 20 32  1  0  0  0  0
 20 33  2  0  0  0  0
 20 36  1  0  0  0  0
 21 23  2  0  0  0  0
 21 42  1  0  0  0  0
 22 24  2  0  0  0  0
 22 43  1  0  0  0  0
 23 51  1  0  0  0  0
 24 44  1  0  0  0  0
 25 68  1  0  0  0  0
 26 71  1  0  0  0  0
 27 81  1  0  0  0  0
 28 82  1  0  0  0  0
 29 31  2  0  0  0  0
 29 81  1  0  0  0  0
 30 83  1  0  0  0  0
 31 84  1  0  0  0  0
 32 64  2  0  0  0  0
 33 65  1  0  0  0  0
 33 69  1  0  0  0  0
 34 35  2  0  0  0  0
 35 37  1  0  0  0  0
 36 70  1  0  0  0  0
 36 75  2  0  0  0  0
 37 59  1  0  0  0  0
 37 76  2  0  0  0  0
 38 52  1  0  0  0  0
 38 72  1  0  0  0  0
 38 77  2  0  0  0  0
 39 61  1  0  0  0  0
 39 66  1  0  0  0  0
 39 78  2  0  0  0  0
 40 62  1  0  0  0  0
 40 73  1  0  0  0  0
 40 79  2  0  0  0  0
 41 67  1  0  0  0  0
 41 71  1  0  0  0  0
 41 80  2  0  0  0  0
 42 45  1  0  0  0  0
 43 52  1  0  0  0  0
 44 66  1  0  0  0  0
 45 47  1  0  0  0  0
 46 48  1  0  0  0  0
 46 49  1  0  0  0  0
 47 51  1  0  0  0  0
 48 53  1  0  0  0  0
 49 67  1  0  0  0  0
 50 53  1  0  0  0  0
 50 67  1  0  0  0  0
 51 72  1  0  0  0  0
 52 66  1  0  0  0  0
 53 65  1  0  0  0  0
 54 62  1  0  0  0  0
 55 63  1  0  0  0  0
 56 63  1  0  0  0  0
 57 63  1  0  0  0  0
 58 74  1  0  0  0  0
 59 60  1  0  0  0  0
 60 82  1  0  0  0  0
 61 63  1  0  0  0  0
 61 73  1  0  0  0  0
 62 74  1  0  0  0  0
 64 65  1  0  0  0  0
M  CHG  1  74   1
M  ISO  4  41 100  60 101  71 100  82 101
M  END
> <Batch ID>
0128

> <Smiles>
CNC(C)C(=O)NC(C(=O)N1Cc2cc([101O:1][101CH2:1]CC(=O)C=Cc3cc(N)cc([100NH:0][100C:0](=O)N4CCCC(n5nc(-c6ccc(Oc7ccc(F)cc7F)cc6)c(C(N)=O)c5N)C4)c3)ccc2CC1C(=O)NC1CCCc2ccccc21)C(C)(C)C

> <Shape>
0.329

> <Color>
0.084

> <Negative vol penalty>
0.000

$$$$

  -OEChem-04052302163D

 82 90  0     1  0  0  0  0  0999 V2000
  -46.0837  -15.6192   30.1179 C   0  0  0  0  0  0  0  0  0  0  0  0
  -44.7413  -15.2548   30.1392 C   0  0  0  0  0  0  0  0  0  0  0  0
  -23.2886   -9.7999   19.9128 C   0  0  0  0  0  0  0  0  0  0  0  0
  -23.7408   -9.9398   22.2820 C   0  0  0  0  0  0  0  0  0  0  0  0
  -33.6038  -11.9601   24.7702 C   0  0  0  0  0  0  0  0  0  0  0  0
  -46.4814  -16.7715   29.4410 C   0  0  0  0  0  0  0  0  0  0  0  0
  -43.7955  -16.0431   29.4845 C   0  0  0  0  0  0  0  0  0  0  0  0
  -40.5094  -13.2945   26.7843 C   0  0  0  0  0  0  0  0  0  0  0  0
  -32.8144  -12.2773   23.6649 C   0  0  0  0  0  0  0  0  0  0  0  0
  -22.5629   -8.6270   20.1205 C   0  0  0  0  0  0  0  0  0  0  0  0
  -23.0150   -8.7669   22.4897 C   0  0  0  0  0  0  0  0  0  0  0  0
  -39.4846  -12.6590   27.4841 C   0  0  0  0  0  0  0  0  0  0  0  0
  -19.7685   -7.8544   22.7088 C   0  0  0  0  0  0  0  0  0  0  0  0
  -18.8668   -7.8319   23.7727 C   0  0  0  0  0  0  0  0  0  0  0  0
  -31.6980  -12.2743   26.2215 C   0  0  0  0  0  0  0  0  0  0  0  0
  -37.9654  -14.4215   26.8480 C   0  0  0  0  0  0  0  0  0  0  0  0
  -20.0740   -5.9848   24.7567 C   0  0  0  0  0  0  0  0  0  0  0  0
  -23.8776  -10.4563   20.9935 C   0  0  0  0  0  0  0  0  0  0  0  0
  -33.0456  -11.9586   26.0485 C   0  0  0  0  0  0  0  0  0  0  0  0
  -24.1359  -12.9865   20.7958 C   0  0  0  0  0  0  0  0  0  0  0  0
  -45.5414  -17.5690   28.7695 C   0  0  0  0  0  0  0  0  0  0  0  0
  -40.2722  -14.5059   26.1190 C   0  0  0  0  0  0  0  0  0  0  0  0
  -44.1809  -17.2078   28.7991 C   0  0  0  0  0  0  0  0  0  0  0  0
  -38.9882  -15.0690   26.1382 C   0  0  0  0  0  0  0  0  0  0  0  0
  -30.9086  -12.5916   25.1162 C   0  0  0  0  0  0  0  0  0  0  0  0
  -31.4668  -12.5931   23.8378 C   0  0  0  0  0  0  0  0  0  0  0  0
  -22.4260   -8.1105   21.4090 C   0  0  0  0  0  0  0  0  0  0  0  0
  -38.2131  -13.2240   27.5185 C   0  0  0  0  0  0  0  0  0  0  0  0
  -20.8229   -6.9420   22.6687 C   0  0  0  0  0  0  0  0  0  0  0  0
  -19.0196   -6.8971   24.7967 C   0  0  0  0  0  0  0  0  0  0  0  0
  -20.9756   -6.0073   23.6927 C   0  0  0  0  0  0  0  0  0  0  0  0
  -24.6280  -11.6676   20.7795 C   0  0  0  0  0  0  0  0  0  0  0  0
  -25.2369  -13.7669   20.5404 C   0  0  0  0  0  0  0  0  0  0  0  0
  -33.8795  -11.6236   27.2149 C   0  0  0  0  0  0  0  0  0  0  0  0
  -35.0404  -10.9515   27.1677 C   0  0  0  0  0  0  0  0  0  0  0  0
  -22.8028  -13.4635   21.0216 C   0  0  0  0  0  0  0  0  0  0  0  0
  -41.4022  -17.4656   26.3772 C   0  0  0  0  0  0  0  0  0  0  0  0
  -39.6128  -17.9639   23.7179 C   0  0  0  0  0  0  0  0  0  0  0  0
  -36.9646  -17.0115   21.7874 C   0  0  0  0  0  0  0  0  0  0  0  0
  -31.0980  -12.9547   21.3722 C   0  0  0  0  0  0  0  0  0  0  0  0
  -46.0125  -18.8310   28.0913 C   0  0  0  0  0  0  0  0  0  0  0  0
  -41.3815  -15.1651   25.3462 C   0  0  0  0  0  0  0  0  0  0  0  0
  -38.6766  -16.3576   25.4234 C   0  0  0  0  0  0  0  0  0  0  0  0
  -44.9985  -19.4086   27.1072 C   0  0  0  0  0  0  0  0  0  0  0  0
  -29.4624  -13.6597   18.2892 C   0  0  0  0  0  0  0  0  0  0  0  0
  -43.6067  -19.4381   27.7306 C   0  0  0  0  0  0  0  0  0  0  0  0
  -27.9913  -13.3547   18.5812 C   0  0  0  0  0  0  0  0  0  0  0  0
  -30.3964  -12.6846   19.0037 C   0  0  0  0  0  0  0  0  0  0  0  0
  -28.7045  -12.2551   20.7421 C   0  0  0  0  0  0  0  0  0  0  0  0
  -43.1285  -18.0236   28.0800 C   0  0  1  0  0  0  0  0  0  0  0  0
  -41.1561  -16.6589   25.1338 C   0  0  1  0  0  0  0  0  0  0  0  0
  -27.7273  -13.2509   20.0962 C   0  0  2  0  0  0  0  0  0  0  0  0
  -29.4680  -12.9258   25.3306 C   0  0  0  0  0  0  0  0  0  0  0  0
  -35.7275  -17.6343   19.6948 C   0  0  0  0  0  0  0  0  0  0  0  0
  -38.2989  -20.2912   25.1902 C   0  0  0  0  0  0  0  0  0  0  0  0
  -36.4757  -20.2561   23.4747 C   0  0  0  0  0  0  0  0  0  0  0  0
  -38.8240  -20.7404   22.7866 C   0  0  0  0  0  0  0  0  0  0  0  0
  -37.5621  -14.4048   20.5198 C   0  0  0  0  0  0  0  0  0  0  0  0
  -35.8554  -10.6191   28.3875 C   0  0  0  0  0  0  0  0  0  0  0  0
  -37.2681  -11.1831   28.2916 C   0  0  0  0  0  0  0  0  0  1  0  0
  -38.1879  -18.3856   23.4517 C   0  0  1  0  0  0  0  0  0  0  0  0
  -36.8385  -16.7845   20.2917 C   0  0  2  0  0  0  0  0  0  0  0  0
  -37.9527  -19.8950   23.7410 C   0  0  0  0  0  0  0  0  0  0  0  0
  -25.9394  -11.6096   20.5331 N   0  0  0  0  0  0  0  0  0  0  0  0
  -26.2807  -12.9018   20.3921 N   0  0  0  0  0  0  0  0  0  0  0  0
  -39.7961  -16.9673   24.6869 N   0  0  0  0  0  0  0  0  0  0  0  0
  -30.0905  -12.6420   20.4353 N   0  0  0  0  0  0  0  0  0  0  0  0
  -25.4042  -15.1020   20.4304 N   0  0  0  0  0  0  0  0  0  0  0  0
  -21.7907  -12.5260   21.2693 N   0  0  0  0  0  0  0  0  0  0  0  0
  -30.6817  -12.9124   22.7024 N   0  0  0  0  0  0  0  0  0  0  0  0
  -42.6786  -17.3339   26.8899 N   0  0  0  0  0  0  0  0  0  0  0  0
  -37.8940  -17.9873   22.0793 N   0  0  0  0  0  0  0  0  0  0  0  0
  -36.5385  -15.3524   20.0086 N   0  3  0  0  0  0  0  0  0  0  0  0
  -22.5144  -14.6838   20.9880 O   0  0  0  0  0  0  0  0  0  0  0  0
  -40.5012  -18.1576   26.8367 O   0  0  0  0  0  0  0  0  0  0  0  0
  -40.5288  -18.4940   23.0843 O   0  0  0  0  0  0  0  0  0  0  0  0
  -36.3020  -16.3883   22.6139 O   0  0  0  0  0  0  0  0  0  0  0  0
  -32.2385  -13.2656   21.0192 O   0  0  0  0  0  0  0  0  0  0  0  0
  -21.7177   -6.9661   21.6121 O   0  0  0  0  0  0  0  0  0  0  0  0
  -37.2112  -12.6061   28.2014 O   0  0  0  0  0  0  0  0  0  1  0  0
  -18.1545   -6.8767   25.8192 F   0  0  0  0  0  0  0  0  0  0  0  0
  -21.9873   -5.1290   23.6603 F   0  0  0  0  0  0  0  0  0  0  0  0
  1  2  1  0  0  0  0
  1  6  2  0  0  0  0
  2  7  2  0  0  0  0
  3 10  2  0  0  0  0
  3 18  1  0  0  0  0
  4 11  1  0  0  0  0
  4 18  2  0  0  0  0
  5  9  2  0  0  0  0
  5 19  1  0  0  0  0
  6 21  1  0  0  0  0
  7 23  1  0  0  0  0
  8 12  2  0  0  0  0
  8 22  1  0  0  0  0
  9 26  1  0  0  0  0
 10 27  1  0  0  0  0
 11 27  2  0  0  0  0
 12 28  1  0  0  0  0
 13 14  2  0  0  0  0
 13 29  1  0  0  0  0
 14 30  1  0  0  0  0
 15 19  2  0  0  0  0
 15 25  1  0  0  0  0
 16 24  1  0  0  0  0
 16 28  2  0  0  0  0
 17 30  2  0  0  0  0
 17 31  1  0  0  0  0
 18 32  1  0  0  0  0
 19 34  1  0  0  0  0
 20 32  1  0  0  0  0
 20 33  2  0  0  0  0
 20 36  1  0  0  0  0
 21 23  2  0  0  0  0
 21 41  1  0  0  0  0
 22 24  2  0  0  0  0
 22 42  1  0  0  0  0
 23 50  1  0  0  0  0
 24 43  1  0  0  0  0
 25 26  2  0  0  0  0
 25 53  1  0  0  0  0
 26 70  1  0  0  0  0
 27 79  1  0  0  0  0
 28 80  1  0  0  0  0
 29 31  2  0  0  0  0
 29 79  1  0  0  0  0
 30 81  1  0  0  0  0
 31 82  1  0  0  0  0
 32 64  2  0  0  0  0
 33 65  1  0  0  0  0
 33 68  1  0  0  0  0
 34 35  2  0  0  0  0
 35 59  1  0  0  0  0
 36 69  1  0  0  0  0
 36 74  2  0  0  0  0
 37 51  1  0  0  0  0
 37 71  1  0  0  0  0
 37 75  2  0  0  0  0
 38 61  1  0  0  0  0
 38 66  1  0  0  0  0
 38 76  2  0  0  0  0
 39 62  1  0  0  0  0
 39 72  1  0  0  0  0
 39 77  2  0  0  0  0
 40 67  1  0  0  0  0
 40 70  1  0  0  0  0
 40 78  2  0  0  0  0
 41 44  1  0  0  0  0
 42 51  1  0  0  0  0
 43 66  1  0  0  0  0
 44 46  1  0  0  0  0
 45 47  1  0  0  0  0
 45 48  1  0  0  0  0
 46 50  1  0  0  0  0
 47 52  1  0  0  0  0
 48 67  1  0  0  0  0
 49 52  1  0  0  0  0
 49 67  1  0  0  0  0
 50 71  1  0  0  0  0
 51 66  1  0  0  0  0
 52 65  1  0  0  0  0
 54 62  1  0  0  0  0
 55 63  1  0  0  0  0
 56 63  1  0  0  0  0
 57 63  1  0  0  0  0
 58 73  1  0  0  0  0
 59 60  1  0  0  0  0
 60 80  1  0  0  0  0
 61 63  1  0  0  0  0
 61 72  1  0  0  0  0
 62 73  1  0  0  0  0
 64 65  1  0  0  0  0
M  CHG  1  73   1
M  ISO  4  40 100  60 101  70 100  80 101
M  END
> <Batch ID>
0128

> <Smiles>
CNC(C)C(=O)NC(C(=O)N1Cc2cc([101O:1][101CH2:1]CC=Cc3ccc([100NH:0][100C:0](=O)N4CCCC(n5nc(-c6ccc(Oc7ccc(F)cc7F)cc6)c(C(N)=O)c5N)C4)c(C)c3)ccc2CC1C(=O)NC1CCCc2ccccc21)C(C)(C)C

> <Shape>
0.134

> <Color>
0.182

> <Negative vol penalty>
0.000

$$$$

  -OEChem-04052302163D

 85 93  0     1  0  0  0  0  0999 V2000
  -22.0846  -30.8819   17.7970 C   0  0  0  0  0  0  0  0  0  0  0  0
  -22.6154  -29.6713   18.2308 C   0  0  0  0  0  0  0  0  0  0  0  0
  -23.0541   -9.9877   21.5160 C   0  0  0  0  0  0  0  0  0  0  0  0
  -23.8161  -10.9095   23.6152 C   0  0  0  0  0  0  0  0  0  0  0  0
  -21.6509  -31.8250   18.7278 C   0  0  0  0  0  0  0  0  0  0  0  0
  -22.7139  -29.4036   19.5957 C   0  0  0  0  0  0  0  0  0  0  0  0
  -21.1724  -24.7260   20.7741 C   0  0  0  0  0  0  0  0  0  0  0  0
  -22.3081   -9.0324   22.2062 C   0  0  0  0  0  0  0  0  0  0  0  0
  -23.0701   -9.9542   24.3055 C   0  0  0  0  0  0  0  0  0  0  0  0
  -22.0559  -23.6796   20.5126 C   0  0  0  0  0  0  0  0  0  0  0  0
  -22.8739   -6.1059   23.7998 C   0  0  0  0  0  0  0  0  0  0  0  0
  -22.9378   -4.7867   23.3512 C   0  0  0  0  0  0  0  0  0  0  0  0
  -29.8758  -18.2079   21.4119 C   0  0  0  0  0  0  0  0  0  0  0  0
  -31.8520  -19.4552   22.0247 C   0  0  0  0  0  0  0  0  0  0  0  0
  -22.7028  -23.6530   22.8363 C   0  0  0  0  0  0  0  0  0  0  0  0
  -32.0575  -17.1897   21.2108 C   0  0  0  0  0  0  0  0  0  0  0  0
  -20.5533   -4.8034   22.9626 C   0  0  0  0  0  0  0  0  0  0  0  0
  -23.8082  -10.9263   22.2205 C   0  0  0  0  0  0  0  0  0  0  0  0
  -30.4660  -19.3788   21.8875 C   0  0  0  0  0  0  0  0  0  0  0  0
  -24.1551  -13.1920   21.1008 C   0  0  0  0  0  0  0  0  0  0  0  0
  -21.7352  -31.5648   20.1047 C   0  0  0  0  0  0  0  0  0  0  0  0
  -21.0553  -25.2518   22.0688 C   0  0  0  0  0  0  0  0  0  0  0  0
  -22.2821  -30.3447   20.5458 C   0  0  0  0  0  0  0  0  0  0  0  0
  -21.8153  -24.7043   23.1122 C   0  0  0  0  0  0  0  0  0  0  0  0
  -30.6715  -17.1133   21.0736 C   0  0  0  0  0  0  0  0  0  0  0  0
  -22.3161   -9.0156   23.6010 C   0  0  0  0  0  0  0  0  0  0  0  0
  -22.8234  -23.1449   21.5431 C   0  0  0  0  0  0  0  0  0  0  0  0
  -21.6497   -6.7738   23.8299 C   0  0  0  0  0  0  0  0  0  0  0  0
  -21.7776   -4.1355   22.9325 C   0  0  0  0  0  0  0  0  0  0  0  0
  -32.6478  -18.3606   21.6864 C   0  0  0  0  0  0  0  0  0  0  0  0
  -20.4894   -6.1226   23.4113 C   0  0  0  0  0  0  0  0  0  0  0  0
  -24.5795  -11.9130   21.5081 C   0  0  0  0  0  0  0  0  0  0  0  0
  -25.2484  -13.7312   20.4681 C   0  0  0  0  0  0  0  0  0  0  0  0
  -28.3387  -20.7032   21.4978 C   0  0  0  0  0  0  0  0  0  0  0  0
  -27.2732  -21.2585   22.0866 C   0  0  0  0  0  0  0  0  0  0  0  0
  -29.6166  -20.5471   22.2514 C   0  0  0  0  0  0  0  0  0  0  0  0
  -22.8860  -13.8351   21.2785 C   0  0  0  0  0  0  0  0  0  0  0  0
  -25.9926  -21.4035   21.3370 C   0  0  0  0  0  0  0  0  0  0  0  0
  -21.5787  -28.0946   23.3910 C   0  0  0  0  0  0  0  0  0  0  0  0
  -20.2890  -26.6799   26.0098 C   0  0  0  0  0  0  0  0  0  0  0  0
  -19.6048  -23.7979   27.7046 C   0  0  0  0  0  0  0  0  0  0  0  0
  -30.7169  -14.7472   20.2100 C   0  0  0  0  0  0  0  0  0  0  0  0
  -21.2972  -32.6343   21.0737 C   0  0  0  0  0  0  0  0  0  0  0  0
  -20.0782  -26.3628   22.3398 C   0  0  0  0  0  0  0  0  0  0  0  0
  -21.7118  -25.2196   24.5237 C   0  0  0  0  0  0  0  0  0  0  0  0
  -21.0901  -32.1198   22.4959 C   0  0  0  0  0  0  0  0  0  0  0  0
  -29.5954  -11.5903   19.0046 C   0  0  0  0  0  0  0  0  0  0  0  0
  -22.2615  -31.2403   22.9214 C   0  0  0  0  0  0  0  0  0  0  0  0
  -28.1556  -11.4980   19.5149 C   0  0  0  0  0  0  0  0  0  0  0  0
  -30.5121  -12.2784   20.0145 C   0  0  0  0  0  0  0  0  0  0  0  0
  -28.6079  -13.4991   20.9908 C   0  0  0  0  0  0  0  0  0  0  0  0
  -22.3825  -30.0074   22.0176 C   0  0  1  0  0  0  0  0  0  0  0  0
  -20.4167  -27.1637   23.5933 C   0  0  1  0  0  0  0  0  0  0  0  0
  -27.6336  -12.8715   19.9806 C   0  0  2  0  0  0  0  0  0  0  0  0
  -18.5758  -22.9627   29.8356 C   0  0  0  0  0  0  0  0  0  0  0  0
  -22.7800  -27.5408   27.5472 C   0  0  0  0  0  0  0  0  0  0  0  0
  -22.1550  -25.9060   29.3375 C   0  0  0  0  0  0  0  0  0  0  0  0
  -20.6341  -27.8097   28.8031 C   0  0  0  0  0  0  0  0  0  0  0  0
  -17.5367  -22.2673   26.2422 C   0  0  0  0  0  0  0  0  0  0  0  0
  -24.8563  -22.0458   22.1046 C   0  0  0  0  0  0  0  0  0  1  0  0
  -20.8329  -25.8869   27.1735 C   0  0  1  0  0  0  0  0  0  0  0  0
  -18.3359  -23.2988   28.3719 C   0  0  2  0  0  0  0  0  0  0  0  0
  -21.6041  -26.7772   28.1884 C   0  0  0  0  0  0  0  0  0  0  0  0
  -25.8438  -11.6551   21.1630 N   0  0  0  0  0  0  0  0  0  0  0  0
  -30.0352  -21.3870   23.1439 N   0  0  0  0  0  0  0  0  0  0  0  0
  -26.2232  -12.7794   20.5321 N   0  0  0  0  0  0  0  0  0  0  0  0
  -20.7469  -26.3109   24.7370 N   0  0  0  0  0  0  0  0  0  0  0  0
  -29.9560  -13.5753   20.4065 N   0  0  0  0  0  0  0  0  0  0  0  0
  -25.4615  -14.9219   19.8688 N   0  0  0  0  0  0  0  0  0  0  0  0
  -21.8726  -13.1389   21.9512 N   0  0  0  0  0  0  0  0  0  0  0  0
  -30.0722  -15.9238   20.5903 N   0  0  0  0  0  0  0  0  0  0  0  0
  -21.3913  -29.0167   22.3790 N   0  0  0  0  0  0  0  0  0  0  0  0
  -19.6973  -25.1730   27.7473 N   0  0  0  0  0  0  0  0  0  0  0  0
  -17.8362  -22.0746   27.6844 N   0  3  0  0  0  0  0  0  0  0  0  0
  -22.6524  -14.9865   20.8390 O   0  0  0  0  0  0  0  0  0  0  0  0
  -25.8715  -21.0262   20.1746 O   0  0  0  0  0  0  0  0  0  0  0  0
  -22.5711  -27.9855   24.1016 O   0  0  0  0  0  0  0  0  0  0  0  0
  -19.4819  -27.5885   26.2215 O   0  0  0  0  0  0  0  0  0  0  0  0
  -20.4330  -23.0432   27.1996 O   0  0  0  0  0  0  0  0  0  0  0  0
  -31.8459  -14.7123   19.7140 O   0  0  0  0  0  0  0  0  0  0  0  0
  -21.5881   -8.0837   24.2748 O   0  0  0  0  0  0  0  0  0  0  0  0
  -23.6869  -22.1240   21.2904 O   0  0  0  0  0  0  0  0  0  1  0  0
  -21.8393   -2.8692   22.5003 F   0  0  0  0  0  0  0  0  0  0  0  0
  -33.9784  -18.4328   21.8210 F   0  0  0  0  0  0  0  0  0  0  0  0
  -19.3107   -6.7595   23.4368 F   0  0  0  0  0  0  0  0  0  0  0  0
  1  2  1  0  0  0  0
  1  5  2  0  0  0  0
  2  6  2  0  0  0  0
  3  8  2  0  0  0  0
  3 18  1  0  0  0  0
  4  9  1  0  0  0  0
  4 18  2  0  0  0  0
  5 21  1  0  0  0  0
  6 23  1  0  0  0  0
  7 10  2  0  0  0  0
  7 22  1  0  0  0  0
  8 26  1  0  0  0  0
  9 26  2  0  0  0  0
 10 27  1  0  0  0  0
 11 12  2  0  0  0  0
 11 28  1  0  0  0  0
 12 29  1  0  0  0  0
 13 19  2  0  0  0  0
 13 25  1  0  0  0  0
 14 19  1  0  0  0  0
 14 30  2  0  0  0  0
 15 24  1  0  0  0  0
 15 27  2  0  0  0  0
 16 25  2  0  0  0  0
 16 30  1  0  0  0  0
 17 29  2  0  0  0  0
 17 31  1  0  0  0  0
 18 32  1  0  0  0  0
 19 36  1  0  0  0  0
 20 32  1  0  0  0  0
 20 33  2  0  0  0  0
 20 37  1  0  0  0  0
 21 23  2  0  0  0  0
 21 43  1  0  0  0  0
 22 24  2  0  0  0  0
 22 44  1  0  0  0  0
 23 52  1  0  0  0  0
 24 45  1  0  0  0  0
 25 71  1  0  0  0  0
 26 81  1  0  0  0  0
 27 82  1  0  0  0  0
 28 31  2  0  0  0  0
 28 81  1  0  0  0  0
 29 83  1  0  0  0  0
 30 84  1  0  0  0  0
 31 85  1  0  0  0  0
 32 64  2  0  0  0  0
 33 66  1  0  0  0  0
 33 69  1  0  0  0  0
 34 35  2  0  0  0  0
 34 36  1  0  0  0  0
 35 38  1  0  0  0  0
 36 65  2  0  0  0  0
 37 70  1  0  0  0  0
 37 75  2  0  0  0  0
 38 60  1  0  0  0  0
 38 76  2  0  0  0  0
 39 53  1  0  0  0  0
 39 72  1  0  0  0  0
 39 77  2  0  0  0  0
 40 61  1  0  0  0  0
 40 67  1  0  0  0  0
 40 78  2  0  0  0  0
 41 62  1  0  0  0  0
 41 73  1  0  0  0  0
 41 79  2  0  0  0  0
 42 68  1  0  0  0  0
 42 71  1  0  0  0  0
 42 80  2  0  0  0  0
 43 46  1  0  0  0  0
 44 53  1  0  0  0  0
 45 67  1  0  0  0  0
 46 48  1  0  0  0  0
 47 49  1  0  0  0  0
 47 50  1  0  0  0  0
 48 52  1  0  0  0  0
 49 54  1  0  0  0  0
 50 68  1  0  0  0  0
 51 54  1  0  0  0  0
 51 68  1  0  0  0  0
 52 72  1  0  0  0  0
 53 67  1  0  0  0  0
 54 66  1  0  0  0  0
 55 62  1  0  0  0  0
 56 63  1  0  0  0  0
 57 63  1  0  0  0  0
 58 63  1  0  0  0  0
 59 74  1  0  0  0  0
 60 82  1  0  0  0  0
 61 63  1  0  0  0  0
 61 73  1  0  0  0  0
 62 74  1  0  0  0  0
 64 66  1  0  0  0  0
M  CHG  1  74   1
M  ISO  4  42 100  60 101  71 100  82 101
M  END
> <Batch ID>
0128

> <Smiles>
CNC(C)C(=O)NC(C(=O)N1Cc2cc([101O:1][101CH2:1]C(=O)C=CC(=N)c3cc(F)cc([100NH:0][100C:0](=O)N4CCCC(n5nc(-c6ccc(Oc7ccc(F)cc7F)cc6)c(C(N)=O)c5N)C4)c3)ccc2CC1C(=O)NC1CCCc2ccccc21)C(C)(C)C

> <Shape>
0.229

> <Color>
0.169

> <Negative vol penalty>
0.000

$$$$

  -OEChem-04052302163D

 85 93  0     1  0  0  0  0  0999 V2000
  -16.7862  -28.1617   22.6943 C   0  0  0  0  0  0  0  0  0  0  0  0
  -17.4789  -28.9737   21.8019 C   0  0  0  0  0  0  0  0  0  0  0  0
  -21.8603  -14.0603   21.7362 C   0  0  0  0  0  0  0  0  0  0  0  0
  -24.1028  -14.7618   22.2985 C   0  0  0  0  0  0  0  0  0  0  0  0
  -26.3271  -24.6304   20.0091 C   0  0  0  0  0  0  0  0  0  0  0  0
  -17.2649  -27.9874   23.9922 C   0  0  0  0  0  0  0  0  0  0  0  0
  -18.6500  -29.6128   22.2073 C   0  0  0  0  0  0  0  0  0  0  0  0
  -24.8778  -28.4698   18.7723 C   0  0  0  0  0  0  0  0  0  0  0  0
  -25.1450  -23.9694   20.3427 C   0  0  0  0  0  0  0  0  0  0  0  0
  -22.3692  -12.8978   21.1571 C   0  0  0  0  0  0  0  0  0  0  0  0
  -24.6117  -13.5993   21.7195 C   0  0  0  0  0  0  0  0  0  0  0  0
  -26.0633  -28.4659   18.0370 C   0  0  0  0  0  0  0  0  0  0  0  0
  -23.0508   -9.5743   19.8516 C   0  0  0  0  0  0  0  0  0  0  0  0
  -22.4118   -8.3699   20.1458 C   0  0  0  0  0  0  0  0  0  0  0  0
  -27.5416  -23.2494   21.5760 C   0  0  0  0  0  0  0  0  0  0  0  0
  -27.1000  -29.9054   19.6804 C   0  0  0  0  0  0  0  0  0  0  0  0
  -22.8876   -8.6909   22.4927 C   0  0  0  0  0  0  0  0  0  0  0  0
  -22.7271  -14.9923   22.3068 C   0  0  0  0  0  0  0  0  0  0  0  0
  -27.5254  -24.2704   20.6257 C   0  0  0  0  0  0  0  0  0  0  0  0
  -21.8097  -16.3751   24.2443 C   0  0  0  0  0  0  0  0  0  0  0  0
  -18.4477  -28.6170   24.4107 C   0  0  0  0  0  0  0  0  0  0  0  0
  -24.8037  -29.1799   19.9738 C   0  0  0  0  0  0  0  0  0  0  0  0
  -19.1442  -29.4478   23.5124 C   0  0  0  0  0  0  0  0  0  0  0  0
  -25.9191  -29.9028   20.4276 C   0  0  0  0  0  0  0  0  0  0  0  0
  -25.1612  -22.9484   21.2930 C   0  0  0  0  0  0  0  0  0  0  0  0
  -26.3595  -22.5884   21.9097 C   0  0  0  0  0  0  0  0  0  0  0  0
  -23.7448  -12.6673   21.1488 C   0  0  0  0  0  0  0  0  0  0  0  0
  -27.1716  -29.1821   18.4898 C   0  0  0  0  0  0  0  0  0  0  0  0
  -23.6083  -10.3370   20.8778 C   0  0  0  0  0  0  0  0  0  0  0  0
  -22.3301   -7.9282   21.4664 C   0  0  0  0  0  0  0  0  0  0  0  0
  -23.5266   -9.8953   22.1984 C   0  0  0  0  0  0  0  0  0  0  0  0
  -22.2022  -16.1936   22.9046 C   0  0  0  0  0  0  0  0  0  0  0  0
  -21.3871  -17.6805   24.3045 C   0  0  0  0  0  0  0  0  0  0  0  0
  -28.7738  -24.9684   20.2721 C   0  0  0  0  0  0  0  0  0  0  0  0
  -28.9588  -25.6675   19.1436 C   0  0  0  0  0  0  0  0  0  0  0  0
  -21.8257  -15.4466   25.3367 C   0  0  0  0  0  0  0  0  0  0  0  0
  -30.2677  -26.3324   18.8724 C   0  0  0  0  0  0  0  0  0  0  0  0
  -22.7204  -30.1737   22.9315 C   0  0  0  0  0  0  0  0  0  0  0  0
  -25.5391  -29.5799   23.9862 C   0  0  0  0  0  0  0  0  0  0  0  0
  -28.1965  -28.0421   24.6763 C   0  0  0  0  0  0  0  0  0  0  0  0
  -22.6836  -22.5436   21.0834 C   0  0  0  0  0  0  0  0  0  0  0  0
  -18.9005  -28.4362   25.8379 C   0  0  0  0  0  0  0  0  0  0  0  0
  -23.5280  -29.2623   20.7673 C   0  0  0  0  0  0  0  0  0  0  0  0
  -25.7825  -30.6805   21.7081 C   0  0  0  0  0  0  0  0  0  0  0  0
  -20.3508  -28.8498   26.0739 C   0  0  0  0  0  0  0  0  0  0  0  0
  -19.4588  -21.1214   21.5886 C   0  0  0  0  0  0  0  0  0  0  0  0
  -20.6326  -30.2017   25.4260 C   0  0  0  0  0  0  0  0  0  0  0  0
  -19.7606  -19.7150   22.1111 C   0  0  0  0  0  0  0  0  0  0  0  0
  -20.4686  -21.5621   20.5304 C   0  0  0  0  0  0  0  0  0  0  0  0
  -22.1785  -20.0493   21.4561 C   0  0  0  0  0  0  0  0  0  0  0  0
  -20.4317  -30.1382   23.9071 C   0  0  1  0  0  0  0  0  0  0  0  0
  -23.7649  -29.3102   22.2874 C   0  0  1  0  0  0  0  0  0  0  0  0
  -21.2261  -19.5871   22.5710 C   0  0  2  0  0  0  0  0  0  0  0  0
  -30.2024  -27.5312   26.0951 C   0  0  0  0  0  0  0  0  0  0  0  0
  -26.1140  -32.5742   24.0735 C   0  0  0  0  0  0  0  0  0  0  0  0
  -28.2299  -32.0600   25.3091 C   0  0  0  0  0  0  0  0  0  0  0  0
  -26.0253  -31.4629   26.3121 C   0  0  0  0  0  0  0  0  0  0  0  0
  -27.3898  -25.2134   25.0027 C   0  0  0  0  0  0  0  0  0  0  0  0
  -30.3580  -27.0957   17.5612 C   0  0  0  0  0  0  0  0  0  0  0  0
  -30.6534  -28.5817   17.7458 C   0  0  0  0  0  0  0  0  0  0  0  0
  -29.5466  -29.3120   18.4970 C   0  0  0  0  0  0  0  0  0  1  0  0
  -26.8958  -30.1290   24.3487 C   0  0  1  0  0  0  0  0  0  0  0  0
  -28.7667  -27.1525   25.7662 C   0  0  2  0  0  0  0  0  0  0  0  0
  -26.8112  -31.5450   24.9853 C   0  0  0  0  0  0  0  0  0  0  0  0
  -22.0430  -17.2957   22.1669 N   0  0  0  0  0  0  0  0  0  0  0  0
  -21.5456  -18.1821   23.0461 N   0  0  0  0  0  0  0  0  0  0  0  0
  -25.0564  -29.8805   22.7067 N   0  0  0  0  0  0  0  0  0  0  0  0
  -21.8347  -21.4174   21.0381 N   0  0  0  0  0  0  0  0  0  0  0  0
  -26.3986  -21.5562   22.8739 N   0  0  0  0  0  0  0  0  0  0  0  0
  -20.8990  -18.4369   25.3105 N   0  0  0  0  0  0  0  0  0  0  0  0
  -22.2909  -14.1457   25.1011 N   0  0  0  0  0  0  0  0  0  0  0  0
  -23.9477  -22.2916   21.6154 N   0  0  0  0  0  0  0  0  0  0  0  0
  -21.5646  -29.4980   23.2738 N   0  0  0  0  0  0  0  0  0  0  0  0
  -27.5271  -29.1274   25.2011 N   0  0  0  0  0  0  0  0  0  0  0  0
  -28.7439  -25.7260   25.3352 N   0  3  0  0  0  0  0  0  0  0  0  0
  -21.4235  -15.7564   26.4838 O   0  0  0  0  0  0  0  0  0  0  0  0
  -31.2144  -26.2362   19.6490 O   0  0  0  0  0  0  0  0  0  0  0  0
  -22.9458  -31.3653   23.1070 O   0  0  0  0  0  0  0  0  0  0  0  0
  -24.9196  -28.9073   24.8150 O   0  0  0  0  0  0  0  0  0  0  0  0
  -28.3346  -27.8007   23.4792 O   0  0  0  0  0  0  0  0  0  0  0  0
  -22.3069  -23.6558   20.7053 O   0  0  0  0  0  0  0  0  0  0  0  0
  -24.2417  -11.5329   20.5841 O   0  0  0  0  0  0  0  0  0  0  0  0
  -28.3272  -29.1703   17.7694 O   0  0  0  0  0  0  0  0  0  1  0  0
  -21.7151   -6.7723   21.7490 F   0  0  0  0  0  0  0  0  0  0  0  0
  -24.0592  -10.6243   23.1887 F   0  0  0  0  0  0  0  0  0  0  0  0
  1  2  1  0  0  0  0
  1  6  2  0  0  0  0
  2  7  2  0  0  0  0
  3 10  2  0  0  0  0
  3 18  1  0  0  0  0
  4 11  1  0  0  0  0
  4 18  2  0  0  0  0
  5  9  2  0  0  0  0
  5 19  1  0  0  0  0
  6 21  1  0  0  0  0
  7 23  1  0  0  0  0
  8 12  2  0  0  0  0
  8 22  1  0  0  0  0
  9 25  1  0  0  0  0
 10 27  1  0  0  0  0
 11 27  2  0  0  0  0
 12 28  1  0  0  0  0
 13 14  2  0  0  0  0
 13 29  1  0  0  0  0
 14 30  1  0  0  0  0
 15 19  2  0  0  0  0
 15 26  1  0  0  0  0
 16 24  1  0  0  0  0
 16 28  2  0  0  0  0
 17 30  2  0  0  0  0
 17 31  1  0  0  0  0
 18 32  1  0  0  0  0
 19 34  1  0  0  0  0
 20 32  1  0  0  0  0
 20 33  2  0  0  0  0
 20 36  1  0  0  0  0
 21 23  2  0  0  0  0
 21 42  1  0  0  0  0
 22 24  2  0  0  0  0
 22 43  1  0  0  0  0
 23 51  1  0  0  0  0
 24 44  1  0  0  0  0
 25 26  2  0  0  0  0
 25 72  1  0  0  0  0
 26 69  1  0  0  0  0
 27 82  1  0  0  0  0
 28 83  1  0  0  0  0
 29 31  2  0  0  0  0
 29 82  1  0  0  0  0
 30 84  1  0  0  0  0
 31 85  1  0  0  0  0
 32 65  2  0  0  0  0
 33 66  1  0  0  0  0
 33 70  1  0  0  0  0
 34 35  2  0  0  0  0
 35 37  1  0  0  0  0
 36 71  1  0  0  0  0
 36 76  2  0  0  0  0
 37 59  1  0  0  0  0
 37 77  2  0  0  0  0
 38 52  1  0  0  0  0
 38 73  1  0  0  0  0
 38 78  2  0  0  0  0
 39 62  1  0  0  0  0
 39 67  1  0  0  0  0
 39 79  2  0  0  0  0
 40 63  1  0  0  0  0
 40 74  1  0  0  0  0
 40 80  2  0  0  0  0
 41 68  1  0  0  0  0
 41 72  1  0  0  0  0
 41 81  2  0  0  0  0
 42 45  1  0  0  0  0
 43 52  1  0  0  0  0
 44 67  1  0  0  0  0
 45 47  1  0  0  0  0
 46 48  1  0  0  0  0
 46 49  1  0  0  0  0
 47 51  1  0  0  0  0
 48 53  1  0  0  0  0
 49 68  1  0  0  0  0
 50 53  1  0  0  0  0
 50 68  1  0  0  0  0
 51 73  1  0  0  0  0
 52 67  1  0  0  0  0
 53 66  1  0  0  0  0
 54 63  1  0  0  0  0
 55 64  1  0  0  0  0
 56 64  1  0  0  0  0
 57 64  1  0  0  0  0
 58 75  1  0  0  0  0
 59 60  1  0  0  0  0
 60 61  1  0  0  0  0
 61 83  1  0  0  0  0
 62 64  1  0  0  0  0
 62 74  1  0  0  0  0
 63 75  1  0  0  0  0
 65 66  1  0  0  0  0
M  CHG  1  75   1
M  ISO  4  41 100  61 101  72 100  83 101
M  END
> <Batch ID>
0128

> <Smiles>
CNC(C)C(=O)NC(C(=O)N1Cc2cc([101O:1][101CH2:1]CCC(=O)C=Cc3ccc([100NH:0][100C:0](=O)N4CCCC(n5nc(-c6ccc(Oc7ccc(F)cc7F)cc6)c(C(N)=O)c5N)C4)c(N)c3)ccc2CC1C(=O)NC1CCCc2ccccc21)C(C)(C)C

> <Shape>
0.222

> <Color>
0.083

> <Negative vol penalty>
0.000

$$$$

  -OEChem-04052302163D

 82 90  0     1  0  0  0  0  0999 V2000
  -29.6167   -5.9672   17.6788 C   0  0  0  0  0  0  0  0  0  0  0  0
  -28.3160   -6.4468   17.5629 C   0  0  0  0  0  0  0  0  0  0  0  0
  -26.7808  -28.3126   18.8681 C   0  0  0  0  0  0  0  0  0  0  0  0
  -25.8984  -27.0516   20.7304 C   0  0  0  0  0  0  0  0  0  0  0  0
  -21.5537  -19.0049   20.3399 C   0  0  0  0  0  0  0  0  0  0  0  0
  -20.5544  -18.5425   18.1894 C   0  0  0  0  0  0  0  0  0  0  0  0
  -30.4849   -6.5289   18.6141 C   0  0  0  0  0  0  0  0  0  0  0  0
  -27.8822   -7.4878   18.3831 C   0  0  0  0  0  0  0  0  0  0  0  0
  -23.5041  -13.1577   18.3630 C   0  0  0  0  0  0  0  0  0  0  0  0
  -22.5917  -19.6914   19.7100 C   0  0  0  0  0  0  0  0  0  0  0  0
  -21.5924  -19.2291   17.5595 C   0  0  0  0  0  0  0  0  0  0  0  0
  -26.3105  -29.4926   19.4442 C   0  0  0  0  0  0  0  0  0  0  0  0
  -25.4282  -28.2317   21.3066 C   0  0  0  0  0  0  0  0  0  0  0  0
  -22.4664  -13.7198   19.1053 C   0  0  0  0  0  0  0  0  0  0  0  0
  -22.8066  -30.3284   20.9041 C   0  0  0  0  0  0  0  0  0  0  0  0
  -21.5107  -30.3261   21.4200 C   0  0  0  0  0  0  0  0  0  0  0  0
  -24.0782  -14.6662   20.6303 C   0  0  0  0  0  0  0  0  0  0  0  0
  -22.3806  -30.8690   23.6076 C   0  0  0  0  0  0  0  0  0  0  0  0
  -26.5746  -27.0920   19.5111 C   0  0  0  0  0  0  0  0  0  0  0  0
  -20.5350  -18.4303   19.5796 C   0  0  0  0  0  0  0  0  0  0  0  0
  -28.3197  -25.2753   19.1090 C   0  0  0  0  0  0  0  0  0  0  0  0
  -30.0645   -7.5838   19.4394 C   0  0  0  0  0  0  0  0  0  0  0  0
  -24.8383  -13.3368   18.7556 C   0  0  0  0  0  0  0  0  0  0  0  0
  -28.7451   -8.0633   19.3312 C   0  0  0  0  0  0  0  0  0  0  0  0
  -25.1310  -14.1075   19.8899 C   0  0  0  0  0  0  0  0  0  0  0  0
  -22.6110  -19.8036   18.3198 C   0  0  0  0  0  0  0  0  0  0  0  0
  -25.6343  -29.4522   20.6635 C   0  0  0  0  0  0  0  0  0  0  0  0
  -22.7532  -14.4718   20.2407 C   0  0  0  0  0  0  0  0  0  0  0  0
  -23.8896  -30.6009   21.7400 C   0  0  0  0  0  0  0  0  0  0  0  0
  -21.2976  -30.5965   22.7717 C   0  0  0  0  0  0  0  0  0  0  0  0
  -23.6765  -30.8712   23.0917 C   0  0  0  0  0  0  0  0  0  0  0  0
  -27.0596  -25.8727   18.9162 C   0  0  0  0  0  0  0  0  0  0  0  0
  -28.2868  -24.1451   18.3292 C   0  0  0  0  0  0  0  0  0  0  0  0
  -19.4231  -17.6946   20.2544 C   0  0  0  0  0  0  0  0  0  0  0  0
  -29.4214  -25.7036   19.9204 C   0  0  0  0  0  0  0  0  0  0  0  0
  -27.1898  -11.3988   19.6603 C   0  0  0  0  0  0  0  0  0  0  0  0
  -28.9433  -14.1266   19.5821 C   0  0  0  0  0  0  0  0  0  0  0  0
  -29.0076  -17.5351   19.7416 C   0  0  0  0  0  0  0  0  0  0  0  0
  -23.8364  -20.7055   16.3120 C   0  0  0  0  0  0  0  0  0  0  0  0
  -31.0242   -8.1273   20.4682 C   0  0  0  0  0  0  0  0  0  0  0  0
  -25.9475  -12.7461   17.9290 C   0  0  0  0  0  0  0  0  0  0  0  0
  -26.5476  -14.3465   20.3422 C   0  0  0  0  0  0  0  0  0  0  0  0
  -30.6027   -9.4782   21.0407 C   0  0  0  0  0  0  0  0  0  0  0  0
  -26.2766  -22.3991   14.3487 C   0  0  0  0  0  0  0  0  0  0  0  0
  -29.1244   -9.4609   21.4165 C   0  0  0  0  0  0  0  0  0  0  0  0
  -26.8732  -23.4236   15.3164 C   0  0  0  0  0  0  0  0  0  0  0  0
  -24.7773  -22.2120   14.5741 C   0  0  0  0  0  0  0  0  0  0  0  0
  -24.9883  -22.9225   16.9236 C   0  0  0  0  0  0  0  0  0  0  0  0
  -28.2452   -9.2077   20.1858 C   0  0  1  0  0  0  0  0  0  0  0  0
  -27.2439  -12.5631   18.7121 C   0  0  1  0  0  0  0  0  0  0  0  0
  -26.5088  -23.0970   16.7780 C   0  0  2  0  0  0  0  0  0  0  0  0
  -30.5920  -19.4802   19.6850 C   0  0  0  0  0  0  0  0  0  0  0  0
  -29.7951  -13.5131   22.4470 C   0  0  0  0  0  0  0  0  0  0  0  0
  -30.5635  -15.8869   22.6531 C   0  0  0  0  0  0  0  0  0  0  0  0
  -31.6250  -14.3752   20.9766 C   0  0  0  0  0  0  0  0  0  0  0  0
  -27.7295  -18.6548   17.3185 C   0  0  0  0  0  0  0  0  0  0  0  0
  -19.6576  -16.9730   21.5750 C   0  0  0  0  0  0  0  0  0  0  0  0
  -19.4381  -15.4661   21.4649 C   0  0  0  0  0  0  0  0  0  0  0  0
  -20.4113  -14.7868   20.5092 C   0  0  0  0  0  0  0  0  0  1  0  0
  -29.2739  -15.2139   20.5758 C   0  0  1  0  0  0  0  0  0  0  0  0
  -29.6882  -18.5718   18.8662 C   0  0  2  0  0  0  0  0  0  0  0  0
  -30.2875  -14.7414   21.6560 C   0  0  0  0  0  0  0  0  0  0  0  0
  -26.2829  -25.1794   18.0794 N   0  0  0  0  0  0  0  0  0  0  0  0
  -18.2427  -17.6670   19.7194 N   0  0  0  0  0  0  0  0  0  0  0  0
  -27.0570  -24.1348   17.7395 N   0  0  0  0  0  0  0  0  0  0  0  0
  -27.5970  -13.7429   19.5044 N   0  0  0  0  0  0  0  0  0  0  0  0
  -24.5081  -21.9010   15.9797 N   0  0  0  0  0  0  0  0  0  0  0  0
  -29.1901  -23.1690   18.0973 N   0  0  0  0  0  0  0  0  0  0  0  0
  -29.2873  -26.8880   20.6578 N   0  0  0  0  0  0  0  0  0  0  0  0
  -23.6658  -20.5014   17.6809 N   0  0  0  0  0  0  0  0  0  0  0  0
  -28.1223  -10.4139   19.3957 N   0  0  0  0  0  0  0  0  0  0  0  0
  -29.7256  -16.3590   19.7928 N   0  0  0  0  0  0  0  0  0  0  0  0
  -28.6715  -19.4167   18.1781 N   0  3  0  0  0  0  0  0  0  0  0  0
  -30.4990  -25.0640   19.9768 O   0  0  0  0  0  0  0  0  0  0  0  0
  -26.3642  -11.3948   20.5658 O   0  0  0  0  0  0  0  0  0  0  0  0
  -29.8452  -13.6409   18.8948 O   0  0  0  0  0  0  0  0  0  0  0  0
  -27.9471  -17.7485   20.3250 O   0  0  0  0  0  0  0  0  0  0  0  0
  -23.4658  -19.9075   15.4473 O   0  0  0  0  0  0  0  0  0  0  0  0
  -25.1755  -30.6035   21.2261 O   0  0  0  0  0  0  0  0  0  0  0  0
  -21.7422  -15.0211   20.9674 O   0  0  0  0  0  0  0  0  0  1  0  0
  -20.0530  -30.5958   23.2666 F   0  0  0  0  0  0  0  0  0  0  0  0
  -24.7128  -31.1349   23.8994 F   0  0  0  0  0  0  0  0  0  0  0  0
  1  2  1  0  0  0  0
  1  7  2  0  0  0  0
  2  8  2  0  0  0  0
  3 12  2  0  0  0  0
  3 19  1  0  0  0  0
  4 13  1  0  0  0  0
  4 19  2  0  0  0  0
  5 10  2  0  0  0  0
  5 20  1  0  0  0  0
  6 11  1  0  0  0  0
  6 20  2  0  0  0  0
  7 22  1  0  0  0  0
  8 24  1  0  0  0  0
  9 14  2  0  0  0  0
  9 23  1  0  0  0  0
 10 26  1  0  0  0  0
 11 26  2  0  0  0  0
 12 27  1  0  0  0  0
 13 27  2  0  0  0  0
 14 28  1  0  0  0  0
 15 16  2  0  0  0  0
 15 29  1  0  0  0  0
 16 30  1  0  0  0  0
 17 25  1  0  0  0  0
 17 28  2  0  0  0  0
 18 30  2  0  0  0  0
 18 31  1  0  0  0  0
 19 32  1  0  0  0  0
 20 34  1  0  0  0  0
 21 32  1  0  0  0  0
 21 33  2  0  0  0  0
 21 35  1  0  0  0  0
 22 24  2  0  0  0  0
 22 40  1  0  0  0  0
 23 25  2  0  0  0  0
 23 41  1  0  0  0  0
 24 49  1  0  0  0  0
 25 42  1  0  0  0  0
 26 70  1  0  0  0  0
 27 79  1  0  0  0  0
 28 80  1  0  0  0  0
 29 31  2  0  0  0  0
 29 79  1  0  0  0  0
 30 81  1  0  0  0  0
 31 82  1  0  0  0  0
 32 63  2  0  0  0  0
 33 65  1  0  0  0  0
 33 68  1  0  0  0  0
 34 57  1  0  0  0  0
 34 64  2  0  0  0  0
 35 69  1  0  0  0  0
 35 74  2  0  0  0  0
 36 50  1  0  0  0  0
 36 71  1  0  0  0  0
 36 75  2  0  0  0  0
 37 60  1  0  0  0  0
 37 66  1  0  0  0  0
 37 76  2  0  0  0  0
 38 61  1  0  0  0  0
 38 72  1  0  0  0  0
 38 77  2  0  0  0  0
 39 67  1  0  0  0  0
 39 70  1  0  0  0  0
 39 78  2  0  0  0  0
 40 43  1  0  0  0  0
 41 50  1  0  0  0  0
 42 66  1  0  0  0  0
 43 45  1  0  0  0  0
 44 46  1  0  0  0  0
 44 47  1  0  0  0  0
 45 49  1  0  0  0  0
 46 51  1  0  0  0  0
 47 67  1  0  0  0  0
 48 51  1  0  0  0  0
 48 67  1  0  0  0  0
 49 71  1  0  0  0  0
 50 66  1  0  0  0  0
 51 65  1  0  0  0  0
 52 61  1  0  0  0  0
 53 62  1  0  0  0  0
 54 62  1  0  0  0  0
 55 62  1  0  0  0  0
 56 73  1  0  0  0  0
 57 58  1  0  0  0  0
 58 59  1  0  0  0  0
 59 80  1  0  0  0  0
 60 62  1  0  0  0  0
 60 72  1  0  0  0  0
 61 73  1  0  0  0  0
 63 65  1  0  0  0  0
M  CHG  1  73   1
M  ISO  4  39 100  59 101  70 100  80 101
M  END
> <Batch ID>
0128

> <Smiles>
CNC(C)C(=O)NC(C(=O)N1Cc2cc([101O:1][101CH2:1]CCC(=N)c3ccc([100NH:0][100C:0](=O)N4CCCC(n5nc(-c6ccc(Oc7ccc(F)cc7F)cc6)c(C(N)=O)c5N)C4)cc3)ccc2CC1C(=O)NC1CCCc2ccccc21)C(C)(C)C

> <Shape>
0.206

> <Color>
0.066

> <Negative vol penalty>
0.000

$$$$

  -OEChem-04052302163D

 82 90  0     1  0  0  0  0  0999 V2000
  -28.7065  -23.5395   15.9253 C   0  0  0  0  0  0  0  0  0  0  0  0
  -27.4217  -23.7674   16.4077 C   0  0  0  0  0  0  0  0  0  0  0  0
  -26.4442  -12.8375   19.7521 C   0  0  0  0  0  0  0  0  0  0  0  0
  -24.3573  -13.3755   20.8443 C   0  0  0  0  0  0  0  0  0  0  0  0
  -29.8070  -23.7267   16.7606 C   0  0  0  0  0  0  0  0  0  0  0  0
  -27.2366  -24.1817   17.7262 C   0  0  0  0  0  0  0  0  0  0  0  0
  -22.9235  -27.9944   19.8159 C   0  0  0  0  0  0  0  0  0  0  0  0
  -23.3186  -23.7823   23.2292 C   0  0  0  0  0  0  0  0  0  0  0  0
  -21.7891  -21.9623   23.6598 C   0  0  0  0  0  0  0  0  0  0  0  0
  -24.3587  -22.8683   23.0607 C   0  0  0  0  0  0  0  0  0  0  0  0
  -22.8293  -21.0483   23.4913 C   0  0  0  0  0  0  0  0  0  0  0  0
  -26.3579  -11.5304   20.2310 C   0  0  0  0  0  0  0  0  0  0  0  0
  -24.2710  -12.0683   21.3232 C   0  0  0  0  0  0  0  0  0  0  0  0
  -21.6970  -27.7714   20.4403 C   0  0  0  0  0  0  0  0  0  0  0  0
  -23.3808   -9.0341   20.1309 C   0  0  0  0  0  0  0  0  0  0  0  0
  -22.1491   -8.3877   20.0276 C   0  0  0  0  0  0  0  0  0  0  0  0
  -22.7455  -28.0688   22.5924 C   0  0  0  0  0  0  0  0  0  0  0  0
  -22.0840   -8.1283   22.4288 C   0  0  0  0  0  0  0  0  0  0  0  0
  -25.4439  -13.7601   20.0587 C   0  0  0  0  0  0  0  0  0  0  0  0
  -25.0242  -15.6065   18.3492 C   0  0  0  0  0  0  0  0  0  0  0  0
  -29.6358  -24.1529   18.0872 C   0  0  0  0  0  0  0  0  0  0  0  0
  -24.0743  -28.2459   20.5768 C   0  0  0  0  0  0  0  0  0  0  0  0
  -28.3357  -24.3736   18.5805 C   0  0  0  0  0  0  0  0  0  0  0  0
  -23.9848  -28.2972   21.9751 C   0  0  0  0  0  0  0  0  0  0  0  0
  -22.0338  -23.3293   23.5288 C   0  0  0  0  0  0  0  0  0  0  0  0
  -24.1141  -21.5014   23.1917 C   0  0  0  0  0  0  0  0  0  0  0  0
  -25.2713  -11.1457   21.0166 C   0  0  0  0  0  0  0  0  0  0  0  0
  -21.6084  -27.8058   21.8288 C   0  0  0  0  0  0  0  0  0  0  0  0
  -23.9642   -9.2276   21.3830 C   0  0  0  0  0  0  0  0  0  0  0  0
  -21.5007   -7.9348   21.1766 C   0  0  0  0  0  0  0  0  0  0  0  0
  -23.3158   -8.7747   22.5320 C   0  0  0  0  0  0  0  0  0  0  0  0
  -25.5327  -15.1108   19.5647 C   0  0  0  0  0  0  0  0  0  0  0  0
  -25.3669  -16.9366   18.3507 C   0  0  0  0  0  0  0  0  0  0  0  0
  -20.3249  -24.5527   22.6301 C   0  0  0  0  0  0  0  0  0  0  0  0
  -24.3062  -14.9257   17.3117 C   0  0  0  0  0  0  0  0  0  0  0  0
  -26.8692  -26.7832   20.9671 C   0  0  0  0  0  0  0  0  0  0  0  0
  -27.5634  -29.4217   22.7218 C   0  0  0  0  0  0  0  0  0  0  0  0
  -26.4235  -32.0519   24.5737 C   0  0  0  0  0  0  0  0  0  0  0  0
  -26.5022  -20.8548   22.7170 C   0  0  0  0  0  0  0  0  0  0  0  0
  -30.8528  -24.2961   18.9664 C   0  0  0  0  0  0  0  0  0  0  0  0
  -25.3844  -28.5109   19.8871 C   0  0  0  0  0  0  0  0  0  0  0  0
  -25.1866  -28.5832   22.8367 C   0  0  0  0  0  0  0  0  0  0  0  0
  -30.5936  -25.0977   20.2394 C   0  0  0  0  0  0  0  0  0  0  0  0
  -28.6800  -19.9482   20.0501 C   0  0  0  0  0  0  0  0  0  0  0  0
  -29.3070  -24.6300   20.9121 C   0  0  0  0  0  0  0  0  0  0  0  0
  -28.0703  -18.6532   19.5084 C   0  0  0  0  0  0  0  0  0  0  0  0
  -28.5515  -20.0434   21.5694 C   0  0  0  0  0  0  0  0  0  0  0  0
  -26.5811  -18.5648   21.5484 C   0  0  0  0  0  0  0  0  0  0  0  0
  -28.0956  -24.8476   19.9975 C   0  0  1  0  0  0  0  0  0  0  0  0
  -26.5934  -28.2483   20.7797 C   0  0  1  0  0  0  0  0  0  0  0  0
  -26.6286  -18.4537   20.0157 C   0  0  2  0  0  0  0  0  0  0  0  0
  -27.2305  -34.0160   25.9111 C   0  0  0  0  0  0  0  0  0  0  0  0
  -18.2246  -27.5173   21.4642 C   0  0  0  0  0  0  0  0  0  0  0  0
  -28.3336  -27.5484   25.0037 C   0  0  0  0  0  0  0  0  0  0  0  0
  -28.2076  -29.5054   26.5601 C   0  0  0  0  0  0  0  0  0  0  0  0
  -29.8647  -29.5016   24.6956 C   0  0  0  0  0  0  0  0  0  0  0  0
  -25.0422  -33.9757   22.7989 C   0  0  0  0  0  0  0  0  0  0  0  0
  -19.1893  -25.5403   22.6851 C   0  0  0  0  0  0  0  0  0  0  0  0
  -27.4108  -29.8117   24.1722 C   0  0  1  0  0  0  0  0  0  0  0  0
  -26.7711  -33.5294   24.5455 C   0  0  2  0  0  0  0  0  0  0  0  0
  -19.4891  -26.7281   21.7743 C   0  0  2  0  0  0  0  0  0  1  0  0
  -28.4317  -29.0844   25.0920 C   0  0  0  0  0  0  0  0  0  0  0  0
  -26.1516  -16.0494   20.2859 N   0  0  0  0  0  0  0  0  0  0  0  0
  -20.9861  -24.2498   23.6990 N   0  0  0  0  0  0  0  0  0  0  0  0
  -26.0342  -17.1483   19.5212 N   0  0  0  0  0  0  0  0  0  0  0  0
  -26.4464  -28.8295   22.1157 N   0  0  0  0  0  0  0  0  0  0  0  0
  -27.1581  -19.8489   21.9762 N   0  0  0  0  0  0  0  0  0  0  0  0
  -25.1595  -17.9340   17.4649 N   0  0  0  0  0  0  0  0  0  0  0  0
  -24.0380  -13.5593   17.4707 N   0  0  0  0  0  0  0  0  0  0  0  0
  -25.1702  -20.5727   23.0187 N   0  0  0  0  0  0  0  0  0  0  0  0
  -27.6997  -26.2396   20.0057 N   0  0  0  0  0  0  0  0  0  0  0  0
  -27.4991  -31.2673   24.2149 N   0  0  0  0  0  0  0  0  0  0  0  0
  -25.5849  -34.3328   24.1349 N   0  3  0  0  0  0  0  0  0  0  0  0
  -23.9283  -15.5080   16.2668 O   0  0  0  0  0  0  0  0  0  0  0  0
  -26.3671  -26.1903   21.9147 O   0  0  0  0  0  0  0  0  0  0  0  0
  -28.6319  -29.6413   22.1458 O   0  0  0  0  0  0  0  0  0  0  0  0
  -25.3104  -31.6354   24.8865 O   0  0  0  0  0  0  0  0  0  0  0  0
  -27.0714  -21.9020   23.0351 O   0  0  0  0  0  0  0  0  0  0  0  0
  -25.1867   -9.8702   21.4839 O   0  0  0  0  0  0  0  0  0  0  0  0
  -20.4127  -27.5878   22.4408 O   0  0  0  0  0  0  0  0  0  1  0  0
  -20.3172   -7.3155   21.0774 F   0  0  0  0  0  0  0  0  0  0  0  0
  -23.8707   -8.9587   23.7378 F   0  0  0  0  0  0  0  0  0  0  0  0
  1  2  1  0  0  0  0
  1  5  2  0  0  0  0
  2  6  2  0  0  0  0
  3 12  2  0  0  0  0
  3 19  1  0  0  0  0
  4 13  1  0  0  0  0
  4 19  2  0  0  0  0
  5 21  1  0  0  0  0
  6 23  1  0  0  0  0
  7 14  2  0  0  0  0
  7 22  1  0  0  0  0
  8 10  2  0  0  0  0
  8 25  1  0  0  0  0
  9 11  1  0  0  0  0
  9 25  2  0  0  0  0
 10 26  1  0  0  0  0
 11 26  2  0  0  0  0
 12 27  1  0  0  0  0
 13 27  2  0  0  0  0
 14 28  1  0  0  0  0
 15 16  2  0  0  0  0
 15 29  1  0  0  0  0
 16 30  1  0  0  0  0
 17 24  1  0  0  0  0
 17 28  2  0  0  0  0
 18 30  2  0  0  0  0
 18 31  1  0  0  0  0
 19 32  1  0  0  0  0
 20 32  1  0  0  0  0
 20 33  2  0  0  0  0
 20 35  1  0  0  0  0
 21 23  2  0  0  0  0
 21 40  1  0  0  0  0
 22 24  2  0  0  0  0
 22 41  1  0  0  0  0
 23 49  1  0  0  0  0
 24 42  1  0  0  0  0
 25 64  1  0  0  0  0
 26 70  1  0  0  0  0
 27 79  1  0  0  0  0
 28 80  1  0  0  0  0
 29 31  2  0  0  0  0
 29 79  1  0  0  0  0
 30 81  1  0  0  0  0
 31 82  1  0  0  0  0
 32 63  2  0  0  0  0
 33 65  1  0  0  0  0
 33 68  1  0  0  0  0
 34 58  1  0  0  0  0
 34 64  2  0  0  0  0
 35 69  1  0  0  0  0
 35 74  2  0  0  0  0
 36 50  1  0  0  0  0
 36 71  1  0  0  0  0
 36 75  2  0  0  0  0
 37 59  1  0  0  0  0
 37 66  1  0  0  0  0
 37 76  2  0  0  0  0
 38 60  1  0  0  0  0
 38 72  1  0  0  0  0
 38 77  2  0  0  0  0
 39 67  1  0  0  0  0
 39 70  1  0  0  0  0
 39 78  2  0  0  0  0
 40 43  1  0  0  0  0
 41 50  1  0  0  0  0
 42 66  1  0  0  0  0
 43 45  1  0  0  0  0
 44 46  1  0  0  0  0
 44 47  1  0  0  0  0
 45 49  1  0  0  0  0
 46 51  1  0  0  0  0
 47 67  1  0  0  0  0
 48 51  1  0  0  0  0
 48 67  1  0  0  0  0
 49 71  1  0  0  0  0
 50 66  1  0  0  0  0
 51 65  1  0  0  0  0
 52 60  1  0  0  0  0
 53 61  1  0  0  0  0
 54 62  1  0  0  0  0
 55 62  1  0  0  0  0
 56 62  1  0  0  0  0
 57 73  1  0  0  0  0
 58 61  1  0  0  0  0
 59 62  1  0  0  0  0
 59 72  1  0  0  0  0
 60 73  1  0  0  0  0
 61 80  1  0  0  0  0
 63 65  1  0  0  0  0
M  CHG  1  73   1
M  ISO  4  39 100  61 101  70 100  80 101
M  END
> <Batch ID>
0128

> <Smiles>
CNC(C)C(=O)NC(C(=O)N1Cc2cc([101O:1][101CH:1](C)C=CNc3ccc([100NH:0][100C:0](=O)N4CCCC(n5nc(-c6ccc(Oc7ccc(F)cc7F)cc6)c(C(N)=O)c5N)C4)cc3)ccc2CC1C(=O)NC1CCCc2ccccc21)C(C)(C)C

> <Shape>
0.263

> <Color>
0.052

> <Negative vol penalty>
0.000

$$$$

  -OEChem-04052302163D

 84 92  0     1  0  0  0  0  0999 V2000
  -30.1465  -35.9549   21.5513 C   0  0  0  0  0  0  0  0  0  0  0  0
  -30.1310  -34.5658   21.4781 C   0  0  0  0  0  0  0  0  0  0  0  0
  -26.0611  -11.0892   20.9016 C   0  0  0  0  0  0  0  0  0  0  0  0
  -25.8947  -11.5624   18.5382 C   0  0  0  0  0  0  0  0  0  0  0  0
  -29.1741  -36.6236   22.2938 C   0  0  0  0  0  0  0  0  0  0  0  0
  -29.1437  -33.8443   22.1483 C   0  0  0  0  0  0  0  0  0  0  0  0
  -27.1554  -30.1616   19.2971 C   0  0  0  0  0  0  0  0  0  0  0  0
  -24.7607  -10.5847   20.8921 C   0  0  0  0  0  0  0  0  0  0  0  0
  -24.5943  -11.0579   18.5287 C   0  0  0  0  0  0  0  0  0  0  0  0
  -27.9024  -28.9931   19.1547 C   0  0  0  0  0  0  0  0  0  0  0  0
  -21.6145   -8.8402   21.4147 C   0  0  0  0  0  0  0  0  0  0  0  0
  -21.3797   -7.6395   22.0846 C   0  0  0  0  0  0  0  0  0  0  0  0
  -29.5353  -20.1139   16.7098 C   0  0  0  0  0  0  0  0  0  0  0  0
  -26.5384  -27.9238   20.8326 C   0  0  0  0  0  0  0  0  0  0  0  0
  -22.9681   -6.5257   20.6446 C   0  0  0  0  0  0  0  0  0  0  0  0
  -28.8963  -20.3533   14.4315 C   0  0  0  0  0  0  0  0  0  0  0  0
  -26.6281  -11.5781   19.7246 C   0  0  0  0  0  0  0  0  0  0  0  0
  -29.1864  -20.9443   15.6506 C   0  0  0  0  0  0  0  0  0  0  0  0
  -29.1624  -11.3849   19.5067 C   0  0  0  0  0  0  0  0  0  0  0  0
  -28.1687  -35.9105   22.9655 C   0  0  0  0  0  0  0  0  0  0  0  0
  -26.0995  -30.2236   20.2177 C   0  0  0  0  0  0  0  0  0  0  0  0
  -28.1577  -34.5040   22.9016 C   0  0  0  0  0  0  0  0  0  0  0  0
  -25.7779  -29.0934   20.9830 C   0  0  0  0  0  0  0  0  0  0  0  0
  -29.5827  -18.7372   16.5202 C   0  0  0  0  0  0  0  0  0  0  0  0
  -24.0273  -10.5691   19.7057 C   0  0  0  0  0  0  0  0  0  0  0  0
  -27.5958  -27.8748   19.9245 C   0  0  0  0  0  0  0  0  0  0  0  0
  -22.5259   -8.8837   20.3596 C   0  0  0  0  0  0  0  0  0  0  0  0
  -22.0566   -6.4822   21.6996 C   0  0  0  0  0  0  0  0  0  0  0  0
  -23.2028   -7.7264   19.9747 C   0  0  0  0  0  0  0  0  0  0  0  0
  -27.9711  -12.0998   19.7339 C   0  0  0  0  0  0  0  0  0  0  0  0
  -29.2747  -18.2450   15.2622 C   0  0  0  0  0  0  0  0  0  0  0  0
  -30.1556  -12.3264   19.6244 C   0  0  0  0  0  0  0  0  0  0  0  0
  -29.1272  -22.4059   15.8185 C   0  0  0  0  0  0  0  0  0  0  0  0
  -29.7340  -23.0981   16.7955 C   0  0  0  0  0  0  0  0  0  0  0  0
  -29.3541   -9.9943   19.2152 C   0  0  0  0  0  0  0  0  0  0  0  0
  -25.4812  -31.9583   22.8085 C   0  0  0  0  0  0  0  0  0  0  0  0
  -29.0292  -24.9831   18.2668 C   0  0  0  0  0  0  0  0  0  0  0  0
  -22.6182  -30.4401   22.6656 C   0  0  0  0  0  0  0  0  0  0  0  0
  -20.8221  -27.7363   21.6117 C   0  0  0  0  0  0  0  0  0  0  0  0
  -30.2663  -18.2562   18.8967 C   0  0  0  0  0  0  0  0  0  0  0  0
  -27.1668  -36.6747   23.7944 C   0  0  0  0  0  0  0  0  0  0  0  0
  -25.2863  -31.4830   20.3403 C   0  0  0  0  0  0  0  0  0  0  0  0
  -24.6411  -29.1019   21.9709 C   0  0  0  0  0  0  0  0  0  0  0  0
  -25.9342  -35.8555   24.1683 C   0  0  0  0  0  0  0  0  0  0  0  0
  -31.1593  -16.4544   21.8349 C   0  0  0  0  0  0  0  0  0  0  0  0
  -26.3437  -34.4772   24.6776 C   0  0  0  0  0  0  0  0  0  0  0  0
  -30.5567  -15.0664   21.6062 C   0  0  0  0  0  0  0  0  0  0  0  0
  -30.2620  -17.5603   21.2823 C   0  0  0  0  0  0  0  0  0  0  0  0
  -29.2664  -16.0087   19.6481 C   0  0  0  0  0  0  0  0  0  0  0  0
  -27.0884  -33.6875   23.5944 C   0  0  1  0  0  0  0  0  0  0  0  0
  -24.5604  -31.5978   21.6772 C   0  0  1  0  0  0  0  0  0  0  0  0
  -30.1652  -14.8582   20.1301 C   0  0  2  0  0  0  0  0  0  0  0  0
  -29.3074  -16.7748   14.9962 C   0  0  0  0  0  0  0  0  0  0  0  0
  -18.5119  -26.7586   21.6784 C   0  0  0  0  0  0  0  0  0  0  0  0
  -23.0599  -29.6005   25.5656 C   0  0  0  0  0  0  0  0  0  0  0  0
  -21.2540  -27.8913   25.2728 C   0  0  0  0  0  0  0  0  0  0  0  0
  -20.7241  -30.3169   25.0311 C   0  0  0  0  0  0  0  0  0  0  0  0
  -20.5812  -27.8075   18.6629 C   0  0  0  0  0  0  0  0  0  0  0  0
  -29.6394  -24.5872   16.9296 C   0  0  0  0  0  0  0  0  0  0  0  0
  -28.8919  -26.4748   18.5046 C   0  0  0  0  0  0  0  0  0  1  0  0
  -22.0607  -29.1544   23.2271 C   0  0  1  0  0  0  0  0  0  0  0  0
  -19.4852  -27.6303   20.9003 C   0  0  2  0  0  0  0  0  0  0  0  0
  -21.7974  -29.2409   24.7570 C   0  0  0  0  0  0  0  0  0  0  0  0
  -28.9316  -19.0203   14.2092 N   0  0  0  0  0  0  0  0  0  0  0  0
  -28.1858  -13.3954   19.9777 N   0  0  0  0  0  0  0  0  0  0  0  0
  -29.5234  -13.5020   19.9044 N   0  0  0  0  0  0  0  0  0  0  0  0
  -23.8797  -30.3589   22.0590 N   0  0  0  0  0  0  0  0  0  0  0  0
  -29.9359  -17.2984   19.8787 N   0  0  0  0  0  0  0  0  0  0  0  0
  -31.4992  -12.2549   19.5148 N   0  0  0  0  0  0  0  0  0  0  0  0
  -28.2255   -9.1677   19.1299 N   0  0  0  0  0  0  0  0  0  0  0  0
  -29.9374  -17.8833   17.5939 N   0  0  0  0  0  0  0  0  0  0  0  0
  -26.1544  -33.1515   22.6276 N   0  0  0  0  0  0  0  0  0  0  0  0
  -20.8768  -28.8420   22.4338 N   0  0  0  0  0  0  0  0  0  0  0  0
  -19.6656  -27.0386   19.5445 N   0  3  0  0  0  0  0  0  0  0  0  0
  -30.4937   -9.4960   19.0519 O   0  0  0  0  0  0  0  0  0  0  0  0
  -25.5729  -31.2102   23.7747 O   0  0  0  0  0  0  0  0  0  0  0  0
  -28.6541  -24.1600   19.1009 O   0  0  0  0  0  0  0  0  0  0  0  0
  -21.9556  -31.4767   22.7553 O   0  0  0  0  0  0  0  0  0  0  0  0
  -21.7258  -26.9180   21.4568 O   0  0  0  0  0  0  0  0  0  0  0  0
  -30.8261  -19.3166   19.1869 O   0  0  0  0  0  0  0  0  0  0  0  0
  -22.7584  -10.0767   19.6961 O   0  0  0  0  0  0  0  0  0  0  0  0
  -28.3237  -26.7332   19.7879 O   0  0  0  0  0  0  0  0  0  1  0  0
  -21.8323   -5.3296   22.3440 F   0  0  0  0  0  0  0  0  0  0  0  0
  -24.0805   -7.7622   18.9627 F   0  0  0  0  0  0  0  0  0  0  0  0
  1  2  1  0  0  0  0
  1  5  2  0  0  0  0
  2  6  2  0  0  0  0
  3  8  2  0  0  0  0
  3 17  1  0  0  0  0
  4  9  1  0  0  0  0
  4 17  2  0  0  0  0
  5 20  1  0  0  0  0
  6 22  1  0  0  0  0
  7 10  2  0  0  0  0
  7 21  1  0  0  0  0
  8 25  1  0  0  0  0
  9 25  2  0  0  0  0
 10 26  1  0  0  0  0
 11 12  2  0  0  0  0
 11 27  1  0  0  0  0
 12 28  1  0  0  0  0
 13 18  2  0  0  0  0
 13 24  1  0  0  0  0
 14 23  1  0  0  0  0
 14 26  2  0  0  0  0
 15 28  2  0  0  0  0
 15 29  1  0  0  0  0
 16 18  1  0  0  0  0
 16 64  2  0  0  0  0
 17 30  1  0  0  0  0
 18 33  1  0  0  0  0
 19 30  1  0  0  0  0
 19 32  2  0  0  0  0
 19 35  1  0  0  0  0
 20 22  2  0  0  0  0
 20 41  1  0  0  0  0
 21 23  2  0  0  0  0
 21 42  1  0  0  0  0
 22 50  1  0  0  0  0
 23 43  1  0  0  0  0
 24 31  2  0  0  0  0
 24 71  1  0  0  0  0
 25 81  1  0  0  0  0
 26 82  1  0  0  0  0
 27 29  2  0  0  0  0
 27 81  1  0  0  0  0
 28 83  1  0  0  0  0
 29 84  1  0  0  0  0
 30 65  2  0  0  0  0
 31 53  1  0  0  0  0
 31 64  1  0  0  0  0
 32 66  1  0  0  0  0
 32 69  1  0  0  0  0
 33 34  2  0  0  0  0
 34 59  1  0  0  0  0
 35 70  1  0  0  0  0
 35 75  2  0  0  0  0
 36 51  1  0  0  0  0
 36 72  1  0  0  0  0
 36 76  2  0  0  0  0
 37 59  1  0  0  0  0
 37 60  1  0  0  0  0
 37 77  2  0  0  0  0
 38 61  1  0  0  0  0
 38 67  1  0  0  0  0
 38 78  2  0  0  0  0
 39 62  1  0  0  0  0
 39 73  1  0  0  0  0
 39 79  2  0  0  0  0
 40 68  1  0  0  0  0
 40 71  1  0  0  0  0
 40 80  2  0  0  0  0
 41 44  1  0  0  0  0
 42 51  1  0  0  0  0
 43 67  1  0  0  0  0
 44 46  1  0  0  0  0
 45 47  1  0  0  0  0
 45 48  1  0  0  0  0
 46 50  1  0  0  0  0
 47 52  1  0  0  0  0
 48 68  1  0  0  0  0
 49 52  1  0  0  0  0
 49 68  1  0  0  0  0
 50 72  1  0  0  0  0
 51 67  1  0  0  0  0
 52 66  1  0  0  0  0
 54 62  1  0  0  0  0
 55 63  1  0  0  0  0
 56 63  1  0  0  0  0
 57 63  1  0  0  0  0
 58 74  1  0  0  0  0
 60 82  1  0  0  0  0
 61 63  1  0  0  0  0
 61 73  1  0  0  0  0
 62 74  1  0  0  0  0
 65 66  1  0  0  0  0
M  CHG  1  74   1
M  ISO  4  40 100  60 101  71 100  82 101
M  END
> <Batch ID>
0128

> <Smiles>
CNC(C)C(=O)NC(C(=O)N1Cc2cc([101O:1][101CH2:1]C(=O)CC=Cc3cnc(C)c([100NH:0][100C:0](=O)N4CCCC(n5nc(-c6ccc(Oc7ccc(F)cc7F)cc6)c(C(N)=O)c5N)C4)c3)ccc2CC1C(=O)NC1CCCc2ccccc21)C(C)(C)C

> <Shape>
0.315

> <Color>
0.077

> <Negative vol penalty>
0.000

$$$$

  -OEChem-04052302163D

 86 94  0     1  0  0  0  0  0999 V2000
  -28.7572  -32.5269   26.0572 C   0  0  0  0  0  0  0  0  0  0  0  0
  -28.7034  -31.3344   25.3426 C   0  0  0  0  0  0  0  0  0  0  0  0
  -19.5258  -19.0583   25.1042 C   0  0  0  0  0  0  0  0  0  0  0  0
  -21.2160  -20.3732   23.9855 C   0  0  0  0  0  0  0  0  0  0  0  0
  -27.5775  -33.1432   26.4723 C   0  0  0  0  0  0  0  0  0  0  0  0
  -27.4698  -30.7570   25.0438 C   0  0  0  0  0  0  0  0  0  0  0  0
  -27.1868  -29.1514   20.2493 C   0  0  0  0  0  0  0  0  0  0  0  0
  -19.5241  -19.9634   26.1655 C   0  0  0  0  0  0  0  0  0  0  0  0
  -21.2143  -21.2784   25.0468 C   0  0  0  0  0  0  0  0  0  0  0  0
  -27.8170  -27.9461   19.9433 C   0  0  0  0  0  0  0  0  0  0  0  0
  -19.2975  -23.8431   26.1278 C   0  0  0  0  0  0  0  0  0  0  0  0
  -19.2826  -25.2029   25.8178 C   0  0  0  0  0  0  0  0  0  0  0  0
  -27.1834  -16.8867   19.6956 C   0  0  0  0  0  0  0  0  0  0  0  0
  -29.5174  -16.2635   19.6671 C   0  0  0  0  0  0  0  0  0  0  0  0
  -25.6911  -26.8120   20.0594 C   0  0  0  0  0  0  0  0  0  0  0  0
  -27.8472  -14.6597   20.3566 C   0  0  0  0  0  0  0  0  0  0  0  0
  -21.3791  -25.4915   26.9835 C   0  0  0  0  0  0  0  0  0  0  0  0
  -20.3718  -19.2632   24.0142 C   0  0  0  0  0  0  0  0  0  0  0  0
  -28.5181  -17.2136   19.4563 C   0  0  0  0  0  0  0  0  0  0  0  0
  -19.5741  -18.3729   21.7606 C   0  0  0  0  0  0  0  0  0  0  0  0
  -26.3285  -32.5781   26.1701 C   0  0  0  0  0  0  0  0  0  0  0  0
  -25.8032  -29.1943   20.4738 C   0  0  0  0  0  0  0  0  0  0  0  0
  -26.2724  -31.3657   25.4565 C   0  0  0  0  0  0  0  0  0  0  0  0
  -25.0453  -28.0196   20.3656 C   0  0  0  0  0  0  0  0  0  0  0  0
  -26.8479  -15.6098   20.1458 C   0  0  0  0  0  0  0  0  0  0  0  0
  -20.3683  -21.0735   26.1368 C   0  0  0  0  0  0  0  0  0  0  0  0
  -27.0696  -26.7756   19.8511 C   0  0  0  0  0  0  0  0  0  0  0  0
  -20.3531  -23.3074   26.8658 C   0  0  0  0  0  0  0  0  0  0  0  0
  -20.3234  -26.0272   26.2456 C   0  0  0  0  0  0  0  0  0  0  0  0
  -29.1820  -14.9866   20.1172 C   0  0  0  0  0  0  0  0  0  0  0  0
  -21.3939  -24.1317   27.2936 C   0  0  0  0  0  0  0  0  0  0  0  0
  -20.3745  -18.3283   22.9178 C   0  0  0  0  0  0  0  0  0  0  0  0
  -19.9548  -17.2694   21.0370 C   0  0  0  0  0  0  0  0  0  0  0  0
  -27.9741  -19.6754   19.4208 C   0  0  0  0  0  0  0  0  0  0  0  0
  -27.7972  -20.7660   18.6620 C   0  0  0  0  0  0  0  0  0  0  0  0
  -28.8760  -18.5734   18.9797 C   0  0  0  0  0  0  0  0  0  0  0  0
  -18.5757  -19.3267   21.3743 C   0  0  0  0  0  0  0  0  0  0  0  0
  -23.9539  -29.9725   22.9392 C   0  0  0  0  0  0  0  0  0  0  0  0
  -27.6818  -23.2082   19.1462 C   0  0  0  0  0  0  0  0  0  0  0  0
  -21.5688  -29.5592   20.7799 C   0  0  0  0  0  0  0  0  0  0  0  0
  -20.5048  -28.1065   17.8809 C   0  0  0  0  0  0  0  0  0  0  0  0
  -24.9890  -14.0565   20.8373 C   0  0  0  0  0  0  0  0  0  0  0  0
  -25.0821  -33.2564   26.6810 C   0  0  0  0  0  0  0  0  0  0  0  0
  -25.1345  -30.5071   20.7767 C   0  0  0  0  0  0  0  0  0  0  0  0
  -23.5542  -28.0156   20.5776 C   0  0  0  0  0  0  0  0  0  0  0  0
  -23.8038  -32.7749   25.9996 C   0  0  0  0  0  0  0  0  0  0  0  0
  -21.7241  -12.8541   21.5935 C   0  0  0  0  0  0  0  0  0  0  0  0
  -23.7798  -31.2515   25.9252 C   0  0  0  0  0  0  0  0  0  0  0  0
  -20.9331  -14.1260   21.9077 C   0  0  0  0  0  0  0  0  0  0  0  0
  -23.1626  -12.9412   22.1004 C   0  0  0  0  0  0  0  0  0  0  0  0
  -23.1142  -15.4010   21.9743 C   0  0  0  0  0  0  0  0  0  0  0  0
  -24.9526  -30.7213   25.0916 C   0  0  1  0  0  0  0  0  0  0  0  0
  -23.7968  -30.3452   21.4921 C   0  0  1  0  0  0  0  0  0  0  0  0
  -21.6780  -15.3864   21.4258 C   0  0  2  0  0  0  0  0  0  0  0  0
  -18.4937  -27.9249   16.3910 C   0  0  0  0  0  0  0  0  0  0  0  0
  -20.2759  -27.6347   22.7636 C   0  0  0  0  0  0  0  0  0  0  0  0
  -18.8399  -26.7853   20.8969 C   0  0  0  0  0  0  0  0  0  0  0  0
  -18.6768  -29.1710   21.6073 C   0  0  0  0  0  0  0  0  0  0  0  0
  -21.9463  -29.3106   15.5937 C   0  0  0  0  0  0  0  0  0  0  0  0
  -26.9044  -21.9027   19.0545 C   0  0  0  0  0  0  0  0  0  0  0  0
  -26.8556  -24.4371   19.4746 C   0  0  0  0  0  0  0  0  0  1  0  0
  -20.7190  -28.3932   20.3357 C   0  0  1  0  0  0  0  0  0  0  0  0
  -19.7844  -28.6780   16.6731 C   0  0  2  0  0  0  0  0  0  0  0  0
  -19.6563  -27.9955   21.3987 C   0  0  0  0  0  0  0  0  0  0  0  0
  -21.2012  -17.2793   22.9328 N   0  0  0  0  0  0  0  0  0  0  0  0
  -29.9312  -18.7824   18.2580 N   0  0  0  0  0  0  0  0  0  0  0  0
  -20.9222  -16.6545   21.7761 N   0  0  0  0  0  0  0  0  0  0  0  0
  -22.9473  -29.3230   20.8777 N   0  0  0  0  0  0  0  0  0  0  0  0
  -23.8065  -14.1578   21.6003 N   0  0  0  0  0  0  0  0  0  0  0  0
  -19.5531  -16.7746   19.8469 N   0  0  0  0  0  0  0  0  0  0  0  0
  -18.3089  -20.4003   22.2348 N   0  0  0  0  0  0  0  0  0  0  0  0
  -25.4922  -15.2773   20.3889 N   0  0  0  0  0  0  0  0  0  0  0  0
  -24.6829  -30.8839   23.6790 N   0  0  0  0  0  0  0  0  0  0  0  0
  -20.1588  -28.7660   19.0413 N   0  0  0  0  0  0  0  0  0  0  0  0
  -20.6520  -28.5930   15.4643 N   0  3  0  0  0  0  0  0  0  0  0  0
  -17.9275  -19.2207   20.3056 O   0  0  0  0  0  0  0  0  0  0  0  0
  -23.4497  -28.9355   23.3542 O   0  0  0  0  0  0  0  0  0  0  0  0
  -28.8994  -23.2748   18.9821 O   0  0  0  0  0  0  0  0  0  0  0  0
  -21.0301  -30.6417   21.0241 O   0  0  0  0  0  0  0  0  0  0  0  0
  -21.2926  -27.1663   17.8033 O   0  0  0  0  0  0  0  0  0  0  0  0
  -25.5015  -12.9651   20.5764 O   0  0  0  0  0  0  0  0  0  0  0  0
  -20.3667  -21.9570   27.1721 O   0  0  0  0  0  0  0  0  0  0  0  0
  -27.6823  -25.5976   19.5531 O   0  0  0  0  0  0  0  0  0  1  0  0
  -20.3098  -27.3327   25.9465 F   0  0  0  0  0  0  0  0  0  0  0  0
  -30.1418  -14.0752   20.3225 F   0  0  0  0  0  0  0  0  0  0  0  0
  -22.4113  -23.6226   28.0018 F   0  0  0  0  0  0  0  0  0  0  0  0
  1  2  1  0  0  0  0
  1  5  2  0  0  0  0
  2  6  2  0  0  0  0
  3  8  2  0  0  0  0
  3 18  1  0  0  0  0
  4  9  1  0  0  0  0
  4 18  2  0  0  0  0
  5 21  1  0  0  0  0
  6 23  1  0  0  0  0
  7 10  2  0  0  0  0
  7 22  1  0  0  0  0
  8 26  1  0  0  0  0
  9 26  2  0  0  0  0
 10 27  1  0  0  0  0
 11 12  2  0  0  0  0
 11 28  1  0  0  0  0
 12 29  1  0  0  0  0
 13 19  2  0  0  0  0
 13 25  1  0  0  0  0
 14 19  1  0  0  0  0
 14 30  2  0  0  0  0
 15 24  1  0  0  0  0
 15 27  2  0  0  0  0
 16 25  2  0  0  0  0
 16 30  1  0  0  0  0
 17 29  2  0  0  0  0
 17 31  1  0  0  0  0
 18 32  1  0  0  0  0
 19 36  1  0  0  0  0
 20 32  1  0  0  0  0
 20 33  2  0  0  0  0
 20 37  1  0  0  0  0
 21 23  2  0  0  0  0
 21 43  1  0  0  0  0
 22 24  2  0  0  0  0
 22 44  1  0  0  0  0
 23 52  1  0  0  0  0
 24 45  1  0  0  0  0
 25 72  1  0  0  0  0
 26 82  1  0  0  0  0
 27 83  1  0  0  0  0
 28 31  2  0  0  0  0
 28 82  1  0  0  0  0
 29 84  1  0  0  0  0
 30 85  1  0  0  0  0
 31 86  1  0  0  0  0
 32 65  2  0  0  0  0
 33 67  1  0  0  0  0
 33 70  1  0  0  0  0
 34 35  2  0  0  0  0
 34 36  1  0  0  0  0
 35 60  1  0  0  0  0
 36 66  2  0  0  0  0
 37 71  1  0  0  0  0
 37 76  2  0  0  0  0
 38 53  1  0  0  0  0
 38 73  1  0  0  0  0
 38 77  2  0  0  0  0
 39 60  1  0  0  0  0
 39 61  1  0  0  0  0
 39 78  2  0  0  0  0
 40 62  1  0  0  0  0
 40 68  1  0  0  0  0
 40 79  2  0  0  0  0
 41 63  1  0  0  0  0
 41 74  1  0  0  0  0
 41 80  2  0  0  0  0
 42 69  1  0  0  0  0
 42 72  1  0  0  0  0
 42 81  2  0  0  0  0
 43 46  1  0  0  0  0
 44 53  1  0  0  0  0
 45 68  1  0  0  0  0
 46 48  1  0  0  0  0
 47 49  1  0  0  0  0
 47 50  1  0  0  0  0
 48 52  1  0  0  0  0
 49 54  1  0  0  0  0
 50 69  1  0  0  0  0
 51 54  1  0  0  0  0
 51 69  1  0  0  0  0
 52 73  1  0  0  0  0
 53 68  1  0  0  0  0
 54 67  1  0  0  0  0
 55 63  1  0  0  0  0
 56 64  1  0  0  0  0
 57 64  1  0  0  0  0
 58 64  1  0  0  0  0
 59 75  1  0  0  0  0
 61 83  1  0  0  0  0
 62 64  1  0  0  0  0
 62 74  1  0  0  0  0
 63 75  1  0  0  0  0
 65 67  1  0  0  0  0
M  CHG  1  75   1
M  ISO  4  42 100  61 101  72 100  83 101
M  END
> <Batch ID>
0128

> <Smiles>
CNC(C)C(=O)NC(C(=O)N1Cc2cc([101O:1][101CH2:1]C(=O)CC=CC(=N)c3cc(F)cc([100NH:0][100C:0](=O)N4CCCC(n5nc(-c6ccc(Oc7ccc(F)cc7F)cc6)c(C(N)=O)c5N)C4)c3)ccc2CC1C(=O)NC1CCCc2ccccc21)C(C)(C)C

> <Shape>
0.239

> <Color>
0.083

> <Negative vol penalty>
0.000

$$$$

  -OEChem-04052302163D

 87 95  0     1  0  0  0  0  0999 V2000
  -21.9490  -31.7056   23.6332 C   0  0  0  0  0  0  0  0  0  0  0  0
  -23.0213  -31.1267   24.3044 C   0  0  0  0  0  0  0  0  0  0  0  0
  -23.0885   -9.8477   19.9785 C   0  0  0  0  0  0  0  0  0  0  0  0
  -23.8294   -9.9213   22.2769 C   0  0  0  0  0  0  0  0  0  0  0  0
  -21.1584  -30.9309   22.7855 C   0  0  0  0  0  0  0  0  0  0  0  0
  -23.3030  -29.7723   24.1289 C   0  0  0  0  0  0  0  0  0  0  0  0
  -28.8317  -27.1386   24.0773 C   0  0  0  0  0  0  0  0  0  0  0  0
  -22.3435   -8.7015   20.2553 C   0  0  0  0  0  0  0  0  0  0  0  0
  -23.0843   -8.7751   22.5538 C   0  0  0  0  0  0  0  0  0  0  0  0
  -29.5542  -26.4550   25.0543 C   0  0  0  0  0  0  0  0  0  0  0  0
  -19.8519   -7.9916   23.1524 C   0  0  0  0  0  0  0  0  0  0  0  0
  -19.0853   -7.9846   24.3176 C   0  0  0  0  0  0  0  0  0  0  0  0
  -30.6433  -18.7863   23.4192 C   0  0  0  0  0  0  0  0  0  0  0  0
  -28.7479  -24.3584   24.1750 C   0  0  0  0  0  0  0  0  0  0  0  0
  -32.4392  -17.2237   23.8316 C   0  0  0  0  0  0  0  0  0  0  0  0
  -20.3221   -6.0704   25.1197 C   0  0  0  0  0  0  0  0  0  0  0  0
  -23.8315  -10.4576   20.9893 C   0  0  0  0  0  0  0  0  0  0  0  0
  -30.0586  -17.8808   22.5340 C   0  0  0  0  0  0  0  0  0  0  0  0
  -24.1724  -12.9786   20.7996 C   0  0  0  0  0  0  0  0  0  0  0  0
  -21.4364  -29.5685   22.5921 C   0  0  0  0  0  0  0  0  0  0  0  0
  -28.0519  -26.4366   23.1470 C   0  0  0  0  0  0  0  0  0  0  0  0
  -22.5146  -28.9783   23.2788 C   0  0  0  0  0  0  0  0  0  0  0  0
  -28.0185  -25.0353   23.1856 C   0  0  0  0  0  0  0  0  0  0  0  0
  -31.8336  -18.4578   24.0680 C   0  0  0  0  0  0  0  0  0  0  0  0
  -30.6641  -16.6466   22.2976 C   0  0  0  0  0  0  0  0  0  0  0  0
  -22.3414   -8.1651   21.5430 C   0  0  0  0  0  0  0  0  0  0  0  0
  -29.5101  -25.0649   25.1050 C   0  0  0  0  0  0  0  0  0  0  0  0
  -20.8536   -7.0380   22.9707 C   0  0  0  0  0  0  0  0  0  0  0  0
  -31.8544  -16.3181   22.9464 C   0  0  0  0  0  0  0  0  0  0  0  0
  -19.3204   -7.0240   25.3013 C   0  0  0  0  0  0  0  0  0  0  0  0
  -21.0887   -6.0774   23.9543 C   0  0  0  0  0  0  0  0  0  0  0  0
  -24.6018  -11.6414   20.7038 C   0  0  0  0  0  0  0  0  0  0  0  0
  -25.2669  -13.7185   20.4239 C   0  0  0  0  0  0  0  0  0  0  0  0
  -32.5731  -21.4527   26.1688 C   0  0  0  0  0  0  0  0  0  0  0  0
  -31.9885  -20.6061   25.3146 C   0  0  0  0  0  0  0  0  0  0  0  0
  -28.8146  -18.2565   21.8732 C   0  0  0  0  0  0  0  0  0  0  0  0
  -22.8980  -13.5050   21.1930 C   0  0  0  0  0  0  0  0  0  0  0  0
  -31.9698  -22.7842   26.4559 C   0  0  0  0  0  0  0  0  0  0  0  0
  -24.9546  -26.3334   22.4400 C   0  0  0  0  0  0  0  0  0  0  0  0
  -25.9707  -24.4389   20.0108 C   0  0  0  0  0  0  0  0  0  0  0  0
  -28.3581  -22.3310   18.7846 C   0  0  0  0  0  0  0  0  0  0  0  0
  -30.7306  -14.7742   20.6136 C   0  0  0  0  0  0  0  0  0  0  0  0
  -20.5250  -28.7608   21.7024 C   0  0  0  0  0  0  0  0  0  0  0  0
  -27.2996  -27.1874   22.0828 C   0  0  0  0  0  0  0  0  0  0  0  0
  -27.2127  -24.2338   22.1973 C   0  0  0  0  0  0  0  0  0  0  0  0
  -21.1179  -27.4188   21.2809 C   0  0  0  0  0  0  0  0  0  0  0  0
  -29.6377  -12.2922   18.3065 C   0  0  0  0  0  0  0  0  0  0  0  0
  -21.7227  -26.7011   22.4834 C   0  0  0  0  0  0  0  0  0  0  0  0
  -28.1948  -12.0116   18.7324 C   0  0  0  0  0  0  0  0  0  0  0  0
  -30.5427  -12.5564   19.5086 C   0  0  0  0  0  0  0  0  0  0  0  0
  -28.6238  -13.3183   20.8527 C   0  0  0  0  0  0  0  0  0  0  0  0
  -22.8670  -27.5181   23.0953 C   0  0  1  0  0  0  0  0  0  0  0  0
  -26.1301  -26.3954   21.5062 C   0  0  1  0  0  0  0  0  0  0  0  0
  -27.6609  -13.1103   19.6724 C   0  0  2  0  0  0  0  0  0  0  0  0
  -27.8937  -19.1819   22.6109 C   0  0  0  0  0  0  0  0  0  0  0  0
  -28.8921  -20.9082   16.7876 C   0  0  0  0  0  0  0  0  0  0  0  0
  -23.9559  -22.3537   20.9608 C   0  0  0  0  0  0  0  0  0  0  0  0
  -25.1694  -20.6538   19.5803 C   0  0  0  0  0  0  0  0  0  0  0  0
  -24.0937  -22.6158   18.4775 C   0  0  0  0  0  0  0  0  0  0  0  0
  -30.8186  -23.8688   18.2016 C   0  0  0  0  0  0  0  0  0  0  0  0
  -30.6804  -23.0889   25.7230 C   0  0  0  0  0  0  0  0  0  1  0  0
  -26.1994  -22.9572   19.8345 C   0  0  1  0  0  0  0  0  0  0  0  0
  -29.0552  -22.2735   17.4373 C   0  0  2  0  0  0  0  0  0  0  0  0
  -24.8683  -22.1600   19.7332 C   0  0  0  0  0  0  0  0  0  0  0  0
  -25.8701  -11.5348   20.2989 N   0  0  0  0  0  0  0  0  0  0  0  0
  -26.2471  -12.8146   20.1368 N   0  0  0  0  0  0  0  0  0  0  0  0
  -26.4894  -25.0140   21.1796 N   0  0  0  0  0  0  0  0  0  0  0  0
  -29.9757  -13.6114   20.3514 N   0  0  0  0  0  0  0  0  0  0  0  0
  -25.4769  -15.0475   20.3144 N   0  0  0  0  0  0  0  0  0  0  0  0
  -21.8841  -12.6048   21.5479 N   0  0  0  0  0  0  0  0  0  0  0  0
  -32.4223  -19.3691   24.9588 N   0  0  0  0  0  0  0  0  0  0  0  0
  -30.0758  -15.7217   21.3997 N   0  0  0  0  0  0  0  0  0  0  0  0
  -24.0672  -27.3830   22.2979 N   0  0  0  0  0  0  0  0  0  0  0  0
  -27.0714  -22.8141   18.6736 N   0  0  0  0  0  0  0  0  0  0  0  0
  -30.5115  -22.5477   17.5955 N   0  3  0  0  0  0  0  0  0  0  0  0
  -28.4646  -17.8666   20.7595 O   0  0  0  0  0  0  0  0  0  0  0  0
  -22.6604  -14.7365   21.2130 O   0  0  0  0  0  0  0  0  0  0  0  0
  -32.4875  -23.5784   27.2366 O   0  0  0  0  0  0  0  0  0  0  0  0
  -24.8590  -25.4014   23.2299 O   0  0  0  0  0  0  0  0  0  0  0  0
  -25.3607  -25.0645   19.1401 O   0  0  0  0  0  0  0  0  0  0  0  0
  -28.8995  -21.9788   19.8303 O   0  0  0  0  0  0  0  0  0  0  0  0
  -31.8634  -14.9306   20.1506 O   0  0  0  0  0  0  0  0  0  0  0  0
  -32.4638  -15.1178   22.7306 O   0  0  0  0  0  0  0  0  0  0  0  0
  -21.6143   -7.0468   21.8136 O   0  0  0  0  0  0  0  0  0  0  0  0
  -30.2138  -24.3952   26.0580 O   0  0  0  0  0  0  0  0  0  1  0  0
  -18.5852   -7.0183   26.4210 F   0  0  0  0  0  0  0  0  0  0  0  0
  -22.0503   -5.1594   23.7860 F   0  0  0  0  0  0  0  0  0  0  0  0
  1  2  1  0  0  0  0
  1  5  2  0  0  0  0
  2  6  2  0  0  0  0
  3  8  2  0  0  0  0
  3 17  1  0  0  0  0
  4  9  1  0  0  0  0
  4 17  2  0  0  0  0
  5 20  1  0  0  0  0
  6 22  1  0  0  0  0
  7 10  2  0  0  0  0
  7 21  1  0  0  0  0
  8 26  1  0  0  0  0
  9 26  2  0  0  0  0
 10 27  1  0  0  0  0
 11 12  2  0  0  0  0
 11 28  1  0  0  0  0
 12 30  1  0  0  0  0
 13 18  1  0  0  0  0
 13 24  2  0  0  0  0
 14 23  1  0  0  0  0
 14 27  2  0  0  0  0
 15 24  1  0  0  0  0
 15 29  2  0  0  0  0
 16 30  2  0  0  0  0
 16 31  1  0  0  0  0
 17 32  1  0  0  0  0
 18 25  2  0  0  0  0
 18 36  1  0  0  0  0
 19 32  1  0  0  0  0
 19 33  2  0  0  0  0
 19 37  1  0  0  0  0
 20 22  2  0  0  0  0
 20 43  1  0  0  0  0
 21 23  2  0  0  0  0
 21 44  1  0  0  0  0
 22 52  1  0  0  0  0
 23 45  1  0  0  0  0
 24 71  1  0  0  0  0
 25 29  1  0  0  0  0
 25 72  1  0  0  0  0
 26 84  1  0  0  0  0
 27 85  1  0  0  0  0
 28 31  2  0  0  0  0
 28 84  1  0  0  0  0
 29 83  1  0  0  0  0
 30 86  1  0  0  0  0
 31 87  1  0  0  0  0
 32 65  2  0  0  0  0
 33 66  1  0  0  0  0
 33 69  1  0  0  0  0
 34 35  2  0  0  0  0
 34 38  1  0  0  0  0
 35 71  1  0  0  0  0
 36 55  1  0  0  0  0
 36 76  2  0  0  0  0
 37 70  1  0  0  0  0
 37 77  2  0  0  0  0
 38 61  1  0  0  0  0
 38 78  2  0  0  0  0
 39 53  1  0  0  0  0
 39 73  1  0  0  0  0
 39 79  2  0  0  0  0
 40 62  1  0  0  0  0
 40 67  1  0  0  0  0
 40 80  2  0  0  0  0
 41 63  1  0  0  0  0
 41 74  1  0  0  0  0
 41 81  2  0  0  0  0
 42 68  1  0  0  0  0
 42 72  1  0  0  0  0
 42 82  2  0  0  0  0
 43 46  1  0  0  0  0
 44 53  1  0  0  0  0
 45 67  1  0  0  0  0
 46 48  1  0  0  0  0
 47 49  1  0  0  0  0
 47 50  1  0  0  0  0
 48 52  1  0  0  0  0
 49 54  1  0  0  0  0
 50 68  1  0  0  0  0
 51 54  1  0  0  0  0
 51 68  1  0  0  0  0
 52 73  1  0  0  0  0
 53 67  1  0  0  0  0
 54 66  1  0  0  0  0
 56 63  1  0  0  0  0
 57 64  1  0  0  0  0
 58 64  1  0  0  0  0
 59 64  1  0  0  0  0
 60 75  1  0  0  0  0
 61 85  1  0  0  0  0
 62 64  1  0  0  0  0
 62 74  1  0  0  0  0
 63 75  1  0  0  0  0
 65 66  1  0  0  0  0
M  CHG  1  75   1
M  ISO  4  42 100  61 101  72 100  85 101
M  END
> <Batch ID>
0128

> <Smiles>
CNC(C)C(=O)NC(C(=O)N1Cc2cc([101O:1][101CH2:1]C(=O)C=CNc3cc(O)c([100NH:0][100C:0](=O)N4CCCC(n5nc(-c6ccc(Oc7ccc(F)cc7F)cc6)c(C(N)=O)c5N)C4)c(C(C)=O)c3)ccc2CC1C(=O)NC1CCCc2ccccc21)C(C)(C)C

> <Shape>
0.260

> <Color>
0.185

> <Negative vol penalty>
0.000

$$$$

  -OEChem-04052302163D

 85 93  0     1  0  0  0  0  0999 V2000
  -32.0908  -14.9085   19.2489 C   0  0  0  0  0  0  0  0  0  0  0  0
  -31.1782  -15.9490   19.1079 C   0  0  0  0  0  0  0  0  0  0  0  0
  -30.2849  -24.9730   18.8219 C   0  0  0  0  0  0  0  0  0  0  0  0
  -28.2624  -24.1433   19.8504 C   0  0  0  0  0  0  0  0  0  0  0  0
  -31.6394  -13.6208   19.5353 C   0  0  0  0  0  0  0  0  0  0  0  0
  -29.8134  -15.7021   19.2521 C   0  0  0  0  0  0  0  0  0  0  0  0
  -25.6207  -19.4774   21.6342 C   0  0  0  0  0  0  0  0  0  0  0  0
  -30.9177  -23.7585   19.0865 C   0  0  0  0  0  0  0  0  0  0  0  0
  -28.8951  -22.9287   20.1150 C   0  0  0  0  0  0  0  0  0  0  0  0
  -24.7000  -20.3456   21.0492 C   0  0  0  0  0  0  0  0  0  0  0  0
  -31.0846  -21.7019   22.3805 C   0  0  0  0  0  0  0  0  0  0  0  0
  -30.9157  -21.1459   23.6485 C   0  0  0  0  0  0  0  0  0  0  0  0
  -22.9983  -18.6440   21.2166 C   0  0  0  0  0  0  0  0  0  0  0  0
  -18.4335  -27.4755   22.7432 C   0  0  0  0  0  0  0  0  0  0  0  0
  -20.9555  -26.9484   21.6735 C   0  0  0  0  0  0  0  0  0  0  0  0
  -29.9196  -19.1819   22.6547 C   0  0  0  0  0  0  0  0  0  0  0  0
  -28.9572  -25.1655   19.2039 C   0  0  0  0  0  0  0  0  0  0  0  0
  -28.0899  -27.0116   17.6718 C   0  0  0  0  0  0  0  0  0  0  0  0
  -30.2691  -13.3599   19.6926 C   0  0  0  0  0  0  0  0  0  0  0  0
  -25.2393  -18.1800   22.0055 C   0  0  0  0  0  0  0  0  0  0  0  0
  -29.3431  -14.4094   19.5395 C   0  0  0  0  0  0  0  0  0  0  0  0
  -23.9154  -17.7622   21.8085 C   0  0  0  0  0  0  0  0  0  0  0  0
  -19.4924  -28.3490   22.9906 C   0  0  0  0  0  0  0  0  0  0  0  0
  -18.6356  -26.3383   21.9610 C   0  0  0  0  0  0  0  0  0  0  0  0
  -20.7534  -28.0855   22.4557 C   0  0  0  0  0  0  0  0  0  0  0  0
  -30.2229  -22.7363   19.7331 C   0  0  0  0  0  0  0  0  0  0  0  0
  -23.3893  -19.9279   20.8376 C   0  0  0  0  0  0  0  0  0  0  0  0
  -30.6709  -20.9979   21.2495 C   0  0  0  0  0  0  0  0  0  0  0  0
  -19.8966  -26.0748   21.4261 C   0  0  0  0  0  0  0  0  0  0  0  0
  -30.3332  -19.8859   23.7856 C   0  0  0  0  0  0  0  0  0  0  0  0
  -30.0884  -19.7379   21.3866 C   0  0  0  0  0  0  0  0  0  0  0  0
  -28.3032  -26.4200   18.9314 C   0  0  0  0  0  0  0  0  0  0  0  0
  -27.4331  -28.1852   17.9504 C   0  0  0  0  0  0  0  0  0  0  0  0
  -28.4531  -26.5421   16.3667 C   0  0  0  0  0  0  0  0  0  0  0  0
  -26.1249  -15.2500   21.1488 C   0  0  0  0  0  0  0  0  0  0  0  0
  -21.3442  -22.8967   20.4700 C   0  0  0  0  0  0  0  0  0  0  0  0
  -24.0317  -29.8715   22.6087 C   0  0  0  0  0  0  0  0  0  0  0  0
  -24.1369  -14.3667   23.5551 C   0  0  0  0  0  0  0  0  0  0  0  0
  -21.4651  -15.1339   25.5349 C   0  0  0  0  0  0  0  0  0  0  0  0
  -29.8254  -11.9425   19.9551 C   0  0  0  0  0  0  0  0  0  0  0  0
  -26.2376  -17.2649   22.6599 C   0  0  0  0  0  0  0  0  0  0  0  0
  -23.4504  -16.3864   22.2078 C   0  0  0  0  0  0  0  0  0  0  0  0
  -28.3897  -11.8379   20.4630 C   0  0  0  0  0  0  0  0  0  0  0  0
  -26.9626  -31.5057   21.3521 C   0  0  0  0  0  0  0  0  0  0  0  0
  -27.4610  -12.7075   19.6214 C   0  0  0  0  0  0  0  0  0  0  0  0
  -27.6340  -30.4314   20.4974 C   0  0  0  0  0  0  0  0  0  0  0  0
  -26.2798  -30.9005   22.5747 C   0  0  0  0  0  0  0  0  0  0  0  0
  -25.9651  -28.7483   21.3955 C   0  0  0  0  0  0  0  0  0  0  0  0
  -27.8564  -14.1862   19.7131 C   0  0  1  0  0  0  0  0  0  0  0  0
  -25.8719  -15.7896   22.5280 C   0  0  1  0  0  0  0  0  0  0  0  0
  -26.6407  -29.3137   20.1337 C   0  0  2  0  0  0  0  0  0  0  0  0
  -19.2491  -29.5594   23.8323 C   0  0  0  0  0  0  0  0  0  0  0  0
  -17.4904  -25.4146   21.7070 C   0  0  0  0  0  0  0  0  0  0  0  0
  -20.0510  -14.1981   27.3848 C   0  0  0  0  0  0  0  0  0  0  0  0
  -22.7225  -12.5510   21.5520 C   0  0  0  0  0  0  0  0  0  0  0  0
  -20.8056  -12.3928   23.1547 C   0  0  0  0  0  0  0  0  0  0  0  0
  -23.0562  -11.5451   23.8172 C   0  0  0  0  0  0  0  0  0  0  0  0
  -22.2040  -17.3350   27.3701 C   0  0  0  0  0  0  0  0  0  0  0  0
  -22.6731  -22.1696   20.4944 C   0  0  0  0  0  0  0  0  0  1  0  0
  -21.4072  -24.3952   20.6827 C   0  0  0  0  0  0  0  0  0  0  0  0
  -23.1456  -28.7333   22.1686 C   0  0  0  0  0  0  0  0  0  0  0  0
  -22.6673  -14.0384   23.6616 C   0  0  1  0  0  0  0  0  0  0  0  0
  -21.2659  -15.0442   27.0371 C   0  0  2  0  0  0  0  0  0  0  0  0
  -22.3218  -12.6572   23.0370 C   0  0  0  0  0  0  0  0  0  0  0  0
  -27.8210  -27.1571   19.9355 N   0  0  0  0  0  0  0  0  0  0  0  0
  -27.2983  -28.2239   19.3071 N   0  0  0  0  0  0  0  0  0  0  0  0
  -24.4653  -15.5261   22.8382 N   0  0  0  0  0  0  0  0  0  0  0  0
  -25.3613  -29.8278   22.1890 N   0  0  0  0  0  0  0  0  0  0  0  0
  -26.9634  -29.1775   17.1648 N   0  0  0  0  0  0  0  0  0  0  0  0
  -27.5411  -25.7398   15.6675 N   0  0  0  0  0  0  0  0  0  0  0  0
  -21.8365  -28.9596   22.6951 N   0  0  0  0  0  0  0  0  0  0  0  0
  -27.4015  -14.7544   20.9640 N   0  0  0  0  0  0  0  0  0  0  0  0
  -22.3237  -14.1581   25.0744 N   0  0  0  0  0  0  0  0  0  0  0  0
  -21.0730  -16.4038   27.6161 N   0  3  0  0  0  0  0  0  0  0  0  0
  -29.5605  -26.8121   15.8430 O   0  0  0  0  0  0  0  0  0  0  0  0
  -25.2278  -15.2795   20.3144 O   0  0  0  0  0  0  0  0  0  0  0  0
  -20.2801  -22.3066   20.2892 O   0  0  0  0  0  0  0  0  0  0  0  0
  -23.5538  -30.7731   23.3022 O   0  0  0  0  0  0  0  0  0  0  0  0
  -24.9627  -13.6258   24.0942 O   0  0  0  0  0  0  0  0  0  0  0  0
  -20.9114  -15.9821   24.8390 O   0  0  0  0  0  0  0  0  0  0  0  0
  -30.8400  -21.5509   19.9912 O   0  0  0  0  0  0  0  0  0  0  0  0
  -22.4887  -20.7731   20.2662 O   0  0  0  0  0  0  0  0  0  1  0  0
  -20.1131  -24.9592   20.6525 O   0  0  0  0  0  0  0  0  0  0  0  0
  -30.1725  -19.3514   25.0033 F   0  0  0  0  0  0  0  0  0  0  0  0
  -29.6901  -19.0564   20.3037 F   0  0  0  0  0  0  0  0  0  0  0  0
  1  2  1  0  0  0  0
  1  5  2  0  0  0  0
  2  6  2  0  0  0  0
  3  8  2  0  0  0  0
  3 17  1  0  0  0  0
  4  9  1  0  0  0  0
  4 17  2  0  0  0  0
  5 19  1  0  0  0  0
  6 21  1  0  0  0  0
  7 10  2  0  0  0  0
  7 20  1  0  0  0  0
  8 26  1  0  0  0  0
  9 26  2  0  0  0  0
 10 27  1  0  0  0  0
 11 12  2  0  0  0  0
 11 28  1  0  0  0  0
 12 30  1  0  0  0  0
 13 22  1  0  0  0  0
 13 27  2  0  0  0  0
 14 23  2  0  0  0  0
 14 24  1  0  0  0  0
 15 25  2  0  0  0  0
 15 29  1  0  0  0  0
 16 30  2  0  0  0  0
 16 31  1  0  0  0  0
 17 32  1  0  0  0  0
 18 32  1  0  0  0  0
 18 33  2  0  0  0  0
 18 34  1  0  0  0  0
 19 21  2  0  0  0  0
 19 40  1  0  0  0  0
 20 22  2  0  0  0  0
 20 41  1  0  0  0  0
 21 49  1  0  0  0  0
 22 42  1  0  0  0  0
 23 25  1  0  0  0  0
 23 52  1  0  0  0  0
 24 29  2  0  0  0  0
 24 53  1  0  0  0  0
 25 71  1  0  0  0  0
 26 81  1  0  0  0  0
 27 82  1  0  0  0  0
 28 31  2  0  0  0  0
 28 81  1  0  0  0  0
 29 83  1  0  0  0  0
 30 84  1  0  0  0  0
 31 85  1  0  0  0  0
 32 65  2  0  0  0  0
 33 66  1  0  0  0  0
 33 69  1  0  0  0  0
 34 70  1  0  0  0  0
 34 75  2  0  0  0  0
 35 50  1  0  0  0  0
 35 72  1  0  0  0  0
 35 76  2  0  0  0  0
 36 59  1  0  0  0  0
 36 60  1  0  0  0  0
 36 77  2  0  0  0  0
 37 61  1  0  0  0  0
 37 68  1  0  0  0  0
 37 78  2  0  0  0  0
 38 62  1  0  0  0  0
 38 67  1  0  0  0  0
 38 79  2  0  0  0  0
 39 63  1  0  0  0  0
 39 73  1  0  0  0  0
 39 80  2  0  0  0  0
 40 43  1  0  0  0  0
 41 50  1  0  0  0  0
 42 67  1  0  0  0  0
 43 45  1  0  0  0  0
 44 46  1  0  0  0  0
 44 47  1  0  0  0  0
 45 49  1  0  0  0  0
 46 51  1  0  0  0  0
 47 68  1  0  0  0  0
 48 51  1  0  0  0  0
 48 68  1  0  0  0  0
 49 72  1  0  0  0  0
 50 67  1  0  0  0  0
 51 66  1  0  0  0  0
 54 63  1  0  0  0  0
 55 64  1  0  0  0  0
 56 64  1  0  0  0  0
 57 64  1  0  0  0  0
 58 74  1  0  0  0  0
 59 82  1  0  0  0  0
 60 83  1  0  0  0  0
 61 71  1  0  0  0  0
 62 64  1  0  0  0  0
 62 73  1  0  0  0  0
 63 74  1  0  0  0  0
 65 66  1  0  0  0  0
M  CHG  1  74   1
M  ISO  4  37 100  59 101  61 100  82 101
M  END
> <Batch ID>
0128

> <Smiles>
CNC(C)C(=O)NC(C(=O)N1Cc2cc([101O:1][101CH2:1]C(=O)COc3cc(N[100CH2:0][100C:0](=O)N4CCCC(n5nc(-c6ccc(Oc7ccc(F)cc7F)cc6)c(C(N)=O)c5N)C4)c(C)cc3C)ccc2CC1C(=O)NC1CCCc2ccccc21)C(C)(C)C

> <Shape>
0.232

> <Color>
0.075

> <Negative vol penalty>
0.000

$$$$

  -OEChem-04052302163D

 83 91  0     1  0  0  0  0  0999 V2000
  -30.1653  -30.0428   26.2067 C   0  0  0  0  0  0  0  0  0  0  0  0
  -29.5830  -29.0890   25.3782 C   0  0  0  0  0  0  0  0  0  0  0  0
  -23.2153  -10.6047   21.6837 C   0  0  0  0  0  0  0  0  0  0  0  0
  -22.7436  -12.9484   21.3351 C   0  0  0  0  0  0  0  0  0  0  0  0
  -29.3799  -31.0469   26.7714 C   0  0  0  0  0  0  0  0  0  0  0  0
  -28.2146  -29.1381   25.1146 C   0  0  0  0  0  0  0  0  0  0  0  0
  -27.1532  -28.4282   20.2142 C   0  0  0  0  0  0  0  0  0  0  0  0
  -22.2042  -10.5438   22.6425 C   0  0  0  0  0  0  0  0  0  0  0  0
  -21.7324  -12.8875   22.2939 C   0  0  0  0  0  0  0  0  0  0  0  0
  -27.1906  -27.1184   19.7378 C   0  0  0  0  0  0  0  0  0  0  0  0
  -18.8298  -10.3342   22.6943 C   0  0  0  0  0  0  0  0  0  0  0  0
  -17.9522   -9.2513   22.6431 C   0  0  0  0  0  0  0  0  0  0  0  0
  -28.6760  -18.3215   19.8824 C   0  0  0  0  0  0  0  0  0  0  0  0
  -30.0436  -20.0816   20.8143 C   0  0  0  0  0  0  0  0  0  0  0  0
  -24.7864  -26.9990   19.8951 C   0  0  0  0  0  0  0  0  0  0  0  0
  -30.8590  -17.8076   20.7811 C   0  0  0  0  0  0  0  0  0  0  0  0
  -18.6259   -8.5999   24.8700 C   0  0  0  0  0  0  0  0  0  0  0  0
  -23.4851  -11.8071   21.0299 C   0  0  0  0  0  0  0  0  0  0  0  0
  -28.8600  -19.6661   20.2042 C   0  0  0  0  0  0  0  0  0  0  0  0
  -24.4054  -11.6402   18.6566 C   0  0  0  0  0  0  0  0  0  0  0  0
  -28.0029  -31.1141   26.5069 C   0  0  0  0  0  0  0  0  0  0  0  0
  -25.9310  -29.0305   20.5454 C   0  0  0  0  0  0  0  0  0  0  0  0
  -27.4098  -30.1433   25.6773 C   0  0  0  0  0  0  0  0  0  0  0  0
  -24.7360  -28.3174   20.3730 C   0  0  0  0  0  0  0  0  0  0  0  0
  -29.6754  -17.3921   20.1709 C   0  0  0  0  0  0  0  0  0  0  0  0
  -21.4627  -11.6852   22.9476 C   0  0  0  0  0  0  0  0  0  0  0  0
  -26.0074  -26.4026   19.5810 C   0  0  0  0  0  0  0  0  0  0  0  0
  -19.6055  -10.5500   23.8334 C   0  0  0  0  0  0  0  0  0  0  0  0
  -17.8502   -8.3841   23.7309 C   0  0  0  0  0  0  0  0  0  0  0  0
  -31.0430  -19.1523   21.1029 C   0  0  0  0  0  0  0  0  0  0  0  0
  -19.5035   -9.6829   24.9212 C   0  0  0  0  0  0  0  0  0  0  0  0
  -24.5299  -11.8707   20.0398 C   0  0  0  0  0  0  0  0  0  0  0  0
  -25.6739  -11.8228   18.1625 C   0  0  0  0  0  0  0  0  0  0  0  0
  -27.8040  -20.6480   19.9004 C   0  0  0  0  0  0  0  0  0  0  0  0
  -27.9994  -21.9705   19.8038 C   0  0  0  0  0  0  0  0  0  0  0  0
  -23.2468  -11.2921   17.8871 C   0  0  0  0  0  0  0  0  0  0  0  0
  -26.8585  -22.8827   19.5009 C   0  0  0  0  0  0  0  0  0  0  0  0
  -24.6595  -30.2070   23.2105 C   0  0  0  0  0  0  0  0  0  0  0  0
  -22.2827  -31.1310   21.2057 C   0  0  0  0  0  0  0  0  0  0  0  0
  -20.6278  -30.6527   18.2596 C   0  0  0  0  0  0  0  0  0  0  0  0
  -30.3803  -14.9760   20.0633 C   0  0  0  0  0  0  0  0  0  0  0  0
  -27.1864  -32.1901   27.1779 C   0  0  0  0  0  0  0  0  0  0  0  0
  -25.9054  -30.4533   21.0327 C   0  0  0  0  0  0  0  0  0  0  0  0
  -23.3962  -28.9254   20.6950 C   0  0  0  0  0  0  0  0  0  0  0  0
  -25.8106  -32.3925   26.5483 C   0  0  0  0  0  0  0  0  0  0  0  0
  -30.2763  -11.4722   19.4389 C   0  0  0  0  0  0  0  0  0  0  0  0
  -25.1261  -31.0489   26.3179 C   0  0  0  0  0  0  0  0  0  0  0  0
  -28.7795  -11.1569   19.3902 C   0  0  0  0  0  0  0  0  0  0  0  0
  -30.5978  -12.5369   20.4862 C   0  0  0  0  0  0  0  0  0  0  0  0
  -28.3192  -13.4595   20.3245 C   0  0  0  0  0  0  0  0  0  0  0  0
  -25.9332  -30.1777   25.3478 C   0  0  1  0  0  0  0  0  0  0  0  0
  -24.6468  -30.7907   21.8260 C   0  0  1  0  0  0  0  0  0  0  0  0
  -27.9381  -12.4393   19.2393 C   0  0  2  0  0  0  0  0  0  0  0  0
  -18.7037  -31.5394   16.9146 C   0  0  0  0  0  0  0  0  0  0  0  0
  -20.3284  -29.7117   23.0701 C   0  0  0  0  0  0  0  0  0  0  0  0
  -18.6238  -29.8022   21.2386 C   0  0  0  0  0  0  0  0  0  0  0  0
  -19.5287  -31.9171   22.2035 C   0  0  0  0  0  0  0  0  0  0  0  0
  -22.3963  -31.4022   16.0081 C   0  0  0  0  0  0  0  0  0  0  0  0
  -27.2047  -24.3543   19.4172 C   0  0  0  0  0  0  0  0  0  1  0  0
  -21.0012  -30.5075   20.7079 C   0  0  1  0  0  0  0  0  0  0  0  0
  -20.1995  -31.6252   17.1755 C   0  0  2  0  0  0  0  0  0  0  0  0
  -19.8958  -30.4722   21.8007 C   0  0  0  0  0  0  0  0  0  0  0  0
  -25.7789  -12.1764   20.4012 N   0  0  0  0  0  0  0  0  0  0  0  0
  -26.4508  -12.1391   19.2380 N   0  0  0  0  0  0  0  0  0  0  0  0
  -23.4240  -30.3172   21.1743 N   0  0  0  0  0  0  0  0  0  0  0  0
  -29.7658  -13.7241   20.2781 N   0  0  0  0  0  0  0  0  0  0  0  0
  -26.1893  -11.7421   16.9175 N   0  0  0  0  0  0  0  0  0  0  0  0
  -22.0224  -11.1439   18.5529 N   0  0  0  0  0  0  0  0  0  0  0  0
  -29.4889  -16.0259   19.8450 N   0  0  0  0  0  0  0  0  0  0  0  0
  -25.7286  -30.6171   23.9841 N   0  0  0  0  0  0  0  0  0  0  0  0
  -20.6290  -31.2445   19.5051 N   0  0  0  0  0  0  0  0  0  0  0  0
  -20.9162  -31.3303   15.9026 N   0  3  0  0  0  0  0  0  0  0  0  0
  -23.2990  -11.1015   16.6484 O   0  0  0  0  0  0  0  0  0  0  0  0
  -25.7163  -22.4647   19.3310 O   0  0  0  0  0  0  0  0  0  0  0  0
  -23.7648  -29.4425   23.5522 O   0  0  0  0  0  0  0  0  0  0  0  0
  -22.2731  -32.2995   21.6009 O   0  0  0  0  0  0  0  0  0  0  0  0
  -20.9274  -29.4840   18.0256 O   0  0  0  0  0  0  0  0  0  0  0  0
  -31.6074  -15.1020   20.0454 O   0  0  0  0  0  0  0  0  0  0  0  0
  -20.4758  -11.6260   23.8831 O   0  0  0  0  0  0  0  0  0  0  0  0
  -26.0411  -25.1238   19.1168 O   0  0  0  0  0  0  0  0  0  1  0  0
  -17.0063   -7.3451   23.6821 F   0  0  0  0  0  0  0  0  0  0  0  0
  -32.1786  -19.5504   21.6912 F   0  0  0  0  0  0  0  0  0  0  0  0
  -20.2453   -9.8857   26.0187 F   0  0  0  0  0  0  0  0  0  0  0  0
  1  2  1  0  0  0  0
  1  5  2  0  0  0  0
  2  6  2  0  0  0  0
  3  8  2  0  0  0  0
  3 18  1  0  0  0  0
  4  9  1  0  0  0  0
  4 18  2  0  0  0  0
  5 21  1  0  0  0  0
  6 23  1  0  0  0  0
  7 10  2  0  0  0  0
  7 22  1  0  0  0  0
  8 26  1  0  0  0  0
  9 26  2  0  0  0  0
 10 27  1  0  0  0  0
 11 12  2  0  0  0  0
 11 28  1  0  0  0  0
 12 29  1  0  0  0  0
 13 19  2  0  0  0  0
 13 25  1  0  0  0  0
 14 19  1  0  0  0  0
 14 30  2  0  0  0  0
 15 24  1  0  0  0  0
 15 27  2  0  0  0  0
 16 25  2  0  0  0  0
 16 30  1  0  0  0  0
 17 29  2  0  0  0  0
 17 31  1  0  0  0  0
 18 32  1  0  0  0  0
 19 34  1  0  0  0  0
 20 32  1  0  0  0  0
 20 33  2  0  0  0  0
 20 36  1  0  0  0  0
 21 23  2  0  0  0  0
 21 42  1  0  0  0  0
 22 24  2  0  0  0  0
 22 43  1  0  0  0  0
 23 51  1  0  0  0  0
 24 44  1  0  0  0  0
 25 69  1  0  0  0  0
 26 79  1  0  0  0  0
 27 80  1  0  0  0  0
 28 31  2  0  0  0  0
 28 79  1  0  0  0  0
 29 81  1  0  0  0  0
 30 82  1  0  0  0  0
 31 83  1  0  0  0  0
 32 63  2  0  0  0  0
 33 64  1  0  0  0  0
 33 67  1  0  0  0  0
 34 35  2  0  0  0  0
 35 37  1  0  0  0  0
 36 68  1  0  0  0  0
 36 73  2  0  0  0  0
 37 59  1  0  0  0  0
 37 74  2  0  0  0  0
 38 52  1  0  0  0  0
 38 70  1  0  0  0  0
 38 75  2  0  0  0  0
 39 60  1  0  0  0  0
 39 65  1  0  0  0  0
 39 76  2  0  0  0  0
 40 61  1  0  0  0  0
 40 71  1  0  0  0  0
 40 77  2  0  0  0  0
 41 66  1  0  0  0  0
 41 69  1  0  0  0  0
 41 78  2  0  0  0  0
 42 45  1  0  0  0  0
 43 52  1  0  0  0  0
 44 65  1  0  0  0  0
 45 47  1  0  0  0  0
 46 48  1  0  0  0  0
 46 49  1  0  0  0  0
 47 51  1  0  0  0  0
 48 53  1  0  0  0  0
 49 66  1  0  0  0  0
 50 53  1  0  0  0  0
 50 66  1  0  0  0  0
 51 70  1  0  0  0  0
 52 65  1  0  0  0  0
 53 64  1  0  0  0  0
 54 61  1  0  0  0  0
 55 62  1  0  0  0  0
 56 62  1  0  0  0  0
 57 62  1  0  0  0  0
 58 72  1  0  0  0  0
 59 80  1  0  0  0  0
 60 62  1  0  0  0  0
 60 71  1  0  0  0  0
 61 72  1  0  0  0  0
 63 64  1  0  0  0  0
M  CHG  1  72   1
M  ISO  4  41 100  59 101  69 100  80 101
M  END
> <Batch ID>
0128

> <Smiles>
CNC(C)C(=O)NC(C(=O)N1Cc2cc([101O:1][101CH2:1]C(=O)C=Cc3cc(F)cc([100NH:0][100C:0](=O)N4CCCC(n5nc(-c6ccc(Oc7ccc(F)cc7F)cc6)c(C(N)=O)c5N)C4)c3)ccc2CC1C(=O)NC1CCCc2ccccc21)C(C)(C)C

> <Shape>
0.270

> <Color>
0.090

> <Negative vol penalty>
0.000

$$$$

  -OEChem-04052302163D

 84 92  0     1  0  0  0  0  0999 V2000
  -29.6062  -25.3970   17.3555 C   0  0  0  0  0  0  0  0  0  0  0  0
  -28.2276  -25.5692   17.4277 C   0  0  0  0  0  0  0  0  0  0  0  0
  -26.1970  -16.8076   18.0076 C   0  0  0  0  0  0  0  0  0  0  0  0
  -23.9318  -16.2599   18.6449 C   0  0  0  0  0  0  0  0  0  0  0  0
  -30.4094  -25.7511   18.4386 C   0  0  0  0  0  0  0  0  0  0  0  0
  -27.6513  -26.0946   18.5837 C   0  0  0  0  0  0  0  0  0  0  0  0
  -22.7432  -29.7420   18.9200 C   0  0  0  0  0  0  0  0  0  0  0  0
  -26.6781  -15.8255   18.8734 C   0  0  0  0  0  0  0  0  0  0  0  0
  -24.4129  -15.2778   19.5108 C   0  0  0  0  0  0  0  0  0  0  0  0
  -21.4010  -29.4853   19.1963 C   0  0  0  0  0  0  0  0  0  0  0  0
  -25.5883  -12.1176   19.2831 C   0  0  0  0  0  0  0  0  0  0  0  0
  -24.9532  -10.8758   19.2691 C   0  0  0  0  0  0  0  0  0  0  0  0
  -16.9309  -23.3349   20.9580 C   0  0  0  0  0  0  0  0  0  0  0  0
  -18.9642  -24.2152   19.9949 C   0  0  0  0  0  0  0  0  0  0  0  0
  -21.7703  -30.0734   21.5065 C   0  0  0  0  0  0  0  0  0  0  0  0
  -18.2146  -21.9937   19.4119 C   0  0  0  0  0  0  0  0  0  0  0  0
  -24.3909  -11.1371   21.6043 C   0  0  0  0  0  0  0  0  0  0  0  0
  -24.8239  -17.0248   17.8933 C   0  0  0  0  0  0  0  0  0  0  0  0
  -17.8585  -24.3688   20.8313 C   0  0  0  0  0  0  0  0  0  0  0  0
  -23.9823  -17.8834   15.6434 C   0  0  0  0  0  0  0  0  0  0  0  0
  -29.8437  -26.2901   19.6048 C   0  0  0  0  0  0  0  0  0  0  0  0
  -23.6130  -30.1565   19.9389 C   0  0  0  0  0  0  0  0  0  0  0  0
  -28.4476  -26.4550   19.6840 C   0  0  0  0  0  0  0  0  0  0  0  0
  -23.1226  -30.3371   21.2400 C   0  0  0  0  0  0  0  0  0  0  0  0
  -17.1090  -22.1473   20.2483 C   0  0  0  0  0  0  0  0  0  0  0  0
  -19.1423  -23.0276   19.2852 C   0  0  0  0  0  0  0  0  0  0  0  0
  -25.7861  -15.0606   19.6250 C   0  0  0  0  0  0  0  0  0  0  0  0
  -20.9150  -29.6482   20.4903 C   0  0  0  0  0  0  0  0  0  0  0  0
  -25.6248  -12.8691   20.4577 C   0  0  0  0  0  0  0  0  0  0  0  0
  -24.3545  -10.3856   20.4297 C   0  0  0  0  0  0  0  0  0  0  0  0
  -25.0261  -12.3788   21.6183 C   0  0  0  0  0  0  0  0  0  0  0  0
  -24.3263  -18.0395   16.9995 C   0  0  0  0  0  0  0  0  0  0  0  0
  -23.5683  -19.1320   15.2482 C   0  0  0  0  0  0  0  0  0  0  0  0
  -15.7478  -29.0967   22.2899 C   0  0  0  0  0  0  0  0  0  0  0  0
  -17.6714  -25.6221   21.5805 C   0  0  0  0  0  0  0  0  0  0  0  0
  -16.8348  -28.8233   21.5585 C   0  0  0  0  0  0  0  0  0  0  0  0
  -18.2451  -26.7973   21.2746 C   0  0  0  0  0  0  0  0  0  0  0  0
  -24.0323  -16.7143   14.8150 C   0  0  0  0  0  0  0  0  0  0  0  0
  -26.2436  -28.9636   21.2658 C   0  0  0  0  0  0  0  0  0  0  0  0
  -26.2772  -31.8075   22.8258 C   0  0  0  0  0  0  0  0  0  0  0  0
  -24.5290  -34.5083   23.9643 C   0  0  0  0  0  0  0  0  0  0  0  0
  -21.2805  -23.7976   18.1982 C   0  0  0  0  0  0  0  0  0  0  0  0
  -30.7479  -26.6140   20.7677 C   0  0  0  0  0  0  0  0  0  0  0  0
  -25.0521  -30.4551   19.6190 C   0  0  0  0  0  0  0  0  0  0  0  0
  -24.0106  -30.7997   22.3651 C   0  0  0  0  0  0  0  0  0  0  0  0
  -30.0956  -27.5134   21.8145 C   0  0  0  0  0  0  0  0  0  0  0  0
  -24.2336  -23.7761   16.2094 C   0  0  0  0  0  0  0  0  0  0  0  0
  -28.6935  -27.0139   22.1483 C   0  0  0  0  0  0  0  0  0  0  0  0
  -24.5578  -22.2881   16.0578 C   0  0  0  0  0  0  0  0  0  0  0  0
  -23.6722  -24.0961   17.5936 C   0  0  0  0  0  0  0  0  0  0  0  0
  -22.8485  -21.7886   17.8511 C   0  0  0  0  0  0  0  0  0  0  0  0
  -27.7877  -27.0450   20.9114 C   0  0  1  0  0  0  0  0  0  0  0  0
  -25.9641  -30.3770   20.8395 C   0  0  1  0  0  0  0  0  0  0  0  0
  -23.3562  -21.4067   16.4511 C   0  0  2  0  0  0  0  0  0  0  0  0
  -16.1178  -21.0411   20.3839 C   0  0  0  0  0  0  0  0  0  0  0  0
  -24.8226  -36.6511   25.2368 C   0  0  0  0  0  0  0  0  0  0  0  0
  -26.4463  -30.2327   25.4338 C   0  0  0  0  0  0  0  0  0  0  0  0
  -25.7847  -32.3165   26.6537 C   0  0  0  0  0  0  0  0  0  0  0  0
  -27.9066  -32.2609   25.3433 C   0  0  0  0  0  0  0  0  0  0  0  0
  -23.6271  -36.1345   21.6619 C   0  0  0  0  0  0  0  0  0  0  0  0
  -19.2918  -28.9388   22.0771 C   0  0  0  0  0  0  0  0  0  1  0  0
  -18.0305  -28.0608   22.0779 C   0  0  1  0  0  0  0  0  0  0  0  0
  -25.6953  -32.3242   24.1194 C   0  0  1  0  0  0  0  0  0  0  0  0
  -24.7993  -35.9986   23.8633 C   0  0  2  0  0  0  0  0  0  0  0  0
  -26.4417  -31.7730   25.3670 C   0  0  0  0  0  0  0  0  0  0  0  0
  -24.1467  -19.2889   17.4365 N   0  0  0  0  0  0  0  0  0  0  0  0
  -23.6854  -19.9291   16.3487 N   0  0  0  0  0  0  0  0  0  0  0  0
  -25.4114  -31.0727   22.0035 N   0  0  0  0  0  0  0  0  0  0  0  0
  -22.5342  -23.2253   17.8959 N   0  0  0  0  0  0  0  0  0  0  0  0
  -23.1194  -19.6148   14.0702 N   0  0  0  0  0  0  0  0  0  0  0  0
  -24.4826  -15.5135   15.3805 N   0  0  0  0  0  0  0  0  0  0  0  0
  -20.2659  -22.8710   18.4363 N   0  0  0  0  0  0  0  0  0  0  0  0
  -27.3404  -28.3956   20.6463 N   0  0  0  0  0  0  0  0  0  0  0  0
  -25.6983  -33.7794   24.0158 N   0  0  0  0  0  0  0  0  0  0  0  0
  -23.7447  -36.6621   23.0457 N   0  3  0  0  0  0  0  0  0  0  0  0
  -23.7036  -16.7376   13.6047 O   0  0  0  0  0  0  0  0  0  0  0  0
  -25.5188  -28.4285   22.0964 O   0  0  0  0  0  0  0  0  0  0  0  0
  -27.4546  -32.0530   22.5516 O   0  0  0  0  0  0  0  0  0  0  0  0
  -23.3940  -34.0380   23.9981 O   0  0  0  0  0  0  0  0  0  0  0  0
  -21.1123  -25.0197   18.2159 O   0  0  0  0  0  0  0  0  0  0  0  0
  -26.2551  -14.1021   20.4698 O   0  0  0  0  0  0  0  0  0  0  0  0
  -19.6055  -29.3978   20.7628 O   0  0  0  0  0  0  0  0  0  1  0  0
  -23.7432   -9.1938   20.4157 F   0  0  0  0  0  0  0  0  0  0  0  0
  -25.0569  -13.0968   22.7494 F   0  0  0  0  0  0  0  0  0  0  0  0
  1  2  1  0  0  0  0
  1  5  2  0  0  0  0
  2  6  2  0  0  0  0
  3  8  2  0  0  0  0
  3 18  1  0  0  0  0
  4  9  1  0  0  0  0
  4 18  2  0  0  0  0
  5 21  1  0  0  0  0
  6 23  1  0  0  0  0
  7 10  2  0  0  0  0
  7 22  1  0  0  0  0
  8 27  1  0  0  0  0
  9 27  2  0  0  0  0
 10 28  1  0  0  0  0
 11 12  2  0  0  0  0
 11 29  1  0  0  0  0
 12 30  1  0  0  0  0
 13 19  1  0  0  0  0
 13 25  2  0  0  0  0
 14 19  2  0  0  0  0
 14 26  1  0  0  0  0
 15 24  1  0  0  0  0
 15 28  2  0  0  0  0
 16 25  1  0  0  0  0
 16 26  2  0  0  0  0
 17 30  2  0  0  0  0
 17 31  1  0  0  0  0
 18 32  1  0  0  0  0
 19 35  1  0  0  0  0
 20 32  1  0  0  0  0
 20 33  2  0  0  0  0
 20 38  1  0  0  0  0
 21 23  2  0  0  0  0
 21 43  1  0  0  0  0
 22 24  2  0  0  0  0
 22 44  1  0  0  0  0
 23 52  1  0  0  0  0
 24 45  1  0  0  0  0
 25 55  1  0  0  0  0
 26 72  1  0  0  0  0
 27 81  1  0  0  0  0
 28 82  1  0  0  0  0
 29 31  2  0  0  0  0
 29 81  1  0  0  0  0
 30 83  1  0  0  0  0
 31 84  1  0  0  0  0
 32 66  2  0  0  0  0
 33 67  1  0  0  0  0
 33 70  1  0  0  0  0
 34 36  2  0  0  0  0
 35 37  2  0  0  0  0
 36 62  1  0  0  0  0
 37 62  1  0  0  0  0
 38 71  1  0  0  0  0
 38 76  2  0  0  0  0
 39 53  1  0  0  0  0
 39 73  1  0  0  0  0
 39 77  2  0  0  0  0
 40 63  1  0  0  0  0
 40 68  1  0  0  0  0
 40 78  2  0  0  0  0
 41 64  1  0  0  0  0
 41 74  1  0  0  0  0
 41 79  2  0  0  0  0
 42 69  1  0  0  0  0
 42 72  1  0  0  0  0
 42 80  2  0  0  0  0
 43 46  1  0  0  0  0
 44 53  1  0  0  0  0
 45 68  1  0  0  0  0
 46 48  1  0  0  0  0
 47 49  1  0  0  0  0
 47 50  1  0  0  0  0
 48 52  1  0  0  0  0
 49 54  1  0  0  0  0
 50 69  1  0  0  0  0
 51 54  1  0  0  0  0
 51 69  1  0  0  0  0
 52 73  1  0  0  0  0
 53 68  1  0  0  0  0
 54 67  1  0  0  0  0
 56 64  1  0  0  0  0
 57 65  1  0  0  0  0
 58 65  1  0  0  0  0
 59 65  1  0  0  0  0
 60 75  1  0  0  0  0
 61 62  1  0  0  0  0
 61 82  1  0  0  0  0
 63 65  1  0  0  0  0
 63 74  1  0  0  0  0
 64 75  1  0  0  0  0
 66 67  1  0  0  0  0
M  CHG  1  75   1
M  ISO  4  42 100  61 101  72 100  82 101
M  END
> <Batch ID>
0128

> <Smiles>
C=CC(C=Cc1cc(C)cc([100NH:0][100C:0](=O)N2CCCC(n3nc(-c4ccc(Oc5ccc(F)cc5F)cc4)c(C(N)=O)c3N)C2)c1)[101CH2:1][101O:1]c1ccc2c(c1)CN(C(=O)C(NC(=O)C(C)NC)C(C)(C)C)C(C(=O)NC1CCCc3ccccc31)C2

> <Shape>
0.259

> <Color>
0.060

> <Negative vol penalty>
0.000

$$$$

  -OEChem-04052302163D

 85 93  0     1  0  0  0  0  0999 V2000
  -35.7152  -33.4434   29.0602 C   0  0  0  0  0  0  0  0  0  0  0  0
  -35.4856  -32.3349   28.2516 C   0  0  0  0  0  0  0  0  0  0  0  0
  -23.2385   -9.7050   20.0790 C   0  0  0  0  0  0  0  0  0  0  0  0
  -23.9223   -9.9254   22.3857 C   0  0  0  0  0  0  0  0  0  0  0  0
  -34.7123  -34.3958   29.2366 C   0  0  0  0  0  0  0  0  0  0  0  0
  -34.2526  -32.1776   27.6196 C   0  0  0  0  0  0  0  0  0  0  0  0
  -33.2296  -29.7208   22.1039 C   0  0  0  0  0  0  0  0  0  0  0  0
  -22.5488   -8.5345   20.3952 C   0  0  0  0  0  0  0  0  0  0  0  0
  -23.2326   -8.7550   22.7020 C   0  0  0  0  0  0  0  0  0  0  0  0
  -32.8194  -28.4495   21.7048 C   0  0  0  0  0  0  0  0  0  0  0  0
  -20.0333   -7.8278   23.2722 C   0  0  0  0  0  0  0  0  0  0  0  0
  -19.2420   -7.8339   24.4208 C   0  0  0  0  0  0  0  0  0  0  0  0
  -30.5407  -29.2311   21.5782 C   0  0  0  0  0  0  0  0  0  0  0  0
  -31.5679  -17.7393   21.3604 C   0  0  0  0  0  0  0  0  0  0  0  0
  -29.8923  -19.4226   22.8239 C   0  0  0  0  0  0  0  0  0  0  0  0
  -20.5594   -6.0284   25.3380 C   0  0  0  0  0  0  0  0  0  0  0  0
  -23.9252  -10.4004   21.0742 C   0  0  0  0  0  0  0  0  0  0  0  0
  -24.1370  -12.9245   20.7712 C   0  0  0  0  0  0  0  0  0  0  0  0
  -33.4698  -34.2551   28.5988 C   0  0  0  0  0  0  0  0  0  0  0  0
  -32.2953  -30.7557   22.2539 C   0  0  0  0  0  0  0  0  0  0  0  0
  -33.2318  -33.1284   27.7887 C   0  0  0  0  0  0  0  0  0  0  0  0
  -30.9420  -30.5153   21.9768 C   0  0  0  0  0  0  0  0  0  0  0  0
  -32.0022  -19.0152   21.7194 C   0  0  0  0  0  0  0  0  0  0  0  0
  -29.4580  -18.1466   22.4648 C   0  0  0  0  0  0  0  0  0  0  0  0
  -30.2957  -17.3050   21.7330 C   0  0  0  0  0  0  0  0  0  0  0  0
  -22.5459   -8.0595   21.7067 C   0  0  0  0  0  0  0  0  0  0  0  0
  -31.4744  -28.2037   21.4446 C   0  0  0  0  0  0  0  0  0  0  0  0
  -21.0876   -6.9219   23.1564 C   0  0  0  0  0  0  0  0  0  0  0  0
  -31.1644  -19.8569   22.4512 C   0  0  0  0  0  0  0  0  0  0  0  0
  -19.5050   -6.9343   25.4537 C   0  0  0  0  0  0  0  0  0  0  0  0
  -21.3507   -6.0222   24.1894 C   0  0  0  0  0  0  0  0  0  0  0  0
  -24.6383  -11.6092   20.7480 C   0  0  0  0  0  0  0  0  0  0  0  0
  -25.1992  -13.7037   20.3827 C   0  0  0  0  0  0  0  0  0  0  0  0
  -22.8281  -13.3994   21.1133 C   0  0  0  0  0  0  0  0  0  0  0  0
  -31.3149  -32.5581   24.6817 C   0  0  0  0  0  0  0  0  0  0  0  0
  -29.6500  -34.0947   22.3602 C   0  0  0  0  0  0  0  0  0  0  0  0
  -28.2151  -33.9813   19.2659 C   0  0  0  0  0  0  0  0  0  0  0  0
  -30.5940  -15.0591   20.6315 C   0  0  0  0  0  0  0  0  0  0  0  0
  -32.4001  -35.2864   28.8573 C   0  0  0  0  0  0  0  0  0  0  0  0
  -32.7577  -32.1284   22.6594 C   0  0  0  0  0  0  0  0  0  0  0  0
  -29.9022  -31.5976   22.1033 C   0  0  0  0  0  0  0  0  0  0  0  0
  -31.2515  -35.2377   27.8530 C   0  0  0  0  0  0  0  0  0  0  0  0
  -29.6859  -12.4171   18.4242 C   0  0  0  0  0  0  0  0  0  0  0  0
  -30.7878  -33.7999   27.6418 C   0  0  0  0  0  0  0  0  0  0  0  0
  -28.2505  -12.0796   18.8339 C   0  0  0  0  0  0  0  0  0  0  0  0
  -30.5483  -12.7853   19.6302 C   0  0  0  0  0  0  0  0  0  0  0  0
  -28.5620  -13.5049   20.8975 C   0  0  0  0  0  0  0  0  0  0  0  0
  -31.9160  -32.9352   27.0665 C   0  0  1  0  0  0  0  0  0  0  0  0
  -31.6484  -32.9743   23.2770 C   0  0  1  0  0  0  0  0  0  0  0  0
  -27.6383  -13.1906   19.7093 C   0  0  2  0  0  0  0  0  0  0  0  0
  -33.3664  -19.4636   21.3104 C   0  0  0  0  0  0  0  0  0  0  0  0
  -27.0938  -17.7619   21.7238 C   0  0  0  0  0  0  0  0  0  0  0  0
  -26.8936  -35.3796   17.6549 C   0  0  0  0  0  0  0  0  0  0  0  0
  -27.1445  -33.6671   24.0482 C   0  0  0  0  0  0  0  0  0  0  0  0
  -25.7732  -34.2025   22.0230 C   0  0  0  0  0  0  0  0  0  0  0  0
  -27.3088  -35.9212   22.9775 C   0  0  0  0  0  0  0  0  0  0  0  0
  -30.3350  -33.8201   17.2069 C   0  0  0  0  0  0  0  0  0  0  0  0
  -28.0905  -17.7073   22.8772 C   0  0  0  0  0  0  0  0  0  0  0  0
  -30.9363  -24.6268   21.6487 C   0  0  0  0  0  0  0  0  0  0  0  0
  -31.7034  -23.4194   22.1764 C   0  0  0  0  0  0  0  0  0  0  0  0
  -31.8307  -25.8540   21.5334 C   0  0  0  0  0  0  0  0  0  1  0  0
  -30.8004  -22.2041   22.3326 C   0  0  0  0  0  0  0  0  0  0  0  0
  -28.2801  -33.9386   21.7455 C   0  0  1  0  0  0  0  0  0  0  0  0
  -28.2824  -34.9374   18.0887 C   0  0  2  0  0  0  0  0  0  0  0  0
  -27.1457  -34.4112   22.6979 C   0  0  0  0  0  0  0  0  0  0  0  0
  -25.9193  -11.5522   20.3742 N   0  0  0  0  0  0  0  0  0  0  0  0
  -26.2319  -12.8414   20.1589 N   0  0  0  0  0  0  0  0  0  0  0  0
  -30.4029  -32.9213   22.5088 N   0  0  0  0  0  0  0  0  0  0  0  0
  -29.9075  -13.8465   20.4100 N   0  0  0  0  0  0  0  0  0  0  0  0
  -25.3413  -15.0356   20.2141 N   0  0  0  0  0  0  0  0  0  0  0  0
  -21.8552  -12.4636   21.4903 N   0  0  0  0  0  0  0  0  0  0  0  0
  -29.8726  -16.0057   21.3581 N   0  0  0  0  0  0  0  0  0  0  0  0
  -32.0738  -33.1871   25.6501 N   0  0  0  0  0  0  0  0  0  0  0  0
  -28.3223  -34.6450   20.4697 N   0  0  0  0  0  0  0  0  0  0  0  0
  -28.9515  -34.2841   16.9283 N   0  3  0  0  0  0  0  0  0  0  0  0
  -22.5255  -14.6160   21.0697 O   0  0  0  0  0  0  0  0  0  0  0  0
  -30.4332  -31.7287   24.8729 O   0  0  0  0  0  0  0  0  0  0  0  0
  -30.0406  -35.2175   22.6897 O   0  0  0  0  0  0  0  0  0  0  0  0
  -28.0773  -32.7675   19.1311 O   0  0  0  0  0  0  0  0  0  0  0  0
  -31.7272  -15.2543   20.1845 O   0  0  0  0  0  0  0  0  0  0  0  0
  -21.8728   -6.9176   22.0157 O   0  0  0  0  0  0  0  0  0  0  0  0
  -31.0712  -26.9636   21.0556 O   0  0  0  0  0  0  0  0  0  1  0  0
  -31.5757  -21.1138   22.8115 O   0  0  0  0  0  0  0  0  0  0  0  0
  -18.7460   -6.9413   26.5574 F   0  0  0  0  0  0  0  0  0  0  0  0
  -22.3630   -5.1504   24.0844 F   0  0  0  0  0  0  0  0  0  0  0  0
  1  2  1  0  0  0  0
  1  5  2  0  0  0  0
  2  6  2  0  0  0  0
  3  8  2  0  0  0  0
  3 17  1  0  0  0  0
  4  9  1  0  0  0  0
  4 17  2  0  0  0  0
  5 19  1  0  0  0  0
  6 21  1  0  0  0  0
  7 10  2  0  0  0  0
  7 20  1  0  0  0  0
  8 26  1  0  0  0  0
  9 26  2  0  0  0  0
 10 27  1  0  0  0  0
 11 12  2  0  0  0  0
 11 28  1  0  0  0  0
 12 30  1  0  0  0  0
 13 22  1  0  0  0  0
 13 27  2  0  0  0  0
 14 23  2  0  0  0  0
 14 25  1  0  0  0  0
 15 24  1  0  0  0  0
 15 29  2  0  0  0  0
 16 30  2  0  0  0  0
 16 31  1  0  0  0  0
 17 32  1  0  0  0  0
 18 32  1  0  0  0  0
 18 33  2  0  0  0  0
 18 34  1  0  0  0  0
 19 21  2  0  0  0  0
 19 39  1  0  0  0  0
 20 22  2  0  0  0  0
 20 40  1  0  0  0  0
 21 48  1  0  0  0  0
 22 41  1  0  0  0  0
 23 29  1  0  0  0  0
 23 51  1  0  0  0  0
 24 25  2  0  0  0  0
 24 58  1  0  0  0  0
 25 72  1  0  0  0  0
 26 81  1  0  0  0  0
 27 82  1  0  0  0  0
 28 31  2  0  0  0  0
 28 81  1  0  0  0  0
 29 83  1  0  0  0  0
 30 84  1  0  0  0  0
 31 85  1  0  0  0  0
 32 66  2  0  0  0  0
 33 67  1  0  0  0  0
 33 70  1  0  0  0  0
 34 71  1  0  0  0  0
 34 76  2  0  0  0  0
 35 49  1  0  0  0  0
 35 73  1  0  0  0  0
 35 77  2  0  0  0  0
 36 63  1  0  0  0  0
 36 68  1  0  0  0  0
 36 78  2  0  0  0  0
 37 64  1  0  0  0  0
 37 74  1  0  0  0  0
 37 79  2  0  0  0  0
 38 69  1  0  0  0  0
 38 72  1  0  0  0  0
 38 80  2  0  0  0  0
 39 42  1  0  0  0  0
 40 49  1  0  0  0  0
 41 68  1  0  0  0  0
 42 44  1  0  0  0  0
 43 45  1  0  0  0  0
 43 46  1  0  0  0  0
 44 48  1  0  0  0  0
 45 50  1  0  0  0  0
 46 69  1  0  0  0  0
 47 50  1  0  0  0  0
 47 69  1  0  0  0  0
 48 73  1  0  0  0  0
 49 68  1  0  0  0  0
 50 67  1  0  0  0  0
 52 58  1  0  0  0  0
 53 64  1  0  0  0  0
 54 65  1  0  0  0  0
 55 65  1  0  0  0  0
 56 65  1  0  0  0  0
 57 75  1  0  0  0  0
 59 60  1  0  0  0  0
 59 61  1  0  0  0  0
 60 62  1  0  0  0  0
 61 82  1  0  0  0  0
 62 83  1  0  0  0  0
 63 65  1  0  0  0  0
 63 74  1  0  0  0  0
 64 75  1  0  0  0  0
 66 67  1  0  0  0  0
M  CHG  1  75   1
M  ISO  4  38 100  61 101  72 100  82 101
M  END
> <Batch ID>
0128

> <Smiles>
CCc1cc(OCCC[101CH2:1][101O:1]c2ccc3c(c2)CN(C(=O)C(NC(=O)C(C)NC)C(C)(C)C)C(C(=O)NC2CCCc4ccccc42)C3)c(C)cc1[100NH:0][100C:0](=O)N1CCCC(n2nc(-c3ccc(Oc4ccc(F)cc4F)cc3)c(C(N)=O)c2N)C1

> <Shape>
0.202

> <Color>
0.181

> <Negative vol penalty>
0.000

$$$$

  -OEChem-04052302163D

 84 92  0     1  0  0  0  0  0999 V2000
  -21.4303  -28.2923   19.8610 C   0  0  0  0  0  0  0  0  0  0  0  0
  -22.0389  -27.2855   20.6035 C   0  0  0  0  0  0  0  0  0  0  0  0
  -23.0735   -9.8719   19.9389 C   0  0  0  0  0  0  0  0  0  0  0  0
  -23.8354   -9.8728   22.2317 C   0  0  0  0  0  0  0  0  0  0  0  0
  -21.0541  -28.0523   18.5401 C   0  0  0  0  0  0  0  0  0  0  0  0
  -22.2707  -26.0377   20.0259 C   0  0  0  0  0  0  0  0  0  0  0  0
  -26.9053  -24.2619   21.0318 C   0  0  0  0  0  0  0  0  0  0  0  0
  -32.6598  -17.4791   23.4611 C   0  0  0  0  0  0  0  0  0  0  0  0
  -32.0705  -16.5973   22.5552 C   0  0  0  0  0  0  0  0  0  0  0  0
  -22.3286   -8.7191   20.1869 C   0  0  0  0  0  0  0  0  0  0  0  0
  -23.0904   -8.7200   22.4797 C   0  0  0  0  0  0  0  0  0  0  0  0
  -27.1150  -23.7084   22.2941 C   0  0  0  0  0  0  0  0  0  0  0  0
  -19.8618   -7.9245   23.0831 C   0  0  0  0  0  0  0  0  0  0  0  0
  -19.1058   -7.8827   24.2545 C   0  0  0  0  0  0  0  0  0  0  0  0
  -29.8879  -17.4472   23.1477 C   0  0  0  0  0  0  0  0  0  0  0  0
  -26.8737  -21.4981   21.3585 C   0  0  0  0  0  0  0  0  0  0  0  0
  -20.3456   -5.9422   24.9855 C   0  0  0  0  0  0  0  0  0  0  0  0
  -23.8270  -10.4488   20.9613 C   0  0  0  0  0  0  0  0  0  0  0  0
  -30.4773  -18.3291   24.0537 C   0  0  0  0  0  0  0  0  0  0  0  0
  -24.1716  -12.9738   20.8467 C   0  0  0  0  0  0  0  0  0  0  0  0
  -21.2901  -26.8040   17.9429 C   0  0  0  0  0  0  0  0  0  0  0  0
  -26.6670  -23.4366   19.9234 C   0  0  0  0  0  0  0  0  0  0  0  0
  -21.8960  -25.7803   18.6962 C   0  0  0  0  0  0  0  0  0  0  0  0
  -26.6639  -22.0435   20.0827 C   0  0  0  0  0  0  0  0  0  0  0  0
  -31.8632  -18.3450   24.2104 C   0  0  0  0  0  0  0  0  0  0  0  0
  -30.6846  -16.5813   22.3985 C   0  0  0  0  0  0  0  0  0  0  0  0
  -22.3370   -8.1431   21.4572 C   0  0  0  0  0  0  0  0  0  0  0  0
  -27.0963  -22.3264   22.4582 C   0  0  0  0  0  0  0  0  0  0  0  0
  -20.8597   -6.9750   22.8628 C   0  0  0  0  0  0  0  0  0  0  0  0
  -19.3477   -6.8916   25.2057 C   0  0  0  0  0  0  0  0  0  0  0  0
  -21.1016   -5.9839   23.8140 C   0  0  0  0  0  0  0  0  0  0  0  0
  -24.5972  -11.6394   20.7056 C   0  0  0  0  0  0  0  0  0  0  0  0
  -25.2643  -13.7229   20.4843 C   0  0  0  0  0  0  0  0  0  0  0  0
  -29.6086  -19.2302   24.8303 C   0  0  0  0  0  0  0  0  0  0  0  0
  -29.6879  -20.5714   24.8113 C   0  0  0  0  0  0  0  0  0  0  0  0
  -22.9021  -13.4901   21.2679 C   0  0  0  0  0  0  0  0  0  0  0  0
  -24.2534  -23.0513   17.8913 C   0  0  0  0  0  0  0  0  0  0  0  0
  -26.3375  -21.0622   16.4004 C   0  0  0  0  0  0  0  0  0  0  0  0
  -29.0866  -19.0522   16.6214 C   0  0  0  0  0  0  0  0  0  0  0  0
  -30.7318  -14.7619   20.6567 C   0  0  0  0  0  0  0  0  0  0  0  0
  -20.8229  -26.5766   16.5270 C   0  0  0  0  0  0  0  0  0  0  0  0
  -26.4692  -24.0483   18.5636 C   0  0  0  0  0  0  0  0  0  0  0  0
  -26.4326  -21.1130   18.9211 C   0  0  0  0  0  0  0  0  0  0  0  0
  -21.4434  -25.3458   15.8711 C   0  0  0  0  0  0  0  0  0  0  0  0
  -29.6127  -12.3548   18.2839 C   0  0  0  0  0  0  0  0  0  0  0  0
  -21.3863  -24.1507   16.8173 C   0  0  0  0  0  0  0  0  0  0  0  0
  -28.1731  -12.0638   18.7140 C   0  0  0  0  0  0  0  0  0  0  0  0
  -30.5290  -12.5798   19.4853 C   0  0  0  0  0  0  0  0  0  0  0  0
  -28.6241  -13.3033   20.8698 C   0  0  0  0  0  0  0  0  0  0  0  0
  -22.1867  -24.4214   18.0970 C   0  0  1  0  0  0  0  0  0  0  0  0
  -25.7250  -23.1309   17.5983 C   0  0  1  0  0  0  0  0  0  0  0  0
  -27.6501  -13.1338   19.6924 C   0  0  2  0  0  0  0  0  0  0  0  0
  -32.5289  -19.2763   25.1719 C   0  0  0  0  0  0  0  0  0  0  0  0
  -30.5287  -17.5285   15.2444 C   0  0  0  0  0  0  0  0  0  0  0  0
  -27.7595  -20.8923   26.4866 C   0  0  0  0  0  0  0  0  0  0  0  0
  -29.7600  -22.3882   26.4927 C   0  0  0  0  0  0  0  0  0  0  0  0
  -24.1788  -18.9094   16.5263 C   0  0  0  0  0  0  0  0  0  0  0  0
  -25.9465  -17.2065   16.0327 C   0  0  0  0  0  0  0  0  0  0  0  0
  -25.4416  -18.9956   14.3694 C   0  0  0  0  0  0  0  0  0  0  0  0
  -31.4877  -20.7210   17.0787 C   0  0  0  0  0  0  0  0  0  0  0  0
  -28.1344  -22.5110   24.5899 C   0  0  0  0  0  0  0  0  0  1  0  0
  -26.6685  -19.5925   16.4979 C   0  0  1  0  0  0  0  0  0  0  0  0
  -30.3294  -18.9467   15.7561 C   0  0  2  0  0  0  0  0  0  0  0  0
  -28.8246  -21.5583   25.5923 C   0  0  0  0  0  0  0  0  0  0  0  0
  -25.5613  -18.6933   15.8790 C   0  0  0  0  0  0  0  0  0  0  0  0
  -25.8616  -11.5431   20.2861 N   0  0  0  0  0  0  0  0  0  0  0  0
  -26.2399  -12.8265   20.1603 N   0  0  0  0  0  0  0  0  0  0  0  0
  -26.2380  -21.7595   17.6128 N   0  0  0  0  0  0  0  0  0  0  0  0
  -29.9720  -13.6093   20.3655 N   0  0  0  0  0  0  0  0  0  0  0  0
  -25.4761  -15.0543   20.4141 N   0  0  0  0  0  0  0  0  0  0  0  0
  -21.8894  -12.5814   21.6040 N   0  0  0  0  0  0  0  0  0  0  0  0
  -30.0862  -15.6858   21.4778 N   0  0  0  0  0  0  0  0  0  0  0  0
  -23.6043  -24.2704   17.8479 N   0  0  0  0  0  0  0  0  0  0  0  0
  -27.9827  -19.4287   15.8860 N   0  0  0  0  0  0  0  0  0  0  0  0
  -31.5378  -19.3393   16.5350 N   0  3  0  0  0  0  0  0  0  0  0  0
  -22.6672  -14.7209   21.3282 O   0  0  0  0  0  0  0  0  0  0  0  0
  -23.7442  -21.9640   18.1369 O   0  0  0  0  0  0  0  0  0  0  0  0
  -26.1801  -21.5742   15.2893 O   0  0  0  0  0  0  0  0  0  0  0  0
  -29.0935  -18.8200   17.8283 O   0  0  0  0  0  0  0  0  0  0  0  0
  -31.8607  -14.9304   20.1886 O   0  0  0  0  0  0  0  0  0  0  0  0
  -21.6099   -7.0183   21.6996 O   0  0  0  0  0  0  0  0  0  0  0  0
  -27.3000  -21.7836   23.6893 O   0  0  0  0  0  0  0  0  0  1  0  0
  -18.6227   -6.8526   26.3313 F   0  0  0  0  0  0  0  0  0  0  0  0
  -22.0597   -5.0698   23.6085 F   0  0  0  0  0  0  0  0  0  0  0  0
  1  2  1  0  0  0  0
  1  5  2  0  0  0  0
  2  6  2  0  0  0  0
  3 10  2  0  0  0  0
  3 18  1  0  0  0  0
  4 11  1  0  0  0  0
  4 18  2  0  0  0  0
  5 21  1  0  0  0  0
  6 23  1  0  0  0  0
  7 12  2  0  0  0  0
  7 22  1  0  0  0  0
  8  9  2  0  0  0  0
  8 25  1  0  0  0  0
  9 26  1  0  0  0  0
 10 27  1  0  0  0  0
 11 27  2  0  0  0  0
 12 28  1  0  0  0  0
 13 14  2  0  0  0  0
 13 29  1  0  0  0  0
 14 30  1  0  0  0  0
 15 19  1  0  0  0  0
 15 26  2  0  0  0  0
 16 24  1  0  0  0  0
 16 28  2  0  0  0  0
 17 30  2  0  0  0  0
 17 31  1  0  0  0  0
 18 32  1  0  0  0  0
 19 25  2  0  0  0  0
 19 34  1  0  0  0  0
 20 32  1  0  0  0  0
 20 33  2  0  0  0  0
 20 36  1  0  0  0  0
 21 23  2  0  0  0  0
 21 41  1  0  0  0  0
 22 24  2  0  0  0  0
 22 42  1  0  0  0  0
 23 50  1  0  0  0  0
 24 43  1  0  0  0  0
 25 53  1  0  0  0  0
 26 72  1  0  0  0  0
 27 81  1  0  0  0  0
 28 82  1  0  0  0  0
 29 31  2  0  0  0  0
 29 81  1  0  0  0  0
 30 83  1  0  0  0  0
 31 84  1  0  0  0  0
 32 66  2  0  0  0  0
 33 67  1  0  0  0  0
 33 70  1  0  0  0  0
 34 35  2  0  0  0  0
 35 64  1  0  0  0  0
 36 71  1  0  0  0  0
 36 76  2  0  0  0  0
 37 51  1  0  0  0  0
 37 73  1  0  0  0  0
 37 77  2  0  0  0  0
 38 62  1  0  0  0  0
 38 68  1  0  0  0  0
 38 78  2  0  0  0  0
 39 63  1  0  0  0  0
 39 74  1  0  0  0  0
 39 79  2  0  0  0  0
 40 69  1  0  0  0  0
 40 72  1  0  0  0  0
 40 80  2  0  0  0  0
 41 44  1  0  0  0  0
 42 51  1  0  0  0  0
 43 68  1  0  0  0  0
 44 46  1  0  0  0  0
 45 47  1  0  0  0  0
 45 48  1  0  0  0  0
 46 50  1  0  0  0  0
 47 52  1  0  0  0  0
 48 69  1  0  0  0  0
 49 52  1  0  0  0  0
 49 69  1  0  0  0  0
 50 73  1  0  0  0  0
 51 68  1  0  0  0  0
 52 67  1  0  0  0  0
 54 63  1  0  0  0  0
 55 64  1  0  0  0  0
 56 64  1  0  0  0  0
 57 65  1  0  0  0  0
 58 65  1  0  0  0  0
 59 65  1  0  0  0  0
 60 75  1  0  0  0  0
 61 64  1  0  0  0  0
 61 82  1  0  0  0  0
 62 65  1  0  0  0  0
 62 74  1  0  0  0  0
 63 75  1  0  0  0  0
 66 67  1  0  0  0  0
M  CHG  1  75   1
M  ISO  4  40 100  61 101  72 100  82 101
M  END
> <Batch ID>
0128

> <Smiles>
CNC(C)C(=O)NC(C(=O)N1Cc2cc([101O:1][101CH2:1]C(C)(C)C=Cc3cc([100NH:0][100C:0](=O)N4CCCC(n5nc(-c6ccc(Oc7ccc(F)cc7F)cc6)c(C(N)=O)c5N)C4)ccc3C)ccc2CC1C(=O)NC1CCCc2ccccc21)C(C)(C)C

> <Shape>
0.187

> <Color>
0.196

> <Negative vol penalty>
0.000

$$$$

  -OEChem-04052302163D

 96105  0     1  0  0  0  0  0999 V2000
  -27.9567  -33.9675   25.3867 C   0  0  0  0  0  0  0  0  0  0  0  0
  -28.1797  -32.7795   24.6980 C   0  0  0  0  0  0  0  0  0  0  0  0
  -18.2747  -13.5683   21.8987 C   0  0  0  0  0  0  0  0  0  0  0  0
  -19.7758  -15.3145   21.1673 C   0  0  0  0  0  0  0  0  0  0  0  0
  -29.7870  -12.6361   20.7732 C   0  0  0  0  0  0  0  0  0  0  0  0
  -26.7321  -34.1879   26.0157 C   0  0  0  0  0  0  0  0  0  0  0  0
  -27.1785  -31.8106   24.6388 C   0  0  0  0  0  0  0  0  0  0  0  0
  -26.6048  -29.8912   19.9879 C   0  0  0  0  0  0  0  0  0  0  0  0
  -28.6005  -11.9169   20.6296 C   0  0  0  0  0  0  0  0  0  0  0  0
  -17.6493  -14.4677   22.7621 C   0  0  0  0  0  0  0  0  0  0  0  0
  -19.1502  -16.2139   22.0307 C   0  0  0  0  0  0  0  0  0  0  0  0
  -27.5375  -28.9425   19.5711 C   0  0  0  0  0  0  0  0  0  0  0  0
  -17.7148  -19.0606   23.7781 C   0  0  0  0  0  0  0  0  0  0  0  0
  -17.4061  -20.3277   23.2835 C   0  0  0  0  0  0  0  0  0  0  0  0
  -28.7898  -14.5113   19.6215 C   0  0  0  0  0  0  0  0  0  0  0  0
  -25.9704  -27.1832   20.0893 C   0  0  0  0  0  0  0  0  0  0  0  0
  -33.3198  -16.6948   20.6255 C   0  0  0  0  0  0  0  0  0  0  0  0
  -33.9638  -19.0210   20.7293 C   0  0  0  0  0  0  0  0  0  0  0  0
  -31.6306  -18.4204   20.5485 C   0  0  0  0  0  0  0  0  0  0  0  0
  -16.0074  -19.3250   21.5878 C   0  0  0  0  0  0  0  0  0  0  0  0
  -19.3381  -13.9917   21.1013 C   0  0  0  0  0  0  0  0  0  0  0  0
  -29.8816  -13.9333   20.2692 C   0  0  0  0  0  0  0  0  0  0  0  0
  -19.6457  -12.7938   18.8701 C   0  0  0  0  0  0  0  0  0  0  0  0
  -25.7120  -33.2254   25.9561 C   0  0  0  0  0  0  0  0  0  0  0  0
  -25.3498  -29.4919   20.4695 C   0  0  0  0  0  0  0  0  0  0  0  0
  -25.9396  -32.0178   25.2688 C   0  0  0  0  0  0  0  0  0  0  0  0
  -25.0226  -28.1290   20.5092 C   0  0  0  0  0  0  0  0  0  0  0  0
  -27.6033  -13.7921   19.4779 C   0  0  0  0  0  0  0  0  0  0  0  0
  -34.3121  -17.6704   20.7203 C   0  0  0  0  0  0  0  0  0  0  0  0
  -27.5086  -12.4949   19.9820 C   0  0  0  0  0  0  0  0  0  0  0  0
  -31.9790  -17.0698   20.5395 C   0  0  0  0  0  0  0  0  0  0  0  0
  -32.6230  -19.3961   20.6434 C   0  0  0  0  0  0  0  0  0  0  0  0
  -18.0870  -15.7905   22.8281 C   0  0  0  0  0  0  0  0  0  0  0  0
  -27.2215  -27.5881   19.6245 C   0  0  0  0  0  0  0  0  0  0  0  0
  -17.1699  -17.9256   23.1776 C   0  0  0  0  0  0  0  0  0  0  0  0
  -16.5524  -20.4599   22.1883 C   0  0  0  0  0  0  0  0  0  0  0  0
  -16.3162  -18.0579   22.0824 C   0  0  0  0  0  0  0  0  0  0  0  0
  -19.9850  -13.0630   20.2096 C   0  0  0  0  0  0  0  0  0  0  0  0
  -20.5549  -11.8455   18.4695 C   0  0  0  0  0  0  0  0  0  0  0  0
  -31.1351  -14.6919   20.4201 C   0  0  0  0  0  0  0  0  0  0  0  0
  -18.6020  -13.3512   18.0604 C   0  0  0  0  0  0  0  0  0  0  0  0
  -23.8146  -29.7789   23.2380 C   0  0  0  0  0  0  0  0  0  0  0  0
  -30.9049  -22.7339   20.6020 C   0  0  0  0  0  0  0  0  0  0  0  0
  -29.4582  -24.7463   19.8879 C   0  0  0  0  0  0  0  0  0  0  0  0
  -21.3631  -28.4648   21.5690 C   0  0  0  0  0  0  0  0  0  0  0  0
  -20.3513  -26.5569   18.9264 C   0  0  0  0  0  0  0  0  0  0  0  0
  -26.0707  -10.4503   20.2955 C   0  0  0  0  0  0  0  0  0  0  0  0
  -24.4218  -33.4885   26.6917 C   0  0  0  0  0  0  0  0  0  0  0  0
  -24.3449  -30.5290   20.8902 C   0  0  0  0  0  0  0  0  0  0  0  0
  -23.6816  -27.6493   20.9989 C   0  0  0  0  0  0  0  0  0  0  0  0
  -23.2793  -32.5703   26.2651 C   0  0  0  0  0  0  0  0  0  0  0  0
  -23.2503   -8.2799   20.1886 C   0  0  0  0  0  0  0  0  0  0  0  0
  -23.7542  -31.1221   26.2001 C   0  0  0  0  0  0  0  0  0  0  0  0
  -22.0624   -9.2353   20.0538 C   0  0  0  0  0  0  0  0  0  0  0  0
  -24.3405   -8.8542   21.0915 C   0  0  0  0  0  0  0  0  0  0  0  0
  -23.6151  -11.1551   20.5931 C   0  0  0  0  0  0  0  0  0  0  0  0
  -24.8694  -30.9533   25.1612 C   0  0  1  0  0  0  0  0  0  0  0  0
  -23.2880  -29.9839   21.8457 C   0  0  1  0  0  0  0  0  0  0  0  0
  -22.5197  -10.6481   19.6408 C   0  0  2  0  0  0  0  0  0  0  0  0
  -26.4496  -14.4357   18.7795 C   0  0  0  0  0  0  0  0  0  0  0  0
  -35.7457  -17.2695   20.8120 C   0  0  0  0  0  0  0  0  0  0  0  0
  -18.2869  -25.6278   17.8436 C   0  0  0  0  0  0  0  0  0  0  0  0
  -21.1627  -26.3565   23.7656 C   0  0  0  0  0  0  0  0  0  0  0  0
  -19.7874  -24.9624   22.2057 C   0  0  0  0  0  0  0  0  0  0  0  0
  -18.9634  -27.2032   22.9285 C   0  0  0  0  0  0  0  0  0  0  0  0
  -20.8767  -28.0153   16.4054 C   0  0  0  0  0  0  0  0  0  0  0  0
  -29.5314  -23.3731   20.5253 C   0  0  0  0  0  0  0  0  0  0  0  0
  -30.9208  -21.2189   20.5683 C   0  0  0  0  0  0  0  0  0  0  0  0
  -28.0823  -25.3831   19.8544 C   0  0  0  0  0  0  0  0  0  1  0  0
  -20.8885  -27.0579   21.2960 C   0  0  1  0  0  0  0  0  0  0  0  0
  -19.2792  -26.7798   17.8751 C   0  0  2  0  0  0  0  0  0  0  0  0
  -20.2266  -26.4036   22.5415 C   0  0  0  0  0  0  0  0  0  0  0  0
  -21.0282  -12.3437   20.6318 N   0  0  0  0  0  0  0  0  0  0  0  0
  -21.3523  -11.6132   19.5514 N   0  0  0  0  0  0  0  0  0  0  0  0
  -22.7353  -28.7014   21.4052 N   0  0  0  0  0  0  0  0  0  0  0  0
  -24.7264  -10.1919   20.6371 N   0  0  0  0  0  0  0  0  0  0  0  0
  -20.7421  -11.1961   17.3009 N   0  0  0  0  0  0  0  0  0  0  0  0
  -17.7574  -14.3144   18.6290 N   0  0  0  0  0  0  0  0  0  0  0  0
  -30.9867  -16.0934   20.4446 N   0  0  0  0  0  0  0  0  0  0  0  0
  -26.3122  -11.7481   19.8460 N   0  0  0  0  0  0  0  0  0  0  0  0
  -32.2768  -20.7396   20.6527 N   0  0  0  0  0  0  0  0  0  0  0  0
  -24.3151  -30.9255   23.8247 N   0  0  0  0  0  0  0  0  0  0  0  0
  -20.0158  -27.1406   20.1298 N   0  0  0  0  0  0  0  0  0  0  0  0
  -19.8964  -26.9055   16.5245 N   0  3  0  0  0  0  0  0  0  0  0  0
  -32.2194  -14.1163   20.4828 O   0  0  0  0  0  0  0  0  0  0  0  0
  -18.4133  -12.9934   16.8730 O   0  0  0  0  0  0  0  0  0  0  0  0
  -23.7688  -28.6634   23.7431 O   0  0  0  0  0  0  0  0  0  0  0  0
  -31.9325  -23.3992   20.7239 O   0  0  0  0  0  0  0  0  0  0  0  0
  -30.4379  -25.3013   19.3930 O   0  0  0  0  0  0  0  0  0  0  0  0
  -20.5453  -29.3238   21.9079 O   0  0  0  0  0  0  0  0  0  0  0  0
  -21.3815  -25.9247   18.7037 O   0  0  0  0  0  0  0  0  0  0  0  0
  -26.9384   -9.5763   20.3685 O   0  0  0  0  0  0  0  0  0  0  0  0
  -17.4767  -16.6684   23.6703 O   0  0  0  0  0  0  0  0  0  0  0  0
  -28.1302  -26.6599   19.2189 O   0  0  0  0  0  0  0  0  0  1  0  0
  -16.2548  -21.6769   21.7144 F   0  0  0  0  0  0  0  0  0  0  0  0
  -15.7887  -16.9713   21.5020 F   0  0  0  0  0  0  0  0  0  0  0  0
  1  2  1  0  0  0  0
  1  6  2  0  0  0  0
  2  7  2  0  0  0  0
  3 10  2  0  0  0  0
  3 21  1  0  0  0  0
  4 11  1  0  0  0  0
  4 21  2  0  0  0  0
  5  9  2  0  0  0  0
  5 22  1  0  0  0  0
  6 24  1  0  0  0  0
  7 26  1  0  0  0  0
  8 12  2  0  0  0  0
  8 25  1  0  0  0  0
  9 30  1  0  0  0  0
 10 33  1  0  0  0  0
 11 33  2  0  0  0  0
 12 34  1  0  0  0  0
 13 14  2  0  0  0  0
 13 35  1  0  0  0  0
 14 36  1  0  0  0  0
 15 22  2  0  0  0  0
 15 28  1  0  0  0  0
 16 27  1  0  0  0  0
 16 34  2  0  0  0  0
 17 29  1  0  0  0  0
 17 31  2  0  0  0  0
 18 29  2  0  0  0  0
 18 32  1  0  0  0  0
 19 31  1  0  0  0  0
 19 32  2  0  0  0  0
 20 36  2  0  0  0  0
 20 37  1  0  0  0  0
 21 38  1  0  0  0  0
 22 40  1  0  0  0  0
 23 38  1  0  0  0  0
 23 39  2  0  0  0  0
 23 41  1  0  0  0  0
 24 26  2  0  0  0  0
 24 48  1  0  0  0  0
 25 27  2  0  0  0  0
 25 49  1  0  0  0  0
 26 57  1  0  0  0  0
 27 50  1  0  0  0  0
 28 30  2  0  0  0  0
 28 60  1  0  0  0  0
 29 61  1  0  0  0  0
 30 80  1  0  0  0  0
 31 79  1  0  0  0  0
 32 81  1  0  0  0  0
 33 93  1  0  0  0  0
 34 94  1  0  0  0  0
 35 37  2  0  0  0  0
 35 93  1  0  0  0  0
 36 95  1  0  0  0  0
 37 96  1  0  0  0  0
 38 73  2  0  0  0  0
 39 74  1  0  0  0  0
 39 77  1  0  0  0  0
 40 79  1  0  0  0  0
 40 85  2  0  0  0  0
 41 78  1  0  0  0  0
 41 86  2  0  0  0  0
 42 58  1  0  0  0  0
 42 82  1  0  0  0  0
 42 87  2  0  0  0  0
 43 67  1  0  0  0  0
 43 68  1  0  0  0  0
 43 88  2  0  0  0  0
 44 67  1  0  0  0  0
 44 69  1  0  0  0  0
 44 89  2  0  0  0  0
 45 70  1  0  0  0  0
 45 75  1  0  0  0  0
 45 90  2  0  0  0  0
 46 71  1  0  0  0  0
 46 83  1  0  0  0  0
 46 91  2  0  0  0  0
 47 76  1  0  0  0  0
 47 80  1  0  0  0  0
 47 92  2  0  0  0  0
 48 51  1  0  0  0  0
 49 58  1  0  0  0  0
 50 75  1  0  0  0  0
 51 53  1  0  0  0  0
 52 54  1  0  0  0  0
 52 55  1  0  0  0  0
 53 57  1  0  0  0  0
 54 59  1  0  0  0  0
 55 76  1  0  0  0  0
 56 59  1  0  0  0  0
 56 76  1  0  0  0  0
 57 82  1  0  0  0  0
 58 75  1  0  0  0  0
 59 74  1  0  0  0  0
 62 71  1  0  0  0  0
 63 72  1  0  0  0  0
 64 72  1  0  0  0  0
 65 72  1  0  0  0  0
 66 84  1  0  0  0  0
 68 81  1  0  0  0  0
 69 94  1  0  0  0  0
 70 72  1  0  0  0  0
 70 83  1  0  0  0  0
 71 84  1  0  0  0  0
 73 74  1  0  0  0  0
M  CHG  1  84   1
M  ISO  4  47 100  69 101  80 100  94 101
M  END
> <Batch ID>
0128

> <Smiles>
CNC(C)C(=O)NC(C(=O)N1Cc2cc([101O:1][101CH2:1]C(=O)CC(=O)CNc3cc(C)cc(NC(=O)c4ccc([100NH:0][100C:0](=O)N5CCCC(n6nc(-c7ccc(Oc8ccc(F)cc8F)cc7)c(C(N)=O)c6N)C5)c(C)c4)c3)ccc2CC1C(=O)NC1CCCc2ccccc21)C(C)(C)C

> <Shape>
0.258

> <Color>
0.082

> <Negative vol penalty>
0.000

$$$$

  -OEChem-04052302163D

 86 94  0     1  0  0  0  0  0999 V2000
  -25.7100  -34.6430   15.1844 C   0  0  0  0  0  0  0  0  0  0  0  0
  -26.3384  -33.5156   15.7035 C   0  0  0  0  0  0  0  0  0  0  0  0
  -24.7205   -9.1343   21.5684 C   0  0  0  0  0  0  0  0  0  0  0  0
  -23.1522  -10.9721   21.5594 C   0  0  0  0  0  0  0  0  0  0  0  0
  -25.2267  -35.6283   16.0443 C   0  0  0  0  0  0  0  0  0  0  0  0
  -26.4848  -33.3734   17.0829 C   0  0  0  0  0  0  0  0  0  0  0  0
  -25.3209  -28.7142   18.6900 C   0  0  0  0  0  0  0  0  0  0  0  0
  -23.8367   -8.3839   22.3437 C   0  0  0  0  0  0  0  0  0  0  0  0
  -22.2683  -10.2216   22.3347 C   0  0  0  0  0  0  0  0  0  0  0  0
  -26.2742  -27.7161   18.4932 C   0  0  0  0  0  0  0  0  0  0  0  0
  -21.0238   -6.5701   21.8629 C   0  0  0  0  0  0  0  0  0  0  0  0
  -20.8109   -5.2404   21.4992 C   0  0  0  0  0  0  0  0  0  0  0  0
  -26.9695  -27.9352   20.7927 C   0  0  0  0  0  0  0  0  0  0  0  0
  -28.6368  -19.4391   18.2165 C   0  0  0  0  0  0  0  0  0  0  0  0
  -27.6680  -20.6038   16.3346 C   0  0  0  0  0  0  0  0  0  0  0  0
  -21.6252   -4.5199   23.6568 C   0  0  0  0  0  0  0  0  0  0  0  0
  -24.3783  -10.4285   21.1762 C   0  0  0  0  0  0  0  0  0  0  0  0
  -25.3578  -11.2548   18.9705 C   0  0  0  0  0  0  0  0  0  0  0  0
  -25.3586  -35.4935   17.4353 C   0  0  0  0  0  0  0  0  0  0  0  0
  -25.1919  -29.3390   19.9388 C   0  0  0  0  0  0  0  0  0  0  0  0
  -26.0040  -34.3584   17.9622 C   0  0  0  0  0  0  0  0  0  0  0  0
  -26.0120  -28.9391   21.0035 C   0  0  0  0  0  0  0  0  0  0  0  0
  -27.3652  -18.2180   16.5647 C   0  0  0  0  0  0  0  0  0  0  0  0
  -28.1120  -18.2368   17.7427 C   0  0  0  0  0  0  0  0  0  0  0  0
  -22.6105   -8.9274   22.7269 C   0  0  0  0  0  0  0  0  0  0  0  0
  -27.1006  -27.3285   19.5438 C   0  0  0  0  0  0  0  0  0  0  0  0
  -21.5376   -6.8747   23.1234 C   0  0  0  0  0  0  0  0  0  0  0  0
  -28.4148  -20.6227   17.5125 C   0  0  0  0  0  0  0  0  0  0  0  0
  -27.1432  -19.4015   15.8607 C   0  0  0  0  0  0  0  0  0  0  0  0
  -21.1115   -4.2154   22.3962 C   0  0  0  0  0  0  0  0  0  0  0  0
  -21.8382   -5.8496   24.0204 C   0  0  0  0  0  0  0  0  0  0  0  0
  -25.2911  -11.2045   20.3758 C   0  0  0  0  0  0  0  0  0  0  0  0
  -26.3832  -12.1297   18.7066 C   0  0  0  0  0  0  0  0  0  0  0  0
  -24.5639  -10.5719   17.9913 C   0  0  0  0  0  0  0  0  0  0  0  0
  -25.5293  -32.3148   21.0037 C   0  0  0  0  0  0  0  0  0  0  0  0
  -24.4033  -31.0394   23.7656 C   0  0  0  0  0  0  0  0  0  0  0  0
  -23.9710  -28.2709   25.7136 C   0  0  0  0  0  0  0  0  0  0  0  0
  -29.0726  -16.9116   19.6577 C   0  0  0  0  0  0  0  0  0  0  0  0
  -24.8624  -36.6074   18.3229 C   0  0  0  0  0  0  0  0  0  0  0  0
  -24.1405  -30.3953   20.1421 C   0  0  0  0  0  0  0  0  0  0  0  0
  -25.8998  -29.5644   22.3691 C   0  0  0  0  0  0  0  0  0  0  0  0
  -24.7238  -36.2027   19.7883 C   0  0  0  0  0  0  0  0  0  0  0  0
  -29.8526  -14.1622   21.7814 C   0  0  0  0  0  0  0  0  0  0  0  0
  -25.9661  -35.4500   20.2541 C   0  0  0  0  0  0  0  0  0  0  0  0
  -28.7409  -13.1518   21.4894 C   0  0  0  0  0  0  0  0  0  0  0  0
  -29.3351  -15.5992   21.7515 C   0  0  0  0  0  0  0  0  0  0  0  0
  -27.4982  -14.9623   20.2384 C   0  0  0  0  0  0  0  0  0  0  0  0
  -26.1597  -34.1563   19.4538 C   0  0  1  0  0  0  0  0  0  0  0  0
  -24.4444  -31.3229   21.3145 C   0  0  1  0  0  0  0  0  0  0  0  0
  -27.9848  -13.5046   20.1935 C   0  0  2  0  0  0  0  0  0  0  0  0
  -26.7976  -16.9338   16.0479 C   0  0  0  0  0  0  0  0  0  0  0  0
  -24.2327  -19.5789   13.7418 C   0  0  0  0  0  0  0  0  0  0  0  0
  -23.0515  -27.5485   27.9340 C   0  0  0  0  0  0  0  0  0  0  0  0
  -27.9813  -23.5364   20.1312 C   0  0  0  0  0  0  0  0  0  0  0  0
  -26.8546  -32.2068   25.1577 C   0  0  0  0  0  0  0  0  0  0  0  0
  -26.3904  -30.6901   27.0948 C   0  0  0  0  0  0  0  0  0  0  0  0
  -24.7212  -32.4259   26.4442 C   0  0  0  0  0  0  0  0  0  0  0  0
  -21.9927  -26.4750   24.4408 C   0  0  0  0  0  0  0  0  0  0  0  0
  -25.2360  -20.2034   14.6879 C   0  0  0  0  0  0  0  0  0  0  0  0
  -27.7333  -25.3491   18.3873 C   0  0  0  0  0  0  0  0  0  1  0  0
  -28.2005  -22.9857   17.6739 C   0  0  0  0  0  0  0  0  0  0  0  0
  -25.0288  -30.3903   24.9765 C   0  0  1  0  0  0  0  0  0  0  0  0
  -22.7570  -27.7400   26.4544 C   0  0  2  0  0  0  0  0  0  0  0  0
  -28.4389  -24.0414   18.7574 C   0  0  2  0  0  0  0  0  0  0  0  0
  -25.7524  -31.4177   25.8922 C   0  0  0  0  0  0  0  0  0  0  0  0
  -26.2017  -11.9851   20.9636 N   0  0  0  0  0  0  0  0  0  0  0  0
  -26.8504  -12.5342   19.9225 N   0  0  0  0  0  0  0  0  0  0  0  0
  -24.8609  -30.5971   22.5162 N   0  0  0  0  0  0  0  0  0  0  0  0
  -28.6339  -15.8624   20.4930 N   0  0  0  0  0  0  0  0  0  0  0  0
  -26.9219  -12.5847   17.5554 N   0  0  0  0  0  0  0  0  0  0  0  0
  -23.5520   -9.7096   18.4348 N   0  0  0  0  0  0  0  0  0  0  0  0
  -28.3496  -17.0460   18.4729 N   0  0  0  0  0  0  0  0  0  0  0  0
  -25.2528  -33.1310   19.9235 N   0  0  0  0  0  0  0  0  0  0  0  0
  -23.9617  -29.6476   25.6385 N   0  0  0  0  0  0  0  0  0  0  0  0
  -22.3357  -26.4285   25.8855 N   0  3  0  0  0  0  0  0  0  0  0  0
  -24.7571  -10.7094   16.7595 O   0  0  0  0  0  0  0  0  0  0  0  0
  -26.5417  -32.3390   21.6939 O   0  0  0  0  0  0  0  0  0  0  0  0
  -23.5353  -31.9019   23.9223 O   0  0  0  0  0  0  0  0  0  0  0  0
  -24.8425  -27.5378   25.2514 O   0  0  0  0  0  0  0  0  0  0  0  0
  -30.0369  -17.6200   19.9578 O   0  0  0  0  0  0  0  0  0  0  0  0
  -21.7478   -8.1953   23.4833 O   0  0  0  0  0  0  0  0  0  0  0  0
  -28.0324  -26.3550   19.3542 O   0  0  0  0  0  0  0  0  0  1  0  0
  -28.9301  -21.8042   17.9780 O   0  0  0  0  0  0  0  0  0  0  0  0
  -26.4159  -19.4029   14.7082 O   0  0  0  0  0  0  0  0  0  0  0  0
  -20.9055   -2.9386   22.0474 F   0  0  0  0  0  0  0  0  0  0  0  0
  -22.3309   -6.1361   25.2332 F   0  0  0  0  0  0  0  0  0  0  0  0
  1  2  1  0  0  0  0
  1  5  2  0  0  0  0
  2  6  2  0  0  0  0
  3  8  2  0  0  0  0
  3 17  1  0  0  0  0
  4  9  1  0  0  0  0
  4 17  2  0  0  0  0
  5 19  1  0  0  0  0
  6 21  1  0  0  0  0
  7 10  2  0  0  0  0
  7 20  1  0  0  0  0
  8 25  1  0  0  0  0
  9 25  2  0  0  0  0
 10 26  1  0  0  0  0
 11 12  2  0  0  0  0
 11 27  1  0  0  0  0
 12 30  1  0  0  0  0
 13 22  1  0  0  0  0
 13 26  2  0  0  0  0
 14 24  2  0  0  0  0
 14 28  1  0  0  0  0
 15 28  2  0  0  0  0
 15 29  1  0  0  0  0
 16 30  2  0  0  0  0
 16 31  1  0  0  0  0
 17 32  1  0  0  0  0
 18 32  1  0  0  0  0
 18 33  2  0  0  0  0
 18 34  1  0  0  0  0
 19 21  2  0  0  0  0
 19 39  1  0  0  0  0
 20 22  2  0  0  0  0
 20 40  1  0  0  0  0
 21 48  1  0  0  0  0
 22 41  1  0  0  0  0
 23 24  1  0  0  0  0
 23 29  2  0  0  0  0
 23 51  1  0  0  0  0
 24 72  1  0  0  0  0
 25 81  1  0  0  0  0
 26 82  1  0  0  0  0
 27 31  2  0  0  0  0
 27 81  1  0  0  0  0
 28 83  1  0  0  0  0
 29 84  1  0  0  0  0
 30 85  1  0  0  0  0
 31 86  1  0  0  0  0
 32 66  2  0  0  0  0
 33 67  1  0  0  0  0
 33 70  1  0  0  0  0
 34 71  1  0  0  0  0
 34 76  2  0  0  0  0
 35 49  1  0  0  0  0
 35 73  1  0  0  0  0
 35 77  2  0  0  0  0
 36 62  1  0  0  0  0
 36 68  1  0  0  0  0
 36 78  2  0  0  0  0
 37 63  1  0  0  0  0
 37 74  1  0  0  0  0
 37 79  2  0  0  0  0
 38 69  1  0  0  0  0
 38 72  1  0  0  0  0
 38 80  2  0  0  0  0
 39 42  1  0  0  0  0
 40 49  1  0  0  0  0
 41 68  1  0  0  0  0
 42 44  1  0  0  0  0
 43 45  1  0  0  0  0
 43 46  1  0  0  0  0
 44 48  1  0  0  0  0
 45 50  1  0  0  0  0
 46 69  1  0  0  0  0
 47 50  1  0  0  0  0
 47 69  1  0  0  0  0
 48 73  1  0  0  0  0
 49 68  1  0  0  0  0
 50 67  1  0  0  0  0
 52 59  1  0  0  0  0
 53 63  1  0  0  0  0
 54 64  1  0  0  0  0
 55 65  1  0  0  0  0
 56 65  1  0  0  0  0
 57 65  1  0  0  0  0
 58 75  1  0  0  0  0
 59 84  1  0  0  0  0
 60 64  1  0  0  0  0
 60 82  1  0  0  0  0
 61 64  1  0  0  0  0
 61 83  1  0  0  0  0
 62 65  1  0  0  0  0
 62 74  1  0  0  0  0
 63 75  1  0  0  0  0
 66 67  1  0  0  0  0
M  CHG  1  75   1
M  ISO  4  38 100  60 101  72 100  82 101
M  END
> <Batch ID>
0128

> <Smiles>
CCOc1cc(OCC(C)[101CH2:1][101O:1]c2ccc3c(c2)CN(C(=O)C(NC(=O)C(C)NC)C(C)(C)C)C(C(=O)NC2CCCc4ccccc42)C3)cc([100NH:0][100C:0](=O)N2CCCC(n3nc(-c4ccc(Oc5ccc(F)cc5F)cc4)c(C(N)=O)c3N)C2)c1C

> <Shape>
0.256

> <Color>
0.120

> <Negative vol penalty>
0.000

$$$$

  -OEChem-04052302163D

 85 93  0     1  0  0  0  0  0999 V2000
  -36.6946  -28.6959   15.5360 C   0  0  0  0  0  0  0  0  0  0  0  0
  -35.6242  -29.1295   16.3117 C   0  0  0  0  0  0  0  0  0  0  0  0
  -23.0503   -9.9191   19.9000 C   0  0  0  0  0  0  0  0  0  0  0  0
  -23.8406   -9.8197   22.1809 C   0  0  0  0  0  0  0  0  0  0  0  0
  -36.5032  -27.6974   14.5819 C   0  0  0  0  0  0  0  0  0  0  0  0
  -34.3615  -28.5655   16.1330 C   0  0  0  0  0  0  0  0  0  0  0  0
  -30.9552  -25.2982   21.5748 C   0  0  0  0  0  0  0  0  0  0  0  0
  -22.2990   -8.7628   20.1099 C   0  0  0  0  0  0  0  0  0  0  0  0
  -23.0892   -8.6633   22.3908 C   0  0  0  0  0  0  0  0  0  0  0  0
  -30.1496  -24.8422   22.6184 C   0  0  0  0  0  0  0  0  0  0  0  0
  -19.8620   -7.8686   23.0023 C   0  0  0  0  0  0  0  0  0  0  0  0
  -19.1203   -7.7845   24.1805 C   0  0  0  0  0  0  0  0  0  0  0  0
  -28.3964  -24.3016   21.0430 C   0  0  0  0  0  0  0  0  0  0  0  0
  -29.6147  -17.7861   22.5744 C   0  0  0  0  0  0  0  0  0  0  0  0
  -20.3531   -5.8060   24.8153 C   0  0  0  0  0  0  0  0  0  0  0  0
  -31.1949  -17.6594   20.8015 C   0  0  0  0  0  0  0  0  0  0  0  0
  -23.8211  -10.4475   20.9355 C   0  0  0  0  0  0  0  0  0  0  0  0
  -24.1851  -12.9724   20.9205 C   0  0  0  0  0  0  0  0  0  0  0  0
  -35.2397  -27.1141   14.3981 C   0  0  0  0  0  0  0  0  0  0  0  0
  -30.4898  -25.2433   20.2581 C   0  0  0  0  0  0  0  0  0  0  0  0
  -34.1528  -27.5592   15.1746 C   0  0  0  0  0  0  0  0  0  0  0  0
  -29.2036  -24.7454   19.9923 C   0  0  0  0  0  0  0  0  0  0  0  0
  -30.3131  -17.0137   21.6531 C   0  0  0  0  0  0  0  0  0  0  0  0
  -22.3184   -8.1349   21.3553 C   0  0  0  0  0  0  0  0  0  0  0  0
  -28.8733  -24.3453   22.3532 C   0  0  0  0  0  0  0  0  0  0  0  0
  -20.8492   -6.9214   22.7304 C   0  0  0  0  0  0  0  0  0  0  0  0
  -29.8166  -19.1612   22.6154 C   0  0  0  0  0  0  0  0  0  0  0  0
  -19.3658   -6.7532   25.0871 C   0  0  0  0  0  0  0  0  0  0  0  0
  -21.0947   -5.8901   23.6369 C   0  0  0  0  0  0  0  0  0  0  0  0
  -24.5979  -11.6417   20.7192 C   0  0  0  0  0  0  0  0  0  0  0  0
  -30.7208  -19.7108   21.7208 C   0  0  0  0  0  0  0  0  0  0  0  0
  -25.2793  -13.7273   20.5751 C   0  0  0  0  0  0  0  0  0  0  0  0
  -26.9056  -22.0775   24.3267 C   0  0  0  0  0  0  0  0  0  0  0  0
  -22.9252  -13.4807   21.3787 C   0  0  0  0  0  0  0  0  0  0  0  0
  -27.1339  -20.7662   24.5392 C   0  0  0  0  0  0  0  0  0  0  0  0
  -31.1886  -25.9026   16.6314 C   0  0  0  0  0  0  0  0  0  0  0  0
  -29.7147  -23.2164   16.7809 C   0  0  0  0  0  0  0  0  0  0  0  0
  -29.0416  -20.2259   17.4927 C   0  0  0  0  0  0  0  0  0  0  0  0
  -30.7569  -14.7160   20.7203 C   0  0  0  0  0  0  0  0  0  0  0  0
  -35.0712  -26.0712   13.3216 C   0  0  0  0  0  0  0  0  0  0  0  0
  -31.2993  -25.7806   19.1092 C   0  0  0  0  0  0  0  0  0  0  0  0
  -28.7314  -24.7375   18.5641 C   0  0  0  0  0  0  0  0  0  0  0  0
  -33.7837  -25.2618   13.4539 C   0  0  0  0  0  0  0  0  0  0  0  0
  -29.5886  -12.4174   18.2651 C   0  0  0  0  0  0  0  0  0  0  0  0
  -32.5972  -26.1848   13.7127 C   0  0  0  0  0  0  0  0  0  0  0  0
  -28.1521  -12.1202   18.7012 C   0  0  0  0  0  0  0  0  0  0  0  0
  -30.5216  -12.5857   19.4629 C   0  0  0  0  0  0  0  0  0  0  0  0
  -28.6401  -13.2662   20.9002 C   0  0  0  0  0  0  0  0  0  0  0  0
  -32.7734  -26.9544   15.0273 C   0  0  1  0  0  0  0  0  0  0  0  0
  -31.1101  -24.9773   17.8099 C   0  0  1  0  0  0  0  0  0  0  0  0
  -27.6501  -13.1529   19.7294 C   0  0  2  0  0  0  0  0  0  0  0  0
  -30.9738  -21.1827   21.7232 C   0  0  0  0  0  0  0  0  0  0  0  0
  -25.4299  -19.4850   25.8779 C   0  0  0  0  0  0  0  0  0  0  0  0
  -28.4145  -17.8011   17.6490 C   0  0  0  0  0  0  0  0  0  0  0  0
  -27.1270  -24.6159   15.9752 C   0  0  0  0  0  0  0  0  0  0  0  0
  -26.0728  -22.3604   15.7107 C   0  0  0  0  0  0  0  0  0  0  0  0
  -28.0129  -23.0039   14.2807 C   0  0  0  0  0  0  0  0  0  0  0  0
  -31.7239  -19.3547   16.5955 C   0  0  0  0  0  0  0  0  0  0  0  0
  -27.1649  -22.8566   23.0762 C   0  0  0  0  0  0  0  0  0  1  0  0
  -26.8408  -20.0547   25.8414 C   0  0  0  0  0  0  0  0  0  0  0  0
  -27.7160  -19.9146   23.4375 C   0  0  0  0  0  0  0  0  0  0  0  0
  -28.3919  -22.4947   16.7280 C   0  0  1  0  0  0  0  0  0  0  0  0
  -29.3122  -18.8256   16.9727 C   0  0  2  0  0  0  0  0  0  0  0  0
  -27.4129  -23.1264   15.6984 C   0  0  0  0  0  0  0  0  0  0  0  0
  -31.4175  -18.9928   20.8116 N   0  0  0  0  0  0  0  0  0  0  0  0
  -25.8561  -11.5530   20.2799 N   0  0  0  0  0  0  0  0  0  0  0  0
  -26.2434  -12.8375   20.2022 N   0  0  0  0  0  0  0  0  0  0  0  0
  -29.8162  -24.2860   17.6787 N   0  0  0  0  0  0  0  0  0  0  0  0
  -29.9841  -13.5823   20.3917 N   0  0  0  0  0  0  0  0  0  0  0  0
  -25.5013  -15.0588   20.5571 N   0  0  0  0  0  0  0  0  0  0  0  0
  -21.9093  -12.5667   21.6900 N   0  0  0  0  0  0  0  0  0  0  0  0
  -30.1292  -15.6103   21.5869 N   0  0  0  0  0  0  0  0  0  0  0  0
  -32.4710  -26.1015   16.1567 N   0  0  0  0  0  0  0  0  0  0  0  0
  -28.7021  -21.0919   16.4748 N   0  0  0  0  0  0  0  0  0  0  0  0
  -30.7312  -18.4452   17.2234 N   0  3  0  0  0  0  0  0  0  0  0  0
  -22.7013  -14.7097   21.4925 O   0  0  0  0  0  0  0  0  0  0  0  0
  -30.1617  -26.3991   16.1836 O   0  0  0  0  0  0  0  0  0  0  0  0
  -30.6329  -22.8476   16.0432 O   0  0  0  0  0  0  0  0  0  0  0  0
  -29.1197  -20.5211   18.6832 O   0  0  0  0  0  0  0  0  0  0  0  0
  -31.8813  -14.8950   20.2451 O   0  0  0  0  0  0  0  0  0  0  0  0
  -21.5852   -7.0067   21.5605 O   0  0  0  0  0  0  0  0  0  0  0  0
  -28.0938  -23.8975   23.3763 O   0  0  0  0  0  0  0  0  0  1  0  0
  -29.1350  -19.9319   23.5208 O   0  0  0  0  0  0  0  0  0  0  0  0
  -18.6546   -6.6734   26.2193 F   0  0  0  0  0  0  0  0  0  0  0  0
  -22.0427   -4.9778   23.3818 F   0  0  0  0  0  0  0  0  0  0  0  0
  1  2  1  0  0  0  0
  1  5  2  0  0  0  0
  2  6  2  0  0  0  0
  3  8  2  0  0  0  0
  3 17  1  0  0  0  0
  4  9  1  0  0  0  0
  4 17  2  0  0  0  0
  5 19  1  0  0  0  0
  6 21  1  0  0  0  0
  7 10  2  0  0  0  0
  7 20  1  0  0  0  0
  8 24  1  0  0  0  0
  9 24  2  0  0  0  0
 10 25  1  0  0  0  0
 11 12  2  0  0  0  0
 11 26  1  0  0  0  0
 12 28  1  0  0  0  0
 13 22  1  0  0  0  0
 13 25  2  0  0  0  0
 14 23  2  0  0  0  0
 14 27  1  0  0  0  0
 15 28  2  0  0  0  0
 15 29  1  0  0  0  0
 16 23  1  0  0  0  0
 16 65  2  0  0  0  0
 17 30  1  0  0  0  0
 18 30  1  0  0  0  0
 18 32  2  0  0  0  0
 18 34  1  0  0  0  0
 19 21  2  0  0  0  0
 19 40  1  0  0  0  0
 20 22  2  0  0  0  0
 20 41  1  0  0  0  0
 21 49  1  0  0  0  0
 22 42  1  0  0  0  0
 23 72  1  0  0  0  0
 24 81  1  0  0  0  0
 25 82  1  0  0  0  0
 26 29  2  0  0  0  0
 26 81  1  0  0  0  0
 27 31  2  0  0  0  0
 27 83  1  0  0  0  0
 28 84  1  0  0  0  0
 29 85  1  0  0  0  0
 30 66  2  0  0  0  0
 31 52  1  0  0  0  0
 31 65  1  0  0  0  0
 32 67  1  0  0  0  0
 32 70  1  0  0  0  0
 33 35  2  0  0  0  0
 33 59  1  0  0  0  0
 34 71  1  0  0  0  0
 34 76  2  0  0  0  0
 35 60  1  0  0  0  0
 35 61  1  0  0  0  0
 36 50  1  0  0  0  0
 36 73  1  0  0  0  0
 36 77  2  0  0  0  0
 37 62  1  0  0  0  0
 37 68  1  0  0  0  0
 37 78  2  0  0  0  0
 38 63  1  0  0  0  0
 38 74  1  0  0  0  0
 38 79  2  0  0  0  0
 39 69  1  0  0  0  0
 39 72  1  0  0  0  0
 39 80  2  0  0  0  0
 40 43  1  0  0  0  0
 41 50  1  0  0  0  0
 42 68  1  0  0  0  0
 43 45  1  0  0  0  0
 44 46  1  0  0  0  0
 44 47  1  0  0  0  0
 45 49  1  0  0  0  0
 46 51  1  0  0  0  0
 47 69  1  0  0  0  0
 48 51  1  0  0  0  0
 48 69  1  0  0  0  0
 49 73  1  0  0  0  0
 50 68  1  0  0  0  0
 51 67  1  0  0  0  0
 53 60  1  0  0  0  0
 54 63  1  0  0  0  0
 55 64  1  0  0  0  0
 56 64  1  0  0  0  0
 57 64  1  0  0  0  0
 58 75  1  0  0  0  0
 59 82  1  0  0  0  0
 61 83  1  0  0  0  0
 62 64  1  0  0  0  0
 62 74  1  0  0  0  0
 63 75  1  0  0  0  0
 66 67  1  0  0  0  0
M  CHG  1  75   1
M  ISO  4  39 100  59 101  72 100  82 101
M  END
> <Batch ID>
0128

> <Smiles>
CCC(=C[101CH2:1][101O:1]c1ccc2c(c1)CN(C(=O)C(NC(=O)C(C)NC)C(C)(C)C)C(C(=O)NC1CCCc3ccccc31)C2)COc1cc([100NH:0][100C:0](=O)N2CCCC(n3nc(-c4ccc(Oc5ccc(F)cc5F)cc4)c(C(N)=O)c3N)C2)cnc1C

> <Shape>
0.242

> <Color>
0.191

> <Negative vol penalty>
0.000

$$$$

  -OEChem-04052302163D

 86 94  0     1  0  0  0  0  0999 V2000
  -17.3863  -31.8726   23.2134 C   0  0  0  0  0  0  0  0  0  0  0  0
  -18.6053  -32.2238   22.6423 C   0  0  0  0  0  0  0  0  0  0  0  0
  -24.3316  -14.9076   19.3296 C   0  0  0  0  0  0  0  0  0  0  0  0
  -25.6804  -13.9540   21.0927 C   0  0  0  0  0  0  0  0  0  0  0  0
  -30.4012  -25.2229   15.5112 C   0  0  0  0  0  0  0  0  0  0  0  0
  -17.2855  -30.7122   23.9798 C   0  0  0  0  0  0  0  0  0  0  0  0
  -19.7245  -31.4154   22.8382 C   0  0  0  0  0  0  0  0  0  0  0  0
  -25.7010  -29.2579   19.5302 C   0  0  0  0  0  0  0  0  0  0  0  0
  -31.3669  -26.0877   14.9965 C   0  0  0  0  0  0  0  0  0  0  0  0
  -23.9114  -13.6299   18.9600 C   0  0  0  0  0  0  0  0  0  0  0  0
  -25.2602  -12.6763   20.7232 C   0  0  0  0  0  0  0  0  0  0  0  0
  -27.0777  -29.1800   19.7360 C   0  0  0  0  0  0  0  0  0  0  0  0
  -22.5285  -10.7334   21.1515 C   0  0  0  0  0  0  0  0  0  0  0  0
  -22.1452   -9.8594   22.1687 C   0  0  0  0  0  0  0  0  0  0  0  0
  -31.5378  -25.2223   17.6432 C   0  0  0  0  0  0  0  0  0  0  0  0
  -26.7664  -27.1572   21.0130 C   0  0  0  0  0  0  0  0  0  0  0  0
  -23.8765   -8.3152   21.4943 C   0  0  0  0  0  0  0  0  0  0  0  0
  -25.2161  -15.0696   20.3959 C   0  0  0  0  0  0  0  0  0  0  0  0
  -30.4865  -24.7902   16.8346 C   0  0  0  0  0  0  0  0  0  0  0  0
  -25.0402  -17.2489   21.7104 C   0  0  0  0  0  0  0  0  0  0  0  0
  -18.4017  -29.8841   24.1772 C   0  0  0  0  0  0  0  0  0  0  0  0
  -24.8441  -28.2904   20.0745 C   0  0  0  0  0  0  0  0  0  0  0  0
  -19.6388  -30.2436   23.6091 C   0  0  0  0  0  0  0  0  0  0  0  0
  -25.3794  -27.2237   20.8106 C   0  0  0  0  0  0  0  0  0  0  0  0
  -32.4182  -26.5198   15.8051 C   0  0  0  0  0  0  0  0  0  0  0  0
  -32.5036  -26.0872   17.1284 C   0  0  0  0  0  0  0  0  0  0  0  0
  -24.3757  -12.5143   19.6568 C   0  0  0  0  0  0  0  0  0  0  0  0
  -27.6104  -28.1312   20.4799 C   0  0  0  0  0  0  0  0  0  0  0  0
  -23.5858  -10.3983   20.3056 C   0  0  0  0  0  0  0  0  0  0  0  0
  -22.8192   -8.6503   22.3401 C   0  0  0  0  0  0  0  0  0  0  0  0
  -24.2598   -9.1892   20.4770 C   0  0  0  0  0  0  0  0  0  0  0  0
  -25.6510  -16.3892   20.7778 C   0  0  0  0  0  0  0  0  0  0  0  0
  -25.8320  -18.3711   21.7127 C   0  0  0  0  0  0  0  0  0  0  0  0
  -29.4774  -23.8909   17.3714 C   0  0  0  0  0  0  0  0  0  0  0  0
  -29.6254  -23.1094   18.4624 C   0  0  0  0  0  0  0  0  0  0  0  0
  -23.8624  -17.0506   22.5036 C   0  0  0  0  0  0  0  0  0  0  0  0
  -28.4998  -22.2542   18.8896 C   0  0  0  0  0  0  0  0  0  0  0  0
  -22.4571  -28.3337   22.1729 C   0  0  0  0  0  0  0  0  0  0  0  0
  -33.4200  -27.5944   18.6659 C   0  0  0  0  0  0  0  0  0  0  0  0
  -22.1598  -25.2207   21.3110 C   0  0  0  0  0  0  0  0  0  0  0  0
  -23.6226  -22.4179   20.0259 C   0  0  0  0  0  0  0  0  0  0  0  0
  -18.2552  -28.6648   25.0526 C   0  0  0  0  0  0  0  0  0  0  0  0
  -23.3639  -28.3740   19.8209 C   0  0  0  0  0  0  0  0  0  0  0  0
  -24.5044  -26.1483   21.3991 C   0  0  0  0  0  0  0  0  0  0  0  0
  -19.3992  -27.6654   24.9014 C   0  0  0  0  0  0  0  0  0  0  0  0
  -30.3784  -19.2134   19.6999 C   0  0  0  0  0  0  0  0  0  0  0  0
  -20.7442  -28.3841   24.9380 C   0  0  0  0  0  0  0  0  0  0  0  0
  -29.2474  -18.2634   20.0847 C   0  0  0  0  0  0  0  0  0  0  0  0
  -29.9604  -20.1817   18.5942 C   0  0  0  0  0  0  0  0  0  0  0  0
  -27.5911  -20.0000   19.2968 C   0  0  0  0  0  0  0  0  0  0  0  0
  -20.8695  -29.3795   23.7783 C   0  0  1  0  0  0  0  0  0  0  0  0
  -22.5368  -27.6164   20.8551 C   0  0  1  0  0  0  0  0  0  0  0  0
  -27.9747  -19.0480   20.4404 C   0  0  1  0  0  0  0  0  0  0  0  0
  -34.4738  -28.1567   19.5936 C   0  0  0  0  0  0  0  0  0  0  0  0
  -34.4359  -26.7179   14.3300 C   0  0  0  0  0  0  0  0  0  0  0  0
  -23.1381  -20.0172   19.4789 C   0  0  0  0  0  0  0  0  0  0  0  0
  -22.3291  -24.5139   24.2744 C   0  0  0  0  0  0  0  0  0  0  0  0
  -22.7954  -22.1451   23.6113 C   0  0  0  0  0  0  0  0  0  0  0  0
  -20.6278  -23.2097   22.9864 C   0  0  0  0  0  0  0  0  0  0  0  0
  -24.1899  -22.8374   17.1516 C   0  0  0  0  0  0  0  0  0  0  0  0
  -33.4414  -27.4440   15.2306 C   0  0  0  0  0  0  0  0  0  0  0  0
  -32.0867  -28.3182   18.5973 C   0  0  0  0  0  0  0  0  0  0  0  0
  -31.1167  -27.8306   19.6685 C   0  0  0  0  0  0  0  0  0  0  0  0
  -29.7966  -28.5919   19.6651 C   0  0  0  0  0  0  0  0  0  1  0  0
  -22.7440  -23.9163   21.7971 C   0  0  1  0  0  0  0  0  0  0  0  0
  -23.1660  -21.4444   18.9543 C   0  0  2  0  0  0  0  0  0  0  0  0
  -22.1407  -23.4674   23.1580 C   0  0  0  0  0  0  0  0  0  0  0  0
  -26.7463  -16.9199   20.2276 N   0  0  0  0  0  0  0  0  0  0  0  0
  -33.5534  -26.5133   17.9565 N   0  0  0  0  0  0  0  0  0  0  0  0
  -26.8299  -18.1252   20.8161 N   0  0  0  0  0  0  0  0  0  0  0  0
  -28.7094  -20.8770   18.9322 N   0  0  0  0  0  0  0  0  0  0  0  0
  -23.0629  -26.2776   21.1288 N   0  0  0  0  0  0  0  0  0  0  0  0
  -25.7650  -19.5345   22.3942 N   0  0  0  0  0  0  0  0  0  0  0  0
  -23.1685  -15.8394   22.3783 N   0  0  0  0  0  0  0  0  0  0  0  0
  -21.1735  -28.6840   22.5460 N   0  0  0  0  0  0  0  0  0  0  0  0
  -22.5563  -22.9564   20.7146 N   0  0  0  0  0  0  0  0  0  0  0  0
  -24.0845  -21.4963   17.7819 N   0  3  0  0  0  0  0  0  0  0  0  0
  -23.4286  -17.9284   23.2878 O   0  0  0  0  0  0  0  0  0  0  0  0
  -27.4396  -22.8120   19.1785 O   0  0  0  0  0  0  0  0  0  0  0  0
  -23.4838  -28.5518   22.8053 O   0  0  0  0  0  0  0  0  0  0  0  0
  -20.9479  -25.2969   21.0938 O   0  0  0  0  0  0  0  0  0  0  0  0
  -24.8069  -22.6722   20.2338 O   0  0  0  0  0  0  0  0  0  0  0  0
  -23.9657  -11.2674   19.2966 O   0  0  0  0  0  0  0  0  0  0  0  0
  -28.9537  -28.0531   20.6827 O   0  0  0  0  0  0  0  0  0  1  0  0
  -22.4520   -7.8118   23.3180 F   0  0  0  0  0  0  0  0  0  0  0  0
  -25.2771   -8.8623   19.6682 F   0  0  0  0  0  0  0  0  0  0  0  0
  1  2  1  0  0  0  0
  1  6  2  0  0  0  0
  2  7  2  0  0  0  0
  3 10  2  0  0  0  0
  3 18  1  0  0  0  0
  4 11  1  0  0  0  0
  4 18  2  0  0  0  0
  5  9  2  0  0  0  0
  5 19  1  0  0  0  0
  6 21  1  0  0  0  0
  7 23  1  0  0  0  0
  8 12  2  0  0  0  0
  8 22  1  0  0  0  0
  9 25  1  0  0  0  0
 10 27  1  0  0  0  0
 11 27  2  0  0  0  0
 12 28  1  0  0  0  0
 13 14  2  0  0  0  0
 13 29  1  0  0  0  0
 14 30  1  0  0  0  0
 15 19  2  0  0  0  0
 15 26  1  0  0  0  0
 16 24  1  0  0  0  0
 16 28  2  0  0  0  0
 17 30  2  0  0  0  0
 17 31  1  0  0  0  0
 18 32  1  0  0  0  0
 19 34  1  0  0  0  0
 20 32  1  0  0  0  0
 20 33  2  0  0  0  0
 20 36  1  0  0  0  0
 21 23  2  0  0  0  0
 21 42  1  0  0  0  0
 22 24  2  0  0  0  0
 22 43  1  0  0  0  0
 23 51  1  0  0  0  0
 24 44  1  0  0  0  0
 25 26  2  0  0  0  0
 25 61  1  0  0  0  0
 26 69  1  0  0  0  0
 27 83  1  0  0  0  0
 28 84  1  0  0  0  0
 29 31  2  0  0  0  0
 29 83  1  0  0  0  0
 30 85  1  0  0  0  0
 31 86  1  0  0  0  0
 32 68  2  0  0  0  0
 33 70  1  0  0  0  0
 33 73  1  0  0  0  0
 34 35  2  0  0  0  0
 35 37  1  0  0  0  0
 36 74  1  0  0  0  0
 36 78  2  0  0  0  0
 37 71  1  0  0  0  0
 37 79  2  0  0  0  0
 38 52  1  0  0  0  0
 38 75  1  0  0  0  0
 38 80  2  0  0  0  0
 39 54  1  0  0  0  0
 39 62  1  0  0  0  0
 39 69  2  0  0  0  0
 40 65  1  0  0  0  0
 40 72  1  0  0  0  0
 40 81  2  0  0  0  0
 41 66  1  0  0  0  0
 41 76  1  0  0  0  0
 41 82  2  0  0  0  0
 42 45  1  0  0  0  0
 43 52  1  0  0  0  0
 44 72  1  0  0  0  0
 45 47  1  0  0  0  0
 46 48  1  0  0  0  0
 46 49  1  0  0  0  0
 47 51  1  0  0  0  0
 48 53  1  0  0  0  0
 49 71  1  0  0  0  0
 50 53  1  0  0  0  0
 50 71  1  0  0  0  0
 51 75  1  0  0  0  0
 52 72  1  0  0  0  0
 53 70  1  0  0  0  0
 55 61  1  0  0  0  0
 56 66  1  0  0  0  0
 57 67  1  0  0  0  0
 58 67  1  0  0  0  0
 59 67  1  0  0  0  0
 60 77  1  0  0  0  0
 62 63  1  0  0  0  0
 63 64  1  0  0  0  0
 64 84  1  0  0  0  0
 65 67  1  0  0  0  0
 65 76  1  0  0  0  0
 66 77  1  0  0  0  0
 68 70  1  0  0  0  0
M  CHG  1  77   1
M  ISO  4  35 100  37 100  64 101  84 101
M  END
> <Batch ID>
0128

> <Smiles>
CCc1ccc(C=[100CH:0][100C:0](=O)N2CCCC(n3nc(-c4ccc(Oc5ccc(F)cc5F)cc4)c(C(N)=O)c3N)C2)cc1NC(C)=CC[101CH2:1][101O:1]c1ccc2c(c1)CN(C(=O)C(NC(=O)C(C)NC)C(C)(C)C)C(C(=O)NC1CCCc3ccccc31)C2

> <Shape>
0.217

> <Color>
0.069

> <Negative vol penalty>
0.000

$$$$

  -OEChem-04052302163D

 82 90  0     1  0  0  0  0  0999 V2000
  -25.4772  -37.4082   23.1202 C   0  0  0  0  0  0  0  0  0  0  0  0
  -26.3166  -36.3609   22.7542 C   0  0  0  0  0  0  0  0  0  0  0  0
  -24.5565  -11.5309   24.0621 C   0  0  0  0  0  0  0  0  0  0  0  0
  -23.8506  -13.8236   23.7750 C   0  0  0  0  0  0  0  0  0  0  0  0
  -28.3161  -20.4127   19.2541 C   0  0  0  0  0  0  0  0  0  0  0  0
  -30.6877  -20.0051   19.0380 C   0  0  0  0  0  0  0  0  0  0  0  0
  -24.2600  -37.1389   23.7446 C   0  0  0  0  0  0  0  0  0  0  0  0
  -25.9398  -35.0436   23.0136 C   0  0  0  0  0  0  0  0  0  0  0  0
  -27.1384  -30.1251   19.5672 C   0  0  0  0  0  0  0  0  0  0  0  0
  -28.0736  -19.0411   19.1803 C   0  0  0  0  0  0  0  0  0  0  0  0
  -30.4452  -18.6334   18.9642 C   0  0  0  0  0  0  0  0  0  0  0  0
  -24.1300  -11.5659   25.3897 C   0  0  0  0  0  0  0  0  0  0  0  0
  -23.4241  -13.8586   25.1026 C   0  0  0  0  0  0  0  0  0  0  0  0
  -28.1163  -29.1351   19.6534 C   0  0  0  0  0  0  0  0  0  0  0  0
  -21.2057  -11.3485   27.0732 C   0  0  0  0  0  0  0  0  0  0  0  0
  -20.4695  -10.2624   27.5463 C   0  0  0  0  0  0  0  0  0  0  0  0
  -26.5618  -27.7100   20.8247 C   0  0  0  0  0  0  0  0  0  0  0  0
  -22.1576   -9.8492   29.2246 C   0  0  0  0  0  0  0  0  0  0  0  0
  -24.4168  -12.6599   23.2548 C   0  0  0  0  0  0  0  0  0  0  0  0
  -29.6232  -20.8947   19.1828 C   0  0  0  0  0  0  0  0  0  0  0  0
  -24.1012  -12.2508   20.7566 C   0  0  0  0  0  0  0  0  0  0  0  0
  -23.8637  -35.8172   24.0030 C   0  0  0  0  0  0  0  0  0  0  0  0
  -25.8661  -29.9188   20.1196 C   0  0  0  0  0  0  0  0  0  0  0  0
  -24.7168  -34.7564   23.6433 C   0  0  0  0  0  0  0  0  0  0  0  0
  -25.5687  -28.6980   20.7419 C   0  0  0  0  0  0  0  0  0  0  0  0
  -29.1381  -18.1515   19.0354 C   0  0  0  0  0  0  0  0  0  0  0  0
  -23.5638  -12.7296   25.9100 C   0  0  0  0  0  0  0  0  0  0  0  0
  -27.8290  -27.9285   20.2847 C   0  0  0  0  0  0  0  0  0  0  0  0
  -22.4179  -11.6849   27.6757 C   0  0  0  0  0  0  0  0  0  0  0  0
  -20.9454   -9.5127   28.6220 C   0  0  0  0  0  0  0  0  0  0  0  0
  -22.8938  -10.9353   28.7514 C   0  0  0  0  0  0  0  0  0  0  0  0
  -24.8577  -12.6246   21.8835 C   0  0  0  0  0  0  0  0  0  0  0  0
  -24.9685  -12.3864   19.7003 C   0  0  0  0  0  0  0  0  0  0  0  0
  -29.8804  -22.3436   19.2617 C   0  0  0  0  0  0  0  0  0  0  0  0
  -29.0257  -23.2417   19.7709 C   0  0  0  0  0  0  0  0  0  0  0  0
  -22.7364  -11.8196   20.6723 C   0  0  0  0  0  0  0  0  0  0  0  0
  -29.3783  -24.6911   19.7954 C   0  0  0  0  0  0  0  0  0  0  0  0
  -24.1598  -31.3194   22.4067 C   0  0  0  0  0  0  0  0  0  0  0  0
  -21.8449  -29.2912   21.3820 C   0  0  0  0  0  0  0  0  0  0  0  0
  -21.0394  -26.3710   19.8102 C   0  0  0  0  0  0  0  0  0  0  0  0
  -29.8348  -15.7402   18.8189 C   0  0  0  0  0  0  0  0  0  0  0  0
  -22.5603  -35.5778   24.7230 C   0  0  0  0  0  0  0  0  0  0  0  0
  -24.8139  -30.9864   19.9948 C   0  0  0  0  0  0  0  0  0  0  0  0
  -24.2119  -28.4191   21.3332 C   0  0  0  0  0  0  0  0  0  0  0  0
  -22.0655  -34.1371   24.6240 C   0  0  0  0  0  0  0  0  0  0  0  0
  -29.6338  -12.1901   18.6366 C   0  0  0  0  0  0  0  0  0  0  0  0
  -23.2023  -33.1613   24.9112 C   0  0  0  0  0  0  0  0  0  0  0  0
  -28.3144  -11.8650   19.3407 C   0  0  0  0  0  0  0  0  0  0  0  0
  -30.3582  -13.3594   19.3012 C   0  0  0  0  0  0  0  0  0  0  0  0
  -28.2326  -14.2505   20.1714 C   0  0  0  0  0  0  0  0  0  0  0  0
  -24.3320  -33.3130   23.8854 C   0  0  1  0  0  0  0  0  0  0  0  0
  -23.7139  -30.8669   21.0450 C   0  0  1  0  0  0  0  0  0  0  0  0
  -27.4354  -13.1213   19.4983 C   0  0  2  0  0  0  0  0  0  0  0  0
  -19.0664  -24.9640   19.1582 C   0  0  0  0  0  0  0  0  0  0  0  0
  -21.5605  -28.3550   24.2721 C   0  0  0  0  0  0  0  0  0  0  0  0
  -20.3148  -26.3540   23.4280 C   0  0  0  0  0  0  0  0  0  0  0  0
  -19.3970  -28.6427   23.0510 C   0  0  0  0  0  0  0  0  0  0  0  0
  -21.6828  -26.5972   16.9303 C   0  0  0  0  0  0  0  0  0  0  0  0
  -28.3320  -25.6067   20.3950 C   0  0  0  0  0  0  0  0  0  1  0  0
  -21.4203  -27.8866   21.7369 C   0  0  1  0  0  0  0  0  0  0  0  0
  -20.0281  -26.0584   18.7221 C   0  0  2  0  0  0  0  0  0  0  0  0
  -20.6994  -27.8153   23.1127 C   0  0  0  0  0  0  0  0  0  0  0  0
  -26.1094  -12.9715   21.5722 N   0  0  0  0  0  0  0  0  0  0  0  0
  -26.1461  -12.8162   20.2378 N   0  0  0  0  0  0  0  0  0  0  0  0
  -23.2187  -29.4966   21.1914 N   0  0  0  0  0  0  0  0  0  0  0  0
  -29.4653  -14.5149   19.4129 N   0  0  0  0  0  0  0  0  0  0  0  0
  -24.8312  -12.1788   18.3735 N   0  0  0  0  0  0  0  0  0  0  0  0
  -21.9877  -11.7363   21.8542 N   0  0  0  0  0  0  0  0  0  0  0  0
  -28.8923  -16.7579   18.9625 N   0  0  0  0  0  0  0  0  0  0  0  0
  -23.9737  -32.6686   22.6400 N   0  0  0  0  0  0  0  0  0  0  0  0
  -20.6183  -27.4072   20.6165 N   0  0  0  0  0  0  0  0  0  0  0  0
  -20.7229  -25.6073   17.4833 N   0  3  0  0  0  0  0  0  0  0  0  0
  -22.2016  -11.5013   19.5831 O   0  0  0  0  0  0  0  0  0  0  0  0
  -30.4467  -25.1100   19.3580 O   0  0  0  0  0  0  0  0  0  0  0  0
  -24.6359  -30.5045   23.1883 O   0  0  0  0  0  0  0  0  0  0  0  0
  -20.9885  -30.1720   21.2707 O   0  0  0  0  0  0  0  0  0  0  0  0
  -22.0955  -25.7548   19.9349 O   0  0  0  0  0  0  0  0  0  0  0  0
  -30.8960  -15.8689   18.2030 O   0  0  0  0  0  0  0  0  0  0  0  0
  -23.1473  -12.7640   27.2053 O   0  0  0  0  0  0  0  0  0  0  0  0
  -28.7818  -26.9607   20.3708 O   0  0  0  0  0  0  0  0  0  1  0  0
  -20.2375   -8.4707   29.0773 F   0  0  0  0  0  0  0  0  0  0  0  0
  -24.0571  -11.2544   29.3351 F   0  0  0  0  0  0  0  0  0  0  0  0
  1  2  1  0  0  0  0
  1  7  2  0  0  0  0
  2  8  2  0  0  0  0
  3 12  2  0  0  0  0
  3 19  1  0  0  0  0
  4 13  1  0  0  0  0
  4 19  2  0  0  0  0
  5 10  2  0  0  0  0
  5 20  1  0  0  0  0
  6 11  1  0  0  0  0
  6 20  2  0  0  0  0
  7 22  1  0  0  0  0
  8 24  1  0  0  0  0
  9 14  2  0  0  0  0
  9 23  1  0  0  0  0
 10 26  1  0  0  0  0
 11 26  2  0  0  0  0
 12 27  1  0  0  0  0
 13 27  2  0  0  0  0
 14 28  1  0  0  0  0
 15 16  2  0  0  0  0
 15 29  1  0  0  0  0
 16 30  1  0  0  0  0
 17 25  1  0  0  0  0
 17 28  2  0  0  0  0
 18 30  2  0  0  0  0
 18 31  1  0  0  0  0
 19 32  1  0  0  0  0
 20 34  1  0  0  0  0
 21 32  1  0  0  0  0
 21 33  2  0  0  0  0
 21 36  1  0  0  0  0
 22 24  2  0  0  0  0
 22 42  1  0  0  0  0
 23 25  2  0  0  0  0
 23 43  1  0  0  0  0
 24 51  1  0  0  0  0
 25 44  1  0  0  0  0
 26 69  1  0  0  0  0
 27 79  1  0  0  0  0
 28 80  1  0  0  0  0
 29 31  2  0  0  0  0
 29 79  1  0  0  0  0
 30 81  1  0  0  0  0
 31 82  1  0  0  0  0
 32 63  2  0  0  0  0
 33 64  1  0  0  0  0
 33 67  1  0  0  0  0
 34 35  2  0  0  0  0
 35 37  1  0  0  0  0
 36 68  1  0  0  0  0
 36 73  2  0  0  0  0
 37 59  1  0  0  0  0
 37 74  2  0  0  0  0
 38 52  1  0  0  0  0
 38 70  1  0  0  0  0
 38 75  2  0  0  0  0
 39 60  1  0  0  0  0
 39 65  1  0  0  0  0
 39 76  2  0  0  0  0
 40 61  1  0  0  0  0
 40 71  1  0  0  0  0
 40 77  2  0  0  0  0
 41 66  1  0  0  0  0
 41 69  1  0  0  0  0
 41 78  2  0  0  0  0
 42 45  1  0  0  0  0
 43 52  1  0  0  0  0
 44 65  1  0  0  0  0
 45 47  1  0  0  0  0
 46 48  1  0  0  0  0
 46 49  1  0  0  0  0
 47 51  1  0  0  0  0
 48 53  1  0  0  0  0
 49 66  1  0  0  0  0
 50 53  1  0  0  0  0
 50 66  1  0  0  0  0
 51 70  1  0  0  0  0
 52 65  1  0  0  0  0
 53 64  1  0  0  0  0
 54 61  1  0  0  0  0
 55 62  1  0  0  0  0
 56 62  1  0  0  0  0
 57 62  1  0  0  0  0
 58 72  1  0  0  0  0
 59 80  1  0  0  0  0
 60 62  1  0  0  0  0
 60 71  1  0  0  0  0
 61 72  1  0  0  0  0
 63 64  1  0  0  0  0
M  CHG  1  72   1
M  ISO  4  41 100  59 101  69 100  80 101
M  END
> <Batch ID>
0128

> <Smiles>
CNC(C)C(=O)NC(C(=O)N1Cc2cc([101O:1][101CH2:1]C(=O)C=Cc3ccc([100NH:0][100C:0](=O)N4CCCC(n5nc(-c6ccc(Oc7ccc(F)cc7F)cc6)c(C(N)=O)c5N)C4)cc3)ccc2CC1C(=O)NC1CCCc2ccccc21)C(C)(C)C

> <Shape>
0.295

> <Color>
0.097

> <Negative vol penalty>
0.000

$$$$

  -OEChem-04052302163D

 83 91  0     1  0  0  0  0  0999 V2000
  -27.6094  -37.9508   25.7559 C   0  0  0  0  0  0  0  0  0  0  0  0
  -27.4403  -36.7277   26.3968 C   0  0  0  0  0  0  0  0  0  0  0  0
  -23.5210   -9.7663   22.4497 C   0  0  0  0  0  0  0  0  0  0  0  0
  -23.4012   -9.7536   20.0367 C   0  0  0  0  0  0  0  0  0  0  0  0
  -26.8250  -38.2705   24.6485 C   0  0  0  0  0  0  0  0  0  0  0  0
  -26.4859  -35.8239   25.9313 C   0  0  0  0  0  0  0  0  0  0  0  0
  -26.8851  -29.7128   25.9489 C   0  0  0  0  0  0  0  0  0  0  0  0
  -22.6955   -8.6429   22.4966 C   0  0  0  0  0  0  0  0  0  0  0  0
  -22.5757   -8.6302   20.0836 C   0  0  0  0  0  0  0  0  0  0  0  0
  -26.3791  -28.7423   26.8125 C   0  0  0  0  0  0  0  0  0  0  0  0
  -23.0030   -5.3054   22.0503 C   0  0  0  0  0  0  0  0  0  0  0  0
  -23.3664   -4.2694   22.9106 C   0  0  0  0  0  0  0  0  0  0  0  0
  -23.2602  -21.9717   23.0530 C   0  0  0  0  0  0  0  0  0  0  0  0
  -23.6561  -21.8681   25.4341 C   0  0  0  0  0  0  0  0  0  0  0  0
  -24.4880  -28.4329   25.3472 C   0  0  0  0  0  0  0  0  0  0  0  0
  -23.2217  -23.9948   24.3731 C   0  0  0  0  0  0  0  0  0  0  0  0
  -21.2783   -4.5237   24.0990 C   0  0  0  0  0  0  0  0  0  0  0  0
  -23.8738  -10.3217   21.2197 C   0  0  0  0  0  0  0  0  0  0  0  0
  -23.5370  -21.2283   24.2003 C   0  0  0  0  0  0  0  0  0  0  0  0
  -26.1319  -11.5025   21.1006 C   0  0  0  0  0  0  0  0  0  0  0  0
  -25.8672  -37.3663   24.1632 C   0  0  0  0  0  0  0  0  0  0  0  0
  -26.1896  -30.0591   24.7815 C   0  0  0  0  0  0  0  0  0  0  0  0
  -25.6870  -36.1324   24.8171 C   0  0  0  0  0  0  0  0  0  0  0  0
  -24.9886  -29.4064   24.4691 C   0  0  0  0  0  0  0  0  0  0  0  0
  -23.1026  -23.3550   23.1394 C   0  0  0  0  0  0  0  0  0  0  0  0
  -23.4985  -23.2514   25.5205 C   0  0  0  0  0  0  0  0  0  0  0  0
  -22.2229   -8.0749   21.3136 C   0  0  0  0  0  0  0  0  0  0  0  0
  -25.1790  -28.1042   26.5132 C   0  0  0  0  0  0  0  0  0  0  0  0
  -21.7773   -5.9507   22.2144 C   0  0  0  0  0  0  0  0  0  0  0  0
  -22.5041   -3.8785   23.9349 C   0  0  0  0  0  0  0  0  0  0  0  0
  -20.9149   -5.5598   23.2387 C   0  0  0  0  0  0  0  0  0  0  0  0
  -24.7261  -11.4824   21.1707 C   0  0  0  0  0  0  0  0  0  0  0  0
  -26.4555  -12.8371   21.0766 C   0  0  0  0  0  0  0  0  0  0  0  0
  -23.7008  -19.7859   24.1101 C   0  0  0  0  0  0  0  0  0  0  0  0
  -23.2509  -19.0081   23.1025 C   0  0  0  0  0  0  0  0  0  0  0  0
  -24.8077  -24.2964   27.0758 C   0  0  0  0  0  0  0  0  0  0  0  0
  -27.0622  -10.4122   21.0605 C   0  0  0  0  0  0  0  0  0  0  0  0
  -23.5059  -17.5543   23.1504 C   0  0  0  0  0  0  0  0  0  0  0  0
  -24.8474  -32.7199   23.6759 C   0  0  0  0  0  0  0  0  0  0  0  0
  -24.4115  -30.9274   21.0077 C   0  0  0  0  0  0  0  0  0  0  0  0
  -24.1051  -27.8247   19.6198 C   0  0  0  0  0  0  0  0  0  0  0  0
  -25.0102  -37.7758   22.9917 C   0  0  0  0  0  0  0  0  0  0  0  0
  -26.7623  -31.0890   23.8468 C   0  0  0  0  0  0  0  0  0  0  0  0
  -24.2137  -29.7273   23.2181 C   0  0  0  0  0  0  0  0  0  0  0  0
  -24.2804  -36.6079   22.3331 C   0  0  0  0  0  0  0  0  0  0  0  0
  -24.7571  -17.0888   19.7373 C   0  0  0  0  0  0  0  0  0  0  0  0
  -23.6280  -35.7220   23.3896 C   0  0  0  0  0  0  0  0  0  0  0  0
  -24.9733  -15.5781   19.7073 C   0  0  0  0  0  0  0  0  0  0  0  0
  -23.5570  -17.4776   20.5994 C   0  0  0  0  0  0  0  0  0  0  0  0
  -23.8356  -15.4235   21.9572 C   0  0  0  0  0  0  0  0  0  0  0  0
  -24.6793  -35.1155   24.3268 C   0  0  1  0  0  0  0  0  0  0  0  0
  -25.7104  -31.7295   22.9465 C   0  0  1  0  0  0  0  0  0  0  0  0
  -25.0663  -15.0131   21.1335 C   0  0  1  0  0  0  0  0  0  0  0  0
  -22.8062  -24.1499   21.9128 C   0  0  0  0  0  0  0  0  0  0  0  0
  -23.7183  -26.6800   17.4205 C   0  0  0  0  0  0  0  0  0  0  0  0
  -21.4544  -31.6668   21.1457 C   0  0  0  0  0  0  0  0  0  0  0  0
  -20.9825  -29.7892   19.5581 C   0  0  0  0  0  0  0  0  0  0  0  0
  -22.4294  -31.6911   18.8428 C   0  0  0  0  0  0  0  0  0  0  0  0
  -26.7102  -26.4271   19.7572 C   0  0  0  0  0  0  0  0  0  0  0  0
  -25.0574  -25.0134   28.3755 C   0  0  0  0  0  0  0  0  0  0  0  0
  -25.6275  -26.3957   28.1056 C   0  0  0  0  0  0  0  0  0  1  0  0
  -23.3256  -30.0081   20.5030 C   0  0  1  0  0  0  0  0  0  0  0  0
  -24.7586  -27.1971   18.4019 C   0  0  2  0  0  0  0  0  0  0  0  0
  -22.0614  -30.7839   20.0370 C   0  0  0  0  0  0  0  0  0  0  0  0
  -24.1932  -12.7071   21.1902 N   0  0  0  0  0  0  0  0  0  0  0  0
  -23.6185  -23.8967   26.7627 N   0  0  0  0  0  0  0  0  0  0  0  0
  -25.2700  -13.5092   21.1321 N   0  0  0  0  0  0  0  0  0  0  0  0
  -23.6400  -16.8775   21.9395 N   0  0  0  0  0  0  0  0  0  0  0  0
  -24.8116  -30.7459   22.3391 N   0  0  0  0  0  0  0  0  0  0  0  0
  -27.6356  -13.4896   21.0139 N   0  0  0  0  0  0  0  0  0  0  0  0
  -26.5602   -9.1041   21.0931 N   0  0  0  0  0  0  0  0  0  0  0  0
  -25.3507  -34.0068   23.6830 N   0  0  0  0  0  0  0  0  0  0  0  0
  -23.9375  -29.1846   19.4656 N   0  0  0  0  0  0  0  0  0  0  0  0
  -25.6273  -26.0570   18.8099 N   0  3  0  0  0  0  0  0  0  0  0  0
  -28.3027  -10.5928   21.0144 O   0  0  0  0  0  0  0  0  0  0  0  0
  -23.5798  -17.0263   24.2615 O   0  0  0  0  0  0  0  0  0  0  0  0
  -23.8016  -32.3446   24.1927 O   0  0  0  0  0  0  0  0  0  0  0  0
  -24.8920  -31.7707   20.2464 O   0  0  0  0  0  0  0  0  0  0  0  0
  -23.7729  -27.1732   20.6076 O   0  0  0  0  0  0  0  0  0  0  0  0
  -21.4175   -6.9786   21.3590 O   0  0  0  0  0  0  0  0  0  0  0  0
  -24.6825  -27.1570   27.3547 O   0  0  0  0  0  0  0  0  0  1  0  0
  -22.8526   -2.8825   24.7600 F   0  0  0  0  0  0  0  0  0  0  0  0
  -19.7355   -6.1751   23.4005 F   0  0  0  0  0  0  0  0  0  0  0  0
  1  2  1  0  0  0  0
  1  5  2  0  0  0  0
  2  6  2  0  0  0  0
  3  8  2  0  0  0  0
  3 18  1  0  0  0  0
  4  9  1  0  0  0  0
  4 18  2  0  0  0  0
  5 21  1  0  0  0  0
  6 23  1  0  0  0  0
  7 10  2  0  0  0  0
  7 22  1  0  0  0  0
  8 27  1  0  0  0  0
  9 27  2  0  0  0  0
 10 28  1  0  0  0  0
 11 12  2  0  0  0  0
 11 29  1  0  0  0  0
 12 30  1  0  0  0  0
 13 19  2  0  0  0  0
 13 25  1  0  0  0  0
 14 19  1  0  0  0  0
 14 26  2  0  0  0  0
 15 24  1  0  0  0  0
 15 28  2  0  0  0  0
 16 25  2  0  0  0  0
 16 26  1  0  0  0  0
 17 30  2  0  0  0  0
 17 31  1  0  0  0  0
 18 32  1  0  0  0  0
 19 34  1  0  0  0  0
 20 32  1  0  0  0  0
 20 33  2  0  0  0  0
 20 37  1  0  0  0  0
 21 23  2  0  0  0  0
 21 42  1  0  0  0  0
 22 24  2  0  0  0  0
 22 43  1  0  0  0  0
 23 51  1  0  0  0  0
 24 44  1  0  0  0  0
 25 54  1  0  0  0  0
 26 66  1  0  0  0  0
 27 80  1  0  0  0  0
 28 81  1  0  0  0  0
 29 31  2  0  0  0  0
 29 80  1  0  0  0  0
 30 82  1  0  0  0  0
 31 83  1  0  0  0  0
 32 65  2  0  0  0  0
 33 67  1  0  0  0  0
 33 70  1  0  0  0  0
 34 35  2  0  0  0  0
 35 38  1  0  0  0  0
 36 60  1  0  0  0  0
 36 66  2  0  0  0  0
 37 71  1  0  0  0  0
 37 75  2  0  0  0  0
 38 68  1  0  0  0  0
 38 76  2  0  0  0  0
 39 52  1  0  0  0  0
 39 72  1  0  0  0  0
 39 77  2  0  0  0  0
 40 62  1  0  0  0  0
 40 69  1  0  0  0  0
 40 78  2  0  0  0  0
 41 63  1  0  0  0  0
 41 73  1  0  0  0  0
 41 79  2  0  0  0  0
 42 45  1  0  0  0  0
 43 52  1  0  0  0  0
 44 69  1  0  0  0  0
 45 47  1  0  0  0  0
 46 48  1  0  0  0  0
 46 49  1  0  0  0  0
 47 51  1  0  0  0  0
 48 53  1  0  0  0  0
 49 68  1  0  0  0  0
 50 53  1  0  0  0  0
 50 68  1  0  0  0  0
 51 72  1  0  0  0  0
 52 69  1  0  0  0  0
 53 67  1  0  0  0  0
 55 63  1  0  0  0  0
 56 64  1  0  0  0  0
 57 64  1  0  0  0  0
 58 64  1  0  0  0  0
 59 74  1  0  0  0  0
 60 61  1  0  0  0  0
 61 81  1  0  0  0  0
 62 64  1  0  0  0  0
 62 73  1  0  0  0  0
 63 74  1  0  0  0  0
 65 67  1  0  0  0  0
M  CHG  1  74   1
M  ISO  4  35 100  38 100  61 101  81 101
M  END
> <Batch ID>
0128

> <Smiles>
CNC(C)C(=O)NC(C(=O)N1Cc2cc([101O:1][101CH2:1]C=CNc3cc(C)cc(C=[100CH:0][100C:0](=O)N4CCCC(n5nc(-c6ccc(Oc7ccc(F)cc7F)cc6)c(C(N)=O)c5N)C4)c3)ccc2CC1C(=O)NC1CCCc2ccccc21)C(C)(C)C

> <Shape>
0.265

> <Color>
0.094

> <Negative vol penalty>
0.000

$$$$

  -OEChem-04052302163D

 84 92  0     1  0  0  0  0  0999 V2000
  -29.6062  -25.3970   17.3555 C   0  0  0  0  0  0  0  0  0  0  0  0
  -28.2276  -25.5692   17.4277 C   0  0  0  0  0  0  0  0  0  0  0  0
  -26.1970  -16.8076   18.0076 C   0  0  0  0  0  0  0  0  0  0  0  0
  -23.9318  -16.2599   18.6449 C   0  0  0  0  0  0  0  0  0  0  0  0
  -30.4094  -25.7511   18.4386 C   0  0  0  0  0  0  0  0  0  0  0  0
  -27.6513  -26.0946   18.5837 C   0  0  0  0  0  0  0  0  0  0  0  0
  -22.7432  -29.7420   18.9200 C   0  0  0  0  0  0  0  0  0  0  0  0
  -26.6781  -15.8255   18.8734 C   0  0  0  0  0  0  0  0  0  0  0  0
  -24.4129  -15.2778   19.5108 C   0  0  0  0  0  0  0  0  0  0  0  0
  -21.4010  -29.4853   19.1963 C   0  0  0  0  0  0  0  0  0  0  0  0
  -25.5883  -12.1176   19.2831 C   0  0  0  0  0  0  0  0  0  0  0  0
  -24.9532  -10.8758   19.2691 C   0  0  0  0  0  0  0  0  0  0  0  0
  -16.9309  -23.3349   20.9580 C   0  0  0  0  0  0  0  0  0  0  0  0
  -18.9642  -24.2152   19.9949 C   0  0  0  0  0  0  0  0  0  0  0  0
  -21.7703  -30.0734   21.5065 C   0  0  0  0  0  0  0  0  0  0  0  0
  -18.2146  -21.9937   19.4119 C   0  0  0  0  0  0  0  0  0  0  0  0
  -24.3909  -11.1371   21.6043 C   0  0  0  0  0  0  0  0  0  0  0  0
  -24.8239  -17.0248   17.8933 C   0  0  0  0  0  0  0  0  0  0  0  0
  -17.8585  -24.3688   20.8313 C   0  0  0  0  0  0  0  0  0  0  0  0
  -23.9823  -17.8834   15.6434 C   0  0  0  0  0  0  0  0  0  0  0  0
  -29.8437  -26.2901   19.6048 C   0  0  0  0  0  0  0  0  0  0  0  0
  -23.6130  -30.1565   19.9389 C   0  0  0  0  0  0  0  0  0  0  0  0
  -28.4476  -26.4550   19.6840 C   0  0  0  0  0  0  0  0  0  0  0  0
  -23.1226  -30.3371   21.2400 C   0  0  0  0  0  0  0  0  0  0  0  0
  -17.1090  -22.1473   20.2483 C   0  0  0  0  0  0  0  0  0  0  0  0
  -19.1423  -23.0276   19.2852 C   0  0  0  0  0  0  0  0  0  0  0  0
  -25.7861  -15.0606   19.6250 C   0  0  0  0  0  0  0  0  0  0  0  0
  -20.9150  -29.6482   20.4903 C   0  0  0  0  0  0  0  0  0  0  0  0
  -25.6248  -12.8691   20.4577 C   0  0  0  0  0  0  0  0  0  0  0  0
  -24.3545  -10.3856   20.4297 C   0  0  0  0  0  0  0  0  0  0  0  0
  -25.0261  -12.3788   21.6183 C   0  0  0  0  0  0  0  0  0  0  0  0
  -24.3263  -18.0395   16.9995 C   0  0  0  0  0  0  0  0  0  0  0  0
  -23.5683  -19.1320   15.2482 C   0  0  0  0  0  0  0  0  0  0  0  0
  -15.7478  -29.0967   22.2899 C   0  0  0  0  0  0  0  0  0  0  0  0
  -17.6714  -25.6221   21.5805 C   0  0  0  0  0  0  0  0  0  0  0  0
  -16.8348  -28.8233   21.5585 C   0  0  0  0  0  0  0  0  0  0  0  0
  -18.2451  -26.7973   21.2746 C   0  0  0  0  0  0  0  0  0  0  0  0
  -24.0323  -16.7143   14.8150 C   0  0  0  0  0  0  0  0  0  0  0  0
  -26.2436  -28.9636   21.2658 C   0  0  0  0  0  0  0  0  0  0  0  0
  -26.2772  -31.8075   22.8258 C   0  0  0  0  0  0  0  0  0  0  0  0
  -24.5290  -34.5083   23.9643 C   0  0  0  0  0  0  0  0  0  0  0  0
  -21.2805  -23.7976   18.1982 C   0  0  0  0  0  0  0  0  0  0  0  0
  -30.7479  -26.6140   20.7677 C   0  0  0  0  0  0  0  0  0  0  0  0
  -25.0521  -30.4551   19.6190 C   0  0  0  0  0  0  0  0  0  0  0  0
  -24.0106  -30.7997   22.3651 C   0  0  0  0  0  0  0  0  0  0  0  0
  -30.0956  -27.5134   21.8145 C   0  0  0  0  0  0  0  0  0  0  0  0
  -24.2336  -23.7761   16.2094 C   0  0  0  0  0  0  0  0  0  0  0  0
  -28.6935  -27.0139   22.1483 C   0  0  0  0  0  0  0  0  0  0  0  0
  -24.5578  -22.2881   16.0578 C   0  0  0  0  0  0  0  0  0  0  0  0
  -23.6722  -24.0961   17.5936 C   0  0  0  0  0  0  0  0  0  0  0  0
  -22.8485  -21.7886   17.8511 C   0  0  0  0  0  0  0  0  0  0  0  0
  -27.7877  -27.0450   20.9114 C   0  0  1  0  0  0  0  0  0  0  0  0
  -25.9641  -30.3770   20.8395 C   0  0  1  0  0  0  0  0  0  0  0  0
  -23.3562  -21.4067   16.4511 C   0  0  2  0  0  0  0  0  0  0  0  0
  -16.1178  -21.0411   20.3839 C   0  0  0  0  0  0  0  0  0  0  0  0
  -24.8226  -36.6511   25.2368 C   0  0  0  0  0  0  0  0  0  0  0  0
  -26.4463  -30.2327   25.4338 C   0  0  0  0  0  0  0  0  0  0  0  0
  -25.7847  -32.3165   26.6537 C   0  0  0  0  0  0  0  0  0  0  0  0
  -27.9066  -32.2609   25.3433 C   0  0  0  0  0  0  0  0  0  0  0  0
  -23.6271  -36.1345   21.6619 C   0  0  0  0  0  0  0  0  0  0  0  0
  -19.2918  -28.9388   22.0771 C   0  0  0  0  0  0  0  0  0  1  0  0
  -18.0305  -28.0608   22.0779 C   0  0  1  0  0  0  0  0  0  0  0  0
  -25.6953  -32.3242   24.1194 C   0  0  1  0  0  0  0  0  0  0  0  0
  -24.7993  -35.9986   23.8633 C   0  0  2  0  0  0  0  0  0  0  0  0
  -26.4417  -31.7730   25.3670 C   0  0  0  0  0  0  0  0  0  0  0  0
  -24.1467  -19.2889   17.4365 N   0  0  0  0  0  0  0  0  0  0  0  0
  -23.6854  -19.9291   16.3487 N   0  0  0  0  0  0  0  0  0  0  0  0
  -25.4114  -31.0727   22.0035 N   0  0  0  0  0  0  0  0  0  0  0  0
  -22.5342  -23.2253   17.8959 N   0  0  0  0  0  0  0  0  0  0  0  0
  -23.1194  -19.6148   14.0702 N   0  0  0  0  0  0  0  0  0  0  0  0
  -24.4826  -15.5135   15.3805 N   0  0  0  0  0  0  0  0  0  0  0  0
  -20.2659  -22.8710   18.4363 N   0  0  0  0  0  0  0  0  0  0  0  0
  -27.3404  -28.3956   20.6463 N   0  0  0  0  0  0  0  0  0  0  0  0
  -25.6983  -33.7794   24.0158 N   0  0  0  0  0  0  0  0  0  0  0  0
  -23.7447  -36.6621   23.0457 N   0  3  0  0  0  0  0  0  0  0  0  0
  -23.7036  -16.7376   13.6047 O   0  0  0  0  0  0  0  0  0  0  0  0
  -25.5188  -28.4285   22.0964 O   0  0  0  0  0  0  0  0  0  0  0  0
  -27.4546  -32.0530   22.5516 O   0  0  0  0  0  0  0  0  0  0  0  0
  -23.3940  -34.0380   23.9981 O   0  0  0  0  0  0  0  0  0  0  0  0
  -21.1123  -25.0197   18.2159 O   0  0  0  0  0  0  0  0  0  0  0  0
  -26.2551  -14.1021   20.4698 O   0  0  0  0  0  0  0  0  0  0  0  0
  -19.6055  -29.3978   20.7628 O   0  0  0  0  0  0  0  0  0  1  0  0
  -23.7432   -9.1938   20.4157 F   0  0  0  0  0  0  0  0  0  0  0  0
  -25.0569  -13.0968   22.7494 F   0  0  0  0  0  0  0  0  0  0  0  0
  1  2  1  0  0  0  0
  1  5  2  0  0  0  0
  2  6  2  0  0  0  0
  3  8  2  0  0  0  0
  3 18  1  0  0  0  0
  4  9  1  0  0  0  0
  4 18  2  0  0  0  0
  5 21  1  0  0  0  0
  6 23  1  0  0  0  0
  7 10  2  0  0  0  0
  7 22  1  0  0  0  0
  8 27  1  0  0  0  0
  9 27  2  0  0  0  0
 10 28  1  0  0  0  0
 11 12  2  0  0  0  0
 11 29  1  0  0  0  0
 12 30  1  0  0  0  0
 13 19  1  0  0  0  0
 13 25  2  0  0  0  0
 14 19  2  0  0  0  0
 14 26  1  0  0  0  0
 15 24  1  0  0  0  0
 15 28  2  0  0  0  0
 16 25  1  0  0  0  0
 16 26  2  0  0  0  0
 17 30  2  0  0  0  0
 17 31  1  0  0  0  0
 18 32  1  0  0  0  0
 19 35  1  0  0  0  0
 20 32  1  0  0  0  0
 20 33  2  0  0  0  0
 20 38  1  0  0  0  0
 21 23  2  0  0  0  0
 21 43  1  0  0  0  0
 22 24  2  0  0  0  0
 22 44  1  0  0  0  0
 23 52  1  0  0  0  0
 24 45  1  0  0  0  0
 25 55  1  0  0  0  0
 26 72  1  0  0  0  0
 27 81  1  0  0  0  0
 28 82  1  0  0  0  0
 29 31  2  0  0  0  0
 29 81  1  0  0  0  0
 30 83  1  0  0  0  0
 31 84  1  0  0  0  0
 32 66  2  0  0  0  0
 33 67  1  0  0  0  0
 33 70  1  0  0  0  0
 34 36  2  0  0  0  0
 35 37  2  0  0  0  0
 36 62  1  0  0  0  0
 37 62  1  0  0  0  0
 38 71  1  0  0  0  0
 38 76  2  0  0  0  0
 39 53  1  0  0  0  0
 39 73  1  0  0  0  0
 39 77  2  0  0  0  0
 40 63  1  0  0  0  0
 40 68  1  0  0  0  0
 40 78  2  0  0  0  0
 41 64  1  0  0  0  0
 41 74  1  0  0  0  0
 41 79  2  0  0  0  0
 42 69  1  0  0  0  0
 42 72  1  0  0  0  0
 42 80  2  0  0  0  0
 43 46  1  0  0  0  0
 44 53  1  0  0  0  0
 45 68  1  0  0  0  0
 46 48  1  0  0  0  0
 47 49  1  0  0  0  0
 47 50  1  0  0  0  0
 48 52  1  0  0  0  0
 49 54  1  0  0  0  0
 50 69  1  0  0  0  0
 51 54  1  0  0  0  0
 51 69  1  0  0  0  0
 52 73  1  0  0  0  0
 53 68  1  0  0  0  0
 54 67  1  0  0  0  0
 56 64  1  0  0  0  0
 57 65  1  0  0  0  0
 58 65  1  0  0  0  0
 59 65  1  0  0  0  0
 60 75  1  0  0  0  0
 61 62  1  0  0  0  0
 61 82  1  0  0  0  0
 63 65  1  0  0  0  0
 63 74  1  0  0  0  0
 64 75  1  0  0  0  0
 66 67  1  0  0  0  0
M  CHG  1  75   1
M  ISO  4  42 100  61 101  72 100  82 101
M  END
> <Batch ID>
0128

> <Smiles>
C=CC(C=Cc1cc(C)cc([100NH:0][100C:0](=O)N2CCCC(n3nc(-c4ccc(Oc5ccc(F)cc5F)cc4)c(C(N)=O)c3N)C2)c1)[101CH2:1][101O:1]c1ccc2c(c1)CN(C(=O)C(NC(=O)C(C)NC)C(C)(C)C)C(C(=O)NC1CCCc3ccccc31)C2

> <Shape>
0.259

> <Color>
0.060

> <Negative vol penalty>
0.000

$$$$

  -OEChem-04052302163D

 86 94  0     1  0  0  0  0  0999 V2000
  -16.4675  -26.1816   22.8138 C   0  0  0  0  0  0  0  0  0  0  0  0
  -17.7067  -25.6630   22.4523 C   0  0  0  0  0  0  0  0  0  0  0  0
  -22.9192  -10.0659   19.9879 C   0  0  0  0  0  0  0  0  0  0  0  0
  -23.7374   -9.9920   22.2600 C   0  0  0  0  0  0  0  0  0  0  0  0
  -29.3008  -18.3783   19.6073 C   0  0  0  0  0  0  0  0  0  0  0  0
  -29.9519  -17.2271   20.0503 C   0  0  0  0  0  0  0  0  0  0  0  0
  -16.3718  -27.4893   23.2879 C   0  0  0  0  0  0  0  0  0  0  0  0
  -18.8510  -26.4521   22.5638 C   0  0  0  0  0  0  0  0  0  0  0  0
  -22.7358  -23.9581   24.6453 C   0  0  0  0  0  0  0  0  0  0  0  0
  -22.1306   -8.9423   20.2354 C   0  0  0  0  0  0  0  0  0  0  0  0
  -22.9488   -8.8684   22.5074 C   0  0  0  0  0  0  0  0  0  0  0  0
  -23.4354  -23.0721   23.8271 C   0  0  0  0  0  0  0  0  0  0  0  0
  -23.0747   -5.5488   21.8786 C   0  0  0  0  0  0  0  0  0  0  0  0
  -23.6615   -4.4825   22.5600 C   0  0  0  0  0  0  0  0  0  0  0  0
  -27.9209  -18.3610   21.5904 C   0  0  0  0  0  0  0  0  0  0  0  0
  -25.1542  -24.7341   23.5070 C   0  0  0  0  0  0  0  0  0  0  0  0
  -22.0142   -4.6971   24.3143 C   0  0  0  0  0  0  0  0  0  0  0  0
  -23.7227  -10.5907   21.0002 C   0  0  0  0  0  0  0  0  0  0  0  0
  -28.2853  -18.9453   20.3774 C   0  0  0  0  0  0  0  0  0  0  0  0
  -29.5875  -16.6427   21.2633 C   0  0  0  0  0  0  0  0  0  0  0  0
  -24.1751  -13.1000   20.9198 C   0  0  0  0  0  0  0  0  0  0  0  0
  -17.5167  -28.2916   23.4144 C   0  0  0  0  0  0  0  0  0  0  0  0
  -23.2357  -25.2448   24.8921 C   0  0  0  0  0  0  0  0  0  0  0  0
  -18.7703  -27.7722   23.0388 C   0  0  0  0  0  0  0  0  0  0  0  0
  -24.4603  -25.6337   24.3308 C   0  0  0  0  0  0  0  0  0  0  0  0
  -28.5720  -17.2097   22.0333 C   0  0  0  0  0  0  0  0  0  0  0  0
  -22.1454   -8.3435   21.4951 C   0  0  0  0  0  0  0  0  0  0  0  0
  -24.6433  -23.4610   23.2555 C   0  0  0  0  0  0  0  0  0  0  0  0
  -21.9577   -6.1893   22.4151 C   0  0  0  0  0  0  0  0  0  0  0  0
  -23.1313   -4.0566   23.7778 C   0  0  0  0  0  0  0  0  0  0  0  0
  -21.4275   -5.7634   23.6329 C   0  0  0  0  0  0  0  0  0  0  0  0
  -24.5379  -11.7510   20.7451 C   0  0  0  0  0  0  0  0  0  0  0  0
  -25.2904  -13.8071   20.5421 C   0  0  0  0  0  0  0  0  0  0  0  0
  -25.4845  -23.4468   18.2157 C   0  0  0  0  0  0  0  0  0  0  0  0
  -27.5985  -20.1615   19.9085 C   0  0  0  0  0  0  0  0  0  0  0  0
  -26.4106  -22.7656   18.9027 C   0  0  0  0  0  0  0  0  0  0  0  0
  -26.9034  -20.9997   20.6964 C   0  0  0  0  0  0  0  0  0  0  0  0
  -25.5684  -22.9721   21.1636 C   0  0  0  0  0  0  0  0  0  1  0  0
  -30.2843  -15.4411   21.7023 C   0  0  0  0  0  0  0  0  0  0  0  0
  -22.9405  -13.6634   21.3823 C   0  0  0  0  0  0  0  0  0  0  0  0
  -26.2308  -22.2281   20.2542 C   0  0  0  0  0  0  0  0  0  0  0  0
  -30.8411  -14.4752   20.7274 C   0  0  0  0  0  0  0  0  0  0  0  0
  -22.2126  -28.1979   24.3126 C   0  0  0  0  0  0  0  0  0  0  0  0
  -24.8154  -29.0252   26.0627 C   0  0  0  0  0  0  0  0  0  0  0  0
  -27.9171  -28.1891   27.2149 C   0  0  0  0  0  0  0  0  0  0  0  0
  -17.3571  -29.7149   23.8871 C   0  0  0  0  0  0  0  0  0  0  0  0
  -22.4822  -26.1792   25.7985 C   0  0  0  0  0  0  0  0  0  0  0  0
  -25.0501  -26.9968   24.5809 C   0  0  0  0  0  0  0  0  0  0  0  0
  -18.6679  -30.3605   24.3291 C   0  0  0  0  0  0  0  0  0  0  0  0
  -29.5054  -12.3211   18.1912 C   0  0  0  0  0  0  0  0  0  0  0  0
  -19.7669  -30.0919   23.3059 C   0  0  0  0  0  0  0  0  0  0  0  0
  -28.0761  -12.0609   18.6658 C   0  0  0  0  0  0  0  0  0  0  0  0
  -30.4681  -12.4559   19.3665 C   0  0  0  0  0  0  0  0  0  0  0  0
  -28.6337  -13.2435   20.8374 C   0  0  0  0  0  0  0  0  0  0  0  0
  -20.0377  -28.5888   23.1689 C   0  0  1  0  0  0  0  0  0  0  0  0
  -22.8300  -27.6464   25.5665 C   0  0  1  0  0  0  0  0  0  0  0  0
  -27.6276  -13.1291   19.6789 C   0  0  2  0  0  0  0  0  0  0  0  0
  -28.7165  -17.3747   24.5310 C   0  0  0  0  0  0  0  0  0  0  0  0
  -29.8144  -29.0844   28.5919 C   0  0  0  0  0  0  0  0  0  0  0  0
  -25.6523  -30.8178   23.7397 C   0  0  0  0  0  0  0  0  0  0  0  0
  -27.9450  -30.9254   24.7399 C   0  0  0  0  0  0  0  0  0  0  0  0
  -25.9907  -31.8206   26.0056 C   0  0  0  0  0  0  0  0  0  0  0  0
  -27.6725  -25.9968   29.1879 C   0  0  0  0  0  0  0  0  0  0  0  0
  -28.1632  -16.6039   23.3366 C   0  0  0  0  0  0  0  0  0  0  0  0
  -26.2631  -29.3199   25.7520 C   0  0  1  0  0  0  0  0  0  0  0  0
  -28.5317  -28.2674   28.6007 C   0  0  2  0  0  0  0  0  0  0  0  0
  -26.4510  -30.6958   25.0529 C   0  0  0  0  0  0  0  0  0  0  0  0
  -25.7860  -11.6073   20.2914 N   0  0  0  0  0  0  0  0  0  0  0  0
  -30.4649  -15.1388   22.9582 N   0  0  0  0  0  0  0  0  0  0  0  0
  -26.2171  -12.8751   20.1779 N   0  0  0  0  0  0  0  0  0  0  0  0
  -29.9945  -13.4513   20.3262 N   0  0  0  0  0  0  0  0  0  0  0  0
  -24.2727  -27.8768   25.4691 N   0  0  0  0  0  0  0  0  0  0  0  0
  -25.5588  -15.1291   20.4891 N   0  0  0  0  0  0  0  0  0  0  0  0
  -21.8975  -12.7937   21.7289 N   0  0  0  0  0  0  0  0  0  0  0  0
  -20.8336  -28.1153   24.2810 N   0  0  0  0  0  0  0  0  0  0  0  0
  -26.9864  -29.1861   27.0119 N   0  0  0  0  0  0  0  0  0  0  0  0
  -28.8481  -26.9012   29.1050 N   0  3  0  0  0  0  0  0  0  0  0  0
  -22.7617  -14.9019   21.4696 O   0  0  0  0  0  0  0  0  0  0  0  0
  -31.9955  -14.6845   20.3782 O   0  0  0  0  0  0  0  0  0  0  0  0
  -22.9338  -28.6653   23.4390 O   0  0  0  0  0  0  0  0  0  0  0  0
  -24.1912  -29.7821   26.8105 O   0  0  0  0  0  0  0  0  0  0  0  0
  -28.2338  -27.3318   26.3932 O   0  0  0  0  0  0  0  0  0  0  0  0
  -21.3758   -7.2472   21.7370 O   0  0  0  0  0  0  0  0  0  0  0  0
  -25.3278  -22.5984   22.4560 O   0  0  0  0  0  0  0  0  0  1  0  0
  -23.6939   -3.0317   24.4313 F   0  0  0  0  0  0  0  0  0  0  0  0
  -20.3538   -6.3740   24.1527 F   0  0  0  0  0  0  0  0  0  0  0  0
  1  2  1  0  0  0  0
  1  7  2  0  0  0  0
  2  8  2  0  0  0  0
  3 10  2  0  0  0  0
  3 18  1  0  0  0  0
  4 11  1  0  0  0  0
  4 18  2  0  0  0  0
  5  6  2  0  0  0  0
  5 19  1  0  0  0  0
  6 20  1  0  0  0  0
  7 22  1  0  0  0  0
  8 24  1  0  0  0  0
  9 12  2  0  0  0  0
  9 23  1  0  0  0  0
 10 27  1  0  0  0  0
 11 27  2  0  0  0  0
 12 28  1  0  0  0  0
 13 14  2  0  0  0  0
 13 29  1  0  0  0  0
 14 30  1  0  0  0  0
 15 19  2  0  0  0  0
 15 26  1  0  0  0  0
 16 25  1  0  0  0  0
 16 28  2  0  0  0  0
 17 30  2  0  0  0  0
 17 31  1  0  0  0  0
 18 32  1  0  0  0  0
 19 35  1  0  0  0  0
 20 26  2  0  0  0  0
 20 39  1  0  0  0  0
 21 32  1  0  0  0  0
 21 33  2  0  0  0  0
 21 40  1  0  0  0  0
 22 24  2  0  0  0  0
 22 46  1  0  0  0  0
 23 25  2  0  0  0  0
 23 47  1  0  0  0  0
 24 55  1  0  0  0  0
 25 48  1  0  0  0  0
 26 64  1  0  0  0  0
 27 83  1  0  0  0  0
 28 84  1  0  0  0  0
 29 31  2  0  0  0  0
 29 83  1  0  0  0  0
 30 85  1  0  0  0  0
 31 86  1  0  0  0  0
 32 68  2  0  0  0  0
 33 70  1  0  0  0  0
 33 73  1  0  0  0  0
 34 36  2  0  0  0  0
 35 37  2  0  0  0  0
 36 41  1  0  0  0  0
 37 41  1  0  0  0  0
 38 41  2  0  0  0  0
 38 84  1  0  0  0  0
 39 42  1  0  0  0  0
 39 69  2  0  0  0  0
 40 74  1  0  0  0  0
 40 78  2  0  0  0  0
 42 71  1  0  0  0  0
 42 79  2  0  0  0  0
 43 56  1  0  0  0  0
 43 75  1  0  0  0  0
 43 80  2  0  0  0  0
 44 65  1  0  0  0  0
 44 72  1  0  0  0  0
 44 81  2  0  0  0  0
 45 66  1  0  0  0  0
 45 76  1  0  0  0  0
 45 82  2  0  0  0  0
 46 49  1  0  0  0  0
 47 56  1  0  0  0  0
 48 72  1  0  0  0  0
 49 51  1  0  0  0  0
 50 52  1  0  0  0  0
 50 53  1  0  0  0  0
 51 55  1  0  0  0  0
 52 57  1  0  0  0  0
 53 71  1  0  0  0  0
 54 57  1  0  0  0  0
 54 71  1  0  0  0  0
 55 75  1  0  0  0  0
 56 72  1  0  0  0  0
 57 70  1  0  0  0  0
 58 64  1  0  0  0  0
 59 66  1  0  0  0  0
 60 67  1  0  0  0  0
 61 67  1  0  0  0  0
 62 67  1  0  0  0  0
 63 77  1  0  0  0  0
 65 67  1  0  0  0  0
 65 76  1  0  0  0  0
 66 77  1  0  0  0  0
 68 70  1  0  0  0  0
M  CHG  1  77   1
M  ISO  4  38 101  39 100  42 100  84 101
M  END
> <Batch ID>
0128

> <Smiles>
C=CC(C=Cc1ccc([100C:0](=N)[100C:0](=O)N2CCCC(n3nc(-c4ccc(Oc5ccc(F)cc5F)cc4)c(C(N)=O)c3N)C2)c(CC)c1)=[101CH:1][101O:1]c1ccc2c(c1)CN(C(=O)C(NC(=O)C(C)NC)C(C)(C)C)C(C(=O)NC1CCCc3ccccc31)C2

> <Shape>
0.328

> <Color>
0.236

> <Negative vol penalty>
0.000

$$$$

  -OEChem-04052302163D

 86 94  0     1  0  0  0  0  0999 V2000
  -15.9239  -27.1920   25.4474 C   0  0  0  0  0  0  0  0  0  0  0  0
  -17.0954  -26.4425   25.4837 C   0  0  0  0  0  0  0  0  0  0  0  0
  -22.8578  -10.0581   20.1349 C   0  0  0  0  0  0  0  0  0  0  0  0
  -23.6167  -10.1597   22.4264 C   0  0  0  0  0  0  0  0  0  0  0  0
  -15.8718  -28.3661   24.6973 C   0  0  0  0  0  0  0  0  0  0  0  0
  -18.2152  -26.8663   24.7690 C   0  0  0  0  0  0  0  0  0  0  0  0
  -24.0834  -26.2193   26.3974 C   0  0  0  0  0  0  0  0  0  0  0  0
  -22.0418   -8.9726   20.4533 C   0  0  0  0  0  0  0  0  0  0  0  0
  -22.8006   -9.0742   22.7448 C   0  0  0  0  0  0  0  0  0  0  0  0
  -25.0600  -25.2917   26.0372 C   0  0  0  0  0  0  0  0  0  0  0  0
  -22.8786   -5.7121   22.3966 C   0  0  0  0  0  0  0  0  0  0  0  0
  -23.4273   -4.6965   23.1795 C   0  0  0  0  0  0  0  0  0  0  0  0
  -30.0227  -17.6176   22.4476 C   0  0  0  0  0  0  0  0  0  0  0  0
  -25.8827  -26.8180   24.3601 C   0  0  0  0  0  0  0  0  0  0  0  0
  -21.7406   -5.0845   24.8652 C   0  0  0  0  0  0  0  0  0  0  0  0
  -32.5496  -18.2347   21.6233 C   0  0  0  0  0  0  0  0  0  0  0  0
  -23.6454  -10.6516   21.1215 C   0  0  0  0  0  0  0  0  0  0  0  0
  -30.5747  -18.8441   22.8002 C   0  0  0  0  0  0  0  0  0  0  0  0
  -31.8617  -19.1662   22.3841 C   0  0  0  0  0  0  0  0  0  0  0  0
  -24.1479  -13.1374   20.8457 C   0  0  0  0  0  0  0  0  0  0  0  0
  -16.9946  -28.8095   23.9808 C   0  0  0  0  0  0  0  0  0  0  0  0
  -23.9921  -27.4509   25.7330 C   0  0  0  0  0  0  0  0  0  0  0  0
  -18.1777  -28.0467   24.0075 C   0  0  0  0  0  0  0  0  0  0  0  0
  -24.9057  -27.7605   24.7154 C   0  0  0  0  0  0  0  0  0  0  0  0
  -22.0132   -8.4807   21.7582 C   0  0  0  0  0  0  0  0  0  0  0  0
  -25.9580  -25.5898   25.0165 C   0  0  0  0  0  0  0  0  0  0  0  0
  -21.7609   -6.4141   22.8480 C   0  0  0  0  0  0  0  0  0  0  0  0
  -22.8583   -4.3826   24.4137 C   0  0  0  0  0  0  0  0  0  0  0  0
  -21.1919   -6.1002   24.0823 C   0  0  0  0  0  0  0  0  0  0  0  0
  -24.4890  -11.7726   20.7931 C   0  0  0  0  0  0  0  0  0  0  0  0
  -30.7927  -16.7555   21.6837 C   0  0  0  0  0  0  0  0  0  0  0  0
  -25.2857  -13.7915   20.4408 C   0  0  0  0  0  0  0  0  0  0  0  0
  -29.7675  -19.7644   23.6079 C   0  0  0  0  0  0  0  0  0  0  0  0
  -32.5074  -20.4288   22.7130 C   0  0  0  0  0  0  0  0  0  0  0  0
  -28.1886  -21.5325   24.0844 C   0  0  0  0  0  0  0  0  0  0  0  0
  -32.9729  -21.3346   21.8242 C   0  0  0  0  0  0  0  0  0  0  0  0
  -27.3171  -22.5121   23.7940 C   0  0  0  0  0  0  0  0  0  0  0  0
  -22.9130  -13.7583   21.2267 C   0  0  0  0  0  0  0  0  0  0  0  0
  -28.9295  -20.7077   23.1293 C   0  0  0  0  0  0  0  0  0  0  0  0
  -21.7759  -28.8859   23.9631 C   0  0  0  0  0  0  0  0  0  0  0  0
  -23.8433  -31.3820   24.0955 C   0  0  0  0  0  0  0  0  0  0  0  0
  -27.0495  -32.4686   24.5269 C   0  0  0  0  0  0  0  0  0  0  0  0
  -30.8075  -14.4951   20.5715 C   0  0  0  0  0  0  0  0  0  0  0  0
  -16.8757  -30.0601   23.1462 C   0  0  0  0  0  0  0  0  0  0  0  0
  -22.9499  -28.4514   26.1515 C   0  0  0  0  0  0  0  0  0  0  0  0
  -24.8629  -29.0769   23.9848 C   0  0  0  0  0  0  0  0  0  0  0  0
  -18.2227  -30.6373   22.7186 C   0  0  0  0  0  0  0  0  0  0  0  0
  -29.5410  -12.0142   18.3539 C   0  0  0  0  0  0  0  0  0  0  0  0
  -19.1307  -29.5343   22.1842 C   0  0  0  0  0  0  0  0  0  0  0  0
  -28.0857  -11.8425   18.7951 C   0  0  0  0  0  0  0  0  0  0  0  0
  -30.4689  -12.2587   19.5425 C   0  0  0  0  0  0  0  0  0  0  0  0
  -28.6122  -13.1882   20.8684 C   0  0  0  0  0  0  0  0  0  0  0  0
  -19.4212  -28.4866   23.2656 C   0  0  1  0  0  0  0  0  0  0  0  0
  -22.6234  -29.4660   25.0599 C   0  0  1  0  0  0  0  0  0  0  0  0
  -27.6303  -13.0042   19.6999 C   0  0  2  0  0  0  0  0  0  0  0  0
  -33.6386  -22.6161   22.2083 C   0  0  0  0  0  0  0  0  0  0  0  0
  -28.7195  -20.9721   21.6592 C   0  0  0  0  0  0  0  0  0  0  0  0
  -28.4353  -34.5607   24.5417 C   0  0  0  0  0  0  0  0  0  0  0  0
  -23.7287  -31.4766   21.0479 C   0  0  0  0  0  0  0  0  0  0  0  0
  -25.7932  -32.8924   21.0837 C   0  0  0  0  0  0  0  0  0  0  0  0
  -23.7001  -33.7150   22.1629 C   0  0  0  0  0  0  0  0  0  0  0  0
  -27.8552  -32.0537   27.3443 C   0  0  0  0  0  0  0  0  0  0  0  0
  -26.5945  -23.3055   24.8357 C   0  0  0  0  0  0  0  0  0  1  0  0
  -25.0092  -31.8501   23.2585 C   0  0  1  0  0  0  0  0  0  0  0  0
  -27.6296  -33.5814   25.3811 C   0  0  2  0  0  0  0  0  0  0  0  0
  -24.5576  -32.4579   21.9005 C   0  0  0  0  0  0  0  0  0  0  0  0
  -32.0465  -17.0333   21.2610 N   0  0  0  0  0  0  0  0  0  0  0  0
  -25.7451  -11.5703   20.3866 N   0  0  0  0  0  0  0  0  0  0  0  0
  -26.2033  -12.8167   20.1800 N   0  0  0  0  0  0  0  0  0  0  0  0
  -23.8217  -30.0196   24.4261 N   0  0  0  0  0  0  0  0  0  0  0  0
  -29.9770  -13.3759   20.3518 N   0  0  0  0  0  0  0  0  0  0  0  0
  -25.5808  -15.0997   20.2858 N   0  0  0  0  0  0  0  0  0  0  0  0
  -21.8450  -12.9384   21.6159 N   0  0  0  0  0  0  0  0  0  0  0  0
  -30.2206  -15.5089   21.3282 N   0  0  0  0  0  0  0  0  0  0  0  0
  -20.4165  -28.9800   24.1930 N   0  0  0  0  0  0  0  0  0  0  0  0
  -25.7731  -32.7661   24.0986 N   0  0  0  0  0  0  0  0  0  0  0  0
  -28.5236  -33.0161   26.4310 N   0  3  0  0  0  0  0  0  0  0  0  0
  -22.7559  -15.0027   21.2063 O   0  0  0  0  0  0  0  0  0  0  0  0
  -22.3153  -28.3910   22.9804 O   0  0  0  0  0  0  0  0  0  0  0  0
  -22.9871  -32.1966   24.4492 O   0  0  0  0  0  0  0  0  0  0  0  0
  -27.6683  -31.4401   24.2627 O   0  0  0  0  0  0  0  0  0  0  0  0
  -31.9451  -14.5620   20.0988 O   0  0  0  0  0  0  0  0  0  0  0  0
  -21.2168   -7.4216   22.0693 O   0  0  0  0  0  0  0  0  0  0  0  0
  -26.9118  -24.6859   24.6626 O   0  0  0  0  0  0  0  0  0  1  0  0
  -23.3844   -3.4062   25.1647 F   0  0  0  0  0  0  0  0  0  0  0  0
  -20.1173   -6.7702   24.5207 F   0  0  0  0  0  0  0  0  0  0  0  0
  1  2  1  0  0  0  0
  1  5  2  0  0  0  0
  2  6  2  0  0  0  0
  3  8  2  0  0  0  0
  3 17  1  0  0  0  0
  4  9  1  0  0  0  0
  4 17  2  0  0  0  0
  5 21  1  0  0  0  0
  6 23  1  0  0  0  0
  7 10  2  0  0  0  0
  7 22  1  0  0  0  0
  8 25  1  0  0  0  0
  9 25  2  0  0  0  0
 10 26  1  0  0  0  0
 11 12  2  0  0  0  0
 11 27  1  0  0  0  0
 12 28  1  0  0  0  0
 13 18  1  0  0  0  0
 13 31  2  0  0  0  0
 14 24  1  0  0  0  0
 14 26  2  0  0  0  0
 15 28  2  0  0  0  0
 15 29  1  0  0  0  0
 16 19  1  0  0  0  0
 16 67  2  0  0  0  0
 17 30  1  0  0  0  0
 18 19  2  0  0  0  0
 18 33  1  0  0  0  0
 19 34  1  0  0  0  0
 20 30  1  0  0  0  0
 20 32  2  0  0  0  0
 20 38  1  0  0  0  0
 21 23  2  0  0  0  0
 21 44  1  0  0  0  0
 22 24  2  0  0  0  0
 22 45  1  0  0  0  0
 23 53  1  0  0  0  0
 24 46  1  0  0  0  0
 25 83  1  0  0  0  0
 26 84  1  0  0  0  0
 27 29  2  0  0  0  0
 27 83  1  0  0  0  0
 28 85  1  0  0  0  0
 29 86  1  0  0  0  0
 30 68  2  0  0  0  0
 31 67  1  0  0  0  0
 31 74  1  0  0  0  0
 32 69  1  0  0  0  0
 32 72  1  0  0  0  0
 33 39  2  0  0  0  0
 34 36  2  0  0  0  0
 35 37  2  0  0  0  0
 35 39  1  0  0  0  0
 36 56  1  0  0  0  0
 37 63  1  0  0  0  0
 38 73  1  0  0  0  0
 38 78  2  0  0  0  0
 39 57  1  0  0  0  0
 40 54  1  0  0  0  0
 40 75  1  0  0  0  0
 40 79  2  0  0  0  0
 41 64  1  0  0  0  0
 41 70  1  0  0  0  0
 41 80  2  0  0  0  0
 42 65  1  0  0  0  0
 42 76  1  0  0  0  0
 42 81  2  0  0  0  0
 43 71  1  0  0  0  0
 43 74  1  0  0  0  0
 43 82  2  0  0  0  0
 44 47  1  0  0  0  0
 45 54  1  0  0  0  0
 46 70  1  0  0  0  0
 47 49  1  0  0  0  0
 48 50  1  0  0  0  0
 48 51  1  0  0  0  0
 49 53  1  0  0  0  0
 50 55  1  0  0  0  0
 51 71  1  0  0  0  0
 52 55  1  0  0  0  0
 52 71  1  0  0  0  0
 53 75  1  0  0  0  0
 54 70  1  0  0  0  0
 55 69  1  0  0  0  0
 58 65  1  0  0  0  0
 59 66  1  0  0  0  0
 60 66  1  0  0  0  0
 61 66  1  0  0  0  0
 62 77  1  0  0  0  0
 63 84  1  0  0  0  0
 64 66  1  0  0  0  0
 64 76  1  0  0  0  0
 65 77  1  0  0  0  0
 68 69  1  0  0  0  0
M  CHG  1  77   1
M  ISO  4  43 100  63 101  74 100  84 101
M  END
> <Batch ID>
0128

> <Smiles>
CC=Cc1cnc([100NH:0][100C:0](=O)N2CCCC(n3nc(-c4ccc(Oc5ccc(F)cc5F)cc4)c(C(N)=O)c3N)C2)cc1C=C(C)C=C[101CH2:1][101O:1]c1ccc2c(c1)CN(C(=O)C(NC(=O)C(C)NC)C(C)(C)C)C(C(=O)NC1CCCc3ccccc31)C2

> <Shape>
0.315

> <Color>
0.231

> <Negative vol penalty>
0.000

$$$$

  -OEChem-04052302163D

 89 97  0     1  0  0  0  0  0999 V2000
  -30.4046  -15.3081   14.9946 C   0  0  0  0  0  0  0  0  0  0  0  0
  -30.0513  -16.2916   15.9130 C   0  0  0  0  0  0  0  0  0  0  0  0
  -23.0648   -9.8708   19.9795 C   0  0  0  0  0  0  0  0  0  0  0  0
  -23.8020   -9.9344   22.2794 C   0  0  0  0  0  0  0  0  0  0  0  0
  -31.6722  -15.3209   14.4142 C   0  0  0  0  0  0  0  0  0  0  0  0
  -30.9661  -17.2879   16.2524 C   0  0  0  0  0  0  0  0  0  0  0  0
  -28.8730  -21.8983   16.3417 C   0  0  0  0  0  0  0  0  0  0  0  0
  -22.3036   -8.7349   20.2549 C   0  0  0  0  0  0  0  0  0  0  0  0
  -23.0408   -8.7985   22.5548 C   0  0  0  0  0  0  0  0  0  0  0  0
  -28.1088  -22.2291   17.4599 C   0  0  0  0  0  0  0  0  0  0  0  0
  -19.3311   -8.0179   21.6981 C   0  0  0  0  0  0  0  0  0  0  0  0
  -18.0286   -7.9743   21.2010 C   0  0  0  0  0  0  0  0  0  0  0  0
  -31.6625  -19.3558   22.6805 C   0  0  0  0  0  0  0  0  0  0  0  0
  -31.9347  -17.2811   21.4728 C   0  0  0  0  0  0  0  0  0  0  0  0
  -29.8642  -17.7432   22.6289 C   0  0  0  0  0  0  0  0  0  0  0  0
  -29.9747  -23.4633   18.3624 C   0  0  0  0  0  0  0  0  0  0  0  0
  -18.5761   -5.9868   19.9410 C   0  0  0  0  0  0  0  0  0  0  0  0
  -23.8141  -10.4706   20.9917 C   0  0  0  0  0  0  0  0  0  0  0  0
  -32.4434  -18.5101   21.8927 C   0  0  0  0  0  0  0  0  0  0  0  0
  -30.3729  -18.9723   23.0487 C   0  0  0  0  0  0  0  0  0  0  0  0
  -24.1897  -12.9866   20.8027 C   0  0  0  0  0  0  0  0  0  0  0  0
  -32.5995  -16.3234   14.7394 C   0  0  0  0  0  0  0  0  0  0  0  0
  -30.1995  -22.3392   16.2304 C   0  0  0  0  0  0  0  0  0  0  0  0
  -32.2478  -17.3133   15.6768 C   0  0  0  0  0  0  0  0  0  0  0  0
  -30.7527  -23.1389   17.2406 C   0  0  0  0  0  0  0  0  0  0  0  0
  -30.6450  -16.8976   21.8410 C   0  0  0  0  0  0  0  0  0  0  0  0
  -22.2916   -8.1987   21.5425 C   0  0  0  0  0  0  0  0  0  0  0  0
  -28.6605  -23.0093   18.4718 C   0  0  0  0  0  0  0  0  0  0  0  0
  -20.2562   -7.0461   21.3166 C   0  0  0  0  0  0  0  0  0  0  0  0
  -17.6511   -6.9587   20.3225 C   0  0  0  0  0  0  0  0  0  0  0  0
  -19.8787   -6.0306   20.4381 C   0  0  0  0  0  0  0  0  0  0  0  0
  -24.6010  -11.6436   20.7078 C   0  0  0  0  0  0  0  0  0  0  0  0
  -25.2950  -13.7114   20.4292 C   0  0  0  0  0  0  0  0  0  0  0  0
  -33.7884  -18.9098   21.5089 C   0  0  0  0  0  0  0  0  0  0  0  0
  -34.4994  -18.4043   20.4753 C   0  0  0  0  0  0  0  0  0  0  0  0
  -29.5457  -19.8671   23.8827 C   0  0  0  0  0  0  0  0  0  0  0  0
  -22.9220  -13.5304   21.1935 C   0  0  0  0  0  0  0  0  0  0  0  0
  -33.0303  -20.9069   16.0326 C   0  0  0  0  0  0  0  0  0  0  0  0
  -27.7348  -23.1738   21.9758 C   0  0  0  0  0  0  0  0  0  0  0  0
  -34.0928  -23.9344   15.5555 C   0  0  0  0  0  0  0  0  0  0  0  0
  -33.5876  -27.2828   15.9796 C   0  0  0  0  0  0  0  0  0  0  0  0
  -30.7723  -14.6923   20.6298 C   0  0  0  0  0  0  0  0  0  0  0  0
  -33.9743  -16.2685   14.1217 C   0  0  0  0  0  0  0  0  0  0  0  0
  -31.0019  -21.9961   15.0053 C   0  0  0  0  0  0  0  0  0  0  0  0
  -32.1656  -23.6544   17.1595 C   0  0  0  0  0  0  0  0  0  0  0  0
  -34.7537  -17.5745   14.2530 C   0  0  0  0  0  0  0  0  0  0  0  0
  -29.6502  -12.2254   18.3207 C   0  0  0  0  0  0  0  0  0  0  0  0
  -34.6575  -18.1126   15.6771 C   0  0  0  0  0  0  0  0  0  0  0  0
  -28.2027  -11.9646   18.7437 C   0  0  0  0  0  0  0  0  0  0  0  0
  -30.5563  -12.4772   19.5246 C   0  0  0  0  0  0  0  0  0  0  0  0
  -28.6453  -13.2654   20.8648 C   0  0  0  0  0  0  0  0  0  0  0  0
  -33.2037  -18.4249   16.0519 C   0  0  1  0  0  0  0  0  0  0  0  0
  -32.5079  -22.0698   15.2374 C   0  0  1  0  0  0  0  0  0  0  0  0
  -27.6820  -13.0705   19.6825 C   0  0  2  0  0  0  0  0  0  0  0  0
  -35.8810  -19.9996   19.1424 C   0  0  0  0  0  0  0  0  0  0  0  0
  -34.6481  -29.5093   15.5157 C   0  0  0  0  0  0  0  0  0  0  0  0
  -36.0608  -23.4702   17.8406 C   0  0  0  0  0  0  0  0  0  0  0  0
  -36.4015  -25.9478   17.9577 C   0  0  0  0  0  0  0  0  0  0  0  0
  -37.0082  -24.7039   15.8823 C   0  0  0  0  0  0  0  0  0  0  0  0
  -31.3070  -28.1505   14.3047 C   0  0  0  0  0  0  0  0  0  0  0  0
  -35.8932  -18.8380   20.1240 C   0  0  0  0  0  0  0  0  0  0  0  0
  -28.3706  -23.3515   23.3463 C   0  0  0  0  0  0  0  0  0  0  0  0
  -28.6173  -23.5236   20.7934 C   0  0  0  0  0  0  0  0  0  1  0  0
  -28.4474  -22.0626   24.1473 C   0  0  0  0  0  0  0  0  0  0  0  0
  -34.5693  -25.0535   16.4496 C   0  0  1  0  0  0  0  0  0  0  0  0
  -33.6847  -28.4468   15.0100 C   0  0  2  0  0  0  0  0  0  0  0  0
  -35.9839  -24.7827   17.0353 C   0  0  0  0  0  0  0  0  0  0  0  0
  -25.8686  -11.5198   20.3054 N   0  0  0  0  0  0  0  0  0  0  0  0
  -26.2633  -12.7942   20.1441 N   0  0  0  0  0  0  0  0  0  0  0  0
  -32.9118  -23.2866   15.9449 N   0  0  0  0  0  0  0  0  0  0  0  0
  -30.0021  -13.5400   20.3661 N   0  0  0  0  0  0  0  0  0  0  0  0
  -25.5234  -15.0375   20.3201 N   0  0  0  0  0  0  0  0  0  0  0  0
  -29.1271  -19.4149   25.0648 N   0  0  0  0  0  0  0  0  0  0  0  0
  -21.8951  -12.6442   21.5464 N   0  0  0  0  0  0  0  0  0  0  0  0
  -30.1289  -15.6487   21.4146 N   0  0  0  0  0  0  0  0  0  0  0  0
  -32.7854  -19.6754   15.4555 N   0  0  0  0  0  0  0  0  0  0  0  0
  -34.4738  -26.2761   15.6594 N   0  0  0  0  0  0  0  0  0  0  0  0
  -29.2542  -21.0860   23.4124 N   0  3  0  0  0  0  0  0  0  0  0  0
  -32.3473  -29.0767   14.8213 N   0  3  0  0  0  0  0  0  0  0  0  0
  -22.7011  -14.7651   21.2130 O   0  0  0  0  0  0  0  0  0  0  0  0
  -33.6136  -21.1117   17.0907 O   0  0  0  0  0  0  0  0  0  0  0  0
  -26.5788  -22.7808   21.8267 O   0  0  0  0  0  0  0  0  0  0  0  0
  -34.7406  -23.6502   14.5449 O   0  0  0  0  0  0  0  0  0  0  0  0
  -32.8064  -27.2695   16.9283 O   0  0  0  0  0  0  0  0  0  0  0  0
  -31.9081  -14.8331   20.1692 O   0  0  0  0  0  0  0  0  0  0  0  0
  -21.5487   -7.0904   21.8116 O   0  0  0  0  0  0  0  0  0  0  0  0
  -27.9171  -23.3330   19.5646 O   0  0  0  0  0  0  0  0  0  1  0  0
  -16.3998   -6.9160   19.8464 F   0  0  0  0  0  0  0  0  0  0  0  0
  -20.7627   -5.0935   20.0689 F   0  0  0  0  0  0  0  0  0  0  0  0
  1  2  1  0  0  0  0
  1  5  2  0  0  0  0
  2  6  2  0  0  0  0
  3  8  2  0  0  0  0
  3 18  1  0  0  0  0
  4  9  1  0  0  0  0
  4 18  2  0  0  0  0
  5 22  1  0  0  0  0
  6 24  1  0  0  0  0
  7 10  2  0  0  0  0
  7 23  1  0  0  0  0
  8 27  1  0  0  0  0
  9 27  2  0  0  0  0
 10 28  1  0  0  0  0
 11 12  2  0  0  0  0
 11 29  1  0  0  0  0
 12 30  1  0  0  0  0
 13 19  2  0  0  0  0
 13 20  1  0  0  0  0
 14 19  1  0  0  0  0
 14 26  2  0  0  0  0
 15 20  2  0  0  0  0
 15 26  1  0  0  0  0
 16 25  1  0  0  0  0
 16 28  2  0  0  0  0
 17 30  2  0  0  0  0
 17 31  1  0  0  0  0
 18 32  1  0  0  0  0
 19 34  1  0  0  0  0
 20 36  1  0  0  0  0
 21 32  1  0  0  0  0
 21 33  2  0  0  0  0
 21 37  1  0  0  0  0
 22 24  2  0  0  0  0
 22 43  1  0  0  0  0
 23 25  2  0  0  0  0
 23 44  1  0  0  0  0
 24 52  1  0  0  0  0
 25 45  1  0  0  0  0
 26 75  1  0  0  0  0
 27 86  1  0  0  0  0
 28 87  1  0  0  0  0
 29 31  2  0  0  0  0
 29 86  1  0  0  0  0
 30 88  1  0  0  0  0
 31 89  1  0  0  0  0
 32 68  2  0  0  0  0
 33 69  1  0  0  0  0
 33 72  1  0  0  0  0
 34 35  2  0  0  0  0
 35 61  1  0  0  0  0
 36 73  1  0  0  0  0
 36 78  2  0  0  0  0
 37 74  1  0  0  0  0
 37 80  2  0  0  0  0
 38 53  1  0  0  0  0
 38 76  1  0  0  0  0
 38 81  2  0  0  0  0
 39 62  1  0  0  0  0
 39 63  1  0  0  0  0
 39 82  2  0  0  0  0
 40 65  1  0  0  0  0
 40 70  1  0  0  0  0
 40 83  2  0  0  0  0
 41 66  1  0  0  0  0
 41 77  1  0  0  0  0
 41 84  2  0  0  0  0
 42 71  1  0  0  0  0
 42 75  1  0  0  0  0
 42 85  2  0  0  0  0
 43 46  1  0  0  0  0
 44 53  1  0  0  0  0
 45 70  1  0  0  0  0
 46 48  1  0  0  0  0
 47 49  1  0  0  0  0
 47 50  1  0  0  0  0
 48 52  1  0  0  0  0
 49 54  1  0  0  0  0
 50 71  1  0  0  0  0
 51 54  1  0  0  0  0
 51 71  1  0  0  0  0
 52 76  1  0  0  0  0
 53 70  1  0  0  0  0
 54 69  1  0  0  0  0
 55 61  1  0  0  0  0
 56 66  1  0  0  0  0
 57 67  1  0  0  0  0
 58 67  1  0  0  0  0
 59 67  1  0  0  0  0
 60 79  1  0  0  0  0
 62 64  1  0  0  0  0
 63 87  1  0  0  0  0
 64 78  1  0  0  0  0
 65 67  1  0  0  0  0
 65 77  1  0  0  0  0
 66 79  1  0  0  0  0
 68 69  1  0  0  0  0
M  CHG  2  78   1  79   1
M  ISO  4  42 100  63 101  75 100  87 101
M  END
> <Batch ID>
0128

> <Smiles>
CCC=Cc1cc([100NH:0][100C:0](=O)N2CCCC(n3nc(-c4ccc(Oc5ccc(F)cc5F)cc4)c(C(N)=O)c3N)C2)cc(C(=N)NCCC(=O)[101CH2:1][101O:1]c2ccc3c(c2)CN(C(=O)C(NC(=O)C(C)NC)C(C)(C)C)C(C(=O)NC2CCCc4ccccc42)C3)c1

> <Shape>
0.182

> <Color>
0.182

> <Negative vol penalty>
0.000

$$$$

  -OEChem-04052302163D

 84 92  0     1  0  0  0  0  0999 V2000
  -17.5429  -33.3335   23.2821 C   0  0  0  0  0  0  0  0  0  0  0  0
  -18.9278  -33.2128   23.2270 C   0  0  0  0  0  0  0  0  0  0  0  0
  -24.4523  -12.4731   19.4502 C   0  0  0  0  0  0  0  0  0  0  0  0
  -25.4374  -12.2072   21.6402 C   0  0  0  0  0  0  0  0  0  0  0  0
  -16.7485  -32.1924   23.3860 C   0  0  0  0  0  0  0  0  0  0  0  0
  -19.5191  -31.9509   23.2768 C   0  0  0  0  0  0  0  0  0  0  0  0
  -24.6037  -30.1508   20.3765 C   0  0  0  0  0  0  0  0  0  0  0  0
  -24.6729  -11.1213   19.1868 C   0  0  0  0  0  0  0  0  0  0  0  0
  -25.6580  -10.8553   21.3768 C   0  0  0  0  0  0  0  0  0  0  0  0
  -25.9283  -30.0288   20.7939 C   0  0  0  0  0  0  0  0  0  0  0  0
  -23.8538   -7.9979   21.3497 C   0  0  0  0  0  0  0  0  0  0  0  0
  -23.5256   -7.0825   22.3496 C   0  0  0  0  0  0  0  0  0  0  0  0
  -31.5111  -23.3800   15.9139 C   0  0  0  0  0  0  0  0  0  0  0  0
  -30.9291  -22.0959   15.7892 C   0  0  0  0  0  0  0  0  0  0  0  0
  -25.5675  -27.6845   21.2338 C   0  0  0  0  0  0  0  0  0  0  0  0
  -25.8228   -6.3376   22.4217 C   0  0  0  0  0  0  0  0  0  0  0  0
  -24.8346  -13.0162   20.6769 C   0  0  0  0  0  0  0  0  0  0  0  0
  -23.4642  -14.9898   21.5339 C   0  0  0  0  0  0  0  0  0  0  0  0
  -17.3299  -30.9154   23.4274 C   0  0  0  0  0  0  0  0  0  0  0  0
  -23.7465  -29.0411   20.3950 C   0  0  0  0  0  0  0  0  0  0  0  0
  -18.7317  -30.7918   23.3827 C   0  0  0  0  0  0  0  0  0  0  0  0
  -24.2331  -27.7945   20.8138 C   0  0  0  0  0  0  0  0  0  0  0  0
  -25.2757  -10.3124   20.1501 C   0  0  0  0  0  0  0  0  0  0  0  0
  -26.4096  -28.7962   21.2254 C   0  0  0  0  0  0  0  0  0  0  0  0
  -25.1665   -8.0832   20.8857 C   0  0  0  0  0  0  0  0  0  0  0  0
  -24.5101   -6.2523   22.8856 C   0  0  0  0  0  0  0  0  0  0  0  0
  -26.1510   -7.2531   21.4217 C   0  0  0  0  0  0  0  0  0  0  0  0
  -24.6074  -14.4127   20.9493 C   0  0  0  0  0  0  0  0  0  0  0  0
  -30.8740  -23.9870   16.9711 C   0  0  0  0  0  0  0  0  0  0  0  0
  -29.9781  -22.0097   16.7792 C   0  0  0  0  0  0  0  0  0  0  0  0
  -23.7406  -16.3346   21.5737 C   0  0  0  0  0  0  0  0  0  0  0  0
  -31.1183  -25.3388   17.5044 C   0  0  0  0  0  0  0  0  0  0  0  0
  -29.1290  -20.9140   17.0592 C   0  0  0  0  0  0  0  0  0  0  0  0
  -30.4777  -25.8649   18.5625 C   0  0  0  0  0  0  0  0  0  0  0  0
  -28.1671  -20.8466   18.0379 C   0  0  0  0  0  0  0  0  0  0  0  0
  -29.9563  -27.5661   20.2052 C   0  0  0  0  0  0  0  0  0  0  0  0
  -22.2600  -14.3660   21.9993 C   0  0  0  0  0  0  0  0  0  0  0  0
  -30.6916  -27.1973   19.1351 C   0  0  0  0  0  0  0  0  0  0  0  0
  -27.3493  -19.6277   18.1994 C   0  0  0  0  0  0  0  0  0  0  0  0
  -21.0458  -28.3178   21.9072 C   0  0  0  0  0  0  0  0  0  0  0  0
  -21.1427  -25.6903   20.0074 C   0  0  0  0  0  0  0  0  0  0  0  0
  -23.0158  -23.5286   18.1458 C   0  0  0  0  0  0  0  0  0  0  0  0
  -16.4323  -29.7140   23.5875 C   0  0  0  0  0  0  0  0  0  0  0  0
  -22.3277  -29.1833   19.9163 C   0  0  0  0  0  0  0  0  0  0  0  0
  -23.3592  -26.5680   20.8334 C   0  0  0  0  0  0  0  0  0  0  0  0
  -17.1197  -28.3917   23.2570 C   0  0  0  0  0  0  0  0  0  0  0  0
  -27.3724  -19.4142   21.8581 C   0  0  0  0  0  0  0  0  0  0  0  0
  -18.4912  -28.3224   23.9212 C   0  0  0  0  0  0  0  0  0  0  0  0
  -26.5928  -18.1212   22.0817 C   0  0  0  0  0  0  0  0  0  0  0  0
  -28.2162  -19.3603   20.5854 C   0  0  0  0  0  0  0  0  0  0  0  0
  -26.6533  -17.7154   19.5893 C   0  0  0  0  0  0  0  0  0  0  0  0
  -19.4092  -29.4388   23.4090 C   0  0  1  0  0  0  0  0  0  0  0  0
  -21.4013  -28.1017   20.4634 C   0  0  1  0  0  0  0  0  0  0  0  0
  -25.7610  -17.7653   20.8394 C   0  0  1  0  0  0  0  0  0  0  0  0
  -31.7138  -28.0866   18.4767 C   0  0  0  0  0  0  0  0  0  0  0  0
  -22.8198  -21.4575   16.7424 C   0  0  0  0  0  0  0  0  0  0  0  0
  -20.8685  -24.0054   22.5364 C   0  0  0  0  0  0  0  0  0  0  0  0
  -21.6240  -22.0198   21.2117 C   0  0  0  0  0  0  0  0  0  0  0  0
  -19.5146  -23.1997   20.5942 C   0  0  0  0  0  0  0  0  0  0  0  0
  -24.0216  -24.9250   15.7380 C   0  0  0  0  0  0  0  0  0  0  0  0
  -30.0166  -28.8567   20.9783 C   0  0  0  0  0  0  0  0  0  0  0  0
  -28.6584  -29.5454   21.0313 C   0  0  0  0  0  0  0  0  0  1  0  0
  -21.7379  -24.3079   20.1242 C   0  0  1  0  0  0  0  0  0  0  0  0
  -22.8229  -22.9783   16.7442 C   0  0  2  0  0  0  0  0  0  0  0  0
  -20.9524  -23.4066   21.1182 C   0  0  0  0  0  0  0  0  0  0  0  0
  -25.5406  -15.3168   20.6399 N   0  0  0  0  0  0  0  0  0  0  0  0
  -24.9841  -16.4758   21.0314 N   0  0  0  0  0  0  0  0  0  0  0  0
  -27.4104  -18.9610   19.4218 N   0  0  0  0  0  0  0  0  0  0  0  0
  -21.9777  -26.7594   20.3619 N   0  0  0  0  0  0  0  0  0  0  0  0
  -23.0389  -17.3983   22.0193 N   0  0  0  0  0  0  0  0  0  0  0  0
  -22.1405  -12.9744   21.8833 N   0  0  0  0  0  0  0  0  0  0  0  0
  -19.9274  -29.1062   22.0994 N   0  0  0  0  0  0  0  0  0  0  0  0
  -21.8102  -23.7785   18.7667 N   0  0  0  0  0  0  0  0  0  0  0  0
  -23.9178  -23.4471   15.8485 N   0  3  0  0  0  0  0  0  0  0  0  0
  -21.3112  -15.0251   22.4881 O   0  0  0  0  0  0  0  0  0  0  0  0
  -26.6645  -19.2709   17.2389 O   0  0  0  0  0  0  0  0  0  0  0  0
  -21.7344  -27.8058   22.7821 O   0  0  0  0  0  0  0  0  0  0  0  0
  -19.9821  -25.8174   19.6093 O   0  0  0  0  0  0  0  0  0  0  0  0
  -24.1249  -23.7144   18.6417 O   0  0  0  0  0  0  0  0  0  0  0  0
  -29.9382  -23.1584   17.5041 O   0  0  0  0  0  0  0  0  0  0  0  0
  -25.4909   -8.9931   19.8935 O   0  0  0  0  0  0  0  0  0  0  0  0
  -27.7020  -28.6745   21.6339 O   0  0  0  0  0  0  0  0  0  1  0  0
  -24.1951   -5.3743   23.8469 F   0  0  0  0  0  0  0  0  0  0  0  0
  -27.4141   -7.3312   20.9809 F   0  0  0  0  0  0  0  0  0  0  0  0
  1  2  1  0  0  0  0
  1  5  2  0  0  0  0
  2  6  2  0  0  0  0
  3  8  2  0  0  0  0
  3 17  1  0  0  0  0
  4  9  1  0  0  0  0
  4 17  2  0  0  0  0
  5 19  1  0  0  0  0
  6 21  1  0  0  0  0
  7 10  2  0  0  0  0
  7 20  1  0  0  0  0
  8 23  1  0  0  0  0
  9 23  2  0  0  0  0
 10 24  1  0  0  0  0
 11 12  2  0  0  0  0
 11 25  1  0  0  0  0
 12 26  1  0  0  0  0
 13 14  1  0  0  0  0
 13 29  2  0  0  0  0
 14 30  2  0  0  0  0
 15 22  1  0  0  0  0
 15 24  2  0  0  0  0
 16 26  2  0  0  0  0
 16 27  1  0  0  0  0
 17 28  1  0  0  0  0
 18 28  1  0  0  0  0
 18 31  2  0  0  0  0
 18 37  1  0  0  0  0
 19 21  2  0  0  0  0
 19 43  1  0  0  0  0
 20 22  2  0  0  0  0
 20 44  1  0  0  0  0
 21 52  1  0  0  0  0
 22 45  1  0  0  0  0
 23 81  1  0  0  0  0
 24 82  1  0  0  0  0
 25 27  2  0  0  0  0
 25 81  1  0  0  0  0
 26 83  1  0  0  0  0
 27 84  1  0  0  0  0
 28 66  2  0  0  0  0
 29 32  1  0  0  0  0
 29 80  1  0  0  0  0
 30 33  1  0  0  0  0
 30 80  1  0  0  0  0
 31 67  1  0  0  0  0
 31 70  1  0  0  0  0
 32 34  2  0  0  0  0
 33 35  2  0  0  0  0
 34 38  1  0  0  0  0
 35 39  1  0  0  0  0
 36 38  2  0  0  0  0
 36 61  1  0  0  0  0
 37 71  1  0  0  0  0
 37 75  2  0  0  0  0
 38 55  1  0  0  0  0
 39 68  1  0  0  0  0
 39 76  2  0  0  0  0
 40 53  1  0  0  0  0
 40 72  1  0  0  0  0
 40 77  2  0  0  0  0
 41 63  1  0  0  0  0
 41 69  1  0  0  0  0
 41 78  2  0  0  0  0
 42 64  1  0  0  0  0
 42 73  1  0  0  0  0
 42 79  2  0  0  0  0
 43 46  1  0  0  0  0
 44 53  1  0  0  0  0
 45 69  1  0  0  0  0
 46 48  1  0  0  0  0
 47 49  1  0  0  0  0
 47 50  1  0  0  0  0
 48 52  1  0  0  0  0
 49 54  1  0  0  0  0
 50 68  1  0  0  0  0
 51 54  1  0  0  0  0
 51 68  1  0  0  0  0
 52 72  1  0  0  0  0
 53 69  1  0  0  0  0
 54 67  1  0  0  0  0
 56 64  1  0  0  0  0
 57 65  1  0  0  0  0
 58 65  1  0  0  0  0
 59 65  1  0  0  0  0
 60 74  1  0  0  0  0
 61 62  1  0  0  0  0
 62 82  1  0  0  0  0
 63 65  1  0  0  0  0
 63 73  1  0  0  0  0
 64 74  1  0  0  0  0
 66 67  1  0  0  0  0
M  CHG  1  74   1
M  ISO  4  35 100  39 100  62 101  82 101
M  END
> <Batch ID>
0128

> <Smiles>
CNC(C)C(=O)NC(C(=O)N1Cc2cc([101O:1][101CH2:1]CC=C(C)C=Cc3ccc(C=[100CH:0][100C:0](=O)N4CCCC(n5nc(-c6ccc(Oc7ccc(F)cc7F)cc6)c(C(N)=O)c5N)C4)o3)ccc2CC1C(=O)NC1CCCc2ccccc21)C(C)(C)C

> <Shape>
0.222

> <Color>
0.072

> <Negative vol penalty>
0.000

$$$$

  -OEChem-04052302163D

 85 93  0     1  0  0  0  0  0999 V2000
  -27.9071  -37.4113   20.6991 C   0  0  0  0  0  0  0  0  0  0  0  0
  -28.3317  -36.1292   20.3656 C   0  0  0  0  0  0  0  0  0  0  0  0
  -24.7383   -9.0699   21.8443 C   0  0  0  0  0  0  0  0  0  0  0  0
  -23.2331  -10.2642   20.3797 C   0  0  0  0  0  0  0  0  0  0  0  0
  -27.0210  -37.5971   21.7594 C   0  0  0  0  0  0  0  0  0  0  0  0
  -27.8714  -35.0322   21.0929 C   0  0  0  0  0  0  0  0  0  0  0  0
  -26.7024  -29.4180   18.9435 C   0  0  0  0  0  0  0  0  0  0  0  0
  -23.6473   -8.5306   22.5258 C   0  0  0  0  0  0  0  0  0  0  0  0
  -22.1420   -9.7249   21.0612 C   0  0  0  0  0  0  0  0  0  0  0  0
  -27.4445  -28.2377   18.9501 C   0  0  0  0  0  0  0  0  0  0  0  0
  -21.4037   -6.0433   22.0642 C   0  0  0  0  0  0  0  0  0  0  0  0
  -21.4336   -4.6807   22.3604 C   0  0  0  0  0  0  0  0  0  0  0  0
  -26.2778  -27.5225   20.9367 C   0  0  0  0  0  0  0  0  0  0  0  0
  -24.9351  -17.7556   17.7068 C   0  0  0  0  0  0  0  0  0  0  0  0
  -26.3430  -19.1252   19.1136 C   0  0  0  0  0  0  0  0  0  0  0  0
  -21.2851   -5.1898   24.7175 C   0  0  0  0  0  0  0  0  0  0  0  0
  -24.5312   -9.9367   20.7712 C   0  0  0  0  0  0  0  0  0  0  0  0
  -26.3149   -9.9502   18.9476 C   0  0  0  0  0  0  0  0  0  0  0  0
  -26.5420  -36.5010   22.4940 C   0  0  0  0  0  0  0  0  0  0  0  0
  -25.7485  -29.6646   19.9413 C   0  0  0  0  0  0  0  0  0  0  0  0
  -26.9791  -35.2037   22.1649 C   0  0  0  0  0  0  0  0  0  0  0  0
  -25.5231  -28.7055   20.9390 C   0  0  0  0  0  0  0  0  0  0  0  0
  -24.1561  -18.8713   17.4002 C   0  0  0  0  0  0  0  0  0  0  0  0
  -24.4706  -20.1140   17.9503 C   0  0  0  0  0  0  0  0  0  0  0  0
  -26.0285  -17.8825   18.5635 C   0  0  0  0  0  0  0  0  0  0  0  0
  -22.3492   -8.8581   22.1343 C   0  0  0  0  0  0  0  0  0  0  0  0
  -27.2343  -27.2911   19.9485 C   0  0  0  0  0  0  0  0  0  0  0  0
  -21.3147   -6.9793   23.0947 C   0  0  0  0  0  0  0  0  0  0  0  0
  -25.5641  -20.2409   18.8070 C   0  0  0  0  0  0  0  0  0  0  0  0
  -21.3743   -4.2539   23.6871 C   0  0  0  0  0  0  0  0  0  0  0  0
  -21.2553   -6.5525   24.4213 C   0  0  0  0  0  0  0  0  0  0  0  0
  -25.6578  -10.4946   20.0672 C   0  0  0  0  0  0  0  0  0  0  0  0
  -27.3093  -10.8531   18.6604 C   0  0  0  0  0  0  0  0  0  0  0  0
  -26.0500   -8.7368   18.2311 C   0  0  0  0  0  0  0  0  0  0  0  0
  -25.3851  -31.8704   22.2010 C   0  0  0  0  0  0  0  0  0  0  0  0
  -22.5417  -30.3767   22.6556 C   0  0  0  0  0  0  0  0  0  0  0  0
  -20.6779  -27.5357   22.3366 C   0  0  0  0  0  0  0  0  0  0  0  0
  -27.9385  -16.7025   19.7061 C   0  0  0  0  0  0  0  0  0  0  0  0
  -25.6223  -36.7558   23.6618 C   0  0  0  0  0  0  0  0  0  0  0  0
  -24.9374  -30.9308   19.9048 C   0  0  0  0  0  0  0  0  0  0  0  0
  -24.4966  -28.9133   22.0214 C   0  0  0  0  0  0  0  0  0  0  0  0
  -24.8895  -35.5065   24.1440 C   0  0  0  0  0  0  0  0  0  0  0  0
  -30.1349  -14.1036   20.7544 C   0  0  0  0  0  0  0  0  0  0  0  0
  -25.8582  -34.3350   24.2708 C   0  0  0  0  0  0  0  0  0  0  0  0
  -29.2979  -12.8330   20.5895 C   0  0  0  0  0  0  0  0  0  0  0  0
  -29.2888  -15.2818   21.2337 C   0  0  0  0  0  0  0  0  0  0  0  0
  -27.2560  -14.2857   20.2619 C   0  0  0  0  0  0  0  0  0  0  0  0
  -26.4828  -33.9863   22.9144 C   0  0  1  0  0  0  0  0  0  0  0  0
  -24.3548  -31.3067   21.2637 C   0  0  1  0  0  0  0  0  0  0  0  0
  -28.0521  -13.0880   19.7185 C   0  0  2  0  0  0  0  0  0  0  0  0
  -22.9903  -18.7094   16.4804 C   0  0  0  0  0  0  0  0  0  0  0  0
  -23.9481  -21.8676   16.2362 C   0  0  0  0  0  0  0  0  0  0  0  0
  -18.3997  -26.6082   22.8335 C   0  0  0  0  0  0  0  0  0  0  0  0
  -23.2963  -30.1070   25.5997 C   0  0  0  0  0  0  0  0  0  0  0  0
  -21.4907  -28.3884   25.8331 C   0  0  0  0  0  0  0  0  0  0  0  0
  -20.9087  -30.7265   25.1873 C   0  0  0  0  0  0  0  0  0  0  0  0
  -20.1273  -27.0404   19.4712 C   0  0  0  0  0  0  0  0  0  0  0  0
  -23.6403  -21.3139   17.6234 C   0  0  0  0  0  0  0  0  0  0  0  0
  -28.4685  -24.1133   18.7460 C   0  0  0  0  0  0  0  0  0  0  0  0
  -27.1098  -23.4905   19.0479 C   0  0  0  0  0  0  0  0  0  0  0  0
  -28.3908  -25.6334   18.6953 C   0  0  0  0  0  0  0  0  0  1  0  0
  -27.1778  -21.9699   19.0563 C   0  0  0  0  0  0  0  0  0  0  0  0
  -22.0621  -29.2278   23.5093 C   0  0  1  0  0  0  0  0  0  0  0  0
  -19.2750  -27.3059   21.8040 C   0  0  2  0  0  0  0  0  0  0  0  0
  -21.9603  -29.6091   25.0132 C   0  0  0  0  0  0  0  0  0  0  0  0
  -26.1900  -11.6535   20.4644 N   0  0  0  0  0  0  0  0  0  0  0  0
  -27.1922  -11.8446   19.5896 N   0  0  0  0  0  0  0  0  0  0  0  0
  -23.7333  -30.1699   21.9462 N   0  0  0  0  0  0  0  0  0  0  0  0
  -28.1292  -15.4660   20.3584 N   0  0  0  0  0  0  0  0  0  0  0  0
  -28.2638  -10.8876   17.7064 N   0  0  0  0  0  0  0  0  0  0  0  0
  -24.9906   -7.9256   18.6596 N   0  0  0  0  0  0  0  0  0  0  0  0
  -26.8202  -16.7493   18.8745 N   0  0  0  0  0  0  0  0  0  0  0  0
  -25.5453  -33.2394   22.1034 N   0  0  0  0  0  0  0  0  0  0  0  0
  -20.8053  -28.7784   22.9204 N   0  0  0  0  0  0  0  0  0  0  0  0
  -19.3189  -26.4629   20.5758 N   0  3  0  0  0  0  0  0  0  0  0  0
  -26.7430   -8.3744   17.2503 O   0  0  0  0  0  0  0  0  0  0  0  0
  -25.9888  -31.1191   22.9579 O   0  0  0  0  0  0  0  0  0  0  0  0
  -21.8796  -31.4167   22.6140 O   0  0  0  0  0  0  0  0  0  0  0  0
  -21.5703  -26.6954   22.2472 O   0  0  0  0  0  0  0  0  0  0  0  0
  -28.7257  -17.6412   19.8519 O   0  0  0  0  0  0  0  0  0  0  0  0
  -21.2843   -8.3318   22.7989 O   0  0  0  0  0  0  0  0  0  0  0  0
  -27.9577  -26.1385   19.9577 O   0  0  0  0  0  0  0  0  0  1  0  0
  -25.8885  -21.4538   19.3570 O   0  0  0  0  0  0  0  0  0  0  0  0
  -21.4014   -2.9452   23.9713 F   0  0  0  0  0  0  0  0  0  0  0  0
  -21.1685   -7.4469   25.4154 F   0  0  0  0  0  0  0  0  0  0  0  0
  1  2  1  0  0  0  0
  1  5  2  0  0  0  0
  2  6  2  0  0  0  0
  3  8  2  0  0  0  0
  3 17  1  0  0  0  0
  4  9  1  0  0  0  0
  4 17  2  0  0  0  0
  5 19  1  0  0  0  0
  6 21  1  0  0  0  0
  7 10  2  0  0  0  0
  7 20  1  0  0  0  0
  8 26  1  0  0  0  0
  9 26  2  0  0  0  0
 10 27  1  0  0  0  0
 11 12  2  0  0  0  0
 11 28  1  0  0  0  0
 12 30  1  0  0  0  0
 13 22  1  0  0  0  0
 13 27  2  0  0  0  0
 14 23  2  0  0  0  0
 14 25  1  0  0  0  0
 15 25  2  0  0  0  0
 15 29  1  0  0  0  0
 16 30  2  0  0  0  0
 16 31  1  0  0  0  0
 17 32  1  0  0  0  0
 18 32  1  0  0  0  0
 18 33  2  0  0  0  0
 18 34  1  0  0  0  0
 19 21  2  0  0  0  0
 19 39  1  0  0  0  0
 20 22  2  0  0  0  0
 20 40  1  0  0  0  0
 21 48  1  0  0  0  0
 22 41  1  0  0  0  0
 23 24  1  0  0  0  0
 23 51  1  0  0  0  0
 24 29  2  0  0  0  0
 24 58  1  0  0  0  0
 25 72  1  0  0  0  0
 26 81  1  0  0  0  0
 27 82  1  0  0  0  0
 28 31  2  0  0  0  0
 28 81  1  0  0  0  0
 29 83  1  0  0  0  0
 30 84  1  0  0  0  0
 31 85  1  0  0  0  0
 32 66  2  0  0  0  0
 33 67  1  0  0  0  0
 33 70  1  0  0  0  0
 34 71  1  0  0  0  0
 34 76  2  0  0  0  0
 35 49  1  0  0  0  0
 35 73  1  0  0  0  0
 35 77  2  0  0  0  0
 36 63  1  0  0  0  0
 36 68  1  0  0  0  0
 36 78  2  0  0  0  0
 37 64  1  0  0  0  0
 37 74  1  0  0  0  0
 37 79  2  0  0  0  0
 38 69  1  0  0  0  0
 38 72  1  0  0  0  0
 38 80  2  0  0  0  0
 39 42  1  0  0  0  0
 40 49  1  0  0  0  0
 41 68  1  0  0  0  0
 42 44  1  0  0  0  0
 43 45  1  0  0  0  0
 43 46  1  0  0  0  0
 44 48  1  0  0  0  0
 45 50  1  0  0  0  0
 46 69  1  0  0  0  0
 47 50  1  0  0  0  0
 47 69  1  0  0  0  0
 48 73  1  0  0  0  0
 49 68  1  0  0  0  0
 50 67  1  0  0  0  0
 52 58  1  0  0  0  0
 53 64  1  0  0  0  0
 54 65  1  0  0  0  0
 55 65  1  0  0  0  0
 56 65  1  0  0  0  0
 57 75  1  0  0  0  0
 59 60  1  0  0  0  0
 59 61  1  0  0  0  0
 60 62  1  0  0  0  0
 61 82  1  0  0  0  0
 62 83  1  0  0  0  0
 63 65  1  0  0  0  0
 63 74  1  0  0  0  0
 64 75  1  0  0  0  0
 66 67  1  0  0  0  0
M  CHG  1  75   1
M  ISO  4  38 100  61 101  72 100  82 101
M  END
> <Batch ID>
0128

> <Smiles>
CCc1c(C)cc([100NH:0][100C:0](=O)N2CCCC(n3nc(-c4ccc(Oc5ccc(F)cc5F)cc4)c(C(N)=O)c3N)C2)cc1OCCC[101CH2:1][101O:1]c1ccc2c(c1)CN(C(=O)C(NC(=O)C(C)NC)C(C)(C)C)C(C(=O)NC1CCCc3ccccc31)C2

> <Shape>
0.310

> <Color>
0.105

> <Negative vol penalty>
0.000

$$$$

  -OEChem-04052302163D

 91 99  0     1  0  0  0  0  0999 V2000
  -18.6970  -28.4582   18.9791 C   0  0  0  0  0  0  0  0  0  0  0  0
  -20.0508  -28.7620   19.0675 C   0  0  0  0  0  0  0  0  0  0  0  0
  -31.2280  -20.8029   19.5926 C   0  0  0  0  0  0  0  0  0  0  0  0
  -29.1504  -20.3553   18.4435 C   0  0  0  0  0  0  0  0  0  0  0  0
  -18.0287  -27.9414   20.0870 C   0  0  0  0  0  0  0  0  0  0  0  0
  -20.7395  -28.5378   20.2602 C   0  0  0  0  0  0  0  0  0  0  0  0
  -25.9234  -23.6106   23.2110 C   0  0  0  0  0  0  0  0  0  0  0  0
  -31.4529  -21.8985   18.7592 C   0  0  0  0  0  0  0  0  0  0  0  0
  -29.3753  -21.4510   17.6101 C   0  0  0  0  0  0  0  0  0  0  0  0
  -26.4423  -22.5336   22.4921 C   0  0  0  0  0  0  0  0  0  0  0  0
  -30.3834  -25.0961   18.5054 C   0  0  0  0  0  0  0  0  0  0  0  0
  -30.8140  -26.2833   19.0975 C   0  0  0  0  0  0  0  0  0  0  0  0
  -23.3343  -16.9112   21.1696 C   0  0  0  0  0  0  0  0  0  0  0  0
  -21.6191  -15.6281   20.0524 C   0  0  0  0  0  0  0  0  0  0  0  0
  -21.0292  -17.1136   21.8641 C   0  0  0  0  0  0  0  0  0  0  0  0
  -25.5011  -23.4280   20.4520 C   0  0  0  0  0  0  0  0  0  0  0  0
  -32.8272  -26.2187   17.7633 C   0  0  0  0  0  0  0  0  0  0  0  0
  -30.0768  -20.0312   19.4347 C   0  0  0  0  0  0  0  0  0  0  0  0
  -22.9592  -15.9883   20.1934 C   0  0  0  0  0  0  0  0  0  0  0  0
  -22.3693  -17.4739   22.0051 C   0  0  0  0  0  0  0  0  0  0  0  0
  -29.1636  -18.8932   21.5273 C   0  0  0  0  0  0  0  0  0  0  0  0
  -18.7074  -27.7228   21.2971 C   0  0  0  0  0  0  0  0  0  0  0  0
  -25.2036  -24.6097   22.5497 C   0  0  0  0  0  0  0  0  0  0  0  0
  -20.0882  -27.9944   21.3822 C   0  0  0  0  0  0  0  0  0  0  0  0
  -24.9896  -24.5156   21.1647 C   0  0  0  0  0  0  0  0  0  0  0  0
  -30.5265  -22.2226   17.7680 C   0  0  0  0  0  0  0  0  0  0  0  0
  -26.2315  -22.4424   21.1161 C   0  0  0  0  0  0  0  0  0  0  0  0
  -31.1748  -24.4700   17.5422 C   0  0  0  0  0  0  0  0  0  0  0  0
  -20.6540  -16.1907   20.8878 C   0  0  0  0  0  0  0  0  0  0  0  0
  -32.0358  -26.8447   18.7264 C   0  0  0  0  0  0  0  0  0  0  0  0
  -32.3966  -25.0314   17.1712 C   0  0  0  0  0  0  0  0  0  0  0  0
  -29.8441  -18.8989   20.2949 C   0  0  0  0  0  0  0  0  0  0  0  0
  -29.2152  -17.5848   21.9419 C   0  0  0  0  0  0  0  0  0  0  0  0
  -23.9652  -15.4017   19.3215 C   0  0  0  0  0  0  0  0  0  0  0  0
  -27.5632  -12.9580   19.0874 C   0  0  0  0  0  0  0  0  0  0  0  0
  -25.2917  -15.6662   19.3550 C   0  0  0  0  0  0  0  0  0  0  0  0
  -27.3419  -14.2709   19.2274 C   0  0  0  0  0  0  0  0  0  0  0  0
  -24.8915  -18.1915   22.3203 C   0  0  0  0  0  0  0  0  0  0  0  0
  -22.7692  -18.4565   23.0472 C   0  0  0  0  0  0  0  0  0  0  0  0
  -28.5405  -19.9739   22.2340 C   0  0  0  0  0  0  0  0  0  0  0  0
  -28.6075  -12.3190   19.9156 C   0  0  0  0  0  0  0  0  0  0  0  0
  -23.3340  -27.8521   22.8084 C   0  0  0  0  0  0  0  0  0  0  0  0
  -24.9999  -27.9869   20.2360 C   0  0  0  0  0  0  0  0  0  0  0  0
  -27.7703  -29.5002   21.5289 C   0  0  0  0  0  0  0  0  0  0  0  0
  -17.9370  -27.1542   22.4626 C   0  0  0  0  0  0  0  0  0  0  0  0
  -24.5739  -25.7560   23.2936 C   0  0  0  0  0  0  0  0  0  0  0  0
  -24.1798  -25.5957   20.5010 C   0  0  0  0  0  0  0  0  0  0  0  0
  -18.6385  -27.3678   23.8000 C   0  0  0  0  0  0  0  0  0  0  0  0
  -30.7856  -13.6969   22.7392 C   0  0  0  0  0  0  0  0  0  0  0  0
  -20.0923  -26.9310   23.6999 C   0  0  0  0  0  0  0  0  0  0  0  0
  -31.1656  -15.0308   22.1007 C   0  0  0  0  0  0  0  0  0  0  0  0
  -30.3683  -12.6622   21.7012 C   0  0  0  0  0  0  0  0  0  0  0  0
  -28.9669  -14.5616   20.8801 C   0  0  0  0  0  0  0  0  0  0  0  0
  -20.8509  -27.7877   22.6783 C   0  0  1  0  0  0  0  0  0  0  0  0
  -24.5739  -27.0691   22.4905 C   0  0  1  0  0  0  0  0  0  0  0  0
  -30.2319  -15.4323   20.9406 C   0  0  1  0  0  0  0  0  0  0  0  0
  -26.9738  -16.0924   17.5665 C   0  0  0  0  0  0  0  0  0  0  0  0
  -28.9266  -27.4986   22.5056 C   0  0  0  0  0  0  0  0  0  0  0  0
  -23.7567  -31.2532   21.2576 C   0  0  0  0  0  0  0  0  0  0  0  0
  -24.5418  -29.9572   23.2506 C   0  0  0  0  0  0  0  0  0  0  0  0
  -22.9564  -28.9136   21.6320 C   0  0  0  0  0  0  0  0  0  0  0  0
  -29.4655  -30.3353   24.5366 C   0  0  0  0  0  0  0  0  0  0  0  0
  -19.0327  -14.8887   19.7337 C   0  0  0  0  0  0  0  0  0  0  0  0
  -26.3696  -18.4685   22.3382 C   0  0  0  0  0  0  0  0  0  0  0  0
  -26.8362  -19.0508   21.0095 C   0  0  0  0  0  0  0  0  0  0  0  0
  -27.4856  -20.4218   21.1606 C   0  0  0  0  0  0  0  0  0  1  0  0
  -26.3023  -15.0247   18.4332 C   0  0  2  0  0  0  0  0  0  0  0  0
  -25.3684  -29.2587   20.9572 C   0  0  1  0  0  0  0  0  0  0  0  0
  -28.8139  -29.0151   22.5189 C   0  0  2  0  0  0  0  0  0  0  0  0
  -24.1744  -29.8549   21.7549 C   0  0  0  0  0  0  0  0  0  0  0  0
  -30.2951  -17.6901   19.9493 N   0  0  0  0  0  0  0  0  0  0  0  0
  -24.0994  -18.7835   23.1546 N   0  0  0  0  0  0  0  0  0  0  0  0
  -29.8972  -16.9126   20.9707 N   0  0  0  0  0  0  0  0  0  0  0  0
  -29.3064  -13.1369   20.8037 N   0  0  0  0  0  0  0  0  0  0  0  0
  -24.5727  -26.9127   21.0261 N   0  0  0  0  0  0  0  0  0  0  0  0
  -28.7433  -16.9552   23.0389 N   0  0  0  0  0  0  0  0  0  0  0  0
  -28.5797  -21.2545   21.6658 N   0  0  0  0  0  0  0  0  0  0  0  0
  -22.1598  -27.2127   22.4592 N   0  0  0  0  0  0  0  0  0  0  0  0
  -26.5341  -28.9411   21.7749 N   0  0  0  0  0  0  0  0  0  0  0  0
  -21.9233  -18.9727   23.8673 N   0  3  0  0  0  0  0  0  0  0  0  0
  -28.4585  -29.4479   23.8999 N   0  3  0  0  0  0  0  0  0  0  0  0
  -27.9801  -19.8119   23.3445 O   0  0  0  0  0  0  0  0  0  0  0  0
  -28.7938  -11.1095   19.7767 O   0  0  0  0  0  0  0  0  0  0  0  0
  -23.4338  -28.9549   23.3334 O   0  0  0  0  0  0  0  0  0  0  0  0
  -25.0927  -27.9424   19.0061 O   0  0  0  0  0  0  0  0  0  0  0  0
  -28.0253  -30.2984   20.6298 O   0  0  0  0  0  0  0  0  0  0  0  0
  -30.7456  -23.2918   16.9547 O   0  0  0  0  0  0  0  0  0  0  0  0
  -19.3463  -15.8385   20.7512 O   0  0  0  0  0  0  0  0  0  0  0  0
  -26.7447  -21.3905   20.4197 O   0  0  0  0  0  0  0  0  0  1  0  0
  -32.4484  -27.9856   19.2940 F   0  0  0  0  0  0  0  0  0  0  0  0
  -33.1606  -24.4352   16.2457 F   0  0  0  0  0  0  0  0  0  0  0  0
  1  2  1  0  0  0  0
  1  5  2  0  0  0  0
  2  6  2  0  0  0  0
  3  8  2  0  0  0  0
  3 18  1  0  0  0  0
  4  9  1  0  0  0  0
  4 18  2  0  0  0  0
  5 22  1  0  0  0  0
  6 24  1  0  0  0  0
  7 10  2  0  0  0  0
  7 23  1  0  0  0  0
  8 26  1  0  0  0  0
  9 26  2  0  0  0  0
 10 27  1  0  0  0  0
 11 12  2  0  0  0  0
 11 28  1  0  0  0  0
 12 30  1  0  0  0  0
 13 19  2  0  0  0  0
 13 20  1  0  0  0  0
 14 19  1  0  0  0  0
 14 29  2  0  0  0  0
 15 20  2  0  0  0  0
 15 29  1  0  0  0  0
 16 25  1  0  0  0  0
 16 27  2  0  0  0  0
 17 30  2  0  0  0  0
 17 31  1  0  0  0  0
 18 32  1  0  0  0  0
 19 34  1  0  0  0  0
 20 39  1  0  0  0  0
 21 32  1  0  0  0  0
 21 33  2  0  0  0  0
 21 40  1  0  0  0  0
 22 24  2  0  0  0  0
 22 45  1  0  0  0  0
 23 25  2  0  0  0  0
 23 46  1  0  0  0  0
 24 54  1  0  0  0  0
 25 47  1  0  0  0  0
 26 87  1  0  0  0  0
 27 89  1  0  0  0  0
 28 31  2  0  0  0  0
 28 87  1  0  0  0  0
 29 88  1  0  0  0  0
 30 90  1  0  0  0  0
 31 91  1  0  0  0  0
 32 71  2  0  0  0  0
 33 73  1  0  0  0  0
 33 76  1  0  0  0  0
 34 36  2  0  0  0  0
 35 37  2  0  0  0  0
 35 41  1  0  0  0  0
 36 67  1  0  0  0  0
 37 67  1  0  0  0  0
 38 64  1  0  0  0  0
 38 72  2  0  0  0  0
 39 72  1  0  0  0  0
 39 80  2  0  0  0  0
 40 77  1  0  0  0  0
 40 82  2  0  0  0  0
 41 74  1  0  0  0  0
 41 83  2  0  0  0  0
 42 55  1  0  0  0  0
 42 78  1  0  0  0  0
 42 84  2  0  0  0  0
 43 68  1  0  0  0  0
 43 75  1  0  0  0  0
 43 85  2  0  0  0  0
 44 69  1  0  0  0  0
 44 79  1  0  0  0  0
 44 86  2  0  0  0  0
 45 48  1  0  0  0  0
 46 55  1  0  0  0  0
 47 75  1  0  0  0  0
 48 50  1  0  0  0  0
 49 51  1  0  0  0  0
 49 52  1  0  0  0  0
 50 54  1  0  0  0  0
 51 56  1  0  0  0  0
 52 74  1  0  0  0  0
 53 56  1  0  0  0  0
 53 74  1  0  0  0  0
 54 78  1  0  0  0  0
 55 75  1  0  0  0  0
 56 73  1  0  0  0  0
 57 67  1  0  0  0  0
 58 69  1  0  0  0  0
 59 70  1  0  0  0  0
 60 70  1  0  0  0  0
 61 70  1  0  0  0  0
 62 81  1  0  0  0  0
 63 88  1  0  0  0  0
 64 65  1  0  0  0  0
 65 66  1  0  0  0  0
 66 89  1  0  0  0  0
 68 70  1  0  0  0  0
 68 79  1  0  0  0  0
 69 81  1  0  0  0  0
 71 73  1  0  0  0  0
M  CHG  2  80   1  81   1
M  ISO  4  35 100  41 100  66 101  89 101
M  END
> <Batch ID>
0128

> <Smiles>
CNC(C)C(=O)NC(C(=O)N1Cc2cc([101O:1][101CH2:1]CCC=NC(=N)c3cc(C=CC(C)=C[100CH2:0][100C:0](=O)N4CCCC(n5nc(-c6ccc(Oc7ccc(F)cc7F)cc6)c(C(N)=O)c5N)C4)cc(OC)c3)ccc2CC1C(=O)NC1CCCc2ccccc21)C(C)(C)C

> <Shape>
0.245

> <Color>
0.054

> <Negative vol penalty>
0.000

$$$$

  -OEChem-04052302163D

 84 92  0     1  0  0  0  0  0999 V2000
  -27.1026  -21.1289   15.6053 C   0  0  0  0  0  0  0  0  0  0  0  0
  -27.5186  -19.9467   16.2072 C   0  0  0  0  0  0  0  0  0  0  0  0
  -23.9175  -29.7719   20.3409 C   0  0  0  0  0  0  0  0  0  0  0  0
  -23.9725  -28.2331   22.2026 C   0  0  0  0  0  0  0  0  0  0  0  0
  -25.9352  -21.7539   16.0387 C   0  0  0  0  0  0  0  0  0  0  0  0
  -26.7612  -19.3829   17.2345 C   0  0  0  0  0  0  0  0  0  0  0  0
  -28.1383  -14.9445   18.8493 C   0  0  0  0  0  0  0  0  0  0  0  0
  -22.5911  -30.0844   20.6383 C   0  0  0  0  0  0  0  0  0  0  0  0
  -22.6460  -28.5457   22.5001 C   0  0  0  0  0  0  0  0  0  0  0  0
  -29.2869  -14.7434   19.6134 C   0  0  0  0  0  0  0  0  0  0  0  0
  -19.5752  -27.7352   21.3407 C   0  0  0  0  0  0  0  0  0  0  0  0
  -18.7090  -26.6797   21.6257 C   0  0  0  0  0  0  0  0  0  0  0  0
  -27.9249  -14.5244   21.5923 C   0  0  0  0  0  0  0  0  0  0  0  0
  -28.5173  -21.3508   21.9081 C   0  0  0  0  0  0  0  0  0  0  0  0
  -18.2949  -27.6112   23.8162 C   0  0  0  0  0  0  0  0  0  0  0  0
  -29.8911  -19.3940   20.5931 C   0  0  0  0  0  0  0  0  0  0  0  0
  -24.6082  -28.8462   21.1230 C   0  0  0  0  0  0  0  0  0  0  0  0
  -29.5850  -19.1958   21.9298 C   0  0  0  0  0  0  0  0  0  0  0  0
  -27.1331  -29.1593   21.3084 C   0  0  0  0  0  0  0  0  0  0  0  0
  -25.1704  -21.2034   17.0803 C   0  0  0  0  0  0  0  0  0  0  0  0
  -26.8729  -14.9478   19.4537 C   0  0  0  0  0  0  0  0  0  0  0  0
  -25.5673  -19.9860   17.6699 C   0  0  0  0  0  0  0  0  0  0  0  0
  -26.7615  -14.7231   20.8333 C   0  0  0  0  0  0  0  0  0  0  0  0
  -28.8848  -20.1976   22.5926 C   0  0  0  0  0  0  0  0  0  0  0  0
  -21.9553  -29.4713   21.7179 C   0  0  0  0  0  0  0  0  0  0  0  0
  -29.1806  -14.5362   20.9856 C   0  0  0  0  0  0  0  0  0  0  0  0
  -19.8014  -28.7286   22.2934 C   0  0  0  0  0  0  0  0  0  0  0  0
  -18.0688  -26.6177   22.8634 C   0  0  0  0  0  0  0  0  0  0  0  0
  -19.1612  -28.6666   23.5311 C   0  0  0  0  0  0  0  0  0  0  0  0
  -25.9783  -28.5225   20.8159 C   0  0  0  0  0  0  0  0  0  0  0  0
  -28.8714  -21.4526   20.5724 C   0  0  0  0  0  0  0  0  0  0  0  0
  -28.1747  -28.4840   20.7206 C   0  0  0  0  0  0  0  0  0  0  0  0
  -30.0003  -17.9511   22.5980 C   0  0  0  0  0  0  0  0  0  0  0  0
  -31.2691  -17.5414   22.7528 C   0  0  0  0  0  0  0  0  0  0  0  0
  -27.2536  -30.2626   22.2161 C   0  0  0  0  0  0  0  0  0  0  0  0
  -24.5461  -17.0895   19.7747 C   0  0  0  0  0  0  0  0  0  0  0  0
  -22.9467  -14.5816   21.0688 C   0  0  0  0  0  0  0  0  0  0  0  0
  -23.0873  -11.5531   22.6358 C   0  0  0  0  0  0  0  0  0  0  0  0
  -28.7413  -22.9465   18.5481 C   0  0  0  0  0  0  0  0  0  0  0  0
  -23.9113  -21.9175   17.5046 C   0  0  0  0  0  0  0  0  0  0  0  0
  -25.6416  -15.1395   18.6113 C   0  0  0  0  0  0  0  0  0  0  0  0
  -25.4250  -14.6972   21.5272 C   0  0  0  0  0  0  0  0  0  0  0  0
  -23.4204  -21.4885   18.8834 C   0  0  0  0  0  0  0  0  0  0  0  0
  -29.2740  -25.9917   16.7817 C   0  0  0  0  0  0  0  0  0  0  0  0
  -23.3732  -19.9703   18.9692 C   0  0  0  0  0  0  0  0  0  0  0  0
  -28.5996  -27.0451   17.6637 C   0  0  0  0  0  0  0  0  0  0  0  0
  -28.4999  -24.6746   16.7789 C   0  0  0  0  0  0  0  0  0  0  0  0
  -27.5360  -25.1752   18.9901 C   0  0  0  0  0  0  0  0  0  0  0  0
  -24.7760  -19.3704   18.8097 C   0  0  1  0  0  0  0  0  0  0  0  0
  -24.4412  -15.6352   19.4118 C   0  0  1  0  0  0  0  0  0  0  0  0
  -28.3141  -26.4984   19.0762 C   0  0  2  0  0  0  0  0  0  0  0  0
  -29.4168  -20.8962   24.9410 C   0  0  0  0  0  0  0  0  0  0  0  0
  -21.6156   -9.7649   23.6021 C   0  0  0  0  0  0  0  0  0  0  0  0
  -22.4150  -16.3393   23.5056 C   0  0  0  0  0  0  0  0  0  0  0  0
  -21.8071  -14.2707   24.7782 C   0  0  0  0  0  0  0  0  0  0  0  0
  -20.4704  -14.9430   22.7822 C   0  0  0  0  0  0  0  0  0  0  0  0
  -24.1224   -9.5202   20.7504 C   0  0  0  0  0  0  0  0  0  0  0  0
  -28.5123  -20.0682   24.0338 C   0  0  0  0  0  0  0  0  0  0  0  0
  -31.6459  -16.2633   23.4471 C   0  0  0  0  0  0  0  0  0  0  0  0
  -32.3610  -15.3061   22.4953 C   0  0  0  0  0  0  0  0  0  0  0  0
  -31.4995  -14.9707   21.2857 C   0  0  0  0  0  0  0  0  0  1  0  0
  -22.7981  -14.0106   22.4584 C   0  0  1  0  0  0  0  0  0  0  0  0
  -22.3633  -10.2460   22.3683 C   0  0  2  0  0  0  0  0  0  0  0  0
  -21.8981  -14.8933   23.3686 C   0  0  0  0  0  0  0  0  0  0  0  0
  -29.5512  -20.5005   19.8948 N   0  0  0  0  0  0  0  0  0  0  0  0
  -26.2593  -27.5198   19.9795 N   0  0  0  0  0  0  0  0  0  0  0  0
  -27.6027  -27.5215   19.9418 N   0  0  0  0  0  0  0  0  0  0  0  0
  -24.2509  -14.8959   20.6614 N   0  0  0  0  0  0  0  0  0  0  0  0
  -28.2701  -24.2155   18.1504 N   0  0  0  0  0  0  0  0  0  0  0  0
  -29.5149  -28.6256   20.7990 N   0  0  0  0  0  0  0  0  0  0  0  0
  -26.0824  -30.8391   22.7262 N   0  0  0  0  0  0  0  0  0  0  0  0
  -28.4932  -22.6318   19.8837 N   0  0  0  0  0  0  0  0  0  0  0  0
  -24.6638  -17.9337   18.6871 N   0  0  0  0  0  0  0  0  0  0  0  0
  -22.3180  -12.6435   22.2887 N   0  0  0  0  0  0  0  0  0  0  0  0
  -23.3339   -9.1893   21.9652 N   0  3  0  0  0  0  0  0  0  0  0  0
  -28.3665  -30.7341   22.5518 O   0  0  0  0  0  0  0  0  0  0  0  0
  -24.5205  -17.4212   20.9541 O   0  0  0  0  0  0  0  0  0  0  0  0
  -21.9434  -14.7361   20.3680 O   0  0  0  0  0  0  0  0  0  0  0  0
  -24.2205  -11.6022   23.1091 O   0  0  0  0  0  0  0  0  0  0  0  0
  -29.3462  -22.2055   17.7690 O   0  0  0  0  0  0  0  0  0  0  0  0
  -20.6611  -29.7762   22.0086 O   0  0  0  0  0  0  0  0  0  0  0  0
  -30.3002  -14.3403   21.7339 O   0  0  0  0  0  0  0  0  0  1  0  0
  -17.2358  -25.6050   23.1364 F   0  0  0  0  0  0  0  0  0  0  0  0
  -19.3735  -29.6187   24.4500 F   0  0  0  0  0  0  0  0  0  0  0  0
  1  2  1  0  0  0  0
  1  5  2  0  0  0  0
  2  6  2  0  0  0  0
  3  8  2  0  0  0  0
  3 17  1  0  0  0  0
  4  9  1  0  0  0  0
  4 17  2  0  0  0  0
  5 20  1  0  0  0  0
  6 22  1  0  0  0  0
  7 10  2  0  0  0  0
  7 21  1  0  0  0  0
  8 25  1  0  0  0  0
  9 25  2  0  0  0  0
 10 26  1  0  0  0  0
 11 12  2  0  0  0  0
 11 27  1  0  0  0  0
 12 28  1  0  0  0  0
 13 23  1  0  0  0  0
 13 26  2  0  0  0  0
 14 24  1  0  0  0  0
 14 31  2  0  0  0  0
 15 28  2  0  0  0  0
 15 29  1  0  0  0  0
 16 18  1  0  0  0  0
 16 65  2  0  0  0  0
 17 30  1  0  0  0  0
 18 24  2  0  0  0  0
 18 33  1  0  0  0  0
 19 30  1  0  0  0  0
 19 32  2  0  0  0  0
 19 35  1  0  0  0  0
 20 22  2  0  0  0  0
 20 40  1  0  0  0  0
 21 23  2  0  0  0  0
 21 41  1  0  0  0  0
 22 49  1  0  0  0  0
 23 42  1  0  0  0  0
 24 58  1  0  0  0  0
 25 81  1  0  0  0  0
 26 82  1  0  0  0  0
 27 29  2  0  0  0  0
 27 81  1  0  0  0  0
 28 83  1  0  0  0  0
 29 84  1  0  0  0  0
 30 66  2  0  0  0  0
 31 65  1  0  0  0  0
 31 72  1  0  0  0  0
 32 67  1  0  0  0  0
 32 70  1  0  0  0  0
 33 34  2  0  0  0  0
 34 59  1  0  0  0  0
 35 71  1  0  0  0  0
 35 76  2  0  0  0  0
 36 50  1  0  0  0  0
 36 73  1  0  0  0  0
 36 77  2  0  0  0  0
 37 62  1  0  0  0  0
 37 68  1  0  0  0  0
 37 78  2  0  0  0  0
 38 63  1  0  0  0  0
 38 74  1  0  0  0  0
 38 79  2  0  0  0  0
 39 69  1  0  0  0  0
 39 72  1  0  0  0  0
 39 80  2  0  0  0  0
 40 43  1  0  0  0  0
 41 50  1  0  0  0  0
 42 68  1  0  0  0  0
 43 45  1  0  0  0  0
 44 46  1  0  0  0  0
 44 47  1  0  0  0  0
 45 49  1  0  0  0  0
 46 51  1  0  0  0  0
 47 69  1  0  0  0  0
 48 51  1  0  0  0  0
 48 69  1  0  0  0  0
 49 73  1  0  0  0  0
 50 68  1  0  0  0  0
 51 67  1  0  0  0  0
 52 58  1  0  0  0  0
 53 63  1  0  0  0  0
 54 64  1  0  0  0  0
 55 64  1  0  0  0  0
 56 64  1  0  0  0  0
 57 75  1  0  0  0  0
 59 60  1  0  0  0  0
 60 61  1  0  0  0  0
 61 82  1  0  0  0  0
 62 64  1  0  0  0  0
 62 74  1  0  0  0  0
 63 75  1  0  0  0  0
 66 67  1  0  0  0  0
M  CHG  1  75   1
M  ISO  4  39 100  61 101  72 100  82 101
M  END
> <Batch ID>
0128

> <Smiles>
CCc1cc([100NH:0][100C:0](=O)N2CCCC(n3nc(-c4ccc(Oc5ccc(F)cc5F)cc4)c(C(N)=O)c3N)C2)ncc1C=CCC[101CH2:1][101O:1]c1ccc2c(c1)CN(C(=O)C(NC(=O)C(C)NC)C(C)(C)C)C(C(=O)NC1CCCc3ccccc31)C2

> <Shape>
0.276

> <Color>
0.075

> <Negative vol penalty>
0.000

$$$$

  -OEChem-04052302163D

 90 98  0     1  0  0  0  0  0999 V2000
  -29.7272  -36.4287   26.2535 C   0  0  0  0  0  0  0  0  0  0  0  0
  -29.4951  -35.0596   26.1691 C   0  0  0  0  0  0  0  0  0  0  0  0
  -23.8962   -9.3948   20.8618 C   0  0  0  0  0  0  0  0  0  0  0  0
  -24.3323  -10.2316   23.0859 C   0  0  0  0  0  0  0  0  0  0  0  0
  -28.6697  -37.3245   26.1019 C   0  0  0  0  0  0  0  0  0  0  0  0
  -28.2050  -34.5855   25.9342 C   0  0  0  0  0  0  0  0  0  0  0  0
  -28.0904  -30.9075   22.4550 C   0  0  0  0  0  0  0  0  0  0  0  0
  -23.4015   -8.2091   21.4048 C   0  0  0  0  0  0  0  0  0  0  0  0
  -23.8375   -9.0459   23.6290 C   0  0  0  0  0  0  0  0  0  0  0  0
  -28.4770  -29.6320   22.8640 C   0  0  0  0  0  0  0  0  0  0  0  0
  -20.5419   -7.1365   22.8558 C   0  0  0  0  0  0  0  0  0  0  0  0
  -19.3520   -6.6307   22.3324 C   0  0  0  0  0  0  0  0  0  0  0  0
  -30.5175  -18.9834   20.6524 C   0  0  0  0  0  0  0  0  0  0  0  0
  -26.1575  -29.0019   23.0702 C   0  0  0  0  0  0  0  0  0  0  0  0
  -28.2791  -19.1690   21.5425 C   0  0  0  0  0  0  0  0  0  0  0  0
  -20.4961   -4.6009   21.6935 C   0  0  0  0  0  0  0  0  0  0  0  0
  -24.3616  -10.4061   21.7023 C   0  0  0  0  0  0  0  0  0  0  0  0
  -30.6669  -20.3674   20.7395 C   0  0  0  0  0  0  0  0  0  0  0  0
  -29.6225  -21.1523   21.2281 C   0  0  0  0  0  0  0  0  0  0  0  0
  -24.1459  -12.7991   20.8452 C   0  0  0  0  0  0  0  0  0  0  0  0
  -27.3676  -36.8615   25.8553 C   0  0  0  0  0  0  0  0  0  0  0  0
  -26.7323  -31.2438   22.3609 C   0  0  0  0  0  0  0  0  0  0  0  0
  -27.1288  -35.4759   25.7805 C   0  0  0  0  0  0  0  0  0  0  0  0
  -25.7564  -30.2816   22.6573 C   0  0  0  0  0  0  0  0  0  0  0  0
  -28.4285  -20.5531   21.6296 C   0  0  0  0  0  0  0  0  0  0  0  0
  -29.3236  -18.3841   21.0539 C   0  0  0  0  0  0  0  0  0  0  0  0
  -23.3721   -8.0347   22.7884 C   0  0  0  0  0  0  0  0  0  0  0  0
  -27.5105  -28.6798   23.1744 C   0  0  0  0  0  0  0  0  0  0  0  0
  -21.7089   -6.3746   22.7980 C   0  0  0  0  0  0  0  0  0  0  0  0
  -19.3291   -5.3628   21.7513 C   0  0  0  0  0  0  0  0  0  0  0  0
  -21.6860   -5.1068   22.2168 C   0  0  0  0  0  0  0  0  0  0  0  0
  -24.8733  -11.6309   21.1419 C   0  0  0  0  0  0  0  0  0  0  0  0
  -25.0816  -13.6663   20.3363 C   0  0  0  0  0  0  0  0  0  0  0  0
  -29.7762  -22.6136   21.3221 C   0  0  0  0  0  0  0  0  0  0  0  0
  -30.2281  -23.2769   22.3980 C   0  0  0  0  0  0  0  0  0  0  0  0
  -31.9327  -20.9508   20.3086 C   0  0  0  0  0  0  0  0  0  0  0  0
  -22.7493  -13.0756   21.0145 C   0  0  0  0  0  0  0  0  0  0  0  0
  -24.8436  -33.3682   23.7834 C   0  0  0  0  0  0  0  0  0  0  0  0
  -29.0873  -25.4184   22.9700 C   0  0  0  0  0  0  0  0  0  0  0  0
  -22.6656  -32.2892   21.6353 C   0  0  0  0  0  0  0  0  0  0  0  0
  -21.6262  -29.7721   19.5784 C   0  0  0  0  0  0  0  0  0  0  0  0
  -30.1087  -16.0546   20.5031 C   0  0  0  0  0  0  0  0  0  0  0  0
  -26.2484  -37.8665   25.7454 C   0  0  0  0  0  0  0  0  0  0  0  0
  -26.3317  -32.6158   21.8925 C   0  0  0  0  0  0  0  0  0  0  0  0
  -24.2851  -30.5861   22.5528 C   0  0  0  0  0  0  0  0  0  0  0  0
  -24.9755  -37.2952   25.1260 C   0  0  0  0  0  0  0  0  0  0  0  0
  -29.8749  -12.8769   18.9141 C   0  0  0  0  0  0  0  0  0  0  0  0
  -24.6343  -35.9477   25.7542 C   0  0  0  0  0  0  0  0  0  0  0  0
  -28.4930  -12.3656   19.3276 C   0  0  0  0  0  0  0  0  0  0  0  0
  -30.5529  -13.6537   20.0414 C   0  0  0  0  0  0  0  0  0  0  0  0
  -28.3704  -14.2325   21.0266 C   0  0  0  0  0  0  0  0  0  0  0  0
  -25.7476  -34.9238   25.5021 C   0  0  1  0  0  0  0  0  0  0  0  0
  -24.9228  -33.0078   22.3269 C   0  0  1  0  0  0  0  0  0  0  0  0
  -27.6212  -13.4995   19.9019 C   0  0  2  0  0  0  0  0  0  0  0  0
  -27.2854  -21.3588   22.1589 C   0  0  0  0  0  0  0  0  0  0  0  0
  -19.7907  -29.1673   17.9777 C   0  0  0  0  0  0  0  0  0  0  0  0
  -35.5875  -21.0768   21.7072 C   0  0  0  0  0  0  0  0  0  0  0  0
  -33.8757  -22.9001   21.6471 C   0  0  0  0  0  0  0  0  0  0  0  0
  -20.7901  -31.7706   23.9855 C   0  0  0  0  0  0  0  0  0  0  0  0
  -19.4099  -30.3273   22.4756 C   0  0  0  0  0  0  0  0  0  0  0  0
  -19.6870  -32.7539   21.9679 C   0  0  0  0  0  0  0  0  0  0  0  0
  -23.5239  -29.5011   17.3236 C   0  0  0  0  0  0  0  0  0  0  0  0
  -30.3614  -24.7682   22.4493 C   0  0  0  0  0  0  0  0  0  0  0  0
  -33.2354  -20.5310   21.0069 C   0  0  0  0  0  0  0  0  0  0  0  0
  -29.1194  -26.9319   23.0644 C   0  0  0  0  0  0  0  0  0  1  0  0
  -21.6376  -31.1838   21.6184 C   0  0  1  0  0  0  0  0  0  0  0  0
  -21.1756  -29.7770   18.1288 C   0  0  2  0  0  0  0  0  0  0  0  0
  -34.3424  -21.5997   20.9875 C   0  0  0  0  0  0  0  0  0  0  0  0
  -20.4088  -31.5035   22.5158 C   0  0  0  0  0  0  0  0  0  0  0  0
  -26.1710  -11.7425   20.8460 N   0  0  0  0  0  0  0  0  0  0  0  0
  -26.2664  -12.9910   20.3580 N   0  0  0  0  0  0  0  0  0  0  0  0
  -23.9437  -31.9435   22.0965 N   0  0  0  0  0  0  0  0  0  0  0  0
  -29.6700  -14.7139   20.5326 N   0  0  0  0  0  0  0  0  0  0  0  0
  -24.9983  -14.9329   19.8769 N   0  0  0  0  0  0  0  0  0  0  0  0
  -21.9300  -12.0733   21.5515 N   0  0  0  0  0  0  0  0  0  0  0  0
  -29.1715  -16.9782   20.9650 N   0  0  0  0  0  0  0  0  0  0  0  0
  -25.6688  -34.4142   24.1498 N   0  0  0  0  0  0  0  0  0  0  0  0
  -21.3093  -30.9531   20.2157 N   0  0  0  0  0  0  0  0  0  0  0  0
  -22.1270  -28.9967   17.2880 N   0  3  0  0  0  0  0  0  0  0  0  0
  -31.9795  -21.7668   19.3770 O   0  0  0  0  0  0  0  0  0  0  0  0
  -22.2399  -14.1732   20.6837 O   0  0  0  0  0  0  0  0  0  0  0  0
  -24.0886  -32.7444   24.5200 O   0  0  0  0  0  0  0  0  0  0  0  0
  -28.0867  -24.7741   23.2820 O   0  0  0  0  0  0  0  0  0  0  0  0
  -22.3483  -33.4161   21.2466 O   0  0  0  0  0  0  0  0  0  0  0  0
  -22.1984  -28.8149   20.0949 O   0  0  0  0  0  0  0  0  0  0  0  0
  -31.2227  -16.3636   20.0725 O   0  0  0  0  0  0  0  0  0  0  0  0
  -22.8892   -6.8779   23.3187 O   0  0  0  0  0  0  0  0  0  0  0  0
  -27.8850  -27.4342   23.5745 O   0  0  0  0  0  0  0  0  0  1  0  0
  -18.1861   -4.8766   21.2501 F   0  0  0  0  0  0  0  0  0  0  0  0
  -22.8036   -4.3696   22.1595 F   0  0  0  0  0  0  0  0  0  0  0  0
  1  2  1  0  0  0  0
  1  5  2  0  0  0  0
  2  6  2  0  0  0  0
  3  8  2  0  0  0  0
  3 17  1  0  0  0  0
  4  9  1  0  0  0  0
  4 17  2  0  0  0  0
  5 21  1  0  0  0  0
  6 23  1  0  0  0  0
  7 10  2  0  0  0  0
  7 22  1  0  0  0  0
  8 27  1  0  0  0  0
  9 27  2  0  0  0  0
 10 28  1  0  0  0  0
 11 12  2  0  0  0  0
 11 29  1  0  0  0  0
 12 30  1  0  0  0  0
 13 18  1  0  0  0  0
 13 26  2  0  0  0  0
 14 24  1  0  0  0  0
 14 28  2  0  0  0  0
 15 25  2  0  0  0  0
 15 26  1  0  0  0  0
 16 30  2  0  0  0  0
 16 31  1  0  0  0  0
 17 32  1  0  0  0  0
 18 19  2  0  0  0  0
 18 36  1  0  0  0  0
 19 25  1  0  0  0  0
 19 34  1  0  0  0  0
 20 32  1  0  0  0  0
 20 33  2  0  0  0  0
 20 37  1  0  0  0  0
 21 23  2  0  0  0  0
 21 43  1  0  0  0  0
 22 24  2  0  0  0  0
 22 44  1  0  0  0  0
 23 52  1  0  0  0  0
 24 45  1  0  0  0  0
 25 55  1  0  0  0  0
 26 76  1  0  0  0  0
 27 87  1  0  0  0  0
 28 88  1  0  0  0  0
 29 31  2  0  0  0  0
 29 87  1  0  0  0  0
 30 89  1  0  0  0  0
 31 90  1  0  0  0  0
 32 70  2  0  0  0  0
 33 71  1  0  0  0  0
 33 74  1  0  0  0  0
 34 35  2  0  0  0  0
 35 63  1  0  0  0  0
 36 64  1  0  0  0  0
 36 80  2  0  0  0  0
 37 75  1  0  0  0  0
 37 81  2  0  0  0  0
 38 53  1  0  0  0  0
 38 77  1  0  0  0  0
 38 82  2  0  0  0  0
 39 63  1  0  0  0  0
 39 65  1  0  0  0  0
 39 83  2  0  0  0  0
 40 66  1  0  0  0  0
 40 72  1  0  0  0  0
 40 84  2  0  0  0  0
 41 67  1  0  0  0  0
 41 78  1  0  0  0  0
 41 85  2  0  0  0  0
 42 73  1  0  0  0  0
 42 76  1  0  0  0  0
 42 86  2  0  0  0  0
 43 46  1  0  0  0  0
 44 53  1  0  0  0  0
 45 72  1  0  0  0  0
 46 48  1  0  0  0  0
 47 49  1  0  0  0  0
 47 50  1  0  0  0  0
 48 52  1  0  0  0  0
 49 54  1  0  0  0  0
 50 73  1  0  0  0  0
 51 54  1  0  0  0  0
 51 73  1  0  0  0  0
 52 77  1  0  0  0  0
 53 72  1  0  0  0  0
 54 71  1  0  0  0  0
 56 67  1  0  0  0  0
 57 68  1  0  0  0  0
 58 68  1  0  0  0  0
 59 69  1  0  0  0  0
 60 69  1  0  0  0  0
 61 69  1  0  0  0  0
 62 79  1  0  0  0  0
 64 68  1  0  0  0  0
 65 88  1  0  0  0  0
 66 69  1  0  0  0  0
 66 78  1  0  0  0  0
 67 79  1  0  0  0  0
 70 71  1  0  0  0  0
M  CHG  1  79   1
M  ISO  4  42 100  65 101  76 100  88 101
M  END
> <Batch ID>
0128

> <Smiles>
CNC(C)C(=O)NC(C(=O)N1Cc2cc([101O:1][101CH2:1]C(=O)CC=Cc3c(C)cc([100NH:0][100C:0](=O)N4CCCC(n5nc(-c6ccc(Oc7ccc(F)cc7F)cc6)c(C(N)=O)c5N)C4)cc3C(=O)CC(C)C)ccc2CC1C(=O)NC1CCCc2ccccc21)C(C)(C)C

> <Shape>
0.289

> <Color>
0.123

> <Negative vol penalty>
0.000

$$$$

  -OEChem-04052302163D

 81 89  0     1  0  0  0  0  0999 V2000
  -25.0491  -19.5268   13.9613 C   0  0  0  0  0  0  0  0  0  0  0  0
  -26.0756  -18.7439   14.4799 C   0  0  0  0  0  0  0  0  0  0  0  0
  -26.6414  -28.3764   18.8939 C   0  0  0  0  0  0  0  0  0  0  0  0
  -26.1115  -27.2053   20.9396 C   0  0  0  0  0  0  0  0  0  0  0  0
  -23.9889  -19.9152   14.7792 C   0  0  0  0  0  0  0  0  0  0  0  0
  -26.0429  -18.3498   15.8171 C   0  0  0  0  0  0  0  0  0  0  0  0
  -28.0557  -13.0550   18.1450 C   0  0  0  0  0  0  0  0  0  0  0  0
  -25.5339  -29.2035   19.0806 C   0  0  0  0  0  0  0  0  0  0  0  0
  -25.0040  -28.0324   21.1262 C   0  0  0  0  0  0  0  0  0  0  0  0
  -29.2423  -12.7033   18.7868 C   0  0  0  0  0  0  0  0  0  0  0  0
  -24.3963  -31.1659   22.2364 C   0  0  0  0  0  0  0  0  0  0  0  0
  -24.1873  -31.6883   23.5127 C   0  0  0  0  0  0  0  0  0  0  0  0
  -30.6571  -17.7777   20.7554 C   0  0  0  0  0  0  0  0  0  0  0  0
  -28.1749  -13.0284   20.9255 C   0  0  0  0  0  0  0  0  0  0  0  0
  -22.0359  -30.5931   23.6086 C   0  0  0  0  0  0  0  0  0  0  0  0
  -31.1255  -17.9386   23.0263 C   0  0  0  0  0  0  0  0  0  0  0  0
  -26.9302  -27.3772   19.8234 C   0  0  0  0  0  0  0  0  0  0  0  0
  -31.1454  -17.1179   21.9201 C   0  0  0  0  0  0  0  0  0  0  0  0
  -29.3851  -26.7390   20.0949 C   0  0  0  0  0  0  0  0  0  0  0  0
  -23.9383  -19.5176   16.1246 C   0  0  0  0  0  0  0  0  0  0  0  0
  -26.9209  -13.4071   18.8899 C   0  0  0  0  0  0  0  0  0  0  0  0
  -24.9816  -18.7344   16.6541 C   0  0  0  0  0  0  0  0  0  0  0  0
  -26.9743  -13.3816   20.2908 C   0  0  0  0  0  0  0  0  0  0  0  0
  -24.7152  -29.0315   20.1967 C   0  0  0  0  0  0  0  0  0  0  0  0
  -29.3030  -12.6928   20.1772 C   0  0  0  0  0  0  0  0  0  0  0  0
  -23.4251  -30.3571   21.6461 C   0  0  0  0  0  0  0  0  0  0  0  0
  -23.0071  -31.4018   24.1989 C   0  0  0  0  0  0  0  0  0  0  0  0
  -22.2449  -30.0707   22.3323 C   0  0  0  0  0  0  0  0  0  0  0  0
  -28.0738  -26.5221   19.6309 C   0  0  0  0  0  0  0  0  0  0  0  0
  -30.0907  -25.6465   19.6532 C   0  0  0  0  0  0  0  0  0  0  0  0
  -30.2823  -19.0775   21.0160 C   0  0  0  0  0  0  0  0  0  0  0  0
  -31.6218  -15.7256   21.9669 C   0  0  0  0  0  0  0  0  0  0  0  0
  -32.0221  -15.0095   20.9046 C   0  0  0  0  0  0  0  0  0  0  0  0
  -29.9177  -27.8303   20.8571 C   0  0  0  0  0  0  0  0  0  0  0  0
  -25.1409  -16.0264   19.1630 C   0  0  0  0  0  0  0  0  0  0  0  0
  -23.2863  -14.1031   21.0024 C   0  0  0  0  0  0  0  0  0  0  0  0
  -23.0542  -11.3303   22.9784 C   0  0  0  0  0  0  0  0  0  0  0  0
  -29.4754  -19.9670   18.8014 C   0  0  0  0  0  0  0  0  0  0  0  0
  -22.7959  -20.0016   16.9821 C   0  0  0  0  0  0  0  0  0  0  0  0
  -25.6407  -13.7581   18.1826 C   0  0  0  0  0  0  0  0  0  0  0  0
  -25.7782  -13.7317   21.1365 C   0  0  0  0  0  0  0  0  0  0  0  0
  -22.6465  -19.2292   18.2903 C   0  0  0  0  0  0  0  0  0  0  0  0
  -29.4265  -22.2762   16.0918 C   0  0  0  0  0  0  0  0  0  0  0  0
  -24.0014  -19.0673   18.9723 C   0  0  0  0  0  0  0  0  0  0  0  0
  -29.2010  -23.6285   16.7719 C   0  0  0  0  0  0  0  0  0  0  0  0
  -28.6491  -21.1573   16.7827 C   0  0  0  0  0  0  0  0  0  0  0  0
  -28.6477  -22.3998   18.9099 C   0  0  0  0  0  0  0  0  0  0  0  0
  -24.9693  -18.2662   18.0932 C   0  0  1  0  0  0  0  0  0  0  0  0
  -24.6960  -14.5967   19.0381 C   0  0  1  0  0  0  0  0  0  0  0  0
  -29.4615  -23.5468   18.2888 C   0  0  2  0  0  0  0  0  0  0  0  0
  -21.4174  -10.0363   24.3726 C   0  0  0  0  0  0  0  0  0  0  0  0
  -32.4200  -11.3386   19.8720 C   0  0  0  0  0  0  0  0  0  0  0  0
  -23.4845  -16.2175   23.1933 C   0  0  0  0  0  0  0  0  0  0  0  0
  -22.6744  -14.5013   24.8262 C   0  0  0  0  0  0  0  0  0  0  0  0
  -21.2154  -15.2003   22.9274 C   0  0  0  0  0  0  0  0  0  0  0  0
  -23.3712   -8.9070   21.3093 C   0  0  0  0  0  0  0  0  0  0  0  0
  -32.5142  -13.5900   20.9983 C   0  0  0  0  0  0  0  0  0  0  0  0
  -23.2362  -13.7516   22.4697 C   0  0  1  0  0  0  0  0  0  0  0  0
  -22.0531  -10.1894   22.9996 C   0  0  2  0  0  0  0  0  0  0  0  0
  -31.6802  -12.6456   20.1273 C   0  0  2  0  0  0  0  0  0  1  0  0
  -22.6759  -14.9129   23.3385 C   0  0  0  0  0  0  0  0  0  0  0  0
  -27.9510  -25.3816   18.9467 N   0  0  0  0  0  0  0  0  0  0  0  0
  -29.1941  -24.8720   18.9775 N   0  0  0  0  0  0  0  0  0  0  0  0
  -24.5512  -14.0742   20.3983 N   0  0  0  0  0  0  0  0  0  0  0  0
  -28.9492  -21.1379   18.2160 N   0  0  0  0  0  0  0  0  0  0  0  0
  -31.3844  -25.2824   19.7807 N   0  0  0  0  0  0  0  0  0  0  0  0
  -29.0545  -28.8703   21.2281 N   0  0  0  0  0  0  0  0  0  0  0  0
  -29.7518  -20.0776   20.1638 N   0  0  0  0  0  0  0  0  0  0  0  0
  -24.6645  -16.8532   18.1635 N   0  0  0  0  0  0  0  0  0  0  0  0
  -22.4740  -12.5114   22.5665 N   0  0  0  0  0  0  0  0  0  0  0  0
  -22.7229   -8.9059   22.6460 N   0  3  0  0  0  0  0  0  0  0  0  0
  -31.1271  -27.8897   21.1851 O   0  0  0  0  0  0  0  0  0  0  0  0
  -25.8619  -16.3554   20.0977 O   0  0  0  0  0  0  0  0  0  0  0  0
  -22.2406  -14.3857   20.4122 O   0  0  0  0  0  0  0  0  0  0  0  0
  -24.2322  -11.1889   23.2991 O   0  0  0  0  0  0  0  0  0  0  0  0
  -29.6924  -18.9503   18.1371 O   0  0  0  0  0  0  0  0  0  0  0  0
  -23.6345  -29.8386   20.3793 O   0  0  0  0  0  0  0  0  0  0  0  0
  -30.4602  -12.3506   20.8062 O   0  0  0  0  0  0  0  0  0  1  0  0
  -22.8071  -31.9023   25.4251 F   0  0  0  0  0  0  0  0  0  0  0  0
  -21.3088  -29.2934   21.7708 F   0  0  0  0  0  0  0  0  0  0  0  0
  -30.5198  -19.4976   22.6590 S   0  0  0  0  0  0  0  0  0  0  0  0
  1  2  1  0  0  0  0
  1  5  2  0  0  0  0
  2  6  2  0  0  0  0
  3  8  2  0  0  0  0
  3 17  1  0  0  0  0
  4  9  1  0  0  0  0
  4 17  2  0  0  0  0
  5 20  1  0  0  0  0
  6 22  1  0  0  0  0
  7 10  2  0  0  0  0
  7 21  1  0  0  0  0
  8 24  1  0  0  0  0
  9 24  2  0  0  0  0
 10 25  1  0  0  0  0
 11 12  2  0  0  0  0
 11 26  1  0  0  0  0
 12 27  1  0  0  0  0
 13 18  1  0  0  0  0
 13 31  2  0  0  0  0
 14 23  1  0  0  0  0
 14 25  2  0  0  0  0
 15 27  2  0  0  0  0
 15 28  1  0  0  0  0
 16 18  2  0  0  0  0
 16 81  1  0  0  0  0
 17 29  1  0  0  0  0
 18 32  1  0  0  0  0
 19 29  1  0  0  0  0
 19 30  2  0  0  0  0
 19 34  1  0  0  0  0
 20 22  2  0  0  0  0
 20 39  1  0  0  0  0
 21 23  2  0  0  0  0
 21 40  1  0  0  0  0
 22 48  1  0  0  0  0
 23 41  1  0  0  0  0
 24 77  1  0  0  0  0
 25 78  1  0  0  0  0
 26 28  2  0  0  0  0
 26 77  1  0  0  0  0
 27 79  1  0  0  0  0
 28 80  1  0  0  0  0
 29 62  2  0  0  0  0
 30 63  1  0  0  0  0
 30 66  1  0  0  0  0
 31 68  1  0  0  0  0
 31 81  1  0  0  0  0
 32 33  2  0  0  0  0
 33 57  1  0  0  0  0
 34 67  1  0  0  0  0
 34 72  2  0  0  0  0
 35 49  1  0  0  0  0
 35 69  1  0  0  0  0
 35 73  2  0  0  0  0
 36 58  1  0  0  0  0
 36 64  1  0  0  0  0
 36 74  2  0  0  0  0
 37 59  1  0  0  0  0
 37 70  1  0  0  0  0
 37 75  2  0  0  0  0
 38 65  1  0  0  0  0
 38 68  1  0  0  0  0
 38 76  2  0  0  0  0
 39 42  1  0  0  0  0
 40 49  1  0  0  0  0
 41 64  1  0  0  0  0
 42 44  1  0  0  0  0
 43 45  1  0  0  0  0
 43 46  1  0  0  0  0
 44 48  1  0  0  0  0
 45 50  1  0  0  0  0
 46 65  1  0  0  0  0
 47 50  1  0  0  0  0
 47 65  1  0  0  0  0
 48 69  1  0  0  0  0
 49 64  1  0  0  0  0
 50 63  1  0  0  0  0
 51 59  1  0  0  0  0
 52 60  1  0  0  0  0
 53 61  1  0  0  0  0
 54 61  1  0  0  0  0
 55 61  1  0  0  0  0
 56 71  1  0  0  0  0
 57 60  1  0  0  0  0
 58 61  1  0  0  0  0
 58 70  1  0  0  0  0
 59 71  1  0  0  0  0
 60 78  1  0  0  0  0
 62 63  1  0  0  0  0
M  CHG  1  71   1
M  ISO  4  38 100  60 101  68 100  78 101
M  END
> <Batch ID>
0128

> <Smiles>
CNC(C)C(=O)NC(C(=O)N1Cc2cc([101O:1][101CH:1](C)CC=Cc3csc([100NH:0][100C:0](=O)N4CCCC(n5nc(-c6ccc(Oc7ccc(F)cc7F)cc6)c(C(N)=O)c5N)C4)c3)ccc2CC1C(=O)NC1CCCc2ccccc21)C(C)(C)C

> <Shape>
0.283

> <Color>
0.074

> <Negative vol penalty>
0.000

$$$$

  -OEChem-04052302163D

 87 95  0     1  0  0  0  0  0999 V2000
  -28.0336  -35.1007   23.6791 C   0  0  0  0  0  0  0  0  0  0  0  0
  -26.9992  -34.6958   22.8415 C   0  0  0  0  0  0  0  0  0  0  0  0
  -26.1609  -13.9442   22.1450 C   0  0  0  0  0  0  0  0  0  0  0  0
  -25.0801  -13.7162   19.9963 C   0  0  0  0  0  0  0  0  0  0  0  0
  -29.2972  -34.5252   23.5528 C   0  0  0  0  0  0  0  0  0  0  0  0
  -27.2282  -33.7158   21.8763 C   0  0  0  0  0  0  0  0  0  0  0  0
  -23.5393  -30.2502   21.7130 C   0  0  0  0  0  0  0  0  0  0  0  0
  -19.3100  -27.9564   23.6587 C   0  0  0  0  0  0  0  0  0  0  0  0
  -26.1022  -12.5617   22.3212 C   0  0  0  0  0  0  0  0  0  0  0  0
  -25.0214  -12.3337   20.1725 C   0  0  0  0  0  0  0  0  0  0  0  0
  -22.3595  -30.6064   21.0612 C   0  0  0  0  0  0  0  0  0  0  0  0
  -20.5709  -27.3625   23.7124 C   0  0  0  0  0  0  0  0  0  0  0  0
  -24.2617   -8.7797   20.2148 C   0  0  0  0  0  0  0  0  0  0  0  0
  -23.0643   -8.1365   19.9019 C   0  0  0  0  0  0  0  0  0  0  0  0
  -20.5828  -27.1699   21.3041 C   0  0  0  0  0  0  0  0  0  0  0  0
  -23.0807  -29.3924   19.1053 C   0  0  0  0  0  0  0  0  0  0  0  0
  -21.9148   -9.4725   21.5545 C   0  0  0  0  0  0  0  0  0  0  0  0
  -25.6498  -14.5214   20.9825 C   0  0  0  0  0  0  0  0  0  0  0  0
  -19.3218  -27.7638   21.2504 C   0  0  0  0  0  0  0  0  0  0  0  0
  -26.7474  -16.6870   20.1996 C   0  0  0  0  0  0  0  0  0  0  0  0
  -29.5393  -33.5308   22.5919 C   0  0  0  0  0  0  0  0  0  0  0  0
  -24.5052  -29.4703   21.0610 C   0  0  0  0  0  0  0  0  0  0  0  0
  -28.4966  -33.1274   21.7361 C   0  0  0  0  0  0  0  0  0  0  0  0
  -24.2708  -29.0256   19.7520 C   0  0  0  0  0  0  0  0  0  0  0  0
  -18.6854  -28.1570   22.4277 C   0  0  0  0  0  0  0  0  0  0  0  0
  -25.5325  -11.7565   21.3350 C   0  0  0  0  0  0  0  0  0  0  0  0
  -21.2074  -26.9693   22.5351 C   0  0  0  0  0  0  0  0  0  0  0  0
  -22.1313  -30.1799   19.7561 C   0  0  0  0  0  0  0  0  0  0  0  0
  -24.2858   -9.7693   21.1976 C   0  0  0  0  0  0  0  0  0  0  0  0
  -21.8908   -8.4829   20.5717 C   0  0  0  0  0  0  0  0  0  0  0  0
  -23.1123  -10.1157   21.8674 C   0  0  0  0  0  0  0  0  0  0  0  0
  -25.7096  -15.9494   20.8002 C   0  0  0  0  0  0  0  0  0  0  0  0
  -26.3270  -17.9926   20.2716 C   0  0  0  0  0  0  0  0  0  0  0  0
  -23.3263  -23.2096   23.6158 C   0  0  0  0  0  0  0  0  0  0  0  0
  -18.6762  -27.9669   19.9182 C   0  0  0  0  0  0  0  0  0  0  0  0
  -27.9812  -16.2326   19.6277 C   0  0  0  0  0  0  0  0  0  0  0  0
  -23.6605  -24.4902   23.4040 C   0  0  0  0  0  0  0  0  0  0  0  0
  -24.2374  -22.1061   23.2512 C   0  0  0  0  0  0  0  0  0  0  0  0
  -27.5342  -29.9068   20.2017 C   0  0  0  0  0  0  0  0  0  0  0  0
  -27.3414  -26.7777   19.3688 C   0  0  0  0  0  0  0  0  0  0  0  0
  -24.9378  -24.6260   17.7533 C   0  0  0  0  0  0  0  0  0  0  0  0
  -30.9339  -32.9717   22.4614 C   0  0  0  0  0  0  0  0  0  0  0  0
  -25.7608  -29.0723   21.7874 C   0  0  0  0  0  0  0  0  0  0  0  0
  -25.2671  -28.1695   19.0150 C   0  0  0  0  0  0  0  0  0  0  0  0
  -30.9969  -31.6721   21.6630 C   0  0  0  0  0  0  0  0  0  0  0  0
  -21.8460  -19.9601   21.4882 C   0  0  0  0  0  0  0  0  0  0  0  0
  -30.1786  -31.7928   20.3813 C   0  0  0  0  0  0  0  0  0  0  0  0
  -22.7251  -18.7602   21.1459 C   0  0  0  0  0  0  0  0  0  0  0  0
  -22.2302  -20.5868   22.8277 C   0  0  0  0  0  0  0  0  0  0  0  0
  -24.5516  -19.7563   22.5785 C   0  0  0  0  0  0  0  0  0  0  0  0
  -28.6993  -32.0496   20.6933 C   0  0  1  0  0  0  0  0  0  0  0  0
  -26.9043  -28.7049   20.8468 C   0  0  1  0  0  0  0  0  0  0  0  0
  -24.2131  -19.1390   21.2125 C   0  0  1  0  0  0  0  0  0  0  0  0
  -17.3349  -28.7952   22.3991 C   0  0  0  0  0  0  0  0  0  0  0  0
  -24.5642  -22.1530   17.9593 C   0  0  0  0  0  0  0  0  0  0  0  0
  -29.1801  -26.5906   16.9410 C   0  0  0  0  0  0  0  0  0  0  0  0
  -27.7259  -24.7486   16.0688 C   0  0  0  0  0  0  0  0  0  0  0  0
  -28.9361  -24.4622   18.2313 C   0  0  0  0  0  0  0  0  0  0  0  0
  -22.0887  -24.9982   18.4628 C   0  0  0  0  0  0  0  0  0  0  0  0
  -18.3052  -29.3643   19.4393 C   0  0  0  0  0  0  0  0  0  0  0  0
  -22.7462  -25.6271   23.7542 C   0  0  0  0  0  0  0  0  0  0  0  0
  -18.9607  -29.7191   18.1068 C   0  0  0  0  0  0  0  0  0  0  0  0
  -20.4805  -29.6151   18.1400 C   0  0  0  0  0  0  0  0  0  1  0  0
  -26.9528  -26.0262   18.1185 C   0  0  1  0  0  0  0  0  0  0  0  0
  -24.1114  -23.5338   18.4081 C   0  0  2  0  0  0  0  0  0  0  0  0
  -28.1877  -25.4824   17.3460 C   0  0  0  0  0  0  0  0  0  0  0  0
  -24.7055  -16.7222   21.2227 N   0  0  0  0  0  0  0  0  0  0  0  0
  -18.4277  -26.9497   19.1540 N   0  0  0  0  0  0  0  0  0  0  0  0
  -25.1104  -17.9590   20.8872 N   0  0  0  0  0  0  0  0  0  0  0  0
  -23.6688  -20.8863   22.8890 N   0  0  0  0  0  0  0  0  0  0  0  0
  -26.4821  -27.8121   19.7656 N   0  0  0  0  0  0  0  0  0  0  0  0
  -26.8830  -19.1545   19.8678 N   0  0  0  0  0  0  0  0  0  0  0  0
  -28.2555  -14.8582   19.6365 N   0  0  0  0  0  0  0  0  0  0  0  0
  -28.0482  -30.8227   21.0997 N   0  0  0  0  0  0  0  0  0  0  0  0
  -26.0094  -24.9956   18.5384 N   0  0  0  0  0  0  0  0  0  0  0  0
  -22.6717  -23.6931   18.0578 N   0  3  0  0  0  0  0  0  0  0  0  0
  -28.8231  -17.0235   19.1387 O   0  0  0  0  0  0  0  0  0  0  0  0
  -25.4483  -22.3307   23.2943 O   0  0  0  0  0  0  0  0  0  0  0  0
  -27.5539  -29.9960   18.9797 O   0  0  0  0  0  0  0  0  0  0  0  0
  -28.3658  -26.4541   19.9751 O   0  0  0  0  0  0  0  0  0  0  0  0
  -24.6625  -25.1009   16.6537 O   0  0  0  0  0  0  0  0  0  0  0  0
  -24.8629  -24.8412   22.8204 O   0  0  0  0  0  0  0  0  0  0  0  0
  -25.4753  -10.4075   21.5065 O   0  0  0  0  0  0  0  0  0  0  0  0
  -22.4374  -26.3889   22.5880 O   0  0  0  0  0  0  0  0  0  0  0  0
  -20.9809  -30.5267   19.1173 O   0  0  0  0  0  0  0  0  0  1  0  0
  -20.7406   -7.8662   20.2700 F   0  0  0  0  0  0  0  0  0  0  0  0
  -23.1290  -11.0664   22.8117 F   0  0  0  0  0  0  0  0  0  0  0  0
  1  2  1  0  0  0  0
  1  5  2  0  0  0  0
  2  6  2  0  0  0  0
  3  9  2  0  0  0  0
  3 18  1  0  0  0  0
  4 10  1  0  0  0  0
  4 18  2  0  0  0  0
  5 21  1  0  0  0  0
  6 23  1  0  0  0  0
  7 11  2  0  0  0  0
  7 22  1  0  0  0  0
  8 12  2  0  0  0  0
  8 25  1  0  0  0  0
  9 26  1  0  0  0  0
 10 26  2  0  0  0  0
 11 28  1  0  0  0  0
 12 27  1  0  0  0  0
 13 14  2  0  0  0  0
 13 29  1  0  0  0  0
 14 30  1  0  0  0  0
 15 19  1  0  0  0  0
 15 27  2  0  0  0  0
 16 24  1  0  0  0  0
 16 28  2  0  0  0  0
 17 30  2  0  0  0  0
 17 31  1  0  0  0  0
 18 32  1  0  0  0  0
 19 25  2  0  0  0  0
 19 35  1  0  0  0  0
 20 32  1  0  0  0  0
 20 33  2  0  0  0  0
 20 36  1  0  0  0  0
 21 23  2  0  0  0  0
 21 42  1  0  0  0  0
 22 24  2  0  0  0  0
 22 43  1  0  0  0  0
 23 51  1  0  0  0  0
 24 44  1  0  0  0  0
 25 54  1  0  0  0  0
 26 83  1  0  0  0  0
 27 84  1  0  0  0  0
 28 85  1  0  0  0  0
 29 31  2  0  0  0  0
 29 83  1  0  0  0  0
 30 86  1  0  0  0  0
 31 87  1  0  0  0  0
 32 67  2  0  0  0  0
 33 69  1  0  0  0  0
 33 72  1  0  0  0  0
 34 37  2  0  0  0  0
 34 38  1  0  0  0  0
 35 60  1  0  0  0  0
 35 68  2  0  0  0  0
 36 73  1  0  0  0  0
 36 77  2  0  0  0  0
 37 61  1  0  0  0  0
 37 82  1  0  0  0  0
 38 70  1  0  0  0  0
 38 78  2  0  0  0  0
 39 52  1  0  0  0  0
 39 74  1  0  0  0  0
 39 79  2  0  0  0  0
 40 64  1  0  0  0  0
 40 71  1  0  0  0  0
 40 80  2  0  0  0  0
 41 65  1  0  0  0  0
 41 75  1  0  0  0  0
 41 81  2  0  0  0  0
 42 45  1  0  0  0  0
 43 52  1  0  0  0  0
 44 71  1  0  0  0  0
 45 47  1  0  0  0  0
 46 48  1  0  0  0  0
 46 49  1  0  0  0  0
 47 51  1  0  0  0  0
 48 53  1  0  0  0  0
 49 70  1  0  0  0  0
 50 53  1  0  0  0  0
 50 70  1  0  0  0  0
 51 74  1  0  0  0  0
 52 71  1  0  0  0  0
 53 69  1  0  0  0  0
 55 65  1  0  0  0  0
 56 66  1  0  0  0  0
 57 66  1  0  0  0  0
 58 66  1  0  0  0  0
 59 76  1  0  0  0  0
 60 62  1  0  0  0  0
 61 84  1  0  0  0  0
 62 63  1  0  0  0  0
 63 85  1  0  0  0  0
 64 66  1  0  0  0  0
 64 75  1  0  0  0  0
 65 76  1  0  0  0  0
 67 69  1  0  0  0  0
M  CHG  1  76   1
M  ISO  4  34 100  38 100  63 101  85 101
M  END
> <Batch ID>
0128

> <Smiles>
CNC(C)C(=O)NC(C(=O)N1Cc2cc([101O:1][101CH2:1]CCC(=N)c3cc(OCC(=O)[100CH2:0][100C:0](=O)N4CCCC(n5nc(-c6ccc(Oc7ccc(F)cc7F)cc6)c(C(N)=O)c5N)C4)ccc3C)ccc2CC1C(=O)NC1CCCc2ccccc21)C(C)(C)C

> <Shape>
0.208

> <Color>
0.073

> <Negative vol penalty>
0.000

$$$$

  -OEChem-04052302163D

 85 93  0     1  0  0  0  0  0999 V2000
  -24.5340  -34.5643   26.8247 C   0  0  0  0  0  0  0  0  0  0  0  0
  -25.4214  -33.7925   26.0815 C   0  0  0  0  0  0  0  0  0  0  0  0
  -30.3444  -19.1718   22.4286 C   0  0  0  0  0  0  0  0  0  0  0  0
  -26.1117  -10.0672   18.5150 C   0  0  0  0  0  0  0  0  0  0  0  0
  -27.9612  -10.6923   19.9382 C   0  0  0  0  0  0  0  0  0  0  0  0
  -30.5174  -20.4076   21.8055 C   0  0  0  0  0  0  0  0  0  0  0  0
  -23.2447  -34.0960   27.0742 C   0  0  0  0  0  0  0  0  0  0  0  0
  -25.0203  -32.5514   25.5884 C   0  0  0  0  0  0  0  0  0  0  0  0
  -26.7053  -29.9740   20.2946 C   0  0  0  0  0  0  0  0  0  0  0  0
  -29.2017  -18.4145   22.1706 C   0  0  0  0  0  0  0  0  0  0  0  0
  -26.9181   -9.1209   17.8826 C   0  0  0  0  0  0  0  0  0  0  0  0
  -28.7677   -9.7461   19.3058 C   0  0  0  0  0  0  0  0  0  0  0  0
  -27.6679  -29.0149   19.9829 C   0  0  0  0  0  0  0  0  0  0  0  0
  -28.0682   -6.0052   18.5171 C   0  0  0  0  0  0  0  0  0  0  0  0
  -27.5286   -4.7384   18.2949 C   0  0  0  0  0  0  0  0  0  0  0  0
  -28.4050  -20.1290   20.6664 C   0  0  0  0  0  0  0  0  0  0  0  0
  -25.9764  -27.2973   20.0712 C   0  0  0  0  0  0  0  0  0  0  0  0
  -27.8465   -5.0201   15.9165 C   0  0  0  0  0  0  0  0  0  0  0  0
  -26.6333  -10.8529   19.5428 C   0  0  0  0  0  0  0  0  0  0  0  0
  -29.5477  -20.8863   20.9244 C   0  0  0  0  0  0  0  0  0  0  0  0
  -24.9927  -11.6366   21.3322 C   0  0  0  0  0  0  0  0  0  0  0  0
  -22.8244  -32.8529   26.5756 C   0  0  0  0  0  0  0  0  0  0  0  0
  -25.3708  -29.5999   20.5081 C   0  0  0  0  0  0  0  0  0  0  0  0
  -23.7245  -32.0655   25.8326 C   0  0  0  0  0  0  0  0  0  0  0  0
  -24.9983  -28.2539   20.3830 C   0  0  0  0  0  0  0  0  0  0  0  0
  -28.2321  -18.8931   21.2895 C   0  0  0  0  0  0  0  0  0  0  0  0
  -28.2460   -8.9603   18.2780 C   0  0  0  0  0  0  0  0  0  0  0  0
  -27.3041  -27.6759   19.8740 C   0  0  0  0  0  0  0  0  0  0  0  0
  -28.4969   -6.7797   17.4390 C   0  0  0  0  0  0  0  0  0  0  0  0
  -27.4178   -4.2458   16.9946 C   0  0  0  0  0  0  0  0  0  0  0  0
  -28.3861   -6.2871   16.1387 C   0  0  0  0  0  0  0  0  0  0  0  0
  -25.8009  -11.8310   20.1960 C   0  0  0  0  0  0  0  0  0  0  0  0
  -24.4103  -12.8608   21.5527 C   0  0  0  0  0  0  0  0  0  0  0  0
  -30.4147  -22.3193   18.9702 C   0  0  0  0  0  0  0  0  0  0  0  0
  -29.2679  -23.3265   20.8409 C   0  0  0  0  0  0  0  0  0  0  0  0
  -30.9376  -21.3101   18.2551 C   0  0  0  0  0  0  0  0  0  0  0  0
  -29.7327  -22.1972   20.2637 C   0  0  0  0  0  0  0  0  0  0  0  0
  -24.7868  -10.4552   22.1180 C   0  0  0  0  0  0  0  0  0  0  0  0
  -29.3645  -24.7305   20.3199 C   0  0  0  0  0  0  0  0  0  0  0  0
  -23.3608  -29.7638   22.9650 C   0  0  0  0  0  0  0  0  0  0  0  0
  -21.2187  -28.6821   20.7824 C   0  0  0  0  0  0  0  0  0  0  0  0
  -20.6515  -27.0105   17.8617 C   0  0  0  0  0  0  0  0  0  0  0  0
  -26.0140  -18.4509   20.1801 C   0  0  0  0  0  0  0  0  0  0  0  0
  -21.4363  -32.3678   26.9113 C   0  0  0  0  0  0  0  0  0  0  0  0
  -24.3394  -30.6502   20.8173 C   0  0  0  0  0  0  0  0  0  0  0  0
  -23.5751  -27.8031   20.5826 C   0  0  0  0  0  0  0  0  0  0  0  0
  -20.9679  -31.2085   26.0356 C   0  0  0  0  0  0  0  0  0  0  0  0
  -22.9992  -16.8081   19.2370 C   0  0  0  0  0  0  0  0  0  0  0  0
  -22.0604  -30.1501   25.9217 C   0  0  0  0  0  0  0  0  0  0  0  0
  -23.2999  -15.3282   19.4851 C   0  0  0  0  0  0  0  0  0  0  0  0
  -24.2229  -17.5547   18.7090 C   0  0  0  0  0  0  0  0  0  0  0  0
  -25.7388  -15.9270   19.7682 C   0  0  0  0  0  0  0  0  0  0  0  0
  -23.3185  -30.7250   25.2596 C   0  0  1  0  0  0  0  0  0  0  0  0
  -23.1072  -30.0888   21.5201 C   0  0  1  0  0  0  0  0  0  0  0  0
  -24.5543  -15.1473   20.3622 C   0  0  2  0  0  0  0  0  0  0  0  0
  -31.6218  -21.4994   16.9400 C   0  0  0  0  0  0  0  0  0  0  0  0
  -18.7938  -26.2541   16.3536 C   0  0  0  0  0  0  0  0  0  0  0  0
  -20.5484  -26.4378   22.7378 C   0  0  0  0  0  0  0  0  0  0  0  0
  -19.4408  -25.2196   20.8517 C   0  0  0  0  0  0  0  0  0  0  0  0
  -18.5699  -27.4401   21.5823 C   0  0  0  0  0  0  0  0  0  0  0  0
  -21.6801  -28.6150   15.5975 C   0  0  0  0  0  0  0  0  0  0  0  0
  -28.0364  -25.4233   20.0868 C   0  0  0  0  0  0  0  0  0  1  0  0
  -20.7577  -27.3208   20.3207 C   0  0  1  0  0  0  0  0  0  0  0  0
  -19.7997  -27.3546   16.6532 C   0  0  2  0  0  0  0  0  0  0  0  0
  -19.8565  -26.6125   21.3712 C   0  0  0  0  0  0  0  0  0  0  0  0
  -25.7399  -13.0802   19.7274 N   0  0  0  0  0  0  0  0  0  0  0  0
  -24.8863  -13.6819   20.5732 N   0  0  0  0  0  0  0  0  0  0  0  0
  -22.6045  -28.8667   20.8894 N   0  0  0  0  0  0  0  0  0  0  0  0
  -25.3710  -17.3408   19.5927 N   0  0  0  0  0  0  0  0  0  0  0  0
  -23.5425  -13.3043   22.4869 N   0  0  0  0  0  0  0  0  0  0  0  0
  -25.4632   -9.2834   21.7524 N   0  0  0  0  0  0  0  0  0  0  0  0
  -27.0721  -18.1229   21.0271 N   0  0  0  0  0  0  0  0  0  0  0  0
  -23.1370  -30.8204   23.8270 N   0  0  0  0  0  0  0  0  0  0  0  0
  -20.1185  -27.5240   19.0251 N   0  0  0  0  0  0  0  0  0  0  0  0
  -20.6594  -27.5455   15.4509 N   0  3  0  0  0  0  0  0  0  0  0  0
  -24.0129  -10.4349   23.1050 O   0  0  0  0  0  0  0  0  0  0  0  0
  -30.4335  -25.2878   20.0925 O   0  0  0  0  0  0  0  0  0  0  0  0
  -23.7306  -28.6374   23.2750 O   0  0  0  0  0  0  0  0  0  0  0  0
  -20.3804  -29.5520   21.0319 O   0  0  0  0  0  0  0  0  0  0  0  0
  -21.6842  -26.3489   17.7821 O   0  0  0  0  0  0  0  0  0  0  0  0
  -25.6353  -19.6061   19.9701 O   0  0  0  0  0  0  0  0  0  0  0  0
  -29.0331   -8.0369   17.6613 O   0  0  0  0  0  0  0  0  0  0  0  0
  -28.2419  -26.7376   19.5704 O   0  0  0  0  0  0  0  0  0  1  0  0
  -26.9010   -3.0285   16.7815 F   0  0  0  0  0  0  0  0  0  0  0  0
  -28.7973   -7.0259   15.0991 F   0  0  0  0  0  0  0  0  0  0  0  0
  1  2  1  0  0  0  0
  1  7  2  0  0  0  0
  2  8  2  0  0  0  0
  3  6  2  0  0  0  0
  3 10  1  0  0  0  0
  4 11  2  0  0  0  0
  4 19  1  0  0  0  0
  5 12  1  0  0  0  0
  5 19  2  0  0  0  0
  6 20  1  0  0  0  0
  7 22  1  0  0  0  0
  8 24  1  0  0  0  0
  9 13  2  0  0  0  0
  9 23  1  0  0  0  0
 10 26  2  0  0  0  0
 11 27  1  0  0  0  0
 12 27  2  0  0  0  0
 13 28  1  0  0  0  0
 14 15  2  0  0  0  0
 14 29  1  0  0  0  0
 15 30  1  0  0  0  0
 16 20  2  0  0  0  0
 16 26  1  0  0  0  0
 17 25  1  0  0  0  0
 17 28  2  0  0  0  0
 18 30  2  0  0  0  0
 18 31  1  0  0  0  0
 19 32  1  0  0  0  0
 20 37  1  0  0  0  0
 21 32  1  0  0  0  0
 21 33  2  0  0  0  0
 21 38  1  0  0  0  0
 22 24  2  0  0  0  0
 22 44  1  0  0  0  0
 23 25  2  0  0  0  0
 23 45  1  0  0  0  0
 24 53  1  0  0  0  0
 25 46  1  0  0  0  0
 26 72  1  0  0  0  0
 27 82  1  0  0  0  0
 28 83  1  0  0  0  0
 29 31  2  0  0  0  0
 29 82  1  0  0  0  0
 30 84  1  0  0  0  0
 31 85  1  0  0  0  0
 32 66  2  0  0  0  0
 33 67  1  0  0  0  0
 33 70  1  0  0  0  0
 34 36  2  0  0  0  0
 34 37  1  0  0  0  0
 35 37  2  0  0  0  0
 35 39  1  0  0  0  0
 36 56  1  0  0  0  0
 38 71  1  0  0  0  0
 38 76  2  0  0  0  0
 39 62  1  0  0  0  0
 39 77  2  0  0  0  0
 40 54  1  0  0  0  0
 40 73  1  0  0  0  0
 40 78  2  0  0  0  0
 41 63  1  0  0  0  0
 41 68  1  0  0  0  0
 41 79  2  0  0  0  0
 42 64  1  0  0  0  0
 42 74  1  0  0  0  0
 42 80  2  0  0  0  0
 43 69  1  0  0  0  0
 43 72  1  0  0  0  0
 43 81  2  0  0  0  0
 44 47  1  0  0  0  0
 45 54  1  0  0  0  0
 46 68  1  0  0  0  0
 47 49  1  0  0  0  0
 48 50  1  0  0  0  0
 48 51  1  0  0  0  0
 49 53  1  0  0  0  0
 50 55  1  0  0  0  0
 51 69  1  0  0  0  0
 52 55  1  0  0  0  0
 52 69  1  0  0  0  0
 53 73  1  0  0  0  0
 54 68  1  0  0  0  0
 55 67  1  0  0  0  0
 57 64  1  0  0  0  0
 58 65  1  0  0  0  0
 59 65  1  0  0  0  0
 60 65  1  0  0  0  0
 61 75  1  0  0  0  0
 62 83  1  0  0  0  0
 63 65  1  0  0  0  0
 63 74  1  0  0  0  0
 64 75  1  0  0  0  0
 66 67  1  0  0  0  0
M  CHG  1  75   1
M  ISO  4  43 100  62 101  72 100  83 101
M  END
> <Batch ID>
0128

> <Smiles>
CC=CC(=CC(=O)[101CH2:1][101O:1]c1ccc2c(c1)CN(C(=O)C(NC(=O)C(C)NC)C(C)(C)C)C(C(=O)NC1CCCc3ccccc31)C2)c1cccc([100NH:0][100C:0](=O)N2CCCC(n3nc(-c4ccc(Oc5ccc(F)cc5F)cc4)c(C(N)=O)c3N)C2)c1

> <Shape>
0.227

> <Color>
0.086

> <Negative vol penalty>
0.000

$$$$

  -OEChem-04052302163D

 86 94  0     1  0  0  0  0  0999 V2000
  -28.7884  -33.2693   23.4081 C   0  0  0  0  0  0  0  0  0  0  0  0
  -28.7501  -31.9650   22.9257 C   0  0  0  0  0  0  0  0  0  0  0  0
  -23.8002   -9.3981   21.9828 C   0  0  0  0  0  0  0  0  0  0  0  0
  -23.3565  -11.5794   22.9219 C   0  0  0  0  0  0  0  0  0  0  0  0
  -27.7138  -33.7723   24.1403 C   0  0  0  0  0  0  0  0  0  0  0  0
  -27.6376  -31.1625   23.1762 C   0  0  0  0  0  0  0  0  0  0  0  0
  -26.1125  -28.6197   19.0709 C   0  0  0  0  0  0  0  0  0  0  0  0
  -23.1486   -8.8009   23.0618 C   0  0  0  0  0  0  0  0  0  0  0  0
  -22.7048  -10.9823   24.0009 C   0  0  0  0  0  0  0  0  0  0  0  0
  -26.8419  -27.4854   18.7171 C   0  0  0  0  0  0  0  0  0  0  0  0
  -19.9633   -8.2277   24.0409 C   0  0  0  0  0  0  0  0  0  0  0  0
  -19.0640   -7.1977   23.7657 C   0  0  0  0  0  0  0  0  0  0  0  0
  -25.1644  -26.0922   19.7488 C   0  0  0  0  0  0  0  0  0  0  0  0
  -30.3772  -17.6824   20.0245 C   0  0  0  0  0  0  0  0  0  0  0  0
  -28.5126  -19.3038   21.3194 C   0  0  0  0  0  0  0  0  0  0  0  0
  -20.3841   -5.6858   25.1106 C   0  0  0  0  0  0  0  0  0  0  0  0
  -23.9042  -10.7873   21.9128 C   0  0  0  0  0  0  0  0  0  0  0  0
  -24.0049  -11.8133   19.5794 C   0  0  0  0  0  0  0  0  0  0  0  0
  -26.5834  -32.9788   24.3917 C   0  0  0  0  0  0  0  0  0  0  0  0
  -24.9070  -28.4990   19.7771 C   0  0  0  0  0  0  0  0  0  0  0  0
  -26.5474  -31.6550   23.9136 C   0  0  0  0  0  0  0  0  0  0  0  0
  -24.4203  -27.2264   20.1081 C   0  0  0  0  0  0  0  0  0  0  0  0
  -30.4032  -19.0640   19.8345 C   0  0  0  0  0  0  0  0  0  0  0  0
  -28.4866  -17.9222   21.5094 C   0  0  0  0  0  0  0  0  0  0  0  0
  -29.4189  -17.1115   20.8620 C   0  0  0  0  0  0  0  0  0  0  0  0
  -22.6008   -9.5930   24.0709 C   0  0  0  0  0  0  0  0  0  0  0  0
  -26.3694  -26.2216   19.0586 C   0  0  0  0  0  0  0  0  0  0  0  0
  -21.0731   -7.9868   24.8509 C   0  0  0  0  0  0  0  0  0  0  0  0
  -29.4710  -19.8747   20.4820 C   0  0  0  0  0  0  0  0  0  0  0  0
  -19.2743   -5.9267   24.3006 C   0  0  0  0  0  0  0  0  0  0  0  0
  -21.2834   -6.7159   25.3858 C   0  0  0  0  0  0  0  0  0  0  0  0
  -24.5777  -11.4047   20.7987 C   0  0  0  0  0  0  0  0  0  0  0  0
  -25.0550  -12.3356   18.8646 C   0  0  0  0  0  0  0  0  0  0  0  0
  -22.6451  -11.7284   19.1329 C   0  0  0  0  0  0  0  0  0  0  0  0
  -23.8678  -29.4630   22.6222 C   0  0  0  0  0  0  0  0  0  0  0  0
  -28.2425  -23.1577   19.5435 C   0  0  0  0  0  0  0  0  0  0  0  0
  -21.0412  -28.2811   21.5564 C   0  0  0  0  0  0  0  0  0  0  0  0
  -19.3995  -26.1434   19.4631 C   0  0  0  0  0  0  0  0  0  0  0  0
  -30.2703  -14.7741   20.4644 C   0  0  0  0  0  0  0  0  0  0  0  0
  -25.4665  -33.5508   25.2283 C   0  0  0  0  0  0  0  0  0  0  0  0
  -24.1186  -29.7310   20.1279 C   0  0  0  0  0  0  0  0  0  0  0  0
  -23.1216  -27.0418   20.8481 C   0  0  0  0  0  0  0  0  0  0  0  0
  -24.1650  -32.7592   25.1299 C   0  0  0  0  0  0  0  0  0  0  0  0
  -29.8007  -11.9443   18.3552 C   0  0  0  0  0  0  0  0  0  0  0  0
  -24.4371  -31.2648   25.2701 C   0  0  0  0  0  0  0  0  0  0  0  0
  -28.3540  -11.5257   18.6269 C   0  0  0  0  0  0  0  0  0  0  0  0
  -30.4928  -12.4473   19.6207 C   0  0  0  0  0  0  0  0  0  0  0  0
  -28.3308  -13.0912   20.6108 C   0  0  0  0  0  0  0  0  0  0  0  0
  -25.3476  -30.7618   24.1434 C   0  0  1  0  0  0  0  0  0  0  0  0
  -23.1621  -29.5156   21.2967 C   0  0  1  0  0  0  0  0  0  0  0  0
  -27.5722  -12.6383   19.3525 C   0  0  2  0  0  0  0  0  0  0  0  0
  -31.4353  -19.6572   18.9332 C   0  0  0  0  0  0  0  0  0  0  0  0
  -25.2661  -16.0614   22.5444 C   0  0  0  0  0  0  0  0  0  0  0  0
  -17.0916  -25.3738   18.8475 C   0  0  0  0  0  0  0  0  0  0  0  0
  -20.9186  -26.6144   24.1092 C   0  0  0  0  0  0  0  0  0  0  0  0
  -19.1533  -25.2093   23.0241 C   0  0  0  0  0  0  0  0  0  0  0  0
  -18.7411  -27.6366   23.4252 C   0  0  0  0  0  0  0  0  0  0  0  0
  -19.7082  -27.0745   16.6709 C   0  0  0  0  0  0  0  0  0  0  0  0
  -27.4490  -17.3374   22.4120 C   0  0  0  0  0  0  0  0  0  0  0  0
  -26.9698  -23.9790   19.5744 C   0  0  0  0  0  0  0  0  0  1  0  0
  -28.2453  -21.9113   20.4044 C   0  0  0  0  0  0  0  0  0  0  0  0
  -26.3039  -16.6851   21.6247 C   0  0  0  0  0  0  0  0  0  0  0  0
  -20.3561  -26.9370   21.6101 C   0  0  1  0  0  0  0  0  0  0  0  0
  -18.2143  -26.3517   18.5377 C   0  0  2  0  0  0  0  0  0  0  0  0
  -19.8178  -26.6025   23.0299 C   0  0  0  0  0  0  0  0  0  0  0  0
  -25.8900  -11.6464   20.8585 N   0  0  0  0  0  0  0  0  0  0  0  0
  -26.1504  -12.2125   19.6678 N   0  0  0  0  0  0  0  0  0  0  0  0
  -22.3903  -28.2772   21.1745 N   0  0  0  0  0  0  0  0  0  0  0  0
  -29.6970  -13.5025   20.2517 N   0  0  0  0  0  0  0  0  0  0  0  0
  -25.1390  -12.8834   17.6336 N   0  0  0  0  0  0  0  0  0  0  0  0
  -21.6934  -11.1637   19.9930 N   0  0  0  0  0  0  0  0  0  0  0  0
  -29.4083  -15.7060   21.0416 N   0  0  0  0  0  0  0  0  0  0  0  0
  -24.5940  -30.6007   22.9184 N   0  0  0  0  0  0  0  0  0  0  0  0
  -19.3309  -26.9596   20.5724 N   0  0  0  0  0  0  0  0  0  0  0  0
  -18.6258  -26.1605   17.1181 N   0  3  0  0  0  0  0  0  0  0  0  0
  -22.2876  -12.1262   17.9981 O   0  0  0  0  0  0  0  0  0  0  0  0
  -23.7602  -28.4648   23.3248 O   0  0  0  0  0  0  0  0  0  0  0  0
  -29.2134  -23.4833   18.8619 O   0  0  0  0  0  0  0  0  0  0  0  0
  -20.4010  -29.2978   21.8358 O   0  0  0  0  0  0  0  0  0  0  0  0
  -20.2945  -25.3347   19.2276 O   0  0  0  0  0  0  0  0  0  0  0  0
  -31.4313  -15.0263   20.1321 O   0  0  0  0  0  0  0  0  0  0  0  0
  -21.9646   -9.0107   25.1239 O   0  0  0  0  0  0  0  0  0  0  0  0
  -27.0797  -25.1129   18.7150 O   0  0  0  0  0  0  0  0  0  1  0  0
  -29.4825  -21.2380   20.3051 O   0  0  0  0  0  0  0  0  0  0  0  0
  -18.4097   -4.9380   24.0375 F   0  0  0  0  0  0  0  0  0  0  0  0
  -22.3471   -6.4787   26.1656 F   0  0  0  0  0  0  0  0  0  0  0  0
  1  2  1  0  0  0  0
  1  5  2  0  0  0  0
  2  6  2  0  0  0  0
  3  8  2  0  0  0  0
  3 17  1  0  0  0  0
  4  9  1  0  0  0  0
  4 17  2  0  0  0  0
  5 19  1  0  0  0  0
  6 21  1  0  0  0  0
  7 10  2  0  0  0  0
  7 20  1  0  0  0  0
  8 26  1  0  0  0  0
  9 26  2  0  0  0  0
 10 27  1  0  0  0  0
 11 12  2  0  0  0  0
 11 28  1  0  0  0  0
 12 30  1  0  0  0  0
 13 22  1  0  0  0  0
 13 27  2  0  0  0  0
 14 23  2  0  0  0  0
 14 25  1  0  0  0  0
 15 24  1  0  0  0  0
 15 29  2  0  0  0  0
 16 30  2  0  0  0  0
 16 31  1  0  0  0  0
 17 32  1  0  0  0  0
 18 32  1  0  0  0  0
 18 33  2  0  0  0  0
 18 34  1  0  0  0  0
 19 21  2  0  0  0  0
 19 40  1  0  0  0  0
 20 22  2  0  0  0  0
 20 41  1  0  0  0  0
 21 49  1  0  0  0  0
 22 42  1  0  0  0  0
 23 29  1  0  0  0  0
 23 52  1  0  0  0  0
 24 25  2  0  0  0  0
 24 59  1  0  0  0  0
 25 72  1  0  0  0  0
 26 82  1  0  0  0  0
 27 83  1  0  0  0  0
 28 31  2  0  0  0  0
 28 82  1  0  0  0  0
 29 84  1  0  0  0  0
 30 85  1  0  0  0  0
 31 86  1  0  0  0  0
 32 66  2  0  0  0  0
 33 67  1  0  0  0  0
 33 70  1  0  0  0  0
 34 71  1  0  0  0  0
 34 76  2  0  0  0  0
 35 50  1  0  0  0  0
 35 73  1  0  0  0  0
 35 77  2  0  0  0  0
 36 60  1  0  0  0  0
 36 61  1  0  0  0  0
 36 78  2  0  0  0  0
 37 63  1  0  0  0  0
 37 68  1  0  0  0  0
 37 79  2  0  0  0  0
 38 64  1  0  0  0  0
 38 74  1  0  0  0  0
 38 80  2  0  0  0  0
 39 69  1  0  0  0  0
 39 72  1  0  0  0  0
 39 81  2  0  0  0  0
 40 43  1  0  0  0  0
 41 50  1  0  0  0  0
 42 68  1  0  0  0  0
 43 45  1  0  0  0  0
 44 46  1  0  0  0  0
 44 47  1  0  0  0  0
 45 49  1  0  0  0  0
 46 51  1  0  0  0  0
 47 69  1  0  0  0  0
 48 51  1  0  0  0  0
 48 69  1  0  0  0  0
 49 73  1  0  0  0  0
 50 68  1  0  0  0  0
 51 67  1  0  0  0  0
 53 62  1  0  0  0  0
 54 64  1  0  0  0  0
 55 65  1  0  0  0  0
 56 65  1  0  0  0  0
 57 65  1  0  0  0  0
 58 75  1  0  0  0  0
 59 62  1  0  0  0  0
 60 83  1  0  0  0  0
 61 84  1  0  0  0  0
 63 65  1  0  0  0  0
 63 74  1  0  0  0  0
 64 75  1  0  0  0  0
 66 67  1  0  0  0  0
M  CHG  1  75   1
M  ISO  4  39 100  60 101  72 100  83 101
M  END
> <Batch ID>
0128

> <Smiles>
CCCc1cc(OCC(=O)[101CH2:1][101O:1]c2ccc3c(c2)CN(C(=O)C(NC(=O)C(C)NC)C(C)(C)C)C(C(=O)NC2CCCc4ccccc42)C3)c(C)cc1[100NH:0][100C:0](=O)N1CCCC(n2nc(-c3ccc(Oc4ccc(F)cc4F)cc3)c(C(N)=O)c2N)C1

> <Shape>
0.329

> <Color>
0.101

> <Negative vol penalty>
0.000

$$$$

  -OEChem-04052302163D

 83 91  0     1  0  0  0  0  0999 V2000
  -26.3599  -18.6805   24.0864 C   0  0  0  0  0  0  0  0  0  0  0  0
  -26.7696  -19.9828   23.8236 C   0  0  0  0  0  0  0  0  0  0  0  0
  -26.3903  -11.7402   20.7177 C   0  0  0  0  0  0  0  0  0  0  0  0
  -24.9971  -13.6318   20.1539 C   0  0  0  0  0  0  0  0  0  0  0  0
  -30.5117  -22.7454   18.8339 C   0  0  0  0  0  0  0  0  0  0  0  0
  -25.0423  -18.3041   23.8343 C   0  0  0  0  0  0  0  0  0  0  0  0
  -25.8589  -20.9123   23.3200 C   0  0  0  0  0  0  0  0  0  0  0  0
  -27.3896  -25.5744   22.9648 C   0  0  0  0  0  0  0  0  0  0  0  0
  -30.6334  -21.5565   19.5531 C   0  0  0  0  0  0  0  0  0  0  0  0
  -25.3052  -11.1279   21.3447 C   0  0  0  0  0  0  0  0  0  0  0  0
  -23.9119  -13.0194   20.7809 C   0  0  0  0  0  0  0  0  0  0  0  0
  -28.3144  -25.9933   22.0094 C   0  0  0  0  0  0  0  0  0  0  0  0
  -21.6732  -10.5896   20.0706 C   0  0  0  0  0  0  0  0  0  0  0  0
  -20.4484  -10.6040   19.4033 C   0  0  0  0  0  0  0  0  0  0  0  0
  -28.1277  -22.3948   18.6579 C   0  0  0  0  0  0  0  0  0  0  0  0
  -26.5278  -26.9732   20.7183 C   0  0  0  0  0  0  0  0  0  0  0  0
  -19.4573  -11.8083   21.2484 C   0  0  0  0  0  0  0  0  0  0  0  0
  -26.2362  -12.9922   20.1224 C   0  0  0  0  0  0  0  0  0  0  0  0
  -29.2588  -23.1646   18.3863 C   0  0  0  0  0  0  0  0  0  0  0  0
  -27.7386  -13.5047   18.1254 C   0  0  0  0  0  0  0  0  0  0  0  0
  -24.1189  -19.2268   23.3156 C   0  0  0  0  0  0  0  0  0  0  0  0
  -26.0233  -25.8426   22.7984 C   0  0  0  0  0  0  0  0  0  0  0  0
  -24.5187  -20.5582   23.0814 C   0  0  0  0  0  0  0  0  0  0  0  0
  -25.5879  -26.5588   21.6743 C   0  0  0  0  0  0  0  0  0  0  0  0
  -28.2494  -21.2059   19.3771 C   0  0  0  0  0  0  0  0  0  0  0  0
  -29.5023  -20.7868   19.8247 C   0  0  0  0  0  0  0  0  0  0  0  0
  -24.0660  -11.7674   21.3763 C   0  0  0  0  0  0  0  0  0  0  0  0
  -27.8833  -26.6903   20.8844 C   0  0  0  0  0  0  0  0  0  0  0  0
  -21.7900  -11.1845   21.3269 C   0  0  0  0  0  0  0  0  0  0  0  0
  -19.3405  -11.2134   19.9922 C   0  0  0  0  0  0  0  0  0  0  0  0
  -20.6821  -11.7939   21.9157 C   0  0  0  0  0  0  0  0  0  0  0  0
  -27.3569  -13.6256   19.4750 C   0  0  0  0  0  0  0  0  0  0  0  0
  -28.8561  -14.2952   18.0125 C   0  0  0  0  0  0  0  0  0  0  0  0
  -29.1291  -24.4364   17.6156 C   0  0  0  0  0  0  0  0  0  0  0  0
  -27.1368  -12.7458   17.0683 C   0  0  0  0  0  0  0  0  0  0  0  0
  -23.4101  -24.0612   22.4792 C   0  0  0  0  0  0  0  0  0  0  0  0
  -21.9063  -26.9308   22.6417 C   0  0  0  0  0  0  0  0  0  0  0  0
  -22.0664  -30.3136   22.2204 C   0  0  0  0  0  0  0  0  0  0  0  0
  -30.8260  -19.0390   21.0655 C   0  0  0  0  0  0  0  0  0  0  0  0
  -22.7034  -18.7679   23.0688 C   0  0  0  0  0  0  0  0  0  0  0  0
  -25.0414  -25.4073   23.8514 C   0  0  0  0  0  0  0  0  0  0  0  0
  -24.1345  -26.8898   21.4589 C   0  0  0  0  0  0  0  0  0  0  0  0
  -21.9355  -19.6892   22.1266 C   0  0  0  0  0  0  0  0  0  0  0  0
  -32.5420  -15.9575   20.5787 C   0  0  0  0  0  0  0  0  0  0  0  0
  -22.0868  -21.1349   22.5756 C   0  0  0  0  0  0  0  0  0  0  0  0
  -31.4429  -15.0004   20.1118 C   0  0  0  0  0  0  0  0  0  0  0  0
  -32.0295  -16.9397   21.6306 C   0  0  0  0  0  0  0  0  0  0  0  0
  -29.7269  -16.7313   20.7799 C   0  0  0  0  0  0  0  0  0  0  0  0
  -23.5536  -21.5782   22.5047 C   0  0  1  0  0  0  0  0  0  0  0  0
  -23.6148  -25.2863   23.3247 C   0  0  1  0  0  0  0  0  0  0  0  0
  -30.1788  -15.7651   19.6726 C   0  0  2  0  0  0  0  0  0  0  0  0
  -27.0212  -20.4009   19.6535 C   0  0  0  0  0  0  0  0  0  0  0  0
  -20.6666  -32.3890   22.3955 C   0  0  0  0  0  0  0  0  0  0  0  0
  -20.5072  -26.2047   20.0293 C   0  0  0  0  0  0  0  0  0  0  0  0
  -19.8918  -28.6175   19.7693 C   0  0  0  0  0  0  0  0  0  0  0  0
  -19.0423  -27.3190   21.7224 C   0  0  0  0  0  0  0  0  0  0  0  0
  -23.8411  -31.4763   24.2838 C   0  0  0  0  0  0  0  0  0  0  0  0
  -30.1150  -25.5616   17.8917 C   0  0  0  0  0  0  0  0  0  0  0  0
  -29.4971  -26.9397   17.6647 C   0  0  0  0  0  0  0  0  0  0  0  0
  -28.3248  -27.1916   18.6020 C   0  0  0  0  0  0  0  0  0  1  0  0
  -21.4827  -27.9743   21.6364 C   0  0  1  0  0  0  0  0  0  0  0  0
  -21.6340  -31.4617   23.1145 C   0  0  2  0  0  0  0  0  0  0  0  0
  -20.2582  -27.5211   20.7921 C   0  0  0  0  0  0  0  0  0  0  0  0
  -28.1663  -14.4295   20.1698 N   0  0  0  0  0  0  0  0  0  0  0  0
  -29.0678  -14.8208   19.2532 N   0  0  0  0  0  0  0  0  0  0  0  0
  -23.2123  -26.4371   22.5135 N   0  0  0  0  0  0  0  0  0  0  0  0
  -30.8335  -17.6303   21.1433 N   0  0  0  0  0  0  0  0  0  0  0  0
  -29.6686  -14.5850   16.9741 N   0  0  0  0  0  0  0  0  0  0  0  0
  -25.9933  -11.9886   17.3567 N   0  0  0  0  0  0  0  0  0  0  0  0
  -29.6467  -19.5822   20.5568 N   0  0  0  0  0  0  0  0  0  0  0  0
  -23.6858  -22.8748   23.1317 N   0  0  0  0  0  0  0  0  0  0  0  0
  -21.2660  -29.2039   22.3910 N   0  0  0  0  0  0  0  0  0  0  0  0
  -22.8181  -32.2586   23.5433 N   0  3  0  0  0  0  0  0  0  0  0  0
  -28.2339  -24.5432   16.7804 O   0  0  0  0  0  0  0  0  0  0  0  0
  -27.6090  -12.7264   15.9063 O   0  0  0  0  0  0  0  0  0  0  0  0
  -23.0289  -24.1833   21.3209 O   0  0  0  0  0  0  0  0  0  0  0  0
  -21.1103  -26.5723   23.5132 O   0  0  0  0  0  0  0  0  0  0  0  0
  -23.0167  -30.3945   21.4451 O   0  0  0  0  0  0  0  0  0  0  0  0
  -31.8047  -19.7125   21.3983 O   0  0  0  0  0  0  0  0  0  0  0  0
  -23.0068  -11.1700   21.9878 O   0  0  0  0  0  0  0  0  0  0  0  0
  -28.7839  -27.0998   19.9500 O   0  0  0  0  0  0  0  0  0  1  0  0
  -18.1648  -11.2285   19.3505 F   0  0  0  0  0  0  0  0  0  0  0  0
  -20.7885  -12.3681   23.1219 F   0  0  0  0  0  0  0  0  0  0  0  0
  1  2  1  0  0  0  0
  1  6  2  0  0  0  0
  2  7  2  0  0  0  0
  3 10  2  0  0  0  0
  3 18  1  0  0  0  0
  4 11  1  0  0  0  0
  4 18  2  0  0  0  0
  5  9  2  0  0  0  0
  5 19  1  0  0  0  0
  6 21  1  0  0  0  0
  7 23  1  0  0  0  0
  8 12  2  0  0  0  0
  8 22  1  0  0  0  0
  9 26  1  0  0  0  0
 10 27  1  0  0  0  0
 11 27  2  0  0  0  0
 12 28  1  0  0  0  0
 13 14  2  0  0  0  0
 13 29  1  0  0  0  0
 14 30  1  0  0  0  0
 15 19  2  0  0  0  0
 15 25  1  0  0  0  0
 16 24  1  0  0  0  0
 16 28  2  0  0  0  0
 17 30  2  0  0  0  0
 17 31  1  0  0  0  0
 18 32  1  0  0  0  0
 19 34  1  0  0  0  0
 20 32  1  0  0  0  0
 20 33  2  0  0  0  0
 20 35  1  0  0  0  0
 21 23  2  0  0  0  0
 21 40  1  0  0  0  0
 22 24  2  0  0  0  0
 22 41  1  0  0  0  0
 23 49  1  0  0  0  0
 24 42  1  0  0  0  0
 25 26  2  0  0  0  0
 25 52  1  0  0  0  0
 26 70  1  0  0  0  0
 27 80  1  0  0  0  0
 28 81  1  0  0  0  0
 29 31  2  0  0  0  0
 29 80  1  0  0  0  0
 30 82  1  0  0  0  0
 31 83  1  0  0  0  0
 32 64  2  0  0  0  0
 33 65  1  0  0  0  0
 33 68  1  0  0  0  0
 34 58  1  0  0  0  0
 34 74  2  0  0  0  0
 35 69  1  0  0  0  0
 35 75  2  0  0  0  0
 36 50  1  0  0  0  0
 36 71  1  0  0  0  0
 36 76  2  0  0  0  0
 37 61  1  0  0  0  0
 37 66  1  0  0  0  0
 37 77  2  0  0  0  0
 38 62  1  0  0  0  0
 38 72  1  0  0  0  0
 38 78  2  0  0  0  0
 39 67  1  0  0  0  0
 39 70  1  0  0  0  0
 39 79  2  0  0  0  0
 40 43  1  0  0  0  0
 41 50  1  0  0  0  0
 42 66  1  0  0  0  0
 43 45  1  0  0  0  0
 44 46  1  0  0  0  0
 44 47  1  0  0  0  0
 45 49  1  0  0  0  0
 46 51  1  0  0  0  0
 47 67  1  0  0  0  0
 48 51  1  0  0  0  0
 48 67  1  0  0  0  0
 49 71  1  0  0  0  0
 50 66  1  0  0  0  0
 51 65  1  0  0  0  0
 53 62  1  0  0  0  0
 54 63  1  0  0  0  0
 55 63  1  0  0  0  0
 56 63  1  0  0  0  0
 57 73  1  0  0  0  0
 58 59  1  0  0  0  0
 59 60  1  0  0  0  0
 60 81  1  0  0  0  0
 61 63  1  0  0  0  0
 61 72  1  0  0  0  0
 62 73  1  0  0  0  0
 64 65  1  0  0  0  0
M  CHG  1  73   1
M  ISO  4  39 100  60 101  70 100  81 101
M  END
> <Batch ID>
0128

> <Smiles>
CNC(C)C(=O)NC(C(=O)N1Cc2cc([101O:1][101CH2:1]CCC(=O)c3ccc([100NH:0][100C:0](=O)N4CCCC(n5nc(-c6ccc(Oc7ccc(F)cc7F)cc6)c(C(N)=O)c5N)C4)c(C)c3)ccc2CC1C(=O)NC1CCCc2ccccc21)C(C)(C)C

> <Shape>
0.230

> <Color>
0.051

> <Negative vol penalty>
0.000

$$$$

  -OEChem-04052302163D

 85 93  0     1  0  0  0  0  0999 V2000
  -20.6214  -34.4231   22.9094 C   0  0  0  0  0  0  0  0  0  0  0  0
  -21.8572  -33.8948   22.5501 C   0  0  0  0  0  0  0  0  0  0  0  0
  -22.7464  -13.6963   20.9426 C   0  0  0  0  0  0  0  0  0  0  0  0
  -23.8821  -14.2593   22.9993 C   0  0  0  0  0  0  0  0  0  0  0  0
  -19.6719  -33.6124   23.5300 C   0  0  0  0  0  0  0  0  0  0  0  0
  -22.1447  -32.5558   22.8123 C   0  0  0  0  0  0  0  0  0  0  0  0
  -25.5376  -28.7797   19.3866 C   0  0  0  0  0  0  0  0  0  0  0  0
  -22.1540  -12.6002   21.5697 C   0  0  0  0  0  0  0  0  0  0  0  0
  -23.2897  -13.1633   23.6265 C   0  0  0  0  0  0  0  0  0  0  0  0
  -26.8663  -28.3678   19.4797 C   0  0  0  0  0  0  0  0  0  0  0  0
  -23.0403   -9.4634   22.4636 C   0  0  0  0  0  0  0  0  0  0  0  0
  -23.0315   -8.2503   21.7751 C   0  0  0  0  0  0  0  0  0  0  0  0
  -26.1615  -26.3794   20.6497 C   0  0  0  0  0  0  0  0  0  0  0  0
  -30.0347  -23.1923   21.6689 C   0  0  0  0  0  0  0  0  0  0  0  0
  -31.4572  -21.2131   20.3117 C   0  0  0  0  0  0  0  0  0  0  0  0
  -20.6165   -8.2301   21.8416 C   0  0  0  0  0  0  0  0  0  0  0  0
  -23.6105  -14.5258   21.6574 C   0  0  0  0  0  0  0  0  0  0  0  0
  -23.7166  -16.9689   20.9310 C   0  0  0  0  0  0  0  0  0  0  0  0
  -19.9443  -32.2603   23.7912 C   0  0  0  0  0  0  0  0  0  0  0  0
  -24.5101  -27.9986   19.9348 C   0  0  0  0  0  0  0  0  0  0  0  0
  -21.1985  -31.7266   23.4382 C   0  0  0  0  0  0  0  0  0  0  0  0
  -24.8204  -26.7824   20.5599 C   0  0  0  0  0  0  0  0  0  0  0  0
  -29.3593  -22.1080   21.1089 C   0  0  0  0  0  0  0  0  0  0  0  0
  -31.4213  -23.2872   21.5503 C   0  0  0  0  0  0  0  0  0  0  0  0
  -30.0705  -21.1184   20.4303 C   0  0  0  0  0  0  0  0  0  0  0  0
  -22.4256  -12.3337   22.9117 C   0  0  0  0  0  0  0  0  0  0  0  0
  -27.1787  -27.1689   20.1139 C   0  0  0  0  0  0  0  0  0  0  0  0
  -21.8371  -10.0597   22.8412 C   0  0  0  0  0  0  0  0  0  0  0  0
  -21.8196   -7.6337   21.4641 C   0  0  0  0  0  0  0  0  0  0  0  0
  -32.1325  -22.2975   20.8718 C   0  0  0  0  0  0  0  0  0  0  0  0
  -20.6253   -9.4431   22.5302 C   0  0  0  0  0  0  0  0  0  0  0  0
  -24.2232  -15.6578   21.0099 C   0  0  0  0  0  0  0  0  0  0  0  0
  -24.6652  -17.6612   20.2187 C   0  0  0  0  0  0  0  0  0  0  0  0
  -22.4977  -17.5124   21.4548 C   0  0  0  0  0  0  0  0  0  0  0  0
  -22.3338  -28.4316   22.2107 C   0  0  0  0  0  0  0  0  0  0  0  0
  -31.3349  -26.0633   20.3686 C   0  0  0  0  0  0  0  0  0  0  0  0
  -21.2537  -25.5505   21.1837 C   0  0  0  0  0  0  0  0  0  0  0  0
  -21.9278  -22.5938   19.6184 C   0  0  0  0  0  0  0  0  0  0  0  0
  -29.9758  -18.9501   19.1512 C   0  0  0  0  0  0  0  0  0  0  0  0
  -18.9042  -31.4353   24.5069 C   0  0  0  0  0  0  0  0  0  0  0  0
  -23.0795  -28.4438   19.8024 C   0  0  0  0  0  0  0  0  0  0  0  0
  -23.7524  -25.8974   21.1469 C   0  0  0  0  0  0  0  0  0  0  0  0
  -19.1476  -29.9314   24.4108 C   0  0  0  0  0  0  0  0  0  0  0  0
  -28.6785  -16.0140   17.6106 C   0  0  0  0  0  0  0  0  0  0  0  0
  -20.6087  -29.6072   24.7055 C   0  0  0  0  0  0  0  0  0  0  0  0
  -27.3621  -15.7674   18.3512 C   0  0  0  0  0  0  0  0  0  0  0  0
  -29.7626  -16.5499   18.5441 C   0  0  0  0  0  0  0  0  0  0  0  0
  -28.0650  -17.4892   20.0625 C   0  0  0  0  0  0  0  0  0  0  0  0
  -21.5384  -30.2725   23.6835 C   0  0  1  0  0  0  0  0  0  0  0  0
  -22.1606  -27.8209   20.8488 C   0  0  1  0  0  0  0  0  0  0  0  0
  -26.9238  -17.0103   19.1504 C   0  0  2  0  0  0  0  0  0  0  0  0
  -27.8735  -22.0320   21.2513 C   0  0  0  0  0  0  0  0  0  0  0  0
  -20.8545  -20.4221   18.9635 C   0  0  0  0  0  0  0  0  0  0  0  0
  -21.4301  -24.5939   24.0758 C   0  0  0  0  0  0  0  0  0  0  0  0
  -21.2791  -22.2410   23.2335 C   0  0  0  0  0  0  0  0  0  0  0  0
  -19.3925  -23.8262   22.8455 C   0  0  0  0  0  0  0  0  0  0  0  0
  -22.4027  -23.0935   16.7403 C   0  0  0  0  0  0  0  0  0  0  0  0
  -32.1481  -24.4596   22.1566 C   0  0  0  0  0  0  0  0  0  0  0  0
  -32.5397  -25.4901   21.0992 C   0  0  0  0  0  0  0  0  0  0  0  0
  -30.6980  -27.2854   21.0165 C   0  0  0  0  0  0  0  0  0  0  0  0
  -29.4705  -27.7853   20.2685 C   0  0  0  0  0  0  0  0  0  1  0  0
  -21.5396  -24.1120   21.5416 C   0  0  1  0  0  0  0  0  0  0  0  0
  -21.1887  -21.8401   18.5275 C   0  0  2  0  0  0  0  0  0  0  0  0
  -20.9308  -23.7107   22.9148 C   0  0  0  0  0  0  0  0  0  0  0  0
  -25.4020  -15.5227   20.3966 N   0  0  0  0  0  0  0  0  0  0  0  0
  -25.6440  -16.7579   19.9254 N   0  0  0  0  0  0  0  0  0  0  0  0
  -22.3692  -26.3792   20.9978 N   0  0  0  0  0  0  0  0  0  0  0  0
  -29.2776  -17.7293   19.2644 N   0  0  0  0  0  0  0  0  0  0  0  0
  -24.7491  -18.9485   19.8208 N   0  0  0  0  0  0  0  0  0  0  0  0
  -21.6367  -16.6622   22.1621 N   0  0  0  0  0  0  0  0  0  0  0  0
  -29.4027  -20.0094   19.8542 N   0  0  0  0  0  0  0  0  0  0  0  0
  -21.5325  -29.5340   22.4389 N   0  0  0  0  0  0  0  0  0  0  0  0
  -21.0639  -23.3099   20.4197 N   0  0  0  0  0  0  0  0  0  0  0  0
  -22.0202  -21.7686   17.2928 N   0  3  0  0  0  0  0  0  0  0  0  0
  -22.1735  -18.7124   21.2862 O   0  0  0  0  0  0  0  0  0  0  0  0
  -23.1341  -27.9383   22.9968 O   0  0  0  0  0  0  0  0  0  0  0  0
  -30.9055  -25.5719   19.3262 O   0  0  0  0  0  0  0  0  0  0  0  0
  -20.0837  -25.9233   21.0663 O   0  0  0  0  0  0  0  0  0  0  0  0
  -23.1490  -22.5485   19.7492 O   0  0  0  0  0  0  0  0  0  0  0  0
  -30.9909  -19.0553   18.4581 O   0  0  0  0  0  0  0  0  0  0  0  0
  -21.8475  -11.2644   23.5240 O   0  0  0  0  0  0  0  0  0  0  0  0
  -28.4748  -26.7648   20.2068 O   0  0  0  0  0  0  0  0  0  1  0  0
  -21.8113   -6.4696   20.8015 F   0  0  0  0  0  0  0  0  0  0  0  0
  -33.4650  -22.3801   20.7527 F   0  0  0  0  0  0  0  0  0  0  0  0
  -19.4662  -10.0118   22.8893 F   0  0  0  0  0  0  0  0  0  0  0  0
  1  2  1  0  0  0  0
  1  5  2  0  0  0  0
  2  6  2  0  0  0  0
  3  8  2  0  0  0  0
  3 17  1  0  0  0  0
  4  9  1  0  0  0  0
  4 17  2  0  0  0  0
  5 19  1  0  0  0  0
  6 21  1  0  0  0  0
  7 10  2  0  0  0  0
  7 20  1  0  0  0  0
  8 26  1  0  0  0  0
  9 26  2  0  0  0  0
 10 27  1  0  0  0  0
 11 12  2  0  0  0  0
 11 28  1  0  0  0  0
 12 29  1  0  0  0  0
 13 22  1  0  0  0  0
 13 27  2  0  0  0  0
 14 23  2  0  0  0  0
 14 24  1  0  0  0  0
 15 25  2  0  0  0  0
 15 30  1  0  0  0  0
 16 29  2  0  0  0  0
 16 31  1  0  0  0  0
 17 32  1  0  0  0  0
 18 32  1  0  0  0  0
 18 33  2  0  0  0  0
 18 34  1  0  0  0  0
 19 21  2  0  0  0  0
 19 40  1  0  0  0  0
 20 22  2  0  0  0  0
 20 41  1  0  0  0  0
 21 49  1  0  0  0  0
 22 42  1  0  0  0  0
 23 25  1  0  0  0  0
 23 52  1  0  0  0  0
 24 30  2  0  0  0  0
 24 58  1  0  0  0  0
 25 71  1  0  0  0  0
 26 81  1  0  0  0  0
 27 82  1  0  0  0  0
 28 31  2  0  0  0  0
 28 81  1  0  0  0  0
 29 83  1  0  0  0  0
 30 84  1  0  0  0  0
 31 85  1  0  0  0  0
 32 65  2  0  0  0  0
 33 66  1  0  0  0  0
 33 69  1  0  0  0  0
 34 70  1  0  0  0  0
 34 75  2  0  0  0  0
 35 50  1  0  0  0  0
 35 72  1  0  0  0  0
 35 76  2  0  0  0  0
 36 59  1  0  0  0  0
 36 60  1  0  0  0  0
 36 77  2  0  0  0  0
 37 62  1  0  0  0  0
 37 67  1  0  0  0  0
 37 78  2  0  0  0  0
 38 63  1  0  0  0  0
 38 73  1  0  0  0  0
 38 79  2  0  0  0  0
 39 68  1  0  0  0  0
 39 71  1  0  0  0  0
 39 80  2  0  0  0  0
 40 43  1  0  0  0  0
 41 50  1  0  0  0  0
 42 67  1  0  0  0  0
 43 45  1  0  0  0  0
 44 46  1  0  0  0  0
 44 47  1  0  0  0  0
 45 49  1  0  0  0  0
 46 51  1  0  0  0  0
 47 68  1  0  0  0  0
 48 51  1  0  0  0  0
 48 68  1  0  0  0  0
 49 72  1  0  0  0  0
 50 67  1  0  0  0  0
 51 66  1  0  0  0  0
 53 63  1  0  0  0  0
 54 64  1  0  0  0  0
 55 64  1  0  0  0  0
 56 64  1  0  0  0  0
 57 74  1  0  0  0  0
 58 59  1  0  0  0  0
 60 61  1  0  0  0  0
 61 82  1  0  0  0  0
 62 64  1  0  0  0  0
 62 73  1  0  0  0  0
 63 74  1  0  0  0  0
 65 66  1  0  0  0  0
M  CHG  1  74   1
M  ISO  4  39 100  61 101  71 100  82 101
M  END
> <Batch ID>
0128

> <Smiles>
CNC(C)C(=O)NC(C(=O)N1Cc2cc([101O:1][101CH2:1]CC(=O)CCc3cc(C)c([100NH:0][100C:0](=O)N4CCCC(n5nc(-c6ccc(Oc7ccc(F)cc7F)cc6)c(C(N)=O)c5N)C4)cc3F)ccc2CC1C(=O)NC1CCCc2ccccc21)C(C)(C)C

> <Shape>
0.204

> <Color>
0.095

> <Negative vol penalty>
0.000

$$$$

  -OEChem-04052302163D

 84 92  0     1  0  0  0  0  0999 V2000
  -30.2806  -18.5390   35.1157 C   0  0  0  0  0  0  0  0  0  0  0  0
  -30.9314  -17.9767   34.0223 C   0  0  0  0  0  0  0  0  0  0  0  0
  -23.1893   -9.8199   19.9319 C   0  0  0  0  0  0  0  0  0  0  0  0
  -23.5687  -10.0005   22.3110 C   0  0  0  0  0  0  0  0  0  0  0  0
  -28.8878  -18.5965   35.1426 C   0  0  0  0  0  0  0  0  0  0  0  0
  -30.1898  -17.4704   32.9555 C   0  0  0  0  0  0  0  0  0  0  0  0
  -32.0602  -18.8563   28.4582 C   0  0  0  0  0  0  0  0  0  0  0  0
  -33.4014  -11.7928   25.0784 C   0  0  0  0  0  0  0  0  0  0  0  0
  -32.6578  -12.1072   23.9409 C   0  0  0  0  0  0  0  0  0  0  0  0
  -22.4230   -8.6733   20.1411 C   0  0  0  0  0  0  0  0  0  0  0  0
  -22.8023   -8.8539   22.5203 C   0  0  0  0  0  0  0  0  0  0  0  0
  -33.1814  -18.1687   27.9956 C   0  0  0  0  0  0  0  0  0  0  0  0
  -21.2450   -5.7705   23.6502 C   0  0  0  0  0  0  0  0  0  0  0  0
  -21.7416   -4.8107   24.5321 C   0  0  0  0  0  0  0  0  0  0  0  0
  -31.7652  -16.8255   26.5779 C   0  0  0  0  0  0  0  0  0  0  0  0
  -31.4598  -12.1947   26.4588 C   0  0  0  0  0  0  0  0  0  0  0  0
  -23.6996   -4.5462   23.1416 C   0  0  0  0  0  0  0  0  0  0  0  0
  -23.7622  -10.4834   21.0168 C   0  0  0  0  0  0  0  0  0  0  0  0
  -24.1011  -13.0000   20.7726 C   0  0  0  0  0  0  0  0  0  0  0  0
  -28.1289  -18.0994   34.0712 C   0  0  0  0  0  0  0  0  0  0  0  0
  -30.7798  -18.5258   27.9914 C   0  0  0  0  0  0  0  0  0  0  0  0
  -28.7855  -17.5201   32.9686 C   0  0  0  0  0  0  0  0  0  0  0  0
  -30.6297  -17.5122   27.0342 C   0  0  0  0  0  0  0  0  0  0  0  0
  -32.8024  -11.8365   26.3374 C   0  0  0  0  0  0  0  0  0  0  0  0
  -30.7162  -12.5091   25.3214 C   0  0  0  0  0  0  0  0  0  0  0  0
  -31.3152  -12.4654   24.0624 C   0  0  0  0  0  0  0  0  0  0  0  0
  -22.2294   -8.1904   21.4353 C   0  0  0  0  0  0  0  0  0  0  0  0
  -33.0337  -17.1512   27.0575 C   0  0  0  0  0  0  0  0  0  0  0  0
  -21.9756   -6.1181   22.5140 C   0  0  0  0  0  0  0  0  0  0  0  0
  -22.9689   -4.1986   24.2778 C   0  0  0  0  0  0  0  0  0  0  0  0
  -23.2029   -5.5060   22.2597 C   0  0  0  0  0  0  0  0  0  0  0  0
  -24.5544  -11.6675   20.8013 C   0  0  0  0  0  0  0  0  0  0  0  0
  -25.2323  -13.7425   20.5368 C   0  0  0  0  0  0  0  0  0  0  0  0
  -35.1989  -14.3660   26.4848 C   0  0  0  0  0  0  0  0  0  0  0  0
  -22.7760  -13.5201   20.9440 C   0  0  0  0  0  0  0  0  0  0  0  0
  -35.3823  -13.3243   27.3199 C   0  0  0  0  0  0  0  0  0  0  0  0
  -28.1150  -17.4328   29.3360 C   0  0  0  0  0  0  0  0  0  0  0  0
  -26.8844  -17.9189   26.3744 C   0  0  0  0  0  0  0  0  0  0  0  0
  -27.4379  -18.2160   23.0199 C   0  0  0  0  0  0  0  0  0  0  0  0
  -31.0371  -12.7813   21.5786 C   0  0  0  0  0  0  0  0  0  0  0  0
  -26.6243  -18.1408   34.1666 C   0  0  0  0  0  0  0  0  0  0  0  0
  -29.5833  -19.2950   28.4804 C   0  0  0  0  0  0  0  0  0  0  0  0
  -29.2791  -17.1327   26.4863 C   0  0  0  0  0  0  0  0  0  0  0  0
  -25.9230  -17.9215   32.8286 C   0  0  0  0  0  0  0  0  0  0  0  0
  -29.5233  -13.4627   18.4288 C   0  0  0  0  0  0  0  0  0  0  0  0
  -26.5358  -16.7341   32.0928 C   0  0  0  0  0  0  0  0  0  0  0  0
  -28.0353  -13.2068   18.6788 C   0  0  0  0  0  0  0  0  0  0  0  0
  -30.4046  -12.4776   19.1948 C   0  0  0  0  0  0  0  0  0  0  0  0
  -28.6455  -12.1366   20.8855 C   0  0  0  0  0  0  0  0  0  0  0  0
  -28.0165  -16.9827   31.7812 C   0  0  1  0  0  0  0  0  0  0  0  0
  -28.2740  -18.5285   28.3203 C   0  0  1  0  0  0  0  0  0  0  0  0
  -27.7195  -13.1451   20.1861 C   0  0  2  0  0  0  0  0  0  0  0  0
  -29.2806  -12.8924   25.4816 C   0  0  0  0  0  0  0  0  0  0  0  0
  -36.7470  -12.6974   27.4519 C   0  0  0  0  0  0  0  0  0  0  0  0
  -26.2317  -18.5721   20.8483 C   0  0  0  0  0  0  0  0  0  0  0  0
  -25.9313  -15.0209   26.4313 C   0  0  0  0  0  0  0  0  0  0  0  0
  -25.6049  -15.1526   23.9525 C   0  0  0  0  0  0  0  0  0  0  0  0
  -24.2898  -16.6400   25.4627 C   0  0  0  0  0  0  0  0  0  0  0  0
  -28.9011  -20.7325   22.4863 C   0  0  0  0  0  0  0  0  0  0  0  0
  -33.6073  -11.4988   27.5676 C   0  0  0  0  0  0  0  0  0  0  0  0
  -33.9357  -15.1192   26.2130 C   0  0  0  0  0  0  0  0  0  1  0  0
  -34.3061  -12.7141   28.1940 C   0  0  0  0  0  0  0  0  0  0  0  0
  -26.7546  -17.0876   25.1209 C   0  0  1  0  0  0  0  0  0  0  0  0
  -26.9574  -19.2390   22.0065 C   0  0  2  0  0  0  0  0  0  0  0  0
  -25.6705  -15.9809   25.2534 C   0  0  0  0  0  0  0  0  0  0  0  0
  -25.8709  -11.5662   20.5996 N   0  0  0  0  0  0  0  0  0  0  0  0
  -26.2545  -12.8445   20.4418 N   0  0  0  0  0  0  0  0  0  0  0  0
  -28.1391  -17.9098   27.0000 N   0  0  0  0  0  0  0  0  0  0  0  0
  -30.0515  -12.4764   20.6161 N   0  0  0  0  0  0  0  0  0  0  0  0
  -25.4423  -15.0693   20.4033 N   0  0  0  0  0  0  0  0  0  0  0  0
  -21.7294  -12.6180   21.1786 N   0  0  0  0  0  0  0  0  0  0  0  0
  -30.5769  -12.7813   22.8950 N   0  0  0  0  0  0  0  0  0  0  0  0
  -28.1520  -17.8704   30.6462 N   0  0  0  0  0  0  0  0  0  0  0  0
  -26.5187  -18.0275   24.0304 N   0  0  0  0  0  0  0  0  0  0  0  0
  -28.1113  -20.0067   21.4585 N   0  3  0  0  0  0  0  0  0  0  0  0
  -22.5250  -14.7471   20.8743 O   0  0  0  0  0  0  0  0  0  0  0  0
  -27.9682  -16.2761   28.9590 O   0  0  0  0  0  0  0  0  0  0  0  0
  -25.9105  -18.5586   26.7793 O   0  0  0  0  0  0  0  0  0  0  0  0
  -28.5186  -17.6389   22.9228 O   0  0  0  0  0  0  0  0  0  0  0  0
  -32.1970  -13.0512   21.2567 O   0  0  0  0  0  0  0  0  0  0  0  0
  -21.4815   -7.0717   21.6398 O   0  0  0  0  0  0  0  0  0  0  0  0
  -34.1263  -16.4780   26.6049 O   0  0  0  0  0  0  0  0  0  1  0  0
  -23.4465   -3.2780   25.1256 F   0  0  0  0  0  0  0  0  0  0  0  0
  -23.9099   -5.8367   21.1704 F   0  0  0  0  0  0  0  0  0  0  0  0
  1  2  1  0  0  0  0
  1  5  2  0  0  0  0
  2  6  2  0  0  0  0
  3 10  2  0  0  0  0
  3 18  1  0  0  0  0
  4 11  1  0  0  0  0
  4 18  2  0  0  0  0
  5 20  1  0  0  0  0
  6 22  1  0  0  0  0
  7 12  2  0  0  0  0
  7 21  1  0  0  0  0
  8  9  2  0  0  0  0
  8 24  1  0  0  0  0
  9 26  1  0  0  0  0
 10 27  1  0  0  0  0
 11 27  2  0  0  0  0
 12 28  1  0  0  0  0
 13 14  2  0  0  0  0
 13 29  1  0  0  0  0
 14 30  1  0  0  0  0
 15 23  1  0  0  0  0
 15 28  2  0  0  0  0
 16 24  2  0  0  0  0
 16 25  1  0  0  0  0
 17 30  2  0  0  0  0
 17 31  1  0  0  0  0
 18 32  1  0  0  0  0
 19 32  1  0  0  0  0
 19 33  2  0  0  0  0
 19 35  1  0  0  0  0
 20 22  2  0  0  0  0
 20 41  1  0  0  0  0
 21 23  2  0  0  0  0
 21 42  1  0  0  0  0
 22 50  1  0  0  0  0
 23 43  1  0  0  0  0
 24 60  1  0  0  0  0
 25 26  2  0  0  0  0
 25 53  1  0  0  0  0
 26 72  1  0  0  0  0
 27 81  1  0  0  0  0
 28 82  1  0  0  0  0
 29 31  2  0  0  0  0
 29 81  1  0  0  0  0
 30 83  1  0  0  0  0
 31 84  1  0  0  0  0
 32 66  2  0  0  0  0
 33 67  1  0  0  0  0
 33 70  1  0  0  0  0
 34 36  2  0  0  0  0
 34 61  1  0  0  0  0
 35 71  1  0  0  0  0
 35 76  2  0  0  0  0
 36 54  1  0  0  0  0
 36 62  1  0  0  0  0
 37 51  1  0  0  0  0
 37 73  1  0  0  0  0
 37 77  2  0  0  0  0
 38 63  1  0  0  0  0
 38 68  1  0  0  0  0
 38 78  2  0  0  0  0
 39 64  1  0  0  0  0
 39 74  1  0  0  0  0
 39 79  2  0  0  0  0
 40 69  1  0  0  0  0
 40 72  1  0  0  0  0
 40 80  2  0  0  0  0
 41 44  1  0  0  0  0
 42 51  1  0  0  0  0
 43 68  1  0  0  0  0
 44 46  1  0  0  0  0
 45 47  1  0  0  0  0
 45 48  1  0  0  0  0
 46 50  1  0  0  0  0
 47 52  1  0  0  0  0
 48 69  1  0  0  0  0
 49 52  1  0  0  0  0
 49 69  1  0  0  0  0
 50 73  1  0  0  0  0
 51 68  1  0  0  0  0
 52 67  1  0  0  0  0
 55 64  1  0  0  0  0
 56 65  1  0  0  0  0
 57 65  1  0  0  0  0
 58 65  1  0  0  0  0
 59 75  1  0  0  0  0
 60 62  1  0  0  0  0
 61 82  1  0  0  0  0
 63 65  1  0  0  0  0
 63 74  1  0  0  0  0
 64 75  1  0  0  0  0
 66 67  1  0  0  0  0
M  CHG  1  75   1
M  ISO  4  40 100  61 101  72 100  82 101
M  END
> <Batch ID>
0128

> <Smiles>
CNC(C)C(=O)NC(C(=O)N1Cc2cc([101O:1][101CH2:1]C=C(C)CCc3ccc([100NH:0][100C:0](=O)N4CCCC(n5nc(-c6ccc(Oc7ccc(F)cc7F)cc6)c(C(N)=O)c5N)C4)c(C)c3)ccc2CC1C(=O)NC1CCCc2ccccc21)C(C)(C)C

> <Shape>
0.149

> <Color>
0.186

> <Negative vol penalty>
0.000

$$$$

  -OEChem-04052302163D

 85 93  0     1  0  0  0  0  0999 V2000
  -26.8590  -35.5967   22.1560 C   0  0  0  0  0  0  0  0  0  0  0  0
  -27.2807  -34.2715   22.1174 C   0  0  0  0  0  0  0  0  0  0  0  0
  -23.6247   -8.9725   20.2064 C   0  0  0  0  0  0  0  0  0  0  0  0
  -23.0747  -10.8366   21.6416 C   0  0  0  0  0  0  0  0  0  0  0  0
  -25.5836  -35.9078   22.6256 C   0  0  0  0  0  0  0  0  0  0  0  0
  -26.4276  -33.2567   22.5495 C   0  0  0  0  0  0  0  0  0  0  0  0
  -26.3758  -29.2904   19.4014 C   0  0  0  0  0  0  0  0  0  0  0  0
  -22.7453   -8.1611   20.9232 C   0  0  0  0  0  0  0  0  0  0  0  0
  -22.1952  -10.0252   22.3584 C   0  0  0  0  0  0  0  0  0  0  0  0
  -27.4516  -28.4065   19.4730 C   0  0  0  0  0  0  0  0  0  0  0  0
  -20.9136   -5.5055   22.6014 C   0  0  0  0  0  0  0  0  0  0  0  0
  -21.3496   -4.2290   22.9562 C   0  0  0  0  0  0  0  0  0  0  0  0
  -28.6505  -19.7511   18.6687 C   0  0  0  0  0  0  0  0  0  0  0  0
  -26.1170  -26.8990   20.8017 C   0  0  0  0  0  0  0  0  0  0  0  0
  -30.5833  -18.1517   19.8890 C   0  0  0  0  0  0  0  0  0  0  0  0
  -23.1717   -5.2000   24.2109 C   0  0  0  0  0  0  0  0  0  0  0  0
  -23.7894  -10.3102   20.5656 C   0  0  0  0  0  0  0  0  0  0  0  0
  -29.7514  -20.3397   19.2909 C   0  0  0  0  0  0  0  0  0  0  0  0
  -24.4019  -11.9326   18.6946 C   0  0  0  0  0  0  0  0  0  0  0  0
  -24.7109  -34.8954   23.0546 C   0  0  0  0  0  0  0  0  0  0  0  0
  -25.1639  -28.9897   20.0397 C   0  0  0  0  0  0  0  0  0  0  0  0
  -25.1398  -33.5546   23.0266 C   0  0  0  0  0  0  0  0  0  0  0  0
  -25.0264  -27.7795   20.7345 C   0  0  0  0  0  0  0  0  0  0  0  0
  -28.5160  -18.3627   18.6567 C   0  0  0  0  0  0  0  0  0  0  0  0
  -30.7178  -19.5401   19.9010 C   0  0  0  0  0  0  0  0  0  0  0  0
  -29.4824  -17.5631   19.2668 C   0  0  0  0  0  0  0  0  0  0  0  0
  -22.0305   -8.6874   21.9992 C   0  0  0  0  0  0  0  0  0  0  0  0
  -27.3233  -27.2120   20.1756 C   0  0  0  0  0  0  0  0  0  0  0  0
  -21.6067   -6.6293   23.0513 C   0  0  0  0  0  0  0  0  0  0  0  0
  -22.4786   -4.0762   23.7610 C   0  0  0  0  0  0  0  0  0  0  0  0
  -22.7357   -6.4766   23.8560 C   0  0  0  0  0  0  0  0  0  0  0  0
  -24.6982  -11.1488   19.8259 C   0  0  0  0  0  0  0  0  0  0  0  0
  -25.5939  -12.5338   18.3718 C   0  0  0  0  0  0  0  0  0  0  0  0
  -29.8655  -21.8089   19.2870 C   0  0  0  0  0  0  0  0  0  0  0  0
  -28.9548  -22.6444   19.8057 C   0  0  0  0  0  0  0  0  0  0  0  0
  -23.1603  -12.1020   17.9979 C   0  0  0  0  0  0  0  0  0  0  0  0
  -29.1606  -24.1206   19.7418 C   0  0  0  0  0  0  0  0  0  0  0  0
  -23.4569  -30.3334   22.3600 C   0  0  0  0  0  0  0  0  0  0  0  0
  -21.3038  -28.0382   21.5735 C   0  0  0  0  0  0  0  0  0  0  0  0
  -20.7091  -24.9756   20.1901 C   0  0  0  0  0  0  0  0  0  0  0  0
  -30.2425  -15.2287   19.8316 C   0  0  0  0  0  0  0  0  0  0  0  0
  -23.3591  -35.2846   23.5984 C   0  0  0  0  0  0  0  0  0  0  0  0
  -24.0042  -29.9413   19.9305 C   0  0  0  0  0  0  0  0  0  0  0  0
  -23.7400  -27.4004   21.4200 C   0  0  0  0  0  0  0  0  0  0  0  0
  -22.3790  -34.1176   23.6867 C   0  0  0  0  0  0  0  0  0  0  0  0
  -30.2830  -11.6767   20.0745 C   0  0  0  0  0  0  0  0  0  0  0  0
  -23.0521  -32.9016   24.3152 C   0  0  0  0  0  0  0  0  0  0  0  0
  -28.8093  -11.2872   19.9384 C   0  0  0  0  0  0  0  0  0  0  0  0
  -30.4561  -12.9761   20.8589 C   0  0  0  0  0  0  0  0  0  0  0  0
  -28.1954  -13.7219   20.2248 C   0  0  0  0  0  0  0  0  0  0  0  0
  -24.2342  -32.4236   23.4635 C   0  0  1  0  0  0  0  0  0  0  0  0
  -22.9827  -29.7695   21.0505 C   0  0  1  0  0  0  0  0  0  0  0  0
  -27.9667  -12.4538   19.3863 C   0  0  2  0  0  0  0  0  0  0  0  0
  -31.9103  -20.1368   20.5772 C   0  0  0  0  0  0  0  0  0  0  0  0
  -27.6685  -17.1783   16.6157 C   0  0  0  0  0  0  0  0  0  0  0  0
  -18.8541  -23.3506   19.7256 C   0  0  0  0  0  0  0  0  0  0  0  0
  -21.2785  -27.2299   24.5156 C   0  0  0  0  0  0  0  0  0  0  0  0
  -20.1950  -25.0756   23.8424 C   0  0  0  0  0  0  0  0  0  0  0  0
  -19.0317  -27.2410   23.4174 C   0  0  0  0  0  0  0  0  0  0  0  0
  -21.1630  -25.1139   17.2688 C   0  0  0  0  0  0  0  0  0  0  0  0
  -27.3258  -17.7596   17.9837 C   0  0  0  0  0  0  0  0  0  0  0  0
  -28.0629  -24.9594   20.3616 C   0  0  0  0  0  0  0  0  0  1  0  0
  -21.0434  -26.6192   22.0180 C   0  0  1  0  0  0  0  0  0  0  0  0
  -19.6746  -24.5096   19.1815 C   0  0  2  0  0  0  0  0  0  0  0  0
  -20.4121  -26.5491   23.4372 C   0  0  0  0  0  0  0  0  0  0  0  0
  -25.9780  -11.2415   20.1967 N   0  0  0  0  0  0  0  0  0  0  0  0
  -26.4965  -12.0907   19.2932 N   0  0  0  0  0  0  0  0  0  0  0  0
  -22.6370  -28.3668   21.2898 N   0  0  0  0  0  0  0  0  0  0  0  0
  -29.6317  -14.0370   20.2761 N   0  0  0  0  0  0  0  0  0  0  0  0
  -25.9475  -13.3931   17.3925 N   0  0  0  0  0  0  0  0  0  0  0  0
  -22.0335  -11.4105   18.4630 N   0  0  0  0  0  0  0  0  0  0  0  0
  -29.3630  -16.1512   19.2659 N   0  0  0  0  0  0  0  0  0  0  0  0
  -23.7619  -31.6804   22.3150 N   0  0  0  0  0  0  0  0  0  0  0  0
  -20.2319  -26.0062   20.9721 N   0  0  0  0  0  0  0  0  0  0  0  0
  -20.3404  -24.0650   17.9245 N   0  3  0  0  0  0  0  0  0  0  0  0
  -23.0571  -12.8319   16.9829 O   0  0  0  0  0  0  0  0  0  0  0  0
  -30.1549  -24.6187   19.2211 O   0  0  0  0  0  0  0  0  0  0  0  0
  -23.5384  -29.6011   23.3391 O   0  0  0  0  0  0  0  0  0  0  0  0
  -20.3582  -28.8240   21.4744 O   0  0  0  0  0  0  0  0  0  0  0  0
  -21.8272  -24.4730   20.2781 O   0  0  0  0  0  0  0  0  0  0  0  0
  -31.4603  -15.4057   19.9198 O   0  0  0  0  0  0  0  0  0  0  0  0
  -21.1721   -7.8961   22.6988 O   0  0  0  0  0  0  0  0  0  0  0  0
  -28.3720  -26.3478   20.2477 O   0  0  0  0  0  0  0  0  0  1  0  0
  -22.8962   -2.8503   24.1029 F   0  0  0  0  0  0  0  0  0  0  0  0
  -23.4050   -7.5525   24.2922 F   0  0  0  0  0  0  0  0  0  0  0  0
  1  2  1  0  0  0  0
  1  5  2  0  0  0  0
  2  6  2  0  0  0  0
  3  8  2  0  0  0  0
  3 17  1  0  0  0  0
  4  9  1  0  0  0  0
  4 17  2  0  0  0  0
  5 20  1  0  0  0  0
  6 22  1  0  0  0  0
  7 10  2  0  0  0  0
  7 21  1  0  0  0  0
  8 27  1  0  0  0  0
  9 27  2  0  0  0  0
 10 28  1  0  0  0  0
 11 12  2  0  0  0  0
 11 29  1  0  0  0  0
 12 30  1  0  0  0  0
 13 18  2  0  0  0  0
 13 24  1  0  0  0  0
 14 23  1  0  0  0  0
 14 28  2  0  0  0  0
 15 25  2  0  0  0  0
 15 26  1  0  0  0  0
 16 30  2  0  0  0  0
 16 31  1  0  0  0  0
 17 32  1  0  0  0  0
 18 25  1  0  0  0  0
 18 34  1  0  0  0  0
 19 32  1  0  0  0  0
 19 33  2  0  0  0  0
 19 36  1  0  0  0  0
 20 22  2  0  0  0  0
 20 42  1  0  0  0  0
 21 23  2  0  0  0  0
 21 43  1  0  0  0  0
 22 51  1  0  0  0  0
 23 44  1  0  0  0  0
 24 26  2  0  0  0  0
 24 61  1  0  0  0  0
 25 54  1  0  0  0  0
 26 72  1  0  0  0  0
 27 82  1  0  0  0  0
 28 83  1  0  0  0  0
 29 31  2  0  0  0  0
 29 82  1  0  0  0  0
 30 84  1  0  0  0  0
 31 85  1  0  0  0  0
 32 66  2  0  0  0  0
 33 67  1  0  0  0  0
 33 70  1  0  0  0  0
 34 35  2  0  0  0  0
 35 37  1  0  0  0  0
 36 71  1  0  0  0  0
 36 76  2  0  0  0  0
 37 62  1  0  0  0  0
 37 77  2  0  0  0  0
 38 52  1  0  0  0  0
 38 73  1  0  0  0  0
 38 78  2  0  0  0  0
 39 63  1  0  0  0  0
 39 68  1  0  0  0  0
 39 79  2  0  0  0  0
 40 64  1  0  0  0  0
 40 74  1  0  0  0  0
 40 80  2  0  0  0  0
 41 69  1  0  0  0  0
 41 72  1  0  0  0  0
 41 81  2  0  0  0  0
 42 45  1  0  0  0  0
 43 52  1  0  0  0  0
 44 68  1  0  0  0  0
 45 47  1  0  0  0  0
 46 48  1  0  0  0  0
 46 49  1  0  0  0  0
 47 51  1  0  0  0  0
 48 53  1  0  0  0  0
 49 69  1  0  0  0  0
 50 53  1  0  0  0  0
 50 69  1  0  0  0  0
 51 73  1  0  0  0  0
 52 68  1  0  0  0  0
 53 67  1  0  0  0  0
 55 61  1  0  0  0  0
 56 64  1  0  0  0  0
 57 65  1  0  0  0  0
 58 65  1  0  0  0  0
 59 65  1  0  0  0  0
 60 75  1  0  0  0  0
 62 83  1  0  0  0  0
 63 65  1  0  0  0  0
 63 74  1  0  0  0  0
 64 75  1  0  0  0  0
 66 67  1  0  0  0  0
M  CHG  1  75   1
M  ISO  4  41 100  62 101  72 100  83 101
M  END
> <Batch ID>
0128

> <Smiles>
CCc1cc(C=CC(=O)[101CH2:1][101O:1]c2ccc3c(c2)CN(C(=O)C(NC(=O)C(C)NC)C(C)(C)C)C(C(=O)NC2CCCc4ccccc42)C3)c(C)cc1[100NH:0][100C:0](=O)N1CCCC(n2nc(-c3ccc(Oc4ccc(F)cc4F)cc3)c(C(N)=O)c2N)C1

> <Shape>
0.329

> <Color>
0.131

> <Negative vol penalty>
0.000

$$$$

  -OEChem-04052302163D

 85 93  0     1  0  0  0  0  0999 V2000
  -32.1426  -14.7219   18.8077 C   0  0  0  0  0  0  0  0  0  0  0  0
  -31.2128  -15.7499   18.6893 C   0  0  0  0  0  0  0  0  0  0  0  0
  -30.2551  -24.7900   21.1782 C   0  0  0  0  0  0  0  0  0  0  0  0
  -30.1831  -24.9438   18.7682 C   0  0  0  0  0  0  0  0  0  0  0  0
  -31.7246  -13.4451   19.1806 C   0  0  0  0  0  0  0  0  0  0  0  0
  -29.8643  -15.5015   18.9427 C   0  0  0  0  0  0  0  0  0  0  0  0
  -25.8215  -19.3513   21.4607 C   0  0  0  0  0  0  0  0  0  0  0  0
  -18.6318  -27.3430   22.7043 C   0  0  0  0  0  0  0  0  0  0  0  0
  -30.8417  -23.5284   21.0802 C   0  0  0  0  0  0  0  0  0  0  0  0
  -30.7698  -23.6821   18.6701 C   0  0  0  0  0  0  0  0  0  0  0  0
  -24.8530  -20.1880   20.9078 C   0  0  0  0  0  0  0  0  0  0  0  0
  -18.8072  -26.1742   21.9634 C   0  0  0  0  0  0  0  0  0  0  0  0
  -31.9185  -20.3497   17.7840 C   0  0  0  0  0  0  0  0  0  0  0  0
  -31.3745  -19.4513   16.8661 C   0  0  0  0  0  0  0  0  0  0  0  0
  -21.0924  -26.8091   21.5028 C   0  0  0  0  0  0  0  0  0  0  0  0
  -23.1832  -18.4853   21.2707 C   0  0  0  0  0  0  0  0  0  0  0  0
  -29.2546  -19.5555   18.0203 C   0  0  0  0  0  0  0  0  0  0  0  0
  -29.9257  -25.4978   20.0222 C   0  0  0  0  0  0  0  0  0  0  0  0
  -20.9170  -27.9779   22.2437 C   0  0  0  0  0  0  0  0  0  0  0  0
  -29.9786  -28.0432   20.1821 C   0  0  0  0  0  0  0  0  0  0  0  0
  -30.3717  -13.1832   19.4481 C   0  0  0  0  0  0  0  0  0  0  0  0
  -25.4796  -18.0689   21.9135 C   0  0  0  0  0  0  0  0  0  0  0  0
  -29.4277  -14.2197   19.3182 C   0  0  0  0  0  0  0  0  0  0  0  0
  -24.1487  -17.6352   21.8313 C   0  0  0  0  0  0  0  0  0  0  0  0
  -19.6867  -28.2448   22.8444 C   0  0  0  0  0  0  0  0  0  0  0  0
  -31.0991  -22.9744   19.8262 C   0  0  0  0  0  0  0  0  0  0  0  0
  -20.0374  -25.9073   21.3627 C   0  0  0  0  0  0  0  0  0  0  0  0
  -23.5342  -19.7540   20.8101 C   0  0  0  0  0  0  0  0  0  0  0  0
  -31.1305  -20.8509   18.8201 C   0  0  0  0  0  0  0  0  0  0  0  0
  -30.0426  -19.0542   16.9842 C   0  0  0  0  0  0  0  0  0  0  0  0
  -29.7986  -20.4539   18.9383 C   0  0  0  0  0  0  0  0  0  0  0  0
  -29.3192  -26.8009   20.1227 C   0  0  0  0  0  0  0  0  0  0  0  0
  -28.9652  -28.9660   20.2704 C   0  0  0  0  0  0  0  0  0  0  0  0
  -22.0352  -28.9022   22.3743 C   0  0  0  0  0  0  0  0  0  0  0  0
  -31.3818  -28.3368   20.1594 C   0  0  0  0  0  0  0  0  0  0  0  0
  -23.4322  -28.4239   22.3551 C   0  0  0  0  0  0  0  0  0  0  0  0
  -26.3270  -15.1099   21.1200 C   0  0  0  0  0  0  0  0  0  0  0  0
  -21.4420  -22.6938   20.4532 C   0  0  0  0  0  0  0  0  0  0  0  0
  -24.5265  -14.3194   23.6999 C   0  0  0  0  0  0  0  0  0  0  0  0
  -21.9982  -15.1554   25.8343 C   0  0  0  0  0  0  0  0  0  0  0  0
  -29.9609  -11.7758   19.8021 C   0  0  0  0  0  0  0  0  0  0  0  0
  -26.5308  -17.1886   22.5319 C   0  0  0  0  0  0  0  0  0  0  0  0
  -23.7261  -16.2752   22.3215 C   0  0  0  0  0  0  0  0  0  0  0  0
  -28.5667  -11.6847   20.4170 C   0  0  0  0  0  0  0  0  0  0  0  0
  -24.4078  -29.6663   19.0481 C   0  0  0  0  0  0  0  0  0  0  0  0
  -27.5718  -12.5118   19.6091 C   0  0  0  0  0  0  0  0  0  0  0  0
  -25.8352  -29.1355   18.9443 C   0  0  0  0  0  0  0  0  0  0  0  0
  -23.4976  -28.7119   19.8196 C   0  0  0  0  0  0  0  0  0  0  0  0
  -25.4455  -27.8233   21.0672 C   0  0  0  0  0  0  0  0  0  0  0  0
  -27.9595  -13.9955   19.6088 C   0  0  1  0  0  0  0  0  0  0  0  0
  -26.1697  -15.7069   22.4899 C   0  0  1  0  0  0  0  0  0  0  0  0
  -26.3898  -28.7898   20.3354 C   0  0  1  0  0  0  0  0  0  0  0  0
  -20.0997  -29.4009   25.0306 C   0  0  0  0  0  0  0  0  0  0  0  0
  -20.7302  -14.2919   27.8202 C   0  0  0  0  0  0  0  0  0  0  0  0
  -22.9870  -12.4109   21.8839 C   0  0  0  0  0  0  0  0  0  0  0  0
  -21.1927  -12.3107   23.6271 C   0  0  0  0  0  0  0  0  0  0  0  0
  -23.4928  -11.5055   24.1596 C   0  0  0  0  0  0  0  0  0  0  0  0
  -22.8483  -17.4378   27.5157 C   0  0  0  0  0  0  0  0  0  0  0  0
  -19.4714  -29.4887   23.6433 C   0  0  0  0  0  0  0  0  0  0  0  0
  -21.5073  -24.2002   20.6002 C   0  0  0  0  0  0  0  0  0  0  0  0
  -22.7750  -21.9746   20.4249 C   0  0  0  0  0  0  0  0  0  1  0  0
  -23.0714  -13.9874   23.9268 C   0  0  1  0  0  0  0  0  0  0  0  0
  -21.9091  -15.1294   27.3495 C   0  0  2  0  0  0  0  0  0  0  0  0
  -22.6940  -12.5786   23.3883 C   0  0  0  0  0  0  0  0  0  0  0  0
  -27.9897  -26.9201   20.1695 N   0  0  0  0  0  0  0  0  0  0  0  0
  -21.8845  -30.1906   22.5123 N   0  0  0  0  0  0  0  0  0  0  0  0
  -27.8055  -28.2483   20.2593 N   0  0  0  0  0  0  0  0  0  0  0  0
  -24.0772  -28.3501   21.1218 N   0  0  0  0  0  0  0  0  0  0  0  0
  -24.7917  -15.4488   22.9124 N   0  0  0  0  0  0  0  0  0  0  0  0
  -28.9618  -30.3133   20.3558 N   0  0  0  0  0  0  0  0  0  0  0  0
  -32.2862  -27.2702   20.0651 N   0  0  0  0  0  0  0  0  0  0  0  0
  -27.5913  -14.6143   20.8641 N   0  0  0  0  0  0  0  0  0  0  0  0
  -22.8299  -14.1658   25.3545 N   0  0  0  0  0  0  0  0  0  0  0  0
  -21.7464  -16.5115   27.8827 N   0  3  0  0  0  0  0  0  0  0  0  0
  -31.8212  -29.5091   20.2375 O   0  0  0  0  0  0  0  0  0  0  0  0
  -23.9419  -28.1140   23.4334 O   0  0  0  0  0  0  0  0  0  0  0  0
  -25.3717  -15.0982   20.3526 O   0  0  0  0  0  0  0  0  0  0  0  0
  -20.3730  -22.0922   20.3619 O   0  0  0  0  0  0  0  0  0  0  0  0
  -25.3957  -13.6072   24.2086 O   0  0  0  0  0  0  0  0  0  0  0  0
  -21.3880  -15.9697   25.1451 O   0  0  0  0  0  0  0  0  0  0  0  0
  -31.6718  -21.7434   19.7302 O   0  0  0  0  0  0  0  0  0  0  0  0
  -20.2095  -24.7557   20.6317 O   0  0  0  0  0  0  0  0  0  0  0  0
  -22.5871  -20.5685   20.2702 O   0  0  0  0  0  0  0  0  0  1  0  0
  -29.5200  -18.1927   16.1017 F   0  0  0  0  0  0  0  0  0  0  0  0
  -29.0364  -20.9330   19.9309 F   0  0  0  0  0  0  0  0  0  0  0  0
  1  2  1  0  0  0  0
  1  5  2  0  0  0  0
  2  6  2  0  0  0  0
  3  9  2  0  0  0  0
  3 18  1  0  0  0  0
  4 10  1  0  0  0  0
  4 18  2  0  0  0  0
  5 21  1  0  0  0  0
  6 23  1  0  0  0  0
  7 11  2  0  0  0  0
  7 22  1  0  0  0  0
  8 12  2  0  0  0  0
  8 25  1  0  0  0  0
  9 26  1  0  0  0  0
 10 26  2  0  0  0  0
 11 28  1  0  0  0  0
 12 27  1  0  0  0  0
 13 14  2  0  0  0  0
 13 29  1  0  0  0  0
 14 30  1  0  0  0  0
 15 19  1  0  0  0  0
 15 27  2  0  0  0  0
 16 24  1  0  0  0  0
 16 28  2  0  0  0  0
 17 30  2  0  0  0  0
 17 31  1  0  0  0  0
 18 32  1  0  0  0  0
 19 25  2  0  0  0  0
 19 34  1  0  0  0  0
 20 32  1  0  0  0  0
 20 33  2  0  0  0  0
 20 35  1  0  0  0  0
 21 23  2  0  0  0  0
 21 41  1  0  0  0  0
 22 24  2  0  0  0  0
 22 42  1  0  0  0  0
 23 50  1  0  0  0  0
 24 43  1  0  0  0  0
 25 59  1  0  0  0  0
 26 81  1  0  0  0  0
 27 82  1  0  0  0  0
 28 83  1  0  0  0  0
 29 31  2  0  0  0  0
 29 81  1  0  0  0  0
 30 84  1  0  0  0  0
 31 85  1  0  0  0  0
 32 65  2  0  0  0  0
 33 67  1  0  0  0  0
 33 70  1  0  0  0  0
 34 36  1  0  0  0  0
 34 66  2  0  0  0  0
 35 71  1  0  0  0  0
 35 75  2  0  0  0  0
 36 68  1  0  0  0  0
 36 76  2  0  0  0  0
 37 51  1  0  0  0  0
 37 72  1  0  0  0  0
 37 77  2  0  0  0  0
 38 60  1  0  0  0  0
 38 61  1  0  0  0  0
 38 78  2  0  0  0  0
 39 62  1  0  0  0  0
 39 69  1  0  0  0  0
 39 79  2  0  0  0  0
 40 63  1  0  0  0  0
 40 73  1  0  0  0  0
 40 80  2  0  0  0  0
 41 44  1  0  0  0  0
 42 51  1  0  0  0  0
 43 69  1  0  0  0  0
 44 46  1  0  0  0  0
 45 47  1  0  0  0  0
 45 48  1  0  0  0  0
 46 50  1  0  0  0  0
 47 52  1  0  0  0  0
 48 68  1  0  0  0  0
 49 52  1  0  0  0  0
 49 68  1  0  0  0  0
 50 72  1  0  0  0  0
 51 69  1  0  0  0  0
 52 67  1  0  0  0  0
 53 59  1  0  0  0  0
 54 63  1  0  0  0  0
 55 64  1  0  0  0  0
 56 64  1  0  0  0  0
 57 64  1  0  0  0  0
 58 74  1  0  0  0  0
 60 82  1  0  0  0  0
 61 83  1  0  0  0  0
 62 64  1  0  0  0  0
 62 73  1  0  0  0  0
 63 74  1  0  0  0  0
 65 67  1  0  0  0  0
M  CHG  1  74   1
M  ISO  4  34 100  36 100  61 101  83 101
M  END
> <Batch ID>
0128

> <Smiles>
CCc1ccc(OCC(=O)[101CH2:1][101O:1]c2ccc3c(c2)CN(C(=O)C(NC(=O)C(C)NC)C(C)(C)C)C(C(=O)NC2CCCc4ccccc42)C3)cc1[100C:0](=N)[100C:0](=O)N1CCCC(n2nc(-c3ccc(Oc4ccc(F)cc4F)cc3)c(C(N)=O)c2N)C1

> <Shape>
0.233

> <Color>
0.081

> <Negative vol penalty>
0.000

$$$$

  -OEChem-04052302163D

 92101  0     1  0  0  0  0  0999 V2000
  -19.9944  -31.1795   23.7563 C   0  0  0  0  0  0  0  0  0  0  0  0
  -21.3069  -30.7265   23.6699 C   0  0  0  0  0  0  0  0  0  0  0  0
  -19.8522  -15.4983   22.3749 C   0  0  0  0  0  0  0  0  0  0  0  0
  -21.4592  -17.3019   22.3340 C   0  0  0  0  0  0  0  0  0  0  0  0
  -28.9675  -18.0641   19.4791 C   0  0  0  0  0  0  0  0  0  0  0  0
  -30.4183  -17.8442   21.3984 C   0  0  0  0  0  0  0  0  0  0  0  0
  -32.2320  -24.5401   21.8336 C   0  0  0  0  0  0  0  0  0  0  0  0
  -18.9420  -30.3344   23.4065 C   0  0  0  0  0  0  0  0  0  0  0  0
  -21.5678  -29.4276   23.2347 C   0  0  0  0  0  0  0  0  0  0  0  0
  -25.3580  -29.2264   19.8823 C   0  0  0  0  0  0  0  0  0  0  0  0
  -28.8427  -16.6763   19.4143 C   0  0  0  0  0  0  0  0  0  0  0  0
  -30.2935  -16.4564   21.3337 C   0  0  0  0  0  0  0  0  0  0  0  0
  -33.2048  -23.5726   21.5823 C   0  0  0  0  0  0  0  0  0  0  0  0
  -19.1924  -16.1104   23.4404 C   0  0  0  0  0  0  0  0  0  0  0  0
  -20.7993  -17.9141   23.3995 C   0  0  0  0  0  0  0  0  0  0  0  0
  -26.6563  -29.3116   20.3832 C   0  0  0  0  0  0  0  0  0  0  0  0
  -18.0301  -19.7949   23.8625 C   0  0  0  0  0  0  0  0  0  0  0  0
  -17.7998  -21.1679   23.7775 C   0  0  0  0  0  0  0  0  0  0  0  0
  -30.5066  -22.8639   21.6086 C   0  0  0  0  0  0  0  0  0  0  0  0
  -26.8722  -26.9149   20.2147 C   0  0  0  0  0  0  0  0  0  0  0  0
  -19.0967  -21.5099   25.7870 C   0  0  0  0  0  0  0  0  0  0  0  0
  -20.9857  -16.0941   21.8216 C   0  0  0  0  0  0  0  0  0  0  0  0
  -29.7553  -18.6480   20.4711 C   0  0  0  0  0  0  0  0  0  0  0  0
  -30.8829  -24.1857   21.8468 C   0  0  0  0  0  0  0  0  0  0  0  0
  -21.4226  -15.6499   19.3479 C   0  0  0  0  0  0  0  0  0  0  0  0
  -19.1906  -29.0278   22.9577 C   0  0  0  0  0  0  0  0  0  0  0  0
  -24.8022  -27.9816   19.5535 C   0  0  0  0  0  0  0  0  0  0  0  0
  -20.5177  -28.5638   22.8799 C   0  0  0  0  0  0  0  0  0  0  0  0
  -25.5676  -26.8169   19.7073 C   0  0  0  0  0  0  0  0  0  0  0  0
  -29.5057  -15.8725   20.3416 C   0  0  0  0  0  0  0  0  0  0  0  0
  -32.8285  -22.2507   21.3441 C   0  0  0  0  0  0  0  0  0  0  0  0
  -31.4795  -21.8963   21.3573 C   0  0  0  0  0  0  0  0  0  0  0  0
  -19.6658  -17.3183   23.9528 C   0  0  0  0  0  0  0  0  0  0  0  0
  -27.4126  -28.1555   20.5522 C   0  0  0  0  0  0  0  0  0  0  0  0
  -18.7936  -19.2793   24.9098 C   0  0  0  0  0  0  0  0  0  0  0  0
  -18.3331  -22.0255   24.7397 C   0  0  0  0  0  0  0  0  0  0  0  0
  -19.3270  -20.1368   25.8720 C   0  0  0  0  0  0  0  0  0  0  0  0
  -21.6682  -15.4620   20.7213 C   0  0  0  0  0  0  0  0  0  0  0  0
  -22.3288  -14.8295   18.7216 C   0  0  0  0  0  0  0  0  0  0  0  0
  -29.8574  -25.2081   22.1128 C   0  0  0  0  0  0  0  0  0  0  0  0
  -30.0332  -26.5325   21.9810 C   0  0  0  0  0  0  0  0  0  0  0  0
  -29.8873  -20.1134   20.5407 C   0  0  0  0  0  0  0  0  0  0  0  0
  -20.4614  -16.4910   18.6965 C   0  0  0  0  0  0  0  0  0  0  0  0
  -22.3140  -26.2933   20.5841 C   0  0  0  0  0  0  0  0  0  0  0  0
  -23.1244  -24.3323   18.1305 C   0  0  0  0  0  0  0  0  0  0  0  0
  -25.5378  -23.2092   15.9949 C   0  0  0  0  0  0  0  0  0  0  0  0
  -27.6408  -12.6122   20.3702 C   0  0  0  0  0  0  0  0  0  0  0  0
  -18.0181  -28.1353   22.6359 C   0  0  0  0  0  0  0  0  0  0  0  0
  -23.4099  -27.9092   18.9891 C   0  0  0  0  0  0  0  0  0  0  0  0
  -25.0244  -25.4582   19.3502 C   0  0  0  0  0  0  0  0  0  0  0  0
  -18.3985  -26.8977   21.8273 C   0  0  0  0  0  0  0  0  0  0  0  0
  -24.7683  -10.7643   19.3651 C   0  0  0  0  0  0  0  0  0  0  0  0
  -19.6323  -26.2284   22.4243 C   0  0  0  0  0  0  0  0  0  0  0  0
  -23.6259  -11.7756   19.4747 C   0  0  0  0  0  0  0  0  0  0  0  0
  -25.8008  -10.9568   20.4735 C   0  0  0  0  0  0  0  0  0  0  0  0
  -25.1982  -13.3361   20.6960 C   0  0  0  0  0  0  0  0  0  0  0  0
  -20.8423  -27.1697   22.3888 C   0  0  1  0  0  0  0  0  0  0  0  0
  -22.7618  -26.5402   19.1712 C   0  0  1  0  0  0  0  0  0  0  0  0
  -24.1604  -13.2175   19.5667 C   0  0  2  0  0  0  0  0  0  0  0  0
  -33.8920  -21.2355   21.0765 C   0  0  0  0  0  0  0  0  0  0  0  0
  -29.3881  -28.5377   23.3195 C   0  0  0  0  0  0  0  0  0  0  0  0
  -25.9097  -21.5766   14.1258 C   0  0  0  0  0  0  0  0  0  0  0  0
  -23.1884  -22.0427   20.1464 C   0  0  0  0  0  0  0  0  0  0  0  0
  -24.4575  -20.6901   18.4648 C   0  0  0  0  0  0  0  0  0  0  0  0
  -22.1445  -21.4679   17.9477 C   0  0  0  0  0  0  0  0  0  0  0  0
  -26.2493  -25.3660   14.0973 C   0  0  0  0  0  0  0  0  0  0  0  0
  -29.3711  -14.3886   20.2726 C   0  0  0  0  0  0  0  0  0  0  0  0
  -28.9525  -27.5381   22.2562 C   0  0  1  0  0  0  0  0  0  1  0  0
  -24.0390  -23.1419   17.9706 C   0  0  1  0  0  0  0  0  0  0  0  0
  -25.5360  -23.0049   14.4907 C   0  0  2  0  0  0  0  0  0  0  0  0
  -23.4672  -21.8609   18.6410 C   0  0  0  0  0  0  0  0  0  0  0  0
  -22.6531  -14.5904   20.9544 N   0  0  0  0  0  0  0  0  0  0  0  0
  -23.0343  -14.2233   19.7191 N   0  0  0  0  0  0  0  0  0  0  0  0
  -23.6558  -25.4389   18.8080 N   0  0  0  0  0  0  0  0  0  0  0  0
  -26.2686  -12.3447   20.5060 N   0  0  0  0  0  0  0  0  0  0  0  0
  -22.5829  -14.5745   17.4205 N   0  0  0  0  0  0  0  0  0  0  0  0
  -19.6075  -17.2688   19.4902 N   0  0  0  0  0  0  0  0  0  0  0  0
  -31.0835  -20.5772   21.1215 N   0  0  0  0  0  0  0  0  0  0  0  0
  -21.4044  -27.2203   21.0561 N   0  0  0  0  0  0  0  0  0  0  0  0
  -24.2872  -23.0073   16.5393 N   0  0  0  0  0  0  0  0  0  0  0  0
  -27.9983  -13.9545   20.4055 N   0  0  0  0  0  0  0  0  0  0  0  0
  -26.5111  -23.9262   13.8416 N   0  3  0  0  0  0  0  0  0  0  0  0
  -28.9864  -20.8493   20.1438 O   0  0  0  0  0  0  0  0  0  0  0  0
  -20.3516  -16.5386   17.4478 O   0  0  0  0  0  0  0  0  0  0  0  0
  -22.7597  -25.3321   21.1999 O   0  0  0  0  0  0  0  0  0  0  0  0
  -21.9830  -24.2848   17.6651 O   0  0  0  0  0  0  0  0  0  0  0  0
  -26.5485  -23.5137   16.6245 O   0  0  0  0  0  0  0  0  0  0  0  0
  -28.4842  -11.7213   20.2227 O   0  0  0  0  0  0  0  0  0  0  0  0
  -19.0220  -17.9159   24.9924 O   0  0  0  0  0  0  0  0  0  0  0  0
  -28.6798  -28.2358   21.0416 O   0  0  0  0  0  0  0  0  0  1  0  0
  -18.1131  -23.3442   24.6571 F   0  0  0  0  0  0  0  0  0  0  0  0
  -20.0623  -19.6475   26.8798 F   0  0  0  0  0  0  0  0  0  0  0  0
  1  2  1  0  0  0  0
  1  8  2  0  0  0  0
  2  9  2  0  0  0  0
  3 14  2  0  0  0  0
  3 22  1  0  0  0  0
  4 15  1  0  0  0  0
  4 22  2  0  0  0  0
  5 11  2  0  0  0  0
  5 23  1  0  0  0  0
  6 12  1  0  0  0  0
  6 23  2  0  0  0  0
  7 13  2  0  0  0  0
  7 24  1  0  0  0  0
  8 26  1  0  0  0  0
  9 28  1  0  0  0  0
 10 16  2  0  0  0  0
 10 27  1  0  0  0  0
 11 30  1  0  0  0  0
 12 30  2  0  0  0  0
 13 31  1  0  0  0  0
 14 33  1  0  0  0  0
 15 33  2  0  0  0  0
 16 34  1  0  0  0  0
 17 18  2  0  0  0  0
 17 35  1  0  0  0  0
 18 36  1  0  0  0  0
 19 24  2  0  0  0  0
 19 32  1  0  0  0  0
 20 29  1  0  0  0  0
 20 34  2  0  0  0  0
 21 36  2  0  0  0  0
 21 37  1  0  0  0  0
 22 38  1  0  0  0  0
 23 42  1  0  0  0  0
 24 40  1  0  0  0  0
 25 38  1  0  0  0  0
 25 39  2  0  0  0  0
 25 43  1  0  0  0  0
 26 28  2  0  0  0  0
 26 48  1  0  0  0  0
 27 29  2  0  0  0  0
 27 49  1  0  0  0  0
 28 57  1  0  0  0  0
 29 50  1  0  0  0  0
 30 67  1  0  0  0  0
 31 32  2  0  0  0  0
 31 60  1  0  0  0  0
 32 78  1  0  0  0  0
 33 89  1  0  0  0  0
 34 90  1  0  0  0  0
 35 37  2  0  0  0  0
 35 89  1  0  0  0  0
 36 91  1  0  0  0  0
 37 92  1  0  0  0  0
 38 72  2  0  0  0  0
 39 73  1  0  0  0  0
 39 76  1  0  0  0  0
 40 41  2  0  0  0  0
 41 68  1  0  0  0  0
 42 78  1  0  0  0  0
 42 83  2  0  0  0  0
 43 77  1  0  0  0  0
 43 84  2  0  0  0  0
 44 58  1  0  0  0  0
 44 79  1  0  0  0  0
 44 85  2  0  0  0  0
 45 69  1  0  0  0  0
 45 74  1  0  0  0  0
 45 86  2  0  0  0  0
 46 70  1  0  0  0  0
 46 80  1  0  0  0  0
 46 87  2  0  0  0  0
 47 75  1  0  0  0  0
 47 81  1  0  0  0  0
 47 88  2  0  0  0  0
 48 51  1  0  0  0  0
 49 58  1  0  0  0  0
 50 74  1  0  0  0  0
 51 53  1  0  0  0  0
 52 54  1  0  0  0  0
 52 55  1  0  0  0  0
 53 57  1  0  0  0  0
 54 59  1  0  0  0  0
 55 75  1  0  0  0  0
 56 59  1  0  0  0  0
 56 75  1  0  0  0  0
 57 79  1  0  0  0  0
 58 74  1  0  0  0  0
 59 73  1  0  0  0  0
 61 68  1  0  0  0  0
 62 70  1  0  0  0  0
 63 71  1  0  0  0  0
 64 71  1  0  0  0  0
 65 71  1  0  0  0  0
 66 82  1  0  0  0  0
 67 81  1  0  0  0  0
 68 90  1  0  0  0  0
 69 71  1  0  0  0  0
 69 80  1  0  0  0  0
 70 82  1  0  0  0  0
 72 73  1  0  0  0  0
M  CHG  1  82   1
M  ISO  4  47 100  68 101  81 100  90 101
M  END
> <Batch ID>
0128

> <Smiles>
CNC(C)C(=O)NC(C(=O)N1Cc2cc([101O:1][101CH:1](C)C=Cc3ccc(C)c(NC(=O)c4ccc(C[100NH:0][100C:0](=O)N5CCCC(n6nc(-c7ccc(Oc8ccc(F)cc8F)cc7)c(C(N)=O)c6N)C5)cc4)c3)ccc2CC1C(=O)NC1CCCc2ccccc21)C(C)(C)C

> <Shape>
0.207

> <Color>
0.075

> <Negative vol penalty>
0.000

$$$$

  -OEChem-04052302163D

 85 93  0     1  0  0  0  0  0999 V2000
  -17.0646  -26.0566   21.8604 C   0  0  0  0  0  0  0  0  0  0  0  0
  -18.3582  -25.5533   21.9546 C   0  0  0  0  0  0  0  0  0  0  0  0
  -24.1707  -11.8629   24.1045 C   0  0  0  0  0  0  0  0  0  0  0  0
  -24.0266  -14.2641   23.8793 C   0  0  0  0  0  0  0  0  0  0  0  0
  -16.8611  -27.3938   21.5222 C   0  0  0  0  0  0  0  0  0  0  0  0
  -19.4490  -26.3866   21.7095 C   0  0  0  0  0  0  0  0  0  0  0  0
  -23.1251  -25.8374   25.1489 C   0  0  0  0  0  0  0  0  0  0  0  0
  -23.6725  -11.9548   25.4040 C   0  0  0  0  0  0  0  0  0  0  0  0
  -23.5282  -14.3560   25.1789 C   0  0  0  0  0  0  0  0  0  0  0  0
  -23.9556  -24.7249   25.0210 C   0  0  0  0  0  0  0  0  0  0  0  0
  -24.8451  -12.7620   28.4696 C   0  0  0  0  0  0  0  0  0  0  0  0
  -25.4810  -12.0149   29.4610 C   0  0  0  0  0  0  0  0  0  0  0  0
  -25.6389  -26.1079   23.9852 C   0  0  0  0  0  0  0  0  0  0  0  0
  -29.6333  -18.5068   19.7897 C   0  0  0  0  0  0  0  0  0  0  0  0
  -31.8594  -17.5725   19.6973 C   0  0  0  0  0  0  0  0  0  0  0  0
  -23.4152  -10.8421   29.9020 C   0  0  0  0  0  0  0  0  0  0  0  0
  -24.3479  -13.0176   23.3421 C   0  0  0  0  0  0  0  0  0  0  0  0
  -31.5593  -19.9547   19.9656 C   0  0  0  0  0  0  0  0  0  0  0  0
  -24.1214  -12.7678   20.8135 C   0  0  0  0  0  0  0  0  0  0  0  0
  -17.9502  -28.2464   21.2822 C   0  0  0  0  0  0  0  0  0  0  0  0
  -23.5416  -27.0936   24.6851 C   0  0  0  0  0  0  0  0  0  0  0  0
  -19.2597  -27.7362   21.3663 C   0  0  0  0  0  0  0  0  0  0  0  0
  -24.8128  -27.2353   24.1107 C   0  0  0  0  0  0  0  0  0  0  0  0
  -30.4753  -17.4013   19.6695 C   0  0  0  0  0  0  0  0  0  0  0  0
  -23.3512  -13.2014   25.9412 C   0  0  0  0  0  0  0  0  0  0  0  0
  -25.2115  -24.8594   24.4365 C   0  0  0  0  0  0  0  0  0  0  0  0
  -23.4943  -12.5493   28.1944 C   0  0  0  0  0  0  0  0  0  0  0  0
  -30.1753  -19.7835   19.9377 C   0  0  0  0  0  0  0  0  0  0  0  0
  -24.7661  -11.0549   30.1773 C   0  0  0  0  0  0  0  0  0  0  0  0
  -32.4014  -18.8492   19.8454 C   0  0  0  0  0  0  0  0  0  0  0  0
  -22.7794  -11.5894   28.9106 C   0  0  0  0  0  0  0  0  0  0  0  0
  -24.8631  -12.9233   21.9999 C   0  0  0  0  0  0  0  0  0  0  0  0
  -25.0679  -12.7322   19.8189 C   0  0  0  0  0  0  0  0  0  0  0  0
  -32.9231  -21.8490   19.2124 C   0  0  0  0  0  0  0  0  0  0  0  0
  -32.1442  -21.2801   20.1204 C   0  0  0  0  0  0  0  0  0  0  0  0
  -22.7035  -12.6647   20.6272 C   0  0  0  0  0  0  0  0  0  0  0  0
  -22.4930  -29.1327   22.4837 C   0  0  0  0  0  0  0  0  0  0  0  0
  -24.8187  -31.0381   23.7015 C   0  0  0  0  0  0  0  0  0  0  0  0
  -27.7763  -31.2835   25.3864 C   0  0  0  0  0  0  0  0  0  0  0  0
  -30.6185  -14.9022   19.3865 C   0  0  0  0  0  0  0  0  0  0  0  0
  -17.6792  -29.6726   20.8733 C   0  0  0  0  0  0  0  0  0  0  0  0
  -22.6447  -28.2891   24.8547 C   0  0  0  0  0  0  0  0  0  0  0  0
  -25.3152  -28.5660   23.6152 C   0  0  0  0  0  0  0  0  0  0  0  0
  -18.8981  -30.5834   20.9957 C   0  0  0  0  0  0  0  0  0  0  0  0
  -29.6284  -11.5005   19.0318 C   0  0  0  0  0  0  0  0  0  0  0  0
  -20.1280  -29.9135   20.3911 C   0  0  0  0  0  0  0  0  0  0  0  0
  -28.2241  -11.4665   19.6392 C   0  0  0  0  0  0  0  0  0  0  0  0
  -30.5519  -12.4513   19.7914 C   0  0  0  0  0  0  0  0  0  0  0  0
  -28.6297  -13.7806   20.5707 C   0  0  0  0  0  0  0  0  0  0  0  0
  -20.4692  -28.6150   21.1320 C   0  0  1  0  0  0  0  0  0  0  0  0
  -22.9650  -29.4192   23.8812 C   0  0  1  0  0  0  0  0  0  0  0  0
  -27.6451  -12.8858   19.8001 C   0  0  2  0  0  0  0  0  0  0  0  0
  -29.4479  -32.9709   26.1964 C   0  0  0  0  0  0  0  0  0  0  0  0
  -25.8790  -31.3494   20.8575 C   0  0  0  0  0  0  0  0  0  0  0  0
  -28.0196  -32.2158   21.8248 C   0  0  0  0  0  0  0  0  0  0  0  0
  -25.8879  -33.4528   22.2102 C   0  0  0  0  0  0  0  0  0  0  0  0
  -27.3624  -30.5088   28.2126 C   0  0  0  0  0  0  0  0  0  0  0  0
  -27.1695  -22.3326   22.7488 C   0  0  0  0  0  0  0  0  0  0  0  0
  -28.1465  -22.2726   21.5798 C   0  0  0  0  0  0  0  0  0  0  0  0
  -26.9265  -23.7652   23.2048 C   0  0  0  0  0  0  0  0  0  1  0  0
  -28.4230  -20.8384   21.1513 C   0  0  0  0  0  0  0  0  0  0  0  0
  -26.2823  -31.2605   23.4061 C   0  0  1  0  0  0  0  0  0  0  0  0
  -28.2055  -32.1659   26.5447 C   0  0  2  0  0  0  0  0  0  0  0  0
  -26.5073  -32.0440   22.0821 C   0  0  0  0  0  0  0  0  0  0  0  0
  -26.1794  -12.9824   21.7810 N   0  0  0  0  0  0  0  0  0  0  0  0
  -26.2722  -12.8632   20.4456 N   0  0  0  0  0  0  0  0  0  0  0  0
  -24.3989  -29.7038   23.7976 N   0  0  0  0  0  0  0  0  0  0  0  0
  -29.9398  -13.7773   19.9010 N   0  0  0  0  0  0  0  0  0  0  0  0
  -24.9793  -12.6019   18.4782 N   0  0  0  0  0  0  0  0  0  0  0  0
  -21.8754  -12.7201   21.7567 N   0  0  0  0  0  0  0  0  0  0  0  0
  -29.9246  -16.1045   19.5187 N   0  0  0  0  0  0  0  0  0  0  0  0
  -21.1333  -28.9072   22.3842 N   0  0  0  0  0  0  0  0  0  0  0  0
  -26.8432  -31.9087   24.5866 N   0  0  0  0  0  0  0  0  0  0  0  0
  -28.5050  -31.3353   27.7453 N   0  3  0  0  0  0  0  0  0  0  0  0
  -22.1872  -12.5110   19.4944 O   0  0  0  0  0  0  0  0  0  0  0  0
  -23.3023  -29.1188   21.5636 O   0  0  0  0  0  0  0  0  0  0  0  0
  -24.0766  -32.0124   23.8489 O   0  0  0  0  0  0  0  0  0  0  0  0
  -28.2268  -30.1542   25.2068 O   0  0  0  0  0  0  0  0  0  0  0  0
  -31.7212  -14.8020   18.8425 O   0  0  0  0  0  0  0  0  0  0  0  0
  -22.8647  -13.2914   27.2092 O   0  0  0  0  0  0  0  0  0  0  0  0
  -26.0238  -23.7750   24.3100 O   0  0  0  0  0  0  0  0  0  1  0  0
  -29.3250  -20.8524   20.0534 O   0  0  0  0  0  0  0  0  0  0  0  0
  -25.3772  -10.3364   31.1283 F   0  0  0  0  0  0  0  0  0  0  0  0
  -33.7343  -18.9959   19.8717 F   0  0  0  0  0  0  0  0  0  0  0  0
  -21.4817  -11.3797   28.6499 F   0  0  0  0  0  0  0  0  0  0  0  0
  1  2  1  0  0  0  0
  1  5  2  0  0  0  0
  2  6  2  0  0  0  0
  3  8  2  0  0  0  0
  3 17  1  0  0  0  0
  4  9  1  0  0  0  0
  4 17  2  0  0  0  0
  5 20  1  0  0  0  0
  6 22  1  0  0  0  0
  7 10  2  0  0  0  0
  7 21  1  0  0  0  0
  8 25  1  0  0  0  0
  9 25  2  0  0  0  0
 10 26  1  0  0  0  0
 11 12  2  0  0  0  0
 11 27  1  0  0  0  0
 12 29  1  0  0  0  0
 13 23  1  0  0  0  0
 13 26  2  0  0  0  0
 14 24  2  0  0  0  0
 14 28  1  0  0  0  0
 15 24  1  0  0  0  0
 15 30  2  0  0  0  0
 16 29  2  0  0  0  0
 16 31  1  0  0  0  0
 17 32  1  0  0  0  0
 18 28  2  0  0  0  0
 18 30  1  0  0  0  0
 18 35  1  0  0  0  0
 19 32  1  0  0  0  0
 19 33  2  0  0  0  0
 19 36  1  0  0  0  0
 20 22  2  0  0  0  0
 20 41  1  0  0  0  0
 21 23  2  0  0  0  0
 21 42  1  0  0  0  0
 22 50  1  0  0  0  0
 23 43  1  0  0  0  0
 24 71  1  0  0  0  0
 25 80  1  0  0  0  0
 26 81  1  0  0  0  0
 27 31  2  0  0  0  0
 27 80  1  0  0  0  0
 28 82  1  0  0  0  0
 29 83  1  0  0  0  0
 30 84  1  0  0  0  0
 31 85  1  0  0  0  0
 32 65  2  0  0  0  0
 33 66  1  0  0  0  0
 33 69  1  0  0  0  0
 34 35  2  0  0  0  0
 36 70  1  0  0  0  0
 36 75  2  0  0  0  0
 37 51  1  0  0  0  0
 37 72  1  0  0  0  0
 37 76  2  0  0  0  0
 38 62  1  0  0  0  0
 38 67  1  0  0  0  0
 38 77  2  0  0  0  0
 39 63  1  0  0  0  0
 39 73  1  0  0  0  0
 39 78  2  0  0  0  0
 40 68  1  0  0  0  0
 40 71  1  0  0  0  0
 40 79  2  0  0  0  0
 41 44  1  0  0  0  0
 42 51  1  0  0  0  0
 43 67  1  0  0  0  0
 44 46  1  0  0  0  0
 45 47  1  0  0  0  0
 45 48  1  0  0  0  0
 46 50  1  0  0  0  0
 47 52  1  0  0  0  0
 48 68  1  0  0  0  0
 49 52  1  0  0  0  0
 49 68  1  0  0  0  0
 50 72  1  0  0  0  0
 51 67  1  0  0  0  0
 52 66  1  0  0  0  0
 53 63  1  0  0  0  0
 54 64  1  0  0  0  0
 55 64  1  0  0  0  0
 56 64  1  0  0  0  0
 57 74  1  0  0  0  0
 58 59  1  0  0  0  0
 58 60  1  0  0  0  0
 59 61  1  0  0  0  0
 60 81  1  0  0  0  0
 61 82  1  0  0  0  0
 62 64  1  0  0  0  0
 62 73  1  0  0  0  0
 63 74  1  0  0  0  0
 65 66  1  0  0  0  0
M  CHG  1  74   1
M  ISO  4  40 100  60 101  71 100  81 101
M  END
> <Batch ID>
0128

> <Smiles>
C=Cc1c(F)cc([100NH:0][100C:0](=O)N2CCCC(n3nc(-c4ccc(Oc5ccc(F)cc5F)cc4)c(C(N)=O)c3N)C2)cc1OCCC[101CH2:1][101O:1]c1ccc2c(c1)CN(C(=O)C(NC(=O)C(C)NC)C(C)(C)C)C(C(=O)NC1CCCc3ccccc31)C2

> <Shape>
0.235

> <Color>
0.107

> <Negative vol penalty>
0.000

$$$$

  -OEChem-04052302163D

 82 90  0     1  0  0  0  0  0999 V2000
  -22.2426  -11.7222   22.3999 C   0  0  0  0  0  0  0  0  0  0  0  0
  -23.0016  -12.4279   23.3280 C   0  0  0  0  0  0  0  0  0  0  0  0
  -22.9308  -28.4429   22.2292 C   0  0  0  0  0  0  0  0  0  0  0  0
  -23.3439  -30.5062   21.0422 C   0  0  0  0  0  0  0  0  0  0  0  0
  -27.9362  -23.7548   24.7190 C   0  0  0  0  0  0  0  0  0  0  0  0
  -22.6857  -11.6051   21.0832 C   0  0  0  0  0  0  0  0  0  0  0  0
  -24.2049  -13.0161   22.9399 C   0  0  0  0  0  0  0  0  0  0  0  0
  -24.7175  -17.7357   24.7027 C   0  0  0  0  0  0  0  0  0  0  0  0
  -21.8359  -29.0279   22.8652 C   0  0  0  0  0  0  0  0  0  0  0  0
  -22.2489  -31.0913   21.6782 C   0  0  0  0  0  0  0  0  0  0  0  0
  -25.0866  -17.8795   26.0394 C   0  0  0  0  0  0  0  0  0  0  0  0
  -18.6220  -29.7653   22.1169 C   0  0  0  0  0  0  0  0  0  0  0  0
  -17.4432  -29.0235   22.1915 C   0  0  0  0  0  0  0  0  0  0  0  0
  -27.1150  -22.7931   25.2971 C   0  0  0  0  0  0  0  0  0  0  0  0
  -27.3664  -18.2808   25.3605 C   0  0  0  0  0  0  0  0  0  0  0  0
  -17.5333  -29.1230   24.6038 C   0  0  0  0  0  0  0  0  0  0  0  0
  -29.4303  -23.5063   26.5527 C   0  0  0  0  0  0  0  0  0  0  0  0
  -23.6848  -29.1821   21.3177 C   0  0  0  0  0  0  0  0  0  0  0  0
  -29.1176  -24.1238   25.3524 C   0  0  0  0  0  0  0  0  0  0  0  0
  -24.8161  -27.8767   19.4404 C   0  0  0  0  0  0  0  0  0  0  0  0
  -23.8902  -12.2004   20.6765 C   0  0  0  0  0  0  0  0  0  0  0  0
  -25.6738  -17.8527   23.6837 C   0  0  0  0  0  0  0  0  0  0  0  0
  -24.6653  -12.9058   21.6168 C   0  0  0  0  0  0  0  0  0  0  0  0
  -27.0064  -18.1406   24.0115 C   0  0  0  0  0  0  0  0  0  0  0  0
  -21.4949  -30.3520   22.5897 C   0  0  0  0  0  0  0  0  0  0  0  0
  -26.4117  -18.1493   26.3687 C   0  0  0  0  0  0  0  0  0  0  0  0
  -19.2565  -30.1860   23.2857 C   0  0  0  0  0  0  0  0  0  0  0  0
  -16.8988  -28.7023   23.4349 C   0  0  0  0  0  0  0  0  0  0  0  0
  -18.7122  -29.8649   24.5291 C   0  0  0  0  0  0  0  0  0  0  0  0
  -24.8164  -28.5785   20.6608 C   0  0  0  0  0  0  0  0  0  0  0  0
  -27.5174  -22.2350   26.4998 C   0  0  0  0  0  0  0  0  0  0  0  0
  -26.1264  -27.5090   19.2555 C   0  0  0  0  0  0  0  0  0  0  0  0
  -30.0097  -25.1385   24.7639 C   0  0  0  0  0  0  0  0  0  0  0  0
  -23.7286  -27.5836   18.5533 C   0  0  0  0  0  0  0  0  0  0  0  0
  -26.8111  -15.9086   21.4408 C   0  0  0  0  0  0  0  0  0  0  0  0
  -28.3702  -18.5807   20.4654 C   0  0  0  0  0  0  0  0  0  0  0  0
  -29.6332  -21.6504   21.2585 C   0  0  0  0  0  0  0  0  0  0  0  0
  -30.6164  -26.6608   23.1495 C   0  0  0  0  0  0  0  0  0  0  0  0
  -24.3516  -12.0067   19.2537 C   0  0  0  0  0  0  0  0  0  0  0  0
  -25.2545  -17.7213   22.2452 C   0  0  0  0  0  0  0  0  0  0  0  0
  -28.0675  -18.2958   22.9539 C   0  0  0  0  0  0  0  0  0  0  0  0
  -25.4524  -12.9769   18.8329 C   0  0  0  0  0  0  0  0  0  0  0  0
  -30.5895  -28.8624   20.2935 C   0  0  0  0  0  0  0  0  0  0  0  0
  -26.5346  -13.0542   19.9053 C   0  0  0  0  0  0  0  0  0  0  0  0
  -29.1007  -29.0002   19.9756 C   0  0  0  0  0  0  0  0  0  0  0  0
  -30.8329  -28.7445   21.7950 C   0  0  0  0  0  0  0  0  0  0  0  0
  -28.5766  -27.7717   22.1287 C   0  0  0  0  0  0  0  0  0  0  0  0
  -25.9637  -13.5789   21.2283 C   0  0  1  0  0  0  0  0  0  0  0  0
  -26.4081  -17.3509   21.3181 C   0  0  1  0  0  0  0  0  0  0  0  0
  -28.2900  -27.8617   20.6200 C   0  0  1  0  0  0  0  0  0  0  0  0
  -30.6992  -23.8935   20.8986 C   0  0  0  0  0  0  0  0  0  0  0  0
  -26.0251  -18.8644   29.8581 C   0  0  0  0  0  0  0  0  0  0  0  0
  -30.9570  -16.9680   20.5964 C   0  0  0  0  0  0  0  0  0  0  0  0
  -32.2241  -19.1263   20.5306 C   0  0  0  0  0  0  0  0  0  0  0  0
  -30.7683  -18.4777   18.6116 C   0  0  0  0  0  0  0  0  0  0  0  0
  -27.0232  -22.9312   20.7050 C   0  0  0  0  0  0  0  0  0  0  0  0
  -26.9721  -20.6092   28.3123 C   0  0  0  0  0  0  0  0  0  0  0  0
  -29.7023  -19.2168   20.7817 C   0  0  1  0  0  0  0  0  0  0  0  0
  -29.5163  -22.9969   20.5674 C   0  0  2  0  0  0  0  0  0  0  0  0
  -26.1422  -19.3316   28.4145 C   0  0  1  0  0  0  0  0  0  1  0  0
  -30.8935  -18.4424   20.1503 C   0  0  0  0  0  0  0  0  0  0  0  0
  -28.6578  -22.5681   27.1449 N   0  0  0  0  0  0  0  0  0  0  0  0
  -26.0305  -28.6533   21.2123 N   0  0  0  0  0  0  0  0  0  0  0  0
  -29.7331  -25.7195   23.6426 N   0  0  0  0  0  0  0  0  0  0  0  0
  -26.8054  -27.9937   20.3345 N   0  0  0  0  0  0  0  0  0  0  0  0
  -27.6091  -18.1521   21.5622 N   0  0  0  0  0  0  0  0  0  0  0  0
  -30.0211  -27.6749   22.3771 N   0  0  0  0  0  0  0  0  0  0  0  0
  -26.7525  -26.8216   18.2768 N   0  0  0  0  0  0  0  0  0  0  0  0
  -22.4468  -28.0359   18.8951 N   0  0  0  0  0  0  0  0  0  0  0  0
  -26.6883  -21.2799   27.0638 N   0  0  0  0  0  0  0  0  0  0  0  0
  -25.7925  -15.0148   21.1707 N   0  0  0  0  0  0  0  0  0  0  0  0
  -29.6014  -20.6085   20.3559 N   0  0  0  0  0  0  0  0  0  0  0  0
  -28.2675  -23.6904   20.9921 N   0  3  0  0  0  0  0  0  0  0  0  0
  -23.8858  -26.9254   17.4971 O   0  0  0  0  0  0  0  0  0  0  0  0
  -27.9616  -15.6275   21.7558 O   0  0  0  0  0  0  0  0  0  0  0  0
  -28.0147  -18.4748   19.2890 O   0  0  0  0  0  0  0  0  0  0  0  0
  -29.7455  -21.5345   22.4769 O   0  0  0  0  0  0  0  0  0  0  0  0
  -31.8315  -26.6397   23.3598 O   0  0  0  0  0  0  0  0  0  0  0  0
  -20.4264  -30.9231   23.2099 O   0  0  0  0  0  0  0  0  0  0  0  0
  -26.7747  -18.2895   27.6727 O   0  0  0  0  0  0  0  0  0  1  0  0
  -15.7659  -27.9912   23.5064 F   0  0  0  0  0  0  0  0  0  0  0  0
  -19.3166  -30.2672   25.6554 F   0  0  0  0  0  0  0  0  0  0  0  0
  1  2  1  0  0  0  0
  1  6  2  0  0  0  0
  2  7  2  0  0  0  0
  3  9  2  0  0  0  0
  3 18  1  0  0  0  0
  4 10  1  0  0  0  0
  4 18  2  0  0  0  0
  5 14  2  0  0  0  0
  5 19  1  0  0  0  0
  6 21  1  0  0  0  0
  7 23  1  0  0  0  0
  8 11  2  0  0  0  0
  8 22  1  0  0  0  0
  9 25  1  0  0  0  0
 10 25  2  0  0  0  0
 11 26  1  0  0  0  0
 12 13  2  0  0  0  0
 12 27  1  0  0  0  0
 13 28  1  0  0  0  0
 14 31  1  0  0  0  0
 15 24  1  0  0  0  0
 15 26  2  0  0  0  0
 16 28  2  0  0  0  0
 16 29  1  0  0  0  0
 17 19  2  0  0  0  0
 17 62  1  0  0  0  0
 18 30  1  0  0  0  0
 19 33  1  0  0  0  0
 20 30  1  0  0  0  0
 20 32  2  0  0  0  0
 20 34  1  0  0  0  0
 21 23  2  0  0  0  0
 21 39  1  0  0  0  0
 22 24  2  0  0  0  0
 22 40  1  0  0  0  0
 23 48  1  0  0  0  0
 24 41  1  0  0  0  0
 25 79  1  0  0  0  0
 26 80  1  0  0  0  0
 27 29  2  0  0  0  0
 27 79  1  0  0  0  0
 28 81  1  0  0  0  0
 29 82  1  0  0  0  0
 30 63  2  0  0  0  0
 31 62  2  0  0  0  0
 31 70  1  0  0  0  0
 32 65  1  0  0  0  0
 32 68  1  0  0  0  0
 33 64  2  0  0  0  0
 34 69  1  0  0  0  0
 34 74  2  0  0  0  0
 35 49  1  0  0  0  0
 35 71  1  0  0  0  0
 35 75  2  0  0  0  0
 36 58  1  0  0  0  0
 36 66  1  0  0  0  0
 36 76  2  0  0  0  0
 37 59  1  0  0  0  0
 37 72  1  0  0  0  0
 37 77  2  0  0  0  0
 38 64  1  0  0  0  0
 38 67  1  0  0  0  0
 38 78  2  0  0  0  0
 39 42  1  0  0  0  0
 40 49  1  0  0  0  0
 41 66  1  0  0  0  0
 42 44  1  0  0  0  0
 43 45  1  0  0  0  0
 43 46  1  0  0  0  0
 44 48  1  0  0  0  0
 45 50  1  0  0  0  0
 46 67  1  0  0  0  0
 47 50  1  0  0  0  0
 47 67  1  0  0  0  0
 48 71  1  0  0  0  0
 49 66  1  0  0  0  0
 50 65  1  0  0  0  0
 51 59  1  0  0  0  0
 52 60  1  0  0  0  0
 53 61  1  0  0  0  0
 54 61  1  0  0  0  0
 55 61  1  0  0  0  0
 56 73  1  0  0  0  0
 57 60  1  0  0  0  0
 57 70  1  0  0  0  0
 58 61  1  0  0  0  0
 58 72  1  0  0  0  0
 59 73  1  0  0  0  0
 60 80  1  0  0  0  0
 63 65  1  0  0  0  0
M  CHG  1  73   1
M  ISO  4  38 100  60 101  64 100  80 101
M  END
> <Batch ID>
0128

> <Smiles>
CNC(C)C(=O)NC(C(=O)N1Cc2cc([101O:1][101CH:1](C)CNc3ccc(C=[100N:0][100C:0](=O)N4CCCC(n5nc(-c6ccc(Oc7ccc(F)cc7F)cc6)c(C(N)=O)c5N)C4)cn3)ccc2CC1C(=O)NC1CCCc2ccccc21)C(C)(C)C

> <Shape>
0.224

> <Color>
0.058

> <Negative vol penalty>
0.000

$$$$

  -OEChem-04052302163D

 87 95  0     1  0  0  0  0  0999 V2000
  -26.8490  -33.2896   26.5234 C   0  0  0  0  0  0  0  0  0  0  0  0
  -27.6892  -32.3885   25.8772 C   0  0  0  0  0  0  0  0  0  0  0  0
  -19.3321  -15.5268   20.0991 C   0  0  0  0  0  0  0  0  0  0  0  0
  -20.3461  -16.7375   21.9274 C   0  0  0  0  0  0  0  0  0  0  0  0
  -25.4730  -33.0659   26.5446 C   0  0  0  0  0  0  0  0  0  0  0  0
  -27.1538  -31.2625   25.2527 C   0  0  0  0  0  0  0  0  0  0  0  0
  -29.1717  -28.5871   20.1266 C   0  0  0  0  0  0  0  0  0  0  0  0
  -18.0681  -15.7827   20.6306 C   0  0  0  0  0  0  0  0  0  0  0  0
  -19.0821  -16.9935   22.4590 C   0  0  0  0  0  0  0  0  0  0  0  0
  -29.9813  -27.4739   19.9057 C   0  0  0  0  0  0  0  0  0  0  0  0
  -16.1431  -17.6588   24.4910 C   0  0  0  0  0  0  0  0  0  0  0  0
  -15.9681  -17.4788   25.8630 C   0  0  0  0  0  0  0  0  0  0  0  0
  -28.0141  -26.1054   19.6291 C   0  0  0  0  0  0  0  0  0  0  0  0
  -32.1760  -16.0461   21.6559 C   0  0  0  0  0  0  0  0  0  0  0  0
  -30.6565  -14.1693   21.7314 C   0  0  0  0  0  0  0  0  0  0  0  0
  -16.5789  -15.1523   25.6356 C   0  0  0  0  0  0  0  0  0  0  0  0
  -20.4711  -16.0042   20.7475 C   0  0  0  0  0  0  0  0  0  0  0  0
  -22.4894  -16.5324   19.2795 C   0  0  0  0  0  0  0  0  0  0  0  0
  -24.9196  -31.9417   25.9117 C   0  0  0  0  0  0  0  0  0  0  0  0
  -27.7747  -28.4656   20.1112 C   0  0  0  0  0  0  0  0  0  0  0  0
  -25.7692  -31.0229   25.2665 C   0  0  0  0  0  0  0  0  0  0  0  0
  -27.1889  -27.2192   19.8475 C   0  0  0  0  0  0  0  0  0  0  0  0
  -31.2330  -16.7808   20.9374 C   0  0  0  0  0  0  0  0  0  0  0  0
  -30.0016  -16.2098   20.6158 C   0  0  0  0  0  0  0  0  0  0  0  0
  -29.7134  -14.9040   21.0128 C   0  0  0  0  0  0  0  0  0  0  0  0
  -17.9431  -16.5160   21.8105 C   0  0  0  0  0  0  0  0  0  0  0  0
  -29.4026  -26.2322   19.6598 C   0  0  0  0  0  0  0  0  0  0  0  0
  -16.5359  -16.5856   23.6912 C   0  0  0  0  0  0  0  0  0  0  0  0
  -16.1861  -16.2255   26.4354 C   0  0  0  0  0  0  0  0  0  0  0  0
  -31.8878  -14.7403   22.0529 C   0  0  0  0  0  0  0  0  0  0  0  0
  -16.7538  -15.3324   24.2635 C   0  0  0  0  0  0  0  0  0  0  0  0
  -21.7771  -15.7397   20.1993 C   0  0  0  0  0  0  0  0  0  0  0  0
  -23.6657  -15.8522   19.0787 C   0  0  0  0  0  0  0  0  0  0  0  0
  -30.3781  -21.5702   20.6391 C   0  0  0  0  0  0  0  0  0  0  0  0
  -31.2876  -20.6565   21.0026 C   0  0  0  0  0  0  0  0  0  0  0  0
  -22.1209  -17.7727   18.6620 C   0  0  0  0  0  0  0  0  0  0  0  0
  -30.7948  -22.9400   20.2280 C   0  0  0  0  0  0  0  0  0  0  0  0
  -25.4594  -28.9266   22.2396 C   0  0  0  0  0  0  0  0  0  0  0  0
  -23.5358  -28.3417   19.6940 C   0  0  0  0  0  0  0  0  0  0  0  0
  -23.1516  -26.9039   16.6228 C   0  0  0  0  0  0  0  0  0  0  0  0
  -28.0453  -13.0162   21.0227 C   0  0  0  0  0  0  0  0  0  0  0  0
  -23.4309  -31.7174   26.0018 C   0  0  0  0  0  0  0  0  0  0  0  0
  -26.9153  -29.6813   20.3247 C   0  0  0  0  0  0  0  0  0  0  0  0
  -25.6942  -27.0396   19.8002 C   0  0  0  0  0  0  0  0  0  0  0  0
  -22.9066  -30.6969   24.9948 C   0  0  0  0  0  0  0  0  0  0  0  0
  -25.0466  -11.1817   20.4576 C   0  0  0  0  0  0  0  0  0  0  0  0
  -23.7925  -29.4552   24.9826 C   0  0  0  0  0  0  0  0  0  0  0  0
  -23.9873  -12.2692   20.2644 C   0  0  0  0  0  0  0  0  0  0  0  0
  -26.0794  -11.5770   21.5115 C   0  0  0  0  0  0  0  0  0  0  0  0
  -25.6579  -13.9697   21.1036 C   0  0  0  0  0  0  0  0  0  0  0  0
  -25.2239  -29.8029   24.5564 C   0  0  1  0  0  0  0  0  0  0  0  0
  -25.5048  -29.3407   20.7960 C   0  0  1  0  0  0  0  0  0  0  0  0
  -24.6325  -13.6447   20.0052 C   0  0  2  0  0  0  0  0  0  0  0  0
  -28.9317  -16.5851   18.3795 C   0  0  0  0  0  0  0  0  0  0  0  0
  -21.4546  -26.5624   14.8060 C   0  0  0  0  0  0  0  0  0  0  0  0
  -22.1632  -26.2021   21.3816 C   0  0  0  0  0  0  0  0  0  0  0  0
  -21.1707  -25.2778   19.2771 C   0  0  0  0  0  0  0  0  0  0  0  0
  -20.6119  -27.5979   20.0034 C   0  0  0  0  0  0  0  0  0  0  0  0
  -24.8052  -28.3579   14.6453 C   0  0  0  0  0  0  0  0  0  0  0  0
  -31.5699  -18.1921   20.5219 C   0  0  0  0  0  0  0  0  0  0  0  0
  -28.9925  -17.0018   19.8447 C   0  0  0  0  0  0  0  0  0  0  0  0
  -30.9287  -19.2570   21.4193 C   0  0  0  0  0  0  0  0  0  0  0  0
  -29.6694  -23.8760   19.8411 C   0  0  0  0  0  0  0  0  0  1  0  0
  -22.9154  -27.1080   19.0839 C   0  0  1  0  0  0  0  0  0  0  0  0
  -22.5822  -27.4423   15.3227 C   0  0  2  0  0  0  0  0  0  0  0  0
  -21.7435  -26.5491   19.9392 C   0  0  0  0  0  0  0  0  0  0  0  0
  -22.4449  -14.6399   20.5578 N   0  0  0  0  0  0  0  0  0  0  0  0
  -23.5892  -14.7367   19.8597 N   0  0  0  0  0  0  0  0  0  0  0  0
  -24.8965  -28.2570   20.0215 N   0  0  0  0  0  0  0  0  0  0  0  0
  -26.6512  -12.8884   21.1982 N   0  0  0  0  0  0  0  0  0  0  0  0
  -24.7475  -16.1054   18.3120 N   0  0  0  0  0  0  0  0  0  0  0  0
  -20.8764  -18.3335   18.9798 N   0  0  0  0  0  0  0  0  0  0  0  0
  -28.4696  -14.3037   20.6958 N   0  0  0  0  0  0  0  0  0  0  0  0
  -25.2956  -29.9777   23.1215 N   0  0  0  0  0  0  0  0  0  0  0  0
  -22.5408  -27.4707   17.7214 N   0  0  0  0  0  0  0  0  0  0  0  0
  -23.6443  -27.5062   14.2792 N   0  3  0  0  0  0  0  0  0  0  0  0
  -22.8660  -18.3578   17.8397 O   0  0  0  0  0  0  0  0  0  0  0  0
  -31.9738  -23.2826   20.2050 O   0  0  0  0  0  0  0  0  0  0  0  0
  -25.5635  -27.7410   22.5316 O   0  0  0  0  0  0  0  0  0  0  0  0
  -22.8406  -29.3458   19.8667 O   0  0  0  0  0  0  0  0  0  0  0  0
  -24.0461  -26.0618   16.6601 O   0  0  0  0  0  0  0  0  0  0  0  0
  -28.8038  -12.0488   21.1260 O   0  0  0  0  0  0  0  0  0  0  0  0
  -16.7099  -16.7661   22.3293 O   0  0  0  0  0  0  0  0  0  0  0  0
  -30.1906  -25.1438   19.4446 O   0  0  0  0  0  0  0  0  0  1  0  0
  -16.0195  -16.0531   27.7532 F   0  0  0  0  0  0  0  0  0  0  0  0
  -32.7942  -14.0338   22.7411 F   0  0  0  0  0  0  0  0  0  0  0  0
  -17.1324  -14.2979   23.5005 F   0  0  0  0  0  0  0  0  0  0  0  0
  1  2  1  0  0  0  0
  1  5  2  0  0  0  0
  2  6  2  0  0  0  0
  3  8  2  0  0  0  0
  3 17  1  0  0  0  0
  4  9  1  0  0  0  0
  4 17  2  0  0  0  0
  5 19  1  0  0  0  0
  6 21  1  0  0  0  0
  7 10  2  0  0  0  0
  7 20  1  0  0  0  0
  8 26  1  0  0  0  0
  9 26  2  0  0  0  0
 10 27  1  0  0  0  0
 11 12  2  0  0  0  0
 11 28  1  0  0  0  0
 12 29  1  0  0  0  0
 13 22  1  0  0  0  0
 13 27  2  0  0  0  0
 14 23  2  0  0  0  0
 14 30  1  0  0  0  0
 15 25  1  0  0  0  0
 15 30  2  0  0  0  0
 16 29  2  0  0  0  0
 16 31  1  0  0  0  0
 17 32  1  0  0  0  0
 18 32  1  0  0  0  0
 18 33  2  0  0  0  0
 18 36  1  0  0  0  0
 19 21  2  0  0  0  0
 19 42  1  0  0  0  0
 20 22  2  0  0  0  0
 20 43  1  0  0  0  0
 21 51  1  0  0  0  0
 22 44  1  0  0  0  0
 23 24  1  0  0  0  0
 23 60  1  0  0  0  0
 24 25  2  0  0  0  0
 24 61  1  0  0  0  0
 25 73  1  0  0  0  0
 26 83  1  0  0  0  0
 27 84  1  0  0  0  0
 28 31  2  0  0  0  0
 28 83  1  0  0  0  0
 29 85  1  0  0  0  0
 30 86  1  0  0  0  0
 31 87  1  0  0  0  0
 32 67  2  0  0  0  0
 33 68  1  0  0  0  0
 33 71  1  0  0  0  0
 34 35  2  0  0  0  0
 34 37  1  0  0  0  0
 35 62  1  0  0  0  0
 36 72  1  0  0  0  0
 36 77  2  0  0  0  0
 37 63  1  0  0  0  0
 37 78  2  0  0  0  0
 38 52  1  0  0  0  0
 38 74  1  0  0  0  0
 38 79  2  0  0  0  0
 39 64  1  0  0  0  0
 39 69  1  0  0  0  0
 39 80  2  0  0  0  0
 40 65  1  0  0  0  0
 40 75  1  0  0  0  0
 40 81  2  0  0  0  0
 41 70  1  0  0  0  0
 41 73  1  0  0  0  0
 41 82  2  0  0  0  0
 42 45  1  0  0  0  0
 43 52  1  0  0  0  0
 44 69  1  0  0  0  0
 45 47  1  0  0  0  0
 46 48  1  0  0  0  0
 46 49  1  0  0  0  0
 47 51  1  0  0  0  0
 48 53  1  0  0  0  0
 49 70  1  0  0  0  0
 50 53  1  0  0  0  0
 50 70  1  0  0  0  0
 51 74  1  0  0  0  0
 52 69  1  0  0  0  0
 53 68  1  0  0  0  0
 54 61  1  0  0  0  0
 55 65  1  0  0  0  0
 56 66  1  0  0  0  0
 57 66  1  0  0  0  0
 58 66  1  0  0  0  0
 59 76  1  0  0  0  0
 60 62  1  0  0  0  0
 63 84  1  0  0  0  0
 64 66  1  0  0  0  0
 64 75  1  0  0  0  0
 65 76  1  0  0  0  0
 67 68  1  0  0  0  0
M  CHG  1  76   1
M  ISO  4  41 100  63 101  73 100  84 101
M  END
> <Batch ID>
0128

> <Smiles>
CCc1c(CCC=CC(=O)[101CH2:1][101O:1]c2ccc3c(c2)CN(C(=O)C(NC(=O)C(C)NC)C(C)(C)C)C(C(=O)NC2CCCc4ccccc42)C3)cc(F)cc1[100NH:0][100C:0](=O)N1CCCC(n2nc(-c3ccc(Oc4ccc(F)cc4F)cc3)c(C(N)=O)c2N)C1

> <Shape>
0.233

> <Color>
0.068

> <Negative vol penalty>
0.000

$$$$

  -OEChem-04052302163D

 85 93  0     1  0  0  0  0  0999 V2000
  -31.9295  -34.4220   26.2295 C   0  0  0  0  0  0  0  0  0  0  0  0
  -31.8420  -33.3160   25.3900 C   0  0  0  0  0  0  0  0  0  0  0  0
  -23.0936   -9.7239   19.9821 C   0  0  0  0  0  0  0  0  0  0  0  0
  -23.7167   -9.9320   22.3071 C   0  0  0  0  0  0  0  0  0  0  0  0
  -30.8630  -34.7461   27.0670 C   0  0  0  0  0  0  0  0  0  0  0  0
  -30.6883  -32.5329   25.3884 C   0  0  0  0  0  0  0  0  0  0  0  0
  -28.1908  -29.6673   20.5866 C   0  0  0  0  0  0  0  0  0  0  0  0
  -22.3494   -8.5834   20.2836 C   0  0  0  0  0  0  0  0  0  0  0  0
  -22.9724   -8.7915   22.6086 C   0  0  0  0  0  0  0  0  0  0  0  0
  -28.2573  -28.3470   20.1437 C   0  0  0  0  0  0  0  0  0  0  0  0
  -23.3333   -5.4400   22.3472 C   0  0  0  0  0  0  0  0  0  0  0  0
  -23.9169   -4.4874   23.1823 C   0  0  0  0  0  0  0  0  0  0  0  0
  -26.1824  -27.8686   21.2774 C   0  0  0  0  0  0  0  0  0  0  0  0
  -29.4666  -19.4151   21.9832 C   0  0  0  0  0  0  0  0  0  0  0  0
  -31.0319  -17.6917   20.4461 C   0  0  0  0  0  0  0  0  0  0  0  0
  -22.1158   -4.7734   24.7671 C   0  0  0  0  0  0  0  0  0  0  0  0
  -23.7773  -10.3982   20.9939 C   0  0  0  0  0  0  0  0  0  0  0  0
  -24.0970  -12.9101   20.6843 C   0  0  0  0  0  0  0  0  0  0  0  0
  -29.6918  -33.9723   27.0685 C   0  0  0  0  0  0  0  0  0  0  0  0
  -27.1234  -30.0961   21.3887 C   0  0  0  0  0  0  0  0  0  0  0  0
  -29.6056  -32.8463   26.2276 C   0  0  0  0  0  0  0  0  0  0  0  0
  -26.1034  -29.1955   21.7271 C   0  0  0  0  0  0  0  0  0  0  0  0
  -29.3006  -18.0348   22.0960 C   0  0  0  0  0  0  0  0  0  0  0  0
  -30.4153  -19.9338   21.1018 C   0  0  0  0  0  0  0  0  0  0  0  0
  -30.0832  -17.1731   21.3275 C   0  0  0  0  0  0  0  0  0  0  0  0
  -22.2887   -8.1172   21.5968 C   0  0  0  0  0  0  0  0  0  0  0  0
  -27.2545  -27.4467   20.4914 C   0  0  0  0  0  0  0  0  0  0  0  0
  -22.1410   -6.0594   22.7220 C   0  0  0  0  0  0  0  0  0  0  0  0
  -23.3081   -4.1541   24.3923 C   0  0  0  0  0  0  0  0  0  0  0  0
  -31.1979  -19.0721   20.3333 C   0  0  0  0  0  0  0  0  0  0  0  0
  -21.5322   -5.7261   23.9319 C   0  0  0  0  0  0  0  0  0  0  0  0
  -24.5467  -11.5761   20.6830 C   0  0  0  0  0  0  0  0  0  0  0  0
  -25.2002  -13.6447   20.3238 C   0  0  0  0  0  0  0  0  0  0  0  0
  -29.8470  -21.9076   20.0986 C   0  0  0  0  0  0  0  0  0  0  0  0
  -22.7983  -13.4381   20.9846 C   0  0  0  0  0  0  0  0  0  0  0  0
  -26.8576  -31.2590   24.3350 C   0  0  0  0  0  0  0  0  0  0  0  0
  -28.6038  -24.1058   20.0981 C   0  0  0  0  0  0  0  0  0  0  0  0
  -23.7525  -31.6495   23.4818 C   0  0  0  0  0  0  0  0  0  0  0  0
  -21.1562  -30.6997   21.4808 C   0  0  0  0  0  0  0  0  0  0  0  0
  -30.6343  -14.7893   20.7272 C   0  0  0  0  0  0  0  0  0  0  0  0
  -28.5838  -34.3343   28.0256 C   0  0  0  0  0  0  0  0  0  0  0  0
  -27.0526  -31.5304   21.8362 C   0  0  0  0  0  0  0  0  0  0  0  0
  -24.9258  -29.6110   22.5691 C   0  0  0  0  0  0  0  0  0  0  0  0
  -27.2497  -33.6718   27.6915 C   0  0  0  0  0  0  0  0  0  0  0  0
  -29.6891  -12.1710   18.5072 C   0  0  0  0  0  0  0  0  0  0  0  0
  -27.4494  -32.1888   27.3956 C   0  0  0  0  0  0  0  0  0  0  0  0
  -28.2300  -11.8926   18.8755 C   0  0  0  0  0  0  0  0  0  0  0  0
  -30.5290  -12.5128   19.7367 C   0  0  0  0  0  0  0  0  0  0  0  0
  -28.5357  -13.3176   20.9402 C   0  0  0  0  0  0  0  0  0  0  0  0
  -28.3610  -31.9868   26.1792 C   0  0  1  0  0  0  0  0  0  0  0  0
  -26.1852  -31.7275   23.0756 C   0  0  1  0  0  0  0  0  0  0  0  0
  -27.6362  -13.0322   19.7265 C   0  0  2  0  0  0  0  0  0  0  0  0
  -28.2767  -17.5064   23.0478 C   0  0  0  0  0  0  0  0  0  0  0  0
  -18.7312  -31.1735   21.0427 C   0  0  0  0  0  0  0  0  0  0  0  0
  -22.9965  -30.0891   25.9925 C   0  0  0  0  0  0  0  0  0  0  0  0
  -20.7088  -29.7759   25.0248 C   0  0  0  0  0  0  0  0  0  0  0  0
  -21.5476  -32.0722   25.5210 C   0  0  0  0  0  0  0  0  0  0  0  0
  -21.7041  -31.5423   18.6971 C   0  0  0  0  0  0  0  0  0  0  0  0
  -29.9245  -23.3939   19.8972 C   0  0  0  0  0  0  0  0  0  0  0  0
  -28.6164  -25.6023   19.8595 C   0  0  0  0  0  0  0  0  0  1  0  0
  -22.5075  -30.7991   23.5589 C   0  0  1  0  0  0  0  0  0  0  0  0
  -20.1653  -31.5095   20.6642 C   0  0  2  0  0  0  0  0  0  0  0  0
  -21.9632  -30.6755   25.0100 C   0  0  0  0  0  0  0  0  0  0  0  0
  -25.8351  -11.4666   20.3480 N   0  0  0  0  0  0  0  0  0  0  0  0
  -30.5808  -21.3245   20.9891 N   0  0  0  0  0  0  0  0  0  0  0  0
  -26.2044  -12.7412   20.1355 N   0  0  0  0  0  0  0  0  0  0  0  0
  -24.9049  -31.0224   22.9874 N   0  0  0  0  0  0  0  0  0  0  0  0
  -29.9076  -13.6032   20.4915 N   0  0  0  0  0  0  0  0  0  0  0  0
  -25.3994  -14.9688   20.1527 N   0  0  0  0  0  0  0  0  0  0  0  0
  -21.7786  -12.5435   21.3371 N   0  0  0  0  0  0  0  0  0  0  0  0
  -29.9293  -15.7680   21.4270 N   0  0  0  0  0  0  0  0  0  0  0  0
  -27.6286  -32.2244   24.9538 N   0  0  0  0  0  0  0  0  0  0  0  0
  -21.5594  -31.3767   22.6123 N   0  0  0  0  0  0  0  0  0  0  0  0
  -20.3446  -31.2342   19.2106 N   0  3  0  0  0  0  0  0  0  0  0  0
  -22.5451  -14.6652   20.9257 O   0  0  0  0  0  0  0  0  0  0  0  0
  -26.6882  -30.1073   24.7179 O   0  0  0  0  0  0  0  0  0  0  0  0
  -27.5833  -23.5098   20.4402 O   0  0  0  0  0  0  0  0  0  0  0  0
  -23.7024  -32.8288   23.8402 O   0  0  0  0  0  0  0  0  0  0  0  0
  -21.5320  -29.5772   21.1500 O   0  0  0  0  0  0  0  0  0  0  0  0
  -31.7871  -14.9372   20.3133 O   0  0  0  0  0  0  0  0  0  0  0  0
  -21.5624   -7.0044   21.8914 O   0  0  0  0  0  0  0  0  0  0  0  0
  -27.3172  -26.1573   20.0610 O   0  0  0  0  0  0  0  0  0  1  0  0
  -23.8679   -3.2381   25.1934 F   0  0  0  0  0  0  0  0  0  0  0  0
  -32.1125  -19.5619   19.4846 F   0  0  0  0  0  0  0  0  0  0  0  0
  -20.3861   -6.3169   24.2969 F   0  0  0  0  0  0  0  0  0  0  0  0
  1  2  1  0  0  0  0
  1  5  2  0  0  0  0
  2  6  2  0  0  0  0
  3  8  2  0  0  0  0
  3 17  1  0  0  0  0
  4  9  1  0  0  0  0
  4 17  2  0  0  0  0
  5 19  1  0  0  0  0
  6 21  1  0  0  0  0
  7 10  2  0  0  0  0
  7 20  1  0  0  0  0
  8 26  1  0  0  0  0
  9 26  2  0  0  0  0
 10 27  1  0  0  0  0
 11 12  2  0  0  0  0
 11 28  1  0  0  0  0
 12 29  1  0  0  0  0
 13 22  1  0  0  0  0
 13 27  2  0  0  0  0
 14 23  2  0  0  0  0
 14 24  1  0  0  0  0
 15 25  2  0  0  0  0
 15 30  1  0  0  0  0
 16 29  2  0  0  0  0
 16 31  1  0  0  0  0
 17 32  1  0  0  0  0
 18 32  1  0  0  0  0
 18 33  2  0  0  0  0
 18 35  1  0  0  0  0
 19 21  2  0  0  0  0
 19 41  1  0  0  0  0
 20 22  2  0  0  0  0
 20 42  1  0  0  0  0
 21 50  1  0  0  0  0
 22 43  1  0  0  0  0
 23 25  1  0  0  0  0
 23 53  1  0  0  0  0
 24 30  2  0  0  0  0
 24 65  1  0  0  0  0
 25 71  1  0  0  0  0
 26 81  1  0  0  0  0
 27 82  1  0  0  0  0
 28 31  2  0  0  0  0
 28 81  1  0  0  0  0
 29 83  1  0  0  0  0
 30 84  1  0  0  0  0
 31 85  1  0  0  0  0
 32 64  2  0  0  0  0
 33 66  1  0  0  0  0
 33 69  1  0  0  0  0
 34 59  1  0  0  0  0
 34 65  2  0  0  0  0
 35 70  1  0  0  0  0
 35 75  2  0  0  0  0
 36 51  1  0  0  0  0
 36 72  1  0  0  0  0
 36 76  2  0  0  0  0
 37 59  1  0  0  0  0
 37 60  1  0  0  0  0
 37 77  2  0  0  0  0
 38 61  1  0  0  0  0
 38 67  1  0  0  0  0
 38 78  2  0  0  0  0
 39 62  1  0  0  0  0
 39 73  1  0  0  0  0
 39 79  2  0  0  0  0
 40 68  1  0  0  0  0
 40 71  1  0  0  0  0
 40 80  2  0  0  0  0
 41 44  1  0  0  0  0
 42 51  1  0  0  0  0
 43 67  1  0  0  0  0
 44 46  1  0  0  0  0
 45 47  1  0  0  0  0
 45 48  1  0  0  0  0
 46 50  1  0  0  0  0
 47 52  1  0  0  0  0
 48 68  1  0  0  0  0
 49 52  1  0  0  0  0
 49 68  1  0  0  0  0
 50 72  1  0  0  0  0
 51 67  1  0  0  0  0
 52 66  1  0  0  0  0
 54 62  1  0  0  0  0
 55 63  1  0  0  0  0
 56 63  1  0  0  0  0
 57 63  1  0  0  0  0
 58 74  1  0  0  0  0
 60 82  1  0  0  0  0
 61 63  1  0  0  0  0
 61 73  1  0  0  0  0
 62 74  1  0  0  0  0
 64 66  1  0  0  0  0
M  CHG  1  74   1
M  ISO  4  40 100  60 101  71 100  82 101
M  END
> <Batch ID>
0128

> <Smiles>
CNC(C)C(=O)NC(C(=O)N1Cc2cc([101O:1][101CH2:1]C(=O)C=CNc3cc(C)c([100NH:0][100C:0](=O)N4CCCC(n5nc(-c6ccc(Oc7ccc(F)cc7F)cc6)c(C(N)=O)c5N)C4)cc3F)ccc2CC1C(=O)NC1CCCc2ccccc21)C(C)(C)C

> <Shape>
0.352

> <Color>
0.217

> <Negative vol penalty>
0.000

$$$$

  -OEChem-04052302163D

 83 91  0     1  0  0  0  0  0999 V2000
  -20.4113  -13.6437   15.8958 C   0  0  0  0  0  0  0  0  0  0  0  0
  -21.7926  -13.5136   15.7933 C   0  0  0  0  0  0  0  0  0  0  0  0
  -25.7019  -31.4487   22.2198 C   0  0  0  0  0  0  0  0  0  0  0  0
  -26.9262  -32.1914   20.2739 C   0  0  0  0  0  0  0  0  0  0  0  0
  -29.7645  -19.4621   21.8982 C   0  0  0  0  0  0  0  0  0  0  0  0
  -28.5353  -18.6575   19.9802 C   0  0  0  0  0  0  0  0  0  0  0  0
  -30.4937  -18.2734   21.9296 C   0  0  0  0  0  0  0  0  0  0  0  0
  -29.2645  -17.4688   20.0116 C   0  0  0  0  0  0  0  0  0  0  0  0
  -19.8511  -14.2554   17.0164 C   0  0  0  0  0  0  0  0  0  0  0  0
  -22.6146  -13.9962   16.8111 C   0  0  0  0  0  0  0  0  0  0  0  0
  -27.8998  -11.5733   18.7350 C   0  0  0  0  0  0  0  0  0  0  0  0
  -25.7535  -32.7398   22.7451 C   0  0  0  0  0  0  0  0  0  0  0  0
  -26.9778  -33.4826   20.7991 C   0  0  0  0  0  0  0  0  0  0  0  0
  -29.2302  -11.8823   18.4552 C   0  0  0  0  0  0  0  0  0  0  0  0
  -24.1416  -35.6780   22.2961 C   0  0  0  0  0  0  0  0  0  0  0  0
  -22.9703  -36.2031   22.8420 C   0  0  0  0  0  0  0  0  0  0  0  0
  -29.3309  -13.2305   20.4531 C   0  0  0  0  0  0  0  0  0  0  0  0
  -24.0748  -36.4473   24.9769 C   0  0  0  0  0  0  0  0  0  0  0  0
  -26.2883  -31.1745   20.9842 C   0  0  0  0  0  0  0  0  0  0  0  0
  -28.7853  -19.6541   20.9236 C   0  0  0  0  0  0  0  0  0  0  0  0
  -30.2437  -17.2768   20.9863 C   0  0  0  0  0  0  0  0  0  0  0  0
  -25.2382  -29.3011   19.6074 C   0  0  0  0  0  0  0  0  0  0  0  0
  -20.6661  -14.7370   18.0529 C   0  0  0  0  0  0  0  0  0  0  0  0
  -27.2706  -12.1002   19.8721 C   0  0  0  0  0  0  0  0  0  0  0  0
  -22.0648  -14.6161   17.9461 C   0  0  0  0  0  0  0  0  0  0  0  0
  -27.9932  -12.9246   20.7464 C   0  0  0  0  0  0  0  0  0  0  0  0
  -26.3914  -33.7568   22.0348 C   0  0  0  0  0  0  0  0  0  0  0  0
  -29.9451  -12.7134   19.3128 C   0  0  0  0  0  0  0  0  0  0  0  0
  -25.2795  -35.5375   23.0906 C   0  0  0  0  0  0  0  0  0  0  0  0
  -22.9369  -36.5878   24.1824 C   0  0  0  0  0  0  0  0  0  0  0  0
  -25.2461  -35.9222   24.4309 C   0  0  0  0  0  0  0  0  0  0  0  0
  -26.2358  -29.8409   20.4413 C   0  0  0  0  0  0  0  0  0  0  0  0
  -25.6481  -28.0115   19.3721 C   0  0  0  0  0  0  0  0  0  0  0  0
  -28.0245  -20.8930   20.8914 C   0  0  0  0  0  0  0  0  0  0  0  0
  -31.0140  -16.0217   21.0190 C   0  0  0  0  0  0  0  0  0  0  0  0
  -28.3974  -22.0566   21.4662 C   0  0  0  0  0  0  0  0  0  0  0  0
  -31.1442  -15.1769   19.9827 C   0  0  0  0  0  0  0  0  0  0  0  0
  -24.0475  -29.9110   19.0917 C   0  0  0  0  0  0  0  0  0  0  0  0
  -27.5169  -23.2350   21.3361 C   0  0  0  0  0  0  0  0  0  0  0  0
  -24.7835  -14.0146   20.3751 C   0  0  0  0  0  0  0  0  0  0  0  0
  -25.3481  -13.2863   23.4852 C   0  0  0  0  0  0  0  0  0  0  0  0
  -27.5678  -12.2497   25.8612 C   0  0  0  0  0  0  0  0  0  0  0  0
  -20.0172  -15.4332   19.2229 C   0  0  0  0  0  0  0  0  0  0  0  0
  -25.8429  -11.7357   20.1740 C   0  0  0  0  0  0  0  0  0  0  0  0
  -27.3699  -13.4996   21.9911 C   0  0  0  0  0  0  0  0  0  0  0  0
  -20.9387  -15.5818   20.4308 C   0  0  0  0  0  0  0  0  0  0  0  0
  -30.0296  -25.7078   20.3345 C   0  0  0  0  0  0  0  0  0  0  0  0
  -22.3092  -16.0923   19.9971 C   0  0  0  0  0  0  0  0  0  0  0  0
  -29.1799  -26.9732   20.2526 C   0  0  0  0  0  0  0  0  0  0  0  0
  -29.5536  -24.7702   21.4430 C   0  0  0  0  0  0  0  0  0  0  0  0
  -27.2574  -25.6845   21.2641 C   0  0  0  0  0  0  0  0  0  0  0  0
  -22.9884  -15.1046   19.0407 C   0  0  1  0  0  0  0  0  0  0  0  0
  -25.1493  -12.7426   21.0864 C   0  0  1  0  0  0  0  0  0  0  0  0
  -27.6895  -26.6207   20.1247 C   0  0  1  0  0  0  0  0  0  0  0  0
  -27.7472  -11.7868   28.3211 C   0  0  0  0  0  0  0  0  0  0  0  0
  -31.9989  -13.1365   21.3040 C   0  0  0  0  0  0  0  0  0  0  0  0
  -33.3273  -14.1322   19.4236 C   0  0  0  0  0  0  0  0  0  0  0  0
  -25.4431  -16.2852   24.0401 C   0  0  0  0  0  0  0  0  0  0  0  0
  -26.5413  -15.7743   26.2313 C   0  0  0  0  0  0  0  0  0  0  0  0
  -24.2354  -14.9419   25.7698 C   0  0  0  0  0  0  0  0  0  0  0  0
  -28.2479   -9.4074   25.3947 C   0  0  0  0  0  0  0  0  0  0  0  0
  -26.1981  -13.8769   24.5842 C   0  0  1  0  0  0  0  0  0  0  0  0
  -27.4600  -11.1966   26.9493 C   0  0  2  0  0  0  0  0  0  0  0  0
  -31.9161  -13.8746   19.9631 C   0  0  0  0  0  0  0  0  0  1  0  0
  -25.6159  -15.2105   25.1320 C   0  0  0  0  0  0  0  0  0  0  0  0
  -27.2063  -28.9657   20.7172 N   0  0  0  0  0  0  0  0  0  0  0  0
  -26.8204  -27.8629   20.0530 N   0  0  0  0  0  0  0  0  0  0  0  0
  -28.1131  -24.4948   21.3333 N   0  0  0  0  0  0  0  0  0  0  0  0
  -25.9695  -13.1191   22.2396 N   0  0  0  0  0  0  0  0  0  0  0  0
  -25.1164  -27.0015   18.6512 N   0  0  0  0  0  0  0  0  0  0  0  0
  -23.7782  -31.2437   19.4318 N   0  0  0  0  0  0  0  0  0  0  0  0
  -23.5385  -13.9862   19.7762 N   0  0  0  0  0  0  0  0  0  0  0  0
  -26.3473  -12.8318   25.5911 N   0  0  0  0  0  0  0  0  0  0  0  0
  -28.4300  -10.0931   26.7000 N   0  3  0  0  0  0  0  0  0  0  0  0
  -23.2377  -29.2873   18.3645 O   0  0  0  0  0  0  0  0  0  0  0  0
  -26.3051  -23.0318   21.2427 O   0  0  0  0  0  0  0  0  0  0  0  0
  -25.5717  -14.9529   20.3712 O   0  0  0  0  0  0  0  0  0  0  0  0
  -24.1781  -12.9780   23.7252 O   0  0  0  0  0  0  0  0  0  0  0  0
  -28.6292  -12.5307   25.3090 O   0  0  0  0  0  0  0  0  0  0  0  0
  -26.4418  -35.0168   22.5469 O   0  0  0  0  0  0  0  0  0  0  0  0
  -31.2436  -13.0171   19.0417 O   0  0  0  0  0  0  0  0  0  1  0  0
  -21.8125  -37.0934   24.7061 F   0  0  0  0  0  0  0  0  0  0  0  0
  -26.3365  -35.7908   25.1988 F   0  0  0  0  0  0  0  0  0  0  0  0
  1  2  1  0  0  0  0
  1  9  2  0  0  0  0
  2 10  2  0  0  0  0
  3 12  2  0  0  0  0
  3 19  1  0  0  0  0
  4 13  1  0  0  0  0
  4 19  2  0  0  0  0
  5  7  2  0  0  0  0
  5 20  1  0  0  0  0
  6  8  1  0  0  0  0
  6 20  2  0  0  0  0
  7 21  1  0  0  0  0
  8 21  2  0  0  0  0
  9 23  1  0  0  0  0
 10 25  1  0  0  0  0
 11 14  2  0  0  0  0
 11 24  1  0  0  0  0
 12 27  1  0  0  0  0
 13 27  2  0  0  0  0
 14 28  1  0  0  0  0
 15 16  2  0  0  0  0
 15 29  1  0  0  0  0
 16 30  1  0  0  0  0
 17 26  1  0  0  0  0
 17 28  2  0  0  0  0
 18 30  2  0  0  0  0
 18 31  1  0  0  0  0
 19 32  1  0  0  0  0
 20 34  1  0  0  0  0
 21 35  1  0  0  0  0
 22 32  1  0  0  0  0
 22 33  2  0  0  0  0
 22 38  1  0  0  0  0
 23 25  2  0  0  0  0
 23 43  1  0  0  0  0
 24 26  2  0  0  0  0
 24 44  1  0  0  0  0
 25 52  1  0  0  0  0
 26 45  1  0  0  0  0
 27 80  1  0  0  0  0
 28 81  1  0  0  0  0
 29 31  2  0  0  0  0
 29 80  1  0  0  0  0
 30 82  1  0  0  0  0
 31 83  1  0  0  0  0
 32 66  2  0  0  0  0
 33 67  1  0  0  0  0
 33 70  1  0  0  0  0
 34 36  2  0  0  0  0
 35 37  2  0  0  0  0
 36 39  1  0  0  0  0
 37 64  1  0  0  0  0
 38 71  1  0  0  0  0
 38 75  2  0  0  0  0
 39 68  1  0  0  0  0
 39 76  2  0  0  0  0
 40 53  1  0  0  0  0
 40 72  1  0  0  0  0
 40 77  2  0  0  0  0
 41 62  1  0  0  0  0
 41 69  1  0  0  0  0
 41 78  2  0  0  0  0
 42 63  1  0  0  0  0
 42 73  1  0  0  0  0
 42 79  2  0  0  0  0
 43 46  1  0  0  0  0
 44 53  1  0  0  0  0
 45 69  1  0  0  0  0
 46 48  1  0  0  0  0
 47 49  1  0  0  0  0
 47 50  1  0  0  0  0
 48 52  1  0  0  0  0
 49 54  1  0  0  0  0
 50 68  1  0  0  0  0
 51 54  1  0  0  0  0
 51 68  1  0  0  0  0
 52 72  1  0  0  0  0
 53 69  1  0  0  0  0
 54 67  1  0  0  0  0
 55 63  1  0  0  0  0
 56 64  1  0  0  0  0
 57 64  1  0  0  0  0
 58 65  1  0  0  0  0
 59 65  1  0  0  0  0
 60 65  1  0  0  0  0
 61 74  1  0  0  0  0
 62 65  1  0  0  0  0
 62 73  1  0  0  0  0
 63 74  1  0  0  0  0
 64 81  1  0  0  0  0
 66 67  1  0  0  0  0
M  CHG  1  74   1
M  ISO  4  36 100  39 100  64 101  81 101
M  END
> <Batch ID>
0128

> <Smiles>
CNC(C)C(=O)NC(C(=O)N1Cc2cc([101O:1][101C:1](C)(C)C=Cc3ccc(C=[100CH:0][100C:0](=O)N4CCCC(n5nc(-c6ccc(Oc7ccc(F)cc7F)cc6)c(C(N)=O)c5N)C4)cc3)ccc2CC1C(=O)NC1CCCc2ccccc21)C(C)(C)C

> <Shape>
0.268

> <Color>
0.069

> <Negative vol penalty>
0.000

$$$$

  -OEChem-04052302163D

 87 95  0     1  0  0  0  0  0999 V2000
  -28.1247  -35.9093   27.8852 C   0  0  0  0  0  0  0  0  0  0  0  0
  -28.0521  -34.5497   27.5999 C   0  0  0  0  0  0  0  0  0  0  0  0
  -24.3624   -9.1357   21.5015 C   0  0  0  0  0  0  0  0  0  0  0  0
  -24.5237  -10.5539   23.4509 C   0  0  0  0  0  0  0  0  0  0  0  0
  -27.1246  -36.7695   27.4338 C   0  0  0  0  0  0  0  0  0  0  0  0
  -26.9787  -34.0492   26.8639 C   0  0  0  0  0  0  0  0  0  0  0  0
  -28.4363  -30.7852   23.2768 C   0  0  0  0  0  0  0  0  0  0  0  0
  -24.0338   -8.0526   22.3166 C   0  0  0  0  0  0  0  0  0  0  0  0
  -24.1950   -9.4707   24.2660 C   0  0  0  0  0  0  0  0  0  0  0  0
  -28.7513  -29.4898   23.6847 C   0  0  0  0  0  0  0  0  0  0  0  0
  -21.3029   -6.8950   23.9399 C   0  0  0  0  0  0  0  0  0  0  0  0
  -20.2438   -6.0804   23.5397 C   0  0  0  0  0  0  0  0  0  0  0  0
  -27.1922  -20.7516   20.5750 C   0  0  0  0  0  0  0  0  0  0  0  0
  -26.5752  -28.7398   22.9627 C   0  0  0  0  0  0  0  0  0  0  0  0
  -29.5712  -19.3356   20.2312 C   0  0  0  0  0  0  0  0  0  0  0  0
  -21.7365   -4.1826   23.4524 C   0  0  0  0  0  0  0  0  0  0  0  0
  -24.6075  -10.3864   22.0686 C   0  0  0  0  0  0  0  0  0  0  0  0
  -28.4177  -21.4039   20.7094 C   0  0  0  0  0  0  0  0  0  0  0  0
  -24.0603  -12.4231   20.6333 C   0  0  0  0  0  0  0  0  0  0  0  0
  -26.0434  -36.2808   26.6836 C   0  0  0  0  0  0  0  0  0  0  0  0
  -27.1822  -31.0704   22.7179 C   0  0  0  0  0  0  0  0  0  0  0  0
  -25.9625  -34.9035   26.4031 C   0  0  0  0  0  0  0  0  0  0  0  0
  -26.2477  -30.0392   22.5462 C   0  0  0  0  0  0  0  0  0  0  0  0
  -27.1561  -19.3912   20.2687 C   0  0  0  0  0  0  0  0  0  0  0  0
  -28.3456  -18.6832   20.0968 C   0  0  0  0  0  0  0  0  0  0  0  0
  -23.9501   -8.2201   23.6989 C   0  0  0  0  0  0  0  0  0  0  0  0
  -27.8196  -28.4674   23.5303 C   0  0  0  0  0  0  0  0  0  0  0  0
  -22.5789   -6.3535   24.0964 C   0  0  0  0  0  0  0  0  0  0  0  0
  -29.6072  -20.6960   20.5375 C   0  0  0  0  0  0  0  0  0  0  0  0
  -20.4606   -4.7242   23.2960 C   0  0  0  0  0  0  0  0  0  0  0  0
  -22.7957   -4.9973   23.8526 C   0  0  0  0  0  0  0  0  0  0  0  0
  -24.9475  -11.5055   21.2272 C   0  0  0  0  0  0  0  0  0  0  0  0
  -24.8727  -13.2861   19.9393 C   0  0  0  0  0  0  0  0  0  0  0  0
  -28.4300  -22.8410   21.0353 C   0  0  0  0  0  0  0  0  0  0  0  0
  -28.9790  -23.3666   22.1394 C   0  0  0  0  0  0  0  0  0  0  0  0
  -22.6298  -12.4894   20.7029 C   0  0  0  0  0  0  0  0  0  0  0  0
  -28.9296  -24.8393   22.3822 C   0  0  0  0  0  0  0  0  0  0  0  0
  -24.7387  -32.9365   23.5246 C   0  0  0  0  0  0  0  0  0  0  0  0
  -23.5849  -32.0124   20.6371 C   0  0  0  0  0  0  0  0  0  0  0  0
  -23.5728  -29.7002   18.1271 C   0  0  0  0  0  0  0  0  0  0  0  0
  -29.4295  -16.4666   19.5887 C   0  0  0  0  0  0  0  0  0  0  0  0
  -24.9620  -37.2420   26.2577 C   0  0  0  0  0  0  0  0  0  0  0  0
  -26.8678  -32.4677   22.2584 C   0  0  0  0  0  0  0  0  0  0  0  0
  -24.8949  -30.2890   21.9330 C   0  0  0  0  0  0  0  0  0  0  0  0
  -24.0520  -36.6892   25.1638 C   0  0  0  0  0  0  0  0  0  0  0  0
  -29.8071  -13.0049   18.8465 C   0  0  0  0  0  0  0  0  0  0  0  0
  -23.6178  -35.2659   25.4992 C   0  0  0  0  0  0  0  0  0  0  0  0
  -28.5035  -12.3817   19.3509 C   0  0  0  0  0  0  0  0  0  0  0  0
  -30.2821  -14.1384   19.7539 C   0  0  0  0  0  0  0  0  0  0  0  0
  -27.9797  -14.5586   20.5229 C   0  0  0  0  0  0  0  0  0  0  0  0
  -24.8267  -34.3264   25.5864 C   0  0  1  0  0  0  0  0  0  0  0  0
  -25.3703  -32.7463   22.1745 C   0  0  1  0  0  0  0  0  0  0  0  0
  -27.4273  -13.4552   19.6058 C   0  0  2  0  0  0  0  0  0  0  0  0
  -25.4498  -18.4852   18.6706 C   0  0  0  0  0  0  0  0  0  0  0  0
  -22.4994  -29.2001   15.9146 C   0  0  0  0  0  0  0  0  0  0  0  0
  -21.0338  -31.1510   22.0723 C   0  0  0  0  0  0  0  0  0  0  0  0
  -20.4188  -29.8282   20.0375 C   0  0  0  0  0  0  0  0  0  0  0  0
  -20.6613  -32.3062   19.8857 C   0  0  0  0  0  0  0  0  0  0  0  0
  -26.1747  -29.7680   16.7184 C   0  0  0  0  0  0  0  0  0  0  0  0
  -31.3818  -21.8820   19.4887 C   0  0  0  0  0  0  0  0  0  0  0  0
  -25.8291  -18.7181   20.1295 C   0  0  0  0  0  0  0  0  0  0  0  0
  -29.5882  -25.3088   23.6704 C   0  0  0  0  0  0  0  0  0  0  0  0
  -29.4963  -26.8150   23.8677 C   0  0  0  0  0  0  0  0  0  1  0  0
  -22.7275  -30.8722   20.1436 C   0  0  1  0  0  0  0  0  0  0  0  0
  -23.6802  -29.8488   16.6202 C   0  0  2  0  0  0  0  0  0  0  0  0
  -21.2350  -31.0347   20.5482 C   0  0  0  0  0  0  0  0  0  0  0  0
  -26.2256  -11.7616   20.9358 N   0  0  0  0  0  0  0  0  0  0  0  0
  -26.1474  -12.8498   20.1511 N   0  0  0  0  0  0  0  0  0  0  0  0
  -24.6323  -31.6731   21.5053 N   0  0  0  0  0  0  0  0  0  0  0  0
  -29.2119  -15.1194   19.9468 N   0  0  0  0  0  0  0  0  0  0  0  0
  -24.6138  -14.3680   19.1745 N   0  0  0  0  0  0  0  0  0  0  0  0
  -21.9522  -11.5241   21.4602 N   0  0  0  0  0  0  0  0  0  0  0  0
  -28.3296  -17.3007   19.7867 N   0  0  0  0  0  0  0  0  0  0  0  0
  -25.2860  -33.9696   24.2612 N   0  0  0  0  0  0  0  0  0  0  0  0
  -22.9506  -30.7869   18.7044 N   0  0  0  0  0  0  0  0  0  0  0  0
  -24.9323  -29.2104   16.1246 N   0  3  0  0  0  0  0  0  0  0  0  0
  -21.9708  -13.3685   20.0976 O   0  0  0  0  0  0  0  0  0  0  0  0
  -28.3929  -25.6073   21.5884 O   0  0  0  0  0  0  0  0  0  0  0  0
  -23.8218  -32.2013   23.8716 O   0  0  0  0  0  0  0  0  0  0  0  0
  -23.3390  -33.1610   20.2604 O   0  0  0  0  0  0  0  0  0  0  0  0
  -23.9951  -28.7167   18.7313 O   0  0  0  0  0  0  0  0  0  0  0  0
  -30.5029  -16.8467   19.1140 O   0  0  0  0  0  0  0  0  0  0  0  0
  -23.6292   -7.1635   24.4945 O   0  0  0  0  0  0  0  0  0  0  0  0
  -30.8184  -21.3090   20.6663 O   0  0  0  0  0  0  0  0  0  0  0  0
  -28.1242  -27.2022   23.9282 O   0  0  0  0  0  0  0  0  0  1  0  0
  -19.4431   -3.9417   22.9131 F   0  0  0  0  0  0  0  0  0  0  0  0
  -24.0190   -4.4712   24.0024 F   0  0  0  0  0  0  0  0  0  0  0  0
  1  2  1  0  0  0  0
  1  5  2  0  0  0  0
  2  6  2  0  0  0  0
  3  8  2  0  0  0  0
  3 17  1  0  0  0  0
  4  9  1  0  0  0  0
  4 17  2  0  0  0  0
  5 20  1  0  0  0  0
  6 22  1  0  0  0  0
  7 10  2  0  0  0  0
  7 21  1  0  0  0  0
  8 26  1  0  0  0  0
  9 26  2  0  0  0  0
 10 27  1  0  0  0  0
 11 12  2  0  0  0  0
 11 28  1  0  0  0  0
 12 30  1  0  0  0  0
 13 18  2  0  0  0  0
 13 24  1  0  0  0  0
 14 23  1  0  0  0  0
 14 27  2  0  0  0  0
 15 25  1  0  0  0  0
 15 29  2  0  0  0  0
 16 30  2  0  0  0  0
 16 31  1  0  0  0  0
 17 32  1  0  0  0  0
 18 29  1  0  0  0  0
 18 34  1  0  0  0  0
 19 32  1  0  0  0  0
 19 33  2  0  0  0  0
 19 36  1  0  0  0  0
 20 22  2  0  0  0  0
 20 42  1  0  0  0  0
 21 23  2  0  0  0  0
 21 43  1  0  0  0  0
 22 51  1  0  0  0  0
 23 44  1  0  0  0  0
 24 25  2  0  0  0  0
 24 61  1  0  0  0  0
 25 73  1  0  0  0  0
 26 83  1  0  0  0  0
 27 85  1  0  0  0  0
 28 31  2  0  0  0  0
 28 83  1  0  0  0  0
 29 84  1  0  0  0  0
 30 86  1  0  0  0  0
 31 87  1  0  0  0  0
 32 67  2  0  0  0  0
 33 68  1  0  0  0  0
 33 71  1  0  0  0  0
 34 35  2  0  0  0  0
 35 37  1  0  0  0  0
 36 72  1  0  0  0  0
 36 77  2  0  0  0  0
 37 62  1  0  0  0  0
 37 78  2  0  0  0  0
 38 52  1  0  0  0  0
 38 74  1  0  0  0  0
 38 79  2  0  0  0  0
 39 64  1  0  0  0  0
 39 69  1  0  0  0  0
 39 80  2  0  0  0  0
 40 65  1  0  0  0  0
 40 75  1  0  0  0  0
 40 81  2  0  0  0  0
 41 70  1  0  0  0  0
 41 73  1  0  0  0  0
 41 82  2  0  0  0  0
 42 45  1  0  0  0  0
 43 52  1  0  0  0  0
 44 69  1  0  0  0  0
 45 47  1  0  0  0  0
 46 48  1  0  0  0  0
 46 49  1  0  0  0  0
 47 51  1  0  0  0  0
 48 53  1  0  0  0  0
 49 70  1  0  0  0  0
 50 53  1  0  0  0  0
 50 70  1  0  0  0  0
 51 74  1  0  0  0  0
 52 69  1  0  0  0  0
 53 68  1  0  0  0  0
 54 61  1  0  0  0  0
 55 65  1  0  0  0  0
 56 66  1  0  0  0  0
 57 66  1  0  0  0  0
 58 66  1  0  0  0  0
 59 76  1  0  0  0  0
 60 84  1  0  0  0  0
 62 63  1  0  0  0  0
 63 85  1  0  0  0  0
 64 66  1  0  0  0  0
 64 75  1  0  0  0  0
 65 76  1  0  0  0  0
 67 68  1  0  0  0  0
M  CHG  1  76   1
M  ISO  4  41 100  63 101  73 100  85 101
M  END
> <Batch ID>
0128

> <Smiles>
CCc1cc(C=CC(=O)C[101CH2:1][101O:1]c2ccc3c(c2)CN(C(=O)C(NC(=O)C(C)NC)C(C)(C)C)C(C(=O)NC2CCCc4ccccc42)C3)c(OC)cc1[100NH:0][100C:0](=O)N1CCCC(n2nc(-c3ccc(Oc4ccc(F)cc4F)cc3)c(C(N)=O)c2N)C1

> <Shape>
0.274

> <Color>
0.107

> <Negative vol penalty>
0.000

$$$$

  -OEChem-04052302163D

 84 92  0     1  0  0  0  0  0999 V2000
  -27.9015  -37.4143   20.6923 C   0  0  0  0  0  0  0  0  0  0  0  0
  -28.3269  -36.1323   20.3594 C   0  0  0  0  0  0  0  0  0  0  0  0
  -24.7389   -9.0685   21.8434 C   0  0  0  0  0  0  0  0  0  0  0  0
  -23.2336  -10.2647   20.3805 C   0  0  0  0  0  0  0  0  0  0  0  0
  -27.0158  -37.6003   21.7529 C   0  0  0  0  0  0  0  0  0  0  0  0
  -27.8676  -35.0355   21.0877 C   0  0  0  0  0  0  0  0  0  0  0  0
  -26.7015  -29.4190   18.9425 C   0  0  0  0  0  0  0  0  0  0  0  0
  -24.1601  -18.8728   17.4059 C   0  0  0  0  0  0  0  0  0  0  0  0
  -24.9386  -17.7566   17.7116 C   0  0  0  0  0  0  0  0  0  0  0  0
  -23.6480   -8.5294   22.5252 C   0  0  0  0  0  0  0  0  0  0  0  0
  -22.1426   -9.7256   21.0623 C   0  0  0  0  0  0  0  0  0  0  0  0
  -27.4445  -28.2393   18.9496 C   0  0  0  0  0  0  0  0  0  0  0  0
  -21.4027   -6.0438   22.0632 C   0  0  0  0  0  0  0  0  0  0  0  0
  -21.4319   -4.6809   22.3585 C   0  0  0  0  0  0  0  0  0  0  0  0
  -26.2791  -27.5246   20.9372 C   0  0  0  0  0  0  0  0  0  0  0  0
  -26.3480  -19.1248   19.1183 C   0  0  0  0  0  0  0  0  0  0  0  0
  -21.2851   -5.1886   24.7161 C   0  0  0  0  0  0  0  0  0  0  0  0
  -24.5317   -9.9362   20.7711 C   0  0  0  0  0  0  0  0  0  0  0  0
  -26.3144   -9.9498   18.9464 C   0  0  0  0  0  0  0  0  0  0  0  0
  -26.5378  -36.5043   22.4884 C   0  0  0  0  0  0  0  0  0  0  0  0
  -25.7479  -29.6657   19.9406 C   0  0  0  0  0  0  0  0  0  0  0  0
  -26.9757  -35.2070   22.1600 C   0  0  0  0  0  0  0  0  0  0  0  0
  -25.5236  -28.7071   20.9390 C   0  0  0  0  0  0  0  0  0  0  0  0
  -24.4755  -20.1151   17.9564 C   0  0  0  0  0  0  0  0  0  0  0  0
  -26.0326  -17.8826   18.5678 C   0  0  0  0  0  0  0  0  0  0  0  0
  -22.3499   -8.8579   22.1346 C   0  0  0  0  0  0  0  0  0  0  0  0
  -27.2354  -27.2931   19.9487 C   0  0  0  0  0  0  0  0  0  0  0  0
  -21.3148   -6.9791   23.0944 C   0  0  0  0  0  0  0  0  0  0  0  0
  -25.5695  -20.2411   18.8126 C   0  0  0  0  0  0  0  0  0  0  0  0
  -21.3731   -4.2533   23.6849 C   0  0  0  0  0  0  0  0  0  0  0  0
  -21.2560   -6.5515   24.4207 C   0  0  0  0  0  0  0  0  0  0  0  0
  -25.6582  -10.4939   20.0667 C   0  0  0  0  0  0  0  0  0  0  0  0
  -27.3092  -10.8523   18.6593 C   0  0  0  0  0  0  0  0  0  0  0  0
  -26.0484   -8.7371   18.2292 C   0  0  0  0  0  0  0  0  0  0  0  0
  -25.3839  -31.8727   22.1990 C   0  0  0  0  0  0  0  0  0  0  0  0
  -22.5418  -30.3774   22.6557 C   0  0  0  0  0  0  0  0  0  0  0  0
  -20.6798  -27.5349   22.3394 C   0  0  0  0  0  0  0  0  0  0  0  0
  -27.9426  -16.7006   19.7085 C   0  0  0  0  0  0  0  0  0  0  0  0
  -25.6184  -36.7593   23.6564 C   0  0  0  0  0  0  0  0  0  0  0  0
  -24.9359  -30.9313   19.9035 C   0  0  0  0  0  0  0  0  0  0  0  0
  -24.4974  -28.9148   22.0216 C   0  0  0  0  0  0  0  0  0  0  0  0
  -24.8867  -35.5097   24.1397 C   0  0  0  0  0  0  0  0  0  0  0  0
  -30.1379  -14.0996   20.7538 C   0  0  0  0  0  0  0  0  0  0  0  0
  -25.8562  -34.3390   24.2669 C   0  0  0  0  0  0  0  0  0  0  0  0
  -29.3000  -12.8297   20.5885 C   0  0  0  0  0  0  0  0  0  0  0  0
  -29.2929  -15.2781   21.2343 C   0  0  0  0  0  0  0  0  0  0  0  0
  -27.2588  -14.2839   20.2631 C   0  0  0  0  0  0  0  0  0  0  0  0
  -26.4805  -33.9898   22.9105 C   0  0  1  0  0  0  0  0  0  0  0  0
  -24.3537  -31.3076   21.2625 C   0  0  1  0  0  0  0  0  0  0  0  0
  -28.0539  -13.0860   19.7184 C   0  0  2  0  0  0  0  0  0  0  0  0
  -22.6752  -21.6705   18.7476 C   0  0  0  0  0  0  0  0  0  0  0  0
  -18.4024  -26.6062   22.8379 C   0  0  0  0  0  0  0  0  0  0  0  0
  -23.2978  -30.1102   25.5997 C   0  0  0  0  0  0  0  0  0  0  0  0
  -21.4935  -28.3905   25.8350 C   0  0  0  0  0  0  0  0  0  0  0  0
  -20.9096  -30.7278   25.1878 C   0  0  0  0  0  0  0  0  0  0  0  0
  -20.1283  -27.0373   19.4746 C   0  0  0  0  0  0  0  0  0  0  0  0
  -23.6312  -21.2990   17.6179 C   0  0  0  0  0  0  0  0  0  0  0  0
  -28.4712  -24.1154   18.7478 C   0  0  0  0  0  0  0  0  0  0  0  0
  -27.1131  -23.4919   19.0507 C   0  0  0  0  0  0  0  0  0  0  0  0
  -28.3925  -25.6354   18.6961 C   0  0  0  0  0  0  0  0  0  1  0  0
  -27.1821  -21.9714   19.0601 C   0  0  0  0  0  0  0  0  0  0  0  0
  -22.0634  -29.2287   23.5104 C   0  0  1  0  0  0  0  0  0  0  0  0
  -19.2769  -27.3037   21.8076 C   0  0  2  0  0  0  0  0  0  0  0  0
  -21.9618  -29.6109   25.0141 C   0  0  0  0  0  0  0  0  0  0  0  0
  -26.1914  -11.6521   20.4644 N   0  0  0  0  0  0  0  0  0  0  0  0
  -27.1932  -11.8432   19.5891 N   0  0  0  0  0  0  0  0  0  0  0  0
  -23.7332  -30.1709   21.9459 N   0  0  0  0  0  0  0  0  0  0  0  0
  -28.1328  -15.4635   20.3599 N   0  0  0  0  0  0  0  0  0  0  0  0
  -28.2631  -10.8868   17.7047 N   0  0  0  0  0  0  0  0  0  0  0  0
  -24.9887   -7.9261   18.6578 N   0  0  0  0  0  0  0  0  0  0  0  0
  -26.8237  -16.7486   18.8775 N   0  0  0  0  0  0  0  0  0  0  0  0
  -25.5432  -33.2418   22.1003 N   0  0  0  0  0  0  0  0  0  0  0  0
  -20.8066  -28.7780   22.9223 N   0  0  0  0  0  0  0  0  0  0  0  0
  -19.3208  -26.4600   20.5799 N   0  3  0  0  0  0  0  0  0  0  0  0
  -26.7406   -8.3749   17.2477 O   0  0  0  0  0  0  0  0  0  0  0  0
  -25.9885  -31.1224   22.9561 O   0  0  0  0  0  0  0  0  0  0  0  0
  -21.8790  -31.4169   22.6137 O   0  0  0  0  0  0  0  0  0  0  0  0
  -21.5727  -26.6951   22.2502 O   0  0  0  0  0  0  0  0  0  0  0  0
  -28.7303  -17.6387   19.8544 O   0  0  0  0  0  0  0  0  0  0  0  0
  -21.2851   -8.3319   22.7995 O   0  0  0  0  0  0  0  0  0  0  0  0
  -27.9596  -26.1410   19.9584 O   0  0  0  0  0  0  0  0  0  1  0  0
  -25.8933  -21.4546   19.3617 O   0  0  0  0  0  0  0  0  0  0  0  0
  -21.3996   -2.9444   23.9682 F   0  0  0  0  0  0  0  0  0  0  0  0
  -21.1702   -7.4453   25.4155 F   0  0  0  0  0  0  0  0  0  0  0  0
  1  2  1  0  0  0  0
  1  5  2  0  0  0  0
  2  6  2  0  0  0  0
  3 10  2  0  0  0  0
  3 18  1  0  0  0  0
  4 11  1  0  0  0  0
  4 18  2  0  0  0  0
  5 20  1  0  0  0  0
  6 22  1  0  0  0  0
  7 12  2  0  0  0  0
  7 21  1  0  0  0  0
  8  9  2  0  0  0  0
  8 24  1  0  0  0  0
  9 25  1  0  0  0  0
 10 26  1  0  0  0  0
 11 26  2  0  0  0  0
 12 27  1  0  0  0  0
 13 14  2  0  0  0  0
 13 28  1  0  0  0  0
 14 30  1  0  0  0  0
 15 23  1  0  0  0  0
 15 27  2  0  0  0  0
 16 25  2  0  0  0  0
 16 29  1  0  0  0  0
 17 30  2  0  0  0  0
 17 31  1  0  0  0  0
 18 32  1  0  0  0  0
 19 32  1  0  0  0  0
 19 33  2  0  0  0  0
 19 34  1  0  0  0  0
 20 22  2  0  0  0  0
 20 39  1  0  0  0  0
 21 23  2  0  0  0  0
 21 40  1  0  0  0  0
 22 48  1  0  0  0  0
 23 41  1  0  0  0  0
 24 29  2  0  0  0  0
 24 57  1  0  0  0  0
 25 71  1  0  0  0  0
 26 80  1  0  0  0  0
 27 81  1  0  0  0  0
 28 31  2  0  0  0  0
 28 80  1  0  0  0  0
 29 82  1  0  0  0  0
 30 83  1  0  0  0  0
 31 84  1  0  0  0  0
 32 65  2  0  0  0  0
 33 66  1  0  0  0  0
 33 69  1  0  0  0  0
 34 70  1  0  0  0  0
 34 75  2  0  0  0  0
 35 49  1  0  0  0  0
 35 72  1  0  0  0  0
 35 76  2  0  0  0  0
 36 62  1  0  0  0  0
 36 67  1  0  0  0  0
 36 77  2  0  0  0  0
 37 63  1  0  0  0  0
 37 73  1  0  0  0  0
 37 78  2  0  0  0  0
 38 68  1  0  0  0  0
 38 71  1  0  0  0  0
 38 79  2  0  0  0  0
 39 42  1  0  0  0  0
 40 49  1  0  0  0  0
 41 67  1  0  0  0  0
 42 44  1  0  0  0  0
 43 45  1  0  0  0  0
 43 46  1  0  0  0  0
 44 48  1  0  0  0  0
 45 50  1  0  0  0  0
 46 68  1  0  0  0  0
 47 50  1  0  0  0  0
 47 68  1  0  0  0  0
 48 72  1  0  0  0  0
 49 67  1  0  0  0  0
 50 66  1  0  0  0  0
 51 57  1  0  0  0  0
 52 63  1  0  0  0  0
 53 64  1  0  0  0  0
 54 64  1  0  0  0  0
 55 64  1  0  0  0  0
 56 74  1  0  0  0  0
 58 59  1  0  0  0  0
 58 60  1  0  0  0  0
 59 61  1  0  0  0  0
 60 81  1  0  0  0  0
 61 82  1  0  0  0  0
 62 64  1  0  0  0  0
 62 73  1  0  0  0  0
 63 74  1  0  0  0  0
 65 66  1  0  0  0  0
M  CHG  1  74   1
M  ISO  4  38 100  60 101  71 100  81 101
M  END
> <Batch ID>
0128

> <Smiles>
CCc1ccc([100NH:0][100C:0](=O)N2CCCC(n3nc(-c4ccc(Oc5ccc(F)cc5F)cc4)c(C(N)=O)c3N)C2)cc1OCCC[101CH2:1][101O:1]c1ccc2c(c1)CN(C(=O)C(NC(=O)C(C)NC)C(C)(C)C)C(C(=O)NC1CCCc3ccccc31)C2

> <Shape>
0.312

> <Color>
0.105

> <Negative vol penalty>
0.000

$$$$

  -OEChem-04052302163D

 84 92  0     1  0  0  0  0  0999 V2000
  -25.4588  -37.1454   17.3158 C   0  0  0  0  0  0  0  0  0  0  0  0
  -26.1434  -35.9343   17.3205 C   0  0  0  0  0  0  0  0  0  0  0  0
  -24.4982   -9.6499   21.5277 C   0  0  0  0  0  0  0  0  0  0  0  0
  -24.8363  -10.7924   23.6294 C   0  0  0  0  0  0  0  0  0  0  0  0
  -27.5780  -21.2081   21.9251 C   0  0  0  0  0  0  0  0  0  0  0  0
  -24.7702  -37.5600   18.4550 C   0  0  0  0  0  0  0  0  0  0  0  0
  -26.1408  -35.1377   18.4650 C   0  0  0  0  0  0  0  0  0  0  0  0
  -26.1492  -29.0177   18.6905 C   0  0  0  0  0  0  0  0  0  0  0  0
  -27.5005  -19.9006   21.4458 C   0  0  0  0  0  0  0  0  0  0  0  0
  -24.1935   -8.4752   22.2152 C   0  0  0  0  0  0  0  0  0  0  0  0
  -24.5316   -9.6177   24.3170 C   0  0  0  0  0  0  0  0  0  0  0  0
  -27.1699  -28.0875   18.8825 C   0  0  0  0  0  0  0  0  0  0  0  0
  -21.5466   -7.1700   23.8655 C   0  0  0  0  0  0  0  0  0  0  0  0
  -20.4382   -6.4385   23.4394 C   0  0  0  0  0  0  0  0  0  0  0  0
  -26.6328  -27.9921   21.2323 C   0  0  0  0  0  0  0  0  0  0  0  0
  -29.9069  -19.8331   21.2408 C   0  0  0  0  0  0  0  0  0  0  0  0
  -21.8627   -4.5380   22.9964 C   0  0  0  0  0  0  0  0  0  0  0  0
  -24.8197  -10.8086   22.2348 C   0  0  0  0  0  0  0  0  0  0  0  0
  -28.8199  -21.8283   22.0622 C   0  0  0  0  0  0  0  0  0  0  0  0
  -24.2376  -13.0292   21.1223 C   0  0  0  0  0  0  0  0  0  0  0  0
  -24.7510  -36.7635   19.6108 C   0  0  0  0  0  0  0  0  0  0  0  0
  -25.3685  -29.4509   19.7718 C   0  0  0  0  0  0  0  0  0  0  0  0
  -25.4524  -35.5427   19.6212 C   0  0  0  0  0  0  0  0  0  0  0  0
  -25.6011  -28.9259   21.0510 C   0  0  0  0  0  0  0  0  0  0  0  0
  -28.6649  -19.2130   21.1037 C   0  0  0  0  0  0  0  0  0  0  0  0
  -24.2102   -8.4591   23.6099 C   0  0  0  0  0  0  0  0  0  0  0  0
  -27.4137  -27.5768   20.1541 C   0  0  0  0  0  0  0  0  0  0  0  0
  -22.8132   -6.5857   23.8570 C   0  0  0  0  0  0  0  0  0  0  0  0
  -20.5962   -5.1225   23.0048 C   0  0  0  0  0  0  0  0  0  0  0  0
  -22.9712   -5.2697   23.4225 C   0  0  0  0  0  0  0  0  0  0  0  0
  -29.9843  -21.1407   21.7201 C   0  0  0  0  0  0  0  0  0  0  0  0
  -25.1351  -12.0222   21.5251 C   0  0  0  0  0  0  0  0  0  0  0  0
  -25.0263  -13.9595   20.4907 C   0  0  0  0  0  0  0  0  0  0  0  0
  -28.8449  -23.2088   22.5725 C   0  0  0  0  0  0  0  0  0  0  0  0
  -28.2588  -24.2608   21.9796 C   0  0  0  0  0  0  0  0  0  0  0  0
  -22.8179  -13.1159   21.3030 C   0  0  0  0  0  0  0  0  0  0  0  0
  -24.8529  -32.2500   21.1870 C   0  0  0  0  0  0  0  0  0  0  0  0
  -22.6554  -30.5552   22.8666 C   0  0  0  0  0  0  0  0  0  0  0  0
  -21.6019  -27.5222   24.0231 C   0  0  0  0  0  0  0  0  0  0  0  0
  -29.6431  -17.0613   20.2323 C   0  0  0  0  0  0  0  0  0  0  0  0
  -24.0321  -37.2759   20.8336 C   0  0  0  0  0  0  0  0  0  0  0  0
  -24.2538  -30.4347   19.5434 C   0  0  0  0  0  0  0  0  0  0  0  0
  -24.7780  -29.3433   22.2413 C   0  0  0  0  0  0  0  0  0  0  0  0
  -23.7674  -36.1974   21.8810 C   0  0  0  0  0  0  0  0  0  0  0  0
  -29.8630  -13.7218   19.0171 C   0  0  0  0  0  0  0  0  0  0  0  0
  -25.0222  -35.3627   22.1168 C   0  0  0  0  0  0  0  0  0  0  0  0
  -28.5788  -13.0647   19.5281 C   0  0  0  0  0  0  0  0  0  0  0  0
  -30.4336  -14.7142   20.0287 C   0  0  0  0  0  0  0  0  0  0  0  0
  -28.2034  -15.0770   21.0103 C   0  0  0  0  0  0  0  0  0  0  0  0
  -25.4523  -34.6391   20.8351 C   0  0  1  0  0  0  0  0  0  0  0  0
  -23.8565  -31.1915   20.8070 C   0  0  1  0  0  0  0  0  0  0  0  0
  -27.5559  -14.1173   19.9987 C   0  0  2  0  0  0  0  0  0  0  0  0
  -19.7933  -26.4589   25.4000 C   0  0  0  0  0  0  0  0  0  0  0  0
  -23.9920  -31.5816   25.4102 C   0  0  0  0  0  0  0  0  0  0  0  0
  -22.7940  -29.7873   26.6805 C   0  0  0  0  0  0  0  0  0  0  0  0
  -21.4925  -31.5483   25.4857 C   0  0  0  0  0  0  0  0  0  0  0  0
  -30.4974  -26.2043   21.4081 C   0  0  0  0  0  0  0  0  0  0  0  0
  -29.0353  -28.0917   22.1799 C   0  0  0  0  0  0  0  0  0  0  0  0
  -20.6792  -25.8710   21.7468 C   0  0  0  0  0  0  0  0  0  0  0  0
  -28.3172  -25.6617   22.5311 C   0  0  0  0  0  0  0  0  0  0  0  0
  -22.6723  -29.7567   24.1476 C   0  0  1  0  0  0  0  0  0  0  0  0
  -20.2392  -26.8536   24.0007 C   0  0  2  0  0  0  0  0  0  0  0  0
  -22.7546  -30.6619   25.4091 C   0  0  0  0  0  0  0  0  0  0  0  0
  -29.0515  -26.6669   21.6189 C   0  0  0  0  0  0  0  0  0  1  0  0
  -26.3974  -12.2877   21.1783 N   0  0  0  0  0  0  0  0  0  0  0  0
  -26.2987  -13.4720   20.5508 N   0  0  0  0  0  0  0  0  0  0  0  0
  -23.7039  -30.3123   21.9680 N   0  0  0  0  0  0  0  0  0  0  0  0
  -29.4097  -15.6832   20.4253 N   0  0  0  0  0  0  0  0  0  0  0  0
  -24.7486  -15.1388   19.8951 N   0  0  0  0  0  0  0  0  0  0  0  0
  -22.1649  -12.0731   21.9741 N   0  0  0  0  0  0  0  0  0  0  0  0
  -28.5855  -17.8847   20.6168 N   0  0  0  0  0  0  0  0  0  0  0  0
  -24.6166  -33.4804   20.6041 N   0  0  0  0  0  0  0  0  0  0  0  0
  -21.4962  -28.8944   24.1067 N   0  0  0  0  0  0  0  0  0  0  0  0
  -20.2782  -25.6263   23.1562 N   0  3  0  0  0  0  0  0  0  0  0  0
  -22.1460  -14.0815   20.8674 O   0  0  0  0  0  0  0  0  0  0  0  0
  -25.7675  -31.9715   21.9536 O   0  0  0  0  0  0  0  0  0  0  0  0
  -21.7416  -31.3596   22.6673 O   0  0  0  0  0  0  0  0  0  0  0  0
  -22.6548  -26.8901   23.9753 O   0  0  0  0  0  0  0  0  0  0  0  0
  -30.6925  -17.4783   19.7353 O   0  0  0  0  0  0  0  0  0  0  0  0
  -23.9126   -7.3130   24.2812 O   0  0  0  0  0  0  0  0  0  0  0  0
  -28.4097  -26.6693   20.3443 O   0  0  0  0  0  0  0  0  0  1  0  0
  -19.5314   -4.4195   22.5971 F   0  0  0  0  0  0  0  0  0  0  0  0
  -24.1853   -4.7025   23.4132 F   0  0  0  0  0  0  0  0  0  0  0  0
  -31.5486  -21.8624   21.8708 Cl  0  0  0  0  0  0  0  0  0  0  0  0
  1  2  1  0  0  0  0
  1  6  2  0  0  0  0
  2  7  2  0  0  0  0
  3 10  2  0  0  0  0
  3 18  1  0  0  0  0
  4 11  1  0  0  0  0
  4 18  2  0  0  0  0
  5  9  2  0  0  0  0
  5 19  1  0  0  0  0
  6 21  1  0  0  0  0
  7 23  1  0  0  0  0
  8 12  2  0  0  0  0
  8 22  1  0  0  0  0
  9 25  1  0  0  0  0
 10 26  1  0  0  0  0
 11 26  2  0  0  0  0
 12 27  1  0  0  0  0
 13 14  2  0  0  0  0
 13 28  1  0  0  0  0
 14 29  1  0  0  0  0
 15 24  1  0  0  0  0
 15 27  2  0  0  0  0
 16 25  2  0  0  0  0
 16 31  1  0  0  0  0
 17 29  2  0  0  0  0
 17 30  1  0  0  0  0
 18 32  1  0  0  0  0
 19 31  2  0  0  0  0
 19 34  1  0  0  0  0
 20 32  1  0  0  0  0
 20 33  2  0  0  0  0
 20 36  1  0  0  0  0
 21 23  2  0  0  0  0
 21 41  1  0  0  0  0
 22 24  2  0  0  0  0
 22 42  1  0  0  0  0
 23 50  1  0  0  0  0
 24 43  1  0  0  0  0
 25 71  1  0  0  0  0
 26 80  1  0  0  0  0
 27 81  1  0  0  0  0
 28 30  2  0  0  0  0
 28 80  1  0  0  0  0
 29 82  1  0  0  0  0
 30 83  1  0  0  0  0
 31 84  1  0  0  0  0
 32 65  2  0  0  0  0
 33 66  1  0  0  0  0
 33 69  1  0  0  0  0
 34 35  2  0  0  0  0
 35 60  1  0  0  0  0
 36 70  1  0  0  0  0
 36 75  2  0  0  0  0
 37 51  1  0  0  0  0
 37 72  1  0  0  0  0
 37 76  2  0  0  0  0
 38 61  1  0  0  0  0
 38 67  1  0  0  0  0
 38 77  2  0  0  0  0
 39 62  1  0  0  0  0
 39 73  1  0  0  0  0
 39 78  2  0  0  0  0
 40 68  1  0  0  0  0
 40 71  1  0  0  0  0
 40 79  2  0  0  0  0
 41 44  1  0  0  0  0
 42 51  1  0  0  0  0
 43 67  1  0  0  0  0
 44 46  1  0  0  0  0
 45 47  1  0  0  0  0
 45 48  1  0  0  0  0
 46 50  1  0  0  0  0
 47 52  1  0  0  0  0
 48 68  1  0  0  0  0
 49 52  1  0  0  0  0
 49 68  1  0  0  0  0
 50 72  1  0  0  0  0
 51 67  1  0  0  0  0
 52 66  1  0  0  0  0
 53 62  1  0  0  0  0
 54 63  1  0  0  0  0
 55 63  1  0  0  0  0
 56 63  1  0  0  0  0
 57 64  1  0  0  0  0
 58 64  1  0  0  0  0
 59 74  1  0  0  0  0
 60 64  1  0  0  0  0
 61 63  1  0  0  0  0
 61 73  1  0  0  0  0
 62 74  1  0  0  0  0
 64 81  1  0  0  0  0
 65 66  1  0  0  0  0
M  CHG  1  74   1
M  ISO  4  40 100  64 101  71 100  81 101
M  END
> <Batch ID>
0128

> <Smiles>
CNC(C)C(=O)NC(C(=O)N1Cc2cc([101O:1][101C:1](C)(C)CC=Cc3ccc([100NH:0][100C:0](=O)N4CCCC(n5nc(-c6ccc(Oc7ccc(F)cc7F)cc6)c(C(N)=O)c5N)C4)cc3Cl)ccc2CC1C(=O)NC1CCCc2ccccc21)C(C)(C)C

> <Shape>
0.289

> <Color>
0.162

> <Negative vol penalty>
0.000

$$$$

  -OEChem-04052302163D

 85 93  0     1  0  0  0  0  0999 V2000
  -26.6608  -36.1467   21.2054 C   0  0  0  0  0  0  0  0  0  0  0  0
  -27.1510  -34.8450   21.2339 C   0  0  0  0  0  0  0  0  0  0  0  0
  -24.9553  -13.3832   21.8338 C   0  0  0  0  0  0  0  0  0  0  0  0
  -25.9683  -13.5456   19.6464 C   0  0  0  0  0  0  0  0  0  0  0  0
  -25.4605  -36.4525   21.8456 C   0  0  0  0  0  0  0  0  0  0  0  0
  -26.4417  -33.8486   21.9036 C   0  0  0  0  0  0  0  0  0  0  0  0
  -26.1285  -29.5576   19.2325 C   0  0  0  0  0  0  0  0  0  0  0  0
  -29.6786  -24.3257   18.3420 C   0  0  0  0  0  0  0  0  0  0  0  0
  -28.7831  -24.9236   17.4554 C   0  0  0  0  0  0  0  0  0  0  0  0
  -24.9176  -11.9941   21.7132 C   0  0  0  0  0  0  0  0  0  0  0  0
  -25.9307  -12.1565   19.5258 C   0  0  0  0  0  0  0  0  0  0  0  0
  -27.2539  -28.7349   19.2151 C   0  0  0  0  0  0  0  0  0  0  0  0
  -23.0039   -9.6800   20.1618 C   0  0  0  0  0  0  0  0  0  0  0  0
  -21.8269   -9.0297   20.5326 C   0  0  0  0  0  0  0  0  0  0  0  0
  -27.8852  -22.9844   19.2486 C   0  0  0  0  0  0  0  0  0  0  0  0
  -26.2440  -27.3283   20.8946 C   0  0  0  0  0  0  0  0  0  0  0  0
  -23.0451   -7.7759   22.2003 C   0  0  0  0  0  0  0  0  0  0  0  0
  -25.4806  -14.1590   20.8004 C   0  0  0  0  0  0  0  0  0  0  0  0
  -26.9898  -23.5824   18.3620 C   0  0  0  0  0  0  0  0  0  0  0  0
  -26.5603  -16.3730   21.4639 C   0  0  0  0  0  0  0  0  0  0  0  0
  -24.7313  -35.4573   22.5153 C   0  0  0  0  0  0  0  0  0  0  0  0
  -25.0552  -29.2776   20.0904 C   0  0  0  0  0  0  0  0  0  0  0  0
  -25.2313  -34.1416   22.5545 C   0  0  0  0  0  0  0  0  0  0  0  0
  -25.1050  -28.1476   20.9192 C   0  0  0  0  0  0  0  0  0  0  0  0
  -29.2297  -23.3560   19.2386 C   0  0  0  0  0  0  0  0  0  0  0  0
  -27.4387  -24.5520   17.4653 C   0  0  0  0  0  0  0  0  0  0  0  0
  -25.4053  -11.3807   20.5592 C   0  0  0  0  0  0  0  0  0  0  0  0
  -27.3130  -27.6216   20.0483 C   0  0  0  0  0  0  0  0  0  0  0  0
  -24.2015   -9.3782   20.8101 C   0  0  0  0  0  0  0  0  0  0  0  0
  -21.8475   -8.0777   21.5518 C   0  0  0  0  0  0  0  0  0  0  0  0
  -24.2221   -8.4262   21.8294 C   0  0  0  0  0  0  0  0  0  0  0  0
  -25.5193  -15.5940   20.9241 C   0  0  0  0  0  0  0  0  0  0  0  0
  -26.1140  -17.6671   21.3524 C   0  0  0  0  0  0  0  0  0  0  0  0
  -25.5916  -23.1733   18.3968 C   0  0  0  0  0  0  0  0  0  0  0  0
  -25.1406  -21.9178   18.1998 C   0  0  0  0  0  0  0  0  0  0  0  0
  -30.2259  -25.9792   21.3096 C   0  0  0  0  0  0  0  0  0  0  0  0
  -27.8182  -15.9633   22.0165 C   0  0  0  0  0  0  0  0  0  0  0  0
  -30.9291  -24.8349   21.4202 C   0  0  0  0  0  0  0  0  0  0  0  0
  -23.6845  -21.6588   18.2776 C   0  0  0  0  0  0  0  0  0  0  0  0
  -23.6632  -30.7962   22.5112 C   0  0  0  0  0  0  0  0  0  0  0  0
  -21.5562  -28.3362   22.3330 C   0  0  0  0  0  0  0  0  0  0  0  0
  -20.9357  -25.1157   21.3898 C   0  0  0  0  0  0  0  0  0  0  0  0
  -23.4629  -35.8456   23.2329 C   0  0  0  0  0  0  0  0  0  0  0  0
  -23.8371  -30.1599   20.0779 C   0  0  0  0  0  0  0  0  0  0  0  0
  -23.9707  -27.7917   21.8439 C   0  0  0  0  0  0  0  0  0  0  0  0
  -22.5828  -34.6542   23.6020 C   0  0  0  0  0  0  0  0  0  0  0  0
  -21.5543  -19.5010   20.1914 C   0  0  0  0  0  0  0  0  0  0  0  0
  -23.4209  -33.5462   24.2318 C   0  0  0  0  0  0  0  0  0  0  0  0
  -22.4727  -18.3374   20.5632 C   0  0  0  0  0  0  0  0  0  0  0  0
  -21.8897  -20.0582   18.8118 C   0  0  0  0  0  0  0  0  0  0  0  0
  -24.2433  -19.3091   19.0315 C   0  0  0  0  0  0  0  0  0  0  0  0
  -24.4782  -33.0281   23.2495 C   0  0  1  0  0  0  0  0  0  0  0  0
  -23.0207  -30.0697   21.3635 C   0  0  1  0  0  0  0  0  0  0  0  0
  -23.9528  -18.7379   20.4303 C   0  0  2  0  0  0  0  0  0  0  0  0
  -26.5070  -25.2153   16.5024 C   0  0  0  0  0  0  0  0  0  0  0  0
  -32.4354  -24.8789   21.4628 C   0  0  0  0  0  0  0  0  0  0  0  0
  -19.6104  -23.0262   20.9714 C   0  0  0  0  0  0  0  0  0  0  0  0
  -22.0521  -27.8605   25.3058 C   0  0  0  0  0  0  0  0  0  0  0  0
  -21.0084  -25.5996   25.0469 C   0  0  0  0  0  0  0  0  0  0  0  0
  -19.6619  -27.6515   24.6004 C   0  0  0  0  0  0  0  0  0  0  0  0
  -20.1881  -25.9967   18.6652 C   0  0  0  0  0  0  0  0  0  0  0  0
  -30.1991  -22.7101   20.1970 C   0  0  0  0  0  0  0  0  0  0  0  0
  -28.7410  -26.1474   21.2498 C   0  0  0  0  0  0  0  0  0  1  0  0
  -30.3217  -23.4520   21.5357 C   0  0  0  0  0  0  0  0  0  0  0  0
  -21.4576  -26.9657   22.9581 C   0  0  1  0  0  0  0  0  0  0  0  0
  -19.7834  -24.4957   20.6202 C   0  0  2  0  0  0  0  0  0  0  0  0
  -21.0674  -27.0269   24.4619 C   0  0  0  0  0  0  0  0  0  0  0  0
  -24.4892  -16.3317   20.5013 N   0  0  0  0  0  0  0  0  0  0  0  0
  -24.8807  -17.5877   20.7754 N   0  0  0  0  0  0  0  0  0  0  0  0
  -23.3083  -20.3941   18.7080 N   0  0  0  0  0  0  0  0  0  0  0  0
  -22.8042  -28.6888   21.7998 N   0  0  0  0  0  0  0  0  0  0  0  0
  -26.6601  -18.8539   21.6926 N   0  0  0  0  0  0  0  0  0  0  0  0
  -28.1175  -14.5946   22.0543 N   0  0  0  0  0  0  0  0  0  0  0  0
  -23.8742  -32.1417   22.2779 N   0  0  0  0  0  0  0  0  0  0  0  0
  -20.5279  -26.2053   22.1300 N   0  0  0  0  0  0  0  0  0  0  0  0
  -20.0230  -24.6033   19.1532 N   0  3  0  0  0  0  0  0  0  0  0  0
  -28.6453  -16.7855   22.4786 O   0  0  0  0  0  0  0  0  0  0  0  0
  -22.9645  -22.5935   17.9515 O   0  0  0  0  0  0  0  0  0  0  0  0
  -23.9452  -30.1817   23.5333 O   0  0  0  0  0  0  0  0  0  0  0  0
  -20.5607  -29.0644   22.3119 O   0  0  0  0  0  0  0  0  0  0  0  0
  -22.0820  -24.6750   21.3423 O   0  0  0  0  0  0  0  0  0  0  0  0
  -25.3690  -10.0252   20.4413 O   0  0  0  0  0  0  0  0  0  0  0  0
  -28.4105  -26.8172   20.0338 O   0  0  0  0  0  0  0  0  0  1  0  0
  -20.7170   -7.4544   21.9089 F   0  0  0  0  0  0  0  0  0  0  0  0
  -25.3694   -8.1329   22.4567 F   0  0  0  0  0  0  0  0  0  0  0  0
  1  2  1  0  0  0  0
  1  5  2  0  0  0  0
  2  6  2  0  0  0  0
  3 10  2  0  0  0  0
  3 18  1  0  0  0  0
  4 11  1  0  0  0  0
  4 18  2  0  0  0  0
  5 21  1  0  0  0  0
  6 23  1  0  0  0  0
  7 12  2  0  0  0  0
  7 22  1  0  0  0  0
  8  9  2  0  0  0  0
  8 25  1  0  0  0  0
  9 26  1  0  0  0  0
 10 27  1  0  0  0  0
 11 27  2  0  0  0  0
 12 28  1  0  0  0  0
 13 14  2  0  0  0  0
 13 29  1  0  0  0  0
 14 30  1  0  0  0  0
 15 19  1  0  0  0  0
 15 25  2  0  0  0  0
 16 24  1  0  0  0  0
 16 28  2  0  0  0  0
 17 30  2  0  0  0  0
 17 31  1  0  0  0  0
 18 32  1  0  0  0  0
 19 26  2  0  0  0  0
 19 34  1  0  0  0  0
 20 32  1  0  0  0  0
 20 33  2  0  0  0  0
 20 37  1  0  0  0  0
 21 23  2  0  0  0  0
 21 43  1  0  0  0  0
 22 24  2  0  0  0  0
 22 44  1  0  0  0  0
 23 52  1  0  0  0  0
 24 45  1  0  0  0  0
 25 62  1  0  0  0  0
 26 55  1  0  0  0  0
 27 82  1  0  0  0  0
 28 83  1  0  0  0  0
 29 31  2  0  0  0  0
 29 82  1  0  0  0  0
 30 84  1  0  0  0  0
 31 85  1  0  0  0  0
 32 68  2  0  0  0  0
 33 69  1  0  0  0  0
 33 72  1  0  0  0  0
 34 35  2  0  0  0  0
 35 39  1  0  0  0  0
 36 38  2  0  0  0  0
 36 63  1  0  0  0  0
 37 73  1  0  0  0  0
 37 77  2  0  0  0  0
 38 56  1  0  0  0  0
 38 64  1  0  0  0  0
 39 70  1  0  0  0  0
 39 78  2  0  0  0  0
 40 53  1  0  0  0  0
 40 74  1  0  0  0  0
 40 79  2  0  0  0  0
 41 65  1  0  0  0  0
 41 71  1  0  0  0  0
 41 80  2  0  0  0  0
 42 66  1  0  0  0  0
 42 75  1  0  0  0  0
 42 81  2  0  0  0  0
 43 46  1  0  0  0  0
 44 53  1  0  0  0  0
 45 71  1  0  0  0  0
 46 48  1  0  0  0  0
 47 49  1  0  0  0  0
 47 50  1  0  0  0  0
 48 52  1  0  0  0  0
 49 54  1  0  0  0  0
 50 70  1  0  0  0  0
 51 54  1  0  0  0  0
 51 70  1  0  0  0  0
 52 74  1  0  0  0  0
 53 71  1  0  0  0  0
 54 69  1  0  0  0  0
 57 66  1  0  0  0  0
 58 67  1  0  0  0  0
 59 67  1  0  0  0  0
 60 67  1  0  0  0  0
 61 76  1  0  0  0  0
 62 64  1  0  0  0  0
 63 83  1  0  0  0  0
 65 67  1  0  0  0  0
 65 75  1  0  0  0  0
 66 76  1  0  0  0  0
 68 69  1  0  0  0  0
M  CHG  1  76   1
M  ISO  4  35 100  39 100  63 101  83 101
M  END
> <Batch ID>
0128

> <Smiles>
CNC(C)C(=O)NC(C(=O)N1Cc2cc([101O:1][101CH2:1]C=C(C)CCc3ccc(C)c(C=[100CH:0][100C:0](=O)N4CCCC(n5nc(-c6ccc(Oc7ccc(F)cc7F)cc6)c(C(N)=O)c5N)C4)c3)ccc2CC1C(=O)NC1CCCc2ccccc21)C(C)(C)C

> <Shape>
0.256

> <Color>
0.082

> <Negative vol penalty>
0.000

$$$$

  -OEChem-04052302163D

 82 90  0     1  0  0  0  0  0999 V2000
  -18.2618   -9.5874   27.4136 C   0  0  0  0  0  0  0  0  0  0  0  0
  -19.6000   -9.9269   27.5848 C   0  0  0  0  0  0  0  0  0  0  0  0
  -32.6526  -17.4900   23.4562 C   0  0  0  0  0  0  0  0  0  0  0  0
  -23.0752   -9.8687   19.9403 C   0  0  0  0  0  0  0  0  0  0  0  0
  -23.8348   -9.8747   22.2337 C   0  0  0  0  0  0  0  0  0  0  0  0
  -31.8550  -18.3573   24.2027 C   0  0  0  0  0  0  0  0  0  0  0  0
  -17.3947  -10.4743   26.7769 C   0  0  0  0  0  0  0  0  0  0  0  0
  -20.0721  -11.1533   27.1184 C   0  0  0  0  0  0  0  0  0  0  0  0
  -24.8730  -16.2405   28.6638 C   0  0  0  0  0  0  0  0  0  0  0  0
  -32.0644  -16.6058   22.5518 C   0  0  0  0  0  0  0  0  0  0  0  0
  -22.3309   -8.7157   20.1898 C   0  0  0  0  0  0  0  0  0  0  0  0
  -23.0904   -8.7217   22.4833 C   0  0  0  0  0  0  0  0  0  0  0  0
  -25.9131  -16.9554   28.0717 C   0  0  0  0  0  0  0  0  0  0  0  0
  -19.8619   -7.9249   23.0851 C   0  0  0  0  0  0  0  0  0  0  0  0
  -19.1048   -7.8849   24.2559 C   0  0  0  0  0  0  0  0  0  0  0  0
  -29.8810  -17.4560   23.1406 C   0  0  0  0  0  0  0  0  0  0  0  0
  -24.3063  -18.4416   27.0576 C   0  0  0  0  0  0  0  0  0  0  0  0
  -20.3454   -5.9467   24.9919 C   0  0  0  0  0  0  0  0  0  0  0  0
  -23.8272  -10.4481   20.9622 C   0  0  0  0  0  0  0  0  0  0  0  0
  -30.4692  -18.3403   24.0449 C   0  0  0  0  0  0  0  0  0  0  0  0
  -24.1700  -12.9732   20.8430 C   0  0  0  0  0  0  0  0  0  0  0  0
  -17.8543  -11.7163   26.3111 C   0  0  0  0  0  0  0  0  0  0  0  0
  -23.5389  -16.6148   28.4481 C   0  0  0  0  0  0  0  0  0  0  0  0
  -19.2107  -12.0571   26.4737 C   0  0  0  0  0  0  0  0  0  0  0  0
  -23.2511  -17.7314   27.6502 C   0  0  0  0  0  0  0  0  0  0  0  0
  -30.6786  -16.5887   22.3941 C   0  0  0  0  0  0  0  0  0  0  0  0
  -22.3384   -8.1422   21.4613 C   0  0  0  0  0  0  0  0  0  0  0  0
  -25.6298  -18.0544   27.2661 C   0  0  0  0  0  0  0  0  0  0  0  0
  -20.8607   -6.9758   22.8677 C   0  0  0  0  0  0  0  0  0  0  0  0
  -19.3465   -6.8958   25.2093 C   0  0  0  0  0  0  0  0  0  0  0  0
  -21.1025   -5.9867   23.8211 C   0  0  0  0  0  0  0  0  0  0  0  0
  -24.5967  -11.6388   20.7050 C   0  0  0  0  0  0  0  0  0  0  0  0
  -25.2624  -13.7224   20.4802 C   0  0  0  0  0  0  0  0  0  0  0  0
  -29.6286  -19.2565   24.8330 C   0  0  0  0  0  0  0  0  0  0  0  0
  -28.3715  -19.6112   24.5225 C   0  0  0  0  0  0  0  0  0  0  0  0
  -22.8996  -13.4893   21.2620 C   0  0  0  0  0  0  0  0  0  0  0  0
  -21.0021  -15.2204   27.1351 C   0  0  0  0  0  0  0  0  0  0  0  0
  -19.4718  -17.8660   28.2220 C   0  0  0  0  0  0  0  0  0  0  0  0
  -19.6646  -21.1347   29.1838 C   0  0  0  0  0  0  0  0  0  0  0  0
  -30.7290  -14.7659   20.6559 C   0  0  0  0  0  0  0  0  0  0  0  0
  -16.8900  -12.6221   25.5869 C   0  0  0  0  0  0  0  0  0  0  0  0
  -22.4295  -15.8494   29.1157 C   0  0  0  0  0  0  0  0  0  0  0  0
  -21.8367  -18.1865   27.4036 C   0  0  0  0  0  0  0  0  0  0  0  0
  -17.3863  -14.0597   25.4557 C   0  0  0  0  0  0  0  0  0  0  0  0
  -29.6140  -12.3533   18.2867 C   0  0  0  0  0  0  0  0  0  0  0  0
  -18.8383  -14.0827   24.9890 C   0  0  0  0  0  0  0  0  0  0  0  0
  -28.1742  -12.0621   18.7160 C   0  0  0  0  0  0  0  0  0  0  0  0
  -30.5290  -12.5814   19.4886 C   0  0  0  0  0  0  0  0  0  0  0  0
  -28.6222  -13.3061   20.8698 C   0  0  0  0  0  0  0  0  0  0  0  0
  -19.7550  -13.3886   26.0036 C   0  0  1  0  0  0  0  0  0  0  0  0
  -21.0856  -16.0088   28.4115 C   0  0  1  0  0  0  0  0  0  0  0  0
  -27.6494  -13.1336   19.6918 C   0  0  2  0  0  0  0  0  0  0  0  0
  -27.1798  -21.7919   24.5259 C   0  0  0  0  0  0  0  0  0  0  0  0
  -18.2407  -23.0399   29.9837 C   0  0  0  0  0  0  0  0  0  0  0  0
  -18.4342  -18.2795   25.3825 C   0  0  0  0  0  0  0  0  0  0  0  0
  -17.8432  -20.6287   26.0152 C   0  0  0  0  0  0  0  0  0  0  0  0
  -16.7517  -18.7126   27.1814 C   0  0  0  0  0  0  0  0  0  0  0  0
  -21.1441  -21.3193   31.7404 C   0  0  0  0  0  0  0  0  0  0  0  0
  -26.2807  -19.8688   25.8731 C   0  0  0  0  0  0  0  0  0  1  0  0
  -27.5459  -20.5633   25.3583 C   0  0  1  0  0  0  0  0  0  0  0  0
  -19.1779  -19.2368   27.6621 C   0  0  1  0  0  0  0  0  0  0  0  0
  -19.1107  -21.8625   30.3954 C   0  0  2  0  0  0  0  0  0  0  0  0
  -18.0784  -19.2049   26.5632 C   0  0  0  0  0  0  0  0  0  0  0  0
  -25.8616  -11.5426   20.2868 N   0  0  0  0  0  0  0  0  0  0  0  0
  -26.2390  -12.8261   20.1590 N   0  0  0  0  0  0  0  0  0  0  0  0
  -20.7864  -17.4017   28.0733 N   0  0  0  0  0  0  0  0  0  0  0  0
  -29.9703  -13.6121   20.3662 N   0  0  0  0  0  0  0  0  0  0  0  0
  -25.4733  -15.0538   20.4076 N   0  0  0  0  0  0  0  0  0  0  0  0
  -21.8873  -12.5804   21.5988 N   0  0  0  0  0  0  0  0  0  0  0  0
  -30.0818  -15.6910   21.4745 N   0  0  0  0  0  0  0  0  0  0  0  0
  -20.0102  -14.2584   27.1318 N   0  0  0  0  0  0  0  0  0  0  0  0
  -18.8557  -20.0841   28.8052 N   0  0  0  0  0  0  0  0  0  0  0  0
  -20.2227  -22.3743   31.2454 N   0  3  0  0  0  0  0  0  0  0  0  0
  -22.6638  -14.7200   21.3196 O   0  0  0  0  0  0  0  0  0  0  0  0
  -21.7791  -15.4676   26.2203 O   0  0  0  0  0  0  0  0  0  0  0  0
  -18.5700  -17.2334   28.7773 O   0  0  0  0  0  0  0  0  0  0  0  0
  -20.7083  -21.4673   28.6266 O   0  0  0  0  0  0  0  0  0  0  0  0
  -31.8582  -14.9344   20.1885 O   0  0  0  0  0  0  0  0  0  0  0  0
  -21.6120   -7.0173   21.7052 O   0  0  0  0  0  0  0  0  0  0  0  0
  -26.6431  -18.7536   26.6863 O   0  0  0  0  0  0  0  0  0  1  0  0
  -18.6204   -6.8585   26.3343 F   0  0  0  0  0  0  0  0  0  0  0  0
  -22.0615   -5.0730   23.6183 F   0  0  0  0  0  0  0  0  0  0  0  0
  1  2  1  0  0  0  0
  1  7  2  0  0  0  0
  2  8  2  0  0  0  0
  3  6  2  0  0  0  0
  3 10  1  0  0  0  0
  4 11  2  0  0  0  0
  4 19  1  0  0  0  0
  5 12  1  0  0  0  0
  5 19  2  0  0  0  0
  6 20  1  0  0  0  0
  7 22  1  0  0  0  0
  8 24  1  0  0  0  0
  9 13  2  0  0  0  0
  9 23  1  0  0  0  0
 10 26  2  0  0  0  0
 11 27  1  0  0  0  0
 12 27  2  0  0  0  0
 13 28  1  0  0  0  0
 14 15  2  0  0  0  0
 14 29  1  0  0  0  0
 15 30  1  0  0  0  0
 16 20  2  0  0  0  0
 16 26  1  0  0  0  0
 17 25  1  0  0  0  0
 17 28  2  0  0  0  0
 18 30  2  0  0  0  0
 18 31  1  0  0  0  0
 19 32  1  0  0  0  0
 20 34  1  0  0  0  0
 21 32  1  0  0  0  0
 21 33  2  0  0  0  0
 21 36  1  0  0  0  0
 22 24  2  0  0  0  0
 22 41  1  0  0  0  0
 23 25  2  0  0  0  0
 23 42  1  0  0  0  0
 24 50  1  0  0  0  0
 25 43  1  0  0  0  0
 26 70  1  0  0  0  0
 27 79  1  0  0  0  0
 28 80  1  0  0  0  0
 29 31  2  0  0  0  0
 29 79  1  0  0  0  0
 30 81  1  0  0  0  0
 31 82  1  0  0  0  0
 32 64  2  0  0  0  0
 33 65  1  0  0  0  0
 33 68  1  0  0  0  0
 34 35  2  0  0  0  0
 35 60  1  0  0  0  0
 36 69  1  0  0  0  0
 36 74  2  0  0  0  0
 37 51  1  0  0  0  0
 37 71  1  0  0  0  0
 37 75  2  0  0  0  0
 38 61  1  0  0  0  0
 38 66  1  0  0  0  0
 38 76  2  0  0  0  0
 39 62  1  0  0  0  0
 39 72  1  0  0  0  0
 39 77  2  0  0  0  0
 40 67  1  0  0  0  0
 40 70  1  0  0  0  0
 40 78  2  0  0  0  0
 41 44  1  0  0  0  0
 42 51  1  0  0  0  0
 43 66  1  0  0  0  0
 44 46  1  0  0  0  0
 45 47  1  0  0  0  0
 45 48  1  0  0  0  0
 46 50  1  0  0  0  0
 47 52  1  0  0  0  0
 48 67  1  0  0  0  0
 49 52  1  0  0  0  0
 49 67  1  0  0  0  0
 50 71  1  0  0  0  0
 51 66  1  0  0  0  0
 52 65  1  0  0  0  0
 53 60  1  0  0  0  0
 54 62  1  0  0  0  0
 55 63  1  0  0  0  0
 56 63  1  0  0  0  0
 57 63  1  0  0  0  0
 58 73  1  0  0  0  0
 59 60  1  0  0  0  0
 59 80  1  0  0  0  0
 61 63  1  0  0  0  0
 61 72  1  0  0  0  0
 62 73  1  0  0  0  0
 64 65  1  0  0  0  0
M  CHG  1  73   1
M  ISO  4  40 100  59 101  70 100  80 101
M  END
> <Batch ID>
0128

> <Smiles>
CNC(C)C(=O)NC(C(=O)N1Cc2cc([101O:1][101CH2:1]C(C)C=Cc3cccc([100NH:0][100C:0](=O)N4CCCC(n5nc(-c6ccc(Oc7ccc(F)cc7F)cc6)c(C(N)=O)c5N)C4)c3)ccc2CC1C(=O)NC1CCCc2ccccc21)C(C)(C)C

> <Shape>
0.167

> <Color>
0.196

> <Negative vol penalty>
0.000

$$$$

  -OEChem-04052302163D

 85 93  0     1  0  0  0  0  0999 V2000
  -28.7280  -36.0548   26.7841 C   0  0  0  0  0  0  0  0  0  0  0  0
  -28.5108  -34.6807   26.7776 C   0  0  0  0  0  0  0  0  0  0  0  0
  -25.4235  -10.0008   23.1492 C   0  0  0  0  0  0  0  0  0  0  0  0
  -23.3433  -10.0723   21.9227 C   0  0  0  0  0  0  0  0  0  0  0  0
  -27.7543  -36.9157   26.2794 C   0  0  0  0  0  0  0  0  0  0  0  0
  -27.3191  -34.1667   26.2675 C   0  0  0  0  0  0  0  0  0  0  0  0
  -28.0618  -30.1659   23.2531 C   0  0  0  0  0  0  0  0  0  0  0  0
  -24.8810   -9.0503   24.0140 C   0  0  0  0  0  0  0  0  0  0  0  0
  -22.8007   -9.1217   22.7874 C   0  0  0  0  0  0  0  0  0  0  0  0
  -28.3169  -28.9422   23.8705 C   0  0  0  0  0  0  0  0  0  0  0  0
  -22.9508   -5.7729   23.2156 C   0  0  0  0  0  0  0  0  0  0  0  0
  -22.2340   -4.7186   22.6499 C   0  0  0  0  0  0  0  0  0  0  0  0
  -28.2589  -21.9168   20.1042 C   0  0  0  0  0  0  0  0  0  0  0  0
  -30.2044  -21.6205   18.7028 C   0  0  0  0  0  0  0  0  0  0  0  0
  -26.0157  -28.3006   23.5361 C   0  0  0  0  0  0  0  0  0  0  0  0
  -29.4317  -23.8452   19.2423 C   0  0  0  0  0  0  0  0  0  0  0  0
  -20.2697   -5.3911   23.8854 C   0  0  0  0  0  0  0  0  0  0  0  0
  -24.6546  -10.5118   22.1036 C   0  0  0  0  0  0  0  0  0  0  0  0
  -29.1649  -21.0765   19.4572 C   0  0  0  0  0  0  0  0  0  0  0  0
  -25.9125  -11.2534   20.0118 C   0  0  0  0  0  0  0  0  0  0  0  0
  -26.5542  -36.4114   25.7540 C   0  0  0  0  0  0  0  0  0  0  0  0
  -26.7770  -30.4710   22.7816 C   0  0  0  0  0  0  0  0  0  0  0  0
  -26.3279  -35.0218   25.7566 C   0  0  0  0  0  0  0  0  0  0  0  0
  -25.7475  -29.5278   22.9108 C   0  0  0  0  0  0  0  0  0  0  0  0
  -28.3922  -23.3012   19.9967 C   0  0  0  0  0  0  0  0  0  0  0  0
  -30.3378  -23.0049   18.5953 C   0  0  0  0  0  0  0  0  0  0  0  0
  -23.5696   -8.6107   23.8331 C   0  0  0  0  0  0  0  0  0  0  0  0
  -27.2931  -28.0104   24.0147 C   0  0  0  0  0  0  0  0  0  0  0  0
  -22.3272   -6.6363   24.1164 C   0  0  0  0  0  0  0  0  0  0  0  0
  -20.8934   -4.5277   22.9847 C   0  0  0  0  0  0  0  0  0  0  0  0
  -20.9866   -6.4454   24.4512 C   0  0  0  0  0  0  0  0  0  0  0  0
  -25.2143  -11.4941   21.2103 C   0  0  0  0  0  0  0  0  0  0  0  0
  -26.2310  -12.5044   19.5428 C   0  0  0  0  0  0  0  0  0  0  0  0
  -29.0252  -19.6331   19.5681 C   0  0  0  0  0  0  0  0  0  0  0  0
  -28.3374  -18.9844   20.5320 C   0  0  0  0  0  0  0  0  0  0  0  0
  -28.0974  -25.1067   21.7053 C   0  0  0  0  0  0  0  0  0  0  0  0
  -27.8348  -25.0909   23.0213 C   0  0  0  0  0  0  0  0  0  0  0  0
  -26.2434  -10.0102   19.3790 C   0  0  0  0  0  0  0  0  0  0  0  0
  -28.2800  -17.5091   20.5022 C   0  0  0  0  0  0  0  0  0  0  0  0
  -24.6092  -32.6955   23.4571 C   0  0  0  0  0  0  0  0  0  0  0  0
  -23.0438  -31.3799   20.9390 C   0  0  0  0  0  0  0  0  0  0  0  0
  -22.5401  -28.6591   18.9414 C   0  0  0  0  0  0  0  0  0  0  0  0
  -25.5114  -37.3841   25.2629 C   0  0  0  0  0  0  0  0  0  0  0  0
  -26.5245  -31.7848   22.0939 C   0  0  0  0  0  0  0  0  0  0  0  0
  -24.3555  -29.7987   22.4033 C   0  0  0  0  0  0  0  0  0  0  0  0
  -24.4340  -36.7363   24.3970 C   0  0  0  0  0  0  0  0  0  0  0  0
  -24.6747  -17.0753   20.9972 C   0  0  0  0  0  0  0  0  0  0  0  0
  -23.9287  -35.4515   25.0457 C   0  0  0  0  0  0  0  0  0  0  0  0
  -24.5658  -15.5536   21.0451 C   0  0  0  0  0  0  0  0  0  0  0  0
  -25.9817  -17.5747   21.6111 C   0  0  0  0  0  0  0  0  0  0  0  0
  -27.0884  -15.4263   21.0634 C   0  0  0  0  0  0  0  0  0  0  0  0
  -25.0585  -34.4245   25.1890 C   0  0  1  0  0  0  0  0  0  0  0  0
  -25.0555  -32.1961   22.1121 C   0  0  1  0  0  0  0  0  0  0  0  0
  -25.8021  -14.8992   20.4085 C   0  0  1  0  0  0  0  0  0  0  0  0
  -26.5850  -25.0599   19.7153 C   0  0  0  0  0  0  0  0  0  0  0  0
  -29.2105  -25.1551   25.1009 C   0  0  0  0  0  0  0  0  0  0  0  0
  -21.1703  -27.8738   16.9909 C   0  0  0  0  0  0  0  0  0  0  0  0
  -20.6228  -31.0649   22.7691 C   0  0  0  0  0  0  0  0  0  0  0  0
  -19.6609  -29.4609   21.1049 C   0  0  0  0  0  0  0  0  0  0  0  0
  -20.0847  -31.8302   20.4498 C   0  0  0  0  0  0  0  0  0  0  0  0
  -24.9498  -28.1979   17.2861 C   0  0  0  0  0  0  0  0  0  0  0  0
  -27.4038  -24.2168   20.7004 C   0  0  1  0  0  0  0  0  0  0  0  0
  -28.5244  -25.9758   24.0169 C   0  0  2  0  0  0  0  0  0  1  0  0
  -22.0429  -30.2629   20.7676 C   0  0  1  0  0  0  0  0  0  0  0  0
  -22.4766  -28.5160   17.4315 C   0  0  2  0  0  0  0  0  0  0  0  0
  -20.6285  -30.6501   21.2843 C   0  0  0  0  0  0  0  0  0  0  0  0
  -25.0961  -12.7958   21.4857 N   0  0  0  0  0  0  0  0  0  0  0  0
  -25.7243  -13.3842   20.4536 N   0  0  0  0  0  0  0  0  0  0  0  0
  -27.1460  -16.8919   21.0272 N   0  0  0  0  0  0  0  0  0  0  0  0
  -24.1571  -31.1000   21.7440 N   0  0  0  0  0  0  0  0  0  0  0  0
  -31.3864  -23.5554   17.8294 N   0  0  0  0  0  0  0  0  0  0  0  0
  -26.8924  -12.9268   18.4443 N   0  0  0  0  0  0  0  0  0  0  0  0
  -25.8396   -8.8182   19.9958 N   0  0  0  0  0  0  0  0  0  0  0  0
  -25.3239  -33.7845   23.9184 N   0  0  0  0  0  0  0  0  0  0  0  0
  -22.0829  -29.8917   19.3573 N   0  0  0  0  0  0  0  0  0  0  0  0
  -23.6035  -27.6717   16.9433 N   0  3  0  0  0  0  0  0  0  0  0  0
  -26.8926   -9.9573   18.3070 O   0  0  0  0  0  0  0  0  0  0  0  0
  -29.2433  -16.9122   20.0180 O   0  0  0  0  0  0  0  0  0  0  0  0
  -23.6839  -32.1353   24.0330 O   0  0  0  0  0  0  0  0  0  0  0  0
  -22.8488  -32.4587   20.3734 O   0  0  0  0  0  0  0  0  0  0  0  0
  -22.9506  -27.7654   19.6785 O   0  0  0  0  0  0  0  0  0  0  0  0
  -23.0400   -7.6831   24.6766 O   0  0  0  0  0  0  0  0  0  0  0  0
  -27.5392  -26.8155   24.6175 O   0  0  0  0  0  0  0  0  0  1  0  0
  -20.2047   -3.5161   22.4402 F   0  0  0  0  0  0  0  0  0  0  0  0
  -20.3817   -7.2724   25.3150 F   0  0  0  0  0  0  0  0  0  0  0  0
  1  2  1  0  0  0  0
  1  5  2  0  0  0  0
  2  6  2  0  0  0  0
  3  8  2  0  0  0  0
  3 18  1  0  0  0  0
  4  9  1  0  0  0  0
  4 18  2  0  0  0  0
  5 21  1  0  0  0  0
  6 23  1  0  0  0  0
  7 10  2  0  0  0  0
  7 22  1  0  0  0  0
  8 27  1  0  0  0  0
  9 27  2  0  0  0  0
 10 28  1  0  0  0  0
 11 12  2  0  0  0  0
 11 29  1  0  0  0  0
 12 30  1  0  0  0  0
 13 19  1  0  0  0  0
 13 25  2  0  0  0  0
 14 19  2  0  0  0  0
 14 26  1  0  0  0  0
 15 24  1  0  0  0  0
 15 28  2  0  0  0  0
 16 25  1  0  0  0  0
 16 26  2  0  0  0  0
 17 30  2  0  0  0  0
 17 31  1  0  0  0  0
 18 32  1  0  0  0  0
 19 34  1  0  0  0  0
 20 32  1  0  0  0  0
 20 33  2  0  0  0  0
 20 38  1  0  0  0  0
 21 23  2  0  0  0  0
 21 43  1  0  0  0  0
 22 24  2  0  0  0  0
 22 44  1  0  0  0  0
 23 52  1  0  0  0  0
 24 45  1  0  0  0  0
 25 62  1  0  0  0  0
 26 71  1  0  0  0  0
 27 82  1  0  0  0  0
 28 83  1  0  0  0  0
 29 31  2  0  0  0  0
 29 82  1  0  0  0  0
 30 84  1  0  0  0  0
 31 85  1  0  0  0  0
 32 67  2  0  0  0  0
 33 68  1  0  0  0  0
 33 72  1  0  0  0  0
 34 35  2  0  0  0  0
 35 39  1  0  0  0  0
 36 37  2  0  0  0  0
 36 62  1  0  0  0  0
 37 63  1  0  0  0  0
 38 73  1  0  0  0  0
 38 77  2  0  0  0  0
 39 69  1  0  0  0  0
 39 78  2  0  0  0  0
 40 53  1  0  0  0  0
 40 74  1  0  0  0  0
 40 79  2  0  0  0  0
 41 64  1  0  0  0  0
 41 70  1  0  0  0  0
 41 80  2  0  0  0  0
 42 65  1  0  0  0  0
 42 75  1  0  0  0  0
 42 81  2  0  0  0  0
 43 46  1  0  0  0  0
 44 53  1  0  0  0  0
 45 70  1  0  0  0  0
 46 48  1  0  0  0  0
 47 49  1  0  0  0  0
 47 50  1  0  0  0  0
 48 52  1  0  0  0  0
 49 54  1  0  0  0  0
 50 69  1  0  0  0  0
 51 54  1  0  0  0  0
 51 69  1  0  0  0  0
 52 74  1  0  0  0  0
 53 70  1  0  0  0  0
 54 68  1  0  0  0  0
 55 62  1  0  0  0  0
 56 63  1  0  0  0  0
 57 65  1  0  0  0  0
 58 66  1  0  0  0  0
 59 66  1  0  0  0  0
 60 66  1  0  0  0  0
 61 76  1  0  0  0  0
 63 83  1  0  0  0  0
 64 66  1  0  0  0  0
 64 75  1  0  0  0  0
 65 76  1  0  0  0  0
 67 68  1  0  0  0  0
M  CHG  1  76   1
M  ISO  4  35 100  39 100  63 101  83 101
M  END
> <Batch ID>
0128

> <Smiles>
CNC(C)C(=O)NC(C(=O)N1Cc2cc([101O:1][101CH:1](C)C=CC(C)c3cc(N)cc(C=[100CH:0][100C:0](=O)N4CCCC(n5nc(-c6ccc(Oc7ccc(F)cc7F)cc6)c(C(N)=O)c5N)C4)c3)ccc2CC1C(=O)NC1CCCc2ccccc21)C(C)(C)C

> <Shape>
0.278

> <Color>
0.070

> <Negative vol penalty>
0.000

$$$$

  -OEChem-04052302163D

 85 93  0     1  0  0  0  0  0999 V2000
  -25.5664  -29.8495   17.2264 C   0  0  0  0  0  0  0  0  0  0  0  0
  -25.5340  -28.4712   17.4124 C   0  0  0  0  0  0  0  0  0  0  0  0
  -29.8521  -23.5405   20.7185 C   0  0  0  0  0  0  0  0  0  0  0  0
  -27.4457  -23.4924   20.5096 C   0  0  0  0  0  0  0  0  0  0  0  0
  -25.3447  -30.7029   18.3064 C   0  0  0  0  0  0  0  0  0  0  0  0
  -25.2809  -27.9454   18.6788 C   0  0  0  0  0  0  0  0  0  0  0  0
  -22.2083  -22.8119   19.9871 C   0  0  0  0  0  0  0  0  0  0  0  0
  -29.8412  -24.9221   20.5273 C   0  0  0  0  0  0  0  0  0  0  0  0
  -27.4347  -24.8741   20.3185 C   0  0  0  0  0  0  0  0  0  0  0  0
  -22.6297  -21.5180   20.2906 C   0  0  0  0  0  0  0  0  0  0  0  0
  -30.4147  -28.5111   20.4541 C   0  0  0  0  0  0  0  0  0  0  0  0
  -31.2034  -29.2892   21.3014 C   0  0  0  0  0  0  0  0  0  0  0  0
  -22.4405  -22.0148   22.6436 C   0  0  0  0  0  0  0  0  0  0  0  0
  -24.5426  -12.7574   22.0054 C   0  0  0  0  0  0  0  0  0  0  0  0
  -25.8386  -12.6723   19.5364 C   0  0  0  0  0  0  0  0  0  0  0  0
  -29.9690  -28.4647   23.2076 C   0  0  0  0  0  0  0  0  0  0  0  0
  -28.6544  -22.8256   20.7095 C   0  0  0  0  0  0  0  0  0  0  0  0
  -28.5724  -20.7081   22.1298 C   0  0  0  0  0  0  0  0  0  0  0  0
  -25.0792  -30.1873   19.5848 C   0  0  0  0  0  0  0  0  0  0  0  0
  -21.9098  -23.7219   21.0114 C   0  0  0  0  0  0  0  0  0  0  0  0
  -25.0568  -28.7927   19.7773 C   0  0  0  0  0  0  0  0  0  0  0  0
  -22.0131  -23.3188   22.3504 C   0  0  0  0  0  0  0  0  0  0  0  0
  -24.5833  -11.5669   21.2798 C   0  0  0  0  0  0  0  0  0  0  0  0
  -25.7979  -13.8629   20.2620 C   0  0  0  0  0  0  0  0  0  0  0  0
  -28.6325  -25.5889   20.3274 C   0  0  0  0  0  0  0  0  0  0  0  0
  -22.7487  -21.1202   21.6190 C   0  0  0  0  0  0  0  0  0  0  0  0
  -29.4031  -27.7098   20.9835 C   0  0  0  0  0  0  0  0  0  0  0  0
  -25.1499  -13.9054   21.4965 C   0  0  0  0  0  0  0  0  0  0  0  0
  -30.9806  -29.2661   22.6782 C   0  0  0  0  0  0  0  0  0  0  0  0
  -25.2313  -11.5243   20.0453 C   0  0  0  0  0  0  0  0  0  0  0  0
  -29.1803  -27.6866   22.3603 C   0  0  0  0  0  0  0  0  0  0  0  0
  -28.6651  -21.3983   20.9064 C   0  0  0  0  0  0  0  0  0  0  0  0
  -28.6284  -19.3810   21.7805 C   0  0  0  0  0  0  0  0  0  0  0  0
  -28.4469  -21.2209   23.4629 C   0  0  0  0  0  0  0  0  0  0  0  0
  -23.0842  -26.5289   21.9307 C   0  0  0  0  0  0  0  0  0  0  0  0
  -23.8707  -17.0983   22.6590 C   0  0  0  0  0  0  0  0  0  0  0  0
  -20.5796  -26.4624   23.9910 C   0  0  0  0  0  0  0  0  0  0  0  0
  -18.2976  -24.6035   25.7183 C   0  0  0  0  0  0  0  0  0  0  0  0
  -27.1006  -15.1338   18.5202 C   0  0  0  0  0  0  0  0  0  0  0  0
  -24.8925  -31.1494   20.7312 C   0  0  0  0  0  0  0  0  0  0  0  0
  -21.4309  -25.1056   20.6672 C   0  0  0  0  0  0  0  0  0  0  0  0
  -21.6852  -24.2513   23.4868 C   0  0  0  0  0  0  0  0  0  0  0  0
  -24.2602  -30.5111   21.9653 C   0  0  0  0  0  0  0  0  0  0  0  0
  -29.7756  -17.1818   17.3681 C   0  0  0  0  0  0  0  0  0  0  0  0
  -24.9352  -29.1807   22.2833 C   0  0  0  0  0  0  0  0  0  0  0  0
  -29.7175  -18.4045   18.2866 C   0  0  0  0  0  0  0  0  0  0  0  0
  -28.3804  -16.6580   17.0323 C   0  0  0  0  0  0  0  0  0  0  0  0
  -27.4646  -17.6103   19.1116 C   0  0  0  0  0  0  0  0  0  0  0  0
  -24.7609  -28.1842   21.1309 C   0  0  1  0  0  0  0  0  0  0  0  0
  -21.6476  -26.1105   21.7943 C   0  0  1  0  0  0  0  0  0  0  0  0
  -28.8480  -18.1345   19.5302 C   0  0  2  0  0  0  0  0  0  0  0  0
  -23.9331  -10.3411   21.8265 C   0  0  0  0  0  0  0  0  0  0  0  0
  -16.4041  -24.8275   27.3498 C   0  0  0  0  0  0  0  0  0  0  0  0
  -22.5804  -26.9484   26.2427 C   0  0  0  0  0  0  0  0  0  0  0  0
  -20.8204  -26.2233   27.8690 C   0  0  0  0  0  0  0  0  0  0  0  0
  -20.4474  -28.2380   26.4462 C   0  0  0  0  0  0  0  0  0  0  0  0
  -16.3673  -23.4082   23.8199 C   0  0  0  0  0  0  0  0  0  0  0  0
  -22.5482  -17.7739   22.9901 C   0  0  0  0  0  0  0  0  0  0  0  0
  -23.8191  -15.5891   22.5212 C   0  0  0  0  0  0  0  0  0  0  0  0
  -22.6693  -19.2845   23.1289 C   0  0  0  0  0  0  0  0  0  1  0  0
  -20.3605  -25.9421   25.3910 C   0  0  1  0  0  0  0  0  0  0  0  0
  -16.7956  -24.7505   25.8823 C   0  0  2  0  0  0  0  0  0  0  0  0
  -21.0603  -26.8207   26.4661 C   0  0  0  0  0  0  0  0  0  0  0  0
  -28.7719  -20.5774   19.8581 N   0  0  0  0  0  0  0  0  0  0  0  0
  -28.7469  -19.3578   20.4220 N   0  0  0  0  0  0  0  0  0  0  0  0
  -21.2271  -25.5957   23.0991 N   0  0  0  0  0  0  0  0  0  0  0  0
  -27.6160  -16.4209   18.2588 N   0  0  0  0  0  0  0  0  0  0  0  0
  -28.5874  -18.2432   22.5060 N   0  0  0  0  0  0  0  0  0  0  0  0
  -28.4043  -22.6101   23.6432 N   0  0  0  0  0  0  0  0  0  0  0  0
  -26.4195  -15.0205   19.7317 N   0  0  0  0  0  0  0  0  0  0  0  0
  -23.4300  -27.6161   21.1509 N   0  0  0  0  0  0  0  0  0  0  0  0
  -18.9163  -25.8258   25.5620 N   0  0  0  0  0  0  0  0  0  0  0  0
  -16.0915  -23.5893   25.2684 N   0  3  0  0  0  0  0  0  0  0  0  0
  -28.3912  -20.4696   24.4660 O   0  0  0  0  0  0  0  0  0  0  0  0
  -23.8239  -25.9121   22.6884 O   0  0  0  0  0  0  0  0  0  0  0  0
  -24.9174  -17.7264   22.5086 O   0  0  0  0  0  0  0  0  0  0  0  0
  -20.1842  -27.5934   23.6974 O   0  0  0  0  0  0  0  0  0  0  0  0
  -18.8657  -23.5137   25.7316 O   0  0  0  0  0  0  0  0  0  0  0  0
  -27.2757  -14.1940   17.7404 O   0  0  0  0  0  0  0  0  0  0  0  0
  -28.6214  -26.9372   20.1411 O   0  0  0  0  0  0  0  0  0  0  0  0
  -25.0983  -15.0687   22.2276 O   0  0  0  0  0  0  0  0  0  0  0  0
  -23.1604  -19.8581   21.9180 O   0  0  0  0  0  0  0  0  0  1  0  0
  -31.7391  -30.0122   23.4919 F   0  0  0  0  0  0  0  0  0  0  0  0
  -25.2756  -10.3848   19.3408 F   0  0  0  0  0  0  0  0  0  0  0  0
  -28.2107  -26.9178   22.8749 F   0  0  0  0  0  0  0  0  0  0  0  0
  1  2  1  0  0  0  0
  1  5  2  0  0  0  0
  2  6  2  0  0  0  0
  3  8  2  0  0  0  0
  3 17  1  0  0  0  0
  4  9  1  0  0  0  0
  4 17  2  0  0  0  0
  5 19  1  0  0  0  0
  6 21  1  0  0  0  0
  7 10  2  0  0  0  0
  7 20  1  0  0  0  0
  8 25  1  0  0  0  0
  9 25  2  0  0  0  0
 10 26  1  0  0  0  0
 11 12  2  0  0  0  0
 11 27  1  0  0  0  0
 12 29  1  0  0  0  0
 13 22  1  0  0  0  0
 13 26  2  0  0  0  0
 14 23  2  0  0  0  0
 14 28  1  0  0  0  0
 15 24  1  0  0  0  0
 15 30  2  0  0  0  0
 16 29  2  0  0  0  0
 16 31  1  0  0  0  0
 17 32  1  0  0  0  0
 18 32  1  0  0  0  0
 18 33  2  0  0  0  0
 18 34  1  0  0  0  0
 19 21  2  0  0  0  0
 19 40  1  0  0  0  0
 20 22  2  0  0  0  0
 20 41  1  0  0  0  0
 21 49  1  0  0  0  0
 22 42  1  0  0  0  0
 23 30  1  0  0  0  0
 23 52  1  0  0  0  0
 24 28  2  0  0  0  0
 24 70  1  0  0  0  0
 25 80  1  0  0  0  0
 26 82  1  0  0  0  0
 27 31  2  0  0  0  0
 27 80  1  0  0  0  0
 28 81  1  0  0  0  0
 29 83  1  0  0  0  0
 30 84  1  0  0  0  0
 31 85  1  0  0  0  0
 32 64  2  0  0  0  0
 33 65  1  0  0  0  0
 33 68  1  0  0  0  0
 34 69  1  0  0  0  0
 34 74  2  0  0  0  0
 35 50  1  0  0  0  0
 35 71  1  0  0  0  0
 35 75  2  0  0  0  0
 36 58  1  0  0  0  0
 36 59  1  0  0  0  0
 36 76  2  0  0  0  0
 37 61  1  0  0  0  0
 37 66  1  0  0  0  0
 37 77  2  0  0  0  0
 38 62  1  0  0  0  0
 38 72  1  0  0  0  0
 38 78  2  0  0  0  0
 39 67  1  0  0  0  0
 39 70  1  0  0  0  0
 39 79  2  0  0  0  0
 40 43  1  0  0  0  0
 41 50  1  0  0  0  0
 42 66  1  0  0  0  0
 43 45  1  0  0  0  0
 44 46  1  0  0  0  0
 44 47  1  0  0  0  0
 45 49  1  0  0  0  0
 46 51  1  0  0  0  0
 47 67  1  0  0  0  0
 48 51  1  0  0  0  0
 48 67  1  0  0  0  0
 49 71  1  0  0  0  0
 50 66  1  0  0  0  0
 51 65  1  0  0  0  0
 53 62  1  0  0  0  0
 54 63  1  0  0  0  0
 55 63  1  0  0  0  0
 56 63  1  0  0  0  0
 57 73  1  0  0  0  0
 58 60  1  0  0  0  0
 59 81  1  0  0  0  0
 60 82  1  0  0  0  0
 61 63  1  0  0  0  0
 61 72  1  0  0  0  0
 62 73  1  0  0  0  0
 64 65  1  0  0  0  0
M  CHG  1  73   1
M  ISO  4  39 100  60 101  70 100  82 101
M  END
> <Batch ID>
0128

> <Smiles>
CNC(C)C(=O)NC(C(=O)N1Cc2cc([101O:1][101CH2:1]CC(=O)COc3cc(C)c(F)cc3[100NH:0][100C:0](=O)N3CCCC(n4nc(-c5ccc(Oc6ccc(F)cc6F)cc5)c(C(N)=O)c4N)C3)ccc2CC1C(=O)NC1CCCc2ccccc21)C(C)(C)C

> <Shape>
0.181

> <Color>
0.070

> <Negative vol penalty>
0.000

$$$$
