
  -OEChem-04052302193D

 83 91  0     1  0  0  0  0  0999 V2000
  -27.6767  -31.4391   27.9094 C   0  0  0  0  0  0  0  0  0  0  0  0
  -27.8872  -30.5415   26.8676 C   0  0  0  0  0  0  0  0  0  0  0  0
  -23.0770   -7.7370   23.6546 C   0  0  0  0  0  0  0  0  0  0  0  0
  -20.9240   -8.3257   22.7297 C   0  0  0  0  0  0  0  0  0  0  0  0
  -28.7061  -18.8009   21.1650 C   0  0  0  0  0  0  0  0  0  0  0  0
  -28.9301  -18.6226   18.7660 C   0  0  0  0  0  0  0  0  0  0  0  0
  -26.3787  -31.8159   28.2517 C   0  0  0  0  0  0  0  0  0  0  0  0
  -26.7997  -30.0193   26.1682 C   0  0  0  0  0  0  0  0  0  0  0  0
  -27.5224  -30.0396   21.1560 C   0  0  0  0  0  0  0  0  0  0  0  0
  -29.1190  -20.1318   21.1046 C   0  0  0  0  0  0  0  0  0  0  0  0
  -29.3429  -19.9536   18.7056 C   0  0  0  0  0  0  0  0  0  0  0  0
  -22.4557   -6.8575   24.5411 C   0  0  0  0  0  0  0  0  0  0  0  0
  -20.3027   -7.4461   23.6163 C   0  0  0  0  0  0  0  0  0  0  0  0
  -28.3349  -29.0384   20.6258 C   0  0  0  0  0  0  0  0  0  0  0  0
  -21.1408   -3.7437   24.4495 C   0  0  0  0  0  0  0  0  0  0  0  0
  -21.7046   -2.4779   24.6087 C   0  0  0  0  0  0  0  0  0  0  0  0
  -26.3711  -27.8028   19.9654 C   0  0  0  0  0  0  0  0  0  0  0  0
  -22.0320   -2.9196   26.9614 C   0  0  0  0  0  0  0  0  0  0  0  0
  -22.3112   -8.4712   22.7489 C   0  0  0  0  0  0  0  0  0  0  0  0
  -28.6117  -18.0462   19.9956 C   0  0  0  0  0  0  0  0  0  0  0  0
  -23.4281   -9.0901   20.5405 C   0  0  0  0  0  0  0  0  0  0  0  0
  -25.2753  -31.3055   27.5499 C   0  0  0  0  0  0  0  0  0  0  0  0
  -26.1257  -29.9246   21.1045 C   0  0  0  0  0  0  0  0  0  0  0  0
  -25.4857  -30.3886   26.5024 C   0  0  0  0  0  0  0  0  0  0  0  0
  -25.5431  -28.8051   20.4934 C   0  0  0  0  0  0  0  0  0  0  0  0
  -29.4373  -20.7082   19.8750 C   0  0  0  0  0  0  0  0  0  0  0  0
  -21.0685   -6.7120   24.5220 C   0  0  0  0  0  0  0  0  0  0  0  0
  -27.7593  -27.9184   20.0329 C   0  0  0  0  0  0  0  0  0  0  0  0
  -21.0226   -4.5975   25.5462 C   0  0  0  0  0  0  0  0  0  0  0  0
  -22.1501   -2.0658   25.8646 C   0  0  0  0  0  0  0  0  0  0  0  0
  -21.4682   -4.1854   26.8021 C   0  0  0  0  0  0  0  0  0  0  0  0
  -22.9523   -9.3803   21.8332 C   0  0  0  0  0  0  0  0  0  0  0  0
  -23.9460  -10.2798   20.0900 C   0  0  0  0  0  0  0  0  0  0  0  0
  -28.1814  -16.6582   20.0583 C   0  0  0  0  0  0  0  0  0  0  0  0
  -27.4962  -16.0959   21.0767 C   0  0  0  0  0  0  0  0  0  0  0  0
  -23.4040   -7.8555   19.8119 C   0  0  0  0  0  0  0  0  0  0  0  0
  -27.1213  -14.6703   20.9876 C   0  0  0  0  0  0  0  0  0  0  0  0
  -23.8080  -29.7499   23.2728 C   0  0  0  0  0  0  0  0  0  0  0  0
  -29.1551  -24.5957   19.6208 C   0  0  0  0  0  0  0  0  0  0  0  0
  -21.8874  -29.9165   20.6640 C   0  0  0  0  0  0  0  0  0  0  0  0
  -21.5085  -29.4204   17.3088 C   0  0  0  0  0  0  0  0  0  0  0  0
  -23.8885  -31.7058   27.9872 C   0  0  0  0  0  0  0  0  0  0  0  0
  -25.2632  -31.0259   21.6571 C   0  0  0  0  0  0  0  0  0  0  0  0
  -24.0489  -28.6434   20.3946 C   0  0  0  0  0  0  0  0  0  0  0  0
  -22.8101  -31.3954   26.9522 C   0  0  0  0  0  0  0  0  0  0  0  0
  -23.5970  -14.9532   21.9523 C   0  0  0  0  0  0  0  0  0  0  0  0
  -22.9817  -29.9798   26.4107 C   0  0  0  0  0  0  0  0  0  0  0  0
  -23.1719  -13.4872   21.9449 C   0  0  0  0  0  0  0  0  0  0  0  0
  -25.0466  -15.1259   22.4033 C   0  0  0  0  0  0  0  0  0  0  0  0
  -25.5911  -12.8420   21.6109 C   0  0  0  0  0  0  0  0  0  0  0  0
  -24.3331  -29.8194   25.7039 C   0  0  1  0  0  0  0  0  0  0  0  0
  -23.8533  -30.5613   22.0089 C   0  0  1  0  0  0  0  0  0  0  0  0
  -24.1505  -12.6410   21.1153 C   0  0  1  0  0  0  0  0  0  0  0  0
  -19.8134  -29.6113   15.4683 C   0  0  0  0  0  0  0  0  0  0  0  0
  -20.5190  -27.3794   21.6644 C   0  0  0  0  0  0  0  0  0  0  0  0
  -19.5300  -27.0963   19.3819 C   0  0  0  0  0  0  0  0  0  0  0  0
  -18.9651  -29.1089   20.7431 C   0  0  0  0  0  0  0  0  0  0  0  0
  -23.1597  -31.3845   15.8342 C   0  0  0  0  0  0  0  0  0  0  0  0
  -29.8819  -22.1498   19.8101 C   0  0  0  0  0  0  0  0  0  0  0  0
  -28.7259  -23.1357   19.6306 C   0  0  0  0  0  0  0  0  0  0  0  0
  -28.0318  -25.6099   19.5303 C   0  0  0  0  0  0  0  0  0  1  0  0
  -21.2704  -28.9086   19.7245 C   0  0  1  0  0  0  0  0  0  0  0  0
  -20.9385  -30.3082   16.2173 C   0  0  2  0  0  0  0  0  0  0  0  0
  -20.0993  -28.1251   20.3819 C   0  0  0  0  0  0  0  0  0  0  0  0
  -23.1505  -10.6545   22.1816 N   0  0  0  0  0  0  0  0  0  0  0  0
  -23.7566  -11.1753   21.1011 N   0  0  0  0  0  0  0  0  0  0  0  0
  -25.9559  -14.2629   21.6344 N   0  0  0  0  0  0  0  0  0  0  0  0
  -23.2480  -29.7443   20.9551 N   0  0  0  0  0  0  0  0  0  0  0  0
  -24.5404  -10.6367   18.9317 N   0  0  0  0  0  0  0  0  0  0  0  0
  -22.8345   -6.7300   20.4231 N   0  0  0  0  0  0  0  0  0  0  0  0
  -24.2875  -30.4144   24.3854 N   0  0  0  0  0  0  0  0  0  0  0  0
  -20.8956  -29.6465   18.5231 N   0  0  0  0  0  0  0  0  0  0  0  0
  -22.0011  -30.6714   15.2375 N   0  3  0  0  0  0  0  0  0  0  0  0
  -23.8882   -7.7493   18.6596 O   0  0  0  0  0  0  0  0  0  0  0  0
  -27.8667  -13.9252   20.3489 O   0  0  0  0  0  0  0  0  0  0  0  0
  -23.3690  -28.6063   23.2411 O   0  0  0  0  0  0  0  0  0  0  0  0
  -30.3316  -24.9414   19.7159 O   0  0  0  0  0  0  0  0  0  0  0  0
  -21.1896  -30.8272   21.1169 O   0  0  0  0  0  0  0  0  0  0  0  0
  -22.4050  -28.6050   17.1038 O   0  0  0  0  0  0  0  0  0  0  0  0
  -20.4619   -5.8537   25.3867 O   0  0  0  0  0  0  0  0  0  0  0  0
  -28.5501  -26.9394   19.5152 O   0  0  0  0  0  0  0  0  0  1  0  0
  -22.6901   -0.8495   26.0177 F   0  0  0  0  0  0  0  0  0  0  0  0
  -21.3563   -5.0008   27.8597 F   0  0  0  0  0  0  0  0  0  0  0  0
  1  2  1  0  0  0  0
  1  7  2  0  0  0  0
  2  8  2  0  0  0  0
  3 12  2  0  0  0  0
  3 19  1  0  0  0  0
  4 13  1  0  0  0  0
  4 19  2  0  0  0  0
  5 10  2  0  0  0  0
  5 20  1  0  0  0  0
  6 11  1  0  0  0  0
  6 20  2  0  0  0  0
  7 22  1  0  0  0  0
  8 24  1  0  0  0  0
  9 14  2  0  0  0  0
  9 23  1  0  0  0  0
 10 26  1  0  0  0  0
 11 26  2  0  0  0  0
 12 27  1  0  0  0  0
 13 27  2  0  0  0  0
 14 28  1  0  0  0  0
 15 16  2  0  0  0  0
 15 29  1  0  0  0  0
 16 30  1  0  0  0  0
 17 25  1  0  0  0  0
 17 28  2  0  0  0  0
 18 30  2  0  0  0  0
 18 31  1  0  0  0  0
 19 32  1  0  0  0  0
 20 34  1  0  0  0  0
 21 32  1  0  0  0  0
 21 33  2  0  0  0  0
 21 36  1  0  0  0  0
 22 24  2  0  0  0  0
 22 42  1  0  0  0  0
 23 25  2  0  0  0  0
 23 43  1  0  0  0  0
 24 51  1  0  0  0  0
 25 44  1  0  0  0  0
 26 59  1  0  0  0  0
 27 80  1  0  0  0  0
 28 81  1  0  0  0  0
 29 31  2  0  0  0  0
 29 80  1  0  0  0  0
 30 82  1  0  0  0  0
 31 83  1  0  0  0  0
 32 65  2  0  0  0  0
 33 66  1  0  0  0  0
 33 69  1  0  0  0  0
 34 35  2  0  0  0  0
 35 37  1  0  0  0  0
 36 70  1  0  0  0  0
 36 74  2  0  0  0  0
 37 67  1  0  0  0  0
 37 75  2  0  0  0  0
 38 52  1  0  0  0  0
 38 71  1  0  0  0  0
 38 76  2  0  0  0  0
 39 60  1  0  0  0  0
 39 61  1  0  0  0  0
 39 77  2  0  0  0  0
 40 62  1  0  0  0  0
 40 68  1  0  0  0  0
 40 78  2  0  0  0  0
 41 63  1  0  0  0  0
 41 72  1  0  0  0  0
 41 79  2  0  0  0  0
 42 45  1  0  0  0  0
 43 52  1  0  0  0  0
 44 68  1  0  0  0  0
 45 47  1  0  0  0  0
 46 48  1  0  0  0  0
 46 49  1  0  0  0  0
 47 51  1  0  0  0  0
 48 53  1  0  0  0  0
 49 67  1  0  0  0  0
 50 53  1  0  0  0  0
 50 67  1  0  0  0  0
 51 71  1  0  0  0  0
 52 68  1  0  0  0  0
 53 66  1  0  0  0  0
 54 63  1  0  0  0  0
 55 64  1  0  0  0  0
 56 64  1  0  0  0  0
 57 64  1  0  0  0  0
 58 73  1  0  0  0  0
 59 60  1  0  0  0  0
 61 81  1  0  0  0  0
 62 64  1  0  0  0  0
 62 72  1  0  0  0  0
 63 73  1  0  0  0  0
 65 66  1  0  0  0  0
M  CHG  1  73   1
M  ISO  4  35 100  37 100  61 101  81 101
M  END
> <Batch ID>
0129

> <Smiles>
CNC(C)C(=O)NC(C(=O)N1Cc2cc([101O:1][101CH2:1]C(=O)CCc3ccc(C=[100CH:0][100C:0](=O)N4CCCC(n5nc(-c6ccc(Oc7ccc(F)cc7F)cc6)c(C(N)=O)c5N)C4)cc3)ccc2CC1C(=O)NC1CCCc2ccccc21)C(C)(C)C

> <Shape>
0.291

> <Color>
0.079

> <Negative vol penalty>
0.000

$$$$

  -OEChem-04052302193D

 84 92  0     1  0  0  0  0  0999 V2000
  -23.7369  -33.7144   13.5675 C   0  0  0  0  0  0  0  0  0  0  0  0
  -24.2244  -32.5012   14.0427 C   0  0  0  0  0  0  0  0  0  0  0  0
  -24.2302   -9.5026   22.1562 C   0  0  0  0  0  0  0  0  0  0  0  0
  -24.4772   -8.7107   19.8871 C   0  0  0  0  0  0  0  0  0  0  0  0
  -29.2694  -20.7322   19.3641 C   0  0  0  0  0  0  0  0  0  0  0  0
  -23.9311  -34.8802   14.3072 C   0  0  0  0  0  0  0  0  0  0  0  0
  -24.9074  -32.4532   15.2574 C   0  0  0  0  0  0  0  0  0  0  0  0
  -24.8106  -27.9057   19.3583 C   0  0  0  0  0  0  0  0  0  0  0  0
  -29.5493  -22.0379   18.9611 C   0  0  0  0  0  0  0  0  0  0  0  0
  -23.1340   -8.6581   22.3316 C   0  0  0  0  0  0  0  0  0  0  0  0
  -23.3811   -7.8662   20.0625 C   0  0  0  0  0  0  0  0  0  0  0  0
  -25.6882  -26.8525   19.6119 C   0  0  0  0  0  0  0  0  0  0  0  0
  -22.5896   -5.3769   22.9403 C   0  0  0  0  0  0  0  0  0  0  0  0
  -22.5246   -4.6357   24.1201 C   0  0  0  0  0  0  0  0  0  0  0  0
  -31.3204  -20.6865   20.6402 C   0  0  0  0  0  0  0  0  0  0  0  0
  -26.7383  -28.1540   21.3504 C   0  0  0  0  0  0  0  0  0  0  0  0
  -20.4289   -5.7023   24.6747 C   0  0  0  0  0  0  0  0  0  0  0  0
  -24.9018   -9.5290   20.9339 C   0  0  0  0  0  0  0  0  0  0  0  0
  -30.1550  -20.0565   20.2037 C   0  0  0  0  0  0  0  0  0  0  0  0
  -27.3865  -10.1029   21.0032 C   0  0  0  0  0  0  0  0  0  0  0  0
  -24.6084  -34.8449   15.5363 C   0  0  0  0  0  0  0  0  0  0  0  0
  -24.8975  -29.0971   20.0928 C   0  0  0  0  0  0  0  0  0  0  0  0
  -25.1120  -33.6198   16.0137 C   0  0  0  0  0  0  0  0  0  0  0  0
  -25.8589  -29.2199   21.1060 C   0  0  0  0  0  0  0  0  0  0  0  0
  -30.7147  -22.6679   19.3976 C   0  0  0  0  0  0  0  0  0  0  0  0
  -31.6003  -21.9922   20.2372 C   0  0  0  0  0  0  0  0  0  0  0  0
  -22.7095   -7.8399   21.2848 C   0  0  0  0  0  0  0  0  0  0  0  0
  -26.6541  -26.9776   20.6061 C   0  0  0  0  0  0  0  0  0  0  0  0
  -21.5744   -6.2809   22.6277 C   0  0  0  0  0  0  0  0  0  0  0  0
  -21.4443   -4.7983   24.9873 C   0  0  0  0  0  0  0  0  0  0  0  0
  -20.4940   -6.4435   23.4949 C   0  0  0  0  0  0  0  0  0  0  0  0
  -26.0339  -10.4015   20.7520 C   0  0  0  0  0  0  0  0  0  0  0  0
  -28.0592  -11.2541   20.6738 C   0  0  0  0  0  0  0  0  0  0  0  0
  -29.8627  -18.6951   20.6243 C   0  0  0  0  0  0  0  0  0  0  0  0
  -28.6443  -18.1140   20.6054 C   0  0  0  0  0  0  0  0  0  0  0  0
  -27.9815   -8.8929   21.4907 C   0  0  0  0  0  0  0  0  0  0  0  0
  -28.5106  -16.7144   21.0570 C   0  0  0  0  0  0  0  0  0  0  0  0
  -25.4946  -32.1357   19.3758 C   0  0  0  0  0  0  0  0  0  0  0  0
  -24.7684  -32.6098   22.5015 C   0  0  0  0  0  0  0  0  0  0  0  0
  -24.5515  -31.3196   25.6535 C   0  0  0  0  0  0  0  0  0  0  0  0
  -24.8353  -36.1387   16.2775 C   0  0  0  0  0  0  0  0  0  0  0  0
  -23.9260  -30.2139   19.8251 C   0  0  0  0  0  0  0  0  0  0  0  0
  -25.9805  -30.4705   21.9365 C   0  0  0  0  0  0  0  0  0  0  0  0
  -25.2422  -35.9420   17.7356 C   0  0  0  0  0  0  0  0  0  0  0  0
  -26.5180  -15.4111   18.2709 C   0  0  0  0  0  0  0  0  0  0  0  0
  -26.3333  -34.8819   17.8470 C   0  0  0  0  0  0  0  0  0  0  0  0
  -26.2883  -13.9713   18.7224 C   0  0  0  0  0  0  0  0  0  0  0  0
  -26.5549  -16.3813   19.4507 C   0  0  0  0  0  0  0  0  0  0  0  0
  -27.3131  -14.5631   20.9539 C   0  0  0  0  0  0  0  0  0  0  0  0
  -25.8363  -33.5231   17.3388 C   0  0  1  0  0  0  0  0  0  0  0  0
  -24.4386  -31.5749   20.2857 C   0  0  1  0  0  0  0  0  0  0  0  0
  -27.3194  -13.5636   19.7867 C   0  0  1  0  0  0  0  0  0  0  0  0
  -32.8539  -22.6465   20.7175 C   0  0  0  0  0  0  0  0  0  0  0  0
  -31.1760  -24.1428   17.4230 C   0  0  0  0  0  0  0  0  0  0  0  0
  -23.9637  -31.9593   28.0078 C   0  0  0  0  0  0  0  0  0  0  0  0
  -27.4433  -34.0521   22.7749 C   0  0  0  0  0  0  0  0  0  0  0  0
  -27.2348  -33.8212   25.2591 C   0  0  0  0  0  0  0  0  0  0  0  0
  -25.5435  -35.1393   23.9845 C   0  0  0  0  0  0  0  0  0  0  0  0
  -22.3412  -29.3542   25.7589 C   0  0  0  0  0  0  0  0  0  0  0  0
  -29.8185  -25.2297   20.9198 C   0  0  0  0  0  0  0  0  0  0  0  0
  -29.9154  -25.0967   19.3931 C   0  0  0  0  0  0  0  0  0  0  0  0
  -28.8102  -26.2932   21.3399 C   0  0  0  0  0  0  0  0  0  1  0  0
  -30.9974  -24.0902   18.9453 C   0  0  1  0  0  0  0  0  0  0  0  0
  -25.5521  -32.6185   23.7918 C   0  0  1  0  0  0  0  0  0  0  0  0
  -23.4499  -31.3868   26.6958 C   0  0  2  0  0  0  0  0  0  0  0  0
  -26.4427  -33.8848   23.9358 C   0  0  0  0  0  0  0  0  0  0  0  0
  -25.8561  -11.6451   20.2981 N   0  0  0  0  0  0  0  0  0  0  0  0
  -27.1058  -12.1381   20.2617 N   0  0  0  0  0  0  0  0  0  0  0  0
  -27.5055  -15.9389   20.4818 N   0  0  0  0  0  0  0  0  0  0  0  0
  -25.0119  -31.5367   21.6326 N   0  0  0  0  0  0  0  0  0  0  0  0
  -29.3674  -11.5864   20.6995 N   0  0  0  0  0  0  0  0  0  0  0  0
  -27.1450   -7.8062   21.7796 N   0  0  0  0  0  0  0  0  0  0  0  0
  -24.9947  -32.8895   18.3311 N   0  0  0  0  0  0  0  0  0  0  0  0
  -24.5764  -32.4491   24.8631 N   0  0  0  0  0  0  0  0  0  0  0  0
  -22.9022  -30.0261   26.9592 N   0  3  0  0  0  0  0  0  0  0  0  0
  -29.2167   -8.7843   21.6804 O   0  0  0  0  0  0  0  0  0  0  0  0
  -29.2952  -16.3183   21.9208 O   0  0  0  0  0  0  0  0  0  0  0  0
  -26.6757  -31.9031   19.6054 O   0  0  0  0  0  0  0  0  0  0  0  0
  -23.9644  -33.5178   22.2762 O   0  0  0  0  0  0  0  0  0  0  0  0
  -25.3159  -30.3624   25.5530 O   0  0  0  0  0  0  0  0  0  0  0  0
  -21.6400   -7.0155   21.4556 O   0  0  0  0  0  0  0  0  0  0  0  0
  -27.5123  -25.9514   20.8552 O   0  0  0  0  0  0  0  0  0  1  0  0
  -21.3812   -4.0853   26.1195 F   0  0  0  0  0  0  0  0  0  0  0  0
  -19.5150   -7.3096   23.1994 F   0  0  0  0  0  0  0  0  0  0  0  0
  1  2  1  0  0  0  0
  1  6  2  0  0  0  0
  2  7  2  0  0  0  0
  3 10  2  0  0  0  0
  3 18  1  0  0  0  0
  4 11  1  0  0  0  0
  4 18  2  0  0  0  0
  5  9  2  0  0  0  0
  5 19  1  0  0  0  0
  6 21  1  0  0  0  0
  7 23  1  0  0  0  0
  8 12  2  0  0  0  0
  8 22  1  0  0  0  0
  9 25  1  0  0  0  0
 10 27  1  0  0  0  0
 11 27  2  0  0  0  0
 12 28  1  0  0  0  0
 13 14  2  0  0  0  0
 13 29  1  0  0  0  0
 14 30  1  0  0  0  0
 15 19  2  0  0  0  0
 15 26  1  0  0  0  0
 16 24  1  0  0  0  0
 16 28  2  0  0  0  0
 17 30  2  0  0  0  0
 17 31  1  0  0  0  0
 18 32  1  0  0  0  0
 19 34  1  0  0  0  0
 20 32  1  0  0  0  0
 20 33  2  0  0  0  0
 20 36  1  0  0  0  0
 21 23  2  0  0  0  0
 21 41  1  0  0  0  0
 22 24  2  0  0  0  0
 22 42  1  0  0  0  0
 23 50  1  0  0  0  0
 24 43  1  0  0  0  0
 25 26  2  0  0  0  0
 25 63  1  0  0  0  0
 26 53  1  0  0  0  0
 27 81  1  0  0  0  0
 28 82  1  0  0  0  0
 29 31  2  0  0  0  0
 29 81  1  0  0  0  0
 30 83  1  0  0  0  0
 31 84  1  0  0  0  0
 32 67  2  0  0  0  0
 33 68  1  0  0  0  0
 33 71  1  0  0  0  0
 34 35  2  0  0  0  0
 35 37  1  0  0  0  0
 36 72  1  0  0  0  0
 36 76  2  0  0  0  0
 37 69  1  0  0  0  0
 37 77  2  0  0  0  0
 38 51  1  0  0  0  0
 38 73  1  0  0  0  0
 38 78  2  0  0  0  0
 39 64  1  0  0  0  0
 39 70  1  0  0  0  0
 39 79  2  0  0  0  0
 40 65  1  0  0  0  0
 40 74  1  0  0  0  0
 40 80  2  0  0  0  0
 41 44  1  0  0  0  0
 42 51  1  0  0  0  0
 43 70  1  0  0  0  0
 44 46  1  0  0  0  0
 45 47  1  0  0  0  0
 45 48  1  0  0  0  0
 46 50  1  0  0  0  0
 47 52  1  0  0  0  0
 48 69  1  0  0  0  0
 49 52  1  0  0  0  0
 49 69  1  0  0  0  0
 50 73  1  0  0  0  0
 51 70  1  0  0  0  0
 52 68  1  0  0  0  0
 54 63  1  0  0  0  0
 55 65  1  0  0  0  0
 56 66  1  0  0  0  0
 57 66  1  0  0  0  0
 58 66  1  0  0  0  0
 59 75  1  0  0  0  0
 60 61  1  0  0  0  0
 60 62  1  0  0  0  0
 61 63  1  0  0  0  0
 62 82  1  0  0  0  0
 64 66  1  0  0  0  0
 64 74  1  0  0  0  0
 65 75  1  0  0  0  0
 67 68  1  0  0  0  0
M  CHG  1  75   1
M  ISO  4  35 100  37 100  62 101  82 101
M  END
> <Batch ID>
0129

> <Smiles>
CNC(C)C(=O)NC(C(=O)N1Cc2cc([101O:1][101CH2:1]CCC(C)c3ccc(C=[100CH:0][100C:0](=O)N4CCCC(n5nc(-c6ccc(Oc7ccc(F)cc7F)cc6)c(C(N)=O)c5N)C4)cc3C)ccc2CC1C(=O)NC1CCCc2ccccc21)C(C)(C)C

> <Shape>
0.283

> <Color>
0.105

> <Negative vol penalty>
0.000

$$$$

  -OEChem-04052302193D

 82 90  0     1  0  0  0  0  0999 V2000
  -25.3151  -35.5793   21.7398 C   0  0  0  0  0  0  0  0  0  0  0  0
  -25.9905  -34.3634   21.7099 C   0  0  0  0  0  0  0  0  0  0  0  0
  -25.7927  -11.8866   20.0416 C   0  0  0  0  0  0  0  0  0  0  0  0
  -23.7991  -12.6217   21.1914 C   0  0  0  0  0  0  0  0  0  0  0  0
  -24.0456  -35.6564   22.3112 C   0  0  0  0  0  0  0  0  0  0  0  0
  -25.3972  -33.2240   22.2523 C   0  0  0  0  0  0  0  0  0  0  0  0
  -25.8896  -29.1665   19.2625 C   0  0  0  0  0  0  0  0  0  0  0  0
  -25.6848  -10.6375   20.6530 C   0  0  0  0  0  0  0  0  0  0  0  0
  -23.6911  -11.3726   21.8027 C   0  0  0  0  0  0  0  0  0  0  0  0
  -27.1236  -28.5177   19.2678 C   0  0  0  0  0  0  0  0  0  0  0  0
  -22.6118   -8.2798   20.9723 C   0  0  0  0  0  0  0  0  0  0  0  0
  -21.3518   -7.6824   21.0044 C   0  0  0  0  0  0  0  0  0  0  0  0
  -32.8293  -22.3357   19.6136 C   0  0  0  0  0  0  0  0  0  0  0  0
  -33.1949  -23.5403   20.2603 C   0  0  0  0  0  0  0  0  0  0  0  0
  -26.2323  -26.8478   20.7632 C   0  0  0  0  0  0  0  0  0  0  0  0
  -21.4232   -7.6615   23.4192 C   0  0  0  0  0  0  0  0  0  0  0  0
  -24.8499  -12.8787   20.3108 C   0  0  0  0  0  0  0  0  0  0  0  0
  -24.3992  -14.5666   18.4519 C   0  0  0  0  0  0  0  0  0  0  0  0
  -23.4325  -34.5154   22.8523 C   0  0  0  0  0  0  0  0  0  0  0  0
  -24.8190  -28.6661   20.0174 C   0  0  0  0  0  0  0  0  0  0  0  0
  -24.1189  -33.2862   22.8327 C   0  0  0  0  0  0  0  0  0  0  0  0
  -24.9850  -27.4907   20.7637 C   0  0  0  0  0  0  0  0  0  0  0  0
  -24.6340  -10.3805   21.5335 C   0  0  0  0  0  0  0  0  0  0  0  0
  -27.2959  -27.3598   20.0205 C   0  0  0  0  0  0  0  0  0  0  0  0
  -23.2776   -8.5680   22.1637 C   0  0  0  0  0  0  0  0  0  0  0  0
  -20.7575   -7.3733   22.2278 C   0  0  0  0  0  0  0  0  0  0  0  0
  -22.6833   -8.2589   23.3871 C   0  0  0  0  0  0  0  0  0  0  0  0
  -24.9612  -14.1694   19.6800 C   0  0  0  0  0  0  0  0  0  0  0  0
  -31.8272  -21.7819   20.3758 C   0  0  0  0  0  0  0  0  0  0  0  0
  -32.3900  -23.6369   21.3715 C   0  0  0  0  0  0  0  0  0  0  0  0
  -24.7931  -15.8738   18.3009 C   0  0  0  0  0  0  0  0  0  0  0  0
  -31.1368  -20.5715   20.1357 C   0  0  0  0  0  0  0  0  0  0  0  0
  -30.1219  -20.0378   20.8928 C   0  0  0  0  0  0  0  0  0  0  0  0
  -23.5932  -13.8208   17.5301 C   0  0  0  0  0  0  0  0  0  0  0  0
  -29.4906  -18.7610   20.5033 C   0  0  0  0  0  0  0  0  0  0  0  0
  -23.0706  -29.7656   22.4336 C   0  0  0  0  0  0  0  0  0  0  0  0
  -30.3552  -25.9774   21.3947 C   0  0  0  0  0  0  0  0  0  0  0  0
  -21.3673  -27.0522   21.9249 C   0  0  0  0  0  0  0  0  0  0  0  0
  -21.2911  -23.8644   20.7088 C   0  0  0  0  0  0  0  0  0  0  0  0
  -22.0787  -34.6577   23.5017 C   0  0  0  0  0  0  0  0  0  0  0  0
  -23.4865  -29.3628   19.9798 C   0  0  0  0  0  0  0  0  0  0  0  0
  -23.8613  -26.9013   21.5751 C   0  0  0  0  0  0  0  0  0  0  0  0
  -21.3642  -33.3263   23.7186 C   0  0  0  0  0  0  0  0  0  0  0  0
  -25.9760  -19.7527   20.8129 C   0  0  0  0  0  0  0  0  0  0  0  0
  -22.3171  -32.3018   24.3262 C   0  0  0  0  0  0  0  0  0  0  0  0
  -25.2704  -18.4392   20.4863 C   0  0  0  0  0  0  0  0  0  0  0  0
  -27.2931  -19.5255   21.5533 C   0  0  0  0  0  0  0  0  0  0  0  0
  -27.5171  -17.2852   20.5182 C   0  0  0  0  0  0  0  0  0  0  0  0
  -23.4982  -32.0230   23.3887 C   0  0  1  0  0  0  0  0  0  0  0  0
  -22.6150  -29.0513   21.1926 C   0  0  1  0  0  0  0  0  0  0  0  0
  -26.2127  -17.4881   19.7316 C   0  0  1  0  0  0  0  0  0  0  0  0
  -19.7699  -21.8829   20.4704 C   0  0  0  0  0  0  0  0  0  0  0  0
  -21.7444  -26.4099   24.8838 C   0  0  0  0  0  0  0  0  0  0  0  0
  -21.0658  -24.0518   24.3868 C   0  0  0  0  0  0  0  0  0  0  0  0
  -19.4597  -25.9193   23.9927 C   0  0  0  0  0  0  0  0  0  0  0  0
  -21.4690  -23.9367   17.7555 C   0  0  0  0  0  0  0  0  0  0  0  0
  -32.2676  -24.6630   22.4724 C   0  0  0  0  0  0  0  0  0  0  0  0
  -30.8542  -25.2292   22.6223 C   0  0  0  0  0  0  0  0  0  0  0  0
  -28.8503  -26.0117   21.2132 C   0  0  0  0  0  0  0  0  0  1  0  0
  -21.4350  -25.6350   22.4405 C   0  0  1  0  0  0  0  0  0  0  0  0
  -20.2932  -23.1511   19.8144 C   0  0  2  0  0  0  0  0  0  0  0  0
  -20.9481  -25.5159   23.9123 C   0  0  0  0  0  0  0  0  0  0  0  0
  -25.6591  -15.1451   20.2673 N   0  0  0  0  0  0  0  0  0  0  0  0
  -25.5383  -16.1684   19.4046 N   0  0  0  0  0  0  0  0  0  0  0  0
  -28.1524  -18.5676   20.8415 N   0  0  0  0  0  0  0  0  0  0  0  0
  -22.5794  -27.6225   21.5111 N   0  0  0  0  0  0  0  0  0  0  0  0
  -24.5713  -16.7883   17.3331 N   0  0  0  0  0  0  0  0  0  0  0  0
  -23.2819  -12.4899   17.8399 N   0  0  0  0  0  0  0  0  0  0  0  0
  -23.0935  -31.1421   22.3141 N   0  0  0  0  0  0  0  0  0  0  0  0
  -20.6813  -24.8199   21.4940 N   0  0  0  0  0  0  0  0  0  0  0  0
  -20.9305  -22.7816   18.5189 N   0  3  0  0  0  0  0  0  0  0  0  0
  -23.1753  -14.3149   16.4555 O   0  0  0  0  0  0  0  0  0  0  0  0
  -30.1891  -17.9403   19.9055 O   0  0  0  0  0  0  0  0  0  0  0  0
  -23.3772  -29.1160   23.4264 O   0  0  0  0  0  0  0  0  0  0  0  0
  -31.1133  -26.5507   20.6142 O   0  0  0  0  0  0  0  0  0  0  0  0
  -20.2779  -27.6295   21.8840 O   0  0  0  0  0  0  0  0  0  0  0  0
  -22.4908  -23.5980   20.7133 O   0  0  0  0  0  0  0  0  0  0  0  0
  -31.5534  -22.5690   21.4492 O   0  0  0  0  0  0  0  0  0  0  0  0
  -24.5282   -9.1618   22.1301 O   0  0  0  0  0  0  0  0  0  0  0  0
  -28.4995  -26.7248   20.0280 O   0  0  0  0  0  0  0  0  0  1  0  0
  -19.5468   -6.8010   22.2585 F   0  0  0  0  0  0  0  0  0  0  0  0
  -23.3175   -8.5344   24.5350 F   0  0  0  0  0  0  0  0  0  0  0  0
  1  2  1  0  0  0  0
  1  5  2  0  0  0  0
  2  6  2  0  0  0  0
  3  8  2  0  0  0  0
  3 17  1  0  0  0  0
  4  9  1  0  0  0  0
  4 17  2  0  0  0  0
  5 19  1  0  0  0  0
  6 21  1  0  0  0  0
  7 10  2  0  0  0  0
  7 20  1  0  0  0  0
  8 23  1  0  0  0  0
  9 23  2  0  0  0  0
 10 24  1  0  0  0  0
 11 12  2  0  0  0  0
 11 25  1  0  0  0  0
 12 26  1  0  0  0  0
 13 14  1  0  0  0  0
 13 29  2  0  0  0  0
 14 30  2  0  0  0  0
 15 22  1  0  0  0  0
 15 24  2  0  0  0  0
 16 26  2  0  0  0  0
 16 27  1  0  0  0  0
 17 28  1  0  0  0  0
 18 28  1  0  0  0  0
 18 31  2  0  0  0  0
 18 34  1  0  0  0  0
 19 21  2  0  0  0  0
 19 40  1  0  0  0  0
 20 22  2  0  0  0  0
 20 41  1  0  0  0  0
 21 49  1  0  0  0  0
 22 42  1  0  0  0  0
 23 79  1  0  0  0  0
 24 80  1  0  0  0  0
 25 27  2  0  0  0  0
 25 79  1  0  0  0  0
 26 81  1  0  0  0  0
 27 82  1  0  0  0  0
 28 63  2  0  0  0  0
 29 32  1  0  0  0  0
 29 78  1  0  0  0  0
 30 57  1  0  0  0  0
 30 78  1  0  0  0  0
 31 64  1  0  0  0  0
 31 67  1  0  0  0  0
 32 33  2  0  0  0  0
 33 35  1  0  0  0  0
 34 68  1  0  0  0  0
 34 72  2  0  0  0  0
 35 65  1  0  0  0  0
 35 73  2  0  0  0  0
 36 50  1  0  0  0  0
 36 69  1  0  0  0  0
 36 74  2  0  0  0  0
 37 58  1  0  0  0  0
 37 59  1  0  0  0  0
 37 75  2  0  0  0  0
 38 60  1  0  0  0  0
 38 66  1  0  0  0  0
 38 76  2  0  0  0  0
 39 61  1  0  0  0  0
 39 70  1  0  0  0  0
 39 77  2  0  0  0  0
 40 43  1  0  0  0  0
 41 50  1  0  0  0  0
 42 66  1  0  0  0  0
 43 45  1  0  0  0  0
 44 46  1  0  0  0  0
 44 47  1  0  0  0  0
 45 49  1  0  0  0  0
 46 51  1  0  0  0  0
 47 65  1  0  0  0  0
 48 51  1  0  0  0  0
 48 65  1  0  0  0  0
 49 69  1  0  0  0  0
 50 66  1  0  0  0  0
 51 64  1  0  0  0  0
 52 61  1  0  0  0  0
 53 62  1  0  0  0  0
 54 62  1  0  0  0  0
 55 62  1  0  0  0  0
 56 71  1  0  0  0  0
 57 58  1  0  0  0  0
 59 80  1  0  0  0  0
 60 62  1  0  0  0  0
 60 70  1  0  0  0  0
 61 71  1  0  0  0  0
 63 64  1  0  0  0  0
M  CHG  1  71   1
M  ISO  4  33 100  35 100  59 101  80 101
M  END
> <Batch ID>
0129

> <Smiles>
CNC(C)C(=O)NC(C(=O)N1Cc2cc([101O:1][101CH2:1]C(=O)CCc3ccc(C=[100CH:0][100C:0](=O)N4CCCC(n5nc(-c6ccc(Oc7ccc(F)cc7F)cc6)c(C(N)=O)c5N)C4)o3)ccc2CC1C(=O)NC1CCCc2ccccc21)C(C)(C)C

> <Shape>
0.226

> <Color>
0.100

> <Negative vol penalty>
0.000

$$$$

  -OEChem-04052302193D

 82 91  0     1  0  0  0  0  0999 V2000
  -29.6858  -32.5595   25.9983 C   0  0  0  0  0  0  0  0  0  0  0  0
  -29.3278  -31.3523   25.4067 C   0  0  0  0  0  0  0  0  0  0  0  0
  -24.0095   -9.5581   20.0020 C   0  0  0  0  0  0  0  0  0  0  0  0
  -24.5504   -9.9185   22.3289 C   0  0  0  0  0  0  0  0  0  0  0  0
  -28.7083  -33.5121   26.2827 C   0  0  0  0  0  0  0  0  0  0  0  0
  -27.9917  -31.0966   25.1001 C   0  0  0  0  0  0  0  0  0  0  0  0
  -27.3598  -20.6225   22.0907 C   0  0  0  0  0  0  0  0  0  0  0  0
  -27.4060  -29.0955   20.4852 C   0  0  0  0  0  0  0  0  0  0  0  0
  -27.6082  -19.2536   22.1843 C   0  0  0  0  0  0  0  0  0  0  0  0
  -23.6192   -8.2514   20.2950 C   0  0  0  0  0  0  0  0  0  0  0  0
  -24.1600   -8.6118   22.6220 C   0  0  0  0  0  0  0  0  0  0  0  0
  -27.6918  -27.7388   20.3386 C   0  0  0  0  0  0  0  0  0  0  0  0
  -21.2707   -6.9233   23.0924 C   0  0  0  0  0  0  0  0  0  0  0  0
  -20.4688   -6.7248   24.2162 C   0  0  0  0  0  0  0  0  0  0  0  0
  -29.3545  -19.4620   20.5334 C   0  0  0  0  0  0  0  0  0  0  0  0
  -25.3351  -27.2363   20.4512 C   0  0  0  0  0  0  0  0  0  0  0  0
  -22.1615   -5.2892   25.1705 C   0  0  0  0  0  0  0  0  0  0  0  0
  -24.4752  -10.3916   21.0189 C   0  0  0  0  0  0  0  0  0  0  0  0
  -24.0698  -12.8932   20.7265 C   0  0  0  0  0  0  0  0  0  0  0  0
  -27.3608  -33.2719   25.9706 C   0  0  0  0  0  0  0  0  0  0  0  0
  -28.1014  -21.4256   21.2106 C   0  0  0  0  0  0  0  0  0  0  0  0
  -26.0812  -29.5325   20.6272 C   0  0  0  0  0  0  0  0  0  0  0  0
  -26.9950  -32.0463   25.3818 C   0  0  0  0  0  0  0  0  0  0  0  0
  -29.1214  -20.8424   20.4375 C   0  0  0  0  0  0  0  0  0  0  0  0
  -25.0350  -28.5993   20.5970 C   0  0  0  0  0  0  0  0  0  0  0  0
  -28.6036  -18.6731   21.4041 C   0  0  0  0  0  0  0  0  0  0  0  0
  -23.6944   -7.7783   21.6050 C   0  0  0  0  0  0  0  0  0  0  0  0
  -26.6565  -26.8087   20.3244 C   0  0  0  0  0  0  0  0  0  0  0  0
  -22.5181   -6.3047   23.0075 C   0  0  0  0  0  0  0  0  0  0  0  0
  -20.9142   -5.9077   25.2553 C   0  0  0  0  0  0  0  0  0  0  0  0
  -22.9635   -5.4877   24.0466 C   0  0  0  0  0  0  0  0  0  0  0  0
  -24.8790  -11.7413   20.7167 C   0  0  0  0  0  0  0  0  0  0  0  0
  -24.9193  -13.9126   20.3721 C   0  0  0  0  0  0  0  0  0  0  0  0
  -22.6750  -13.0295   21.0291 C   0  0  0  0  0  0  0  0  0  0  0  0
  -24.4506  -31.0505   22.8944 C   0  0  0  0  0  0  0  0  0  0  0  0
  -22.0997  -31.0505   20.6594 C   0  0  0  0  0  0  0  0  0  0  0  0
  -20.7556  -29.6186   17.8684 C   0  0  0  0  0  0  0  0  0  0  0  0
  -29.8069  -16.5472   20.7883 C   0  0  0  0  0  0  0  0  0  0  0  0
  -26.3335  -34.3124   26.3401 C   0  0  0  0  0  0  0  0  0  0  0  0
  -25.7877  -31.0019   20.7576 C   0  0  0  0  0  0  0  0  0  0  0  0
  -27.8241  -22.9082   21.1635 C   0  0  0  0  0  0  0  0  0  0  0  0
  -29.9318  -21.6550   19.4601 C   0  0  0  0  0  0  0  0  0  0  0  0
  -23.5942  -29.0189   20.7253 C   0  0  0  0  0  0  0  0  0  0  0  0
  -24.9904  -34.1173   25.6413 C   0  0  0  0  0  0  0  0  0  0  0  0
  -29.8572  -23.1597   19.7156 C   0  0  0  0  0  0  0  0  0  0  0  0
  -29.6400  -13.7834   18.5499 C   0  0  0  0  0  0  0  0  0  0  0  0
  -24.5543  -32.6577   25.7208 C   0  0  0  0  0  0  0  0  0  0  0  0
  -28.3199  -13.1005   18.9149 C   0  0  0  0  0  0  0  0  0  0  0  0
  -30.3499  -14.3408   19.7825 C   0  0  0  0  0  0  0  0  0  0  0  0
  -28.2115  -14.5398   20.9894 C   0  0  0  0  0  0  0  0  0  0  0  0
  -25.5596  -31.7422   25.0117 C   0  0  1  0  0  0  0  0  0  0  0  0
  -24.4385  -31.2861   21.4105 C   0  0  1  0  0  0  0  0  0  0  0  0
  -28.4044  -23.5987   19.9201 C   0  0  2  0  0  0  0  0  0  0  0  0
  -27.4284  -14.0194   19.7730 C   0  0  2  0  0  0  0  0  0  0  0  0
  -18.8102  -29.8157   16.2954 C   0  0  0  0  0  0  0  0  0  0  0  0
  -20.2808  -29.7792   22.7535 C   0  0  0  0  0  0  0  0  0  0  0  0
  -18.7164  -29.1407   20.9060 C   0  0  0  0  0  0  0  0  0  0  0  0
  -19.1910  -31.5472   21.3603 C   0  0  0  0  0  0  0  0  0  0  0  0
  -22.5291  -30.1267   15.5542 C   0  0  0  0  0  0  0  0  0  0  0  0
  -28.3056  -25.1169   20.0521 C   0  0  0  0  0  0  0  0  0  1  0  0
  -20.9762  -30.1125   20.2895 C   0  0  1  0  0  0  0  0  0  0  0  0
  -20.2495  -30.2223   16.5707 C   0  0  2  0  0  0  0  0  0  0  0  0
  -19.8183  -30.1365   21.3268 C   0  0  0  0  0  0  0  0  0  0  0  0
  -26.1453  -12.0036   20.3822 N   0  0  0  0  0  0  0  0  0  0  0  0
  -26.1381  -13.3319   20.1786 N   0  0  0  0  0  0  0  0  0  0  0  0
  -23.3588  -30.4662   20.8569 N   0  0  0  0  0  0  0  0  0  0  0  0
  -29.4457  -15.2053   20.5440 N   0  0  0  0  0  0  0  0  0  0  0  0
  -24.7351  -15.2401   20.2100 N   0  0  0  0  0  0  0  0  0  0  0  0
  -21.9509  -11.8804   21.3747 N   0  0  0  0  0  0  0  0  0  0  0  0
  -28.8542  -17.2814   21.4940 N   0  0  0  0  0  0  0  0  0  0  0  0
  -25.3809  -31.8107   23.5771 N   0  0  0  0  0  0  0  0  0  0  0  0
  -20.5725  -30.4733   18.9348 N   0  0  0  0  0  0  0  0  0  0  0  0
  -21.0921  -29.7721   15.4268 N   0  3  0  0  0  0  0  0  0  0  0  0
  -22.0845  -14.1351   20.9782 O   0  0  0  0  0  0  0  0  0  0  0  0
  -23.6725  -30.2402   23.3840 O   0  0  0  0  0  0  0  0  0  0  0  0
  -21.8701  -32.2582   20.7621 O   0  0  0  0  0  0  0  0  0  0  0  0
  -21.2593  -28.4993   17.9305 O   0  0  0  0  0  0  0  0  0  0  0  0
  -30.8701  -17.0184   20.3766 O   0  0  0  0  0  0  0  0  0  0  0  0
  -23.3134   -6.5034   21.8914 O   0  0  0  0  0  0  0  0  0  0  0  0
  -26.9328  -25.4838   20.1821 O   0  0  0  0  0  0  0  0  0  1  0  0
  -20.1446   -5.7184   26.3352 F   0  0  0  0  0  0  0  0  0  0  0  0
  -24.1614   -4.8917   23.9713 F   0  0  0  0  0  0  0  0  0  0  0  0
  1  2  1  0  0  0  0
  1  5  2  0  0  0  0
  2  6  2  0  0  0  0
  3 10  2  0  0  0  0
  3 18  1  0  0  0  0
  4 11  1  0  0  0  0
  4 18  2  0  0  0  0
  5 20  1  0  0  0  0
  6 23  1  0  0  0  0
  7  9  2  0  0  0  0
  7 21  1  0  0  0  0
  8 12  2  0  0  0  0
  8 22  1  0  0  0  0
  9 26  1  0  0  0  0
 10 27  1  0  0  0  0
 11 27  2  0  0  0  0
 12 28  1  0  0  0  0
 13 14  2  0  0  0  0
 13 29  1  0  0  0  0
 14 30  1  0  0  0  0
 15 24  1  0  0  0  0
 15 26  2  0  0  0  0
 16 25  1  0  0  0  0
 16 28  2  0  0  0  0
 17 30  2  0  0  0  0
 17 31  1  0  0  0  0
 18 32  1  0  0  0  0
 19 32  1  0  0  0  0
 19 33  2  0  0  0  0
 19 34  1  0  0  0  0
 20 23  2  0  0  0  0
 20 39  1  0  0  0  0
 21 24  2  0  0  0  0
 21 41  1  0  0  0  0
 22 25  2  0  0  0  0
 22 40  1  0  0  0  0
 23 51  1  0  0  0  0
 24 42  1  0  0  0  0
 25 43  1  0  0  0  0
 26 70  1  0  0  0  0
 27 79  1  0  0  0  0
 28 80  1  0  0  0  0
 29 31  2  0  0  0  0
 29 79  1  0  0  0  0
 30 81  1  0  0  0  0
 31 82  1  0  0  0  0
 32 64  2  0  0  0  0
 33 65  1  0  0  0  0
 33 68  1  0  0  0  0
 34 69  1  0  0  0  0
 34 74  2  0  0  0  0
 35 52  1  0  0  0  0
 35 71  1  0  0  0  0
 35 75  2  0  0  0  0
 36 61  1  0  0  0  0
 36 66  1  0  0  0  0
 36 76  2  0  0  0  0
 37 62  1  0  0  0  0
 37 72  1  0  0  0  0
 37 77  2  0  0  0  0
 38 67  1  0  0  0  0
 38 70  1  0  0  0  0
 38 78  2  0  0  0  0
 39 44  1  0  0  0  0
 40 52  1  0  0  0  0
 41 53  1  0  0  0  0
 42 45  1  0  0  0  0
 43 66  1  0  0  0  0
 44 47  1  0  0  0  0
 45 53  1  0  0  0  0
 46 48  1  0  0  0  0
 46 49  1  0  0  0  0
 47 51  1  0  0  0  0
 48 54  1  0  0  0  0
 49 67  1  0  0  0  0
 50 54  1  0  0  0  0
 50 67  1  0  0  0  0
 51 71  1  0  0  0  0
 52 66  1  0  0  0  0
 53 60  1  0  0  0  0
 54 65  1  0  0  0  0
 55 62  1  0  0  0  0
 56 63  1  0  0  0  0
 57 63  1  0  0  0  0
 58 63  1  0  0  0  0
 59 73  1  0  0  0  0
 60 80  1  0  0  0  0
 61 63  1  0  0  0  0
 61 72  1  0  0  0  0
 62 73  1  0  0  0  0
 64 65  1  0  0  0  0
M  CHG  1  73   1
M  ISO  4  38 100  60 101  70 100  80 101
M  END
> <Batch ID>
0129

> <Smiles>
CNC(C)C(=O)NC(C(=O)N1Cc2cc([101O:1][101CH2:1]C3CCc4cc([100NH:0][100C:0](=O)N5CCCC(n6nc(-c7ccc(Oc8ccc(F)cc8F)cc7)c(C(N)=O)c6N)C5)ccc4C3)ccc2CC1C(=O)NC1CCCc2ccccc21)C(C)(C)C

> <Shape>
0.363

> <Color>
0.151

> <Negative vol penalty>
0.000

$$$$

  -OEChem-04052302193D

 86 95  0     1  0  0  0  0  0999 V2000
  -23.8283  -24.0069   19.1943 C   0  0  0  0  0  0  0  0  0  0  0  0
  -24.3410  -22.7429   18.9209 C   0  0  0  0  0  0  0  0  0  0  0  0
  -25.8892  -27.5961   19.1410 C   0  0  0  0  0  0  0  0  0  0  0  0
  -26.6834  -28.5556   21.2112 C   0  0  0  0  0  0  0  0  0  0  0  0
  -23.5279  -24.3670   20.5073 C   0  0  0  0  0  0  0  0  0  0  0  0
  -24.5548  -21.8386   19.9605 C   0  0  0  0  0  0  0  0  0  0  0  0
  -31.0053  -14.0330   21.1351 C   0  0  0  0  0  0  0  0  0  0  0  0
  -23.9032  -15.7531   19.7389 C   0  0  0  0  0  0  0  0  0  0  0  0
  -31.8031  -15.0890   21.5755 C   0  0  0  0  0  0  0  0  0  0  0  0
  -24.7932  -28.4586   19.1617 C   0  0  0  0  0  0  0  0  0  0  0  0
  -25.5874  -29.4182   21.2319 C   0  0  0  0  0  0  0  0  0  0  0  0
  -24.8208  -14.7171   19.5705 C   0  0  0  0  0  0  0  0  0  0  0  0
  -22.3083  -29.2610   22.0407 C   0  0  0  0  0  0  0  0  0  0  0  0
  -21.6275  -29.4150   23.2484 C   0  0  0  0  0  0  0  0  0  0  0  0
  -29.6186  -15.5898   19.9142 C   0  0  0  0  0  0  0  0  0  0  0  0
  -24.9331  -14.4356   21.9637 C   0  0  0  0  0  0  0  0  0  0  0  0
  -22.1261  -31.7789   23.2280 C   0  0  0  0  0  0  0  0  0  0  0  0
  -26.8343  -27.6446   20.1658 C   0  0  0  0  0  0  0  0  0  0  0  0
  -30.4165  -16.6459   20.3546 C   0  0  0  0  0  0  0  0  0  0  0  0
  -29.2225  -26.9884   19.5549 C   0  0  0  0  0  0  0  0  0  0  0  0
  -29.9130  -14.2834   20.3044 C   0  0  0  0  0  0  0  0  0  0  0  0
  -23.7290  -23.4632   21.5625 C   0  0  0  0  0  0  0  0  0  0  0  0
  -23.5013  -16.1461   21.0236 C   0  0  0  0  0  0  0  0  0  0  0  0
  -24.2581  -22.1874   21.2891 C   0  0  0  0  0  0  0  0  0  0  0  0
  -24.0084  -15.4752   22.1456 C   0  0  0  0  0  0  0  0  0  0  0  0
  -31.5087  -16.3954   21.1852 C   0  0  0  0  0  0  0  0  0  0  0  0
  -24.6423  -29.3696   20.2071 C   0  0  0  0  0  0  0  0  0  0  0  0
  -25.3381  -14.0600   20.6831 C   0  0  0  0  0  0  0  0  0  0  0  0
  -22.8981  -30.3660   21.4268 C   0  0  0  0  0  0  0  0  0  0  0  0
  -21.5364  -30.6739   23.8420 C   0  0  0  0  0  0  0  0  0  0  0  0
  -22.8070  -31.6249   22.0204 C   0  0  0  0  0  0  0  0  0  0  0  0
  -27.9664  -26.7535   20.1454 C   0  0  0  0  0  0  0  0  0  0  0  0
  -29.9409  -25.8458   19.8099 C   0  0  0  0  0  0  0  0  0  0  0  0
  -29.8032  -12.1056   19.0135 C   0  0  0  0  0  0  0  0  0  0  0  0
  -30.0831  -17.9994   19.9301 C   0  0  0  0  0  0  0  0  0  0  0  0
  -29.2771  -18.8504   20.5970 C   0  0  0  0  0  0  0  0  0  0  0  0
  -29.6976  -28.1367   18.8398 C   0  0  0  0  0  0  0  0  0  0  0  0
  -29.0438  -20.1981   20.0404 C   0  0  0  0  0  0  0  0  0  0  0  0
  -23.7219  -18.8240   22.7219 C   0  0  0  0  0  0  0  0  0  0  0  0
  -21.8780  -17.1811   24.8251 C   0  0  0  0  0  0  0  0  0  0  0  0
  -20.8276  -14.1587   26.0118 C   0  0  0  0  0  0  0  0  0  0  0  0
  -23.4338  -23.9144   22.9710 C   0  0  0  0  0  0  0  0  0  0  0  0
  -22.4904  -17.2478   21.1873 C   0  0  0  0  0  0  0  0  0  0  0  0
  -23.5937  -15.8454   23.5454 C   0  0  0  0  0  0  0  0  0  0  0  0
  -29.4500  -10.6979   19.4208 C   0  0  0  0  0  0  0  0  0  0  0  0
  -23.3377  -22.7652   23.9712 C   0  0  0  0  0  0  0  0  0  0  0  0
  -28.2197  -10.9200   20.2910 C   0  0  0  0  0  0  0  0  0  0  0  0
  -29.6215  -22.1691   23.0757 C   0  0  0  0  0  0  0  0  0  0  0  0
  -24.5021  -21.7974   23.7859 C   0  0  0  0  0  0  0  0  0  0  0  0
  -29.3230  -23.5787   22.5718 C   0  0  0  0  0  0  0  0  0  0  0  0
  -28.7377  -21.1215   22.4005 C   0  0  0  0  0  0  0  0  0  0  0  0
  -28.4978  -22.5731   20.4066 C   0  0  0  0  0  0  0  0  0  0  0  0
  -29.0513  -13.1410   19.8291 C   0  0  1  0  0  0  0  0  0  0  0  0
  -24.4805  -21.1698   22.3869 C   0  0  1  0  0  0  0  0  0  0  0  0
  -22.5423  -17.9070   22.5621 C   0  0  1  0  0  0  0  0  0  0  0  0
  -28.4651  -12.2742   20.9626 C   0  0  1  0  0  0  0  0  0  0  0  0
  -29.4080  -23.6379   21.0384 C   0  0  1  0  0  0  0  0  0  0  0  0
  -32.3842  -17.5026   21.6779 C   0  0  0  0  0  0  0  0  0  0  0  0
  -19.3476  -13.1356   27.7612 C   0  0  0  0  0  0  0  0  0  0  0  0
  -23.9649  -17.8161   26.9585 C   0  0  0  0  0  0  0  0  0  0  0  0
  -22.9533  -16.0226   28.3826 C   0  0  0  0  0  0  0  0  0  0  0  0
  -21.5935  -18.0091   27.7289 C   0  0  0  0  0  0  0  0  0  0  0  0
  -19.1349  -12.8392   23.9739 C   0  0  0  0  0  0  0  0  0  0  0  0
  -27.1925  -12.8579   21.5616 C   0  0  0  0  0  0  0  0  0  1  0  0
  -22.1471  -16.2593   25.9899 C   0  0  1  0  0  0  0  0  0  0  0  0
  -19.4409  -13.6261   26.3247 C   0  0  2  0  0  0  0  0  0  0  0  0
  -22.6742  -17.0208   27.2388 C   0  0  0  0  0  0  0  0  0  0  0  0
  -27.8879  -25.5557   20.7312 N   0  0  0  0  0  0  0  0  0  0  0  0
  -29.1038  -25.0277   20.5100 N   0  0  0  0  0  0  0  0  0  0  0  0
  -28.7906  -21.2362   20.9353 N   0  0  0  0  0  0  0  0  0  0  0  0
  -22.6075  -16.9332   23.6537 N   0  0  0  0  0  0  0  0  0  0  0  0
  -31.2005  -25.4711   19.5012 N   0  0  0  0  0  0  0  0  0  0  0  0
  -28.8293  -29.2234   18.6684 N   0  0  0  0  0  0  0  0  0  0  0  0
  -23.4830  -20.1236   22.3176 N   0  0  0  0  0  0  0  0  0  0  0  0
  -20.9109  -15.5193   26.2190 N   0  0  0  0  0  0  0  0  0  0  0  0
  -19.1049  -12.4920   25.4181 N   0  3  0  0  0  0  0  0  0  0  0  0
  -30.6094  -12.3692   18.1296 O   0  0  0  0  0  0  0  0  0  0  0  0
  -30.8523  -28.1908   18.3528 O   0  0  0  0  0  0  0  0  0  0  0  0
  -29.0825  -20.3217   18.8149 O   0  0  0  0  0  0  0  0  0  0  0  0
  -24.7706  -18.3852   23.1796 O   0  0  0  0  0  0  0  0  0  0  0  0
  -21.0457  -18.0833   24.9476 O   0  0  0  0  0  0  0  0  0  0  0  0
  -21.7462  -13.4390   25.6259 O   0  0  0  0  0  0  0  0  0  0  0  0
  -23.5730  -30.2116   20.2274 O   0  0  0  0  0  0  0  0  0  0  0  0
  -26.2344  -13.0489   20.5215 O   0  0  0  0  0  0  0  0  0  1  0  0
  -20.8812  -30.8219   25.0009 F   0  0  0  0  0  0  0  0  0  0  0  0
  -23.3705  -32.6903   21.4346 F   0  0  0  0  0  0  0  0  0  0  0  0
  1  2  1  0  0  0  0
  1  5  2  0  0  0  0
  2  6  2  0  0  0  0
  3 10  2  0  0  0  0
  3 18  1  0  0  0  0
  4 11  1  0  0  0  0
  4 18  2  0  0  0  0
  5 22  1  0  0  0  0
  6 24  1  0  0  0  0
  7  9  2  0  0  0  0
  7 21  1  0  0  0  0
  8 12  2  0  0  0  0
  8 23  1  0  0  0  0
  9 26  1  0  0  0  0
 10 27  1  0  0  0  0
 11 27  2  0  0  0  0
 12 28  1  0  0  0  0
 13 14  2  0  0  0  0
 13 29  1  0  0  0  0
 14 30  1  0  0  0  0
 15 19  1  0  0  0  0
 15 21  2  0  0  0  0
 16 25  1  0  0  0  0
 16 28  2  0  0  0  0
 17 30  2  0  0  0  0
 17 31  1  0  0  0  0
 18 32  1  0  0  0  0
 19 26  2  0  0  0  0
 19 35  1  0  0  0  0
 20 32  1  0  0  0  0
 20 33  2  0  0  0  0
 20 37  1  0  0  0  0
 21 53  1  0  0  0  0
 22 24  2  0  0  0  0
 22 42  1  0  0  0  0
 23 25  2  0  0  0  0
 23 43  1  0  0  0  0
 24 54  1  0  0  0  0
 25 44  1  0  0  0  0
 26 58  1  0  0  0  0
 27 83  1  0  0  0  0
 28 84  1  0  0  0  0
 29 31  2  0  0  0  0
 29 83  1  0  0  0  0
 30 85  1  0  0  0  0
 31 86  1  0  0  0  0
 32 68  2  0  0  0  0
 33 69  1  0  0  0  0
 33 72  1  0  0  0  0
 34 45  1  0  0  0  0
 34 53  1  0  0  0  0
 34 77  2  0  0  0  0
 35 36  2  0  0  0  0
 36 38  1  0  0  0  0
 37 73  1  0  0  0  0
 37 78  2  0  0  0  0
 38 70  1  0  0  0  0
 38 79  2  0  0  0  0
 39 55  1  0  0  0  0
 39 74  1  0  0  0  0
 39 80  2  0  0  0  0
 40 65  1  0  0  0  0
 40 71  1  0  0  0  0
 40 81  2  0  0  0  0
 41 66  1  0  0  0  0
 41 75  1  0  0  0  0
 41 82  2  0  0  0  0
 42 46  1  0  0  0  0
 43 55  1  0  0  0  0
 44 71  1  0  0  0  0
 45 47  1  0  0  0  0
 46 49  1  0  0  0  0
 47 56  1  0  0  0  0
 48 50  1  0  0  0  0
 48 51  1  0  0  0  0
 49 54  1  0  0  0  0
 50 57  1  0  0  0  0
 51 70  1  0  0  0  0
 52 57  1  0  0  0  0
 52 70  1  0  0  0  0
 53 56  1  0  0  0  0
 54 74  1  0  0  0  0
 55 71  1  0  0  0  0
 56 64  1  0  0  0  0
 57 69  1  0  0  0  0
 59 66  1  0  0  0  0
 60 67  1  0  0  0  0
 61 67  1  0  0  0  0
 62 67  1  0  0  0  0
 63 76  1  0  0  0  0
 64 84  1  0  0  0  0
 65 67  1  0  0  0  0
 65 75  1  0  0  0  0
 66 76  1  0  0  0  0
 68 69  1  0  0  0  0
M  CHG  1  76   1
M  ISO  4  36 100  38 100  64 101  84 101
M  END
> <Batch ID>
0129

> <Smiles>
CNC(C)C(=O)NC(C(=O)N1Cc2cc([101O:1][101CH2:1]C3CCC(=O)C3c3ccc(C)c(C=[100CH:0][100C:0](=O)N4CCCC(n5nc(-c6ccc(Oc7ccc(F)cc7F)cc6)c(C(N)=O)c5N)C4)c3)ccc2CC1C(=O)NC1CCCc2ccccc21)C(C)(C)C

> <Shape>
0.232

> <Color>
0.049

> <Negative vol penalty>
0.000

$$$$

  -OEChem-04052302193D

 81 89  0     1  0  0  0  0  0999 V2000
  -16.8352  -30.4842   22.4343 C   0  0  0  0  0  0  0  0  0  0  0  0
  -17.9596  -30.5837   21.6211 C   0  0  0  0  0  0  0  0  0  0  0  0
  -25.6529  -14.1034   22.2885 C   0  0  0  0  0  0  0  0  0  0  0  0
  -25.9591  -13.1546   20.0878 C   0  0  0  0  0  0  0  0  0  0  0  0
  -16.9728  -30.1045   23.7688 C   0  0  0  0  0  0  0  0  0  0  0  0
  -19.2225  -30.3044   22.1423 C   0  0  0  0  0  0  0  0  0  0  0  0
  -23.9251  -27.7049   19.2040 C   0  0  0  0  0  0  0  0  0  0  0  0
  -24.5436  -13.2818   22.4884 C   0  0  0  0  0  0  0  0  0  0  0  0
  -24.8498  -12.3330   20.2877 C   0  0  0  0  0  0  0  0  0  0  0  0
  -25.0561  -28.2382   18.5873 C   0  0  0  0  0  0  0  0  0  0  0  0
  -24.1427   -9.4584   21.9179 C   0  0  0  0  0  0  0  0  0  0  0  0
  -24.2577   -8.1169   21.5535 C   0  0  0  0  0  0  0  0  0  0  0  0
  -32.9710  -25.0599   19.7717 C   0  0  0  0  0  0  0  0  0  0  0  0
  -32.7682  -26.3341   19.1900 C   0  0  0  0  0  0  0  0  0  0  0  0
  -26.3303  -27.8445   20.5974 C   0  0  0  0  0  0  0  0  0  0  0  0
  -22.4315   -8.3839   19.9944 C   0  0  0  0  0  0  0  0  0  0  0  0
  -26.3607  -14.0399   21.0881 C   0  0  0  0  0  0  0  0  0  0  0  0
  -28.8478  -14.5974   21.1929 C   0  0  0  0  0  0  0  0  0  0  0  0
  -18.2370  -29.8110   24.3040 C   0  0  0  0  0  0  0  0  0  0  0  0
  -23.9856  -27.2467   20.5279 C   0  0  0  0  0  0  0  0  0  0  0  0
  -19.3773  -29.9216   23.4855 C   0  0  0  0  0  0  0  0  0  0  0  0
  -25.1994  -27.3035   21.2278 C   0  0  0  0  0  0  0  0  0  0  0  0
  -24.1420  -12.3966   21.4880 C   0  0  0  0  0  0  0  0  0  0  0  0
  -26.2582  -28.3107   19.2849 C   0  0  0  0  0  0  0  0  0  0  0  0
  -23.1721  -10.2627   21.3205 C   0  0  0  0  0  0  0  0  0  0  0  0
  -23.4021   -7.5797   20.5918 C   0  0  0  0  0  0  0  0  0  0  0  0
  -22.3166   -9.7254   20.3588 C   0  0  0  0  0  0  0  0  0  0  0  0
  -27.5063  -14.8887   20.8808 C   0  0  0  0  0  0  0  0  0  0  0  0
  -31.7384  -24.4497   19.7941 C   0  0  0  0  0  0  0  0  0  0  0  0
  -31.4263  -26.4117   18.8982 C   0  0  0  0  0  0  0  0  0  0  0  0
  -29.5415  -15.7177   20.8055 C   0  0  0  0  0  0  0  0  0  0  0  0
  -31.4291  -23.1599   20.2844 C   0  0  0  0  0  0  0  0  0  0  0  0
  -30.7112  -27.5402   18.2794 C   0  0  0  0  0  0  0  0  0  0  0  0
  -30.1972  -22.5516   20.2824 C   0  0  0  0  0  0  0  0  0  0  0  0
  -29.6296  -27.4317   17.4921 C   0  0  0  0  0  0  0  0  0  0  0  0
  -29.4160  -13.4193   21.7803 C   0  0  0  0  0  0  0  0  0  0  0  0
  -30.0361  -21.1877   20.8251 C   0  0  0  0  0  0  0  0  0  0  0  0
  -22.5599  -28.0592   23.2502 C   0  0  0  0  0  0  0  0  0  0  0  0
  -24.1083  -25.4457   24.3879 C   0  0  0  0  0  0  0  0  0  0  0  0
  -26.7134  -23.2619   24.0861 C   0  0  0  0  0  0  0  0  0  0  0  0
  -18.3410  -29.4504   25.7647 C   0  0  0  0  0  0  0  0  0  0  0  0
  -22.7634  -26.6496   21.1699 C   0  0  0  0  0  0  0  0  0  0  0  0
  -25.3221  -26.8065   22.6442 C   0  0  0  0  0  0  0  0  0  0  0  0
  -19.6741  -28.8087   26.1403 C   0  0  0  0  0  0  0  0  0  0  0  0
  -28.1140  -19.7108   18.0764 C   0  0  0  0  0  0  0  0  0  0  0  0
  -20.8339  -29.5964   25.5393 C   0  0  0  0  0  0  0  0  0  0  0  0
  -27.8566  -18.3074   18.6188 C   0  0  0  0  0  0  0  0  0  0  0  0
  -28.1256  -20.7599   19.1871 C   0  0  0  0  0  0  0  0  0  0  0  0
  -28.8207  -19.0440   20.8343 C   0  0  0  0  0  0  0  0  0  0  0  0
  -20.7614  -29.6029   24.0076 C   0  0  1  0  0  0  0  0  0  0  0  0
  -22.8110  -26.6861   22.6943 C   0  0  1  0  0  0  0  0  0  0  0  0
  -28.8515  -17.9661   19.7394 C   0  0  1  0  0  0  0  0  0  0  0  0
  -28.1336  -21.2504   24.5703 C   0  0  0  0  0  0  0  0  0  0  0  0
  -25.2542  -27.2332   26.5791 C   0  0  0  0  0  0  0  0  0  0  0  0
  -26.9553  -25.4557   27.0429 C   0  0  0  0  0  0  0  0  0  0  0  0
  -24.5286  -24.9686   27.3533 C   0  0  0  0  0  0  0  0  0  0  0  0
  -25.1541  -21.5689   22.2256 C   0  0  0  0  0  0  0  0  0  0  0  0
  -28.9363  -28.6124   16.8692 C   0  0  0  0  0  0  0  0  0  0  0  0
  -27.4675  -28.6791   17.2705 C   0  0  0  0  0  0  0  0  0  1  0  0
  -25.4586  -25.1909   25.0129 C   0  0  1  0  0  0  0  0  0  0  0  0
  -26.7661  -21.7452   24.1254 C   0  0  2  0  0  0  0  0  0  0  0  0
  -25.5467  -25.7233   26.4710 C   0  0  0  0  0  0  0  0  0  0  0  0
  -27.3546  -16.0993   20.3373 N   0  0  0  0  0  0  0  0  0  0  0  0
  -28.6097  -16.5786   20.3048 N   0  0  0  0  0  0  0  0  0  0  0  0
  -29.0408  -20.3822   20.2746 N   0  0  0  0  0  0  0  0  0  0  0  0
  -24.0975  -26.2371   23.2305 N   0  0  0  0  0  0  0  0  0  0  0  0
  -30.8516  -16.0406   20.8478 N   0  0  0  0  0  0  0  0  0  0  0  0
  -28.5604  -12.3619   22.1180 N   0  0  0  0  0  0  0  0  0  0  0  0
  -21.2256  -28.3400   23.4744 N   0  0  0  0  0  0  0  0  0  0  0  0
  -25.7044  -23.7586   24.8839 N   0  0  0  0  0  0  0  0  0  0  0  0
  -26.4786  -21.1819   22.7760 N   0  3  0  0  0  0  0  0  0  0  0  0
  -30.6439  -13.3143   22.0144 O   0  0  0  0  0  0  0  0  0  0  0  0
  -30.7908  -20.8460   21.7376 O   0  0  0  0  0  0  0  0  0  0  0  0
  -23.5067  -28.8079   23.4615 O   0  0  0  0  0  0  0  0  0  0  0  0
  -23.1009  -24.9546   24.9033 O   0  0  0  0  0  0  0  0  0  0  0  0
  -27.4920  -23.9384   23.4178 O   0  0  0  0  0  0  0  0  0  0  0  0
  -30.7915  -25.2670   19.2633 O   0  0  0  0  0  0  0  0  0  0  0  0
  -23.0598  -11.5945   21.6828 O   0  0  0  0  0  0  0  0  0  0  0  0
  -27.3635  -28.8313   18.6856 O   0  0  0  0  0  0  0  0  0  1  0  0
  -23.5137   -6.2918   20.2408 F   0  0  0  0  0  0  0  0  0  0  0  0
  -21.3829  -10.4934   19.7806 F   0  0  0  0  0  0  0  0  0  0  0  0
  1  2  1  0  0  0  0
  1  5  2  0  0  0  0
  2  6  2  0  0  0  0
  3  8  2  0  0  0  0
  3 17  1  0  0  0  0
  4  9  1  0  0  0  0
  4 17  2  0  0  0  0
  5 19  1  0  0  0  0
  6 21  1  0  0  0  0
  7 10  2  0  0  0  0
  7 20  1  0  0  0  0
  8 23  1  0  0  0  0
  9 23  2  0  0  0  0
 10 24  1  0  0  0  0
 11 12  2  0  0  0  0
 11 25  1  0  0  0  0
 12 26  1  0  0  0  0
 13 14  1  0  0  0  0
 13 29  2  0  0  0  0
 14 30  2  0  0  0  0
 15 22  1  0  0  0  0
 15 24  2  0  0  0  0
 16 26  2  0  0  0  0
 16 27  1  0  0  0  0
 17 28  1  0  0  0  0
 18 28  1  0  0  0  0
 18 31  2  0  0  0  0
 18 36  1  0  0  0  0
 19 21  2  0  0  0  0
 19 41  1  0  0  0  0
 20 22  2  0  0  0  0
 20 42  1  0  0  0  0
 21 50  1  0  0  0  0
 22 43  1  0  0  0  0
 23 78  1  0  0  0  0
 24 79  1  0  0  0  0
 25 27  2  0  0  0  0
 25 78  1  0  0  0  0
 26 80  1  0  0  0  0
 27 81  1  0  0  0  0
 28 63  2  0  0  0  0
 29 32  1  0  0  0  0
 29 77  1  0  0  0  0
 30 33  1  0  0  0  0
 30 77  1  0  0  0  0
 31 64  1  0  0  0  0
 31 67  1  0  0  0  0
 32 34  2  0  0  0  0
 33 35  2  0  0  0  0
 34 37  1  0  0  0  0
 35 58  1  0  0  0  0
 36 68  1  0  0  0  0
 36 72  2  0  0  0  0
 37 65  1  0  0  0  0
 37 73  2  0  0  0  0
 38 51  1  0  0  0  0
 38 69  1  0  0  0  0
 38 74  2  0  0  0  0
 39 60  1  0  0  0  0
 39 66  1  0  0  0  0
 39 75  2  0  0  0  0
 40 61  1  0  0  0  0
 40 70  1  0  0  0  0
 40 76  2  0  0  0  0
 41 44  1  0  0  0  0
 42 51  1  0  0  0  0
 43 66  1  0  0  0  0
 44 46  1  0  0  0  0
 45 47  1  0  0  0  0
 45 48  1  0  0  0  0
 46 50  1  0  0  0  0
 47 52  1  0  0  0  0
 48 65  1  0  0  0  0
 49 52  1  0  0  0  0
 49 65  1  0  0  0  0
 50 69  1  0  0  0  0
 51 66  1  0  0  0  0
 52 64  1  0  0  0  0
 53 61  1  0  0  0  0
 54 62  1  0  0  0  0
 55 62  1  0  0  0  0
 56 62  1  0  0  0  0
 57 71  1  0  0  0  0
 58 59  1  0  0  0  0
 59 79  1  0  0  0  0
 60 62  1  0  0  0  0
 60 70  1  0  0  0  0
 61 71  1  0  0  0  0
 63 64  1  0  0  0  0
M  CHG  1  71   1
M  ISO  4  34 100  37 100  59 101  79 101
M  END
> <Batch ID>
0129

> <Smiles>
CNC(C)C(=O)NC(C(=O)N1Cc2cc([101O:1][101CH2:1]CC=Cc3ccc(C=[100CH:0][100C:0](=O)N4CCCC(n5nc(-c6ccc(Oc7ccc(F)cc7F)cc6)c(C(N)=O)c5N)C4)o3)ccc2CC1C(=O)NC1CCCc2ccccc21)C(C)(C)C

> <Shape>
0.234

> <Color>
0.083

> <Negative vol penalty>
0.000

$$$$

  -OEChem-04052302193D

 83 91  0     1  0  0  0  0  0999 V2000
  -28.3862  -25.2532   16.1237 C   0  0  0  0  0  0  0  0  0  0  0  0
  -27.2145  -25.3059   16.8718 C   0  0  0  0  0  0  0  0  0  0  0  0
  -27.5803  -12.7099   18.8206 C   0  0  0  0  0  0  0  0  0  0  0  0
  -28.3766  -13.3357   21.0141 C   0  0  0  0  0  0  0  0  0  0  0  0
  -29.5586  -25.8165   16.6260 C   0  0  0  0  0  0  0  0  0  0  0  0
  -27.2148  -25.9208   18.1233 C   0  0  0  0  0  0  0  0  0  0  0  0
  -23.2126  -28.9488   18.8008 C   0  0  0  0  0  0  0  0  0  0  0  0
  -16.1569  -22.3058   19.1241 C   0  0  0  0  0  0  0  0  0  0  0  0
  -15.7757  -21.1772   18.3986 C   0  0  0  0  0  0  0  0  0  0  0  0
  -28.8683  -12.3072   18.4679 C   0  0  0  0  0  0  0  0  0  0  0  0
  -29.6646  -12.9329   20.6614 C   0  0  0  0  0  0  0  0  0  0  0  0
  -21.9975  -28.3387   19.1089 C   0  0  0  0  0  0  0  0  0  0  0  0
  -31.3752  -10.0323   20.3770 C   0  0  0  0  0  0  0  0  0  0  0  0
  -32.0880   -9.2656   21.2988 C   0  0  0  0  0  0  0  0  0  0  0  0
  -18.1164  -21.1350   19.9159 C   0  0  0  0  0  0  0  0  0  0  0  0
  -22.3280  -28.8705   21.4385 C   0  0  0  0  0  0  0  0  0  0  0  0
  -33.8035  -10.9646   21.3852 C   0  0  0  0  0  0  0  0  0  0  0  0
  -27.3344  -13.2243   20.0937 C   0  0  0  0  0  0  0  0  0  0  0  0
  -17.7351  -20.0063   19.1904 C   0  0  0  0  0  0  0  0  0  0  0  0
  -24.9982  -12.8528   21.0487 C   0  0  0  0  0  0  0  0  0  0  0  0
  -29.5709  -26.4471   17.8801 C   0  0  0  0  0  0  0  0  0  0  0  0
  -24.0011  -29.5157   19.8124 C   0  0  0  0  0  0  0  0  0  0  0  0
  -28.3887  -26.4918   18.6435 C   0  0  0  0  0  0  0  0  0  0  0  0
  -23.5515  -29.4895   21.1403 C   0  0  0  0  0  0  0  0  0  0  0  0
  -17.3273  -22.2847   19.8828 C   0  0  0  0  0  0  0  0  0  0  0  0
  -16.5647  -20.0274   18.4317 C   0  0  0  0  0  0  0  0  0  0  0  0
  -29.9104  -12.4186   19.3883 C   0  0  0  0  0  0  0  0  0  0  0  0
  -21.5563  -28.2969   20.4282 C   0  0  0  0  0  0  0  0  0  0  0  0
  -31.8766  -11.2651   19.9592 C   0  0  0  0  0  0  0  0  0  0  0  0
  -33.3021   -9.7318   21.8029 C   0  0  0  0  0  0  0  0  0  0  0  0
  -33.0907  -11.7312   20.4634 C   0  0  0  0  0  0  0  0  0  0  0  0
  -26.0042  -13.6411   20.4584 C   0  0  0  0  0  0  0  0  0  0  0  0
  -23.9326  -13.7073   21.1927 C   0  0  0  0  0  0  0  0  0  0  0  0
  -18.5801  -18.8204   19.2454 C   0  0  0  0  0  0  0  0  0  0  0  0
  -19.8775  -18.7688   18.8813 C   0  0  0  0  0  0  0  0  0  0  0  0
  -25.0247  -11.4716   21.4326 C   0  0  0  0  0  0  0  0  0  0  0  0
  -20.6043  -17.4893   19.0054 C   0  0  0  0  0  0  0  0  0  0  0  0
  -26.9166  -28.9703   20.9550 C   0  0  0  0  0  0  0  0  0  0  0  0
  -26.3061  -31.6332   22.7040 C   0  0  0  0  0  0  0  0  0  0  0  0
  -23.9895  -33.7213   24.0895 C   0  0  0  0  0  0  0  0  0  0  0  0
  -30.8735  -27.0000   18.4018 C   0  0  0  0  0  0  0  0  0  0  0  0
  -25.2967  -30.1938   19.4601 C   0  0  0  0  0  0  0  0  0  0  0  0
  -24.3510  -30.1015   22.2605 C   0  0  0  0  0  0  0  0  0  0  0  0
  -30.7007  -27.9631   19.5735 C   0  0  0  0  0  0  0  0  0  0  0  0
  -23.6198  -18.7153   20.6893 C   0  0  0  0  0  0  0  0  0  0  0  0
  -29.7348  -27.3842   20.6025 C   0  0  0  0  0  0  0  0  0  0  0  0
  -24.4457  -17.4350   20.7815 C   0  0  0  0  0  0  0  0  0  0  0  0
  -22.7787  -18.7624   19.4146 C   0  0  0  0  0  0  0  0  0  0  0  0
  -22.7313  -16.2865   19.3248 C   0  0  0  0  0  0  0  0  0  0  0  0
  -28.3431  -27.1721   19.9945 C   0  0  1  0  0  0  0  0  0  0  0  0
  -26.2626  -30.2852   20.6374 C   0  0  1  0  0  0  0  0  0  0  0  0
  -23.5495  -16.1965   20.6224 C   0  0  1  0  0  0  0  0  0  0  0  0
  -16.1244  -18.8358   17.6435 C   0  0  0  0  0  0  0  0  0  0  0  0
  -23.7937  -35.7916   25.4941 C   0  0  0  0  0  0  0  0  0  0  0  0
  -27.0122  -30.0106   25.1897 C   0  0  0  0  0  0  0  0  0  0  0  0
  -25.9066  -31.7801   26.5735 C   0  0  0  0  0  0  0  0  0  0  0  0
  -27.8985  -32.3492   25.1839 C   0  0  0  0  0  0  0  0  0  0  0  0
  -22.5794  -35.1867   21.9394 C   0  0  0  0  0  0  0  0  0  0  0  0
  -17.7383  -23.5055   20.6667 C   0  0  0  0  0  0  0  0  0  0  0  0
  -18.6324  -24.4727   19.8828 C   0  0  0  0  0  0  0  0  0  0  0  0
  -19.1015  -25.6648   20.7181 C   0  0  0  0  0  0  0  0  0  0  0  0
  -19.9533  -26.6227   19.8961 C   0  0  0  0  0  0  0  0  0  1  0  0
  -25.6819  -31.9078   24.0508 C   0  0  1  0  0  0  0  0  0  0  0  0
  -23.8641  -35.2341   24.0809 C   0  0  2  0  0  0  0  0  0  0  0  0
  -26.6104  -31.4986   25.2288 C   0  0  0  0  0  0  0  0  0  0  0  0
  -25.6127  -14.8996   20.2421 N   0  0  0  0  0  0  0  0  0  0  0  0
  -24.3488  -14.9086   20.6988 N   0  0  0  0  0  0  0  0  0  0  0  0
  -21.9745  -17.5415   19.2549 N   0  0  0  0  0  0  0  0  0  0  0  0
  -25.6139  -30.7473   21.8662 N   0  0  0  0  0  0  0  0  0  0  0  0
  -22.6896  -13.5408   21.6922 N   0  0  0  0  0  0  0  0  0  0  0  0
  -26.1998  -10.7398   21.2140 N   0  0  0  0  0  0  0  0  0  0  0  0
  -27.6338  -28.4303   19.9045 N   0  0  0  0  0  0  0  0  0  0  0  0
  -25.3073  -33.3178   24.0472 N   0  0  0  0  0  0  0  0  0  0  0  0
  -22.6325  -35.6476   23.3507 N   0  3  0  0  0  0  0  0  0  0  0  0
  -24.0301  -10.8991   21.9390 O   0  0  0  0  0  0  0  0  0  0  0  0
  -19.9536  -16.4508   18.8756 O   0  0  0  0  0  0  0  0  0  0  0  0
  -26.7820  -28.4825   22.0711 O   0  0  0  0  0  0  0  0  0  0  0  0
  -27.3651  -32.1898   22.4034 O   0  0  0  0  0  0  0  0  0  0  0  0
  -23.0159  -32.9724   24.1335 O   0  0  0  0  0  0  0  0  0  0  0  0
  -31.1673  -12.0254   19.0446 O   0  0  0  0  0  0  0  0  0  0  0  0
  -20.3709  -27.7014   20.7318 O   0  0  0  0  0  0  0  0  0  1  0  0
  -33.9858   -8.9962   22.6893 F   0  0  0  0  0  0  0  0  0  0  0  0
  -33.5769  -12.9153   20.0667 F   0  0  0  0  0  0  0  0  0  0  0  0
  1  2  1  0  0  0  0
  1  5  2  0  0  0  0
  2  6  2  0  0  0  0
  3 10  2  0  0  0  0
  3 18  1  0  0  0  0
  4 11  1  0  0  0  0
  4 18  2  0  0  0  0
  5 21  1  0  0  0  0
  6 23  1  0  0  0  0
  7 12  2  0  0  0  0
  7 22  1  0  0  0  0
  8  9  2  0  0  0  0
  8 25  1  0  0  0  0
  9 26  1  0  0  0  0
 10 27  1  0  0  0  0
 11 27  2  0  0  0  0
 12 28  1  0  0  0  0
 13 14  2  0  0  0  0
 13 29  1  0  0  0  0
 14 30  1  0  0  0  0
 15 19  1  0  0  0  0
 15 25  2  0  0  0  0
 16 24  1  0  0  0  0
 16 28  2  0  0  0  0
 17 30  2  0  0  0  0
 17 31  1  0  0  0  0
 18 32  1  0  0  0  0
 19 26  2  0  0  0  0
 19 34  1  0  0  0  0
 20 32  1  0  0  0  0
 20 33  2  0  0  0  0
 20 36  1  0  0  0  0
 21 23  2  0  0  0  0
 21 41  1  0  0  0  0
 22 24  2  0  0  0  0
 22 42  1  0  0  0  0
 23 50  1  0  0  0  0
 24 43  1  0  0  0  0
 25 59  1  0  0  0  0
 26 53  1  0  0  0  0
 27 80  1  0  0  0  0
 28 81  1  0  0  0  0
 29 31  2  0  0  0  0
 29 80  1  0  0  0  0
 30 82  1  0  0  0  0
 31 83  1  0  0  0  0
 32 66  2  0  0  0  0
 33 67  1  0  0  0  0
 33 70  1  0  0  0  0
 34 35  2  0  0  0  0
 35 37  1  0  0  0  0
 36 71  1  0  0  0  0
 36 75  2  0  0  0  0
 37 68  1  0  0  0  0
 37 76  2  0  0  0  0
 38 51  1  0  0  0  0
 38 72  1  0  0  0  0
 38 77  2  0  0  0  0
 39 63  1  0  0  0  0
 39 69  1  0  0  0  0
 39 78  2  0  0  0  0
 40 64  1  0  0  0  0
 40 73  1  0  0  0  0
 40 79  2  0  0  0  0
 41 44  1  0  0  0  0
 42 51  1  0  0  0  0
 43 69  1  0  0  0  0
 44 46  1  0  0  0  0
 45 47  1  0  0  0  0
 45 48  1  0  0  0  0
 46 50  1  0  0  0  0
 47 52  1  0  0  0  0
 48 68  1  0  0  0  0
 49 52  1  0  0  0  0
 49 68  1  0  0  0  0
 50 72  1  0  0  0  0
 51 69  1  0  0  0  0
 52 67  1  0  0  0  0
 54 64  1  0  0  0  0
 55 65  1  0  0  0  0
 56 65  1  0  0  0  0
 57 65  1  0  0  0  0
 58 74  1  0  0  0  0
 59 60  1  0  0  0  0
 60 61  1  0  0  0  0
 61 62  1  0  0  0  0
 62 81  1  0  0  0  0
 63 65  1  0  0  0  0
 63 73  1  0  0  0  0
 64 74  1  0  0  0  0
 66 67  1  0  0  0  0
M  CHG  1  74   1
M  ISO  4  35 100  37 100  62 101  81 101
M  END
> <Batch ID>
0129

> <Smiles>
CNC(C)C(=O)NC(C(=O)N1Cc2cc([101O:1][101CH2:1]CCCc3ccc(C)c(C=[100CH:0][100C:0](=O)N4CCCC(n5nc(-c6ccc(Oc7ccc(F)cc7F)cc6)c(C(N)=O)c5N)C4)c3)ccc2CC1C(=O)NC1CCCc2ccccc21)C(C)(C)C

> <Shape>
0.276

> <Color>
0.108

> <Negative vol penalty>
0.000

$$$$

  -OEChem-04052302193D

 83 91  0     1  0  0  0  0  0999 V2000
  -28.6275  -35.8889   21.7805 C   0  0  0  0  0  0  0  0  0  0  0  0
  -28.8091  -34.5101   21.7454 C   0  0  0  0  0  0  0  0  0  0  0  0
  -23.4708   -6.9138   23.4801 C   0  0  0  0  0  0  0  0  0  0  0  0
  -21.1608   -7.4378   23.0042 C   0  0  0  0  0  0  0  0  0  0  0  0
  -27.6654  -19.8552   20.2292 C   0  0  0  0  0  0  0  0  0  0  0  0
  -28.9901  -19.4139   18.2576 C   0  0  0  0  0  0  0  0  0  0  0  0
  -27.3225  -18.5051   20.3011 C   0  0  0  0  0  0  0  0  0  0  0  0
  -28.6473  -18.0638   18.3294 C   0  0  0  0  0  0  0  0  0  0  0  0
  -27.4920  -36.4262   22.3853 C   0  0  0  0  0  0  0  0  0  0  0  0
  -27.8556  -33.6677   22.3161 C   0  0  0  0  0  0  0  0  0  0  0  0
  -26.7389  -29.7118   19.3583 C   0  0  0  0  0  0  0  0  0  0  0  0
  -23.0626   -5.9713   24.4239 C   0  0  0  0  0  0  0  0  0  0  0  0
  -20.7526   -6.4952   23.9479 C   0  0  0  0  0  0  0  0  0  0  0  0
  -27.6488  -28.6557   19.3371 C   0  0  0  0  0  0  0  0  0  0  0  0
  -21.8748   -2.8056   24.4300 C   0  0  0  0  0  0  0  0  0  0  0  0
  -22.5067   -1.5622   24.4196 C   0  0  0  0  0  0  0  0  0  0  0  0
  -26.2516  -27.4291   20.8743 C   0  0  0  0  0  0  0  0  0  0  0  0
  -23.2559   -1.9239   26.6878 C   0  0  0  0  0  0  0  0  0  0  0  0
  -22.5199   -7.6471   22.7703 C   0  0  0  0  0  0  0  0  0  0  0  0
  -28.4991  -20.3097   19.2074 C   0  0  0  0  0  0  0  0  0  0  0  0
  -27.8135  -17.6094   19.3512 C   0  0  0  0  0  0  0  0  0  0  0  0
  -23.1744   -8.4057   20.4243 C   0  0  0  0  0  0  0  0  0  0  0  0
  -26.5194  -35.5896   22.9552 C   0  0  0  0  0  0  0  0  0  0  0  0
  -25.5820  -29.6389   20.1474 C   0  0  0  0  0  0  0  0  0  0  0  0
  -26.7067  -34.1943   22.9303 C   0  0  0  0  0  0  0  0  0  0  0  0
  -25.3274  -28.4846   20.9017 C   0  0  0  0  0  0  0  0  0  0  0  0
  -21.7036   -5.7620   24.6577 C   0  0  0  0  0  0  0  0  0  0  0  0
  -27.4067  -27.5153   20.0974 C   0  0  0  0  0  0  0  0  0  0  0  0
  -21.9335   -3.6083   25.5693 C   0  0  0  0  0  0  0  0  0  0  0  0
  -23.1973   -1.1213   25.5485 C   0  0  0  0  0  0  0  0  0  0  0  0
  -22.6240   -3.1674   26.6982 C   0  0  0  0  0  0  0  0  0  0  0  0
  -22.9409   -8.6213   21.7958 C   0  0  0  0  0  0  0  0  0  0  0  0
  -23.5516   -9.6355   19.9428 C   0  0  0  0  0  0  0  0  0  0  0  0
  -28.8606  -21.7362   19.1310 C   0  0  0  0  0  0  0  0  0  0  0  0
  -27.4564  -16.2017   19.4263 C   0  0  0  0  0  0  0  0  0  0  0  0
  -28.1771  -22.7272   19.7202 C   0  0  0  0  0  0  0  0  0  0  0  0
  -26.9983  -15.5672   20.5267 C   0  0  0  0  0  0  0  0  0  0  0  0
  -23.0603   -7.2016   19.6545 C   0  0  0  0  0  0  0  0  0  0  0  0
  -28.6220  -24.1435   19.5731 C   0  0  0  0  0  0  0  0  0  0  0  0
  -26.6684  -14.1304   20.4406 C   0  0  0  0  0  0  0  0  0  0  0  0
  -24.4298  -31.3033   22.5981 C   0  0  0  0  0  0  0  0  0  0  0  0
  -21.8364  -29.4034   22.1655 C   0  0  0  0  0  0  0  0  0  0  0  0
  -20.5615  -26.4654   20.9867 C   0  0  0  0  0  0  0  0  0  0  0  0
  -25.3317  -36.2185   23.6395 C   0  0  0  0  0  0  0  0  0  0  0  0
  -24.5971  -30.7757   20.1385 C   0  0  0  0  0  0  0  0  0  0  0  0
  -24.0902  -28.3484   21.7498 C   0  0  0  0  0  0  0  0  0  0  0  0
  -24.1856  -35.2418   23.8903 C   0  0  0  0  0  0  0  0  0  0  0  0
  -23.3819  -14.2089   22.0607 C   0  0  0  0  0  0  0  0  0  0  0  0
  -24.7141  -33.9394   24.4828 C   0  0  0  0  0  0  0  0  0  0  0  0
  -23.0197  -12.7262   22.0623 C   0  0  0  0  0  0  0  0  0  0  0  0
  -24.8829  -14.4311   22.2400 C   0  0  0  0  0  0  0  0  0  0  0  0
  -25.3550  -12.2089   21.2505 C   0  0  0  0  0  0  0  0  0  0  0  0
  -25.6827  -33.2468   23.5167 C   0  0  1  0  0  0  0  0  0  0  0  0
  -23.7080  -30.8056   21.3779 C   0  0  1  0  0  0  0  0  0  0  0  0
  -23.8555  -11.9606   21.0243 C   0  0  1  0  0  0  0  0  0  0  0  0
  -18.4137  -25.1796   20.8113 C   0  0  0  0  0  0  0  0  0  0  0  0
  -22.0382  -28.6680   25.1199 C   0  0  0  0  0  0  0  0  0  0  0  0
  -20.5284  -26.7228   24.6672 C   0  0  0  0  0  0  0  0  0  0  0  0
  -19.7077  -29.0492   24.2966 C   0  0  0  0  0  0  0  0  0  0  0  0
  -20.6671  -26.4669   18.0290 C   0  0  0  0  0  0  0  0  0  0  0  0
  -27.7687  -25.1723   20.2846 C   0  0  0  0  0  0  0  0  0  1  0  0
  -21.3950  -28.0601   22.6945 C   0  0  1  0  0  0  0  0  0  0  0  0
  -19.3460  -26.1675   20.1275 C   0  0  2  0  0  0  0  0  0  0  0  0
  -20.9417  -28.1281   24.1802 C   0  0  0  0  0  0  0  0  0  0  0  0
  -23.1523   -9.8883   22.1619 N   0  0  0  0  0  0  0  0  0  0  0  0
  -23.5227  -10.4799   21.0135 N   0  0  0  0  0  0  0  0  0  0  0  0
  -25.6628  -13.6432   21.2738 N   0  0  0  0  0  0  0  0  0  0  0  0
  -23.1605  -29.4894   21.7127 N   0  0  0  0  0  0  0  0  0  0  0  0
  -23.9021  -10.0661   18.7123 N   0  0  0  0  0  0  0  0  0  0  0  0
  -22.6604   -6.0271   20.3064 N   0  0  0  0  0  0  0  0  0  0  0  0
  -24.9520  -32.5755   22.4632 N   0  0  0  0  0  0  0  0  0  0  0  0
  -20.3676  -27.5780   21.7777 N   0  0  0  0  0  0  0  0  0  0  0  0
  -19.7653  -25.5899   18.8193 N   0  3  0  0  0  0  0  0  0  0  0  0
  -23.3217   -7.1645   18.4282 O   0  0  0  0  0  0  0  0  0  0  0  0
  -29.6144  -24.4509   18.9184 O   0  0  0  0  0  0  0  0  0  0  0  0
  -27.3075  -13.4472   19.6385 O   0  0  0  0  0  0  0  0  0  0  0  0
  -24.5059  -30.5867   23.5893 O   0  0  0  0  0  0  0  0  0  0  0  0
  -21.0337  -30.3399   22.1480 O   0  0  0  0  0  0  0  0  0  0  0  0
  -21.5797  -25.7776   20.9615 O   0  0  0  0  0  0  0  0  0  0  0  0
  -21.3049   -4.8421   25.5784 O   0  0  0  0  0  0  0  0  0  0  0  0
  -28.2935  -26.4833   20.0791 O   0  0  0  0  0  0  0  0  0  1  0  0
  -23.8028    0.0735   25.5389 F   0  0  0  0  0  0  0  0  0  0  0  0
  -22.6828   -3.9336   27.7961 F   0  0  0  0  0  0  0  0  0  0  0  0
  1  2  1  0  0  0  0
  1  9  2  0  0  0  0
  2 10  2  0  0  0  0
  3 12  2  0  0  0  0
  3 19  1  0  0  0  0
  4 13  1  0  0  0  0
  4 19  2  0  0  0  0
  5  7  2  0  0  0  0
  5 20  1  0  0  0  0
  6  8  1  0  0  0  0
  6 20  2  0  0  0  0
  7 21  1  0  0  0  0
  8 21  2  0  0  0  0
  9 23  1  0  0  0  0
 10 25  1  0  0  0  0
 11 14  2  0  0  0  0
 11 24  1  0  0  0  0
 12 27  1  0  0  0  0
 13 27  2  0  0  0  0
 14 28  1  0  0  0  0
 15 16  2  0  0  0  0
 15 29  1  0  0  0  0
 16 30  1  0  0  0  0
 17 26  1  0  0  0  0
 17 28  2  0  0  0  0
 18 30  2  0  0  0  0
 18 31  1  0  0  0  0
 19 32  1  0  0  0  0
 20 34  1  0  0  0  0
 21 35  1  0  0  0  0
 22 32  1  0  0  0  0
 22 33  2  0  0  0  0
 22 38  1  0  0  0  0
 23 25  2  0  0  0  0
 23 44  1  0  0  0  0
 24 26  2  0  0  0  0
 24 45  1  0  0  0  0
 25 53  1  0  0  0  0
 26 46  1  0  0  0  0
 27 80  1  0  0  0  0
 28 81  1  0  0  0  0
 29 31  2  0  0  0  0
 29 80  1  0  0  0  0
 30 82  1  0  0  0  0
 31 83  1  0  0  0  0
 32 65  2  0  0  0  0
 33 66  1  0  0  0  0
 33 69  1  0  0  0  0
 34 36  2  0  0  0  0
 35 37  2  0  0  0  0
 36 39  1  0  0  0  0
 37 40  1  0  0  0  0
 38 70  1  0  0  0  0
 38 74  2  0  0  0  0
 39 61  1  0  0  0  0
 39 75  2  0  0  0  0
 40 67  1  0  0  0  0
 40 76  2  0  0  0  0
 41 54  1  0  0  0  0
 41 71  1  0  0  0  0
 41 77  2  0  0  0  0
 42 62  1  0  0  0  0
 42 68  1  0  0  0  0
 42 78  2  0  0  0  0
 43 63  1  0  0  0  0
 43 72  1  0  0  0  0
 43 79  2  0  0  0  0
 44 47  1  0  0  0  0
 45 54  1  0  0  0  0
 46 68  1  0  0  0  0
 47 49  1  0  0  0  0
 48 50  1  0  0  0  0
 48 51  1  0  0  0  0
 49 53  1  0  0  0  0
 50 55  1  0  0  0  0
 51 67  1  0  0  0  0
 52 55  1  0  0  0  0
 52 67  1  0  0  0  0
 53 71  1  0  0  0  0
 54 68  1  0  0  0  0
 55 66  1  0  0  0  0
 56 63  1  0  0  0  0
 57 64  1  0  0  0  0
 58 64  1  0  0  0  0
 59 64  1  0  0  0  0
 60 73  1  0  0  0  0
 61 81  1  0  0  0  0
 62 64  1  0  0  0  0
 62 72  1  0  0  0  0
 63 73  1  0  0  0  0
 65 66  1  0  0  0  0
M  CHG  1  73   1
M  ISO  4  37 100  40 100  61 101  81 101
M  END
> <Batch ID>
0129

> <Smiles>
CNC(C)C(=O)NC(C(=O)N1Cc2cc([101O:1][101CH2:1]C(=O)C=Cc3ccc(C=[100CH:0][100C:0](=O)N4CCCC(n5nc(-c6ccc(Oc7ccc(F)cc7F)cc6)c(C(N)=O)c5N)C4)cc3)ccc2CC1C(=O)NC1CCCc2ccccc21)C(C)(C)C

> <Shape>
0.335

> <Color>
0.074

> <Negative vol penalty>
0.000

$$$$

  -OEChem-04052302193D

 83 91  0     1  0  0  0  0  0999 V2000
  -33.7499  -34.1512   20.5936 C   0  0  0  0  0  0  0  0  0  0  0  0
  -33.9610  -33.0297   21.3893 C   0  0  0  0  0  0  0  0  0  0  0  0
  -23.0955   -9.8857   19.9305 C   0  0  0  0  0  0  0  0  0  0  0  0
  -23.8596   -9.8870   22.2225 C   0  0  0  0  0  0  0  0  0  0  0  0
  -32.5555  -34.2889   19.8877 C   0  0  0  0  0  0  0  0  0  0  0  0
  -32.9772  -32.0457   21.4803 C   0  0  0  0  0  0  0  0  0  0  0  0
  -33.8482  -26.0123   22.0688 C   0  0  0  0  0  0  0  0  0  0  0  0
  -32.6224  -17.5621   23.4509 C   0  0  0  0  0  0  0  0  0  0  0  0
  -32.0233  -16.6845   22.5474 C   0  0  0  0  0  0  0  0  0  0  0  0
  -22.3634   -8.7240   20.1752 C   0  0  0  0  0  0  0  0  0  0  0  0
  -23.1274   -8.7252   22.4672 C   0  0  0  0  0  0  0  0  0  0  0  0
  -33.8246  -25.1648   23.1756 C   0  0  0  0  0  0  0  0  0  0  0  0
  -19.4257   -7.8904   21.6272 C   0  0  0  0  0  0  0  0  0  0  0  0
  -18.1185   -7.8343   21.1440 C   0  0  0  0  0  0  0  0  0  0  0  0
  -31.5300  -24.6021   22.6882 C   0  0  0  0  0  0  0  0  0  0  0  0
  -30.4464  -18.4084   24.0720 C   0  0  0  0  0  0  0  0  0  0  0  0
  -18.6946   -5.9043   19.8096 C   0  0  0  0  0  0  0  0  0  0  0  0
  -23.8437  -10.4672   20.9542 C   0  0  0  0  0  0  0  0  0  0  0  0
  -24.1607  -12.9962   20.8480 C   0  0  0  0  0  0  0  0  0  0  0  0
  -31.5605  -33.3014   19.9625 C   0  0  0  0  0  0  0  0  0  0  0  0
  -32.7076  -26.1698   21.2685 C   0  0  0  0  0  0  0  0  0  0  0  0
  -31.7678  -32.1709   20.7758 C   0  0  0  0  0  0  0  0  0  0  0  0
  -31.5425  -25.4503   21.5704 C   0  0  0  0  0  0  0  0  0  0  0  0
  -31.8340  -18.4241   24.2133 C   0  0  0  0  0  0  0  0  0  0  0  0
  -29.8472  -17.5308   23.1684 C   0  0  0  0  0  0  0  0  0  0  0  0
  -30.6357  -16.6689   22.4061 C   0  0  0  0  0  0  0  0  0  0  0  0
  -22.3793   -8.1437   21.4435 C   0  0  0  0  0  0  0  0  0  0  0  0
  -32.6646  -24.4617   23.4871 C   0  0  0  0  0  0  0  0  0  0  0  0
  -20.3675   -6.9536   21.2015 C   0  0  0  0  0  0  0  0  0  0  0  0
  -17.7529   -6.8412   20.2353 C   0  0  0  0  0  0  0  0  0  0  0  0
  -20.0019   -5.9605   20.2928 C   0  0  0  0  0  0  0  0  0  0  0  0
  -24.6007  -11.6670   20.7019 C   0  0  0  0  0  0  0  0  0  0  0  0
  -25.2449  -13.7584   20.4871 C   0  0  0  0  0  0  0  0  0  0  0  0
  -22.8861  -13.4972   21.2722 C   0  0  0  0  0  0  0  0  0  0  0  0
  -30.8156  -28.6103   20.5147 C   0  0  0  0  0  0  0  0  0  0  0  0
  -29.4674  -26.4416   18.5143 C   0  0  0  0  0  0  0  0  0  0  0  0
  -28.8721  -23.1647   17.7701 C   0  0  0  0  0  0  0  0  0  0  0  0
  -30.7010  -14.8561   20.6579 C   0  0  0  0  0  0  0  0  0  0  0  0
  -30.2664  -33.5170   19.2186 C   0  0  0  0  0  0  0  0  0  0  0  0
  -32.7575  -27.0674   20.0626 C   0  0  0  0  0  0  0  0  0  0  0  0
  -30.2975  -25.5687   20.7312 C   0  0  0  0  0  0  0  0  0  0  0  0
  -29.4287  -32.2492   19.0737 C   0  0  0  0  0  0  0  0  0  0  0  0
  -29.6057  -12.4451   18.2779 C   0  0  0  0  0  0  0  0  0  0  0  0
  -29.3447  -31.5097   20.4052 C   0  0  0  0  0  0  0  0  0  0  0  0
  -28.1697  -12.1371   18.7083 C   0  0  0  0  0  0  0  0  0  0  0  0
  -30.5207  -12.6760   19.4792 C   0  0  0  0  0  0  0  0  0  0  0  0
  -28.6094  -13.3739   20.8680 C   0  0  0  0  0  0  0  0  0  0  0  0
  -30.7347  -31.0700   20.8807 C   0  0  1  0  0  0  0  0  0  0  0  0
  -31.3793  -27.5459   19.6164 C   0  0  1  0  0  0  0  0  0  0  0  0
  -27.6361  -13.1979   19.6909 C   0  0  2  0  0  0  0  0  0  0  0  0
  -27.8944  -18.2645   21.7774 C   0  0  0  0  0  0  0  0  0  0  0  0
  -27.7086  -21.7056   16.0924 C   0  0  0  0  0  0  0  0  0  0  0  0
  -26.7803  -27.1222   19.7895 C   0  0  0  0  0  0  0  0  0  0  0  0
  -25.8519  -25.0245   18.7867 C   0  0  0  0  0  0  0  0  0  0  0  0
  -26.7140  -26.8373   17.3058 C   0  0  0  0  0  0  0  0  0  0  0  0
  -31.4073  -21.8642   16.9700 C   0  0  0  0  0  0  0  0  0  0  0  0
  -32.4820  -19.3745   25.1883 C   0  0  0  0  0  0  0  0  0  0  0  0
  -28.3587  -17.5377   23.0355 C   0  0  0  0  0  0  0  0  0  0  0  0
  -32.8397  -20.7356   24.5813 C   0  0  0  0  0  0  0  0  0  0  0  0
  -33.5648  -21.6571   25.5632 C   0  0  0  0  0  0  0  0  0  0  0  0
  -33.8680  -23.0121   24.9384 C   0  0  0  0  0  0  0  0  0  1  0  0
  -28.3496  -25.4333   18.6272 C   0  0  1  0  0  0  0  0  0  0  0  0
  -29.0146  -22.3836   16.4762 C   0  0  2  0  0  0  0  0  0  0  0  0
  -26.9467  -26.1034   18.6445 C   0  0  0  0  0  0  0  0  0  0  0  0
  -25.8656  -11.5859   20.2808 N   0  0  0  0  0  0  0  0  0  0  0  0
  -26.2298  -12.8737   20.1591 N   0  0  0  0  0  0  0  0  0  0  0  0
  -30.3942  -26.4637   19.5662 N   0  0  0  0  0  0  0  0  0  0  0  0
  -29.9534  -13.6963   20.3634 N   0  0  0  0  0  0  0  0  0  0  0  0
  -25.4422  -15.0922   20.4213 N   0  0  0  0  0  0  0  0  0  0  0  0
  -21.8837  -12.5763   21.6060 N   0  0  0  0  0  0  0  0  0  0  0  0
  -30.0461  -15.7701   21.4828 N   0  0  0  0  0  0  0  0  0  0  0  0
  -31.1696  -29.8964   20.1541 N   0  0  0  0  0  0  0  0  0  0  0  0
  -28.5448  -24.4837   17.5370 N   0  0  0  0  0  0  0  0  0  0  0  0
  -30.0646  -21.3355   16.6169 N   0  3  0  0  0  0  0  0  0  0  0  0
  -22.6380  -14.7251   21.3370 O   0  0  0  0  0  0  0  0  0  0  0  0
  -30.1104  -28.2886   21.4639 O   0  0  0  0  0  0  0  0  0  0  0  0
  -29.5206  -27.1775   17.5257 O   0  0  0  0  0  0  0  0  0  0  0  0
  -29.0312  -22.6547   18.8770 O   0  0  0  0  0  0  0  0  0  0  0  0
  -31.8275  -15.0385   20.1893 O   0  0  0  0  0  0  0  0  0  0  0  0
  -21.6648   -7.0102   21.6827 O   0  0  0  0  0  0  0  0  0  0  0  0
  -32.6386  -23.6343   24.5672 O   0  0  0  0  0  0  0  0  0  1  0  0
  -16.4970   -6.7864   19.7726 F   0  0  0  0  0  0  0  0  0  0  0  0
  -20.9019   -5.0571   19.8811 F   0  0  0  0  0  0  0  0  0  0  0  0
  1  2  1  0  0  0  0
  1  5  2  0  0  0  0
  2  6  2  0  0  0  0
  3 10  2  0  0  0  0
  3 18  1  0  0  0  0
  4 11  1  0  0  0  0
  4 18  2  0  0  0  0
  5 20  1  0  0  0  0
  6 22  1  0  0  0  0
  7 12  2  0  0  0  0
  7 21  1  0  0  0  0
  8  9  2  0  0  0  0
  8 24  1  0  0  0  0
  9 26  1  0  0  0  0
 10 27  1  0  0  0  0
 11 27  2  0  0  0  0
 12 28  1  0  0  0  0
 13 14  2  0  0  0  0
 13 29  1  0  0  0  0
 14 30  1  0  0  0  0
 15 23  1  0  0  0  0
 15 28  2  0  0  0  0
 16 24  2  0  0  0  0
 16 25  1  0  0  0  0
 17 30  2  0  0  0  0
 17 31  1  0  0  0  0
 18 32  1  0  0  0  0
 19 32  1  0  0  0  0
 19 33  2  0  0  0  0
 19 34  1  0  0  0  0
 20 22  2  0  0  0  0
 20 39  1  0  0  0  0
 21 23  2  0  0  0  0
 21 40  1  0  0  0  0
 22 48  1  0  0  0  0
 23 41  1  0  0  0  0
 24 57  1  0  0  0  0
 25 26  2  0  0  0  0
 25 58  1  0  0  0  0
 26 71  1  0  0  0  0
 27 80  1  0  0  0  0
 28 81  1  0  0  0  0
 29 31  2  0  0  0  0
 29 80  1  0  0  0  0
 30 82  1  0  0  0  0
 31 83  1  0  0  0  0
 32 65  2  0  0  0  0
 33 66  1  0  0  0  0
 33 69  1  0  0  0  0
 34 70  1  0  0  0  0
 34 75  2  0  0  0  0
 35 49  1  0  0  0  0
 35 72  1  0  0  0  0
 35 76  2  0  0  0  0
 36 62  1  0  0  0  0
 36 67  1  0  0  0  0
 36 77  2  0  0  0  0
 37 63  1  0  0  0  0
 37 73  1  0  0  0  0
 37 78  2  0  0  0  0
 38 68  1  0  0  0  0
 38 71  1  0  0  0  0
 38 79  2  0  0  0  0
 39 42  1  0  0  0  0
 40 49  1  0  0  0  0
 41 67  1  0  0  0  0
 42 44  1  0  0  0  0
 43 45  1  0  0  0  0
 43 46  1  0  0  0  0
 44 48  1  0  0  0  0
 45 50  1  0  0  0  0
 46 68  1  0  0  0  0
 47 50  1  0  0  0  0
 47 68  1  0  0  0  0
 48 72  1  0  0  0  0
 49 67  1  0  0  0  0
 50 66  1  0  0  0  0
 51 58  1  0  0  0  0
 52 63  1  0  0  0  0
 53 64  1  0  0  0  0
 54 64  1  0  0  0  0
 55 64  1  0  0  0  0
 56 74  1  0  0  0  0
 57 59  1  0  0  0  0
 59 60  1  0  0  0  0
 60 61  1  0  0  0  0
 61 81  1  0  0  0  0
 62 64  1  0  0  0  0
 62 73  1  0  0  0  0
 63 74  1  0  0  0  0
 65 66  1  0  0  0  0
M  CHG  1  74   1
M  ISO  4  38 100  61 101  71 100  81 101
M  END
> <Batch ID>
0129

> <Smiles>
CCc1cc(CCC[101CH2:1][101O:1]c2ccc3c(c2)CN(C(=O)C(NC(=O)C(C)NC)C(C)(C)C)C(C(=O)NC2CCCc4ccccc42)C3)ccc1[100NH:0][100C:0](=O)N1CCCC(n2nc(-c3ccc(Oc4ccc(F)cc4F)cc3)c(C(N)=O)c2N)C1

> <Shape>
0.224

> <Color>
0.218

> <Negative vol penalty>
0.000

$$$$

  -OEChem-04052302193D

 84 92  0     1  0  0  0  0  0999 V2000
  -36.0494  -17.7017   21.6991 C   0  0  0  0  0  0  0  0  0  0  0  0
  -35.1475  -18.5111   21.0177 C   0  0  0  0  0  0  0  0  0  0  0  0
  -31.5557  -18.8964   20.5212 C   0  0  0  0  0  0  0  0  0  0  0  0
  -23.0457   -9.9208   19.9665 C   0  0  0  0  0  0  0  0  0  0  0  0
  -23.7903   -9.9473   22.2647 C   0  0  0  0  0  0  0  0  0  0  0  0
  -36.6732  -18.1760   22.8511 C   0  0  0  0  0  0  0  0  0  0  0  0
  -34.8780  -19.7993   21.4813 C   0  0  0  0  0  0  0  0  0  0  0  0
  -32.0679  -22.6585   18.6298 C   0  0  0  0  0  0  0  0  0  0  0  0
  -30.8417  -19.7209   21.3907 C   0  0  0  0  0  0  0  0  0  0  0  0
  -31.3467  -17.5174   20.5384 C   0  0  0  0  0  0  0  0  0  0  0  0
  -22.2660   -8.7951   20.2320 C   0  0  0  0  0  0  0  0  0  0  0  0
  -23.0106   -8.8216   22.5303 C   0  0  0  0  0  0  0  0  0  0  0  0
  -30.6983  -22.4512   18.4712 C   0  0  0  0  0  0  0  0  0  0  0  0
  -20.9359   -6.1698   23.9022 C   0  0  0  0  0  0  0  0  0  0  0  0
  -20.1710   -6.1703   25.0686 C   0  0  0  0  0  0  0  0  0  0  0  0
  -30.2527  -24.2977   19.9581 C   0  0  0  0  0  0  0  0  0  0  0  0
  -29.7099  -17.7873   22.2948 C   0  0  0  0  0  0  0  0  0  0  0  0
  -18.9898   -8.1300   24.2931 C   0  0  0  0  0  0  0  0  0  0  0  0
  -23.8079  -10.4969   20.9828 C   0  0  0  0  0  0  0  0  0  0  0  0
  -24.2259  -13.0081   20.8194 C   0  0  0  0  0  0  0  0  0  0  0  0
  -36.4013  -19.4662   23.3353 C   0  0  0  0  0  0  0  0  0  0  0  0
  -32.5409  -23.6819   19.4637 C   0  0  0  0  0  0  0  0  0  0  0  0
  -35.5156  -20.3049   22.6287 C   0  0  0  0  0  0  0  0  0  0  0  0
  -31.6287  -24.5176   20.1236 C   0  0  0  0  0  0  0  0  0  0  0  0
  -29.9188  -19.1664   22.2775 C   0  0  0  0  0  0  0  0  0  0  0  0
  -30.4238  -16.9628   21.4252 C   0  0  0  0  0  0  0  0  0  0  0  0
  -22.2485   -8.2455   21.5139 C   0  0  0  0  0  0  0  0  0  0  0  0
  -29.7905  -23.2690   19.1376 C   0  0  0  0  0  0  0  0  0  0  0  0
  -20.7279   -7.1495   22.9312 C   0  0  0  0  0  0  0  0  0  0  0  0
  -19.1979   -7.1504   25.2640 C   0  0  0  0  0  0  0  0  0  0  0  0
  -19.7548   -8.1296   23.1267 C   0  0  0  0  0  0  0  0  0  0  0  0
  -24.6139  -11.6594   20.7090 C   0  0  0  0  0  0  0  0  0  0  0  0
  -25.3424  -13.7179   20.4504 C   0  0  0  0  0  0  0  0  0  0  0  0
  -27.3533  -20.7155   21.5777 C   0  0  0  0  0  0  0  0  0  0  0  0
  -28.2995  -21.0622   22.4636 C   0  0  0  0  0  0  0  0  0  0  0  0
  -22.9687  -13.5691   21.2198 C   0  0  0  0  0  0  0  0  0  0  0  0
  -34.3060  -23.7871   22.1052 C   0  0  0  0  0  0  0  0  0  0  0  0
  -34.1272  -26.9909   21.6297 C   0  0  0  0  0  0  0  0  0  0  0  0
  -32.4503  -29.6269   20.2563 C   0  0  0  0  0  0  0  0  0  0  0  0
  -30.8361  -14.6032   20.6451 C   0  0  0  0  0  0  0  0  0  0  0  0
  -37.1106  -19.9318   24.5825 C   0  0  0  0  0  0  0  0  0  0  0  0
  -34.0212  -23.9095   19.6032 C   0  0  0  0  0  0  0  0  0  0  0  0
  -32.0852  -25.6431   21.0143 C   0  0  0  0  0  0  0  0  0  0  0  0
  -36.4325  -21.1294   25.2400 C   0  0  0  0  0  0  0  0  0  0  0  0
  -29.6656  -12.1806   18.3131 C   0  0  0  0  0  0  0  0  0  0  0  0
  -36.1586  -22.2066   24.2012 C   0  0  0  0  0  0  0  0  0  0  0  0
  -28.2151  -11.9400   18.7377 C   0  0  0  0  0  0  0  0  0  0  0  0
  -30.5792  -12.4041   19.5169 C   0  0  0  0  0  0  0  0  0  0  0  0
  -28.6857  -13.2103   20.8712 C   0  0  0  0  0  0  0  0  0  0  0  0
  -35.1838  -21.6983   23.1314 C   0  0  1  0  0  0  0  0  0  0  0  0
  -34.3933  -24.6545   20.8814 C   0  0  1  0  0  0  0  0  0  0  0  0
  -27.7159  -13.0445   19.6898 C   0  0  2  0  0  0  0  0  0  0  0  0
  -30.0486  -20.7864   24.2285 C   0  0  0  0  0  0  0  0  0  0  0  0
  -32.5259  -32.1283   20.0702 C   0  0  0  0  0  0  0  0  0  0  0  0
  -33.1033  -27.2326   24.4939 C   0  0  0  0  0  0  0  0  0  0  0  0
  -32.3134  -29.5435   23.9425 C   0  0  0  0  0  0  0  0  0  0  0  0
  -34.7440  -28.9958   23.8202 C   0  0  0  0  0  0  0  0  0  0  0  0
  -32.6938  -29.5162   17.3089 C   0  0  0  0  0  0  0  0  0  0  0  0
  -26.5253  -21.7073   20.8136 C   0  0  0  0  0  0  0  0  0  0  0  0
  -26.6222  -21.5167   19.2950 C   0  0  0  0  0  0  0  0  0  0  0  0
  -28.0221  -21.7328   18.7266 C   0  0  0  0  0  0  0  0  0  1  0  0
  -29.1410  -20.0654   23.2249 C   0  0  2  0  0  0  0  0  0  0  0  0
  -33.1778  -28.0839   22.0575 C   0  0  1  0  0  0  0  0  0  0  0  0
  -32.9314  -30.8082   19.4332 C   0  0  2  0  0  0  0  0  0  0  0  0
  -33.3257  -28.4416   23.5633 C   0  0  0  0  0  0  0  0  0  0  0  0
  -25.8781  -11.5182   20.3016 N   0  0  0  0  0  0  0  0  0  0  0  0
  -26.2941  -12.7874   20.1526 N   0  0  0  0  0  0  0  0  0  0  0  0
  -33.5425  -25.8214   21.1235 N   0  0  0  0  0  0  0  0  0  0  0  0
  -30.0456  -13.4670   20.3714 N   0  0  0  0  0  0  0  0  0  0  0  0
  -25.5930  -15.0409   20.3547 N   0  0  0  0  0  0  0  0  0  0  0  0
  -21.9278  -12.6968   21.5663 N   0  0  0  0  0  0  0  0  0  0  0  0
  -30.2113  -15.5620   21.4419 N   0  0  0  0  0  0  0  0  0  0  0  0
  -35.1130  -22.6664   22.0592 N   0  0  0  0  0  0  0  0  0  0  0  0
  -33.4097  -29.2037   21.1517 N   0  0  0  0  0  0  0  0  0  0  0  0
  -32.3547  -30.7521   18.0602 N   0  3  0  0  0  0  0  0  0  0  0  0
  -22.7690  -14.8071   21.2531 O   0  0  0  0  0  0  0  0  0  0  0  0
  -33.5626  -24.1114   23.0238 O   0  0  0  0  0  0  0  0  0  0  0  0
  -35.3431  -27.1710   21.7340 O   0  0  0  0  0  0  0  0  0  0  0  0
  -31.3336  -29.1317   20.1213 O   0  0  0  0  0  0  0  0  0  0  0  0
  -31.9728  -14.7296   20.1826 O   0  0  0  0  0  0  0  0  0  0  0  0
  -21.4876   -7.1472   21.7735 O   0  0  0  0  0  0  0  0  0  0  0  0
  -28.4532  -23.0684   18.9851 O   0  0  0  0  0  0  0  0  0  1  0  0
  -18.4623   -7.1498   26.3834 F   0  0  0  0  0  0  0  0  0  0  0  0
  -19.5495   -9.0726   22.1970 F   0  0  0  0  0  0  0  0  0  0  0  0
  1  2  1  0  0  0  0
  1  6  2  0  0  0  0
  2  7  2  0  0  0  0
  3  9  2  0  0  0  0
  3 10  1  0  0  0  0
  4 11  2  0  0  0  0
  4 19  1  0  0  0  0
  5 12  1  0  0  0  0
  5 19  2  0  0  0  0
  6 21  1  0  0  0  0
  7 23  1  0  0  0  0
  8 13  2  0  0  0  0
  8 22  1  0  0  0  0
  9 25  1  0  0  0  0
 10 26  2  0  0  0  0
 11 27  1  0  0  0  0
 12 27  2  0  0  0  0
 13 28  1  0  0  0  0
 14 15  2  0  0  0  0
 14 29  1  0  0  0  0
 15 30  1  0  0  0  0
 16 24  1  0  0  0  0
 16 28  2  0  0  0  0
 17 25  2  0  0  0  0
 17 26  1  0  0  0  0
 18 30  2  0  0  0  0
 18 31  1  0  0  0  0
 19 32  1  0  0  0  0
 20 32  1  0  0  0  0
 20 33  2  0  0  0  0
 20 36  1  0  0  0  0
 21 23  2  0  0  0  0
 21 41  1  0  0  0  0
 22 24  2  0  0  0  0
 22 42  1  0  0  0  0
 23 50  1  0  0  0  0
 24 43  1  0  0  0  0
 25 62  1  0  0  0  0
 26 72  1  0  0  0  0
 27 81  1  0  0  0  0
 28 82  1  0  0  0  0
 29 31  2  0  0  0  0
 29 81  1  0  0  0  0
 30 83  1  0  0  0  0
 31 84  1  0  0  0  0
 32 66  2  0  0  0  0
 33 67  1  0  0  0  0
 33 70  1  0  0  0  0
 34 35  2  0  0  0  0
 34 59  1  0  0  0  0
 35 62  1  0  0  0  0
 36 71  1  0  0  0  0
 36 76  2  0  0  0  0
 37 51  1  0  0  0  0
 37 73  1  0  0  0  0
 37 77  2  0  0  0  0
 38 63  1  0  0  0  0
 38 68  1  0  0  0  0
 38 78  2  0  0  0  0
 39 64  1  0  0  0  0
 39 74  1  0  0  0  0
 39 79  2  0  0  0  0
 40 69  1  0  0  0  0
 40 72  1  0  0  0  0
 40 80  2  0  0  0  0
 41 44  1  0  0  0  0
 42 51  1  0  0  0  0
 43 68  1  0  0  0  0
 44 46  1  0  0  0  0
 45 47  1  0  0  0  0
 45 48  1  0  0  0  0
 46 50  1  0  0  0  0
 47 52  1  0  0  0  0
 48 69  1  0  0  0  0
 49 52  1  0  0  0  0
 49 69  1  0  0  0  0
 50 73  1  0  0  0  0
 51 68  1  0  0  0  0
 52 67  1  0  0  0  0
 53 62  1  0  0  0  0
 54 64  1  0  0  0  0
 55 65  1  0  0  0  0
 56 65  1  0  0  0  0
 57 65  1  0  0  0  0
 58 75  1  0  0  0  0
 59 60  1  0  0  0  0
 60 61  1  0  0  0  0
 61 82  1  0  0  0  0
 63 65  1  0  0  0  0
 63 74  1  0  0  0  0
 64 75  1  0  0  0  0
 66 67  1  0  0  0  0
M  CHG  1  75   1
M  ISO  4  40 100  61 101  72 100  82 101
M  END
> <Batch ID>
0129

> <Smiles>
CNC(C)C(=O)NC(C(=O)N1Cc2cc([101O:1][101CH2:1]CCC=CC(C)c3cccc([100NH:0][100C:0](=O)N4CCCC(n5nc(-c6ccc(Oc7ccc(F)cc7F)cc6)c(C(N)=O)c5N)C4)c3)ccc2CC1C(=O)NC1CCCc2ccccc21)C(C)(C)C

> <Shape>
0.210

> <Color>
0.211

> <Negative vol penalty>
0.000

$$$$

  -OEChem-04052302193D

 84 92  0     1  0  0  0  0  0999 V2000
  -17.6009  -30.3733   23.5552 C   0  0  0  0  0  0  0  0  0  0  0  0
  -18.9724  -30.6030   23.5172 C   0  0  0  0  0  0  0  0  0  0  0  0
  -25.2364  -13.7049   20.8848 C   0  0  0  0  0  0  0  0  0  0  0  0
  -23.2043  -14.9123   20.3851 C   0  0  0  0  0  0  0  0  0  0  0  0
  -17.1015  -29.0972   23.2979 C   0  0  0  0  0  0  0  0  0  0  0  0
  -19.8456  -29.5564   23.2228 C   0  0  0  0  0  0  0  0  0  0  0  0
  -25.1076  -29.9170   20.1104 C   0  0  0  0  0  0  0  0  0  0  0  0
  -24.4836  -12.6570   21.4146 C   0  0  0  0  0  0  0  0  0  0  0  0
  -22.4514  -13.8644   20.9149 C   0  0  0  0  0  0  0  0  0  0  0  0
  -26.4374  -29.9953   20.5220 C   0  0  0  0  0  0  0  0  0  0  0  0
  -22.6851  -10.0429   20.2465 C   0  0  0  0  0  0  0  0  0  0  0  0
  -23.0384   -8.7431   19.8842 C   0  0  0  0  0  0  0  0  0  0  0  0
  -32.4716  -24.0598   22.1814 C   0  0  0  0  0  0  0  0  0  0  0  0
  -31.5323  -25.1555   20.2440 C   0  0  0  0  0  0  0  0  0  0  0  0
  -26.6541  -27.6076   20.2555 C   0  0  0  0  0  0  0  0  0  0  0  0
  -23.4372   -8.2046   22.2054 C   0  0  0  0  0  0  0  0  0  0  0  0
  -24.5968  -14.8326   20.3701 C   0  0  0  0  0  0  0  0  0  0  0  0
  -31.7279  -24.0016   21.0028 C   0  0  0  0  0  0  0  0  0  0  0  0
  -25.7943  -16.0712   18.4887 C   0  0  0  0  0  0  0  0  0  0  0  0
  -17.9684  -28.0366   22.9907 C   0  0  0  0  0  0  0  0  0  0  0  0
  -24.5370  -28.6799   19.7781 C   0  0  0  0  0  0  0  0  0  0  0  0
  -19.3575  -28.2647   22.9624 C   0  0  0  0  0  0  0  0  0  0  0  0
  -25.3177  -27.5166   19.8375 C   0  0  0  0  0  0  0  0  0  0  0  0
  -33.0196  -25.2719   22.6013 C   0  0  0  0  0  0  0  0  0  0  0  0
  -32.0803  -26.3677   20.6637 C   0  0  0  0  0  0  0  0  0  0  0  0
  -32.8240  -26.4258   21.8424 C   0  0  0  0  0  0  0  0  0  0  0  0
  -23.0911  -12.7367   21.4296 C   0  0  0  0  0  0  0  0  0  0  0  0
  -27.2100  -28.8401   20.5973 C   0  0  0  0  0  0  0  0  0  0  0  0
  -22.7079  -10.4237   21.5882 C   0  0  0  0  0  0  0  0  0  0  0  0
  -23.4144   -7.8239   20.8637 C   0  0  0  0  0  0  0  0  0  0  0  0
  -23.0840   -9.5045   22.5677 C   0  0  0  0  0  0  0  0  0  0  0  0
  -25.3740  -15.9157   19.8232 C   0  0  0  0  0  0  0  0  0  0  0  0
  -26.4958  -17.2520   18.4850 C   0  0  0  0  0  0  0  0  0  0  0  0
  -31.1562  -22.7375   20.5653 C   0  0  0  0  0  0  0  0  0  0  0  0
  -30.9368  -21.6632   21.3527 C   0  0  0  0  0  0  0  0  0  0  0  0
  -25.5705  -15.2240   17.3538 C   0  0  0  0  0  0  0  0  0  0  0  0
  -30.3374  -20.4507   20.7599 C   0  0  0  0  0  0  0  0  0  0  0  0
  -22.1366  -26.9375   20.9208 C   0  0  0  0  0  0  0  0  0  0  0  0
  -22.7837  -25.0683   18.3499 C   0  0  0  0  0  0  0  0  0  0  0  0
  -25.0475  -24.0384   16.0130 C   0  0  0  0  0  0  0  0  0  0  0  0
  -17.3850  -26.6641   22.7662 C   0  0  0  0  0  0  0  0  0  0  0  0
  -23.1089  -28.6158   19.3103 C   0  0  0  0  0  0  0  0  0  0  0  0
  -24.7584  -26.1667   19.4721 C   0  0  0  0  0  0  0  0  0  0  0  0
  -18.3526  -25.6935   22.0938 C   0  0  0  0  0  0  0  0  0  0  0  0
  -26.9063  -20.8641   21.9799 C   0  0  0  0  0  0  0  0  0  0  0  0
  -19.7240  -25.7607   22.7584 C   0  0  0  0  0  0  0  0  0  0  0  0
  -26.2511  -19.5911   21.4508 C   0  0  0  0  0  0  0  0  0  0  0  0
  -28.3657  -20.6361   22.3706 C   0  0  0  0  0  0  0  0  0  0  0  0
  -28.5344  -18.7709   20.7480 C   0  0  0  0  0  0  0  0  0  0  0  0
  -20.3350  -27.1606   22.6224 C   0  0  1  0  0  0  0  0  0  0  0  0
  -22.4828  -27.2362   19.4896 C   0  0  1  0  0  0  0  0  0  0  0  0
  -27.0793  -18.9886   20.3048 C   0  0  1  0  0  0  0  0  0  0  0  0
  -33.8128  -25.3073   23.8667 C   0  0  0  0  0  0  0  0  0  0  0  0
  -32.6146  -28.3545   23.4307 C   0  0  0  0  0  0  0  0  0  0  0  0
  -25.2963  -22.4738   14.0668 C   0  0  0  0  0  0  0  0  0  0  0  0
  -23.0016  -22.7115   20.2755 C   0  0  0  0  0  0  0  0  0  0  0  0
  -24.1571  -21.4274   18.4633 C   0  0  0  0  0  0  0  0  0  0  0  0
  -21.8092  -22.2041   18.1366 C   0  0  0  0  0  0  0  0  0  0  0  0
  -25.6123  -26.2646   14.1464 C   0  0  0  0  0  0  0  0  0  0  0  0
  -31.8542  -27.6006   19.8257 C   0  0  0  0  0  0  0  0  0  0  0  0
  -33.4112  -27.7255   22.2926 C   0  0  0  0  0  0  0  0  0  0  0  0
  -30.8033  -28.5523   20.4013 C   0  0  0  0  0  0  0  0  0  0  0  0
  -29.4083  -27.9417   20.4690 C   0  0  0  0  0  0  0  0  0  1  0  0
  -23.6914  -23.8914   18.0851 C   0  0  1  0  0  0  0  0  0  0  0  0
  -24.9413  -23.8857   14.5064 C   0  0  2  0  0  0  0  0  0  0  0  0
  -23.1751  -22.5836   18.7489 C   0  0  0  0  0  0  0  0  0  0  0  0
  -25.7751  -16.9176   20.6102 N   0  0  0  0  0  0  0  0  0  0  0  0
  -26.4549  -17.7139   19.7676 N   0  0  0  0  0  0  0  0  0  0  0  0
  -29.1230  -20.0055   21.2790 N   0  0  0  0  0  0  0  0  0  0  0  0
  -23.3552  -26.1551   19.0266 N   0  0  0  0  0  0  0  0  0  0  0  0
  -27.1375  -17.9299   17.5097 N   0  0  0  0  0  0  0  0  0  0  0  0
  -24.8288  -14.0484   17.5335 N   0  0  0  0  0  0  0  0  0  0  0  0
  -20.8713  -27.3508   21.2917 N   0  0  0  0  0  0  0  0  0  0  0  0
  -23.8393  -23.8079   16.6361 N   0  0  0  0  0  0  0  0  0  0  0  0
  -25.8633  -24.8365   13.8231 N   0  3  0  0  0  0  0  0  0  0  0  0
  -26.0291  -15.4929   16.2177 O   0  0  0  0  0  0  0  0  0  0  0  0
  -30.9520  -19.9025   19.8431 O   0  0  0  0  0  0  0  0  0  0  0  0
  -22.9562  -26.3723   21.6354 O   0  0  0  0  0  0  0  0  0  0  0  0
  -21.6127  -25.0277   17.9640 O   0  0  0  0  0  0  0  0  0  0  0  0
  -26.0981  -24.3290   16.5806 O   0  0  0  0  0  0  0  0  0  0  0  0
  -22.3561  -11.7143   21.9463 O   0  0  0  0  0  0  0  0  0  0  0  0
  -28.5080  -28.9136   20.9994 O   0  0  0  0  0  0  0  0  0  1  0  0
  -23.7522   -6.5753   20.5158 F   0  0  0  0  0  0  0  0  0  0  0  0
  -23.1067   -9.8641   23.8584 F   0  0  0  0  0  0  0  0  0  0  0  0
  1  2  1  0  0  0  0
  1  5  2  0  0  0  0
  2  6  2  0  0  0  0
  3  8  2  0  0  0  0
  3 17  1  0  0  0  0
  4  9  1  0  0  0  0
  4 17  2  0  0  0  0
  5 20  1  0  0  0  0
  6 22  1  0  0  0  0
  7 10  2  0  0  0  0
  7 21  1  0  0  0  0
  8 27  1  0  0  0  0
  9 27  2  0  0  0  0
 10 28  1  0  0  0  0
 11 12  2  0  0  0  0
 11 29  1  0  0  0  0
 12 30  1  0  0  0  0
 13 18  1  0  0  0  0
 13 24  2  0  0  0  0
 14 18  2  0  0  0  0
 14 25  1  0  0  0  0
 15 23  1  0  0  0  0
 15 28  2  0  0  0  0
 16 30  2  0  0  0  0
 16 31  1  0  0  0  0
 17 32  1  0  0  0  0
 18 34  1  0  0  0  0
 19 32  1  0  0  0  0
 19 33  2  0  0  0  0
 19 36  1  0  0  0  0
 20 22  2  0  0  0  0
 20 41  1  0  0  0  0
 21 23  2  0  0  0  0
 21 42  1  0  0  0  0
 22 50  1  0  0  0  0
 23 43  1  0  0  0  0
 24 26  1  0  0  0  0
 24 53  1  0  0  0  0
 25 26  2  0  0  0  0
 25 60  1  0  0  0  0
 26 61  1  0  0  0  0
 27 81  1  0  0  0  0
 28 82  1  0  0  0  0
 29 31  2  0  0  0  0
 29 81  1  0  0  0  0
 30 83  1  0  0  0  0
 31 84  1  0  0  0  0
 32 67  2  0  0  0  0
 33 68  1  0  0  0  0
 33 71  1  0  0  0  0
 34 35  2  0  0  0  0
 35 37  1  0  0  0  0
 36 72  1  0  0  0  0
 36 76  2  0  0  0  0
 37 69  1  0  0  0  0
 37 77  2  0  0  0  0
 38 51  1  0  0  0  0
 38 73  1  0  0  0  0
 38 78  2  0  0  0  0
 39 64  1  0  0  0  0
 39 70  1  0  0  0  0
 39 79  2  0  0  0  0
 40 65  1  0  0  0  0
 40 74  1  0  0  0  0
 40 80  2  0  0  0  0
 41 44  1  0  0  0  0
 42 51  1  0  0  0  0
 43 70  1  0  0  0  0
 44 46  1  0  0  0  0
 45 47  1  0  0  0  0
 45 48  1  0  0  0  0
 46 50  1  0  0  0  0
 47 52  1  0  0  0  0
 48 69  1  0  0  0  0
 49 52  1  0  0  0  0
 49 69  1  0  0  0  0
 50 73  1  0  0  0  0
 51 70  1  0  0  0  0
 52 68  1  0  0  0  0
 54 61  1  0  0  0  0
 55 65  1  0  0  0  0
 56 66  1  0  0  0  0
 57 66  1  0  0  0  0
 58 66  1  0  0  0  0
 59 75  1  0  0  0  0
 60 62  1  0  0  0  0
 62 63  1  0  0  0  0
 63 82  1  0  0  0  0
 64 66  1  0  0  0  0
 64 74  1  0  0  0  0
 65 75  1  0  0  0  0
 67 68  1  0  0  0  0
M  CHG  1  75   1
M  ISO  4  35 100  37 100  63 101  82 101
M  END
> <Batch ID>
0129

> <Smiles>
CCc1c(C)cc(C=[100CH:0][100C:0](=O)N2CCCC(n3nc(-c4ccc(Oc5ccc(F)cc5F)cc4)c(C(N)=O)c3N)C2)cc1CC[101CH2:1][101O:1]c1ccc2c(c1)CN(C(=O)C(NC(=O)C(C)NC)C(C)(C)C)C(C(=O)NC1CCCc3ccccc31)C2

> <Shape>
0.233

> <Color>
0.059

> <Negative vol penalty>
0.000

$$$$

  -OEChem-04052302193D

 86 94  0     1  0  0  0  0  0999 V2000
  -35.3906  -26.5437   14.3956 C   0  0  0  0  0  0  0  0  0  0  0  0
  -35.0161  -26.0995   15.6596 C   0  0  0  0  0  0  0  0  0  0  0  0
  -23.0724   -9.8730   19.9378 C   0  0  0  0  0  0  0  0  0  0  0  0
  -23.8379   -9.8688   22.2294 C   0  0  0  0  0  0  0  0  0  0  0  0
  -34.6553  -27.5458   13.7639 C   0  0  0  0  0  0  0  0  0  0  0  0
  -33.9066  -26.6580   16.2933 C   0  0  0  0  0  0  0  0  0  0  0  0
  -30.9191  -23.1639   18.4172 C   0  0  0  0  0  0  0  0  0  0  0  0
  -32.6828  -17.4516   23.4431 C   0  0  0  0  0  0  0  0  0  0  0  0
  -32.0738  -16.5793   22.5410 C   0  0  0  0  0  0  0  0  0  0  0  0
  -22.3280   -8.7194   20.1844 C   0  0  0  0  0  0  0  0  0  0  0  0
  -23.0935   -8.7153   22.4759 C   0  0  0  0  0  0  0  0  0  0  0  0
  -31.3344  -22.6260   19.6345 C   0  0  0  0  0  0  0  0  0  0  0  0
  -21.1092   -5.9740   23.8049 C   0  0  0  0  0  0  0  0  0  0  0  0
  -20.3557   -5.9258   24.9777 C   0  0  0  0  0  0  0  0  0  0  0  0
  -29.8154  -24.0967   20.7958 C   0  0  0  0  0  0  0  0  0  0  0  0
  -30.5163  -18.3217   24.0645 C   0  0  0  0  0  0  0  0  0  0  0  0
  -19.1112   -7.8675   24.2580 C   0  0  0  0  0  0  0  0  0  0  0  0
  -23.8274  -10.4477   20.9603 C   0  0  0  0  0  0  0  0  0  0  0  0
  -24.1713  -12.9730   20.8509 C   0  0  0  0  0  0  0  0  0  0  0  0
  -33.5305  -28.1101   14.3860 C   0  0  0  0  0  0  0  0  0  0  0  0
  -29.9551  -24.1817   18.3807 C   0  0  0  0  0  0  0  0  0  0  0  0
  -33.1563  -27.6696   15.6699 C   0  0  0  0  0  0  0  0  0  0  0  0
  -29.3877  -24.6441   19.5766 C   0  0  0  0  0  0  0  0  0  0  0  0
  -31.9041  -18.3228   24.2049 C   0  0  0  0  0  0  0  0  0  0  0  0
  -29.9073  -17.4495   23.1623 C   0  0  0  0  0  0  0  0  0  0  0  0
  -30.6860  -16.5783   22.4005 C   0  0  0  0  0  0  0  0  0  0  0  0
  -22.3385   -8.1406   21.4534 C   0  0  0  0  0  0  0  0  0  0  0  0
  -30.7847  -23.0943   20.8242 C   0  0  0  0  0  0  0  0  0  0  0  0
  -20.8638   -6.9690   22.8586 C   0  0  0  0  0  0  0  0  0  0  0  0
  -19.3567   -6.8725   25.2043 C   0  0  0  0  0  0  0  0  0  0  0  0
  -19.8648   -7.9157   23.0852 C   0  0  0  0  0  0  0  0  0  0  0  0
  -24.5969  -11.6390   20.7061 C   0  0  0  0  0  0  0  0  0  0  0  0
  -25.2632  -13.7231   20.4884 C   0  0  0  0  0  0  0  0  0  0  0  0
  -32.0550  -21.6347   24.6364 C   0  0  0  0  0  0  0  0  0  0  0  0
  -22.9023  -13.4881   21.2753 C   0  0  0  0  0  0  0  0  0  0  0  0
  -32.9298  -20.6104   24.5714 C   0  0  0  0  0  0  0  0  0  0  0  0
  -29.9148  -27.1983   17.3797 C   0  0  0  0  0  0  0  0  0  0  0  0
  -26.7547  -26.9788   18.0782 C   0  0  0  0  0  0  0  0  0  0  0  0
  -24.2814  -25.4456   19.8611 C   0  0  0  0  0  0  0  0  0  0  0  0
  -30.7308  -14.7628   20.6546 C   0  0  0  0  0  0  0  0  0  0  0  0
  -32.7949  -29.2239   13.6838 C   0  0  0  0  0  0  0  0  0  0  0  0
  -29.4983  -24.7328   17.0578 C   0  0  0  0  0  0  0  0  0  0  0  0
  -28.3348  -25.7210   19.5904 C   0  0  0  0  0  0  0  0  0  0  0  0
  -31.4107  -29.5008   14.2648 C   0  0  0  0  0  0  0  0  0  0  0  0
  -29.6084  -12.3608   18.2781 C   0  0  0  0  0  0  0  0  0  0  0  0
  -31.4744  -29.5677   15.7874 C   0  0  0  0  0  0  0  0  0  0  0  0
  -28.1695  -12.0687   18.7098 C   0  0  0  0  0  0  0  0  0  0  0  0
  -30.5266  -12.5833   19.4785 C   0  0  0  0  0  0  0  0  0  0  0  0
  -28.6237  -13.3033   20.8677 C   0  0  0  0  0  0  0  0  0  0  0  0
  -31.9442  -28.2333   16.3791 C   0  0  1  0  0  0  0  0  0  0  0  0
  -28.8845  -26.1249   17.1703 C   0  0  1  0  0  0  0  0  0  0  0  0
  -27.6479  -13.1363   19.6915 C   0  0  2  0  0  0  0  0  0  0  0  0
  -27.9615  -18.2023   21.7716 C   0  0  0  0  0  0  0  0  0  0  0  0
  -35.3694  -21.1406   24.9075 C   0  0  0  0  0  0  0  0  0  0  0  0
  -21.8027  -25.5094   20.2481 C   0  0  0  0  0  0  0  0  0  0  0  0
  -27.0907  -29.4730   19.8034 C   0  0  0  0  0  0  0  0  0  0  0  0
  -24.8960  -28.9374   20.8824 C   0  0  0  0  0  0  0  0  0  0  0  0
  -24.9962  -29.4235   18.4378 C   0  0  0  0  0  0  0  0  0  0  0  0
  -23.9400  -22.6738   18.8816 C   0  0  0  0  0  0  0  0  0  0  0  0
  -32.5640  -19.2690   25.1801 C   0  0  0  0  0  0  0  0  0  0  0  0
  -28.4188  -17.4722   23.0304 C   0  0  0  0  0  0  0  0  0  0  0  0
  -32.2432  -23.0398   24.1330 C   0  0  0  0  0  0  0  0  0  0  0  0
  -34.2936  -20.7060   23.9226 C   0  0  0  0  0  0  0  0  0  0  0  0
  -31.1475  -23.4339   23.1500 C   0  0  0  0  0  0  0  0  0  1  0  0
  -25.9107  -27.2315   19.3041 C   0  0  1  0  0  0  0  0  0  0  0  0
  -22.9327  -24.8900   19.4405 C   0  0  2  0  0  0  0  0  0  0  0  0
  -25.7446  -28.7474   19.6071 C   0  0  0  0  0  0  0  0  0  0  0  0
  -25.8607  -11.5439   20.2843 N   0  0  0  0  0  0  0  0  0  0  0  0
  -26.2385  -12.8277   20.1609 N   0  0  0  0  0  0  0  0  0  0  0  0
  -27.9258  -26.2325   18.2719 N   0  0  0  0  0  0  0  0  0  0  0  0
  -29.9708  -13.6107   20.3619 N   0  0  0  0  0  0  0  0  0  0  0  0
  -25.4747  -15.0547   20.4209 N   0  0  0  0  0  0  0  0  0  0  0  0
  -21.8903  -12.5784   21.6109 N   0  0  0  0  0  0  0  0  0  0  0  0
  -30.0863  -15.6847   21.4787 N   0  0  0  0  0  0  0  0  0  0  0  0
  -30.8631  -27.2712   16.3773 N   0  0  0  0  0  0  0  0  0  0  0  0
  -24.6533  -26.5243   19.0869 N   0  0  0  0  0  0  0  0  0  0  0  0
  -22.8966  -23.4133   19.6375 N   0  3  0  0  0  0  0  0  0  0  0  0
  -22.6673  -14.7187   21.3388 O   0  0  0  0  0  0  0  0  0  0  0  0
  -29.8531  -27.9089   18.3762 O   0  0  0  0  0  0  0  0  0  0  0  0
  -26.3848  -27.4210   16.9877 O   0  0  0  0  0  0  0  0  0  0  0  0
  -24.9374  -24.9725   20.7865 O   0  0  0  0  0  0  0  0  0  0  0  0
  -31.8589  -14.9326   20.1850 O   0  0  0  0  0  0  0  0  0  0  0  0
  -21.6121   -7.0150   21.6944 O   0  0  0  0  0  0  0  0  0  0  0  0
  -31.1888  -22.5714   22.0138 O   0  0  0  0  0  0  0  0  0  1  0  0
  -18.6322   -6.8252   26.3299 F   0  0  0  0  0  0  0  0  0  0  0  0
  -19.6235   -8.8733   22.1792 F   0  0  0  0  0  0  0  0  0  0  0  0
  1  2  1  0  0  0  0
  1  5  2  0  0  0  0
  2  6  2  0  0  0  0
  3 10  2  0  0  0  0
  3 18  1  0  0  0  0
  4 11  1  0  0  0  0
  4 18  2  0  0  0  0
  5 20  1  0  0  0  0
  6 22  1  0  0  0  0
  7 12  2  0  0  0  0
  7 21  1  0  0  0  0
  8  9  2  0  0  0  0
  8 24  1  0  0  0  0
  9 26  1  0  0  0  0
 10 27  1  0  0  0  0
 11 27  2  0  0  0  0
 12 28  1  0  0  0  0
 13 14  2  0  0  0  0
 13 29  1  0  0  0  0
 14 30  1  0  0  0  0
 15 23  1  0  0  0  0
 15 28  2  0  0  0  0
 16 24  2  0  0  0  0
 16 25  1  0  0  0  0
 17 30  2  0  0  0  0
 17 31  1  0  0  0  0
 18 32  1  0  0  0  0
 19 32  1  0  0  0  0
 19 33  2  0  0  0  0
 19 35  1  0  0  0  0
 20 22  2  0  0  0  0
 20 41  1  0  0  0  0
 21 23  2  0  0  0  0
 21 42  1  0  0  0  0
 22 50  1  0  0  0  0
 23 43  1  0  0  0  0
 24 60  1  0  0  0  0
 25 26  2  0  0  0  0
 25 61  1  0  0  0  0
 26 74  1  0  0  0  0
 27 83  1  0  0  0  0
 28 84  1  0  0  0  0
 29 31  2  0  0  0  0
 29 83  1  0  0  0  0
 30 85  1  0  0  0  0
 31 86  1  0  0  0  0
 32 68  2  0  0  0  0
 33 69  1  0  0  0  0
 33 72  1  0  0  0  0
 34 36  2  0  0  0  0
 34 62  1  0  0  0  0
 35 73  1  0  0  0  0
 35 78  2  0  0  0  0
 36 60  1  0  0  0  0
 36 63  1  0  0  0  0
 37 51  1  0  0  0  0
 37 75  1  0  0  0  0
 37 79  2  0  0  0  0
 38 65  1  0  0  0  0
 38 70  1  0  0  0  0
 38 80  2  0  0  0  0
 39 66  1  0  0  0  0
 39 76  1  0  0  0  0
 39 81  2  0  0  0  0
 40 71  1  0  0  0  0
 40 74  1  0  0  0  0
 40 82  2  0  0  0  0
 41 44  1  0  0  0  0
 42 51  1  0  0  0  0
 43 70  1  0  0  0  0
 44 46  1  0  0  0  0
 45 47  1  0  0  0  0
 45 48  1  0  0  0  0
 46 50  1  0  0  0  0
 47 52  1  0  0  0  0
 48 71  1  0  0  0  0
 49 52  1  0  0  0  0
 49 71  1  0  0  0  0
 50 75  1  0  0  0  0
 51 70  1  0  0  0  0
 52 69  1  0  0  0  0
 53 61  1  0  0  0  0
 54 63  1  0  0  0  0
 55 66  1  0  0  0  0
 56 67  1  0  0  0  0
 57 67  1  0  0  0  0
 58 67  1  0  0  0  0
 59 77  1  0  0  0  0
 62 64  1  0  0  0  0
 64 84  1  0  0  0  0
 65 67  1  0  0  0  0
 65 76  1  0  0  0  0
 66 77  1  0  0  0  0
 68 69  1  0  0  0  0
M  CHG  1  77   1
M  ISO  4  40 100  64 101  74 100  84 101
M  END
> <Batch ID>
0129

> <Smiles>
CCC(=CC[101CH2:1][101O:1]c1ccc2c(c1)CN(C(=O)C(NC(=O)C(C)NC)C(C)(C)C)C(C(=O)NC1CCCc3ccccc31)C2)Cc1ccc([100NH:0][100C:0](=O)N2CCCC(n3nc(-c4ccc(Oc5ccc(F)cc5F)cc4)c(C(N)=O)c3N)C2)c(CC)c1

> <Shape>
0.251

> <Color>
0.192

> <Negative vol penalty>
0.000

$$$$

  -OEChem-04052302193D

 84 92  0     1  0  0  0  0  0999 V2000
  -33.3213  -35.2393   25.0278 C   0  0  0  0  0  0  0  0  0  0  0  0
  -32.9751  -33.9007   24.8740 C   0  0  0  0  0  0  0  0  0  0  0  0
  -23.1141   -9.8305   19.9888 C   0  0  0  0  0  0  0  0  0  0  0  0
  -23.8611   -9.9467   22.2834 C   0  0  0  0  0  0  0  0  0  0  0  0
  -32.5348  -36.2329   24.4463 C   0  0  0  0  0  0  0  0  0  0  0  0
  -31.8414  -33.5550   24.1394 C   0  0  0  0  0  0  0  0  0  0  0  0
  -31.1131  -28.6076   20.6040 C   0  0  0  0  0  0  0  0  0  0  0  0
  -30.5477  -17.9936   24.0803 C   0  0  0  0  0  0  0  0  0  0  0  0
  -29.9940  -18.9859   24.8892 C   0  0  0  0  0  0  0  0  0  0  0  0
  -22.3913   -8.6742   20.2826 C   0  0  0  0  0  0  0  0  0  0  0  0
  -23.1383   -8.7904   22.5773 C   0  0  0  0  0  0  0  0  0  0  0  0
  -30.4982  -27.3767   20.8284 C   0  0  0  0  0  0  0  0  0  0  0  0
  -19.9230   -7.9550   23.1970 C   0  0  0  0  0  0  0  0  0  0  0  0
  -19.1605   -7.9484   24.3650 C   0  0  0  0  0  0  0  0  0  0  0  0
  -28.4864  -28.1975   19.7804 C   0  0  0  0  0  0  0  0  0  0  0  0
  -29.7245  -19.1349   22.1164 C   0  0  0  0  0  0  0  0  0  0  0  0
  -20.4352   -6.0676   25.1866 C   0  0  0  0  0  0  0  0  0  0  0  0
  -23.8490  -10.4667   20.9892 C   0  0  0  0  0  0  0  0  0  0  0  0
  -24.1425  -12.9910   20.7668 C   0  0  0  0  0  0  0  0  0  0  0  0
  -31.3963  -35.8986   23.6960 C   0  0  0  0  0  0  0  0  0  0  0  0
  -30.4146  -29.6481   19.9748 C   0  0  0  0  0  0  0  0  0  0  0  0
  -31.0382  -34.5450   23.5484 C   0  0  0  0  0  0  0  0  0  0  0  0
  -29.0956  -29.4398   19.5468 C   0  0  0  0  0  0  0  0  0  0  0  0
  -30.4130  -18.0681   22.6939 C   0  0  0  0  0  0  0  0  0  0  0  0
  -29.3055  -20.0527   24.3117 C   0  0  0  0  0  0  0  0  0  0  0  0
  -29.1707  -20.1273   22.9253 C   0  0  0  0  0  0  0  0  0  0  0  0
  -22.4034   -8.1542   21.5768 C   0  0  0  0  0  0  0  0  0  0  0  0
  -29.1837  -27.1724   20.4191 C   0  0  0  0  0  0  0  0  0  0  0  0
  -20.9415   -7.0178   23.0237 C   0  0  0  0  0  0  0  0  0  0  0  0
  -19.4166   -7.0048   25.3598 C   0  0  0  0  0  0  0  0  0  0  0  0
  -21.1976   -6.0742   24.0185 C   0  0  0  0  0  0  0  0  0  0  0  0
  -24.5962  -11.6608   20.6862 C   0  0  0  0  0  0  0  0  0  0  0  0
  -25.2218  -13.7462   20.3780 C   0  0  0  0  0  0  0  0  0  0  0  0
  -22.8599  -13.4986   21.1581 C   0  0  0  0  0  0  0  0  0  0  0  0
  -29.5105  -32.5757   20.8205 C   0  0  0  0  0  0  0  0  0  0  0  0
  -28.5400  -23.7014   21.4816 C   0  0  0  0  0  0  0  0  0  0  0  0
  -30.7053  -14.8174   20.6496 C   0  0  0  0  0  0  0  0  0  0  0  0
  -28.5712  -32.7595   17.7211 C   0  0  0  0  0  0  0  0  0  0  0  0
  -27.6064  -31.1257   14.8844 C   0  0  0  0  0  0  0  0  0  0  0  0
  -30.5507  -37.0097   23.1260 C   0  0  0  0  0  0  0  0  0  0  0  0
  -31.1010  -30.9612   19.7161 C   0  0  0  0  0  0  0  0  0  0  0  0
  -28.3088  -30.5179   18.8488 C   0  0  0  0  0  0  0  0  0  0  0  0
  -29.5757  -36.5417   22.0487 C   0  0  0  0  0  0  0  0  0  0  0  0
  -29.5989  -12.3979   18.2493 C   0  0  0  0  0  0  0  0  0  0  0  0
  -28.8458  -35.2808   22.5006 C   0  0  0  0  0  0  0  0  0  0  0  0
  -28.1724  -12.0774   18.6939 C   0  0  0  0  0  0  0  0  0  0  0  0
  -30.5087  -12.6677   19.4436 C   0  0  0  0  0  0  0  0  0  0  0  0
  -28.5838  -13.4219   20.8029 C   0  0  0  0  0  0  0  0  0  0  0  0
  -29.8298  -34.1289   22.7379 C   0  0  1  0  0  0  0  0  0  0  0  0
  -30.1251  -32.1186   19.5278 C   0  0  1  0  0  0  0  0  0  0  0  0
  -27.6246  -13.1730   19.6255 C   0  0  2  0  0  0  0  0  0  0  0  0
  -28.7202  -21.1026   25.1981 C   0  0  0  0  0  0  0  0  0  0  0  0
  -26.8663  -31.5466   12.5238 C   0  0  0  0  0  0  0  0  0  0  0  0
  -25.8165  -33.5913   18.7357 C   0  0  0  0  0  0  0  0  0  0  0  0
  -24.9004  -33.0742   16.4638 C   0  0  0  0  0  0  0  0  0  0  0  0
  -26.6192  -34.8615   16.7365 C   0  0  0  0  0  0  0  0  0  0  0  0
  -29.9142  -29.6427   13.7735 C   0  0  0  0  0  0  0  0  0  0  0  0
  -31.0047  -17.0068   21.8294 C   0  0  0  0  0  0  0  0  0  0  0  0
  -28.4295  -21.2723   22.2777 C   0  0  0  0  0  0  0  0  0  0  0  0
  -29.2557  -22.5565   22.1837 C   0  0  0  0  0  0  0  0  0  0  0  0
  -29.3538  -24.9664   21.2913 C   0  0  0  0  0  0  0  0  0  1  0  0
  -30.0529  -15.8370   21.5490 C   0  0  0  0  0  0  0  0  0  0  0  0
  -27.3032  -32.4385   16.9675 C   0  0  1  0  0  0  0  0  0  0  0  0
  -28.0486  -31.2696   13.4394 C   0  0  2  0  0  0  0  0  0  0  0  0
  -26.1737  -33.4715   17.2408 C   0  0  0  0  0  0  0  0  0  0  0  0
  -25.8650  -11.5727   20.2781 N   0  0  0  0  0  0  0  0  0  0  0  0
  -26.2176  -12.8570   20.0988 N   0  0  0  0  0  0  0  0  0  0  0  0
  -29.0217  -31.7863   18.6244 N   0  0  0  0  0  0  0  0  0  0  0  0
  -29.9425  -13.6981   20.3160 N   0  0  0  0  0  0  0  0  0  0  0  0
  -25.4068  -15.0774   20.2511 N   0  0  0  0  0  0  0  0  0  0  0  0
  -21.8640  -12.5844   21.5278 N   0  0  0  0  0  0  0  0  0  0  0  0
  -30.2406  -33.5474   21.4780 N   0  0  0  0  0  0  0  0  0  0  0  0
  -27.6810  -32.3237   15.5630 N   0  0  0  0  0  0  0  0  0  0  0  0
  -28.7194  -30.0220   12.9763 N   0  3  0  0  0  0  0  0  0  0  0  0
  -22.5995  -14.7257   21.1635 O   0  0  0  0  0  0  0  0  0  0  0  0
  -28.4516  -32.0843   21.1931 O   0  0  0  0  0  0  0  0  0  0  0  0
  -27.3886  -23.6045   21.0605 O   0  0  0  0  0  0  0  0  0  0  0  0
  -31.8574  -15.0132   20.2540 O   0  0  0  0  0  0  0  0  0  0  0  0
  -29.1450  -33.8310   17.5107 O   0  0  0  0  0  0  0  0  0  0  0  0
  -27.2289  -30.0582   15.3624 O   0  0  0  0  0  0  0  0  0  0  0  0
  -21.6981   -7.0261   21.8639 O   0  0  0  0  0  0  0  0  0  0  0  0
  -28.5808  -25.9721   20.6375 O   0  0  0  0  0  0  0  0  0  1  0  0
  -18.6854   -6.9996   26.4820 F   0  0  0  0  0  0  0  0  0  0  0  0
  -22.1756   -5.1721   23.8582 F   0  0  0  0  0  0  0  0  0  0  0  0
  1  2  1  0  0  0  0
  1  5  2  0  0  0  0
  2  6  2  0  0  0  0
  3 10  2  0  0  0  0
  3 18  1  0  0  0  0
  4 11  1  0  0  0  0
  4 18  2  0  0  0  0
  5 20  1  0  0  0  0
  6 22  1  0  0  0  0
  7 12  2  0  0  0  0
  7 21  1  0  0  0  0
  8  9  2  0  0  0  0
  8 24  1  0  0  0  0
  9 25  1  0  0  0  0
 10 27  1  0  0  0  0
 11 27  2  0  0  0  0
 12 28  1  0  0  0  0
 13 14  2  0  0  0  0
 13 29  1  0  0  0  0
 14 30  1  0  0  0  0
 15 23  1  0  0  0  0
 15 28  2  0  0  0  0
 16 24  2  0  0  0  0
 16 26  1  0  0  0  0
 17 30  2  0  0  0  0
 17 31  1  0  0  0  0
 18 32  1  0  0  0  0
 19 32  1  0  0  0  0
 19 33  2  0  0  0  0
 19 34  1  0  0  0  0
 20 22  2  0  0  0  0
 20 40  1  0  0  0  0
 21 23  2  0  0  0  0
 21 41  1  0  0  0  0
 22 49  1  0  0  0  0
 23 42  1  0  0  0  0
 24 58  1  0  0  0  0
 25 26  2  0  0  0  0
 25 52  1  0  0  0  0
 26 59  1  0  0  0  0
 27 81  1  0  0  0  0
 28 82  1  0  0  0  0
 29 31  2  0  0  0  0
 29 81  1  0  0  0  0
 30 83  1  0  0  0  0
 31 84  1  0  0  0  0
 32 66  2  0  0  0  0
 33 67  1  0  0  0  0
 33 70  1  0  0  0  0
 34 71  1  0  0  0  0
 34 75  2  0  0  0  0
 35 50  1  0  0  0  0
 35 72  1  0  0  0  0
 35 76  2  0  0  0  0
 36 60  1  0  0  0  0
 36 61  1  0  0  0  0
 36 77  2  0  0  0  0
 37 62  1  0  0  0  0
 37 69  1  0  0  0  0
 37 78  2  0  0  0  0
 38 63  1  0  0  0  0
 38 68  1  0  0  0  0
 38 79  2  0  0  0  0
 39 64  1  0  0  0  0
 39 73  1  0  0  0  0
 39 80  2  0  0  0  0
 40 43  1  0  0  0  0
 41 50  1  0  0  0  0
 42 68  1  0  0  0  0
 43 45  1  0  0  0  0
 44 46  1  0  0  0  0
 44 47  1  0  0  0  0
 45 49  1  0  0  0  0
 46 51  1  0  0  0  0
 47 69  1  0  0  0  0
 48 51  1  0  0  0  0
 48 69  1  0  0  0  0
 49 72  1  0  0  0  0
 50 68  1  0  0  0  0
 51 67  1  0  0  0  0
 53 64  1  0  0  0  0
 54 65  1  0  0  0  0
 55 65  1  0  0  0  0
 56 65  1  0  0  0  0
 57 74  1  0  0  0  0
 58 62  1  0  0  0  0
 59 60  1  0  0  0  0
 61 82  1  0  0  0  0
 63 65  1  0  0  0  0
 63 73  1  0  0  0  0
 64 74  1  0  0  0  0
 66 67  1  0  0  0  0
M  CHG  1  74   1
M  ISO  4  37 100  61 101  62 100  82 101
M  END
> <Batch ID>
0129

> <Smiles>
CNC(C)C(=O)NC(C(=O)N1Cc2cc([101O:1][101CH2:1]C(=O)CCc3cc(C[100CH2:0][100C:0](=O)N4CCCC(n5nc(-c6ccc(Oc7ccc(F)cc7F)cc6)c(C(N)=O)c5N)C4)ccc3C)ccc2CC1C(=O)NC1CCCc2ccccc21)C(C)(C)C

> <Shape>
0.212

> <Color>
0.206

> <Negative vol penalty>
0.000

$$$$

  -OEChem-04052302193D

 84 93  0     1  0  0  0  0  0999 V2000
  -28.2126  -33.0891   26.5977 C   0  0  0  0  0  0  0  0  0  0  0  0
  -28.3026  -31.9299   25.8338 C   0  0  0  0  0  0  0  0  0  0  0  0
  -24.4942   -9.1214   22.6480 C   0  0  0  0  0  0  0  0  0  0  0  0
  -24.7434   -8.7082   20.2807 C   0  0  0  0  0  0  0  0  0  0  0  0
  -28.5275  -20.0391   17.8289 C   0  0  0  0  0  0  0  0  0  0  0  0
  -26.9625  -33.5842   26.9666 C   0  0  0  0  0  0  0  0  0  0  0  0
  -27.1424  -31.2645   25.4392 C   0  0  0  0  0  0  0  0  0  0  0  0
  -28.9985  -21.2248   17.2665 C   0  0  0  0  0  0  0  0  0  0  0  0
  -27.2676  -29.8593   20.5755 C   0  0  0  0  0  0  0  0  0  0  0  0
  -23.3033   -8.3952   22.6494 C   0  0  0  0  0  0  0  0  0  0  0  0
  -23.5525   -7.9819   20.2821 C   0  0  0  0  0  0  0  0  0  0  0  0
  -28.0162  -28.7266   20.2591 C   0  0  0  0  0  0  0  0  0  0  0  0
  -22.3670   -5.1462   22.6607 C   0  0  0  0  0  0  0  0  0  0  0  0
  -22.1700   -4.2260   23.6903 C   0  0  0  0  0  0  0  0  0  0  0  0
  -29.4299  -20.7045   19.9618 C   0  0  0  0  0  0  0  0  0  0  0  0
  -25.9937  -27.4130   20.2029 C   0  0  0  0  0  0  0  0  0  0  0  0
  -20.1872   -5.4220   24.3799 C   0  0  0  0  0  0  0  0  0  0  0  0
  -25.2142   -9.2779   21.4636 C   0  0  0  0  0  0  0  0  0  0  0  0
  -28.7431  -19.7789   19.1771 C   0  0  0  0  0  0  0  0  0  0  0  0
  -27.6084   -9.7548   22.2041 C   0  0  0  0  0  0  0  0  0  0  0  0
  -25.7862  -32.9299   26.5681 C   0  0  0  0  0  0  0  0  0  0  0  0
  -29.6898  -22.1683   18.0455 C   0  0  0  0  0  0  0  0  0  0  0  0
  -25.8752  -29.7750   20.7190 C   0  0  0  0  0  0  0  0  0  0  0  0
  -25.8754  -31.7506   25.8042 C   0  0  0  0  0  0  0  0  0  0  0  0
  -29.9084  -21.9048   19.4095 C   0  0  0  0  0  0  0  0  0  0  0  0
  -25.2294  -28.5466   20.5187 C   0  0  0  0  0  0  0  0  0  0  0  0
  -22.8325   -7.8255   21.4665 C   0  0  0  0  0  0  0  0  0  0  0  0
  -27.3797  -27.5026   20.0756 C   0  0  0  0  0  0  0  0  0  0  0  0
  -21.4741   -6.2043   22.4907 C   0  0  0  0  0  0  0  0  0  0  0  0
  -21.0802   -4.3639   24.5499 C   0  0  0  0  0  0  0  0  0  0  0  0
  -20.3842   -6.3422   23.3503 C   0  0  0  0  0  0  0  0  0  0  0  0
  -26.4442  -10.0284   21.4614 C   0  0  0  0  0  0  0  0  0  0  0  0
  -28.4834  -10.7528   21.8511 C   0  0  0  0  0  0  0  0  0  0  0  0
  -28.2545  -18.5428   19.7672 C   0  0  0  0  0  0  0  0  0  0  0  0
  -27.9304  -17.4235   19.0851 C   0  0  0  0  0  0  0  0  0  0  0  0
  -27.8750   -8.6932   23.1303 C   0  0  0  0  0  0  0  0  0  0  0  0
  -27.4562  -16.2410   19.8317 C   0  0  0  0  0  0  0  0  0  0  0  0
  -23.8307  -30.2819   23.0995 C   0  0  0  0  0  0  0  0  0  0  0  0
  -21.6146  -29.7669   20.7874 C   0  0  0  0  0  0  0  0  0  0  0  0
  -20.8441  -28.3622   17.7741 C   0  0  0  0  0  0  0  0  0  0  0  0
  -24.4590  -33.4767   27.0310 C   0  0  0  0  0  0  0  0  0  0  0  0
  -30.1866  -23.4356   17.3969 C   0  0  0  0  0  0  0  0  0  0  0  0
  -25.0791  -31.0117   21.0343 C   0  0  0  0  0  0  0  0  0  0  0  0
  -30.6513  -22.8758   20.2918 C   0  0  0  0  0  0  0  0  0  0  0  0
  -23.7348  -28.4072   20.6414 C   0  0  0  0  0  0  0  0  0  0  0  0
  -23.2673  -32.9203   26.2560 C   0  0  0  0  0  0  0  0  0  0  0  0
  -29.5248  -24.6956   17.9563 C   0  0  0  0  0  0  0  0  0  0  0  0
  -29.9270  -24.2125   20.4573 C   0  0  0  0  0  0  0  0  0  0  0  0
  -29.5707  -13.6951   18.2572 C   0  0  0  0  0  0  0  0  0  0  0  0
  -23.3800  -31.4053   26.1190 C   0  0  0  0  0  0  0  0  0  0  0  0
  -29.0696  -12.4293   18.9475 C   0  0  0  0  0  0  0  0  0  0  0  0
  -28.4505  -14.7125   18.0454 C   0  0  0  0  0  0  0  0  0  0  0  0
  -27.2152  -13.7934   19.9869 C   0  0  0  0  0  0  0  0  0  0  0  0
  -24.6391  -31.0143   25.3358 C   0  0  1  0  0  0  0  0  0  0  0  0
  -23.7227  -30.7052   21.6619 C   0  0  1  0  0  0  0  0  0  0  0  0
  -30.1259  -25.1871   19.2841 C   0  0  2  0  0  0  0  0  0  0  0  0
  -28.3351  -12.7753   20.2524 C   0  0  1  0  0  0  0  0  0  0  0  0
  -18.9425  -28.0791   16.1613 C   0  0  0  0  0  0  0  0  0  0  0  0
  -20.3853  -27.6523   22.6116 C   0  0  0  0  0  0  0  0  0  0  0  0
  -19.1348  -26.7701   20.6302 C   0  0  0  0  0  0  0  0  0  0  0  0
  -18.7257  -29.0989   21.4252 C   0  0  0  0  0  0  0  0  0  0  0  0
  -22.3007  -29.7860   15.6270 C   0  0  0  0  0  0  0  0  0  0  0  0
  -29.5142  -26.5463   19.6452 C   0  0  0  0  0  0  0  0  0  1  0  0
  -20.8954  -28.5546   20.2469 C   0  0  1  0  0  0  0  0  0  0  0  0
  -20.1452  -28.9250   16.5497 C   0  0  2  0  0  0  0  0  0  0  0  0
  -19.8137  -28.0209   21.2280 C   0  0  0  0  0  0  0  0  0  0  0  0
  -26.5654  -11.1153   20.6946 N   0  0  0  0  0  0  0  0  0  0  0  0
  -27.8160  -11.5335   20.9536 N   0  0  0  0  0  0  0  0  0  0  0  0
  -27.7254  -14.9829   19.2959 N   0  0  0  0  0  0  0  0  0  0  0  0
  -23.0009  -29.6437   20.9573 N   0  0  0  0  0  0  0  0  0  0  0  0
  -29.7509  -11.0302   22.2239 N   0  0  0  0  0  0  0  0  0  0  0  0
  -28.4235   -7.5005   22.6396 N   0  0  0  0  0  0  0  0  0  0  0  0
  -24.4354  -31.2172   23.9175 N   0  0  0  0  0  0  0  0  0  0  0  0
  -20.3780  -28.9370   18.9376 N   0  0  0  0  0  0  0  0  0  0  0  0
  -21.0829  -28.9682   15.3922 N   0  3  0  0  0  0  0  0  0  0  0  0
  -27.6187   -8.7933   24.3541 O   0  0  0  0  0  0  0  0  0  0  0  0
  -26.8453  -16.4399   20.8834 O   0  0  0  0  0  0  0  0  0  0  0  0
  -23.3962  -29.1884   23.4417 O   0  0  0  0  0  0  0  0  0  0  0  0
  -20.9711  -30.7879   21.0426 O   0  0  0  0  0  0  0  0  0  0  0  0
  -21.7137  -27.4964   17.7056 O   0  0  0  0  0  0  0  0  0  0  0  0
  -21.6705   -7.1166   21.4676 O   0  0  0  0  0  0  0  0  0  0  0  0
  -28.1153  -26.3843   19.7643 O   0  0  0  0  0  0  0  0  0  1  0  0
  -20.8903   -3.4793   25.5376 F   0  0  0  0  0  0  0  0  0  0  0  0
  -19.5224   -7.3560   23.1912 F   0  0  0  0  0  0  0  0  0  0  0  0
  1  2  1  0  0  0  0
  1  6  2  0  0  0  0
  2  7  2  0  0  0  0
  3 10  2  0  0  0  0
  3 18  1  0  0  0  0
  4 11  1  0  0  0  0
  4 18  2  0  0  0  0
  5  8  2  0  0  0  0
  5 19  1  0  0  0  0
  6 21  1  0  0  0  0
  7 24  1  0  0  0  0
  8 22  1  0  0  0  0
  9 12  2  0  0  0  0
  9 23  1  0  0  0  0
 10 27  1  0  0  0  0
 11 27  2  0  0  0  0
 12 28  1  0  0  0  0
 13 14  2  0  0  0  0
 13 29  1  0  0  0  0
 14 30  1  0  0  0  0
 15 19  2  0  0  0  0
 15 25  1  0  0  0  0
 16 26  1  0  0  0  0
 16 28  2  0  0  0  0
 17 30  2  0  0  0  0
 17 31  1  0  0  0  0
 18 32  1  0  0  0  0
 19 34  1  0  0  0  0
 20 32  1  0  0  0  0
 20 33  2  0  0  0  0
 20 36  1  0  0  0  0
 21 24  2  0  0  0  0
 21 41  1  0  0  0  0
 22 25  2  0  0  0  0
 22 42  1  0  0  0  0
 23 26  2  0  0  0  0
 23 43  1  0  0  0  0
 24 54  1  0  0  0  0
 25 44  1  0  0  0  0
 26 45  1  0  0  0  0
 27 81  1  0  0  0  0
 28 82  1  0  0  0  0
 29 31  2  0  0  0  0
 29 81  1  0  0  0  0
 30 83  1  0  0  0  0
 31 84  1  0  0  0  0
 32 67  2  0  0  0  0
 33 68  1  0  0  0  0
 33 71  1  0  0  0  0
 34 35  2  0  0  0  0
 35 37  1  0  0  0  0
 36 72  1  0  0  0  0
 36 76  2  0  0  0  0
 37 69  1  0  0  0  0
 37 77  2  0  0  0  0
 38 55  1  0  0  0  0
 38 73  1  0  0  0  0
 38 78  2  0  0  0  0
 39 64  1  0  0  0  0
 39 70  1  0  0  0  0
 39 79  2  0  0  0  0
 40 65  1  0  0  0  0
 40 74  1  0  0  0  0
 40 80  2  0  0  0  0
 41 46  1  0  0  0  0
 42 47  1  0  0  0  0
 43 55  1  0  0  0  0
 44 48  1  0  0  0  0
 45 70  1  0  0  0  0
 46 50  1  0  0  0  0
 47 56  1  0  0  0  0
 48 56  1  0  0  0  0
 49 51  1  0  0  0  0
 49 52  1  0  0  0  0
 50 54  1  0  0  0  0
 51 57  1  0  0  0  0
 52 69  1  0  0  0  0
 53 57  1  0  0  0  0
 53 69  1  0  0  0  0
 54 73  1  0  0  0  0
 55 70  1  0  0  0  0
 56 63  1  0  0  0  0
 57 68  1  0  0  0  0
 58 65  1  0  0  0  0
 59 66  1  0  0  0  0
 60 66  1  0  0  0  0
 61 66  1  0  0  0  0
 62 75  1  0  0  0  0
 63 82  1  0  0  0  0
 64 66  1  0  0  0  0
 64 74  1  0  0  0  0
 65 75  1  0  0  0  0
 67 68  1  0  0  0  0
M  CHG  1  75   1
M  ISO  4  35 100  37 100  63 101  82 101
M  END
> <Batch ID>
0129

> <Smiles>
CNC(C)C(=O)NC(C(=O)N1Cc2cc([101O:1][101CH2:1]C3CCc4ccc(C=[100CH:0][100C:0](=O)N5CCCC(n6nc(-c7ccc(Oc8ccc(F)cc8F)cc7)c(C(N)=O)c6N)C5)cc4CC3)ccc2CC1C(=O)NC1CCCc2ccccc21)C(C)(C)C

> <Shape>
0.341

> <Color>
0.119

> <Negative vol penalty>
0.000

$$$$

  -OEChem-04052302193D

 86 94  0     1  0  0  0  0  0999 V2000
  -21.1911  -29.7787   25.4397 C   0  0  0  0  0  0  0  0  0  0  0  0
  -22.2335  -29.0217   24.9147 C   0  0  0  0  0  0  0  0  0  0  0  0
  -23.1946   -9.8547   19.8931 C   0  0  0  0  0  0  0  0  0  0  0  0
  -24.1092   -9.7291   22.1258 C   0  0  0  0  0  0  0  0  0  0  0  0
  -19.9772  -29.8586   24.7584 C   0  0  0  0  0  0  0  0  0  0  0  0
  -22.0623  -28.3432   23.7085 C   0  0  0  0  0  0  0  0  0  0  0  0
  -26.0230  -28.8794   20.5987 C   0  0  0  0  0  0  0  0  0  0  0  0
  -22.5556   -8.6300   20.0859 C   0  0  0  0  0  0  0  0  0  0  0  0
  -23.4701   -8.5044   22.3187 C   0  0  0  0  0  0  0  0  0  0  0  0
  -27.1514  -28.1054   20.8656 C   0  0  0  0  0  0  0  0  0  0  0  0
  -21.7866   -5.5179   23.5290 C   0  0  0  0  0  0  0  0  0  0  0  0
  -21.1186   -5.3172   24.7369 C   0  0  0  0  0  0  0  0  0  0  0  0
  -26.4837  -26.5499   19.1470 C   0  0  0  0  0  0  0  0  0  0  0  0
  -29.2787  -19.5284   22.7119 C   0  0  0  0  0  0  0  0  0  0  0  0
  -30.7109  -18.1936   20.7245 C   0  0  0  0  0  0  0  0  0  0  0  0
  -19.6888   -7.2055   24.2598 C   0  0  0  0  0  0  0  0  0  0  0  0
  -23.9715  -10.4043   20.9130 C   0  0  0  0  0  0  0  0  0  0  0  0
  -24.1198  -12.9496   20.9963 C   0  0  0  0  0  0  0  0  0  0  0  0
  -19.7943  -29.1885   23.5385 C   0  0  0  0  0  0  0  0  0  0  0  0
  -25.1091  -28.4880   19.6097 C   0  0  0  0  0  0  0  0  0  0  0  0
  -20.8444  -28.4131   23.0110 C   0  0  0  0  0  0  0  0  0  0  0  0
  -25.3457  -27.3221   18.8677 C   0  0  0  0  0  0  0  0  0  0  0  0
  -30.0745  -20.2497   21.8220 C   0  0  0  0  0  0  0  0  0  0  0  0
  -29.1990  -18.1396   22.6082 C   0  0  0  0  0  0  0  0  0  0  0  0
  -30.7906  -19.5824   20.8283 C   0  0  0  0  0  0  0  0  0  0  0  0
  -29.9151  -17.4723   21.6145 C   0  0  0  0  0  0  0  0  0  0  0  0
  -22.6933   -7.9548   21.2987 C   0  0  0  0  0  0  0  0  0  0  0  0
  -27.3804  -26.9390   20.1417 C   0  0  0  0  0  0  0  0  0  0  0  0
  -21.4059   -6.5624   22.6865 C   0  0  0  0  0  0  0  0  0  0  0  0
  -20.0696   -6.1610   25.1023 C   0  0  0  0  0  0  0  0  0  0  0  0
  -20.3570   -7.4061   23.0519 C   0  0  0  0  0  0  0  0  0  0  0  0
  -24.6323  -11.6692   20.7142 C   0  0  0  0  0  0  0  0  0  0  0  0
  -25.1269  -13.8102   20.6332 C   0  0  0  0  0  0  0  0  0  0  0  0
  -22.8474  -13.3274   21.5383 C   0  0  0  0  0  0  0  0  0  0  0  0
  -22.0329  -27.6881   19.5883 C   0  0  0  0  0  0  0  0  0  0  0  0
  -29.2895  -24.0075   21.1008 C   0  0  0  0  0  0  0  0  0  0  0  0
  -22.4652  -27.6544   16.3736 C   0  0  0  0  0  0  0  0  0  0  0  0
  -24.6163  -27.3409   13.7427 C   0  0  0  0  0  0  0  0  0  0  0  0
  -30.5016  -15.2625   20.5565 C   0  0  0  0  0  0  0  0  0  0  0  0
  -18.4484  -29.2663   22.8622 C   0  0  0  0  0  0  0  0  0  0  0  0
  -23.9107  -29.3481   19.3156 C   0  0  0  0  0  0  0  0  0  0  0  0
  -24.4058  -26.8689   17.7815 C   0  0  0  0  0  0  0  0  0  0  0  0
  -18.4738  -28.8212   21.4023 C   0  0  0  0  0  0  0  0  0  0  0  0
  -29.4040  -12.9756   18.0580 C   0  0  0  0  0  0  0  0  0  0  0  0
  -19.2454  -27.5135   21.2561 C   0  0  0  0  0  0  0  0  0  0  0  0
  -28.0226  -12.5372   18.5495 C   0  0  0  0  0  0  0  0  0  0  0  0
  -30.3811  -13.1740   19.2154 C   0  0  0  0  0  0  0  0  0  0  0  0
  -28.5269  -13.6286   20.7725 C   0  0  0  0  0  0  0  0  0  0  0  0
  -20.7056  -27.6828   21.6928 C   0  0  1  0  0  0  0  0  0  0  0  0
  -22.7778  -28.5828   18.6385 C   0  0  1  0  0  0  0  0  0  0  0  0
  -27.4900  -13.4789   19.6473 C   0  0  2  0  0  0  0  0  0  0  0  0
  -28.3386  -17.3925   23.5749 C   0  0  0  0  0  0  0  0  0  0  0  0
  -34.0154  -20.9567   19.2107 C   0  0  0  0  0  0  0  0  0  0  0  0
  -24.6701  -27.3199   11.2339 C   0  0  0  0  0  0  0  0  0  0  0  0
  -21.3206  -24.8260   16.3751 C   0  0  0  0  0  0  0  0  0  0  0  0
  -22.2643  -24.5177   14.0767 C   0  0  0  0  0  0  0  0  0  0  0  0
  -20.5354  -26.2682   14.4887 C   0  0  0  0  0  0  0  0  0  0  0  0
  -26.3979  -29.7021   13.6456 C   0  0  0  0  0  0  0  0  0  0  0  0
  -30.1453  -21.7522   21.9541 C   0  0  0  0  0  0  0  0  0  0  0  0
  -31.6493  -20.3336   19.8646 C   0  0  0  0  0  0  0  0  0  0  0  0
  -29.2710  -22.4941   20.9413 C   0  0  0  0  0  0  0  0  0  0  0  0
  -28.3709  -24.7770   20.1721 C   0  0  0  0  0  0  0  0  0  1  0  0
  -33.1406  -20.2194   20.2121 C   0  0  0  0  0  0  0  0  0  0  0  0
  -22.8827  -26.6146   15.3619 C   0  0  1  0  0  0  0  0  0  0  0  0
  -24.7989  -28.1730   12.4863 C   0  0  2  0  0  0  0  0  0  0  0  0
  -21.7676  -25.5639   15.0973 C   0  0  0  0  0  0  0  0  0  0  0  0
  -25.8687  -11.7081   20.2105 N   0  0  0  0  0  0  0  0  0  0  0  0
  -26.1416  -13.0235   20.1732 N   0  0  0  0  0  0  0  0  0  0  0  0
  -23.2449  -27.7403   17.5357 N   0  0  0  0  0  0  0  0  0  0  0  0
  -29.8109  -14.0808   20.2141 N   0  0  0  0  0  0  0  0  0  0  0  0
  -25.2344  -15.1554   20.6656 N   0  0  0  0  0  0  0  0  0  0  0  0
  -21.9300  -12.3167   21.8564 N   0  0  0  0  0  0  0  0  0  0  0  0
  -29.8470  -16.0622   21.4928 N   0  0  0  0  0  0  0  0  0  0  0  0
  -21.4676  -28.3519   20.6603 N   0  0  0  0  0  0  0  0  0  0  0  0
  -23.3066  -27.3480   14.1740 N   0  0  0  0  0  0  0  0  0  0  0  0
  -26.1438  -28.8152   12.4812 N   0  3  0  0  0  0  0  0  0  0  0  0
  -22.5269  -14.5266   21.7194 O   0  0  0  0  0  0  0  0  0  0  0  0
  -21.9740  -26.4847   19.3643 O   0  0  0  0  0  0  0  0  0  0  0  0
  -29.9747  -24.5762   21.9492 O   0  0  0  0  0  0  0  0  0  0  0  0
  -21.4877  -28.3690   16.1381 O   0  0  0  0  0  0  0  0  0  0  0  0
  -25.5420  -26.7414   14.2850 O   0  0  0  0  0  0  0  0  0  0  0  0
  -31.5803  -15.5578   20.0357 O   0  0  0  0  0  0  0  0  0  0  0  0
  -22.0697   -6.7598   21.4873 O   0  0  0  0  0  0  0  0  0  0  0  0
  -28.4808  -26.1813   20.4007 O   0  0  0  0  0  0  0  0  0  1  0  0
  -19.4271   -5.9673   26.2615 F   0  0  0  0  0  0  0  0  0  0  0  0
  -19.9859   -8.4105   22.2461 F   0  0  0  0  0  0  0  0  0  0  0  0
  1  2  1  0  0  0  0
  1  5  2  0  0  0  0
  2  6  2  0  0  0  0
  3  8  2  0  0  0  0
  3 17  1  0  0  0  0
  4  9  1  0  0  0  0
  4 17  2  0  0  0  0
  5 19  1  0  0  0  0
  6 21  1  0  0  0  0
  7 10  2  0  0  0  0
  7 20  1  0  0  0  0
  8 27  1  0  0  0  0
  9 27  2  0  0  0  0
 10 28  1  0  0  0  0
 11 12  2  0  0  0  0
 11 29  1  0  0  0  0
 12 30  1  0  0  0  0
 13 22  1  0  0  0  0
 13 28  2  0  0  0  0
 14 23  1  0  0  0  0
 14 24  2  0  0  0  0
 15 25  1  0  0  0  0
 15 26  2  0  0  0  0
 16 30  2  0  0  0  0
 16 31  1  0  0  0  0
 17 32  1  0  0  0  0
 18 32  1  0  0  0  0
 18 33  2  0  0  0  0
 18 34  1  0  0  0  0
 19 21  2  0  0  0  0
 19 40  1  0  0  0  0
 20 22  2  0  0  0  0
 20 41  1  0  0  0  0
 21 49  1  0  0  0  0
 22 42  1  0  0  0  0
 23 25  2  0  0  0  0
 23 59  1  0  0  0  0
 24 26  1  0  0  0  0
 24 52  1  0  0  0  0
 25 60  1  0  0  0  0
 26 73  1  0  0  0  0
 27 83  1  0  0  0  0
 28 84  1  0  0  0  0
 29 31  2  0  0  0  0
 29 83  1  0  0  0  0
 30 85  1  0  0  0  0
 31 86  1  0  0  0  0
 32 67  2  0  0  0  0
 33 68  1  0  0  0  0
 33 71  1  0  0  0  0
 34 72  1  0  0  0  0
 34 77  2  0  0  0  0
 35 50  1  0  0  0  0
 35 74  1  0  0  0  0
 35 78  2  0  0  0  0
 36 61  1  0  0  0  0
 36 62  1  0  0  0  0
 36 79  2  0  0  0  0
 37 64  1  0  0  0  0
 37 69  1  0  0  0  0
 37 80  2  0  0  0  0
 38 65  1  0  0  0  0
 38 75  1  0  0  0  0
 38 81  2  0  0  0  0
 39 70  1  0  0  0  0
 39 73  1  0  0  0  0
 39 82  2  0  0  0  0
 40 43  1  0  0  0  0
 41 50  1  0  0  0  0
 42 69  1  0  0  0  0
 43 45  1  0  0  0  0
 44 46  1  0  0  0  0
 44 47  1  0  0  0  0
 45 49  1  0  0  0  0
 46 51  1  0  0  0  0
 47 70  1  0  0  0  0
 48 51  1  0  0  0  0
 48 70  1  0  0  0  0
 49 74  1  0  0  0  0
 50 69  1  0  0  0  0
 51 68  1  0  0  0  0
 53 63  1  0  0  0  0
 54 65  1  0  0  0  0
 55 66  1  0  0  0  0
 56 66  1  0  0  0  0
 57 66  1  0  0  0  0
 58 76  1  0  0  0  0
 59 61  1  0  0  0  0
 60 63  1  0  0  0  0
 62 84  1  0  0  0  0
 64 66  1  0  0  0  0
 64 75  1  0  0  0  0
 65 76  1  0  0  0  0
 67 68  1  0  0  0  0
M  CHG  1  76   1
M  ISO  4  39 100  62 101  73 100  84 101
M  END
> <Batch ID>
0129

> <Smiles>
CCCc1cc([100NH:0][100C:0](=O)N2CCCC(n3nc(-c4ccc(Oc5ccc(F)cc5F)cc4)c(C(N)=O)c3N)C2)c(C)cc1CCC(=O)[101CH2:1][101O:1]c1ccc2c(c1)CN(C(=O)C(NC(=O)C(C)NC)C(C)(C)C)C(C(=O)NC1CCCc3ccccc31)C2

> <Shape>
0.308

> <Color>
0.206

> <Negative vol penalty>
0.000

$$$$

  -OEChem-04052302193D

 85 93  0     1  0  0  0  0  0999 V2000
  -34.7445  -32.4443   18.6838 C   0  0  0  0  0  0  0  0  0  0  0  0
  -33.4639  -32.6525   19.1859 C   0  0  0  0  0  0  0  0  0  0  0  0
  -27.6594  -13.2351   18.6940 C   0  0  0  0  0  0  0  0  0  0  0  0
  -28.0847  -13.3715   21.0683 C   0  0  0  0  0  0  0  0  0  0  0  0
  -17.2199  -21.5199   18.5453 C   0  0  0  0  0  0  0  0  0  0  0  0
  -16.5364  -22.7353   18.5770 C   0  0  0  0  0  0  0  0  0  0  0  0
  -34.9712  -31.4298   17.7546 C   0  0  0  0  0  0  0  0  0  0  0  0
  -32.4090  -31.8471   18.7582 C   0  0  0  0  0  0  0  0  0  0  0  0
  -26.2846  -28.9604   21.0981 C   0  0  0  0  0  0  0  0  0  0  0  0
  -28.9506  -12.7482   18.4906 C   0  0  0  0  0  0  0  0  0  0  0  0
  -29.3759  -12.8845   20.8650 C   0  0  0  0  0  0  0  0  0  0  0  0
  -24.9370  -28.8673   20.7533 C   0  0  0  0  0  0  0  0  0  0  0  0
  -32.9050  -12.0178   20.9314 C   0  0  0  0  0  0  0  0  0  0  0  0
  -33.9511  -12.6564   21.5973 C   0  0  0  0  0  0  0  0  0  0  0  0
  -19.2753  -22.6611   19.1021 C   0  0  0  0  0  0  0  0  0  0  0  0
  -25.4619  -27.0942   19.2042 C   0  0  0  0  0  0  0  0  0  0  0  0
  -33.4020  -14.7250   20.4763 C   0  0  0  0  0  0  0  0  0  0  0  0
  -27.2265  -13.5468   19.9829 C   0  0  0  0  0  0  0  0  0  0  0  0
  -18.5894  -21.4828   18.8079 C   0  0  0  0  0  0  0  0  0  0  0  0
  -17.2223  -23.9137   18.8713 C   0  0  0  0  0  0  0  0  0  0  0  0
  -24.7301  -13.2980   20.4452 C   0  0  0  0  0  0  0  0  0  0  0  0
  -33.9204  -30.6054   17.3225 C   0  0  0  0  0  0  0  0  0  0  0  0
  -27.2342  -28.1271   20.4895 C   0  0  0  0  0  0  0  0  0  0  0  0
  -32.6216  -30.8216   17.8213 C   0  0  0  0  0  0  0  0  0  0  0  0
  -26.8207  -27.1769   19.5449 C   0  0  0  0  0  0  0  0  0  0  0  0
  -29.8088  -12.5729   19.5761 C   0  0  0  0  0  0  0  0  0  0  0  0
  -24.5258  -27.9361   19.8041 C   0  0  0  0  0  0  0  0  0  0  0  0
  -32.1074  -12.7328   20.0378 C   0  0  0  0  0  0  0  0  0  0  0  0
  -18.5918  -23.8766   19.1339 C   0  0  0  0  0  0  0  0  0  0  0  0
  -34.1996  -14.0100   21.3698 C   0  0  0  0  0  0  0  0  0  0  0  0
  -32.3559  -14.0864   19.8103 C   0  0  0  0  0  0  0  0  0  0  0  0
  -25.8930  -14.0504   20.1935 C   0  0  0  0  0  0  0  0  0  0  0  0
  -23.7347  -14.2360   20.5706 C   0  0  0  0  0  0  0  0  0  0  0  0
  -15.4904  -25.4195   19.7363 C   0  0  0  0  0  0  0  0  0  0  0  0
  -19.3017  -20.2151   18.7747 C   0  0  0  0  0  0  0  0  0  0  0  0
  -16.4856  -25.1702   18.8984 C   0  0  0  0  0  0  0  0  0  0  0  0
  -20.6361  -20.0700   18.6292 C   0  0  0  0  0  0  0  0  0  0  0  0
  -24.5645  -11.8781   20.5560 C   0  0  0  0  0  0  0  0  0  0  0  0
  -21.2131  -18.7107   18.6251 C   0  0  0  0  0  0  0  0  0  0  0  0
  -29.7902  -28.6008   18.6602 C   0  0  0  0  0  0  0  0  0  0  0  0
  -21.2741  -26.3921   19.4192 C   0  0  0  0  0  0  0  0  0  0  0  0
  -30.1700  -25.4014   19.0370 C   0  0  0  0  0  0  0  0  0  0  0  0
  -28.7459  -22.3745   19.7128 C   0  0  0  0  0  0  0  0  0  0  0  0
  -34.2051  -29.5523   16.2810 C   0  0  0  0  0  0  0  0  0  0  0  0
  -28.6804  -28.2216   20.8919 C   0  0  0  0  0  0  0  0  0  0  0  0
  -27.7977  -26.2451   18.8772 C   0  0  0  0  0  0  0  0  0  0  0  0
  -33.1050  -28.5008   16.1614 C   0  0  0  0  0  0  0  0  0  0  0  0
  -23.9574  -19.2563   20.9922 C   0  0  0  0  0  0  0  0  0  0  0  0
  -31.7333  -29.1664   16.1134 C   0  0  0  0  0  0  0  0  0  0  0  0
  -24.6372  -17.8898   20.9737 C   0  0  0  0  0  0  0  0  0  0  0  0
  -23.3756  -19.6240   19.6280 C   0  0  0  0  0  0  0  0  0  0  0  0
  -23.1308  -17.2248   19.0583 C   0  0  0  0  0  0  0  0  0  0  0  0
  -31.4563  -29.9528   17.4004 C   0  0  1  0  0  0  0  0  0  0  0  0
  -29.6324  -27.6746   19.8328 C   0  0  1  0  0  0  0  0  0  0  0  0
  -23.6822  -16.8141   20.4326 C   0  0  1  0  0  0  0  0  0  0  0  0
  -29.3031  -19.9358   19.9118 C   0  0  0  0  0  0  0  0  0  0  0  0
  -30.2967  -25.1847   15.9961 C   0  0  0  0  0  0  0  0  0  0  0  0
  -29.8961  -22.7239   16.2244 C   0  0  0  0  0  0  0  0  0  0  0  0
  -31.9436  -23.7496   17.2138 C   0  0  0  0  0  0  0  0  0  0  0  0
  -27.9089  -22.2959   22.5504 C   0  0  0  0  0  0  0  0  0  0  0  0
  -22.7347  -26.5627   19.0548 C   0  0  0  0  0  0  0  0  0  1  0  0
  -20.6528  -25.0604   19.0511 C   0  0  0  0  0  0  0  0  0  0  0  0
  -29.6981  -24.1741   18.2953 C   0  0  1  0  0  0  0  0  0  0  0  0
  -29.1565  -21.2556   20.6530 C   0  0  2  0  0  0  0  0  0  0  0  0
  -30.4402  -23.9768   16.9434 C   0  0  0  0  0  0  0  0  0  0  0  0
  -25.6595  -15.3651   20.1604 N   0  0  0  0  0  0  0  0  0  0  0  0
  -24.3383  -15.4461   20.3928 N   0  0  0  0  0  0  0  0  0  0  0  0
  -22.5122  -18.5544   19.1051 N   0  0  0  0  0  0  0  0  0  0  0  0
  -29.2015  -26.3806   19.2997 N   0  0  0  0  0  0  0  0  0  0  0  0
  -22.4107  -14.1356   20.8142 N   0  0  0  0  0  0  0  0  0  0  0  0
  -25.6916  -11.0598   20.4003 N   0  0  0  0  0  0  0  0  0  0  0  0
  -31.0818  -29.0540   18.4711 N   0  0  0  0  0  0  0  0  0  0  0  0
  -29.8393  -23.0571   19.2231 N   0  0  0  0  0  0  0  0  0  0  0  0
  -28.1376  -21.0810   21.7265 N   0  3  0  0  0  0  0  0  0  0  0  0
  -23.4471  -11.3498   20.7699 O   0  0  0  0  0  0  0  0  0  0  0  0
  -20.5102  -17.7959   18.1917 O   0  0  0  0  0  0  0  0  0  0  0  0
  -28.8128  -28.8822   17.9768 O   0  0  0  0  0  0  0  0  0  0  0  0
  -20.6326  -27.2800   19.9788 O   0  0  0  0  0  0  0  0  0  0  0  0
  -31.3528  -25.4849   19.3772 O   0  0  0  0  0  0  0  0  0  0  0  0
  -27.5728  -22.6163   19.4372 O   0  0  0  0  0  0  0  0  0  0  0  0
  -31.0687  -12.0976   19.3781 O   0  0  0  0  0  0  0  0  0  0  0  0
  -23.2111  -27.8437   19.4653 O   0  0  0  0  0  0  0  0  0  1  0  0
  -19.2920  -25.0231   19.4262 O   0  0  0  0  0  0  0  0  0  0  0  0
  -35.2032  -14.6235   22.0106 F   0  0  0  0  0  0  0  0  0  0  0  0
  -31.5923  -14.7787   18.9540 F   0  0  0  0  0  0  0  0  0  0  0  0
  1  2  1  0  0  0  0
  1  7  2  0  0  0  0
  2  8  2  0  0  0  0
  3 10  2  0  0  0  0
  3 18  1  0  0  0  0
  4 11  1  0  0  0  0
  4 18  2  0  0  0  0
  5  6  2  0  0  0  0
  5 19  1  0  0  0  0
  6 20  1  0  0  0  0
  7 22  1  0  0  0  0
  8 24  1  0  0  0  0
  9 12  2  0  0  0  0
  9 23  1  0  0  0  0
 10 26  1  0  0  0  0
 11 26  2  0  0  0  0
 12 27  1  0  0  0  0
 13 14  2  0  0  0  0
 13 28  1  0  0  0  0
 14 30  1  0  0  0  0
 15 19  2  0  0  0  0
 15 29  1  0  0  0  0
 16 25  1  0  0  0  0
 16 27  2  0  0  0  0
 17 30  2  0  0  0  0
 17 31  1  0  0  0  0
 18 32  1  0  0  0  0
 19 35  1  0  0  0  0
 20 29  2  0  0  0  0
 20 36  1  0  0  0  0
 21 32  1  0  0  0  0
 21 33  2  0  0  0  0
 21 38  1  0  0  0  0
 22 24  2  0  0  0  0
 22 44  1  0  0  0  0
 23 25  2  0  0  0  0
 23 45  1  0  0  0  0
 24 53  1  0  0  0  0
 25 46  1  0  0  0  0
 26 81  1  0  0  0  0
 27 82  1  0  0  0  0
 28 31  2  0  0  0  0
 28 81  1  0  0  0  0
 29 83  1  0  0  0  0
 30 84  1  0  0  0  0
 31 85  1  0  0  0  0
 32 66  2  0  0  0  0
 33 67  1  0  0  0  0
 33 70  1  0  0  0  0
 34 36  2  0  0  0  0
 35 37  2  0  0  0  0
 37 39  1  0  0  0  0
 38 71  1  0  0  0  0
 38 75  2  0  0  0  0
 39 68  1  0  0  0  0
 39 76  2  0  0  0  0
 40 54  1  0  0  0  0
 40 72  1  0  0  0  0
 40 77  2  0  0  0  0
 41 61  1  0  0  0  0
 41 62  1  0  0  0  0
 41 78  2  0  0  0  0
 42 63  1  0  0  0  0
 42 69  1  0  0  0  0
 42 79  2  0  0  0  0
 43 64  1  0  0  0  0
 43 73  1  0  0  0  0
 43 80  2  0  0  0  0
 44 47  1  0  0  0  0
 45 54  1  0  0  0  0
 46 69  1  0  0  0  0
 47 49  1  0  0  0  0
 48 50  1  0  0  0  0
 48 51  1  0  0  0  0
 49 53  1  0  0  0  0
 50 55  1  0  0  0  0
 51 68  1  0  0  0  0
 52 55  1  0  0  0  0
 52 68  1  0  0  0  0
 53 72  1  0  0  0  0
 54 69  1  0  0  0  0
 55 67  1  0  0  0  0
 56 64  1  0  0  0  0
 57 65  1  0  0  0  0
 58 65  1  0  0  0  0
 59 65  1  0  0  0  0
 60 74  1  0  0  0  0
 61 82  1  0  0  0  0
 62 83  1  0  0  0  0
 63 65  1  0  0  0  0
 63 73  1  0  0  0  0
 64 74  1  0  0  0  0
 66 67  1  0  0  0  0
M  CHG  1  74   1
M  ISO  4  37 100  39 100  61 101  82 101
M  END
> <Batch ID>
0129

> <Smiles>
C=Cc1ccc(C=[100CH:0][100C:0](=O)N2CCCC(n3nc(-c4ccc(Oc5ccc(F)cc5F)cc4)c(C(N)=O)c3N)C2)cc1OCC(=O)[101CH2:1][101O:1]c1ccc2c(c1)CN(C(=O)C(NC(=O)C(C)NC)C(C)(C)C)C(C(=O)NC1CCCc3ccccc31)C2

> <Shape>
0.223

> <Color>
0.079

> <Negative vol penalty>
0.000

$$$$

  -OEChem-04052302193D

 84 92  0     1  0  0  0  0  0999 V2000
  -28.7438  -39.8500   22.8179 C   0  0  0  0  0  0  0  0  0  0  0  0
  -29.2657  -38.6587   22.3240 C   0  0  0  0  0  0  0  0  0  0  0  0
  -24.4006   -9.2642   22.1638 C   0  0  0  0  0  0  0  0  0  0  0  0
  -24.2507   -8.7493   19.8080 C   0  0  0  0  0  0  0  0  0  0  0  0
  -28.3768  -22.2820   21.0795 C   0  0  0  0  0  0  0  0  0  0  0  0
  -28.0221  -20.9598   21.3468 C   0  0  0  0  0  0  0  0  0  0  0  0
  -27.8928  -39.8321   23.9222 C   0  0  0  0  0  0  0  0  0  0  0  0
  -28.9377  -37.4488   22.9348 C   0  0  0  0  0  0  0  0  0  0  0  0
  -28.1788  -32.0264   20.1914 C   0  0  0  0  0  0  0  0  0  0  0  0
  -23.2404   -8.5265   22.3988 C   0  0  0  0  0  0  0  0  0  0  0  0
  -23.0904   -8.0117   20.0431 C   0  0  0  0  0  0  0  0  0  0  0  0
  -29.0226  -30.9274   20.0361 C   0  0  0  0  0  0  0  0  0  0  0  0
  -22.3772   -5.2717   22.7056 C   0  0  0  0  0  0  0  0  0  0  0  0
  -22.3746   -4.3960   23.7912 C   0  0  0  0  0  0  0  0  0  0  0  0
  -30.3908  -21.5204   19.9837 C   0  0  0  0  0  0  0  0  0  0  0  0
  -28.0139  -29.8880   21.9652 C   0  0  0  0  0  0  0  0  0  0  0  0
  -20.5172   -5.6008   24.7586 C   0  0  0  0  0  0  0  0  0  0  0  0
  -24.9058   -9.3756   20.8683 C   0  0  0  0  0  0  0  0  0  0  0  0
  -29.5611  -22.5624   20.3979 C   0  0  0  0  0  0  0  0  0  0  0  0
  -28.8518  -19.9178   20.9325 C   0  0  0  0  0  0  0  0  0  0  0  0
  -27.4302   -9.6661   20.6433 C   0  0  0  0  0  0  0  0  0  0  0  0
  -27.5465  -38.6205   24.5409 C   0  0  0  0  0  0  0  0  0  0  0  0
  -27.2521  -32.0693   21.2430 C   0  0  0  0  0  0  0  0  0  0  0  0
  -28.0823  -37.4148   24.0492 C   0  0  0  0  0  0  0  0  0  0  0  0
  -27.1577  -30.9875   22.1301 C   0  0  0  0  0  0  0  0  0  0  0  0
  -30.0361  -20.1981   20.2509 C   0  0  0  0  0  0  0  0  0  0  0  0
  -22.5853   -7.9003   21.3385 C   0  0  0  0  0  0  0  0  0  0  0  0
  -28.9422  -29.8593   20.9248 C   0  0  0  0  0  0  0  0  0  0  0  0
  -21.4498   -6.3121   22.6465 C   0  0  0  0  0  0  0  0  0  0  0  0
  -21.4446   -4.5605   24.8177 C   0  0  0  0  0  0  0  0  0  0  0  0
  -20.5198   -6.4765   23.6730 C   0  0  0  0  0  0  0  0  0  0  0  0
  -26.1040  -10.1379   20.6248 C   0  0  0  0  0  0  0  0  0  0  0  0
  -28.1919  -10.7713   20.3524 C   0  0  0  0  0  0  0  0  0  0  0  0
  -29.9354  -23.9596   20.1168 C   0  0  0  0  0  0  0  0  0  0  0  0
  -28.4537  -18.5474   21.2262 C   0  0  0  0  0  0  0  0  0  0  0  0
  -29.4497  -25.0240   20.7707 C   0  0  0  0  0  0  0  0  0  0  0  0
  -27.3288  -17.9493   20.7840 C   0  0  0  0  0  0  0  0  0  0  0  0
  -27.9289   -8.3467   20.9003 C   0  0  0  0  0  0  0  0  0  0  0  0
  -29.8869  -26.4018   20.4017 C   0  0  0  0  0  0  0  0  0  0  0  0
  -27.0698  -16.5453   21.1615 C   0  0  0  0  0  0  0  0  0  0  0  0
  -26.7947  -33.9641   23.7537 C   0  0  0  0  0  0  0  0  0  0  0  0
  -24.1187  -32.1694   24.1291 C   0  0  0  0  0  0  0  0  0  0  0  0
  -22.5030  -29.2203   23.5472 C   0  0  0  0  0  0  0  0  0  0  0  0
  -26.6607  -38.6556   25.7610 C   0  0  0  0  0  0  0  0  0  0  0  0
  -26.3306  -33.2501   21.3808 C   0  0  0  0  0  0  0  0  0  0  0  0
  -26.1659  -30.9757   23.2636 C   0  0  0  0  0  0  0  0  0  0  0  0
  -26.0643  -37.2971   26.1201 C   0  0  0  0  0  0  0  0  0  0  0  0
  -28.0382  -14.9286   18.0182 C   0  0  0  0  0  0  0  0  0  0  0  0
  -27.1381  -36.2146   26.0774 C   0  0  0  0  0  0  0  0  0  0  0  0
  -27.7222  -13.4682   18.3296 C   0  0  0  0  0  0  0  0  0  0  0  0
  -27.0566  -15.8832   18.6963 C   0  0  0  0  0  0  0  0  0  0  0  0
  -26.6316  -14.2177   20.4812 C   0  0  0  0  0  0  0  0  0  0  0  0
  -27.7303  -36.0800   24.6693 C   0  0  1  0  0  0  0  0  0  0  0  0
  -25.7780  -33.4151   22.7932 C   0  0  1  0  0  0  0  0  0  0  0  0
  -27.6351  -13.2417   19.8473 C   0  0  1  0  0  0  0  0  0  0  0  0
  -30.9498  -19.1070   19.7929 C   0  0  0  0  0  0  0  0  0  0  0  0
  -20.3408  -28.0339   24.0108 C   0  0  0  0  0  0  0  0  0  0  0  0
  -25.0247  -31.6433   26.9948 C   0  0  0  0  0  0  0  0  0  0  0  0
  -23.3916  -29.7480   27.0892 C   0  0  0  0  0  0  0  0  0  0  0  0
  -22.5754  -32.0790   26.7384 C   0  0  0  0  0  0  0  0  0  0  0  0
  -21.8716  -28.9999   20.6642 C   0  0  0  0  0  0  0  0  0  0  0  0
  -29.2683  -27.5212   21.2122 C   0  0  0  0  0  0  0  0  0  1  0  0
  -23.7819  -30.8922   24.8600 C   0  0  1  0  0  0  0  0  0  0  0  0
  -21.1039  -28.9213   23.0398 C   0  0  2  0  0  0  0  0  0  0  0  0
  -23.7135  -31.0914   26.4005 C   0  0  0  0  0  0  0  0  0  0  0  0
  -26.0243  -11.4414   20.3445 N   0  0  0  0  0  0  0  0  0  0  0  0
  -27.3101  -11.7981   20.1842 N   0  0  0  0  0  0  0  0  0  0  0  0
  -26.9468  -15.6086   20.1369 N   0  0  0  0  0  0  0  0  0  0  0  0
  -25.2912  -32.1559   23.3603 N   0  0  0  0  0  0  0  0  0  0  0  0
  -29.5234  -10.9554   20.2267 N   0  0  0  0  0  0  0  0  0  0  0  0
  -27.0088   -7.3278   21.1823 N   0  0  0  0  0  0  0  0  0  0  0  0
  -26.8278  -35.3444   23.8097 N   0  0  0  0  0  0  0  0  0  0  0  0
  -22.5451  -30.3961   24.2662 N   0  0  0  0  0  0  0  0  0  0  0  0
  -21.1679  -28.2292   21.7215 N   0  3  0  0  0  0  0  0  0  0  0  0
  -29.1552   -8.0827   20.8967 O   0  0  0  0  0  0  0  0  0  0  0  0
  -30.6948  -26.6105   19.5007 O   0  0  0  0  0  0  0  0  0  0  0  0
  -26.9733  -16.2881   22.3629 O   0  0  0  0  0  0  0  0  0  0  0  0
  -27.4960  -33.1926   24.3976 O   0  0  0  0  0  0  0  0  0  0  0  0
  -23.3655  -33.1410   24.2306 O   0  0  0  0  0  0  0  0  0  0  0  0
  -23.4618  -28.4825   23.3309 O   0  0  0  0  0  0  0  0  0  0  0  0
  -21.4532   -7.1802   21.5676 O   0  0  0  0  0  0  0  0  0  0  0  0
  -29.7651  -28.7858   20.7760 O   0  0  0  0  0  0  0  0  0  1  0  0
  -21.4412   -3.7185   25.8595 F   0  0  0  0  0  0  0  0  0  0  0  0
  -19.6257   -7.4734   23.6211 F   0  0  0  0  0  0  0  0  0  0  0  0
  1  2  1  0  0  0  0
  1  7  2  0  0  0  0
  2  8  2  0  0  0  0
  3 10  2  0  0  0  0
  3 18  1  0  0  0  0
  4 11  1  0  0  0  0
  4 18  2  0  0  0  0
  5  6  2  0  0  0  0
  5 19  1  0  0  0  0
  6 20  1  0  0  0  0
  7 22  1  0  0  0  0
  8 24  1  0  0  0  0
  9 12  2  0  0  0  0
  9 23  1  0  0  0  0
 10 27  1  0  0  0  0
 11 27  2  0  0  0  0
 12 28  1  0  0  0  0
 13 14  2  0  0  0  0
 13 29  1  0  0  0  0
 14 30  1  0  0  0  0
 15 19  2  0  0  0  0
 15 26  1  0  0  0  0
 16 25  1  0  0  0  0
 16 28  2  0  0  0  0
 17 30  2  0  0  0  0
 17 31  1  0  0  0  0
 18 32  1  0  0  0  0
 19 34  1  0  0  0  0
 20 26  2  0  0  0  0
 20 35  1  0  0  0  0
 21 32  1  0  0  0  0
 21 33  2  0  0  0  0
 21 38  1  0  0  0  0
 22 24  2  0  0  0  0
 22 44  1  0  0  0  0
 23 25  2  0  0  0  0
 23 45  1  0  0  0  0
 24 53  1  0  0  0  0
 25 46  1  0  0  0  0
 26 56  1  0  0  0  0
 27 81  1  0  0  0  0
 28 82  1  0  0  0  0
 29 31  2  0  0  0  0
 29 81  1  0  0  0  0
 30 83  1  0  0  0  0
 31 84  1  0  0  0  0
 32 66  2  0  0  0  0
 33 67  1  0  0  0  0
 33 70  1  0  0  0  0
 34 36  2  0  0  0  0
 35 37  2  0  0  0  0
 36 39  1  0  0  0  0
 37 40  1  0  0  0  0
 38 71  1  0  0  0  0
 38 75  2  0  0  0  0
 39 62  1  0  0  0  0
 39 76  2  0  0  0  0
 40 68  1  0  0  0  0
 40 77  2  0  0  0  0
 41 54  1  0  0  0  0
 41 72  1  0  0  0  0
 41 78  2  0  0  0  0
 42 63  1  0  0  0  0
 42 69  1  0  0  0  0
 42 79  2  0  0  0  0
 43 64  1  0  0  0  0
 43 73  1  0  0  0  0
 43 80  2  0  0  0  0
 44 47  1  0  0  0  0
 45 54  1  0  0  0  0
 46 69  1  0  0  0  0
 47 49  1  0  0  0  0
 48 50  1  0  0  0  0
 48 51  1  0  0  0  0
 49 53  1  0  0  0  0
 50 55  1  0  0  0  0
 51 68  1  0  0  0  0
 52 55  1  0  0  0  0
 52 68  1  0  0  0  0
 53 72  1  0  0  0  0
 54 69  1  0  0  0  0
 55 67  1  0  0  0  0
 57 64  1  0  0  0  0
 58 65  1  0  0  0  0
 59 65  1  0  0  0  0
 60 65  1  0  0  0  0
 61 74  1  0  0  0  0
 62 82  1  0  0  0  0
 63 65  1  0  0  0  0
 63 73  1  0  0  0  0
 64 74  1  0  0  0  0
 66 67  1  0  0  0  0
M  CHG  1  74   1
M  ISO  4  37 100  40 100  62 101  82 101
M  END
> <Batch ID>
0129

> <Smiles>
CNC(C)C(=O)NC(C(=O)N1Cc2cc([101O:1][101CH2:1]C(=O)C=Cc3ccc(C=[100CH:0][100C:0](=O)N4CCCC(n5nc(-c6ccc(Oc7ccc(F)cc7F)cc6)c(C(N)=O)c5N)C4)c(C)c3)ccc2CC1C(=O)NC1CCCc2ccccc21)C(C)(C)C

> <Shape>
0.315

> <Color>
0.097

> <Negative vol penalty>
0.000

$$$$

  -OEChem-04052302193D

 84 92  0     1  0  0  0  0  0999 V2000
  -21.3321  -24.9736   28.3018 C   0  0  0  0  0  0  0  0  0  0  0  0
  -22.6979  -25.2174   28.1988 C   0  0  0  0  0  0  0  0  0  0  0  0
  -25.8922  -14.3454   19.3748 C   0  0  0  0  0  0  0  0  0  0  0  0
  -24.3321  -14.4142   21.2183 C   0  0  0  0  0  0  0  0  0  0  0  0
  -31.3308  -24.8576   22.2506 C   0  0  0  0  0  0  0  0  0  0  0  0
  -20.4682  -25.4201   27.3027 C   0  0  0  0  0  0  0  0  0  0  0  0
  -23.2007  -25.9068   27.0960 C   0  0  0  0  0  0  0  0  0  0  0  0
  -27.9338  -29.7926   27.0285 C   0  0  0  0  0  0  0  0  0  0  0  0
  -31.9636  -26.0416   22.6290 C   0  0  0  0  0  0  0  0  0  0  0  0
  -26.0797  -12.9792   19.5843 C   0  0  0  0  0  0  0  0  0  0  0  0
  -24.5196  -13.0479   21.4278 C   0  0  0  0  0  0  0  0  0  0  0  0
  -29.2721  -29.6346   26.6712 C   0  0  0  0  0  0  0  0  0  0  0  0
  -23.4568  -10.1498   20.0524 C   0  0  0  0  0  0  0  0  0  0  0  0
  -22.3224   -9.3668   20.2660 C   0  0  0  0  0  0  0  0  0  0  0  0
  -31.2464  -25.6334   19.9641 C   0  0  0  0  0  0  0  0  0  0  0  0
  -28.7780  -30.4836   24.4680 C   0  0  0  0  0  0  0  0  0  0  0  0
  -23.1754   -8.7221   22.4325 C   0  0  0  0  0  0  0  0  0  0  0  0
  -25.0185  -15.0629   20.1918 C   0  0  0  0  0  0  0  0  0  0  0  0
  -30.9722  -24.6534   20.9181 C   0  0  0  0  0  0  0  0  0  0  0  0
  -23.8672  -17.0836   19.1433 C   0  0  0  0  0  0  0  0  0  0  0  0
  -20.9595  -26.1238   26.1919 C   0  0  0  0  0  0  0  0  0  0  0  0
  -27.0038  -30.2880   26.1032 C   0  0  0  0  0  0  0  0  0  0  0  0
  -22.3427  -26.3620   26.0804 C   0  0  0  0  0  0  0  0  0  0  0  0
  -27.4289  -30.6494   24.8168 C   0  0  0  0  0  0  0  0  0  0  0  0
  -32.2377  -27.0216   21.6750 C   0  0  0  0  0  0  0  0  0  0  0  0
  -31.8791  -26.8175   20.3425 C   0  0  0  0  0  0  0  0  0  0  0  0
  -25.3934  -12.3305   20.6108 C   0  0  0  0  0  0  0  0  0  0  0  0
  -29.6938  -29.9774   25.3899 C   0  0  0  0  0  0  0  0  0  0  0  0
  -24.4506  -10.2189   21.0287 C   0  0  0  0  0  0  0  0  0  0  0  0
  -22.1817   -8.6530   21.4561 C   0  0  0  0  0  0  0  0  0  0  0  0
  -24.3099   -9.5051   22.2188 C   0  0  0  0  0  0  0  0  0  0  0  0
  -24.8248  -16.4744   19.9761 C   0  0  0  0  0  0  0  0  0  0  0  0
  -24.0947  -18.4305   19.2866 C   0  0  0  0  0  0  0  0  0  0  0  0
  -30.3127  -23.4184   20.5235 C   0  0  0  0  0  0  0  0  0  0  0  0
  -29.6590  -22.5795   21.3550 C   0  0  0  0  0  0  0  0  0  0  0  0
  -22.8619  -16.4854   18.3143 C   0  0  0  0  0  0  0  0  0  0  0  0
  -29.0299  -21.3649   20.7985 C   0  0  0  0  0  0  0  0  0  0  0  0
  -24.3694  -29.1455   24.7399 C   0  0  0  0  0  0  0  0  0  0  0  0
  -32.5269  -28.6979   23.5322 C   0  0  0  0  0  0  0  0  0  0  0  0
  -24.1496  -32.1546   23.5483 C   0  0  0  0  0  0  0  0  0  0  0  0
  -25.7328  -35.0531   22.6887 C   0  0  0  0  0  0  0  0  0  0  0  0
  -19.9926  -26.5453   25.1139 C   0  0  0  0  0  0  0  0  0  0  0  0
  -25.5689  -30.4777   26.5126 C   0  0  0  0  0  0  0  0  0  0  0  0
  -26.4741  -31.2046   23.7929 C   0  0  0  0  0  0  0  0  0  0  0  0
  -20.5606  -27.5957   24.1629 C   0  0  0  0  0  0  0  0  0  0  0  0
  -25.7440  -21.6495   22.3967 C   0  0  0  0  0  0  0  0  0  0  0  0
  -21.9663  -27.2068   23.7160 C   0  0  0  0  0  0  0  0  0  0  0  0
  -25.0680  -20.3713   21.9079 C   0  0  0  0  0  0  0  0  0  0  0  0
  -27.2430  -21.4544   22.6193 C   0  0  0  0  0  0  0  0  0  0  0  0
  -27.2809  -19.6344   20.9380 C   0  0  0  0  0  0  0  0  0  0  0  0
  -22.9233  -27.1281   24.9116 C   0  0  1  0  0  0  0  0  0  0  0  0
  -24.6084  -30.5075   25.3277 C   0  0  1  0  0  0  0  0  0  0  0  0
  -25.7806  -19.8207   20.6624 C   0  0  1  0  0  0  0  0  0  0  0  0
  -32.1628  -27.8522   19.3036 C   0  0  0  0  0  0  0  0  0  0  0  0
  -34.4529  -28.2535   22.0059 C   0  0  0  0  0  0  0  0  0  0  0  0
  -25.2951  -37.3198   21.7049 C   0  0  0  0  0  0  0  0  0  0  0  0
  -23.9321  -30.9054   20.7731 C   0  0  0  0  0  0  0  0  0  0  0  0
  -24.4526  -33.1516   19.7975 C   0  0  0  0  0  0  0  0  0  0  0  0
  -22.3942  -32.8369   21.1711 C   0  0  0  0  0  0  0  0  0  0  0  0
  -26.6663  -36.4249   25.1393 C   0  0  0  0  0  0  0  0  0  0  0  0
  -31.2740  -29.5443   23.6662 C   0  0  0  0  0  0  0  0  0  1  0  0
  -32.9278  -28.3023   22.1113 C   0  0  1  0  0  0  0  0  0  0  0  0
  -24.6524  -32.8526   22.3078 C   0  0  1  0  0  0  0  0  0  0  0  0
  -25.4055  -36.5056   22.9846 C   0  0  2  0  0  0  0  0  0  0  0  0
  -23.8757  -32.4244   21.0308 C   0  0  0  0  0  0  0  0  0  0  0  0
  -25.6028  -17.3615   20.6021 N   0  0  0  0  0  0  0  0  0  0  0  0
  -25.1344  -18.5418   20.1623 N   0  0  0  0  0  0  0  0  0  0  0  0
  -27.8918  -20.8724   21.4348 N   0  0  0  0  0  0  0  0  0  0  0  0
  -25.0803  -31.3656   24.2391 N   0  0  0  0  0  0  0  0  0  0  0  0
  -23.5047  -19.5186   18.7478 N   0  0  0  0  0  0  0  0  0  0  0  0
  -22.7657  -15.0875   18.2840 N   0  0  0  0  0  0  0  0  0  0  0  0
  -23.3253  -28.4554   25.3254 N   0  0  0  0  0  0  0  0  0  0  0  0
  -24.5935  -34.2824   22.5917 N   0  0  0  0  0  0  0  0  0  0  0  0
  -26.4664  -37.1122   23.8375 N   0  3  0  0  0  0  0  0  0  0  0  0
  -22.0830  -17.1698   17.6082 O   0  0  0  0  0  0  0  0  0  0  0  0
  -29.5541  -20.8569   19.8056 O   0  0  0  0  0  0  0  0  0  0  0  0
  -25.0788  -28.7507   23.8219 O   0  0  0  0  0  0  0  0  0  0  0  0
  -33.1877  -28.3680   24.5174 O   0  0  0  0  0  0  0  0  0  0  0  0
  -22.9762  -32.3095   23.8958 O   0  0  0  0  0  0  0  0  0  0  0  0
  -26.8837  -34.6438   22.5532 O   0  0  0  0  0  0  0  0  0  0  0  0
  -25.5759  -10.9973   20.8154 O   0  0  0  0  0  0  0  0  0  0  0  0
  -30.9994  -29.8235   25.0384 O   0  0  0  0  0  0  0  0  0  1  0  0
  -21.0915   -7.9024   21.6618 F   0  0  0  0  0  0  0  0  0  0  0  0
  -25.2607   -9.5684   23.1610 F   0  0  0  0  0  0  0  0  0  0  0  0
  1  2  1  0  0  0  0
  1  6  2  0  0  0  0
  2  7  2  0  0  0  0
  3 10  2  0  0  0  0
  3 18  1  0  0  0  0
  4 11  1  0  0  0  0
  4 18  2  0  0  0  0
  5  9  2  0  0  0  0
  5 19  1  0  0  0  0
  6 21  1  0  0  0  0
  7 23  1  0  0  0  0
  8 12  2  0  0  0  0
  8 22  1  0  0  0  0
  9 25  1  0  0  0  0
 10 27  1  0  0  0  0
 11 27  2  0  0  0  0
 12 28  1  0  0  0  0
 13 14  2  0  0  0  0
 13 29  1  0  0  0  0
 14 30  1  0  0  0  0
 15 19  2  0  0  0  0
 15 26  1  0  0  0  0
 16 24  1  0  0  0  0
 16 28  2  0  0  0  0
 17 30  2  0  0  0  0
 17 31  1  0  0  0  0
 18 32  1  0  0  0  0
 19 34  1  0  0  0  0
 20 32  1  0  0  0  0
 20 33  2  0  0  0  0
 20 36  1  0  0  0  0
 21 23  2  0  0  0  0
 21 42  1  0  0  0  0
 22 24  2  0  0  0  0
 22 43  1  0  0  0  0
 23 51  1  0  0  0  0
 24 44  1  0  0  0  0
 25 26  2  0  0  0  0
 25 62  1  0  0  0  0
 26 54  1  0  0  0  0
 27 81  1  0  0  0  0
 28 82  1  0  0  0  0
 29 31  2  0  0  0  0
 29 81  1  0  0  0  0
 30 83  1  0  0  0  0
 31 84  1  0  0  0  0
 32 66  2  0  0  0  0
 33 67  1  0  0  0  0
 33 70  1  0  0  0  0
 34 35  2  0  0  0  0
 35 37  1  0  0  0  0
 36 71  1  0  0  0  0
 36 75  2  0  0  0  0
 37 68  1  0  0  0  0
 37 76  2  0  0  0  0
 38 52  1  0  0  0  0
 38 72  1  0  0  0  0
 38 77  2  0  0  0  0
 39 61  1  0  0  0  0
 39 62  1  0  0  0  0
 39 78  2  0  0  0  0
 40 63  1  0  0  0  0
 40 69  1  0  0  0  0
 40 79  2  0  0  0  0
 41 64  1  0  0  0  0
 41 73  1  0  0  0  0
 41 80  2  0  0  0  0
 42 45  1  0  0  0  0
 43 52  1  0  0  0  0
 44 69  1  0  0  0  0
 45 47  1  0  0  0  0
 46 48  1  0  0  0  0
 46 49  1  0  0  0  0
 47 51  1  0  0  0  0
 48 53  1  0  0  0  0
 49 68  1  0  0  0  0
 50 53  1  0  0  0  0
 50 68  1  0  0  0  0
 51 72  1  0  0  0  0
 52 69  1  0  0  0  0
 53 67  1  0  0  0  0
 55 62  1  0  0  0  0
 56 64  1  0  0  0  0
 57 65  1  0  0  0  0
 58 65  1  0  0  0  0
 59 65  1  0  0  0  0
 60 74  1  0  0  0  0
 61 82  1  0  0  0  0
 63 65  1  0  0  0  0
 63 73  1  0  0  0  0
 64 74  1  0  0  0  0
 66 67  1  0  0  0  0
M  CHG  1  74   1
M  ISO  4  35 100  37 100  61 101  82 101
M  END
> <Batch ID>
0129

> <Smiles>
CNC(C)C(=O)NC(C(=O)N1Cc2cc([101O:1][101CH2:1]C(=O)C(C)c3ccc(C=[100CH:0][100C:0](=O)N4CCCC(n5nc(-c6ccc(Oc7ccc(F)cc7F)cc6)c(C(N)=O)c5N)C4)cc3C)ccc2CC1C(=O)NC1CCCc2ccccc21)C(C)(C)C

> <Shape>
0.226

> <Color>
0.124

> <Negative vol penalty>
0.000

$$$$

  -OEChem-04052302193D

 81 89  0     1  0  0  0  0  0999 V2000
  -16.7122  -30.4715   23.2740 C   0  0  0  0  0  0  0  0  0  0  0  0
  -17.8265  -30.9356   22.5823 C   0  0  0  0  0  0  0  0  0  0  0  0
  -27.4001  -11.5569   20.9922 C   0  0  0  0  0  0  0  0  0  0  0  0
  -27.7193  -11.2447   18.6178 C   0  0  0  0  0  0  0  0  0  0  0  0
  -30.3135  -23.8194   20.3238 C   0  0  0  0  0  0  0  0  0  0  0  0
  -32.3753  -23.9078   21.5800 C   0  0  0  0  0  0  0  0  0  0  0  0
  -16.8456  -29.4266   24.1875 C   0  0  0  0  0  0  0  0  0  0  0  0
  -19.0750  -30.3557   22.8044 C   0  0  0  0  0  0  0  0  0  0  0  0
  -25.1789  -28.7711   19.4062 C   0  0  0  0  0  0  0  0  0  0  0  0
  -30.3493  -25.2050   20.1674 C   0  0  0  0  0  0  0  0  0  0  0  0
  -32.4112  -25.2934   21.4236 C   0  0  0  0  0  0  0  0  0  0  0  0
  -26.4743  -10.5137   21.0049 C   0  0  0  0  0  0  0  0  0  0  0  0
  -26.7935  -10.2015   18.6305 C   0  0  0  0  0  0  0  0  0  0  0  0
  -26.5564  -28.9484   19.5274 C   0  0  0  0  0  0  0  0  0  0  0  0
  -23.2303  -10.0529   20.1750 C   0  0  0  0  0  0  0  0  0  0  0  0
  -22.0416  -10.2509   20.8774 C   0  0  0  0  0  0  0  0  0  0  0  0
  -26.6529  -27.0967   21.0705 C   0  0  0  0  0  0  0  0  0  0  0  0
  -22.5674   -8.3687   22.2979 C   0  0  0  0  0  0  0  0  0  0  0  0
  -28.0226  -11.9224   19.7986 C   0  0  0  0  0  0  0  0  0  0  0  0
  -31.3264  -23.1708   21.0302 C   0  0  0  0  0  0  0  0  0  0  0  0
  -30.3691  -12.9059   19.9838 C   0  0  0  0  0  0  0  0  0  0  0  0
  -18.0947  -28.8273   24.4139 C   0  0  0  0  0  0  0  0  0  0  0  0
  -24.5252  -27.7605   20.1259 C   0  0  0  0  0  0  0  0  0  0  0  0
  -19.2255  -29.3028   23.7228 C   0  0  0  0  0  0  0  0  0  0  0  0
  -25.2673  -26.9071   20.9547 C   0  0  0  0  0  0  0  0  0  0  0  0
  -31.3982  -25.9420   20.7173 C   0  0  0  0  0  0  0  0  0  0  0  0
  -26.1709   -9.8360   19.8241 C   0  0  0  0  0  0  0  0  0  0  0  0
  -27.2932  -28.1130   20.3619 C   0  0  0  0  0  0  0  0  0  0  0  0
  -24.0876   -9.0127   20.5340 C   0  0  0  0  0  0  0  0  0  0  0  0
  -21.7102   -9.4088   21.9389 C   0  0  0  0  0  0  0  0  0  0  0  0
  -23.7561   -8.1706   21.5955 C   0  0  0  0  0  0  0  0  0  0  0  0
  -28.9787  -13.0003   19.7847 C   0  0  0  0  0  0  0  0  0  0  0  0
  -30.8203  -14.1985   19.8737 C   0  0  0  0  0  0  0  0  0  0  0  0
  -31.2892  -21.7260   21.1935 C   0  0  0  0  0  0  0  0  0  0  0  0
  -30.1915  -20.9510   21.0627 C   0  0  0  0  0  0  0  0  0  0  0  0
  -31.1804  -11.7529   20.2449 C   0  0  0  0  0  0  0  0  0  0  0  0
  -30.3178  -19.4917   21.2503 C   0  0  0  0  0  0  0  0  0  0  0  0
  -22.2619  -27.7006   22.3569 C   0  0  0  0  0  0  0  0  0  0  0  0
  -22.4633  -24.4924   21.9219 C   0  0  0  0  0  0  0  0  0  0  0  0
  -24.3251  -21.8170   20.9105 C   0  0  0  0  0  0  0  0  0  0  0  0
  -18.1981  -27.7323   25.4458 C   0  0  0  0  0  0  0  0  0  0  0  0
  -23.0427  -27.5653   19.9636 C   0  0  0  0  0  0  0  0  0  0  0  0
  -24.6163  -25.7942   21.7332 C   0  0  0  0  0  0  0  0  0  0  0  0
  -19.4882  -26.9223   25.3473 C   0  0  0  0  0  0  0  0  0  0  0  0
  -28.5082  -18.3808   18.2631 C   0  0  0  0  0  0  0  0  0  0  0  0
  -20.6907  -27.8494   25.2014 C   0  0  0  0  0  0  0  0  0  0  0  0
  -28.5472  -16.8655   18.4428 C   0  0  0  0  0  0  0  0  0  0  0  0
  -28.4071  -19.1127   19.6005 C   0  0  0  0  0  0  0  0  0  0  0  0
  -29.5136  -17.2167   20.7499 C   0  0  0  0  0  0  0  0  0  0  0  0
  -20.5922  -28.6831   23.9181 C   0  0  1  0  0  0  0  0  0  0  0  0
  -22.4044  -26.8319   21.1392 C   0  0  1  0  0  0  0  0  0  0  0  0
  -29.6627  -16.4617   19.4198 C   0  0  1  0  0  0  0  0  0  0  0  0
  -24.2344  -19.3174   20.7087 C   0  0  0  0  0  0  0  0  0  0  0  0
  -22.8831  -24.2365   24.9332 C   0  0  0  0  0  0  0  0  0  0  0  0
  -23.7176  -21.9076   24.5487 C   0  0  0  0  0  0  0  0  0  0  0  0
  -21.3741  -22.5073   23.9396 C   0  0  0  0  0  0  0  0  0  0  0  0
  -24.6835  -21.9250   17.9747 C   0  0  0  0  0  0  0  0  0  0  0  0
  -31.4375  -27.4395   20.5458 C   0  0  0  0  0  0  0  0  0  0  0  0
  -30.7255  -28.2063   21.6623 C   0  0  0  0  0  0  0  0  0  0  0  0
  -29.2292  -27.9233   21.7300 C   0  0  0  0  0  0  0  0  0  1  0  0
  -23.2831  -23.3804   22.5305 C   0  0  1  0  0  0  0  0  0  0  0  0
  -23.9944  -20.6442   20.0053 C   0  0  2  0  0  0  0  0  0  0  0  0
  -22.8267  -23.0300   23.9750 C   0  0  0  0  0  0  0  0  0  0  0  0
  -28.5732  -14.2538   19.5649 N   0  0  0  0  0  0  0  0  0  0  0  0
  -29.7156  -14.9590   19.6253 N   0  0  0  0  0  0  0  0  0  0  0  0
  -29.4487  -18.6671   20.5382 N   0  0  0  0  0  0  0  0  0  0  0  0
  -23.1634  -25.6476   21.5460 N   0  0  0  0  0  0  0  0  0  0  0  0
  -32.0501  -14.7475   19.9661 N   0  0  0  0  0  0  0  0  0  0  0  0
  -30.5556  -10.5010   20.3263 N   0  0  0  0  0  0  0  0  0  0  0  0
  -20.9553  -27.8842   22.7673 N   0  0  0  0  0  0  0  0  0  0  0  0
  -23.2143  -22.2633   21.5947 N   0  0  0  0  0  0  0  0  0  0  0  0
  -24.8372  -20.6841   18.7769 N   0  3  0  0  0  0  0  0  0  0  0  0
  -32.4202  -11.8327   20.4177 O   0  0  0  0  0  0  0  0  0  0  0  0
  -31.1832  -19.0916   22.0311 O   0  0  0  0  0  0  0  0  0  0  0  0
  -23.2635  -28.1684   22.8858 O   0  0  0  0  0  0  0  0  0  0  0  0
  -21.2478  -24.3389   21.7785 O   0  0  0  0  0  0  0  0  0  0  0  0
  -25.4566  -22.2877   21.0043 O   0  0  0  0  0  0  0  0  0  0  0  0
  -25.2677   -8.8179   19.8362 O   0  0  0  0  0  0  0  0  0  0  0  0
  -28.6378  -28.2843   20.4825 O   0  0  0  0  0  0  0  0  0  1  0  0
  -20.5694   -9.6001   22.6143 F   0  0  0  0  0  0  0  0  0  0  0  0
  -24.5763   -7.1704   21.9457 F   0  0  0  0  0  0  0  0  0  0  0  0
  1  2  1  0  0  0  0
  1  7  2  0  0  0  0
  2  8  2  0  0  0  0
  3 12  2  0  0  0  0
  3 19  1  0  0  0  0
  4 13  1  0  0  0  0
  4 19  2  0  0  0  0
  5 10  2  0  0  0  0
  5 20  1  0  0  0  0
  6 11  1  0  0  0  0
  6 20  2  0  0  0  0
  7 22  1  0  0  0  0
  8 24  1  0  0  0  0
  9 14  2  0  0  0  0
  9 23  1  0  0  0  0
 10 26  1  0  0  0  0
 11 26  2  0  0  0  0
 12 27  1  0  0  0  0
 13 27  2  0  0  0  0
 14 28  1  0  0  0  0
 15 16  2  0  0  0  0
 15 29  1  0  0  0  0
 16 30  1  0  0  0  0
 17 25  1  0  0  0  0
 17 28  2  0  0  0  0
 18 30  2  0  0  0  0
 18 31  1  0  0  0  0
 19 32  1  0  0  0  0
 20 34  1  0  0  0  0
 21 32  1  0  0  0  0
 21 33  2  0  0  0  0
 21 36  1  0  0  0  0
 22 24  2  0  0  0  0
 22 41  1  0  0  0  0
 23 25  2  0  0  0  0
 23 42  1  0  0  0  0
 24 50  1  0  0  0  0
 25 43  1  0  0  0  0
 26 58  1  0  0  0  0
 27 78  1  0  0  0  0
 28 79  1  0  0  0  0
 29 31  2  0  0  0  0
 29 78  1  0  0  0  0
 30 80  1  0  0  0  0
 31 81  1  0  0  0  0
 32 64  2  0  0  0  0
 33 65  1  0  0  0  0
 33 68  1  0  0  0  0
 34 35  2  0  0  0  0
 35 37  1  0  0  0  0
 36 69  1  0  0  0  0
 36 73  2  0  0  0  0
 37 66  1  0  0  0  0
 37 74  2  0  0  0  0
 38 51  1  0  0  0  0
 38 70  1  0  0  0  0
 38 75  2  0  0  0  0
 39 61  1  0  0  0  0
 39 67  1  0  0  0  0
 39 76  2  0  0  0  0
 40 62  1  0  0  0  0
 40 71  1  0  0  0  0
 40 77  2  0  0  0  0
 41 44  1  0  0  0  0
 42 51  1  0  0  0  0
 43 67  1  0  0  0  0
 44 46  1  0  0  0  0
 45 47  1  0  0  0  0
 45 48  1  0  0  0  0
 46 50  1  0  0  0  0
 47 52  1  0  0  0  0
 48 66  1  0  0  0  0
 49 52  1  0  0  0  0
 49 66  1  0  0  0  0
 50 70  1  0  0  0  0
 51 67  1  0  0  0  0
 52 65  1  0  0  0  0
 53 62  1  0  0  0  0
 54 63  1  0  0  0  0
 55 63  1  0  0  0  0
 56 63  1  0  0  0  0
 57 72  1  0  0  0  0
 58 59  1  0  0  0  0
 59 60  1  0  0  0  0
 60 79  1  0  0  0  0
 61 63  1  0  0  0  0
 61 71  1  0  0  0  0
 62 72  1  0  0  0  0
 64 65  1  0  0  0  0
M  CHG  1  72   1
M  ISO  4  35 100  37 100  60 101  79 101
M  END
> <Batch ID>
0129

> <Smiles>
CNC(C)C(=O)NC(C(=O)N1Cc2cc([101O:1][101CH2:1]CCc3ccc(C=[100CH:0][100C:0](=O)N4CCCC(n5nc(-c6ccc(Oc7ccc(F)cc7F)cc6)c(C(N)=O)c5N)C4)cc3)ccc2CC1C(=O)NC1CCCc2ccccc21)C(C)(C)C

> <Shape>
0.241

> <Color>
0.090

> <Negative vol penalty>
0.000

$$$$

  -OEChem-04052302193D

 83 91  0     1  0  0  0  0  0999 V2000
  -30.0646  -33.5625   23.7044 C   0  0  0  0  0  0  0  0  0  0  0  0
  -30.5719  -32.4212   24.3173 C   0  0  0  0  0  0  0  0  0  0  0  0
  -23.0719   -9.8759   19.9433 C   0  0  0  0  0  0  0  0  0  0  0  0
  -23.8309   -9.8835   22.2370 C   0  0  0  0  0  0  0  0  0  0  0  0
  -32.6912  -17.4514   23.4309 C   0  0  0  0  0  0  0  0  0  0  0  0
  -28.7647  -33.5622   23.2002 C   0  0  0  0  0  0  0  0  0  0  0  0
  -29.7791  -31.2794   24.4274 C   0  0  0  0  0  0  0  0  0  0  0  0
  -31.6516  -25.4557   24.1378 C   0  0  0  0  0  0  0  0  0  0  0  0
  -32.0824  -16.5754   22.5321 C   0  0  0  0  0  0  0  0  0  0  0  0
  -22.3240   -8.7257   20.1945 C   0  0  0  0  0  0  0  0  0  0  0  0
  -23.0829   -8.7332   22.4882 C   0  0  0  0  0  0  0  0  0  0  0  0
  -31.9386  -24.5125   25.1237 C   0  0  0  0  0  0  0  0  0  0  0  0
  -19.8519   -7.9472   23.0905 C   0  0  0  0  0  0  0  0  0  0  0  0
  -19.0943   -7.9115   24.2612 C   0  0  0  0  0  0  0  0  0  0  0  0
  -30.5251  -18.3305   24.0411 C   0  0  0  0  0  0  0  0  0  0  0  0
  -29.7096  -23.6162   24.9065 C   0  0  0  0  0  0  0  0  0  0  0  0
  -20.3288   -5.9709   25.0008 C   0  0  0  0  0  0  0  0  0  0  0  0
  -23.8254  -10.4548   20.9645 C   0  0  0  0  0  0  0  0  0  0  0  0
  -31.9125  -18.3289   24.1854 C   0  0  0  0  0  0  0  0  0  0  0  0
  -24.1759  -12.9786   20.8411 C   0  0  0  0  0  0  0  0  0  0  0  0
  -27.9589  -32.4166   23.2956 C   0  0  0  0  0  0  0  0  0  0  0  0
  -30.3858  -25.4932   23.5356 C   0  0  0  0  0  0  0  0  0  0  0  0
  -28.4668  -31.2642   23.9252 C   0  0  0  0  0  0  0  0  0  0  0  0
  -29.4099  -24.5591   23.9114 C   0  0  0  0  0  0  0  0  0  0  0  0
  -29.9164  -17.4546   23.1423 C   0  0  0  0  0  0  0  0  0  0  0  0
  -30.6951  -16.5770   22.3878 C   0  0  0  0  0  0  0  0  0  0  0  0
  -22.3295   -8.1543   21.4670 C   0  0  0  0  0  0  0  0  0  0  0  0
  -30.9666  -23.5945   25.5102 C   0  0  0  0  0  0  0  0  0  0  0  0
  -20.8479   -6.9947   22.8750 C   0  0  0  0  0  0  0  0  0  0  0  0
  -19.3328   -6.9234   25.2163 C   0  0  0  0  0  0  0  0  0  0  0  0
  -21.0864   -6.0066   23.8301 C   0  0  0  0  0  0  0  0  0  0  0  0
  -24.5986  -11.6427   20.7054 C   0  0  0  0  0  0  0  0  0  0  0  0
  -25.2707  -13.7239   20.4773 C   0  0  0  0  0  0  0  0  0  0  0  0
  -32.5557  -19.2532   25.1340 C   0  0  0  0  0  0  0  0  0  0  0  0
  -31.9406  -19.8558   26.1637 C   0  0  0  0  0  0  0  0  0  0  0  0
  -22.9070  -13.4994   21.2588 C   0  0  0  0  0  0  0  0  0  0  0  0
  -28.0440  -27.6360   23.3682 C   0  0  0  0  0  0  0  0  0  0  0  0
  -26.7390  -25.4748   21.3315 C   0  0  0  0  0  0  0  0  0  0  0  0
  -26.5419  -22.2329   20.2835 C   0  0  0  0  0  0  0  0  0  0  0  0
  -30.7403  -14.7511   20.6528 C   0  0  0  0  0  0  0  0  0  0  0  0
  -26.5437  -32.4794   22.7780 C   0  0  0  0  0  0  0  0  0  0  0  0
  -30.1007  -26.4996   22.4547 C   0  0  0  0  0  0  0  0  0  0  0  0
  -28.0420  -24.5443   23.2813 C   0  0  0  0  0  0  0  0  0  0  0  0
  -25.8986  -31.1073   22.6005 C   0  0  0  0  0  0  0  0  0  0  0  0
  -29.6187  -12.3379   18.2874 C   0  0  0  0  0  0  0  0  0  0  0  0
  -26.1466  -30.2379   23.8291 C   0  0  0  0  0  0  0  0  0  0  0  0
  -28.1779  -12.0518   18.7168 C   0  0  0  0  0  0  0  0  0  0  0  0
  -30.5341  -12.5652   19.4891 C   0  0  0  0  0  0  0  0  0  0  0  0
  -28.6291  -13.2981   20.8686 C   0  0  0  0  0  0  0  0  0  0  0  0
  -27.6462  -29.9980   24.0416 C   0  0  1  0  0  0  0  0  0  0  0  0
  -28.6114  -26.7767   22.2740 C   0  0  1  0  0  0  0  0  0  0  0  0
  -27.6561  -13.1265   19.6906 C   0  0  2  0  0  0  0  0  0  0  0  0
  -27.9733  -18.2022   21.7451 C   0  0  0  0  0  0  0  0  0  0  0  0
  -25.3601  -20.7674   18.6243 C   0  0  0  0  0  0  0  0  0  0  0  0
  -24.2221  -25.5580   23.0544 C   0  0  0  0  0  0  0  0  0  0  0  0
  -23.4772  -23.4406   21.9455 C   0  0  0  0  0  0  0  0  0  0  0  0
  -23.7983  -25.5100   20.5902 C   0  0  0  0  0  0  0  0  0  0  0  0
  -29.0832  -21.4696   18.9728 C   0  0  0  0  0  0  0  0  0  0  0  0
  -28.4282  -17.4777   23.0081 C   0  0  0  0  0  0  0  0  0  0  0  0
  -32.6341  -20.8047   27.1026 C   0  0  0  0  0  0  0  0  0  0  0  0
  -32.5981  -22.2372   26.5836 C   0  0  0  0  0  0  0  0  0  1  0  0
  -25.8228  -24.2841   21.4793 C   0  0  1  0  0  0  0  0  0  0  0  0
  -26.5911  -21.6179   18.8965 C   0  0  2  0  0  0  0  0  0  0  0  0
  -24.3551  -24.6994   21.7808 C   0  0  0  0  0  0  0  0  0  0  0  0
  -25.8633  -11.5420   20.2878 N   0  0  0  0  0  0  0  0  0  0  0  0
  -26.2446  -12.8241   20.1578 N   0  0  0  0  0  0  0  0  0  0  0  0
  -27.8095  -25.5521   22.2335 N   0  0  0  0  0  0  0  0  0  0  0  0
  -29.9783  -13.5991   20.3648 N   0  0  0  0  0  0  0  0  0  0  0  0
  -25.4857  -15.0545   20.4025 N   0  0  0  0  0  0  0  0  0  0  0  0
  -21.8918  -12.5941   21.5969 N   0  0  0  0  0  0  0  0  0  0  0  0
  -30.0958  -15.6795   21.4696 N   0  0  0  0  0  0  0  0  0  0  0  0
  -28.1327  -28.9927   23.1212 N   0  0  0  0  0  0  0  0  0  0  0  0
  -25.9823  -23.4929   20.2640 N   0  0  0  0  0  0  0  0  0  0  0  0
  -27.7986  -20.7561   18.7544 N   0  3  0  0  0  0  0  0  0  0  0  0
  -22.6749  -14.7308   21.3143 O   0  0  0  0  0  0  0  0  0  0  0  0
  -27.5601  -27.1073   24.3622 O   0  0  0  0  0  0  0  0  0  0  0  0
  -26.5172  -26.3019   20.4436 O   0  0  0  0  0  0  0  0  0  0  0  0
  -26.9551  -21.6520   21.2847 O   0  0  0  0  0  0  0  0  0  0  0  0
  -31.8702  -14.9154   20.1854 O   0  0  0  0  0  0  0  0  0  0  0  0
  -21.5996   -7.0320   21.7126 O   0  0  0  0  0  0  0  0  0  0  0  0
  -31.2438  -22.6732   26.4727 O   0  0  0  0  0  0  0  0  0  1  0  0
  -18.6063   -6.8901   26.3412 F   0  0  0  0  0  0  0  0  0  0  0  0
  -22.0426   -5.0896   23.6292 F   0  0  0  0  0  0  0  0  0  0  0  0
  1  2  1  0  0  0  0
  1  6  2  0  0  0  0
  2  7  2  0  0  0  0
  3 10  2  0  0  0  0
  3 18  1  0  0  0  0
  4 11  1  0  0  0  0
  4 18  2  0  0  0  0
  5  9  2  0  0  0  0
  5 19  1  0  0  0  0
  6 21  1  0  0  0  0
  7 23  1  0  0  0  0
  8 12  2  0  0  0  0
  8 22  1  0  0  0  0
  9 26  1  0  0  0  0
 10 27  1  0  0  0  0
 11 27  2  0  0  0  0
 12 28  1  0  0  0  0
 13 14  2  0  0  0  0
 13 29  1  0  0  0  0
 14 30  1  0  0  0  0
 15 19  2  0  0  0  0
 15 25  1  0  0  0  0
 16 24  1  0  0  0  0
 16 28  2  0  0  0  0
 17 30  2  0  0  0  0
 17 31  1  0  0  0  0
 18 32  1  0  0  0  0
 19 34  1  0  0  0  0
 20 32  1  0  0  0  0
 20 33  2  0  0  0  0
 20 36  1  0  0  0  0
 21 23  2  0  0  0  0
 21 41  1  0  0  0  0
 22 24  2  0  0  0  0
 22 42  1  0  0  0  0
 23 50  1  0  0  0  0
 24 43  1  0  0  0  0
 25 26  2  0  0  0  0
 25 59  1  0  0  0  0
 26 71  1  0  0  0  0
 27 80  1  0  0  0  0
 28 81  1  0  0  0  0
 29 31  2  0  0  0  0
 29 80  1  0  0  0  0
 30 82  1  0  0  0  0
 31 83  1  0  0  0  0
 32 65  2  0  0  0  0
 33 66  1  0  0  0  0
 33 69  1  0  0  0  0
 34 35  2  0  0  0  0
 35 60  1  0  0  0  0
 36 70  1  0  0  0  0
 36 75  2  0  0  0  0
 37 51  1  0  0  0  0
 37 72  1  0  0  0  0
 37 76  2  0  0  0  0
 38 62  1  0  0  0  0
 38 67  1  0  0  0  0
 38 77  2  0  0  0  0
 39 63  1  0  0  0  0
 39 73  1  0  0  0  0
 39 78  2  0  0  0  0
 40 68  1  0  0  0  0
 40 71  1  0  0  0  0
 40 79  2  0  0  0  0
 41 44  1  0  0  0  0
 42 51  1  0  0  0  0
 43 67  1  0  0  0  0
 44 46  1  0  0  0  0
 45 47  1  0  0  0  0
 45 48  1  0  0  0  0
 46 50  1  0  0  0  0
 47 52  1  0  0  0  0
 48 68  1  0  0  0  0
 49 52  1  0  0  0  0
 49 68  1  0  0  0  0
 50 72  1  0  0  0  0
 51 67  1  0  0  0  0
 52 66  1  0  0  0  0
 53 59  1  0  0  0  0
 54 63  1  0  0  0  0
 55 64  1  0  0  0  0
 56 64  1  0  0  0  0
 57 64  1  0  0  0  0
 58 74  1  0  0  0  0
 60 61  1  0  0  0  0
 61 81  1  0  0  0  0
 62 64  1  0  0  0  0
 62 73  1  0  0  0  0
 63 74  1  0  0  0  0
 65 66  1  0  0  0  0
M  CHG  1  74   1
M  ISO  4  40 100  61 101  71 100  81 101
M  END
> <Batch ID>
0129

> <Smiles>
CCc1cc(C=CC[101CH2:1][101O:1]c2ccc3c(c2)CN(C(=O)C(NC(=O)C(C)NC)C(C)(C)C)C(C(=O)NC2CCCc4ccccc42)C3)ccc1[100NH:0][100C:0](=O)N1CCCC(n2nc(-c3ccc(Oc4ccc(F)cc4F)cc3)c(C(N)=O)c2N)C1

> <Shape>
0.238

> <Color>
0.196

> <Negative vol penalty>
0.000

$$$$

  -OEChem-04052302193D

 83 91  0     1  0  0  0  0  0999 V2000
  -25.5922  -36.9606   22.1623 C   0  0  0  0  0  0  0  0  0  0  0  0
  -26.2963  -35.8716   21.6585 C   0  0  0  0  0  0  0  0  0  0  0  0
  -26.6259  -13.1195   21.9447 C   0  0  0  0  0  0  0  0  0  0  0  0
  -25.7153  -14.7266   20.3874 C   0  0  0  0  0  0  0  0  0  0  0  0
  -24.7046  -36.7851   23.2231 C   0  0  0  0  0  0  0  0  0  0  0  0
  -26.1140  -34.6066   22.2160 C   0  0  0  0  0  0  0  0  0  0  0  0
  -26.2398  -29.2352   19.2769 C   0  0  0  0  0  0  0  0  0  0  0  0
  -25.4014  -12.4521   21.9719 C   0  0  0  0  0  0  0  0  0  0  0  0
  -24.4908  -14.0592   20.4145 C   0  0  0  0  0  0  0  0  0  0  0  0
  -27.2347  -28.2697   19.1295 C   0  0  0  0  0  0  0  0  0  0  0  0
  -22.6232  -10.1162   22.1728 C   0  0  0  0  0  0  0  0  0  0  0  0
  -22.6410   -8.7244   22.0824 C   0  0  0  0  0  0  0  0  0  0  0  0
  -26.2976  -27.0312   20.9754 C   0  0  0  0  0  0  0  0  0  0  0  0
  -33.2478  -22.1782   17.7133 C   0  0  0  0  0  0  0  0  0  0  0  0
  -32.5376  -22.8760   20.3193 C   0  0  0  0  0  0  0  0  0  0  0  0
  -23.7263   -8.8782   19.9293 C   0  0  0  0  0  0  0  0  0  0  0  0
  -26.7828  -14.2568   21.1524 C   0  0  0  0  0  0  0  0  0  0  0  0
  -29.1253  -14.7112   20.2503 C   0  0  0  0  0  0  0  0  0  0  0  0
  -24.5042  -35.5155   23.7876 C   0  0  0  0  0  0  0  0  0  0  0  0
  -25.2712  -29.1114   20.2833 C   0  0  0  0  0  0  0  0  0  0  0  0
  -25.2239  -34.4141   23.2863 C   0  0  0  0  0  0  0  0  0  0  0  0
  -25.2900  -27.9952   21.1318 C   0  0  0  0  0  0  0  0  0  0  0  0
  -33.3507  -23.5045   18.1327 C   0  0  0  0  0  0  0  0  0  0  0  0
  -32.7898  -21.2008   18.5968 C   0  0  0  0  0  0  0  0  0  0  0  0
  -32.9956  -23.8534   19.4357 C   0  0  0  0  0  0  0  0  0  0  0  0
  -32.4348  -21.5497   19.8998 C   0  0  0  0  0  0  0  0  0  0  0  0
  -24.3339  -12.9219   21.2068 C   0  0  0  0  0  0  0  0  0  0  0  0
  -27.2654  -27.1690   19.9807 C   0  0  0  0  0  0  0  0  0  0  0  0
  -23.1568  -10.8890   21.1414 C   0  0  0  0  0  0  0  0  0  0  0  0
  -23.1926   -8.1054   20.9607 C   0  0  0  0  0  0  0  0  0  0  0  0
  -23.7083  -10.2700   20.0197 C   0  0  0  0  0  0  0  0  0  0  0  0
  -28.0473  -14.9470   21.1244 C   0  0  0  0  0  0  0  0  0  0  0  0
  -30.0809  -15.6218   20.6301 C   0  0  0  0  0  0  0  0  0  0  0  0
  -29.2517  -13.7545   19.1899 C   0  0  0  0  0  0  0  0  0  0  0  0
  -24.4446  -30.8318   22.8250 C   0  0  0  0  0  0  0  0  0  0  0  0
  -22.0315  -28.6725   23.0163 C   0  0  0  0  0  0  0  0  0  0  0  0
  -20.8701  -25.5519   22.2684 C   0  0  0  0  0  0  0  0  0  0  0  0
  -31.5786  -20.7686   22.1366 C   0  0  0  0  0  0  0  0  0  0  0  0
  -23.5696  -35.3834   24.9640 C   0  0  0  0  0  0  0  0  0  0  0  0
  -24.1888  -30.1479   20.4120 C   0  0  0  0  0  0  0  0  0  0  0  0
  -24.2611  -27.8052   22.2151 C   0  0  0  0  0  0  0  0  0  0  0  0
  -23.1536  -33.9433   25.2527 C   0  0  0  0  0  0  0  0  0  0  0  0
  -30.3361  -18.6269   24.6952 C   0  0  0  0  0  0  0  0  0  0  0  0
  -24.3688  -33.0217   25.2294 C   0  0  0  0  0  0  0  0  0  0  0  0
  -29.7186  -17.4592   23.9224 C   0  0  0  0  0  0  0  0  0  0  0  0
  -30.1204  -19.9587   23.9785 C   0  0  0  0  0  0  0  0  0  0  0  0
  -29.9356  -18.8182   21.8027 C   0  0  0  0  0  0  0  0  0  0  0  0
  -25.0348  -33.0217   23.8481 C   0  0  1  0  0  0  0  0  0  0  0  0
  -23.5574  -30.1832   21.8003 C   0  0  1  0  0  0  0  0  0  0  0  0
  -30.1835  -17.4473   22.4530 C   0  0  2  0  0  0  0  0  0  0  0  0
  -33.8432  -24.5337   17.1690 C   0  0  0  0  0  0  0  0  0  0  0  0
  -32.6898  -19.7880   18.1205 C   0  0  0  0  0  0  0  0  0  0  0  0
  -18.8765  -24.0622   22.5910 C   0  0  0  0  0  0  0  0  0  0  0  0
  -22.8760  -28.1720   25.9053 C   0  0  0  0  0  0  0  0  0  0  0  0
  -21.5208  -26.0673   25.8635 C   0  0  0  0  0  0  0  0  0  0  0  0
  -20.4034  -28.2746   25.5440 C   0  0  0  0  0  0  0  0  0  0  0  0
  -20.4021  -25.3520   19.3529 C   0  0  0  0  0  0  0  0  0  0  0  0
  -33.0981  -25.2806   19.9116 C   0  0  0  0  0  0  0  0  0  0  0  0
  -31.9737  -26.1868   19.3981 C   0  0  0  0  0  0  0  0  0  0  0  0
  -30.5901  -25.7629   19.8929 C   0  0  0  0  0  0  0  0  0  0  0  0
  -29.4961  -26.6609   19.3313 C   0  0  0  0  0  0  0  0  0  1  0  0
  -21.8445  -27.3352   23.6913 C   0  0  1  0  0  0  0  0  0  0  0  0
  -19.5499  -25.0814   21.6851 C   0  0  2  0  0  0  0  0  0  0  0  0
  -21.6819  -27.4665   25.2319 C   0  0  0  0  0  0  0  0  0  0  0  0
  -28.2942  -15.9303   21.9940 N   0  0  0  0  0  0  0  0  0  0  0  0
  -29.5384  -16.3203   21.6683 N   0  0  0  0  0  0  0  0  0  0  0  0
  -23.2268  -28.8490   22.3050 N   0  0  0  0  0  0  0  0  0  0  0  0
  -30.5881  -19.8736   22.5933 N   0  0  0  0  0  0  0  0  0  0  0  0
  -31.3239  -15.8851   20.1739 N   0  0  0  0  0  0  0  0  0  0  0  0
  -28.1747  -12.8949   18.9336 N   0  0  0  0  0  0  0  0  0  0  0  0
  -31.9676  -20.5713   20.8121 N   0  0  0  0  0  0  0  0  0  0  0  0
  -24.2823  -32.2005   22.9241 N   0  0  0  0  0  0  0  0  0  0  0  0
  -20.7162  -26.6952   23.0237 N   0  0  0  0  0  0  0  0  0  0  0  0
  -19.7674  -24.4534   20.3512 N   0  3  0  0  0  0  0  0  0  0  0  0
  -30.2951  -13.6536   18.5009 O   0  0  0  0  0  0  0  0  0  0  0  0
  -25.2179  -30.1414   23.4784 O   0  0  0  0  0  0  0  0  0  0  0  0
  -21.1463  -29.5265   23.1106 O   0  0  0  0  0  0  0  0  0  0  0  0
  -21.9310  -24.9619   22.0765 O   0  0  0  0  0  0  0  0  0  0  0  0
  -32.0669  -21.6280   22.8749 O   0  0  0  0  0  0  0  0  0  0  0  0
  -23.1389  -12.2707   21.2329 O   0  0  0  0  0  0  0  0  0  0  0  0
  -28.2358  -26.2254   19.8395 O   0  0  0  0  0  0  0  0  0  1  0  0
  -23.2111   -6.7688   20.8748 F   0  0  0  0  0  0  0  0  0  0  0  0
  -24.2235  -11.0071   19.0262 F   0  0  0  0  0  0  0  0  0  0  0  0
  1  2  1  0  0  0  0
  1  5  2  0  0  0  0
  2  6  2  0  0  0  0
  3  8  2  0  0  0  0
  3 17  1  0  0  0  0
  4  9  1  0  0  0  0
  4 17  2  0  0  0  0
  5 19  1  0  0  0  0
  6 21  1  0  0  0  0
  7 10  2  0  0  0  0
  7 20  1  0  0  0  0
  8 27  1  0  0  0  0
  9 27  2  0  0  0  0
 10 28  1  0  0  0  0
 11 12  2  0  0  0  0
 11 29  1  0  0  0  0
 12 30  1  0  0  0  0
 13 22  1  0  0  0  0
 13 28  2  0  0  0  0
 14 23  1  0  0  0  0
 14 24  2  0  0  0  0
 15 25  1  0  0  0  0
 15 26  2  0  0  0  0
 16 30  2  0  0  0  0
 16 31  1  0  0  0  0
 17 32  1  0  0  0  0
 18 32  1  0  0  0  0
 18 33  2  0  0  0  0
 18 34  1  0  0  0  0
 19 21  2  0  0  0  0
 19 39  1  0  0  0  0
 20 22  2  0  0  0  0
 20 40  1  0  0  0  0
 21 48  1  0  0  0  0
 22 41  1  0  0  0  0
 23 25  2  0  0  0  0
 23 51  1  0  0  0  0
 24 26  1  0  0  0  0
 24 52  1  0  0  0  0
 25 58  1  0  0  0  0
 26 71  1  0  0  0  0
 27 80  1  0  0  0  0
 28 81  1  0  0  0  0
 29 31  2  0  0  0  0
 29 80  1  0  0  0  0
 30 82  1  0  0  0  0
 31 83  1  0  0  0  0
 32 65  2  0  0  0  0
 33 66  1  0  0  0  0
 33 69  1  0  0  0  0
 34 70  1  0  0  0  0
 34 75  2  0  0  0  0
 35 49  1  0  0  0  0
 35 72  1  0  0  0  0
 35 76  2  0  0  0  0
 36 62  1  0  0  0  0
 36 67  1  0  0  0  0
 36 77  2  0  0  0  0
 37 63  1  0  0  0  0
 37 73  1  0  0  0  0
 37 78  2  0  0  0  0
 38 68  1  0  0  0  0
 38 71  1  0  0  0  0
 38 79  2  0  0  0  0
 39 42  1  0  0  0  0
 40 49  1  0  0  0  0
 41 67  1  0  0  0  0
 42 44  1  0  0  0  0
 43 45  1  0  0  0  0
 43 46  1  0  0  0  0
 44 48  1  0  0  0  0
 45 50  1  0  0  0  0
 46 68  1  0  0  0  0
 47 50  1  0  0  0  0
 47 68  1  0  0  0  0
 48 72  1  0  0  0  0
 49 67  1  0  0  0  0
 50 66  1  0  0  0  0
 53 63  1  0  0  0  0
 54 64  1  0  0  0  0
 55 64  1  0  0  0  0
 56 64  1  0  0  0  0
 57 74  1  0  0  0  0
 58 59  1  0  0  0  0
 59 60  1  0  0  0  0
 60 61  1  0  0  0  0
 61 81  1  0  0  0  0
 62 64  1  0  0  0  0
 62 73  1  0  0  0  0
 63 74  1  0  0  0  0
 65 66  1  0  0  0  0
M  CHG  1  74   1
M  ISO  4  38 100  61 101  71 100  81 101
M  END
> <Batch ID>
0129

> <Smiles>
CNC(C)C(=O)NC(C(=O)N1Cc2cc([101O:1][101CH2:1]CCCc3cc([100NH:0][100C:0](=O)N4CCCC(n5nc(-c6ccc(Oc7ccc(F)cc7F)cc6)c(C(N)=O)c5N)C4)c(C)cc3C)ccc2CC1C(=O)NC1CCCc2ccccc21)C(C)(C)C

> <Shape>
0.283

> <Color>
0.065

> <Negative vol penalty>
0.000

$$$$

  -OEChem-04052302193D

 83 91  0     1  0  0  0  0  0999 V2000
  -16.7095  -29.7045   22.9739 C   0  0  0  0  0  0  0  0  0  0  0  0
  -17.8398  -30.3649   22.5030 C   0  0  0  0  0  0  0  0  0  0  0  0
  -26.3822  -13.8286   21.7220 C   0  0  0  0  0  0  0  0  0  0  0  0
  -25.9703  -12.8386   19.5570 C   0  0  0  0  0  0  0  0  0  0  0  0
  -16.8419  -28.4870   23.6403 C   0  0  0  0  0  0  0  0  0  0  0  0
  -19.1033  -29.8085   22.6991 C   0  0  0  0  0  0  0  0  0  0  0  0
  -25.5345  -29.3226   19.5815 C   0  0  0  0  0  0  0  0  0  0  0  0
  -25.2374  -13.2090   22.2231 C   0  0  0  0  0  0  0  0  0  0  0  0
  -24.8255  -12.2189   20.0581 C   0  0  0  0  0  0  0  0  0  0  0  0
  -26.8847  -29.5316   19.8592 C   0  0  0  0  0  0  0  0  0  0  0  0
  -24.0811   -9.5097   21.9360 C   0  0  0  0  0  0  0  0  0  0  0  0
  -23.8785   -8.1678   21.6136 C   0  0  0  0  0  0  0  0  0  0  0  0
  -30.9731  -25.1151   19.0922 C   0  0  0  0  0  0  0  0  0  0  0  0
  -30.3471  -24.3344   16.8932 C   0  0  0  0  0  0  0  0  0  0  0  0
  -31.1596  -26.5904   17.1881 C   0  0  0  0  0  0  0  0  0  0  0  0
  -26.9857  -27.3846   20.9542 C   0  0  0  0  0  0  0  0  0  0  0  0
  -21.7920   -8.7411   20.5388 C   0  0  0  0  0  0  0  0  0  0  0  0
  -26.7486  -13.6434   20.3889 C   0  0  0  0  0  0  0  0  0  0  0  0
  -30.4936  -24.1028   18.2609 C   0  0  0  0  0  0  0  0  0  0  0  0
  -31.3061  -26.3589   18.5558 C   0  0  0  0  0  0  0  0  0  0  0  0
  -29.2405  -13.7677   19.8571 C   0  0  0  0  0  0  0  0  0  0  0  0
  -18.1069  -27.9107   23.8361 C   0  0  0  0  0  0  0  0  0  0  0  0
  -24.8961  -28.1457   19.9983 C   0  0  0  0  0  0  0  0  0  0  0  0
  -19.2528  -28.5828   23.3699 C   0  0  0  0  0  0  0  0  0  0  0  0
  -25.6280  -27.1618   20.6783 C   0  0  0  0  0  0  0  0  0  0  0  0
  -30.6801  -25.5782   16.3568 C   0  0  0  0  0  0  0  0  0  0  0  0
  -24.4591  -12.4042   21.3912 C   0  0  0  0  0  0  0  0  0  0  0  0
  -27.6098  -28.5639   20.5482 C   0  0  0  0  0  0  0  0  0  0  0  0
  -23.1391  -10.4673   21.5598 C   0  0  0  0  0  0  0  0  0  0  0  0
  -22.7340   -7.7835   20.9150 C   0  0  0  0  0  0  0  0  0  0  0  0
  -21.9946  -10.0830   20.8612 C   0  0  0  0  0  0  0  0  0  0  0  0
  -27.9308  -14.2837   19.8705 C   0  0  0  0  0  0  0  0  0  0  0  0
  -29.9914  -14.7524   19.2630 C   0  0  0  0  0  0  0  0  0  0  0  0
  -30.1468  -22.8056   18.8201 C   0  0  0  0  0  0  0  0  0  0  0  0
  -31.8108  -27.4232   19.4297 C   0  0  0  0  0  0  0  0  0  0  0  0
  -29.3401  -21.8925   18.2386 C   0  0  0  0  0  0  0  0  0  0  0  0
  -29.7341  -12.5106   20.3385 C   0  0  0  0  0  0  0  0  0  0  0  0
  -31.1578  -27.9682   20.4744 C   0  0  0  0  0  0  0  0  0  0  0  0
  -29.0915  -20.6118   18.9306 C   0  0  0  0  0  0  0  0  0  0  0  0
  -22.4808  -27.4756   21.9531 C   0  0  0  0  0  0  0  0  0  0  0  0
  -22.9226  -24.4629   20.8349 C   0  0  0  0  0  0  0  0  0  0  0  0
  -25.0250  -22.1766   19.4208 C   0  0  0  0  0  0  0  0  0  0  0  0
  -18.2038  -26.6160   24.6037 C   0  0  0  0  0  0  0  0  0  0  0  0
  -23.4457  -27.9236   19.6674 C   0  0  0  0  0  0  0  0  0  0  0  0
  -24.9943  -25.8722   21.1297 C   0  0  0  0  0  0  0  0  0  0  0  0
  -19.5477  -25.9105   24.4409 C   0  0  0  0  0  0  0  0  0  0  0  0
  -29.6827  -18.3307   16.1237 C   0  0  0  0  0  0  0  0  0  0  0  0
  -20.6949  -26.9015   24.6107 C   0  0  0  0  0  0  0  0  0  0  0  0
  -29.3691  -16.9835   16.7690 C   0  0  0  0  0  0  0  0  0  0  0  0
  -28.8005  -19.4488   16.6769 C   0  0  0  0  0  0  0  0  0  0  0  0
  -28.5312  -18.2151   18.8090 C   0  0  0  0  0  0  0  0  0  0  0  0
  -20.6385  -27.9992   23.5414 C   0  0  1  0  0  0  0  0  0  0  0  0
  -22.7702  -26.9136   20.5900 C   0  0  1  0  0  0  0  0  0  0  0  0
  -29.4393  -17.0843   18.3010 C   0  0  1  0  0  0  0  0  0  0  0  0
  -30.5243  -25.8257   14.8944 C   0  0  0  0  0  0  0  0  0  0  0  0
  -31.8145  -29.0511   21.2909 C   0  0  0  0  0  0  0  0  0  0  0  0
  -25.1125  -19.7865   18.6610 C   0  0  0  0  0  0  0  0  0  0  0  0
  -23.1316  -23.5498   23.7388 C   0  0  0  0  0  0  0  0  0  0  0  0
  -24.1423  -21.4104   22.9205 C   0  0  0  0  0  0  0  0  0  0  0  0
  -21.8169  -22.0230   22.2572 C   0  0  0  0  0  0  0  0  0  0  0  0
  -25.5943  -22.9647   16.6255 C   0  0  0  0  0  0  0  0  0  0  0  0
  -29.7587  -27.6085   20.9022 C   0  0  0  0  0  0  0  0  0  1  0  0
  -23.7651  -23.2811   21.2503 C   0  0  1  0  0  0  0  0  0  0  0  0
  -24.8400  -21.2257   18.2520 C   0  0  2  0  0  0  0  0  0  0  0  0
  -23.2257  -22.5911   22.5350 C   0  0  0  0  0  0  0  0  0  0  0  0
  -27.8508  -15.5017   19.3282 N   0  0  0  0  0  0  0  0  0  0  0  0
  -29.1198  -15.7593   18.9685 N   0  0  0  0  0  0  0  0  0  0  0  0
  -28.8390  -19.4875   18.1465 N   0  0  0  0  0  0  0  0  0  0  0  0
  -23.5721  -25.7045   20.7881 N   0  0  0  0  0  0  0  0  0  0  0  0
  -31.3056  -14.8466   18.9692 N   0  0  0  0  0  0  0  0  0  0  0  0
  -28.8268  -11.6154   20.9213 N   0  0  0  0  0  0  0  0  0  0  0  0
  -21.1380  -27.5002   22.2781 N   0  0  0  0  0  0  0  0  0  0  0  0
  -23.8394  -22.4037   20.0871 N   0  0  0  0  0  0  0  0  0  0  0  0
  -25.7680  -21.5826   17.1419 N   0  3  0  0  0  0  0  0  0  0  0  0
  -30.9469  -12.1975   20.2692 O   0  0  0  0  0  0  0  0  0  0  0  0
  -29.1179  -20.6167   20.1627 O   0  0  0  0  0  0  0  0  0  0  0  0
  -23.4074  -27.8572   22.6585 O   0  0  0  0  0  0  0  0  0  0  0  0
  -21.7338  -24.2894   20.5551 O   0  0  0  0  0  0  0  0  0  0  0  0
  -26.1133  -22.6658   19.7156 O   0  0  0  0  0  0  0  0  0  0  0  0
  -23.3420  -11.7992   21.8799 O   0  0  0  0  0  0  0  0  0  0  0  0
  -28.9276  -28.7657   20.8212 O   0  0  0  0  0  0  0  0  0  1  0  0
  -22.5403   -6.4951   20.6041 F   0  0  0  0  0  0  0  0  0  0  0  0
  -21.0867  -10.9985   20.4961 F   0  0  0  0  0  0  0  0  0  0  0  0
  1  2  1  0  0  0  0
  1  5  2  0  0  0  0
  2  6  2  0  0  0  0
  3  8  2  0  0  0  0
  3 18  1  0  0  0  0
  4  9  1  0  0  0  0
  4 18  2  0  0  0  0
  5 22  1  0  0  0  0
  6 24  1  0  0  0  0
  7 10  2  0  0  0  0
  7 23  1  0  0  0  0
  8 27  1  0  0  0  0
  9 27  2  0  0  0  0
 10 28  1  0  0  0  0
 11 12  2  0  0  0  0
 11 29  1  0  0  0  0
 12 30  1  0  0  0  0
 13 19  1  0  0  0  0
 13 20  2  0  0  0  0
 14 19  2  0  0  0  0
 14 26  1  0  0  0  0
 15 20  1  0  0  0  0
 15 26  2  0  0  0  0
 16 25  1  0  0  0  0
 16 28  2  0  0  0  0
 17 30  2  0  0  0  0
 17 31  1  0  0  0  0
 18 32  1  0  0  0  0
 19 34  1  0  0  0  0
 20 35  1  0  0  0  0
 21 32  1  0  0  0  0
 21 33  2  0  0  0  0
 21 37  1  0  0  0  0
 22 24  2  0  0  0  0
 22 43  1  0  0  0  0
 23 25  2  0  0  0  0
 23 44  1  0  0  0  0
 24 52  1  0  0  0  0
 25 45  1  0  0  0  0
 26 55  1  0  0  0  0
 27 80  1  0  0  0  0
 28 81  1  0  0  0  0
 29 31  2  0  0  0  0
 29 80  1  0  0  0  0
 30 82  1  0  0  0  0
 31 83  1  0  0  0  0
 32 66  2  0  0  0  0
 33 67  1  0  0  0  0
 33 70  1  0  0  0  0
 34 36  2  0  0  0  0
 35 38  2  0  0  0  0
 36 39  1  0  0  0  0
 37 71  1  0  0  0  0
 37 75  2  0  0  0  0
 38 56  1  0  0  0  0
 38 62  1  0  0  0  0
 39 68  1  0  0  0  0
 39 76  2  0  0  0  0
 40 53  1  0  0  0  0
 40 72  1  0  0  0  0
 40 77  2  0  0  0  0
 41 63  1  0  0  0  0
 41 69  1  0  0  0  0
 41 78  2  0  0  0  0
 42 64  1  0  0  0  0
 42 73  1  0  0  0  0
 42 79  2  0  0  0  0
 43 46  1  0  0  0  0
 44 53  1  0  0  0  0
 45 69  1  0  0  0  0
 46 48  1  0  0  0  0
 47 49  1  0  0  0  0
 47 50  1  0  0  0  0
 48 52  1  0  0  0  0
 49 54  1  0  0  0  0
 50 68  1  0  0  0  0
 51 54  1  0  0  0  0
 51 68  1  0  0  0  0
 52 72  1  0  0  0  0
 53 69  1  0  0  0  0
 54 67  1  0  0  0  0
 57 64  1  0  0  0  0
 58 65  1  0  0  0  0
 59 65  1  0  0  0  0
 60 65  1  0  0  0  0
 61 74  1  0  0  0  0
 62 81  1  0  0  0  0
 63 65  1  0  0  0  0
 63 73  1  0  0  0  0
 64 74  1  0  0  0  0
 66 67  1  0  0  0  0
M  CHG  1  74   1
M  ISO  4  36 100  39 100  62 101  81 101
M  END
> <Batch ID>
0129

> <Smiles>
CNC(C)C(=O)NC(C(=O)N1Cc2cc([101O:1][101CH2:1]C(C)=Cc3cc(C)cc(C=[100CH:0][100C:0](=O)N4CCCC(n5nc(-c6ccc(Oc7ccc(F)cc7F)cc6)c(C(N)=O)c5N)C4)c3)ccc2CC1C(=O)NC1CCCc2ccccc21)C(C)(C)C

> <Shape>
0.281

> <Color>
0.101

> <Negative vol penalty>
0.000

$$$$

  -OEChem-04052302193D

 85 93  0     1  0  0  0  0  0999 V2000
  -30.3958  -20.7609    3.7226 C   0  0  0  0  0  0  0  0  0  0  0  0
  -30.7151  -20.4792    5.0470 C   0  0  0  0  0  0  0  0  0  0  0  0
  -22.9870   -9.9051   19.9901 C   0  0  0  0  0  0  0  0  0  0  0  0
  -23.7663   -9.9336   22.2768 C   0  0  0  0  0  0  0  0  0  0  0  0
  -27.7192  -18.4076   21.3627 C   0  0  0  0  0  0  0  0  0  0  0  0
  -30.1946  -22.0807    3.3208 C   0  0  0  0  0  0  0  0  0  0  0  0
  -30.8346  -21.5173    5.9703 C   0  0  0  0  0  0  0  0  0  0  0  0
  -28.5171  -20.4939   10.3551 C   0  0  0  0  0  0  0  0  0  0  0  0
  -22.2276   -8.7675   20.2630 C   0  0  0  0  0  0  0  0  0  0  0  0
  -23.0068   -8.7959   22.5498 C   0  0  0  0  0  0  0  0  0  0  0  0
  -28.0987  -18.9500   20.1350 C   0  0  0  0  0  0  0  0  0  0  0  0
  -29.1760  -19.6412   11.2397 C   0  0  0  0  0  0  0  0  0  0  0  0
  -23.2416   -5.4621   22.0388 C   0  0  0  0  0  0  0  0  0  0  0  0
  -23.8472   -4.4378   22.7666 C   0  0  0  0  0  0  0  0  0  0  0  0
  -29.8139  -17.2622   19.9194 C   0  0  0  0  0  0  0  0  0  0  0  0
  -29.9293  -21.5494   12.5087 C   0  0  0  0  0  0  0  0  0  0  0  0
  -22.1631   -4.6627   24.4843 C   0  0  0  0  0  0  0  0  0  0  0  0
  -23.7565  -10.4882   20.9970 C   0  0  0  0  0  0  0  0  0  0  0  0
  -28.3871  -17.2925   21.8689 C   0  0  0  0  0  0  0  0  0  0  0  0
  -29.4345  -16.7198   21.1472 C   0  0  0  0  0  0  0  0  0  0  0  0
  -24.1362  -13.0057   20.8372 C   0  0  0  0  0  0  0  0  0  0  0  0
  -30.3021  -23.1348    4.2417 C   0  0  0  0  0  0  0  0  0  0  0  0
  -28.5685  -21.8837   10.5348 C   0  0  0  0  0  0  0  0  0  0  0  0
  -30.6359  -22.8526    5.5801 C   0  0  0  0  0  0  0  0  0  0  0  0
  -29.2681  -22.4175   11.6265 C   0  0  0  0  0  0  0  0  0  0  0  0
  -22.2374   -8.2129   21.5429 C   0  0  0  0  0  0  0  0  0  0  0  0
  -29.1460  -18.3774   19.4133 C   0  0  0  0  0  0  0  0  0  0  0  0
  -29.8846  -20.1690   12.3150 C   0  0  0  0  0  0  0  0  0  0  0  0
  -22.0968   -6.0867   22.5338 C   0  0  0  0  0  0  0  0  0  0  0  0
  -23.3080   -4.0381   23.9894 C   0  0  0  0  0  0  0  0  0  0  0  0
  -21.5576   -5.6870   23.7565 C   0  0  0  0  0  0  0  0  0  0  0  0
  -24.5416  -11.6631   20.7155 C   0  0  0  0  0  0  0  0  0  0  0  0
  -25.2368  -13.7327   20.4540 C   0  0  0  0  0  0  0  0  0  0  0  0
  -27.9566  -17.4571   24.2778 C   0  0  0  0  0  0  0  0  0  0  0  0
  -27.9655  -16.7535   23.1560 C   0  0  0  0  0  0  0  0  0  0  0  0
  -30.1589  -15.5546   21.6409 C   0  0  0  0  0  0  0  0  0  0  0  0
  -22.8775  -13.5473   21.2589 C   0  0  0  0  0  0  0  0  0  0  0  0
  -30.7612  -14.5731   20.7097 C   0  0  0  0  0  0  0  0  0  0  0  0
  -29.6795  -24.3262    8.8308 C   0  0  0  0  0  0  0  0  0  0  0  0
  -28.2908  -26.0875   11.1742 C   0  0  0  0  0  0  0  0  0  0  0  0
  -27.1749  -26.2585   14.3948 C   0  0  0  0  0  0  0  0  0  0  0  0
  -30.1222  -24.5493    3.7502 C   0  0  0  0  0  0  0  0  0  0  0  0
  -27.8301  -22.7887    9.5870 C   0  0  0  0  0  0  0  0  0  0  0  0
  -29.3371  -23.9014   11.8752 C   0  0  0  0  0  0  0  0  0  0  0  0
  -29.8991  -25.5602    4.8721 C   0  0  0  0  0  0  0  0  0  0  0  0
  -29.5351  -12.2944   18.2276 C   0  0  0  0  0  0  0  0  0  0  0  0
  -30.9080  -25.3425    5.9953 C   0  0  0  0  0  0  0  0  0  0  0  0
  -28.1059  -12.0077   18.6868 C   0  0  0  0  0  0  0  0  0  0  0  0
  -30.4722  -12.4982   19.4136 C   0  0  0  0  0  0  0  0  0  0  0  0
  -28.5895  -13.2802   20.8251 C   0  0  0  0  0  0  0  0  0  0  0  0
  -30.7500  -23.9494    6.6165 C   0  0  1  0  0  0  0  0  0  0  0  0
  -28.3775  -24.2127    9.5720 C   0  0  1  0  0  0  0  0  0  0  0  0
  -27.6080  -13.0961   19.6545 C   0  0  2  0  0  0  0  0  0  0  0  0
  -26.1235  -27.8413   16.0339 C   0  0  0  0  0  0  0  0  0  0  0  0
  -30.9763  -27.4890   11.5398 C   0  0  0  0  0  0  0  0  0  0  0  0
  -30.1549  -28.3358   13.7481 C   0  0  0  0  0  0  0  0  0  0  0  0
  -28.9873  -29.0013   11.6465 C   0  0  0  0  0  0  0  0  0  0  0  0
  -24.7841  -24.5405   14.6971 C   0  0  0  0  0  0  0  0  0  0  0  0
  -29.7593  -18.5112   15.8422 C   0  0  0  0  0  0  0  0  0  0  0  0
  -30.3063  -17.5645   14.7796 C   0  0  0  0  0  0  0  0  0  0  0  0
  -30.0606  -18.0112   17.2488 C   0  0  0  0  0  0  0  0  0  0  0  0
  -29.9684  -18.0413   13.3741 C   0  0  0  0  0  0  0  0  0  1  0  0
  -28.7392  -26.6369   12.5069 C   0  0  1  0  0  0  0  0  0  0  0  0
  -25.8728  -26.7702   14.9839 C   0  0  2  0  0  0  0  0  0  0  0  0
  -29.7149  -27.8378   12.3548 C   0  0  0  0  0  0  0  0  0  0  0  0
  -25.8013  -11.5415   20.2883 N   0  0  0  0  0  0  0  0  0  0  0  0
  -30.3245  -15.3029   22.9092 N   0  0  0  0  0  0  0  0  0  0  0  0
  -26.1969  -12.8170   20.1381 N   0  0  0  0  0  0  0  0  0  0  0  0
  -29.9524  -13.5111   20.3301 N   0  0  0  0  0  0  0  0  0  0  0  0
  -28.6040  -24.7453   10.9171 N   0  0  0  0  0  0  0  0  0  0  0  0
  -25.4671  -15.0595   20.3597 N   0  0  0  0  0  0  0  0  0  0  0  0
  -21.8545  -12.6590   21.6178 N   0  0  0  0  0  0  0  0  0  0  0  0
  -29.6129  -23.9211    7.5113 N   0  0  0  0  0  0  0  0  0  0  0  0
  -27.5230  -26.9457   13.2512 N   0  0  0  0  0  0  0  0  0  0  0  0
  -25.1189  -25.6541   15.6218 N   0  3  0  0  0  0  0  0  0  0  0  0
  -22.6608  -14.7821   21.3001 O   0  0  0  0  0  0  0  0  0  0  0  0
  -31.9150  -14.8049   20.3730 O   0  0  0  0  0  0  0  0  0  0  0  0
  -30.6708  -24.7514    9.4124 O   0  0  0  0  0  0  0  0  0  0  0  0
  -27.6786  -26.8202   10.3931 O   0  0  0  0  0  0  0  0  0  0  0  0
  -27.8208  -25.3434   14.9008 O   0  0  0  0  0  0  0  0  0  0  0  0
  -21.4962   -7.1029   21.8096 O   0  0  0  0  0  0  0  0  0  0  0  0
  -29.5183  -18.9104   18.2068 O   0  0  0  0  0  0  0  0  0  0  0  0
  -30.5292  -19.3390   13.1795 O   0  0  0  0  0  0  0  0  0  1  0  0
  -23.8888   -3.0535   24.6875 F   0  0  0  0  0  0  0  0  0  0  0  0
  -20.4572   -6.2825   24.2366 F   0  0  0  0  0  0  0  0  0  0  0  0
  1  2  1  0  0  0  0
  1  6  2  0  0  0  0
  2  7  2  0  0  0  0
  3  9  2  0  0  0  0
  3 18  1  0  0  0  0
  4 10  1  0  0  0  0
  4 18  2  0  0  0  0
  5 11  2  0  0  0  0
  5 19  1  0  0  0  0
  6 22  1  0  0  0  0
  7 24  1  0  0  0  0
  8 12  2  0  0  0  0
  8 23  1  0  0  0  0
  9 26  1  0  0  0  0
 10 26  2  0  0  0  0
 11 27  1  0  0  0  0
 12 28  1  0  0  0  0
 13 14  2  0  0  0  0
 13 29  1  0  0  0  0
 14 30  1  0  0  0  0
 15 20  1  0  0  0  0
 15 27  2  0  0  0  0
 16 25  1  0  0  0  0
 16 28  2  0  0  0  0
 17 30  2  0  0  0  0
 17 31  1  0  0  0  0
 18 32  1  0  0  0  0
 19 20  2  0  0  0  0
 19 35  1  0  0  0  0
 20 36  1  0  0  0  0
 21 32  1  0  0  0  0
 21 33  2  0  0  0  0
 21 37  1  0  0  0  0
 22 24  2  0  0  0  0
 22 42  1  0  0  0  0
 23 25  2  0  0  0  0
 23 43  1  0  0  0  0
 24 51  1  0  0  0  0
 25 44  1  0  0  0  0
 26 81  1  0  0  0  0
 27 82  1  0  0  0  0
 28 83  1  0  0  0  0
 29 31  2  0  0  0  0
 29 81  1  0  0  0  0
 30 84  1  0  0  0  0
 31 85  1  0  0  0  0
 32 66  2  0  0  0  0
 33 68  1  0  0  0  0
 33 71  1  0  0  0  0
 34 35  2  0  0  0  0
 36 38  1  0  0  0  0
 36 67  2  0  0  0  0
 37 72  1  0  0  0  0
 37 76  2  0  0  0  0
 38 69  1  0  0  0  0
 38 77  2  0  0  0  0
 39 52  1  0  0  0  0
 39 73  1  0  0  0  0
 39 78  2  0  0  0  0
 40 63  1  0  0  0  0
 40 70  1  0  0  0  0
 40 79  2  0  0  0  0
 41 64  1  0  0  0  0
 41 74  1  0  0  0  0
 41 80  2  0  0  0  0
 42 45  1  0  0  0  0
 43 52  1  0  0  0  0
 44 70  1  0  0  0  0
 45 47  1  0  0  0  0
 46 48  1  0  0  0  0
 46 49  1  0  0  0  0
 47 51  1  0  0  0  0
 48 53  1  0  0  0  0
 49 69  1  0  0  0  0
 50 53  1  0  0  0  0
 50 69  1  0  0  0  0
 51 73  1  0  0  0  0
 52 70  1  0  0  0  0
 53 68  1  0  0  0  0
 54 64  1  0  0  0  0
 55 65  1  0  0  0  0
 56 65  1  0  0  0  0
 57 65  1  0  0  0  0
 58 75  1  0  0  0  0
 59 60  1  0  0  0  0
 59 61  1  0  0  0  0
 60 62  1  0  0  0  0
 61 82  1  0  0  0  0
 62 83  1  0  0  0  0
 63 65  1  0  0  0  0
 63 74  1  0  0  0  0
 64 75  1  0  0  0  0
 66 68  1  0  0  0  0
M  CHG  1  75   1
M  ISO  4  36 100  38 100  62 101  83 101
M  END
> <Batch ID>
0129

> <Smiles>
C=Cc1ccc(OCCC[101CH2:1][101O:1]c2ccc3c(c2)CN(C(=O)C(NC(=O)C(C)NC)C(C)(C)C)C(C(=O)NC2CCCc4ccccc42)C3)cc1[100C:0](=N)[100C:0](=O)N1CCCC(n2nc(-c3ccc(Oc4ccc(F)cc4F)cc3)c(C(N)=O)c2N)C1

> <Shape>
0.201

> <Color>
0.190

> <Negative vol penalty>
0.000

$$$$

  -OEChem-04052302193D

 82 90  0     1  0  0  0  0  0999 V2000
  -28.9634  -33.1757   22.6375 C   0  0  0  0  0  0  0  0  0  0  0  0
  -28.8341  -31.8497   23.0381 C   0  0  0  0  0  0  0  0  0  0  0  0
  -23.8002   -9.7424   21.7332 C   0  0  0  0  0  0  0  0  0  0  0  0
  -24.3590  -10.9568   23.7456 C   0  0  0  0  0  0  0  0  0  0  0  0
  -27.8264  -33.9624   22.4577 C   0  0  0  0  0  0  0  0  0  0  0  0
  -27.5678  -31.3099   23.2601 C   0  0  0  0  0  0  0  0  0  0  0  0
  -27.0330  -26.7065   21.2186 C   0  0  0  0  0  0  0  0  0  0  0  0
  -23.2756   -8.7054   22.5046 C   0  0  0  0  0  0  0  0  0  0  0  0
  -23.8343   -9.9198   24.5171 C   0  0  0  0  0  0  0  0  0  0  0  0
  -27.6022  -25.6352   21.9057 C   0  0  0  0  0  0  0  0  0  0  0  0
  -20.4306   -8.0679   24.2170 C   0  0  0  0  0  0  0  0  0  0  0  0
  -19.2003   -7.5338   23.8344 C   0  0  0  0  0  0  0  0  0  0  0  0
  -32.4285  -17.6438   21.6985 C   0  0  0  0  0  0  0  0  0  0  0  0
  -31.7952  -18.9071   21.7755 C   0  0  0  0  0  0  0  0  0  0  0  0
  -25.4390  -25.0775   22.8160 C   0  0  0  0  0  0  0  0  0  0  0  0
  -20.2285   -5.3654   23.5552 C   0  0  0  0  0  0  0  0  0  0  0  0
  -24.3420  -10.8681   22.3537 C   0  0  0  0  0  0  0  0  0  0  0  0
  -24.1979  -13.0666   21.0680 C   0  0  0  0  0  0  0  0  0  0  0  0
  -26.5450  -33.4292   22.6683 C   0  0  0  0  0  0  0  0  0  0  0  0
  -25.6622  -26.9784   21.3338 C   0  0  0  0  0  0  0  0  0  0  0  0
  -26.4126  -32.0906   23.0842 C   0  0  0  0  0  0  0  0  0  0  0  0
  -24.8544  -26.1513   22.1272 C   0  0  0  0  0  0  0  0  0  0  0  0
  -23.2927   -8.7941   23.8965 C   0  0  0  0  0  0  0  0  0  0  0  0
  -26.8057  -24.8223   22.7069 C   0  0  0  0  0  0  0  0  0  0  0  0
  -21.5600   -7.2509   24.2687 C   0  0  0  0  0  0  0  0  0  0  0  0
  -19.0992   -6.1825   23.5035 C   0  0  0  0  0  0  0  0  0  0  0  0
  -21.4589   -5.8996   23.9378 C   0  0  0  0  0  0  0  0  0  0  0  0
  -24.8845  -11.9393   21.5574 C   0  0  0  0  0  0  0  0  0  0  0  0
  -31.6647  -16.7867   22.4561 C   0  0  0  0  0  0  0  0  0  0  0  0
  -25.1502  -13.7753   20.3769 C   0  0  0  0  0  0  0  0  0  0  0  0
  -30.6893  -18.7320   22.5745 C   0  0  0  0  0  0  0  0  0  0  0  0
  -22.8224  -13.4399   21.2241 C   0  0  0  0  0  0  0  0  0  0  0  0
  -23.9435  -29.4250   22.4125 C   0  0  0  0  0  0  0  0  0  0  0  0
  -28.5627  -21.6867   23.1672 C   0  0  0  0  0  0  0  0  0  0  0  0
  -21.4609  -27.6860   21.2572 C   0  0  0  0  0  0  0  0  0  0  0  0
  -20.2269  -24.6285   20.3763 C   0  0  0  0  0  0  0  0  0  0  0  0
  -31.1182  -14.0483   20.7763 C   0  0  0  0  0  0  0  0  0  0  0  0
  -25.3476  -34.3319   22.5069 C   0  0  0  0  0  0  0  0  0  0  0  0
  -25.0587  -28.1216   20.5650 C   0  0  0  0  0  0  0  0  0  0  0  0
  -23.3737  -26.3884   22.2683 C   0  0  0  0  0  0  0  0  0  0  0  0
  -24.0253  -33.5765   22.4003 C   0  0  0  0  0  0  0  0  0  0  0  0
  -29.2024  -13.1769   17.9046 C   0  0  0  0  0  0  0  0  0  0  0  0
  -23.9378  -32.4991   23.4766 C   0  0  0  0  0  0  0  0  0  0  0  0
  -27.8166  -12.8626   18.4709 C   0  0  0  0  0  0  0  0  0  0  0  0
  -30.3140  -12.7196   18.8465 C   0  0  0  0  0  0  0  0  0  0  0  0
  -28.8160  -12.9098   20.7942 C   0  0  0  0  0  0  0  0  0  0  0  0
  -25.0549  -31.4618   23.3109 C   0  0  1  0  0  0  0  0  0  0  0  0
  -23.7447  -28.6158   21.1622 C   0  0  1  0  0  0  0  0  0  0  0  0
  -27.6613  -13.4027   19.9053 C   0  0  2  0  0  0  0  0  0  0  0  0
  -18.1533  -23.5187   19.5014 C   0  0  0  0  0  0  0  0  0  0  0  0
  -20.1712  -27.9296   24.0117 C   0  0  0  0  0  0  0  0  0  0  0  0
  -18.6303  -26.0606   23.3786 C   0  0  0  0  0  0  0  0  0  0  0  0
  -18.5905  -28.1976   22.0923 C   0  0  0  0  0  0  0  0  0  0  0  0
  -21.6244  -23.6685   17.9505 C   0  0  0  0  0  0  0  0  0  0  0  0
  -31.7775  -15.3574   22.7790 C   0  0  0  0  0  0  0  0  0  0  0  0
  -28.4962  -23.1513   22.7857 C   0  0  0  0  0  0  0  0  0  1  0  0
  -29.7407  -20.9125   22.6123 C   0  0  0  0  0  0  0  0  0  0  0  0
  -20.5485  -26.6219   21.8177 C   0  0  1  0  0  0  0  0  0  0  0  0
  -19.4831  -24.1611   19.1383 C   0  0  2  0  0  0  0  0  0  0  0  0
  -19.5133  -27.1988   22.8242 C   0  0  0  0  0  0  0  0  0  0  0  0
  -26.1733  -11.9282   21.2069 N   0  0  0  0  0  0  0  0  0  0  0  0
  -26.3042  -13.0572   20.4898 N   0  0  0  0  0  0  0  0  0  0  0  0
  -22.8317  -27.5225   21.5018 N   0  0  0  0  0  0  0  0  0  0  0  0
  -30.1087  -13.2676   20.1894 N   0  0  0  0  0  0  0  0  0  0  0  0
  -25.1045  -14.9364   19.6898 N   0  0  0  0  0  0  0  0  0  0  0  0
  -21.9816  -12.5980   21.9647 N   0  0  0  0  0  0  0  0  0  0  0  0
  -24.7367  -30.5431   22.2389 N   0  0  0  0  0  0  0  0  0  0  0  0
  -19.9533  -25.9479   20.6688 N   0  0  0  0  0  0  0  0  0  0  0  0
  -30.8401  -14.5340   22.0482 N   0  0  0  0  0  0  0  0  0  0  0  0
  -20.2984  -23.1629   18.3901 N   0  3  0  0  0  0  0  0  0  0  0  0
  -22.3491  -14.4806   20.7079 O   0  0  0  0  0  0  0  0  0  0  0  0
  -23.4150  -29.0627   23.4571 O   0  0  0  0  0  0  0  0  0  0  0  0
  -27.7127  -21.1589   23.8827 O   0  0  0  0  0  0  0  0  0  0  0  0
  -20.9758  -28.6239   20.6194 O   0  0  0  0  0  0  0  0  0  0  0  0
  -20.9730  -23.8954   21.0217 O   0  0  0  0  0  0  0  0  0  0  0  0
  -32.1858  -14.2988   20.2068 O   0  0  0  0  0  0  0  0  0  0  0  0
  -30.6025  -17.4422   22.9934 O   0  0  0  0  0  0  0  0  0  0  0  0
  -22.7806   -7.7825   24.6496 O   0  0  0  0  0  0  0  0  0  0  0  0
  -27.3589  -23.7764   23.3791 O   0  0  0  0  0  0  0  0  0  1  0  0
  -29.6892  -19.5623   23.0223 O   0  0  0  0  0  0  0  0  0  0  0  0
  -17.9173   -5.6693   23.1375 F   0  0  0  0  0  0  0  0  0  0  0  0
  -22.5401   -5.1094   23.9868 F   0  0  0  0  0  0  0  0  0  0  0  0
  1  2  1  0  0  0  0
  1  5  2  0  0  0  0
  2  6  2  0  0  0  0
  3  8  2  0  0  0  0
  3 17  1  0  0  0  0
  4  9  1  0  0  0  0
  4 17  2  0  0  0  0
  5 19  1  0  0  0  0
  6 21  1  0  0  0  0
  7 10  2  0  0  0  0
  7 20  1  0  0  0  0
  8 23  1  0  0  0  0
  9 23  2  0  0  0  0
 10 24  1  0  0  0  0
 11 12  2  0  0  0  0
 11 25  1  0  0  0  0
 12 26  1  0  0  0  0
 13 14  1  0  0  0  0
 13 29  2  0  0  0  0
 14 31  2  0  0  0  0
 15 22  1  0  0  0  0
 15 24  2  0  0  0  0
 16 26  2  0  0  0  0
 16 27  1  0  0  0  0
 17 28  1  0  0  0  0
 18 28  1  0  0  0  0
 18 30  2  0  0  0  0
 18 32  1  0  0  0  0
 19 21  2  0  0  0  0
 19 38  1  0  0  0  0
 20 22  2  0  0  0  0
 20 39  1  0  0  0  0
 21 47  1  0  0  0  0
 22 40  1  0  0  0  0
 23 78  1  0  0  0  0
 24 79  1  0  0  0  0
 25 27  2  0  0  0  0
 25 78  1  0  0  0  0
 26 81  1  0  0  0  0
 27 82  1  0  0  0  0
 28 61  2  0  0  0  0
 29 55  1  0  0  0  0
 29 77  1  0  0  0  0
 30 62  1  0  0  0  0
 30 65  1  0  0  0  0
 31 77  1  0  0  0  0
 31 80  1  0  0  0  0
 32 66  1  0  0  0  0
 32 71  2  0  0  0  0
 33 48  1  0  0  0  0
 33 67  1  0  0  0  0
 33 72  2  0  0  0  0
 34 56  1  0  0  0  0
 34 57  1  0  0  0  0
 34 73  2  0  0  0  0
 35 58  1  0  0  0  0
 35 63  1  0  0  0  0
 35 74  2  0  0  0  0
 36 59  1  0  0  0  0
 36 68  1  0  0  0  0
 36 75  2  0  0  0  0
 37 64  1  0  0  0  0
 37 69  1  0  0  0  0
 37 76  2  0  0  0  0
 38 41  1  0  0  0  0
 39 48  1  0  0  0  0
 40 63  1  0  0  0  0
 41 43  1  0  0  0  0
 42 44  1  0  0  0  0
 42 45  1  0  0  0  0
 43 47  1  0  0  0  0
 44 49  1  0  0  0  0
 45 64  1  0  0  0  0
 46 49  1  0  0  0  0
 46 64  1  0  0  0  0
 47 67  1  0  0  0  0
 48 63  1  0  0  0  0
 49 62  1  0  0  0  0
 50 59  1  0  0  0  0
 51 60  1  0  0  0  0
 52 60  1  0  0  0  0
 53 60  1  0  0  0  0
 54 70  1  0  0  0  0
 55 69  1  0  0  0  0
 56 79  1  0  0  0  0
 57 80  1  0  0  0  0
 58 60  1  0  0  0  0
 58 68  1  0  0  0  0
 59 70  1  0  0  0  0
 61 62  1  0  0  0  0
M  CHG  1  70   1
M  ISO  4  37 100  56 101  69 100  79 101
M  END
> <Batch ID>
0129

> <Smiles>
CNC(C)C(=O)NC(C(=O)N1Cc2cc([101O:1][101CH2:1]C(=O)COc3ccc(C[100NH:0][100C:0](=O)N4CCCC(n5nc(-c6ccc(Oc7ccc(F)cc7F)cc6)c(C(N)=O)c5N)C4)o3)ccc2CC1C(=O)NC1CCCc2ccccc21)C(C)(C)C

> <Shape>
0.275

> <Color>
0.140

> <Negative vol penalty>
0.000

$$$$

  -OEChem-04052302193D

 82 90  0     1  0  0  0  0  0999 V2000
  -17.7174  -32.4134   23.5391 C   0  0  0  0  0  0  0  0  0  0  0  0
  -18.9627  -32.7333   23.0077 C   0  0  0  0  0  0  0  0  0  0  0  0
  -24.9021  -11.6857   21.5710 C   0  0  0  0  0  0  0  0  0  0  0  0
  -22.9371  -12.4365   20.3825 C   0  0  0  0  0  0  0  0  0  0  0  0
  -31.5130  -22.7644   20.7539 C   0  0  0  0  0  0  0  0  0  0  0  0
  -17.5280  -31.1902   24.1807 C   0  0  0  0  0  0  0  0  0  0  0  0
  -20.0196  -31.8305   23.1186 C   0  0  0  0  0  0  0  0  0  0  0  0
  -25.8512  -29.6029   19.6049 C   0  0  0  0  0  0  0  0  0  0  0  0
  -31.8842  -24.0974   20.9297 C   0  0  0  0  0  0  0  0  0  0  0  0
  -24.1382  -10.7171   22.2220 C   0  0  0  0  0  0  0  0  0  0  0  0
  -22.1733  -11.4677   21.0334 C   0  0  0  0  0  0  0  0  0  0  0  0
  -27.2172  -29.4052   19.8015 C   0  0  0  0  0  0  0  0  0  0  0  0
  -22.7775   -7.8101   23.9288 C   0  0  0  0  0  0  0  0  0  0  0  0
  -23.3049   -6.5221   24.0205 C   0  0  0  0  0  0  0  0  0  0  0  0
  -26.7522  -27.2887   20.8614 C   0  0  0  0  0  0  0  0  0  0  0  0
  -29.9699  -24.8011   19.6346 C   0  0  0  0  0  0  0  0  0  0  0  0
  -23.3800   -6.3811   21.6098 C   0  0  0  0  0  0  0  0  0  0  0  0
  -24.3015  -12.5455   20.6513 C   0  0  0  0  0  0  0  0  0  0  0  0
  -30.3703  -22.4497   20.0184 C   0  0  0  0  0  0  0  0  0  0  0  0
  -25.7761  -13.4095   18.7574 C   0  0  0  0  0  0  0  0  0  0  0  0
  -18.5805  -30.2679   24.2911 C   0  0  0  0  0  0  0  0  0  0  0  0
  -24.9232  -28.6484   20.0455 C   0  0  0  0  0  0  0  0  0  0  0  0
  -19.8444  -30.5943   23.7636 C   0  0  0  0  0  0  0  0  0  0  0  0
  -25.3751  -27.4754   20.6668 C   0  0  0  0  0  0  0  0  0  0  0  0
  -31.1126  -25.1158   20.3700 C   0  0  0  0  0  0  0  0  0  0  0  0
  -29.5988  -23.4681   19.4588 C   0  0  0  0  0  0  0  0  0  0  0  0
  -22.7739  -10.6080   21.9532 C   0  0  0  0  0  0  0  0  0  0  0  0
  -27.6678  -28.2493   20.4324 C   0  0  0  0  0  0  0  0  0  0  0  0
  -22.5512   -8.3836   22.6775 C   0  0  0  0  0  0  0  0  0  0  0  0
  -23.6062   -5.8076   22.8611 C   0  0  0  0  0  0  0  0  0  0  0  0
  -22.8525   -7.6691   21.5180 C   0  0  0  0  0  0  0  0  0  0  0  0
  -25.0899  -13.5468   19.9789 C   0  0  0  0  0  0  0  0  0  0  0  0
  -26.3652  -14.6337   18.5551 C   0  0  0  0  0  0  0  0  0  0  0  0
  -30.0094  -21.0479   19.8526 C   0  0  0  0  0  0  0  0  0  0  0  0
  -29.7113  -20.1947   20.8536 C   0  0  0  0  0  0  0  0  0  0  0  0
  -25.8724  -12.2768   17.8837 C   0  0  0  0  0  0  0  0  0  0  0  0
  -29.3536  -18.8008   20.5222 C   0  0  0  0  0  0  0  0  0  0  0  0
  -22.5295  -28.6457   22.1369 C   0  0  0  0  0  0  0  0  0  0  0  0
  -22.0167  -25.6683   20.9561 C   0  0  0  0  0  0  0  0  0  0  0  0
  -23.2849  -22.9158   19.3868 C   0  0  0  0  0  0  0  0  0  0  0  0
  -18.3405  -28.9781   25.0351 C   0  0  0  0  0  0  0  0  0  0  0  0
  -23.4547  -28.8641   19.8019 C   0  0  0  0  0  0  0  0  0  0  0  0
  -24.4210  -26.4106   21.1403 C   0  0  0  0  0  0  0  0  0  0  0  0
  -19.4111  -27.9200   24.7810 C   0  0  0  0  0  0  0  0  0  0  0  0
  -25.7177  -19.0440   20.9132 C   0  0  0  0  0  0  0  0  0  0  0  0
  -20.8038  -28.5324   24.8921 C   0  0  0  0  0  0  0  0  0  0  0  0
  -25.2967  -17.6010   20.6482 C   0  0  0  0  0  0  0  0  0  0  0  0
  -27.0709  -19.1245   21.6181 C   0  0  0  0  0  0  0  0  0  0  0  0
  -27.7361  -16.9456   20.6431 C   0  0  0  0  0  0  0  0  0  0  0  0
  -21.0088  -29.6310   23.8421 C   0  0  1  0  0  0  0  0  0  0  0  0
  -22.5677  -28.0650   20.7517 C   0  0  1  0  0  0  0  0  0  0  0  0
  -26.3992  -16.8423   19.8925 C   0  0  1  0  0  0  0  0  0  0  0  0
  -28.3684  -23.1681   18.6643 C   0  0  0  0  0  0  0  0  0  0  0  0
  -22.6339  -20.6259   18.5933 C   0  0  0  0  0  0  0  0  0  0  0  0
  -22.1126  -24.6478   23.8300 C   0  0  0  0  0  0  0  0  0  0  0  0
  -22.4132  -22.3331   22.9243 C   0  0  0  0  0  0  0  0  0  0  0  0
  -20.3321  -23.6100   22.4133 C   0  0  0  0  0  0  0  0  0  0  0  0
  -23.9024  -23.5891   16.5718 C   0  0  0  0  0  0  0  0  0  0  0  0
  -31.5125  -26.5570   20.5612 C   0  0  0  0  0  0  0  0  0  0  0  0
  -30.9071  -27.2039   21.8088 C   0  0  0  0  0  0  0  0  0  0  0  0
  -29.3857  -27.2886   21.7672 C   0  0  0  0  0  0  0  0  0  1  0  0
  -22.5023  -24.2819   21.3041 C   0  0  1  0  0  0  0  0  0  0  0  0
  -22.7678  -22.0940   18.2199 C   0  0  2  0  0  0  0  0  0  0  0  0
  -21.8582  -23.7389   22.6109 C   0  0  0  0  0  0  0  0  0  0  0  0
  -25.2294  -14.7622   20.5150 N   0  0  0  0  0  0  0  0  0  0  0  0
  -26.0101  -15.3998   19.6262 N   0  0  0  0  0  0  0  0  0  0  0  0
  -28.0949  -18.3433   20.9081 N   0  0  0  0  0  0  0  0  0  0  0  0
  -22.9946  -26.6706   20.8849 N   0  0  0  0  0  0  0  0  0  0  0  0
  -27.1471  -15.1187   17.5673 N   0  0  0  0  0  0  0  0  0  0  0  0
  -25.2055  -11.0975   18.2428 N   0  0  0  0  0  0  0  0  0  0  0  0
  -21.2715  -29.0469   22.5443 N   0  0  0  0  0  0  0  0  0  0  0  0
  -22.2547  -23.4554   20.1277 N   0  0  0  0  0  0  0  0  0  0  0  0
  -23.6965  -22.2009   17.0592 N   0  3  0  0  0  0  0  0  0  0  0  0
  -26.5437  -12.3043   16.8244 O   0  0  0  0  0  0  0  0  0  0  0  0
  -30.1943  -18.1242   19.9272 O   0  0  0  0  0  0  0  0  0  0  0  0
  -23.5645  -28.7226   22.7886 O   0  0  0  0  0  0  0  0  0  0  0  0
  -20.8151  -25.8536   20.7479 O   0  0  0  0  0  0  0  0  0  0  0  0
  -24.4827  -23.0613   19.6201 O   0  0  0  0  0  0  0  0  0  0  0  0
  -22.0283   -9.6627   22.5880 O   0  0  0  0  0  0  0  0  0  0  0  0
  -29.0005  -28.0542   20.6262 O   0  0  0  0  0  0  0  0  0  1  0  0
  -24.1141   -4.5713   22.9494 F   0  0  0  0  0  0  0  0  0  0  0  0
  -22.6384   -8.2152   20.3132 F   0  0  0  0  0  0  0  0  0  0  0  0
  1  2  1  0  0  0  0
  1  6  2  0  0  0  0
  2  7  2  0  0  0  0
  3 10  2  0  0  0  0
  3 18  1  0  0  0  0
  4 11  1  0  0  0  0
  4 18  2  0  0  0  0
  5  9  2  0  0  0  0
  5 19  1  0  0  0  0
  6 21  1  0  0  0  0
  7 23  1  0  0  0  0
  8 12  2  0  0  0  0
  8 22  1  0  0  0  0
  9 25  1  0  0  0  0
 10 27  1  0  0  0  0
 11 27  2  0  0  0  0
 12 28  1  0  0  0  0
 13 14  2  0  0  0  0
 13 29  1  0  0  0  0
 14 30  1  0  0  0  0
 15 24  1  0  0  0  0
 15 28  2  0  0  0  0
 16 25  2  0  0  0  0
 16 26  1  0  0  0  0
 17 30  2  0  0  0  0
 17 31  1  0  0  0  0
 18 32  1  0  0  0  0
 19 26  2  0  0  0  0
 19 34  1  0  0  0  0
 20 32  1  0  0  0  0
 20 33  2  0  0  0  0
 20 36  1  0  0  0  0
 21 23  2  0  0  0  0
 21 41  1  0  0  0  0
 22 24  2  0  0  0  0
 22 42  1  0  0  0  0
 23 50  1  0  0  0  0
 24 43  1  0  0  0  0
 25 59  1  0  0  0  0
 26 53  1  0  0  0  0
 27 79  1  0  0  0  0
 28 80  1  0  0  0  0
 29 31  2  0  0  0  0
 29 79  1  0  0  0  0
 30 81  1  0  0  0  0
 31 82  1  0  0  0  0
 32 65  2  0  0  0  0
 33 66  1  0  0  0  0
 33 69  1  0  0  0  0
 34 35  2  0  0  0  0
 35 37  1  0  0  0  0
 36 70  1  0  0  0  0
 36 74  2  0  0  0  0
 37 67  1  0  0  0  0
 37 75  2  0  0  0  0
 38 51  1  0  0  0  0
 38 71  1  0  0  0  0
 38 76  2  0  0  0  0
 39 62  1  0  0  0  0
 39 68  1  0  0  0  0
 39 77  2  0  0  0  0
 40 63  1  0  0  0  0
 40 72  1  0  0  0  0
 40 78  2  0  0  0  0
 41 44  1  0  0  0  0
 42 51  1  0  0  0  0
 43 68  1  0  0  0  0
 44 46  1  0  0  0  0
 45 47  1  0  0  0  0
 45 48  1  0  0  0  0
 46 50  1  0  0  0  0
 47 52  1  0  0  0  0
 48 67  1  0  0  0  0
 49 52  1  0  0  0  0
 49 67  1  0  0  0  0
 50 71  1  0  0  0  0
 51 68  1  0  0  0  0
 52 66  1  0  0  0  0
 54 63  1  0  0  0  0
 55 64  1  0  0  0  0
 56 64  1  0  0  0  0
 57 64  1  0  0  0  0
 58 73  1  0  0  0  0
 59 60  1  0  0  0  0
 60 61  1  0  0  0  0
 61 80  1  0  0  0  0
 62 64  1  0  0  0  0
 62 72  1  0  0  0  0
 63 73  1  0  0  0  0
 65 66  1  0  0  0  0
M  CHG  1  73   1
M  ISO  4  35 100  37 100  61 101  80 101
M  END
> <Batch ID>
0129

> <Smiles>
CNC(C)C(=O)NC(C(=O)N1Cc2cc([101O:1][101CH2:1]CCc3ccc(C=[100CH:0][100C:0](=O)N4CCCC(n5nc(-c6ccc(Oc7ccc(F)cc7F)cc6)c(C(N)=O)c5N)C4)c(C)c3)ccc2CC1C(=O)NC1CCCc2ccccc21)C(C)(C)C

> <Shape>
0.244

> <Color>
0.087

> <Negative vol penalty>
0.000

$$$$

  -OEChem-04052302193D

 83 91  0     1  0  0  0  0  0999 V2000
  -17.3638  -31.3973   23.1243 C   0  0  0  0  0  0  0  0  0  0  0  0
  -18.7036  -31.7072   22.9143 C   0  0  0  0  0  0  0  0  0  0  0  0
  -26.0796  -13.0036   21.4900 C   0  0  0  0  0  0  0  0  0  0  0  0
  -25.6144  -13.6527   19.2098 C   0  0  0  0  0  0  0  0  0  0  0  0
  -16.9684  -30.0659   23.2471 C   0  0  0  0  0  0  0  0  0  0  0  0
  -19.6491  -30.6859   22.8280 C   0  0  0  0  0  0  0  0  0  0  0  0
  -25.7985  -29.0336   19.5461 C   0  0  0  0  0  0  0  0  0  0  0  0
  -30.6598  -25.7607   26.2310 C   0  0  0  0  0  0  0  0  0  0  0  0
  -30.0636  -24.9010   27.1535 C   0  0  0  0  0  0  0  0  0  0  0  0
  -24.9537  -12.1802   21.4853 C   0  0  0  0  0  0  0  0  0  0  0  0
  -24.4885  -12.8293   19.2051 C   0  0  0  0  0  0  0  0  0  0  0  0
  -27.0898  -28.5948   19.8356 C   0  0  0  0  0  0  0  0  0  0  0  0
  -24.1080   -9.1236   20.3130 C   0  0  0  0  0  0  0  0  0  0  0  0
  -24.2408   -7.8408   20.8444 C   0  0  0  0  0  0  0  0  0  0  0  0
  -30.6153  -24.0079   24.5687 C   0  0  0  0  0  0  0  0  0  0  0  0
  -26.2796  -26.3274   19.9835 C   0  0  0  0  0  0  0  0  0  0  0  0
  -22.5392   -8.3440   22.4841 C   0  0  0  0  0  0  0  0  0  0  0  0
  -26.4099  -13.7399   20.3522 C   0  0  0  0  0  0  0  0  0  0  0  0
  -30.0192  -23.1482   25.4913 C   0  0  0  0  0  0  0  0  0  0  0  0
  -28.8850  -14.2394   19.9885 C   0  0  0  0  0  0  0  0  0  0  0  0
  -17.9081  -29.0273   23.1526 C   0  0  0  0  0  0  0  0  0  0  0  0
  -24.7344  -28.1225   19.4838 C   0  0  0  0  0  0  0  0  0  0  0  0
  -19.2661  -29.3395   22.9510 C   0  0  0  0  0  0  0  0  0  0  0  0
  -24.9762  -26.7569   19.6905 C   0  0  0  0  0  0  0  0  0  0  0  0
  -30.9356  -25.3142   24.9385 C   0  0  0  0  0  0  0  0  0  0  0  0
  -29.7434  -23.5947   26.7837 C   0  0  0  0  0  0  0  0  0  0  0  0
  -24.1582  -12.0930   20.3429 C   0  0  0  0  0  0  0  0  0  0  0  0
  -27.3300  -27.2419   20.0572 C   0  0  0  0  0  0  0  0  0  0  0  0
  -23.1908  -10.0166   20.8671 C   0  0  0  0  0  0  0  0  0  0  0  0
  -23.4564   -7.4510   21.9300 C   0  0  0  0  0  0  0  0  0  0  0  0
  -22.4065   -9.6268   21.9527 C   0  0  0  0  0  0  0  0  0  0  0  0
  -27.5725  -14.5911   20.3566 C   0  0  0  0  0  0  0  0  0  0  0  0
  -29.6119  -15.3909   20.1671 C   0  0  0  0  0  0  0  0  0  0  0  0
  -29.6969  -21.7894   25.0751 C   0  0  0  0  0  0  0  0  0  0  0  0
  -28.8814  -21.4587   24.0533 C   0  0  0  0  0  0  0  0  0  0  0  0
  -30.5701  -27.0227   23.1494 C   0  0  0  0  0  0  0  0  0  0  0  0
  -30.4445  -26.9380   21.8167 C   0  0  0  0  0  0  0  0  0  0  0  0
  -29.4009  -12.9840   19.5264 C   0  0  0  0  0  0  0  0  0  0  0  0
  -28.6614  -20.0308   23.7478 C   0  0  0  0  0  0  0  0  0  0  0  0
  -22.0244  -27.7250   21.0967 C   0  0  0  0  0  0  0  0  0  0  0  0
  -21.4830  -25.4399   18.8589 C   0  0  0  0  0  0  0  0  0  0  0  0
  -22.7752  -23.2538   16.5790 C   0  0  0  0  0  0  0  0  0  0  0  0
  -17.4401  -27.6058   23.3389 C   0  0  0  0  0  0  0  0  0  0  0  0
  -23.3520  -28.6084   19.1440 C   0  0  0  0  0  0  0  0  0  0  0  0
  -23.8718  -25.7356   19.6150 C   0  0  0  0  0  0  0  0  0  0  0  0
  -18.4493  -26.5647   22.8614 C   0  0  0  0  0  0  0  0  0  0  0  0
  -29.1900  -20.1422   20.1228 C   0  0  0  0  0  0  0  0  0  0  0  0
  -19.8469  -26.9037   23.3697 C   0  0  0  0  0  0  0  0  0  0  0  0
  -28.9042  -18.6927   19.7397 C   0  0  0  0  0  0  0  0  0  0  0  0
  -28.3158  -20.6093   21.2856 C   0  0  0  0  0  0  0  0  0  0  0  0
  -28.1150  -18.2787   22.1032 C   0  0  0  0  0  0  0  0  0  0  0  0
  -20.3178  -28.2584   22.8270 C   0  0  1  0  0  0  0  0  0  0  0  0
  -22.2532  -27.6597   19.6131 C   0  0  1  0  0  0  0  0  0  0  0  0
  -29.0166  -17.7732   20.9661 C   0  0  1  0  0  0  0  0  0  0  0  0
  -29.1072  -22.7004   27.7988 C   0  0  0  0  0  0  0  0  0  0  0  0
  -22.0872  -21.4919   14.9298 C   0  0  0  0  0  0  0  0  0  0  0  0
  -21.0002  -23.4857   21.1519 C   0  0  0  0  0  0  0  0  0  0  0  0
  -21.2637  -21.6091   19.5157 C   0  0  0  0  0  0  0  0  0  0  0  0
  -19.4118  -23.2564   19.2338 C   0  0  0  0  0  0  0  0  0  0  0  0
  -23.9203  -24.7675   14.3082 C   0  0  0  0  0  0  0  0  0  0  0  0
  -31.5802  -26.2448   23.9420 C   0  0  0  0  0  0  0  0  0  0  0  0
  -29.4484  -27.7213   21.0260 C   0  0  0  0  0  0  0  0  0  1  0  0
  -21.7877  -23.9661   18.7404 C   0  0  1  0  0  0  0  0  0  0  0  0
  -22.4018  -22.9654   15.1361 C   0  0  2  0  0  0  0  0  0  0  0  0
  -20.8865  -23.0986   19.6639 C   0  0  0  0  0  0  0  0  0  0  0  0
  -27.4688  -15.8663   20.7403 N   0  0  0  0  0  0  0  0  0  0  0  0
  -28.7253  -16.3259   20.6143 N   0  0  0  0  0  0  0  0  0  0  0  0
  -28.3950  -19.6826   22.4248 N   0  0  0  0  0  0  0  0  0  0  0  0
  -22.5364  -26.2608   19.2859 N   0  0  0  0  0  0  0  0  0  0  0  0
  -30.9167  -15.6848   19.9839 N   0  0  0  0  0  0  0  0  0  0  0  0
  -28.5166  -11.9040   19.4001 N   0  0  0  0  0  0  0  0  0  0  0  0
  -20.7517  -28.1291   21.4524 N   0  0  0  0  0  0  0  0  0  0  0  0
  -21.6800  -23.6397   17.3226 N   0  0  0  0  0  0  0  0  0  0  0  0
  -23.5219  -23.3386   14.2267 N   0  3  0  0  0  0  0  0  0  0  0  0
  -30.6134  -12.8202   19.2497 O   0  0  0  0  0  0  0  0  0  0  0  0
  -28.7222  -19.2328   24.6849 O   0  0  0  0  0  0  0  0  0  0  0  0
  -22.9346  -27.4291   21.8620 O   0  0  0  0  0  0  0  0  0  0  0  0
  -20.3541  -25.8487   18.5759 O   0  0  0  0  0  0  0  0  0  0  0  0
  -23.9229  -23.1439   17.0048 O   0  0  0  0  0  0  0  0  0  0  0  0
  -23.0596  -11.2895   20.3379 O   0  0  0  0  0  0  0  0  0  0  0  0
  -28.5893  -26.8110   20.3406 O   0  0  0  0  0  0  0  0  0  1  0  0
  -23.5830   -6.2186   22.4393 F   0  0  0  0  0  0  0  0  0  0  0  0
  -21.5228  -10.4799   22.4885 F   0  0  0  0  0  0  0  0  0  0  0  0
  1  2  1  0  0  0  0
  1  5  2  0  0  0  0
  2  6  2  0  0  0  0
  3 10  2  0  0  0  0
  3 18  1  0  0  0  0
  4 11  1  0  0  0  0
  4 18  2  0  0  0  0
  5 21  1  0  0  0  0
  6 23  1  0  0  0  0
  7 12  2  0  0  0  0
  7 22  1  0  0  0  0
  8  9  2  0  0  0  0
  8 25  1  0  0  0  0
  9 26  1  0  0  0  0
 10 27  1  0  0  0  0
 11 27  2  0  0  0  0
 12 28  1  0  0  0  0
 13 14  2  0  0  0  0
 13 29  1  0  0  0  0
 14 30  1  0  0  0  0
 15 19  1  0  0  0  0
 15 25  2  0  0  0  0
 16 24  1  0  0  0  0
 16 28  2  0  0  0  0
 17 30  2  0  0  0  0
 17 31  1  0  0  0  0
 18 32  1  0  0  0  0
 19 26  2  0  0  0  0
 19 34  1  0  0  0  0
 20 32  1  0  0  0  0
 20 33  2  0  0  0  0
 20 38  1  0  0  0  0
 21 23  2  0  0  0  0
 21 43  1  0  0  0  0
 22 24  2  0  0  0  0
 22 44  1  0  0  0  0
 23 52  1  0  0  0  0
 24 45  1  0  0  0  0
 25 61  1  0  0  0  0
 26 55  1  0  0  0  0
 27 80  1  0  0  0  0
 28 81  1  0  0  0  0
 29 31  2  0  0  0  0
 29 80  1  0  0  0  0
 30 82  1  0  0  0  0
 31 83  1  0  0  0  0
 32 66  2  0  0  0  0
 33 67  1  0  0  0  0
 33 70  1  0  0  0  0
 34 35  2  0  0  0  0
 35 39  1  0  0  0  0
 36 37  2  0  0  0  0
 36 61  1  0  0  0  0
 37 62  1  0  0  0  0
 38 71  1  0  0  0  0
 38 75  2  0  0  0  0
 39 68  1  0  0  0  0
 39 76  2  0  0  0  0
 40 53  1  0  0  0  0
 40 72  1  0  0  0  0
 40 77  2  0  0  0  0
 41 63  1  0  0  0  0
 41 69  1  0  0  0  0
 41 78  2  0  0  0  0
 42 64  1  0  0  0  0
 42 73  1  0  0  0  0
 42 79  2  0  0  0  0
 43 46  1  0  0  0  0
 44 53  1  0  0  0  0
 45 69  1  0  0  0  0
 46 48  1  0  0  0  0
 47 49  1  0  0  0  0
 47 50  1  0  0  0  0
 48 52  1  0  0  0  0
 49 54  1  0  0  0  0
 50 68  1  0  0  0  0
 51 54  1  0  0  0  0
 51 68  1  0  0  0  0
 52 72  1  0  0  0  0
 53 69  1  0  0  0  0
 54 67  1  0  0  0  0
 56 64  1  0  0  0  0
 57 65  1  0  0  0  0
 58 65  1  0  0  0  0
 59 65  1  0  0  0  0
 60 74  1  0  0  0  0
 62 81  1  0  0  0  0
 63 65  1  0  0  0  0
 63 73  1  0  0  0  0
 64 74  1  0  0  0  0
 66 67  1  0  0  0  0
M  CHG  1  74   1
M  ISO  4  35 100  39 100  62 101  81 101
M  END
> <Batch ID>
0129

> <Smiles>
CNC(C)C(=O)NC(C(=O)N1Cc2cc([101O:1][101CH2:1]C=CCc3ccc(C)c(C=[100CH:0][100C:0](=O)N4CCCC(n5nc(-c6ccc(Oc7ccc(F)cc7F)cc6)c(C(N)=O)c5N)C4)c3)ccc2CC1C(=O)NC1CCCc2ccccc21)C(C)(C)C

> <Shape>
0.244

> <Color>
0.086

> <Negative vol penalty>
0.000

$$$$

  -OEChem-04052302193D

 87 96  0     1  0  0  0  0  0999 V2000
  -18.9514  -19.5292   25.4614 C   0  0  0  0  0  0  0  0  0  0  0  0
  -20.2794  -19.9224   25.3296 C   0  0  0  0  0  0  0  0  0  0  0  0
  -23.7896  -11.2407   23.7620 C   0  0  0  0  0  0  0  0  0  0  0  0
  -24.8152   -9.7170   22.1924 C   0  0  0  0  0  0  0  0  0  0  0  0
  -30.1285  -21.0779   21.5758 C   0  0  0  0  0  0  0  0  0  0  0  0
  -17.9579  -20.1764   24.7279 C   0  0  0  0  0  0  0  0  0  0  0  0
  -20.6147  -20.9624   24.4634 C   0  0  0  0  0  0  0  0  0  0  0  0
  -25.0487  -25.1149   25.2393 C   0  0  0  0  0  0  0  0  0  0  0  0
  -30.0514  -19.7274   21.2355 C   0  0  0  0  0  0  0  0  0  0  0  0
  -23.3592  -10.1593   24.5307 C   0  0  0  0  0  0  0  0  0  0  0  0
  -24.3849   -8.6355   22.9612 C   0  0  0  0  0  0  0  0  0  0  0  0
  -26.3484  -25.2032   24.7427 C   0  0  0  0  0  0  0  0  0  0  0  0
  -21.5184   -6.9109   23.4507 C   0  0  0  0  0  0  0  0  0  0  0  0
  -20.9442   -5.8291   22.7833 C   0  0  0  0  0  0  0  0  0  0  0  0
  -25.5663  -26.6373   22.9676 C   0  0  0  0  0  0  0  0  0  0  0  0
  -27.6424  -19.8876   21.1455 C   0  0  0  0  0  0  0  0  0  0  0  0
  -22.6708   -4.3781   23.6496 C   0  0  0  0  0  0  0  0  0  0  0  0
  -24.5175  -11.0196   22.5928 C   0  0  0  0  0  0  0  0  0  0  0  0
  -28.9625  -21.8333   21.7010 C   0  0  0  0  0  0  0  0  0  0  0  0
  -24.1586  -13.1161   21.1846 C   0  0  0  0  0  0  0  0  0  0  0  0
  -18.2801  -21.2313   23.8595 C   0  0  0  0  0  0  0  0  0  0  0  0
  -23.9944  -25.7794   24.5964 C   0  0  0  0  0  0  0  0  0  0  0  0
  -19.6248  -21.6234   23.7166 C   0  0  0  0  0  0  0  0  0  0  0  0
  -24.2545  -26.5578   23.4596 C   0  0  0  0  0  0  0  0  0  0  0  0
  -27.7195  -21.2381   21.4859 C   0  0  0  0  0  0  0  0  0  0  0  0
  -28.8084  -19.1323   21.0203 C   0  0  0  0  0  0  0  0  0  0  0  0
  -23.6569   -8.8567   24.1303 C   0  0  0  0  0  0  0  0  0  0  0  0
  -26.6069  -25.9621   23.6050 C   0  0  0  0  0  0  0  0  0  0  0  0
  -22.6689   -6.7263   24.2176 C   0  0  0  0  0  0  0  0  0  0  0  0
  -21.5203   -4.5626   22.8827 C   0  0  0  0  0  0  0  0  0  0  0  0
  -23.2451   -5.4599   24.3170 C   0  0  0  0  0  0  0  0  0  0  0  0
  -24.9619  -12.1362   21.7980 C   0  0  0  0  0  0  0  0  0  0  0  0
  -25.0521  -13.9470   20.5538 C   0  0  0  0  0  0  0  0  0  0  0  0
  -29.0731  -23.2536   22.0612 C   0  0  0  0  0  0  0  0  0  0  0  0
  -22.7323  -13.2624   21.1849 C   0  0  0  0  0  0  0  0  0  0  0  0
  -21.3094  -24.8649   23.1618 C   0  0  0  0  0  0  0  0  0  0  0  0
  -20.7666  -28.0590   23.0020 C   0  0  0  0  0  0  0  0  0  0  0  0
  -22.6898  -31.0238   22.2749 C   0  0  0  0  0  0  0  0  0  0  0  0
  -29.7913  -16.8695   20.5101 C   0  0  0  0  0  0  0  0  0  0  0  0
  -17.1776  -21.8693   23.0519 C   0  0  0  0  0  0  0  0  0  0  0  0
  -22.6024  -25.6957   25.1602 C   0  0  0  0  0  0  0  0  0  0  0  0
  -23.1610  -27.3069   22.7443 C   0  0  0  0  0  0  0  0  0  0  0  0
  -17.5704  -23.2105   22.4378 C   0  0  0  0  0  0  0  0  0  0  0  0
  -30.0123  -13.4096   19.6995 C   0  0  0  0  0  0  0  0  0  0  0  0
  -29.1526  -25.2059   18.8959 C   0  0  0  0  0  0  0  0  0  0  0  0
  -18.9424  -23.1142   21.7781 C   0  0  0  0  0  0  0  0  0  0  0  0
  -28.6519  -12.8505   20.1228 C   0  0  0  0  0  0  0  0  0  0  0  0
  -29.7944  -26.1521   19.9054 C   0  0  0  0  0  0  0  0  0  0  0  0
  -29.2171  -23.8562   19.5927 C   0  0  0  0  0  0  0  0  0  0  0  0
  -30.5030  -14.4933   20.6579 C   0  0  0  0  0  0  0  0  0  0  0  0
  -28.1916  -15.0266   21.3226 C   0  0  0  0  0  0  0  0  0  0  0  0
  -20.0252  -22.7637   22.8058 C   0  0  1  0  0  0  0  0  0  0  0  0
  -21.5205  -25.9964   24.1276 C   0  0  1  0  0  0  0  0  0  0  0  0
  -27.6258  -13.9776   20.3514 C   0  0  2  0  0  0  0  0  0  0  0  0
  -29.3342  -25.6027   21.2571 C   0  0  1  0  0  0  0  0  0  0  0  0
  -25.5082  -21.4292   22.6523 C   0  0  0  0  0  0  0  0  0  0  0  0
  -22.3717  -33.3985   23.0211 C   0  0  0  0  0  0  0  0  0  0  0  0
  -19.2402  -28.3738   20.3788 C   0  0  0  0  0  0  0  0  0  0  0  0
  -20.2490  -30.6533   20.1461 C   0  0  0  0  0  0  0  0  0  0  0  0
  -18.7622  -30.1411   22.0825 C   0  0  0  0  0  0  0  0  0  0  0  0
  -25.4331  -31.1674   23.3760 C   0  0  0  0  0  0  0  0  0  0  0  0
  -26.4554  -22.0239   21.6148 C   0  0  0  0  0  0  0  0  0  0  0  0
  -28.0180  -26.2335   21.7100 C   0  0  0  0  0  0  0  0  0  1  0  0
  -21.0866  -29.1494   22.0082 C   0  0  1  0  0  0  0  0  0  0  0  0
  -23.1167  -32.0949   23.2623 C   0  0  2  0  0  0  0  0  0  0  0  0
  -19.8511  -29.5564   21.1567 C   0  0  0  0  0  0  0  0  0  0  0  0
  -26.2654  -12.3256   21.5768 N   0  0  0  0  0  0  0  0  0  0  0  0
  -26.2881  -13.4340   20.8172 N   0  0  0  0  0  0  0  0  0  0  0  0
  -29.1857  -24.1656   21.0210 N   0  0  0  0  0  0  0  0  0  0  0  0
  -21.8157  -27.1887   23.3304 N   0  0  0  0  0  0  0  0  0  0  0  0
  -29.4809  -15.5291   20.8226 N   0  0  0  0  0  0  0  0  0  0  0  0
  -24.8932  -15.0589   19.8050 N   0  0  0  0  0  0  0  0  0  0  0  0
  -21.9643  -12.3204   21.8830 N   0  0  0  0  0  0  0  0  0  0  0  0
  -28.7310  -17.7603   20.6747 N   0  0  0  0  0  0  0  0  0  0  0  0
  -20.3815  -23.9315   23.5828 N   0  0  0  0  0  0  0  0  0  0  0  0
  -21.6694  -30.2439   22.7769 N   0  0  0  0  0  0  0  0  0  0  0  0
  -24.5783  -32.3592   23.1399 N   0  3  0  0  0  0  0  0  0  0  0  0
  -29.0483  -23.5324   23.2577 O   0  0  0  0  0  0  0  0  0  0  0  0
  -22.1550  -14.1911   20.5704 O   0  0  0  0  0  0  0  0  0  0  0  0
  -21.9405  -24.8412   22.1116 O   0  0  0  0  0  0  0  0  0  0  0  0
  -19.6296  -27.9865   23.4750 O   0  0  0  0  0  0  0  0  0  0  0  0
  -23.2069  -30.8944   21.1675 O   0  0  0  0  0  0  0  0  0  0  0  0
  -30.9069  -17.1984   20.0989 O   0  0  0  0  0  0  0  0  0  0  0  0
  -23.2373   -7.8012   24.8803 O   0  0  0  0  0  0  0  0  0  0  0  0
  -27.8745  -26.0495   23.1178 O   0  0  0  0  0  0  0  0  0  1  0  0
  -20.9679   -3.5236   22.2430 F   0  0  0  0  0  0  0  0  0  0  0  0
  -24.3496   -5.2763   25.0532 F   0  0  0  0  0  0  0  0  0  0  0  0
  1  2  1  0  0  0  0
  1  6  2  0  0  0  0
  2  7  2  0  0  0  0
  3 10  2  0  0  0  0
  3 18  1  0  0  0  0
  4 11  1  0  0  0  0
  4 18  2  0  0  0  0
  5  9  2  0  0  0  0
  5 19  1  0  0  0  0
  6 21  1  0  0  0  0
  7 23  1  0  0  0  0
  8 12  2  0  0  0  0
  8 22  1  0  0  0  0
  9 26  1  0  0  0  0
 10 27  1  0  0  0  0
 11 27  2  0  0  0  0
 12 28  1  0  0  0  0
 13 14  2  0  0  0  0
 13 29  1  0  0  0  0
 14 30  1  0  0  0  0
 15 24  1  0  0  0  0
 15 28  2  0  0  0  0
 16 25  1  0  0  0  0
 16 26  2  0  0  0  0
 17 30  2  0  0  0  0
 17 31  1  0  0  0  0
 18 32  1  0  0  0  0
 19 25  2  0  0  0  0
 19 34  1  0  0  0  0
 20 32  1  0  0  0  0
 20 33  2  0  0  0  0
 20 35  1  0  0  0  0
 21 23  2  0  0  0  0
 21 40  1  0  0  0  0
 22 24  2  0  0  0  0
 22 41  1  0  0  0  0
 23 52  1  0  0  0  0
 24 42  1  0  0  0  0
 25 62  1  0  0  0  0
 26 74  1  0  0  0  0
 27 84  1  0  0  0  0
 28 85  1  0  0  0  0
 29 31  2  0  0  0  0
 29 84  1  0  0  0  0
 30 86  1  0  0  0  0
 31 87  1  0  0  0  0
 32 67  2  0  0  0  0
 33 68  1  0  0  0  0
 33 72  1  0  0  0  0
 34 69  1  0  0  0  0
 34 78  2  0  0  0  0
 35 73  1  0  0  0  0
 35 79  2  0  0  0  0
 36 53  1  0  0  0  0
 36 75  1  0  0  0  0
 36 80  2  0  0  0  0
 37 64  1  0  0  0  0
 37 70  1  0  0  0  0
 37 81  2  0  0  0  0
 38 65  1  0  0  0  0
 38 76  1  0  0  0  0
 38 82  2  0  0  0  0
 39 71  1  0  0  0  0
 39 74  1  0  0  0  0
 39 83  2  0  0  0  0
 40 43  1  0  0  0  0
 41 53  1  0  0  0  0
 42 70  1  0  0  0  0
 43 46  1  0  0  0  0
 44 47  1  0  0  0  0
 44 50  1  0  0  0  0
 45 48  1  0  0  0  0
 45 49  1  0  0  0  0
 46 52  1  0  0  0  0
 47 54  1  0  0  0  0
 48 55  1  0  0  0  0
 49 69  1  0  0  0  0
 50 71  1  0  0  0  0
 51 54  1  0  0  0  0
 51 71  1  0  0  0  0
 52 75  1  0  0  0  0
 53 70  1  0  0  0  0
 54 68  1  0  0  0  0
 55 63  1  0  0  0  0
 55 69  1  0  0  0  0
 56 62  1  0  0  0  0
 57 65  1  0  0  0  0
 58 66  1  0  0  0  0
 59 66  1  0  0  0  0
 60 66  1  0  0  0  0
 61 77  1  0  0  0  0
 63 85  1  0  0  0  0
 64 66  1  0  0  0  0
 64 76  1  0  0  0  0
 65 77  1  0  0  0  0
 67 68  1  0  0  0  0
M  CHG  1  77   1
M  ISO  4  39 100  63 101  74 100  85 101
M  END
> <Batch ID>
0129

> <Smiles>
CCc1cc([100NH:0][100C:0](=O)N2CCCC(n3nc(-c4ccc(Oc5ccc(F)cc5F)cc4)c(C(N)=O)c3N)C2)ccc1C(=O)N1CCCC1[101CH2:1][101O:1]c1ccc2c(c1)CN(C(=O)C(NC(=O)C(C)NC)C(C)(C)C)C(C(=O)NC1CCCc3ccccc31)C2

> <Shape>
0.257

> <Color>
0.100

> <Negative vol penalty>
0.000

$$$$

  -OEChem-04052302193D

 83 91  0     1  0  0  0  0  0999 V2000
  -26.3980  -33.2109   26.7808 C   0  0  0  0  0  0  0  0  0  0  0  0
  -26.8676  -32.1663   25.9910 C   0  0  0  0  0  0  0  0  0  0  0  0
  -23.5894   -9.9335   22.1575 C   0  0  0  0  0  0  0  0  0  0  0  0
  -24.6690   -8.7121   20.3743 C   0  0  0  0  0  0  0  0  0  0  0  0
  -29.8845  -21.2481   19.1565 C   0  0  0  0  0  0  0  0  0  0  0  0
  -25.0454  -33.2793   27.1119 C   0  0  0  0  0  0  0  0  0  0  0  0
  -25.9850  -31.1889   25.5327 C   0  0  0  0  0  0  0  0  0  0  0  0
  -26.6880  -30.0752   20.6429 C   0  0  0  0  0  0  0  0  0  0  0  0
  -30.1342  -22.4569   18.5067 C   0  0  0  0  0  0  0  0  0  0  0  0
  -22.6006   -8.9524   22.2308 C   0  0  0  0  0  0  0  0  0  0  0  0
  -23.6802   -7.7310   20.4477 C   0  0  0  0  0  0  0  0  0  0  0  0
  -27.7615  -29.2435   20.3272 C   0  0  0  0  0  0  0  0  0  0  0  0
  -22.2585   -5.8534   23.5393 C   0  0  0  0  0  0  0  0  0  0  0  0
  -21.8868   -5.4011   24.8053 C   0  0  0  0  0  0  0  0  0  0  0  0
  -27.5508  -21.4047   18.5508 C   0  0  0  0  0  0  0  0  0  0  0  0
  -26.2516  -27.3700   20.1553 C   0  0  0  0  0  0  0  0  0  0  0  0
  -19.6200   -6.1329   24.4012 C   0  0  0  0  0  0  0  0  0  0  0  0
  -24.6236   -9.8134   21.2292 C   0  0  0  0  0  0  0  0  0  0  0  0
  -28.5928  -20.7220   19.1785 C   0  0  0  0  0  0  0  0  0  0  0  0
  -26.8601  -10.8643   21.8624 C   0  0  0  0  0  0  0  0  0  0  0  0
  -24.1440  -32.3075   26.6495 C   0  0  0  0  0  0  0  0  0  0  0  0
  -25.3875  -29.5575   20.7280 C   0  0  0  0  0  0  0  0  0  0  0  0
  -24.6193  -31.2437   25.8591 C   0  0  0  0  0  0  0  0  0  0  0  0
  -25.1630  -28.1977   20.4697 C   0  0  0  0  0  0  0  0  0  0  0  0
  -29.0923  -23.1395   17.8790 C   0  0  0  0  0  0  0  0  0  0  0  0
  -27.8006  -22.6135   17.9011 C   0  0  0  0  0  0  0  0  0  0  0  0
  -22.6460   -7.8512   21.3759 C   0  0  0  0  0  0  0  0  0  0  0  0
  -27.5438  -27.8901   20.0862 C   0  0  0  0  0  0  0  0  0  0  0  0
  -21.3110   -6.4456   22.7043 C   0  0  0  0  0  0  0  0  0  0  0  0
  -20.5675   -5.5407   25.2363 C   0  0  0  0  0  0  0  0  0  0  0  0
  -19.9917   -6.5853   23.1352 C   0  0  0  0  0  0  0  0  0  0  0  0
  -25.6450  -10.8267   21.1526 C   0  0  0  0  0  0  0  0  0  0  0  0
  -27.4696  -12.0199   21.4387 C   0  0  0  0  0  0  0  0  0  0  0  0
  -28.3326  -19.4612   19.8557 C   0  0  0  0  0  0  0  0  0  0  0  0
  -27.2646  -18.6634   19.6421 C   0  0  0  0  0  0  0  0  0  0  0  0
  -27.3906   -9.9374   22.8190 C   0  0  0  0  0  0  0  0  0  0  0  0
  -27.1467  -17.4044   20.4048 C   0  0  0  0  0  0  0  0  0  0  0  0
  -23.2163  -29.3152   23.0368 C   0  0  0  0  0  0  0  0  0  0  0  0
  -21.3415  -28.2245   20.6247 C   0  0  0  0  0  0  0  0  0  0  0  0
  -21.1381  -26.7639   17.5470 C   0  0  0  0  0  0  0  0  0  0  0  0
  -22.6993  -32.3976   27.0727 C   0  0  0  0  0  0  0  0  0  0  0  0
  -24.2366  -30.4731   21.0433 C   0  0  0  0  0  0  0  0  0  0  0  0
  -23.7832  -27.5967   20.5284 C   0  0  0  0  0  0  0  0  0  0  0  0
  -21.7642  -31.5281   26.2361 C   0  0  0  0  0  0  0  0  0  0  0  0
  -26.3616  -15.1382   17.6335 C   0  0  0  0  0  0  0  0  0  0  0  0
  -22.3473  -30.1292   26.0641 C   0  0  0  0  0  0  0  0  0  0  0  0
  -26.1585  -13.8219   18.3791 C   0  0  0  0  0  0  0  0  0  0  0  0
  -25.8918  -16.3385   18.4541 C   0  0  0  0  0  0  0  0  0  0  0  0
  -26.3039  -15.0936   20.5567 C   0  0  0  0  0  0  0  0  0  0  0  0
  -23.6885  -30.1780   25.3222 C   0  0  1  0  0  0  0  0  0  0  0  0
  -23.0251  -29.7375   21.6075 C   0  0  1  0  0  0  0  0  0  0  0  0
  -26.8132  -13.8767   19.7685 C   0  0  1  0  0  0  0  0  0  0  0  0
  -26.2899  -22.6911   15.9015 C   0  0  0  0  0  0  0  0  0  0  0  0
  -19.4688  -25.9651   15.8521 C   0  0  0  0  0  0  0  0  0  0  0  0
  -20.7781  -25.7661   22.3419 C   0  0  0  0  0  0  0  0  0  0  0  0
  -19.9249  -24.6141   20.2893 C   0  0  0  0  0  0  0  0  0  0  0  0
  -18.7868  -26.6693   21.1280 C   0  0  0  0  0  0  0  0  0  0  0  0
  -22.1424  -28.6489   15.4983 C   0  0  0  0  0  0  0  0  0  0  0  0
  -29.3870  -24.4442   17.1830 C   0  0  0  0  0  0  0  0  0  0  0  0
  -26.6694  -23.3264   17.2357 C   0  0  0  0  0  0  0  0  0  0  0  0
  -29.5709  -25.6247   18.1392 C   0  0  0  0  0  0  0  0  0  0  0  0
  -28.3158  -25.9557   18.9382 C   0  0  0  0  0  0  0  0  0  1  0  0
  -21.0525  -26.8700   20.0241 C   0  0  1  0  0  0  0  0  0  0  0  0
  -20.3358  -27.1273   16.3106 C   0  0  2  0  0  0  0  0  0  0  0  0
  -20.1619  -25.9905   20.9465 C   0  0  0  0  0  0  0  0  0  0  0  0
  -25.4899  -11.8753   20.3399 N   0  0  0  0  0  0  0  0  0  0  0  0
  -26.6156  -12.5826   20.5363 N   0  0  0  0  0  0  0  0  0  0  0  0
  -26.4864  -16.3368   19.7992 N   0  0  0  0  0  0  0  0  0  0  0  0
  -22.6914  -28.5315   20.8469 N   0  0  0  0  0  0  0  0  0  0  0  0
  -28.6474  -12.5996   21.7538 N   0  0  0  0  0  0  0  0  0  0  0  0
  -26.6341   -8.8020   23.1397 N   0  0  0  0  0  0  0  0  0  0  0  0
  -23.4745  -30.3607   23.9026 N   0  0  0  0  0  0  0  0  0  0  0  0
  -20.4813  -27.1216   18.7054 N   0  0  0  0  0  0  0  0  0  0  0  0
  -21.2477  -27.5028   15.1933 N   0  3  0  0  0  0  0  0  0  0  0  0
  -28.4950  -10.1193   23.3852 O   0  0  0  0  0  0  0  0  0  0  0  0
  -27.6365  -17.3764   21.5353 O   0  0  0  0  0  0  0  0  0  0  0  0
  -23.1340  -28.1288   23.3324 O   0  0  0  0  0  0  0  0  0  0  0  0
  -20.4046  -28.9850   20.8804 O   0  0  0  0  0  0  0  0  0  0  0  0
  -22.2358  -26.2140   17.4909 O   0  0  0  0  0  0  0  0  0  0  0  0
  -21.6814   -6.8935   21.4474 O   0  0  0  0  0  0  0  0  0  0  0  0
  -28.5899  -27.0759   19.7786 O   0  0  0  0  0  0  0  0  0  1  0  0
  -20.2104   -5.1049   26.4514 F   0  0  0  0  0  0  0  0  0  0  0  0
  -19.0768   -7.1523   22.3370 F   0  0  0  0  0  0  0  0  0  0  0  0
  1  2  1  0  0  0  0
  1  6  2  0  0  0  0
  2  7  2  0  0  0  0
  3 10  2  0  0  0  0
  3 18  1  0  0  0  0
  4 11  1  0  0  0  0
  4 18  2  0  0  0  0
  5  9  2  0  0  0  0
  5 19  1  0  0  0  0
  6 21  1  0  0  0  0
  7 23  1  0  0  0  0
  8 12  2  0  0  0  0
  8 22  1  0  0  0  0
  9 25  1  0  0  0  0
 10 27  1  0  0  0  0
 11 27  2  0  0  0  0
 12 28  1  0  0  0  0
 13 14  2  0  0  0  0
 13 29  1  0  0  0  0
 14 30  1  0  0  0  0
 15 19  2  0  0  0  0
 15 26  1  0  0  0  0
 16 24  1  0  0  0  0
 16 28  2  0  0  0  0
 17 30  2  0  0  0  0
 17 31  1  0  0  0  0
 18 32  1  0  0  0  0
 19 34  1  0  0  0  0
 20 32  1  0  0  0  0
 20 33  2  0  0  0  0
 20 36  1  0  0  0  0
 21 23  2  0  0  0  0
 21 41  1  0  0  0  0
 22 24  2  0  0  0  0
 22 42  1  0  0  0  0
 23 50  1  0  0  0  0
 24 43  1  0  0  0  0
 25 26  2  0  0  0  0
 25 59  1  0  0  0  0
 26 60  1  0  0  0  0
 27 80  1  0  0  0  0
 28 81  1  0  0  0  0
 29 31  2  0  0  0  0
 29 80  1  0  0  0  0
 30 82  1  0  0  0  0
 31 83  1  0  0  0  0
 32 66  2  0  0  0  0
 33 67  1  0  0  0  0
 33 70  1  0  0  0  0
 34 35  2  0  0  0  0
 35 37  1  0  0  0  0
 36 71  1  0  0  0  0
 36 75  2  0  0  0  0
 37 68  1  0  0  0  0
 37 76  2  0  0  0  0
 38 51  1  0  0  0  0
 38 72  1  0  0  0  0
 38 77  2  0  0  0  0
 39 63  1  0  0  0  0
 39 69  1  0  0  0  0
 39 78  2  0  0  0  0
 40 64  1  0  0  0  0
 40 73  1  0  0  0  0
 40 79  2  0  0  0  0
 41 44  1  0  0  0  0
 42 51  1  0  0  0  0
 43 69  1  0  0  0  0
 44 46  1  0  0  0  0
 45 47  1  0  0  0  0
 45 48  1  0  0  0  0
 46 50  1  0  0  0  0
 47 52  1  0  0  0  0
 48 68  1  0  0  0  0
 49 52  1  0  0  0  0
 49 68  1  0  0  0  0
 50 72  1  0  0  0  0
 51 69  1  0  0  0  0
 52 67  1  0  0  0  0
 53 60  1  0  0  0  0
 54 64  1  0  0  0  0
 55 65  1  0  0  0  0
 56 65  1  0  0  0  0
 57 65  1  0  0  0  0
 58 74  1  0  0  0  0
 59 61  1  0  0  0  0
 61 62  1  0  0  0  0
 62 81  1  0  0  0  0
 63 65  1  0  0  0  0
 63 73  1  0  0  0  0
 64 74  1  0  0  0  0
 66 67  1  0  0  0  0
M  CHG  1  74   1
M  ISO  4  35 100  37 100  62 101  81 101
M  END
> <Batch ID>
0129

> <Smiles>
CCc1cc(C=[100CH:0][100C:0](=O)N2CCCC(n3nc(-c4ccc(Oc5ccc(F)cc5F)cc4)c(C(N)=O)c3N)C2)ccc1CC[101CH2:1][101O:1]c1ccc2c(c1)CN(C(=O)C(NC(=O)C(C)NC)C(C)(C)C)C(C(=O)NC1CCCc3ccccc31)C2

> <Shape>
0.285

> <Color>
0.102

> <Negative vol penalty>
0.000

$$$$

  -OEChem-04052302193D

 84 92  0     1  0  0  0  0  0999 V2000
  -28.0924  -33.7096   27.2022 C   0  0  0  0  0  0  0  0  0  0  0  0
  -28.3251  -32.7194   26.2530 C   0  0  0  0  0  0  0  0  0  0  0  0
  -24.2325   -9.0170   22.2901 C   0  0  0  0  0  0  0  0  0  0  0  0
  -24.1717   -8.6368   19.9050 C   0  0  0  0  0  0  0  0  0  0  0  0
  -30.0985  -20.5283   21.8575 C   0  0  0  0  0  0  0  0  0  0  0  0
  -26.7903  -33.9795   27.6214 C   0  0  0  0  0  0  0  0  0  0  0  0
  -27.2560  -31.9978   25.7233 C   0  0  0  0  0  0  0  0  0  0  0  0
  -27.5622  -31.4811   20.6950 C   0  0  0  0  0  0  0  0  0  0  0  0
  -30.3400  -21.8796   21.6098 C   0  0  0  0  0  0  0  0  0  0  0  0
  -23.1436   -8.1609   22.4543 C   0  0  0  0  0  0  0  0  0  0  0  0
  -23.0828   -7.7807   20.0692 C   0  0  0  0  0  0  0  0  0  0  0  0
  -28.4446  -30.5185   20.2064 C   0  0  0  0  0  0  0  0  0  0  0  0
  -22.5878   -4.8269   22.5462 C   0  0  0  0  0  0  0  0  0  0  0  0
  -22.6500   -3.8895   23.5771 C   0  0  0  0  0  0  0  0  0  0  0  0
  -26.5982  -29.0010   19.8788 C   0  0  0  0  0  0  0  0  0  0  0  0
  -30.3884  -21.4355   19.2354 C   0  0  0  0  0  0  0  0  0  0  0  0
  -20.6708   -4.8531   24.5727 C   0  0  0  0  0  0  0  0  0  0  0  0
  -24.7465   -9.2550   21.0154 C   0  0  0  0  0  0  0  0  0  0  0  0
  -30.0022  -19.6306   20.7942 C   0  0  0  0  0  0  0  0  0  0  0  0
  -27.2354   -9.7939   20.8651 C   0  0  0  0  0  0  0  0  0  0  0  0
  -25.7038  -33.2674   27.0895 C   0  0  0  0  0  0  0  0  0  0  0  0
  -26.1903  -31.2065   20.7895 C   0  0  0  0  0  0  0  0  0  0  0  0
  -25.9383  -32.2575   26.1368 C   0  0  0  0  0  0  0  0  0  0  0  0
  -25.7002  -29.9627   20.3666 C   0  0  0  0  0  0  0  0  0  0  0  0
  -30.4849  -22.3332   20.2987 C   0  0  0  0  0  0  0  0  0  0  0  0
  -30.1471  -20.0842   19.4832 C   0  0  0  0  0  0  0  0  0  0  0  0
  -22.5687   -7.5427   21.3439 C   0  0  0  0  0  0  0  0  0  0  0  0
  -27.9630  -29.2772   19.8010 C   0  0  0  0  0  0  0  0  0  0  0  0
  -21.5671   -5.7775   22.5285 C   0  0  0  0  0  0  0  0  0  0  0  0
  -21.6915   -3.9025   24.5904 C   0  0  0  0  0  0  0  0  0  0  0  0
  -20.6086   -5.7906   23.5417 C   0  0  0  0  0  0  0  0  0  0  0  0
  -25.8710  -10.1397   20.8450 C   0  0  0  0  0  0  0  0  0  0  0  0
  -27.8937  -10.9814   20.6582 C   0  0  0  0  0  0  0  0  0  0  0  0
  -29.7497  -18.2257   21.0859 C   0  0  0  0  0  0  0  0  0  0  0  0
  -28.6576  -17.7423   21.7126 C   0  0  0  0  0  0  0  0  0  0  0  0
  -27.8526   -8.5136   21.0540 C   0  0  0  0  0  0  0  0  0  0  0  0
  -28.5423  -16.2857   21.9266 C   0  0  0  0  0  0  0  0  0  0  0  0
  -24.0943  -31.0442   23.1736 C   0  0  0  0  0  0  0  0  0  0  0  0
  -29.7135  -26.1045   19.6357 C   0  0  0  0  0  0  0  0  0  0  0  0
  -21.9626  -30.6745   20.7567 C   0  0  0  0  0  0  0  0  0  0  0  0
  -21.3761  -29.7303   17.5300 C   0  0  0  0  0  0  0  0  0  0  0  0
  -24.3187  -33.5623   27.6083 C   0  0  0  0  0  0  0  0  0  0  0  0
  -25.2482  -32.2651   21.2937 C   0  0  0  0  0  0  0  0  0  0  0  0
  -24.2336  -29.6255   20.4288 C   0  0  0  0  0  0  0  0  0  0  0  0
  -23.2057  -33.0093   26.7220 C   0  0  0  0  0  0  0  0  0  0  0  0
  -26.1813  -15.5058   19.2341 C   0  0  0  0  0  0  0  0  0  0  0  0
  -23.5032  -31.5655   26.3297 C   0  0  0  0  0  0  0  0  0  0  0  0
  -25.9697  -14.0102   19.4533 C   0  0  0  0  0  0  0  0  0  0  0  0
  -26.3926  -16.2523   20.5505 C   0  0  0  0  0  0  0  0  0  0  0  0
  -27.2815  -14.1931   21.6040 C   0  0  0  0  0  0  0  0  0  0  0  0
  -24.8023  -31.4702   25.5206 C   0  0  1  0  0  0  0  0  0  0  0  0
  -23.9383  -31.6938   21.8278 C   0  0  1  0  0  0  0  0  0  0  0  0
  -27.1138  -13.4153   20.2894 C   0  0  1  0  0  0  0  0  0  0  0  0
  -30.0503  -19.1509   18.3194 C   0  0  0  0  0  0  0  0  0  0  0  0
  -19.5268  -29.5042   15.8489 C   0  0  0  0  0  0  0  0  0  0  0  0
  -20.9977  -28.1439   22.1621 C   0  0  0  0  0  0  0  0  0  0  0  0
  -19.8686  -27.4742   20.0303 C   0  0  0  0  0  0  0  0  0  0  0  0
  -19.1760  -29.5639   21.2032 C   0  0  0  0  0  0  0  0  0  0  0  0
  -22.6519  -31.6689   15.6934 C   0  0  0  0  0  0  0  0  0  0  0  0
  -30.7446  -23.7962   20.0298 C   0  0  0  0  0  0  0  0  0  0  0  0
  -29.4668  -24.6182   19.8507 C   0  0  0  0  0  0  0  0  0  0  0  0
  -28.4718  -26.9690   19.5383 C   0  0  0  0  0  0  0  0  0  1  0  0
  -21.3983  -29.4965   19.9997 C   0  0  1  0  0  0  0  0  0  0  0  0
  -20.6161  -30.4084   16.4044 C   0  0  2  0  0  0  0  0  0  0  0  0
  -20.3881  -28.6750   20.8493 C   0  0  0  0  0  0  0  0  0  0  0  0
  -25.6728  -11.4448   20.6415 N   0  0  0  0  0  0  0  0  0  0  0  0
  -26.9214  -11.9295   20.5319 N   0  0  0  0  0  0  0  0  0  0  0  0
  -27.4519  -15.6295   21.3584 N   0  0  0  0  0  0  0  0  0  0  0  0
  -23.3532  -30.6914   20.9350 N   0  0  0  0  0  0  0  0  0  0  0  0
  -29.2036  -11.2967   20.5738 N   0  0  0  0  0  0  0  0  0  0  0  0
  -27.0286   -7.3976   21.2536 N   0  0  0  0  0  0  0  0  0  0  0  0
  -24.5783  -31.8896   24.1537 N   0  0  0  0  0  0  0  0  0  0  0  0
  -20.8407  -30.0348   18.7637 N   0  0  0  0  0  0  0  0  0  0  0  0
  -21.5438  -30.7637   15.2935 N   0  3  0  0  0  0  0  0  0  0  0  0
  -29.0983   -8.3663   21.0622 O   0  0  0  0  0  0  0  0  0  0  0  0
  -29.4173  -15.7390   22.6005 O   0  0  0  0  0  0  0  0  0  0  0  0
  -23.7962  -29.8638   23.3130 O   0  0  0  0  0  0  0  0  0  0  0  0
  -30.8432  -26.5875   19.5792 O   0  0  0  0  0  0  0  0  0  0  0  0
  -21.1985  -31.5511   21.1682 O   0  0  0  0  0  0  0  0  0  0  0  0
  -22.3453  -29.0003   17.3343 O   0  0  0  0  0  0  0  0  0  0  0  0
  -21.5063   -6.7071   21.5038 O   0  0  0  0  0  0  0  0  0  0  0  0
  -28.8221  -28.3357   19.3243 O   0  0  0  0  0  0  0  0  0  1  0  0
  -21.7504   -3.0012   25.5795 F   0  0  0  0  0  0  0  0  0  0  0  0
  -19.6250   -6.7006   23.5295 F   0  0  0  0  0  0  0  0  0  0  0  0
  1  2  1  0  0  0  0
  1  6  2  0  0  0  0
  2  7  2  0  0  0  0
  3 10  2  0  0  0  0
  3 18  1  0  0  0  0
  4 11  1  0  0  0  0
  4 18  2  0  0  0  0
  5  9  2  0  0  0  0
  5 19  1  0  0  0  0
  6 21  1  0  0  0  0
  7 23  1  0  0  0  0
  8 12  2  0  0  0  0
  8 22  1  0  0  0  0
  9 25  1  0  0  0  0
 10 27  1  0  0  0  0
 11 27  2  0  0  0  0
 12 28  1  0  0  0  0
 13 14  2  0  0  0  0
 13 29  1  0  0  0  0
 14 30  1  0  0  0  0
 15 24  1  0  0  0  0
 15 28  2  0  0  0  0
 16 25  2  0  0  0  0
 16 26  1  0  0  0  0
 17 30  2  0  0  0  0
 17 31  1  0  0  0  0
 18 32  1  0  0  0  0
 19 26  2  0  0  0  0
 19 34  1  0  0  0  0
 20 32  1  0  0  0  0
 20 33  2  0  0  0  0
 20 36  1  0  0  0  0
 21 23  2  0  0  0  0
 21 42  1  0  0  0  0
 22 24  2  0  0  0  0
 22 43  1  0  0  0  0
 23 51  1  0  0  0  0
 24 44  1  0  0  0  0
 25 60  1  0  0  0  0
 26 54  1  0  0  0  0
 27 81  1  0  0  0  0
 28 82  1  0  0  0  0
 29 31  2  0  0  0  0
 29 81  1  0  0  0  0
 30 83  1  0  0  0  0
 31 84  1  0  0  0  0
 32 66  2  0  0  0  0
 33 67  1  0  0  0  0
 33 70  1  0  0  0  0
 34 35  2  0  0  0  0
 35 37  1  0  0  0  0
 36 71  1  0  0  0  0
 36 75  2  0  0  0  0
 37 68  1  0  0  0  0
 37 76  2  0  0  0  0
 38 52  1  0  0  0  0
 38 72  1  0  0  0  0
 38 77  2  0  0  0  0
 39 61  1  0  0  0  0
 39 62  1  0  0  0  0
 39 78  2  0  0  0  0
 40 63  1  0  0  0  0
 40 69  1  0  0  0  0
 40 79  2  0  0  0  0
 41 64  1  0  0  0  0
 41 73  1  0  0  0  0
 41 80  2  0  0  0  0
 42 45  1  0  0  0  0
 43 52  1  0  0  0  0
 44 69  1  0  0  0  0
 45 47  1  0  0  0  0
 46 48  1  0  0  0  0
 46 49  1  0  0  0  0
 47 51  1  0  0  0  0
 48 53  1  0  0  0  0
 49 68  1  0  0  0  0
 50 53  1  0  0  0  0
 50 68  1  0  0  0  0
 51 72  1  0  0  0  0
 52 69  1  0  0  0  0
 53 67  1  0  0  0  0
 55 64  1  0  0  0  0
 56 65  1  0  0  0  0
 57 65  1  0  0  0  0
 58 65  1  0  0  0  0
 59 74  1  0  0  0  0
 60 61  1  0  0  0  0
 62 82  1  0  0  0  0
 63 65  1  0  0  0  0
 63 73  1  0  0  0  0
 64 74  1  0  0  0  0
 66 67  1  0  0  0  0
M  CHG  1  74   1
M  ISO  4  35 100  37 100  62 101  82 101
M  END
> <Batch ID>
0129

> <Smiles>
CNC(C)C(=O)NC(C(=O)N1Cc2cc([101O:1][101CH2:1]C(=O)CCc3ccc(C=[100CH:0][100C:0](=O)N4CCCC(n5nc(-c6ccc(Oc7ccc(F)cc7F)cc6)c(C(N)=O)c5N)C4)c(C)c3)ccc2CC1C(=O)NC1CCCc2ccccc21)C(C)(C)C

> <Shape>
0.302

> <Color>
0.084

> <Negative vol penalty>
0.000

$$$$

  -OEChem-04052302193D

 85 93  0     1  0  0  0  0  0999 V2000
  -20.5481  -32.9600   19.0951 C   0  0  0  0  0  0  0  0  0  0  0  0
  -21.8277  -32.4226   19.1915 C   0  0  0  0  0  0  0  0  0  0  0  0
  -26.0914  -12.9697   21.6293 C   0  0  0  0  0  0  0  0  0  0  0  0
  -25.9304  -13.6092   19.3050 C   0  0  0  0  0  0  0  0  0  0  0  0
  -19.6274  -32.7535   20.1216 C   0  0  0  0  0  0  0  0  0  0  0  0
  -22.1877  -31.6793   20.3151 C   0  0  0  0  0  0  0  0  0  0  0  0
  -24.6814  -27.4368   19.1205 C   0  0  0  0  0  0  0  0  0  0  0  0
  -24.9105  -12.2372   21.5096 C   0  0  0  0  0  0  0  0  0  0  0  0
  -24.7494  -12.8767   19.1853 C   0  0  0  0  0  0  0  0  0  0  0  0
  -26.0279  -27.5635   18.7819 C   0  0  0  0  0  0  0  0  0  0  0  0
  -23.9552   -9.2342   20.2838 C   0  0  0  0  0  0  0  0  0  0  0  0
  -23.9263   -7.9555   20.8402 C   0  0  0  0  0  0  0  0  0  0  0  0
  -26.6469  -26.8616   21.0053 C   0  0  0  0  0  0  0  0  0  0  0  0
  -30.3009  -22.2447   18.1406 C   0  0  0  0  0  0  0  0  0  0  0  0
  -29.0504  -20.7895   16.6722 C   0  0  0  0  0  0  0  0  0  0  0  0
  -22.1024   -8.6221   22.2775 C   0  0  0  0  0  0  0  0  0  0  0  0
  -26.6014  -13.6558   20.5270 C   0  0  0  0  0  0  0  0  0  0  0  0
  -29.1333  -13.9525   20.4323 C   0  0  0  0  0  0  0  0  0  0  0  0
  -19.9732  -31.9992   21.2539 C   0  0  0  0  0  0  0  0  0  0  0  0
  -24.3068  -27.0313   20.4096 C   0  0  0  0  0  0  0  0  0  0  0  0
  -21.2712  -31.4637   21.3583 C   0  0  0  0  0  0  0  0  0  0  0  0
  -25.2951  -26.7280   21.3570 C   0  0  0  0  0  0  0  0  0  0  0  0
  -30.9142  -22.8335   17.0348 C   0  0  0  0  0  0  0  0  0  0  0  0
  -30.5956  -22.4004   15.7477 C   0  0  0  0  0  0  0  0  0  0  0  0
  -29.3690  -21.2226   17.9593 C   0  0  0  0  0  0  0  0  0  0  0  0
  -24.2395  -12.1907   20.2876 C   0  0  0  0  0  0  0  0  0  0  0  0
  -27.0108  -27.2788   19.7252 C   0  0  0  0  0  0  0  0  0  0  0  0
  -23.0577  -10.2070   20.7243 C   0  0  0  0  0  0  0  0  0  0  0  0
  -22.9999   -7.6494   21.8370 C   0  0  0  0  0  0  0  0  0  0  0  0
  -29.6637  -21.3784   15.5664 C   0  0  0  0  0  0  0  0  0  0  0  0
  -22.1313   -9.9009   21.7211 C   0  0  0  0  0  0  0  0  0  0  0  0
  -27.8210  -14.4131   20.6501 C   0  0  0  0  0  0  0  0  0  0  0  0
  -29.9264  -15.0467   20.6775 C   0  0  0  0  0  0  0  0  0  0  0  0
  -29.5942  -12.6518   20.0429 C   0  0  0  0  0  0  0  0  0  0  0  0
  -22.6575  -28.3501   22.7854 C   0  0  0  0  0  0  0  0  0  0  0  0
  -30.1285  -25.6277   17.8631 C   0  0  0  0  0  0  0  0  0  0  0  0
  -23.0181  -25.4249   24.1401 C   0  0  0  0  0  0  0  0  0  0  0  0
  -24.8017  -22.5218   24.3339 C   0  0  0  0  0  0  0  0  0  0  0  0
  -28.9480  -20.9361   20.4264 C   0  0  0  0  0  0  0  0  0  0  0  0
  -18.9593  -31.8428   22.3594 C   0  0  0  0  0  0  0  0  0  0  0  0
  -22.8504  -26.8736   20.7510 C   0  0  0  0  0  0  0  0  0  0  0  0
  -24.9456  -26.2694   22.7484 C   0  0  0  0  0  0  0  0  0  0  0  0
  -19.2997  -30.7279   23.3449 C   0  0  0  0  0  0  0  0  0  0  0  0
  -30.0499  -19.0794   23.2576 C   0  0  0  0  0  0  0  0  0  0  0  0
  -20.7655  -30.8107   23.7590 C   0  0  0  0  0  0  0  0  0  0  0  0
  -29.7284  -17.6295   22.8878 C   0  0  0  0  0  0  0  0  0  0  0  0
  -28.9826  -20.0452   22.7460 C   0  0  0  0  0  0  0  0  0  0  0  0
  -28.3604  -18.4859   20.9430 C   0  0  0  0  0  0  0  0  0  0  0  0
  -21.6914  -30.6309   22.5499 C   0  0  1  0  0  0  0  0  0  0  0  0
  -22.5765  -26.9486   22.2499 C   0  0  1  0  0  0  0  0  0  0  0  0
  -29.4402  -17.4829   21.3808 C   0  0  2  0  0  0  0  0  0  0  0  0
  -31.2401  -23.0187   14.5506 C   0  0  0  0  0  0  0  0  0  0  0  0
  -24.8760  -20.3336   25.5602 C   0  0  0  0  0  0  0  0  0  0  0  0
  -24.1674  -26.8384   26.5878 C   0  0  0  0  0  0  0  0  0  0  0  0
  -25.0785  -24.6334   27.3469 C   0  0  0  0  0  0  0  0  0  0  0  0
  -22.6154  -24.9477   27.1080 C   0  0  0  0  0  0  0  0  0  0  0  0
  -24.4356  -20.9770   21.8362 C   0  0  0  0  0  0  0  0  0  0  0  0
  -31.9172  -23.9361   17.2553 C   0  0  0  0  0  0  0  0  0  0  0  0
  -31.3174  -25.3114   16.9685 C   0  0  0  0  0  0  0  0  0  0  0  0
  -30.4678  -26.2891   19.1921 C   0  0  0  0  0  0  0  0  0  0  0  0
  -29.2452  -26.5379   20.0637 C   0  0  0  0  0  0  0  0  0  1  0  0
  -24.0505  -24.7803   25.0333 C   0  0  1  0  0  0  0  0  0  0  0  0
  -24.3636  -21.0683   24.3312 C   0  0  2  0  0  0  0  0  0  0  0  0
  -23.9848  -25.3104   26.4934 C   0  0  0  0  0  0  0  0  0  0  0  0
  -27.7786  -15.6996   21.0065 N   0  0  0  0  0  0  0  0  0  0  0  0
  -29.0741  -16.0567   21.0146 N   0  0  0  0  0  0  0  0  0  0  0  0
  -23.5079  -26.1367   23.0359 N   0  0  0  0  0  0  0  0  0  0  0  0
  -28.7660  -19.8516   21.3105 N   0  0  0  0  0  0  0  0  0  0  0  0
  -31.2627  -15.2338   20.6357 N   0  0  0  0  0  0  0  0  0  0  0  0
  -28.6453  -11.6423   19.8317 N   0  0  0  0  0  0  0  0  0  0  0  0
  -28.7457  -20.6245   19.0824 N   0  0  0  0  0  0  0  0  0  0  0  0
  -21.7805  -29.2333   22.1850 N   0  0  0  0  0  0  0  0  0  0  0  0
  -23.8537  -23.3399   24.9111 N   0  0  0  0  0  0  0  0  0  0  0  0
  -24.8810  -20.3736   23.1185 N   0  3  0  0  0  0  0  0  0  0  0  0
  -30.8126  -12.3882   19.9030 O   0  0  0  0  0  0  0  0  0  0  0  0
  -23.4555  -28.6107   23.6781 O   0  0  0  0  0  0  0  0  0  0  0  0
  -28.9727  -25.3661   17.5340 O   0  0  0  0  0  0  0  0  0  0  0  0
  -21.8210  -25.2955   24.4082 O   0  0  0  0  0  0  0  0  0  0  0  0
  -25.8789  -22.8936   23.8736 O   0  0  0  0  0  0  0  0  0  0  0  0
  -29.2869  -22.0519   20.8292 O   0  0  0  0  0  0  0  0  0  0  0  0
  -23.0872  -11.4758   20.1704 O   0  0  0  0  0  0  0  0  0  0  0  0
  -28.3258  -27.4023   19.3975 O   0  0  0  0  0  0  0  0  0  1  0  0
  -22.9713   -6.4209   22.3701 F   0  0  0  0  0  0  0  0  0  0  0  0
  -29.3486  -20.9567   14.3336 F   0  0  0  0  0  0  0  0  0  0  0  0
  -21.2658  -10.8308   22.1476 F   0  0  0  0  0  0  0  0  0  0  0  0
  1  2  1  0  0  0  0
  1  5  2  0  0  0  0
  2  6  2  0  0  0  0
  3  8  2  0  0  0  0
  3 17  1  0  0  0  0
  4  9  1  0  0  0  0
  4 17  2  0  0  0  0
  5 19  1  0  0  0  0
  6 21  1  0  0  0  0
  7 10  2  0  0  0  0
  7 20  1  0  0  0  0
  8 26  1  0  0  0  0
  9 26  2  0  0  0  0
 10 27  1  0  0  0  0
 11 12  2  0  0  0  0
 11 28  1  0  0  0  0
 12 29  1  0  0  0  0
 13 22  1  0  0  0  0
 13 27  2  0  0  0  0
 14 23  1  0  0  0  0
 14 25  2  0  0  0  0
 15 25  1  0  0  0  0
 15 30  2  0  0  0  0
 16 29  2  0  0  0  0
 16 31  1  0  0  0  0
 17 32  1  0  0  0  0
 18 32  1  0  0  0  0
 18 33  2  0  0  0  0
 18 34  1  0  0  0  0
 19 21  2  0  0  0  0
 19 40  1  0  0  0  0
 20 22  2  0  0  0  0
 20 41  1  0  0  0  0
 21 49  1  0  0  0  0
 22 42  1  0  0  0  0
 23 24  2  0  0  0  0
 23 58  1  0  0  0  0
 24 30  1  0  0  0  0
 24 52  1  0  0  0  0
 25 71  1  0  0  0  0
 26 81  1  0  0  0  0
 27 82  1  0  0  0  0
 28 31  2  0  0  0  0
 28 81  1  0  0  0  0
 29 83  1  0  0  0  0
 30 84  1  0  0  0  0
 31 85  1  0  0  0  0
 32 65  2  0  0  0  0
 33 66  1  0  0  0  0
 33 69  1  0  0  0  0
 34 70  1  0  0  0  0
 34 75  2  0  0  0  0
 35 50  1  0  0  0  0
 35 72  1  0  0  0  0
 35 76  2  0  0  0  0
 36 59  1  0  0  0  0
 36 60  1  0  0  0  0
 36 77  2  0  0  0  0
 37 62  1  0  0  0  0
 37 67  1  0  0  0  0
 37 78  2  0  0  0  0
 38 63  1  0  0  0  0
 38 73  1  0  0  0  0
 38 79  2  0  0  0  0
 39 68  1  0  0  0  0
 39 71  1  0  0  0  0
 39 80  2  0  0  0  0
 40 43  1  0  0  0  0
 41 50  1  0  0  0  0
 42 67  1  0  0  0  0
 43 45  1  0  0  0  0
 44 46  1  0  0  0  0
 44 47  1  0  0  0  0
 45 49  1  0  0  0  0
 46 51  1  0  0  0  0
 47 68  1  0  0  0  0
 48 51  1  0  0  0  0
 48 68  1  0  0  0  0
 49 72  1  0  0  0  0
 50 67  1  0  0  0  0
 51 66  1  0  0  0  0
 53 63  1  0  0  0  0
 54 64  1  0  0  0  0
 55 64  1  0  0  0  0
 56 64  1  0  0  0  0
 57 74  1  0  0  0  0
 58 59  1  0  0  0  0
 60 61  1  0  0  0  0
 61 82  1  0  0  0  0
 62 64  1  0  0  0  0
 62 73  1  0  0  0  0
 63 74  1  0  0  0  0
 65 66  1  0  0  0  0
M  CHG  1  74   1
M  ISO  4  39 100  61 101  71 100  82 101
M  END
> <Batch ID>
0129

> <Smiles>
CNC(C)C(=O)NC(C(=O)N1Cc2cc([101O:1][101CH2:1]CC(=O)CCc3cc([100NH:0][100C:0](=O)N4CCCC(n5nc(-c6ccc(Oc7ccc(F)cc7F)cc6)c(C(N)=O)c5N)C4)cc(F)c3C)ccc2CC1C(=O)NC1CCCc2ccccc21)C(C)(C)C

> <Shape>
0.248

> <Color>
0.090

> <Negative vol penalty>
0.000

$$$$

  -OEChem-04052302193D

 84 92  0     1  0  0  0  0  0999 V2000
  -26.1503  -38.2784   21.5879 C   0  0  0  0  0  0  0  0  0  0  0  0
  -26.8349  -37.2874   20.8918 C   0  0  0  0  0  0  0  0  0  0  0  0
  -24.2118   -9.7175   22.1235 C   0  0  0  0  0  0  0  0  0  0  0  0
  -22.5366  -10.3926   20.5188 C   0  0  0  0  0  0  0  0  0  0  0  0
  -30.7017  -20.5870   21.9798 C   0  0  0  0  0  0  0  0  0  0  0  0
  -25.4456  -37.9547   22.7465 C   0  0  0  0  0  0  0  0  0  0  0  0
  -26.8161  -35.9721   21.3546 C   0  0  0  0  0  0  0  0  0  0  0  0
  -26.9114  -29.2153   18.9769 C   0  0  0  0  0  0  0  0  0  0  0  0
  -31.1516  -21.9022   22.0950 C   0  0  0  0  0  0  0  0  0  0  0  0
  -23.2928   -8.8541   22.7197 C   0  0  0  0  0  0  0  0  0  0  0  0
  -21.6176   -9.5291   21.1149 C   0  0  0  0  0  0  0  0  0  0  0  0
  -27.6045  -28.0193   19.1585 C   0  0  0  0  0  0  0  0  0  0  0  0
  -21.9949   -5.7916   22.1116 C   0  0  0  0  0  0  0  0  0  0  0  0
  -22.4275   -4.5046   22.4312 C   0  0  0  0  0  0  0  0  0  0  0  0
  -31.7435  -20.4210   19.8063 C   0  0  0  0  0  0  0  0  0  0  0  0
  -26.2881  -27.5625   21.1277 C   0  0  0  0  0  0  0  0  0  0  0  0
  -21.9271   -4.9145   24.7590 C   0  0  0  0  0  0  0  0  0  0  0  0
  -23.8337  -10.4868   21.0231 C   0  0  0  0  0  0  0  0  0  0  0  0
  -30.9977  -19.8463   20.8355 C   0  0  0  0  0  0  0  0  0  0  0  0
  -25.6700  -11.0825   19.3555 C   0  0  0  0  0  0  0  0  0  0  0  0
  -25.4101  -36.6330   23.2184 C   0  0  0  0  0  0  0  0  0  0  0  0
  -25.9072  -29.5998   19.8771 C   0  0  0  0  0  0  0  0  0  0  0  0
  -26.1113  -35.6306   22.5213 C   0  0  0  0  0  0  0  0  0  0  0  0
  -25.5820  -28.7627   20.9539 C   0  0  0  0  0  0  0  0  0  0  0  0
  -31.8974  -22.4769   21.0658 C   0  0  0  0  0  0  0  0  0  0  0  0
  -32.1934  -21.7363   19.9215 C   0  0  0  0  0  0  0  0  0  0  0  0
  -21.9957   -8.7598   22.2154 C   0  0  0  0  0  0  0  0  0  0  0  0
  -27.2948  -27.1941   20.2356 C   0  0  0  0  0  0  0  0  0  0  0  0
  -21.5285   -6.6401   23.1157 C   0  0  0  0  0  0  0  0  0  0  0  0
  -22.3936   -4.0660   23.7549 C   0  0  0  0  0  0  0  0  0  0  0  0
  -21.4946   -6.2015   24.4394 C   0  0  0  0  0  0  0  0  0  0  0  0
  -24.7825  -11.3793   20.4071 C   0  0  0  0  0  0  0  0  0  0  0  0
  -26.3498  -12.2561   19.1383 C   0  0  0  0  0  0  0  0  0  0  0  0
  -30.5290  -18.4745   20.7157 C   0  0  0  0  0  0  0  0  0  0  0  0
  -29.5142  -17.9294   21.4197 C   0  0  0  0  0  0  0  0  0  0  0  0
  -25.8627   -9.8557   18.6389 C   0  0  0  0  0  0  0  0  0  0  0  0
  -29.1492  -16.5194   21.1762 C   0  0  0  0  0  0  0  0  0  0  0  0
  -25.4900  -32.0488   21.8601 C   0  0  0  0  0  0  0  0  0  0  0  0
  -22.5670  -30.7065   22.2804 C   0  0  0  0  0  0  0  0  0  0  0  0
  -20.6162  -27.9098   22.1418 C   0  0  0  0  0  0  0  0  0  0  0  0
  -24.6739  -36.3399   24.5017 C   0  0  0  0  0  0  0  0  0  0  0  0
  -25.1506  -30.8802   19.6521 C   0  0  0  0  0  0  0  0  0  0  0  0
  -24.4986  -29.1201   21.9371 C   0  0  0  0  0  0  0  0  0  0  0  0
  -24.3944  -34.8548   24.7179 C   0  0  0  0  0  0  0  0  0  0  0  0
  -25.5205  -16.9235   20.8581 C   0  0  0  0  0  0  0  0  0  0  0  0
  -25.6458  -34.0295   24.4359 C   0  0  0  0  0  0  0  0  0  0  0  0
  -25.0787  -15.4743   20.6728 C   0  0  0  0  0  0  0  0  0  0  0  0
  -26.7263  -17.0391   21.7893 C   0  0  0  0  0  0  0  0  0  0  0  0
  -27.4408  -14.7434   21.1894 C   0  0  0  0  0  0  0  0  0  0  0  0
  -26.0942  -34.1880   22.9780 C   0  0  1  0  0  0  0  0  0  0  0  0
  -24.4992  -31.4203   20.9215 C   0  0  1  0  0  0  0  0  0  0  0  0
  -26.2581  -14.5996   20.2189 C   0  0  1  0  0  0  0  0  0  0  0  0
  -34.4352  -21.8397   18.8034 C   0  0  0  0  0  0  0  0  0  0  0  0
  -18.2765  -27.1162   22.5816 C   0  0  0  0  0  0  0  0  0  0  0  0
  -23.1241  -30.7341   25.2802 C   0  0  0  0  0  0  0  0  0  0  0  0
  -21.2410  -29.1106   25.5742 C   0  0  0  0  0  0  0  0  0  0  0  0
  -20.7934  -31.3823   24.6460 C   0  0  0  0  0  0  0  0  0  0  0  0
  -20.2274  -27.1240   19.3151 C   0  0  0  0  0  0  0  0  0  0  0  0
  -32.3728  -23.9003   21.2135 C   0  0  0  0  0  0  0  0  0  0  0  0
  -32.9904  -22.3303   18.8070 C   0  0  0  0  0  0  0  0  0  0  0  0
  -31.5651  -24.9112   20.3919 C   0  0  0  0  0  0  0  0  0  0  0  0
  -30.0997  -24.9968   20.8210 C   0  0  0  0  0  0  0  0  0  0  0  0
  -29.3210  -25.9803   19.9579 C   0  0  0  0  0  0  0  0  0  1  0  0
  -21.9898  -29.6734   23.2176 C   0  0  1  0  0  0  0  0  0  0  0  0
  -19.2416  -27.6690   21.5444 C   0  0  2  0  0  0  0  0  0  0  0  0
  -21.8089  -30.2190   24.6623 C   0  0  0  0  0  0  0  0  0  0  0  0
  -24.8867  -12.6424   20.8289 N   0  0  0  0  0  0  0  0  0  0  0  0
  -25.8479  -13.1496   20.0383 N   0  0  0  0  0  0  0  0  0  0  0  0
  -27.8191  -16.1497   21.3678 N   0  0  0  0  0  0  0  0  0  0  0  0
  -23.7917  -30.3853   21.6780 N   0  0  0  0  0  0  0  0  0  0  0  0
  -27.3219  -12.6005   18.2673 N   0  0  0  0  0  0  0  0  0  0  0  0
  -25.0806   -8.7469   18.9900 N   0  0  0  0  0  0  0  0  0  0  0  0
  -25.2619  -33.3897   22.1036 N   0  0  0  0  0  0  0  0  0  0  0  0
  -20.7557  -29.2037   22.5973 N   0  0  0  0  0  0  0  0  0  0  0  0
  -19.3292  -26.6966   20.4185 N   0  3  0  0  0  0  0  0  0  0  0  0
  -26.7150   -9.7413   17.7257 O   0  0  0  0  0  0  0  0  0  0  0  0
  -30.0467  -15.7527   20.8220 O   0  0  0  0  0  0  0  0  0  0  0  0
  -26.3937  -31.3673   22.3297 O   0  0  0  0  0  0  0  0  0  0  0  0
  -21.9505  -31.7568   22.0843 O   0  0  0  0  0  0  0  0  0  0  0  0
  -21.4786  -27.0362   22.2021 O   0  0  0  0  0  0  0  0  0  0  0  0
  -21.0987   -7.9172   22.7968 O   0  0  0  0  0  0  0  0  0  0  0  0
  -27.9702  -26.0265   20.4156 O   0  0  0  0  0  0  0  0  0  1  0  0
  -22.8076   -2.8296   24.0614 F   0  0  0  0  0  0  0  0  0  0  0  0
  -21.0465   -7.0117   25.4082 F   0  0  0  0  0  0  0  0  0  0  0  0
  1  2  1  0  0  0  0
  1  6  2  0  0  0  0
  2  7  2  0  0  0  0
  3 10  2  0  0  0  0
  3 18  1  0  0  0  0
  4 11  1  0  0  0  0
  4 18  2  0  0  0  0
  5  9  2  0  0  0  0
  5 19  1  0  0  0  0
  6 21  1  0  0  0  0
  7 23  1  0  0  0  0
  8 12  2  0  0  0  0
  8 22  1  0  0  0  0
  9 25  1  0  0  0  0
 10 27  1  0  0  0  0
 11 27  2  0  0  0  0
 12 28  1  0  0  0  0
 13 14  2  0  0  0  0
 13 29  1  0  0  0  0
 14 30  1  0  0  0  0
 15 19  2  0  0  0  0
 15 26  1  0  0  0  0
 16 24  1  0  0  0  0
 16 28  2  0  0  0  0
 17 30  2  0  0  0  0
 17 31  1  0  0  0  0
 18 32  1  0  0  0  0
 19 34  1  0  0  0  0
 20 32  1  0  0  0  0
 20 33  2  0  0  0  0
 20 36  1  0  0  0  0
 21 23  2  0  0  0  0
 21 41  1  0  0  0  0
 22 24  2  0  0  0  0
 22 42  1  0  0  0  0
 23 50  1  0  0  0  0
 24 43  1  0  0  0  0
 25 26  2  0  0  0  0
 25 59  1  0  0  0  0
 26 60  1  0  0  0  0
 27 81  1  0  0  0  0
 28 82  1  0  0  0  0
 29 31  2  0  0  0  0
 29 81  1  0  0  0  0
 30 83  1  0  0  0  0
 31 84  1  0  0  0  0
 32 67  2  0  0  0  0
 33 68  1  0  0  0  0
 33 71  1  0  0  0  0
 34 35  2  0  0  0  0
 35 37  1  0  0  0  0
 36 72  1  0  0  0  0
 36 76  2  0  0  0  0
 37 69  1  0  0  0  0
 37 77  2  0  0  0  0
 38 51  1  0  0  0  0
 38 73  1  0  0  0  0
 38 78  2  0  0  0  0
 39 64  1  0  0  0  0
 39 70  1  0  0  0  0
 39 79  2  0  0  0  0
 40 65  1  0  0  0  0
 40 74  1  0  0  0  0
 40 80  2  0  0  0  0
 41 44  1  0  0  0  0
 42 51  1  0  0  0  0
 43 70  1  0  0  0  0
 44 46  1  0  0  0  0
 45 47  1  0  0  0  0
 45 48  1  0  0  0  0
 46 50  1  0  0  0  0
 47 52  1  0  0  0  0
 48 69  1  0  0  0  0
 49 52  1  0  0  0  0
 49 69  1  0  0  0  0
 50 73  1  0  0  0  0
 51 70  1  0  0  0  0
 52 68  1  0  0  0  0
 53 60  1  0  0  0  0
 54 65  1  0  0  0  0
 55 66  1  0  0  0  0
 56 66  1  0  0  0  0
 57 66  1  0  0  0  0
 58 75  1  0  0  0  0
 59 61  1  0  0  0  0
 61 62  1  0  0  0  0
 62 63  1  0  0  0  0
 63 82  1  0  0  0  0
 64 66  1  0  0  0  0
 64 74  1  0  0  0  0
 65 75  1  0  0  0  0
 67 68  1  0  0  0  0
M  CHG  1  75   1
M  ISO  4  35 100  37 100  63 101  82 101
M  END
> <Batch ID>
0129

> <Smiles>
CCc1cc(C=[100CH:0][100C:0](=O)N2CCCC(n3nc(-c4ccc(Oc5ccc(F)cc5F)cc4)c(C(N)=O)c3N)C2)ccc1CCC[101CH2:1][101O:1]c1ccc2c(c1)CN(C(=O)C(NC(=O)C(C)NC)C(C)(C)C)C(C(=O)NC1CCCc3ccccc31)C2

> <Shape>
0.335

> <Color>
0.098

> <Negative vol penalty>
0.000

$$$$

  -OEChem-04052302193D

 82 90  0     1  0  0  0  0  0999 V2000
  -26.8818  -21.5219   15.7185 C   0  0  0  0  0  0  0  0  0  0  0  0
  -27.2893  -20.2570   16.1270 C   0  0  0  0  0  0  0  0  0  0  0  0
  -25.7929  -30.9877   22.2345 C   0  0  0  0  0  0  0  0  0  0  0  0
  -26.8557  -31.7775   20.2137 C   0  0  0  0  0  0  0  0  0  0  0  0
  -30.2742  -19.1374   21.3694 C   0  0  0  0  0  0  0  0  0  0  0  0
  -29.8388  -18.9745   18.9985 C   0  0  0  0  0  0  0  0  0  0  0  0
  -25.8389  -22.1627   16.3840 C   0  0  0  0  0  0  0  0  0  0  0  0
  -26.6462  -19.6275   17.1933 C   0  0  0  0  0  0  0  0  0  0  0  0
  -27.9012  -14.9618   18.1204 C   0  0  0  0  0  0  0  0  0  0  0  0
  -31.0988  -18.0149   21.2951 C   0  0  0  0  0  0  0  0  0  0  0  0
  -30.6634  -17.8520   18.9242 C   0  0  0  0  0  0  0  0  0  0  0  0
  -25.8279  -32.2801   22.7580 C   0  0  0  0  0  0  0  0  0  0  0  0
  -26.8906  -33.0700   20.7372 C   0  0  0  0  0  0  0  0  0  0  0  0
  -29.1288  -14.6082   18.6787 C   0  0  0  0  0  0  0  0  0  0  0  0
  -24.0746  -35.1518   22.4227 C   0  0  0  0  0  0  0  0  0  0  0  0
  -22.9221  -35.6302   23.0458 C   0  0  0  0  0  0  0  0  0  0  0  0
  -28.0509  -14.2499   20.8069 C   0  0  0  0  0  0  0  0  0  0  0  0
  -24.1545  -35.9191   25.1037 C   0  0  0  0  0  0  0  0  0  0  0  0
  -26.3068  -30.7364   20.9623 C   0  0  0  0  0  0  0  0  0  0  0  0
  -29.6441  -19.6172   20.2211 C   0  0  0  0  0  0  0  0  0  0  0  0
  -25.2432  -28.8222   19.6538 C   0  0  0  0  0  0  0  0  0  0  0  0
  -25.1915  -21.5453   17.4668 C   0  0  0  0  0  0  0  0  0  0  0  0
  -26.7391  -14.9726   18.9052 C   0  0  0  0  0  0  0  0  0  0  0  0
  -25.5757  -20.2479   17.8624 C   0  0  0  0  0  0  0  0  0  0  0  0
  -26.8094  -14.6015   20.2556 C   0  0  0  0  0  0  0  0  0  0  0  0
  -31.2935  -17.3722   20.0725 C   0  0  0  0  0  0  0  0  0  0  0  0
  -26.3767  -33.3212   22.0094 C   0  0  0  0  0  0  0  0  0  0  0  0
  -29.2043  -14.2549   20.0228 C   0  0  0  0  0  0  0  0  0  0  0  0
  -25.2672  -35.0570   23.1401 C   0  0  0  0  0  0  0  0  0  0  0  0
  -22.9620  -36.0139   24.3863 C   0  0  0  0  0  0  0  0  0  0  0  0
  -25.3071  -35.4406   24.4805 C   0  0  0  0  0  0  0  0  0  0  0  0
  -26.2715  -29.4015   20.4212 C   0  0  0  0  0  0  0  0  0  0  0  0
  -25.6875  -27.5498   19.3891 C   0  0  0  0  0  0  0  0  0  0  0  0
  -28.7841  -20.7876   20.2984 C   0  0  0  0  0  0  0  0  0  0  0  0
  -28.8028  -21.7096   21.2845 C   0  0  0  0  0  0  0  0  0  0  0  0
  -23.9979  -29.3841   19.2190 C   0  0  0  0  0  0  0  0  0  0  0  0
  -27.8697  -22.8521   21.2154 C   0  0  0  0  0  0  0  0  0  0  0  0
  -24.6502  -17.1994   19.7894 C   0  0  0  0  0  0  0  0  0  0  0  0
  -23.0677  -14.6618   21.0458 C   0  0  0  0  0  0  0  0  0  0  0  0
  -23.2020  -11.4736   22.2559 C   0  0  0  0  0  0  0  0  0  0  0  0
  -24.0634  -22.2809   18.1462 C   0  0  0  0  0  0  0  0  0  0  0  0
  -25.4180  -15.3306   18.2814 C   0  0  0  0  0  0  0  0  0  0  0  0
  -25.5876  -14.5775   21.1360 C   0  0  0  0  0  0  0  0  0  0  0  0
  -23.7437  -21.7299   19.5320 C   0  0  0  0  0  0  0  0  0  0  0  0
  -30.2108  -25.4222   20.0554 C   0  0  0  0  0  0  0  0  0  0  0  0
  -23.5949  -20.2171   19.4681 C   0  0  0  0  0  0  0  0  0  0  0  0
  -29.3081  -26.6528   20.0325 C   0  0  0  0  0  0  0  0  0  0  0  0
  -29.8464  -24.4670   21.1909 C   0  0  0  0  0  0  0  0  0  0  0  0
  -27.5090  -25.2893   21.1659 C   0  0  0  0  0  0  0  0  0  0  0  0
  -24.9112  -19.5565   19.0392 C   0  0  1  0  0  0  0  0  0  0  0  0
  -24.3852  -15.8039   19.2996 C   0  0  1  0  0  0  0  0  0  0  0  0
  -27.8276  -26.2414   20.0025 C   0  0  1  0  0  0  0  0  0  0  0  0
  -21.7529   -9.6790   23.2442 C   0  0  0  0  0  0  0  0  0  0  0  0
  -31.0005  -13.8202   22.8927 C   0  0  0  0  0  0  0  0  0  0  0  0
  -23.0238  -16.1634   23.7016 C   0  0  0  0  0  0  0  0  0  0  0  0
  -22.4498  -14.0049   24.8328 C   0  0  0  0  0  0  0  0  0  0  0  0
  -20.8961  -14.9753   23.1396 C   0  0  0  0  0  0  0  0  0  0  0  0
  -23.8008   -9.6072   20.0384 C   0  0  0  0  0  0  0  0  0  0  0  0
  -32.1869  -16.1602   19.9925 C   0  0  0  0  0  0  0  0  0  0  0  0
  -32.2201  -15.3290   21.2833 C   0  0  0  0  0  0  0  0  0  0  0  0
  -23.0765  -13.9483   22.3761 C   0  0  1  0  0  0  0  0  0  0  0  0
  -22.3507  -10.2502   21.9679 C   0  0  2  0  0  0  0  0  0  0  0  0
  -30.8707  -14.7045   21.6590 C   0  0  1  0  0  0  0  0  0  1  0  0
  -22.3851  -14.7752   23.4967 C   0  0  0  0  0  0  0  0  0  0  0  0
  -27.2920  -28.5656   20.6306 N   0  0  0  0  0  0  0  0  0  0  0  0
  -26.9072  -27.4481   19.9910 N   0  0  0  0  0  0  0  0  0  0  0  0
  -28.4140  -24.1345   21.1759 N   0  0  0  0  0  0  0  0  0  0  0  0
  -24.3202  -14.9417   20.4813 N   0  0  0  0  0  0  0  0  0  0  0  0
  -25.1499  -26.5191   18.7028 N   0  0  0  0  0  0  0  0  0  0  0  0
  -23.6990  -30.7052   19.5791 N   0  0  0  0  0  0  0  0  0  0  0  0
  -24.6746  -18.1519   18.7886 N   0  0  0  0  0  0  0  0  0  0  0  0
  -22.4754  -12.6399   22.1416 N   0  0  0  0  0  0  0  0  0  0  0  0
  -23.1712   -9.1896   21.3176 N   0  3  0  0  0  0  0  0  0  0  0  0
  -23.1672  -28.7285   18.5454 O   0  0  0  0  0  0  0  0  0  0  0  0
  -26.6632  -22.6009   21.2016 O   0  0  0  0  0  0  0  0  0  0  0  0
  -24.8186  -17.3976   20.9870 O   0  0  0  0  0  0  0  0  0  0  0  0
  -21.9891  -14.9535   20.5231 O   0  0  0  0  0  0  0  0  0  0  0  0
  -24.3917  -11.4017   22.5560 O   0  0  0  0  0  0  0  0  0  0  0  0
  -26.4108  -34.5825   22.5198 O   0  0  0  0  0  0  0  0  0  0  0  0
  -30.4014  -13.9100   20.5704 O   0  0  0  0  0  0  0  0  0  1  0  0
  -21.8555  -36.4748   24.9841 F   0  0  0  0  0  0  0  0  0  0  0  0
  -26.4501  -35.3529   25.1745 F   0  0  0  0  0  0  0  0  0  0  0  0
  1  2  1  0  0  0  0
  1  7  2  0  0  0  0
  2  8  2  0  0  0  0
  3 12  2  0  0  0  0
  3 19  1  0  0  0  0
  4 13  1  0  0  0  0
  4 19  2  0  0  0  0
  5 10  2  0  0  0  0
  5 20  1  0  0  0  0
  6 11  1  0  0  0  0
  6 20  2  0  0  0  0
  7 22  1  0  0  0  0
  8 24  1  0  0  0  0
  9 14  2  0  0  0  0
  9 23  1  0  0  0  0
 10 26  1  0  0  0  0
 11 26  2  0  0  0  0
 12 27  1  0  0  0  0
 13 27  2  0  0  0  0
 14 28  1  0  0  0  0
 15 16  2  0  0  0  0
 15 29  1  0  0  0  0
 16 30  1  0  0  0  0
 17 25  1  0  0  0  0
 17 28  2  0  0  0  0
 18 30  2  0  0  0  0
 18 31  1  0  0  0  0
 19 32  1  0  0  0  0
 20 34  1  0  0  0  0
 21 32  1  0  0  0  0
 21 33  2  0  0  0  0
 21 36  1  0  0  0  0
 22 24  2  0  0  0  0
 22 41  1  0  0  0  0
 23 25  2  0  0  0  0
 23 42  1  0  0  0  0
 24 50  1  0  0  0  0
 25 43  1  0  0  0  0
 26 59  1  0  0  0  0
 27 79  1  0  0  0  0
 28 80  1  0  0  0  0
 29 31  2  0  0  0  0
 29 79  1  0  0  0  0
 30 81  1  0  0  0  0
 31 82  1  0  0  0  0
 32 65  2  0  0  0  0
 33 66  1  0  0  0  0
 33 69  1  0  0  0  0
 34 35  2  0  0  0  0
 35 37  1  0  0  0  0
 36 70  1  0  0  0  0
 36 74  2  0  0  0  0
 37 67  1  0  0  0  0
 37 75  2  0  0  0  0
 38 51  1  0  0  0  0
 38 71  1  0  0  0  0
 38 76  2  0  0  0  0
 39 61  1  0  0  0  0
 39 68  1  0  0  0  0
 39 77  2  0  0  0  0
 40 62  1  0  0  0  0
 40 72  1  0  0  0  0
 40 78  2  0  0  0  0
 41 44  1  0  0  0  0
 42 51  1  0  0  0  0
 43 68  1  0  0  0  0
 44 46  1  0  0  0  0
 45 47  1  0  0  0  0
 45 48  1  0  0  0  0
 46 50  1  0  0  0  0
 47 52  1  0  0  0  0
 48 67  1  0  0  0  0
 49 52  1  0  0  0  0
 49 67  1  0  0  0  0
 50 71  1  0  0  0  0
 51 68  1  0  0  0  0
 52 66  1  0  0  0  0
 53 62  1  0  0  0  0
 54 63  1  0  0  0  0
 55 64  1  0  0  0  0
 56 64  1  0  0  0  0
 57 64  1  0  0  0  0
 58 73  1  0  0  0  0
 59 60  1  0  0  0  0
 60 63  1  0  0  0  0
 61 64  1  0  0  0  0
 61 72  1  0  0  0  0
 62 73  1  0  0  0  0
 63 80  1  0  0  0  0
 65 66  1  0  0  0  0
M  CHG  1  73   1
M  ISO  4  35 100  37 100  63 101  80 101
M  END
> <Batch ID>
0129

> <Smiles>
CNC(C)C(=O)NC(C(=O)N1Cc2cc([101O:1][101CH:1](C)CCc3ccc(C=[100CH:0][100C:0](=O)N4CCCC(n5nc(-c6ccc(Oc7ccc(F)cc7F)cc6)c(C(N)=O)c5N)C4)cc3)ccc2CC1C(=O)NC1CCCc2ccccc21)C(C)(C)C

> <Shape>
0.265

> <Color>
0.069

> <Negative vol penalty>
0.000

$$$$

  -OEChem-04052302193D

 83 91  0     1  0  0  0  0  0999 V2000
  -19.4811  -33.8221   20.8672 C   0  0  0  0  0  0  0  0  0  0  0  0
  -20.7515  -33.3770   20.5161 C   0  0  0  0  0  0  0  0  0  0  0  0
  -24.3293   -9.3871   22.1909 C   0  0  0  0  0  0  0  0  0  0  0  0
  -24.1276   -8.9880   19.8166 C   0  0  0  0  0  0  0  0  0  0  0  0
  -30.6258  -20.6436   21.3234 C   0  0  0  0  0  0  0  0  0  0  0  0
  -18.8275  -33.2653   21.9657 C   0  0  0  0  0  0  0  0  0  0  0  0
  -21.3696  -32.3755   21.2640 C   0  0  0  0  0  0  0  0  0  0  0  0
  -25.0931  -27.9859   19.1727 C   0  0  0  0  0  0  0  0  0  0  0  0
  -30.9083  -21.9815   21.0482 C   0  0  0  0  0  0  0  0  0  0  0  0
  -23.2168   -8.5779   22.4214 C   0  0  0  0  0  0  0  0  0  0  0  0
  -23.0151   -8.1788   20.0471 C   0  0  0  0  0  0  0  0  0  0  0  0
  -26.4820  -27.8676   19.1472 C   0  0  0  0  0  0  0  0  0  0  0  0
  -22.5321   -5.2705   22.5795 C   0  0  0  0  0  0  0  0  0  0  0  0
  -22.6105   -4.3406   23.6163 C   0  0  0  0  0  0  0  0  0  0  0  0
  -26.4034  -26.5777   21.1842 C   0  0  0  0  0  0  0  0  0  0  0  0
  -30.8136  -21.5144   18.6796 C   0  0  0  0  0  0  0  0  0  0  0  0
  -20.7271   -5.3936   24.7031 C   0  0  0  0  0  0  0  0  0  0  0  0
  -24.7847   -9.5922   20.8885 C   0  0  0  0  0  0  0  0  0  0  0  0
  -30.4372  -19.7410   20.2767 C   0  0  0  0  0  0  0  0  0  0  0  0
  -27.2820  -10.0271   20.6023 C   0  0  0  0  0  0  0  0  0  0  0  0
  -19.4339  -32.2497   22.7217 C   0  0  0  0  0  0  0  0  0  0  0  0
  -24.3485  -27.4094   20.2118 C   0  0  0  0  0  0  0  0  0  0  0  0
  -20.7241  -31.8055   22.3744 C   0  0  0  0  0  0  0  0  0  0  0  0
  -25.0049  -26.6880   21.2192 C   0  0  0  0  0  0  0  0  0  0  0  0
  -31.0022  -22.4169   19.7263 C   0  0  0  0  0  0  0  0  0  0  0  0
  -30.5311  -20.1764   18.9548 C   0  0  0  0  0  0  0  0  0  0  0  0
  -22.5597   -7.9737   21.3496 C   0  0  0  0  0  0  0  0  0  0  0  0
  -27.1376  -27.1658   20.1546 C   0  0  0  0  0  0  0  0  0  0  0  0
  -21.5513   -6.2619   22.6046 C   0  0  0  0  0  0  0  0  0  0  0  0
  -21.7080   -4.4022   24.6780 C   0  0  0  0  0  0  0  0  0  0  0  0
  -20.6488   -6.3235   23.6663 C   0  0  0  0  0  0  0  0  0  0  0  0
  -25.9335  -10.4284   20.6496 C   0  0  0  0  0  0  0  0  0  0  0  0
  -27.9761  -11.1847   20.3480 C   0  0  0  0  0  0  0  0  0  0  0  0
  -30.1437  -18.3503   20.5968 C   0  0  0  0  0  0  0  0  0  0  0  0
  -29.0676  -17.9179   21.2851 C   0  0  0  0  0  0  0  0  0  0  0  0
  -27.8560   -8.7243   20.7730 C   0  0  0  0  0  0  0  0  0  0  0  0
  -28.9048  -16.4692   21.5212 C   0  0  0  0  0  0  0  0  0  0  0  0
  -22.4278  -28.5285   22.4838 C   0  0  0  0  0  0  0  0  0  0  0  0
  -21.9222  -25.3776   23.0653 C   0  0  0  0  0  0  0  0  0  0  0  0
  -23.0613  -22.1691   22.8315 C   0  0  0  0  0  0  0  0  0  0  0  0
  -18.7078  -31.7114   23.9290 C   0  0  0  0  0  0  0  0  0  0  0  0
  -22.8487  -27.5233   20.2104 C   0  0  0  0  0  0  0  0  0  0  0  0
  -24.2499  -26.0331   22.3459 C   0  0  0  0  0  0  0  0  0  0  0  0
  -19.2772  -30.3921   24.4441 C   0  0  0  0  0  0  0  0  0  0  0  0
  -26.3756  -15.7625   18.9647 C   0  0  0  0  0  0  0  0  0  0  0  0
  -20.7986  -30.4640   24.5287 C   0  0  0  0  0  0  0  0  0  0  0  0
  -26.1154  -14.2788   19.2114 C   0  0  0  0  0  0  0  0  0  0  0  0
  -26.6859  -16.5115   20.2598 C   0  0  0  0  0  0  0  0  0  0  0  0
  -27.5450  -14.4272   21.2885 C   0  0  0  0  0  0  0  0  0  0  0  0
  -21.4172  -30.7036   23.1461 C   0  0  1  0  0  0  0  0  0  0  0  0
  -22.2338  -27.3337   21.5936 C   0  0  1  0  0  0  0  0  0  0  0  0
  -27.2770  -13.6451   19.9932 C   0  0  1  0  0  0  0  0  0  0  0  0
  -30.3354  -19.2373   17.8082 C   0  0  0  0  0  0  0  0  0  0  0  0
  -22.4447  -19.8113   23.4298 C   0  0  0  0  0  0  0  0  0  0  0  0
  -22.6684  -25.9229   25.9732 C   0  0  0  0  0  0  0  0  0  0  0  0
  -22.9608  -23.4564   26.2879 C   0  0  0  0  0  0  0  0  0  0  0  0
  -20.7269  -24.3765   25.6668 C   0  0  0  0  0  0  0  0  0  0  0  0
  -23.0507  -21.3287   19.9938 C   0  0  0  0  0  0  0  0  0  0  0  0
  -31.3060  -23.8636   19.4283 C   0  0  0  0  0  0  0  0  0  0  0  0
  -30.0585  -24.7455   19.3049 C   0  0  0  0  0  0  0  0  0  0  0  0
  -30.3825  -26.1915   18.9268 C   0  0  0  0  0  0  0  0  0  0  0  0
  -29.1240  -27.0454   18.8525 C   0  0  0  0  0  0  0  0  0  1  0  0
  -22.5735  -24.3340   23.9404 C   0  0  1  0  0  0  0  0  0  0  0  0
  -22.3872  -20.8926   22.3620 C   0  0  2  0  0  0  0  0  0  0  0  0
  -22.2471  -24.5363   25.4470 C   0  0  0  0  0  0  0  0  0  0  0  0
  -25.7779  -11.7387   20.4422 N   0  0  0  0  0  0  0  0  0  0  0  0
  -27.0376  -12.1707   20.2621 N   0  0  0  0  0  0  0  0  0  0  0  0
  -27.7603  -15.8532   21.0182 N   0  0  0  0  0  0  0  0  0  0  0  0
  -22.7854  -26.1781   22.3038 N   0  0  0  0  0  0  0  0  0  0  0  0
  -29.2914  -11.4452   20.1917 N   0  0  0  0  0  0  0  0  0  0  0  0
  -26.9991   -7.6449   21.0279 N   0  0  0  0  0  0  0  0  0  0  0  0
  -21.4285  -29.4771   22.3781 N   0  0  0  0  0  0  0  0  0  0  0  0
  -22.1610  -23.0398   23.4082 N   0  0  0  0  0  0  0  0  0  0  0  0
  -23.0545  -20.3760   21.1337 N   0  3  0  0  0  0  0  0  0  0  0  0
  -29.0934   -8.5262   20.7178 O   0  0  0  0  0  0  0  0  0  0  0  0
  -29.7912  -15.8932   22.1546 O   0  0  0  0  0  0  0  0  0  0  0  0
  -23.4106  -28.5850   23.2136 O   0  0  0  0  0  0  0  0  0  0  0  0
  -20.6925  -25.4741   23.0524 O   0  0  0  0  0  0  0  0  0  0  0  0
  -24.2667  -22.3718   22.7032 O   0  0  0  0  0  0  0  0  0  0  0  0
  -21.4742   -7.1839   21.5742 O   0  0  0  0  0  0  0  0  0  0  0  0
  -28.4933  -27.0494   20.1325 O   0  0  0  0  0  0  0  0  0  1  0  0
  -21.7824   -3.5082   25.6728 F   0  0  0  0  0  0  0  0  0  0  0  0
  -19.7035   -7.2730   23.6953 F   0  0  0  0  0  0  0  0  0  0  0  0
  1  2  1  0  0  0  0
  1  6  2  0  0  0  0
  2  7  2  0  0  0  0
  3 10  2  0  0  0  0
  3 18  1  0  0  0  0
  4 11  1  0  0  0  0
  4 18  2  0  0  0  0
  5  9  2  0  0  0  0
  5 19  1  0  0  0  0
  6 21  1  0  0  0  0
  7 23  1  0  0  0  0
  8 12  2  0  0  0  0
  8 22  1  0  0  0  0
  9 25  1  0  0  0  0
 10 27  1  0  0  0  0
 11 27  2  0  0  0  0
 12 28  1  0  0  0  0
 13 14  2  0  0  0  0
 13 29  1  0  0  0  0
 14 30  1  0  0  0  0
 15 24  1  0  0  0  0
 15 28  2  0  0  0  0
 16 25  2  0  0  0  0
 16 26  1  0  0  0  0
 17 30  2  0  0  0  0
 17 31  1  0  0  0  0
 18 32  1  0  0  0  0
 19 26  2  0  0  0  0
 19 34  1  0  0  0  0
 20 32  1  0  0  0  0
 20 33  2  0  0  0  0
 20 36  1  0  0  0  0
 21 23  2  0  0  0  0
 21 41  1  0  0  0  0
 22 24  2  0  0  0  0
 22 42  1  0  0  0  0
 23 50  1  0  0  0  0
 24 43  1  0  0  0  0
 25 59  1  0  0  0  0
 26 53  1  0  0  0  0
 27 80  1  0  0  0  0
 28 81  1  0  0  0  0
 29 31  2  0  0  0  0
 29 80  1  0  0  0  0
 30 82  1  0  0  0  0
 31 83  1  0  0  0  0
 32 66  2  0  0  0  0
 33 67  1  0  0  0  0
 33 70  1  0  0  0  0
 34 35  2  0  0  0  0
 35 37  1  0  0  0  0
 36 71  1  0  0  0  0
 36 75  2  0  0  0  0
 37 68  1  0  0  0  0
 37 76  2  0  0  0  0
 38 51  1  0  0  0  0
 38 72  1  0  0  0  0
 38 77  2  0  0  0  0
 39 63  1  0  0  0  0
 39 69  1  0  0  0  0
 39 78  2  0  0  0  0
 40 64  1  0  0  0  0
 40 73  1  0  0  0  0
 40 79  2  0  0  0  0
 41 44  1  0  0  0  0
 42 51  1  0  0  0  0
 43 69  1  0  0  0  0
 44 46  1  0  0  0  0
 45 47  1  0  0  0  0
 45 48  1  0  0  0  0
 46 50  1  0  0  0  0
 47 52  1  0  0  0  0
 48 68  1  0  0  0  0
 49 52  1  0  0  0  0
 49 68  1  0  0  0  0
 50 72  1  0  0  0  0
 51 69  1  0  0  0  0
 52 67  1  0  0  0  0
 54 64  1  0  0  0  0
 55 65  1  0  0  0  0
 56 65  1  0  0  0  0
 57 65  1  0  0  0  0
 58 74  1  0  0  0  0
 59 60  1  0  0  0  0
 60 61  1  0  0  0  0
 61 62  1  0  0  0  0
 62 81  1  0  0  0  0
 63 65  1  0  0  0  0
 63 73  1  0  0  0  0
 64 74  1  0  0  0  0
 66 67  1  0  0  0  0
M  CHG  1  74   1
M  ISO  4  35 100  37 100  62 101  81 101
M  END
> <Batch ID>
0129

> <Smiles>
CNC(C)C(=O)NC(C(=O)N1Cc2cc([101O:1][101CH2:1]CCCc3ccc(C=[100CH:0][100C:0](=O)N4CCCC(n5nc(-c6ccc(Oc7ccc(F)cc7F)cc6)c(C(N)=O)c5N)C4)c(C)c3)ccc2CC1C(=O)NC1CCCc2ccccc21)C(C)(C)C

> <Shape>
0.237

> <Color>
0.143

> <Negative vol penalty>
0.000

$$$$

  -OEChem-04052302193D

 85 93  0     1  0  0  0  0  0999 V2000
  -26.4825  -39.6123   24.9370 C   0  0  0  0  0  0  0  0  0  0  0  0
  -27.2717  -38.9133   24.0292 C   0  0  0  0  0  0  0  0  0  0  0  0
  -24.5298   -8.8100   21.8909 C   0  0  0  0  0  0  0  0  0  0  0  0
  -24.0686   -8.3690   19.5607 C   0  0  0  0  0  0  0  0  0  0  0  0
  -29.4864  -20.2464   21.9089 C   0  0  0  0  0  0  0  0  0  0  0  0
  -29.8571  -21.5706   21.6750 C   0  0  0  0  0  0  0  0  0  0  0  0
  -25.8637  -38.9352   25.9870 C   0  0  0  0  0  0  0  0  0  0  0  0
  -27.4435  -37.5369   24.1717 C   0  0  0  0  0  0  0  0  0  0  0  0
  -28.3688  -31.5940   20.2803 C   0  0  0  0  0  0  0  0  0  0  0  0
  -23.3681   -8.1268   22.2502 C   0  0  0  0  0  0  0  0  0  0  0  0
  -22.9069   -7.6856   19.9200 C   0  0  0  0  0  0  0  0  0  0  0  0
  -29.2210  -30.4954   20.1780 C   0  0  0  0  0  0  0  0  0  0  0  0
  -22.3726   -4.9134   22.5909 C   0  0  0  0  0  0  0  0  0  0  0  0
  -22.4536   -4.0093   23.6499 C   0  0  0  0  0  0  0  0  0  0  0  0
  -28.8172  -20.0256   19.5979 C   0  0  0  0  0  0  0  0  0  0  0  0
  -28.0393  -29.4182   21.9843 C   0  0  0  0  0  0  0  0  0  0  0  0
  -20.7949   -5.2807   24.8622 C   0  0  0  0  0  0  0  0  0  0  0  0
  -24.8801   -8.9312   20.5461 C   0  0  0  0  0  0  0  0  0  0  0  0
  -28.9665  -19.4739   20.8703 C   0  0  0  0  0  0  0  0  0  0  0  0
  -29.7078  -22.1223   20.4026 C   0  0  0  0  0  0  0  0  0  0  0  0
  -27.3709   -9.0976   20.0207 C   0  0  0  0  0  0  0  0  0  0  0  0
  -26.0202  -37.5482   26.1367 C   0  0  0  0  0  0  0  0  0  0  0  0
  -27.3506  -31.6177   21.2442 C   0  0  0  0  0  0  0  0  0  0  0  0
  -26.8273  -36.8407   25.2255 C   0  0  0  0  0  0  0  0  0  0  0  0
  -27.1739  -30.5173   22.0950 C   0  0  0  0  0  0  0  0  0  0  0  0
  -29.1878  -21.3498   19.3641 C   0  0  0  0  0  0  0  0  0  0  0  0
  -22.5566   -7.5646   21.2647 C   0  0  0  0  0  0  0  0  0  0  0  0
  -29.0582  -29.4085   21.0320 C   0  0  0  0  0  0  0  0  0  0  0  0
  -21.5029   -6.0012   22.6675 C   0  0  0  0  0  0  0  0  0  0  0  0
  -21.6647   -4.1928   24.7856 C   0  0  0  0  0  0  0  0  0  0  0  0
  -20.7140   -6.1848   23.8032 C   0  0  0  0  0  0  0  0  0  0  0  0
  -26.0798   -9.6373   20.1743 C   0  0  0  0  0  0  0  0  0  0  0  0
  -28.1508  -10.1699   19.6625 C   0  0  0  0  0  0  0  0  0  0  0  0
  -28.5795  -18.0934   21.1153 C   0  0  0  0  0  0  0  0  0  0  0  0
  -30.1089  -23.5239   20.1875 C   0  0  0  0  0  0  0  0  0  0  0  0
  -27.7377  -17.3680   20.3484 C   0  0  0  0  0  0  0  0  0  0  0  0
  -29.5679  -24.5757   20.8180 C   0  0  0  0  0  0  0  0  0  0  0  0
  -27.8245   -7.7477   20.1869 C   0  0  0  0  0  0  0  0  0  0  0  0
  -30.0395  -25.9594   20.5206 C   0  0  0  0  0  0  0  0  0  0  0  0
  -27.4503  -15.9693   20.7249 C   0  0  0  0  0  0  0  0  0  0  0  0
  -26.6709  -33.4592   23.7443 C   0  0  0  0  0  0  0  0  0  0  0  0
  -23.9684  -31.6675   23.8358 C   0  0  0  0  0  0  0  0  0  0  0  0
  -22.4062  -28.7382   23.0449 C   0  0  0  0  0  0  0  0  0  0  0  0
  -25.3699  -36.8673   27.3150 C   0  0  0  0  0  0  0  0  0  0  0  0
  -26.4228  -32.7989   21.3239 C   0  0  0  0  0  0  0  0  0  0  0  0
  -26.0833  -30.4847   23.1334 C   0  0  0  0  0  0  0  0  0  0  0  0
  -25.2986  -35.3486   27.1778 C   0  0  0  0  0  0  0  0  0  0  0  0
  -27.9426  -14.3926   17.4533 C   0  0  0  0  0  0  0  0  0  0  0  0
  -26.6399  -34.7912   26.7120 C   0  0  0  0  0  0  0  0  0  0  0  0
  -27.5875  -12.9423   17.7699 C   0  0  0  0  0  0  0  0  0  0  0  0
  -27.1033  -15.3772   18.2662 C   0  0  0  0  0  0  0  0  0  0  0  0
  -26.8072  -13.6870   20.0539 C   0  0  0  0  0  0  0  0  0  0  0  0
  -27.0176  -35.3432   25.3321 C   0  0  1  0  0  0  0  0  0  0  0  0
  -25.7446  -32.9353   22.6836 C   0  0  1  0  0  0  0  0  0  0  0  0
  -27.6723  -12.6787   19.2817 C   0  0  1  0  0  0  0  0  0  0  0  0
  -27.7920  -22.8163   17.8850 C   0  0  0  0  0  0  0  0  0  0  0  0
  -20.2086  -27.5506   23.2842 C   0  0  0  0  0  0  0  0  0  0  0  0
  -24.6095  -31.0754   26.7595 C   0  0  0  0  0  0  0  0  0  0  0  0
  -22.9707  -29.1851   26.6636 C   0  0  0  0  0  0  0  0  0  0  0  0
  -22.1945  -31.5264   26.2917 C   0  0  0  0  0  0  0  0  0  0  0  0
  -22.0387  -28.5831   20.1123 C   0  0  0  0  0  0  0  0  0  0  0  0
  -29.0129  -21.9082   17.9883 C   0  0  0  0  0  0  0  0  0  0  0  0
  -29.3522  -27.0633   21.2962 C   0  0  0  0  0  0  0  0  0  1  0  0
  -23.5640  -30.3760   24.5048 C   0  0  1  0  0  0  0  0  0  0  0  0
  -21.0584  -28.4559   22.4061 C   0  0  2  0  0  0  0  0  0  0  0  0
  -23.3566  -30.5419   26.0367 C   0  0  0  0  0  0  0  0  0  0  0  0
  -26.0378  -10.9505   19.9335 N   0  0  0  0  0  0  0  0  0  0  0  0
  -27.3123  -11.2449   19.6251 N   0  0  0  0  0  0  0  0  0  0  0  0
  -27.1536  -15.0689   19.7033 N   0  0  0  0  0  0  0  0  0  0  0  0
  -25.2057  -31.6660   23.1764 N   0  0  0  0  0  0  0  0  0  0  0  0
  -29.4654  -10.2887   19.3791 N   0  0  0  0  0  0  0  0  0  0  0  0
  -26.8912   -6.7700   20.5575 N   0  0  0  0  0  0  0  0  0  0  0  0
  -26.2730  -34.6628   24.2944 N   0  0  0  0  0  0  0  0  0  0  0  0
  -22.3853  -29.8979   23.7904 N   0  0  0  0  0  0  0  0  0  0  0  0
  -21.2404  -27.7924   21.0842 N   0  3  0  0  0  0  0  0  0  0  0  0
  -29.0252   -7.4213   20.0280 O   0  0  0  0  0  0  0  0  0  0  0  0
  -30.9263  -26.1844   19.7014 O   0  0  0  0  0  0  0  0  0  0  0  0
  -27.4857  -15.6843   21.9234 O   0  0  0  0  0  0  0  0  0  0  0  0
  -27.6718  -32.8182   24.0427 O   0  0  0  0  0  0  0  0  0  0  0  0
  -23.2110  -32.6396   23.8900 O   0  0  0  0  0  0  0  0  0  0  0  0
  -23.3793  -28.0015   22.9002 O   0  0  0  0  0  0  0  0  0  0  0  0
  -21.4230   -6.8976   21.6150 O   0  0  0  0  0  0  0  0  0  0  0  0
  -29.8891  -28.3351   20.9348 O   0  0  0  0  0  0  0  0  0  1  0  0
  -21.7415   -3.3237   25.8018 F   0  0  0  0  0  0  0  0  0  0  0  0
  -19.8757   -7.2274   23.8821 F   0  0  0  0  0  0  0  0  0  0  0  0
  1  2  1  0  0  0  0
  1  7  2  0  0  0  0
  2  8  2  0  0  0  0
  3 10  2  0  0  0  0
  3 18  1  0  0  0  0
  4 11  1  0  0  0  0
  4 18  2  0  0  0  0
  5  6  2  0  0  0  0
  5 19  1  0  0  0  0
  6 20  1  0  0  0  0
  7 22  1  0  0  0  0
  8 24  1  0  0  0  0
  9 12  2  0  0  0  0
  9 23  1  0  0  0  0
 10 27  1  0  0  0  0
 11 27  2  0  0  0  0
 12 28  1  0  0  0  0
 13 14  2  0  0  0  0
 13 29  1  0  0  0  0
 14 30  1  0  0  0  0
 15 19  2  0  0  0  0
 15 26  1  0  0  0  0
 16 25  1  0  0  0  0
 16 28  2  0  0  0  0
 17 30  2  0  0  0  0
 17 31  1  0  0  0  0
 18 32  1  0  0  0  0
 19 34  1  0  0  0  0
 20 26  2  0  0  0  0
 20 35  1  0  0  0  0
 21 32  1  0  0  0  0
 21 33  2  0  0  0  0
 21 38  1  0  0  0  0
 22 24  2  0  0  0  0
 22 44  1  0  0  0  0
 23 25  2  0  0  0  0
 23 45  1  0  0  0  0
 24 53  1  0  0  0  0
 25 46  1  0  0  0  0
 26 62  1  0  0  0  0
 27 82  1  0  0  0  0
 28 83  1  0  0  0  0
 29 31  2  0  0  0  0
 29 82  1  0  0  0  0
 30 84  1  0  0  0  0
 31 85  1  0  0  0  0
 32 67  2  0  0  0  0
 33 68  1  0  0  0  0
 33 71  1  0  0  0  0
 34 36  2  0  0  0  0
 35 37  2  0  0  0  0
 36 40  1  0  0  0  0
 37 39  1  0  0  0  0
 38 72  1  0  0  0  0
 38 76  2  0  0  0  0
 39 63  1  0  0  0  0
 39 77  2  0  0  0  0
 40 69  1  0  0  0  0
 40 78  2  0  0  0  0
 41 54  1  0  0  0  0
 41 73  1  0  0  0  0
 41 79  2  0  0  0  0
 42 64  1  0  0  0  0
 42 70  1  0  0  0  0
 42 80  2  0  0  0  0
 43 65  1  0  0  0  0
 43 74  1  0  0  0  0
 43 81  2  0  0  0  0
 44 47  1  0  0  0  0
 45 54  1  0  0  0  0
 46 70  1  0  0  0  0
 47 49  1  0  0  0  0
 48 50  1  0  0  0  0
 48 51  1  0  0  0  0
 49 53  1  0  0  0  0
 50 55  1  0  0  0  0
 51 69  1  0  0  0  0
 52 55  1  0  0  0  0
 52 69  1  0  0  0  0
 53 73  1  0  0  0  0
 54 70  1  0  0  0  0
 55 68  1  0  0  0  0
 56 62  1  0  0  0  0
 57 65  1  0  0  0  0
 58 66  1  0  0  0  0
 59 66  1  0  0  0  0
 60 66  1  0  0  0  0
 61 75  1  0  0  0  0
 63 83  1  0  0  0  0
 64 66  1  0  0  0  0
 64 74  1  0  0  0  0
 65 75  1  0  0  0  0
 67 68  1  0  0  0  0
M  CHG  1  75   1
M  ISO  4  36 100  40 100  63 101  83 101
M  END
> <Batch ID>
0129

> <Smiles>
CCc1cc(C=[100CH:0][100C:0](=O)N2CCCC(n3nc(-c4ccc(Oc5ccc(F)cc5F)cc4)c(C(N)=O)c3N)C2)ccc1C=CC(=O)[101CH2:1][101O:1]c1ccc2c(c1)CN(C(=O)C(NC(=O)C(C)NC)C(C)(C)C)C(C(=O)NC1CCCc3ccccc31)C2

> <Shape>
0.312

> <Color>
0.089

> <Negative vol penalty>
0.000

$$$$

  -OEChem-04052302193D

 83 91  0     1  0  0  0  0  0999 V2000
  -30.4440  -34.8816   20.6221 C   0  0  0  0  0  0  0  0  0  0  0  0
  -30.2753  -33.5014   20.5791 C   0  0  0  0  0  0  0  0  0  0  0  0
  -24.5537   -9.2874   22.1671 C   0  0  0  0  0  0  0  0  0  0  0  0
  -23.7153   -9.5921   19.9218 C   0  0  0  0  0  0  0  0  0  0  0  0
  -29.6732  -35.6502   21.4933 C   0  0  0  0  0  0  0  0  0  0  0  0
  -29.3364  -32.8887   21.4082 C   0  0  0  0  0  0  0  0  0  0  0  0
  -26.5609  -29.4237   18.9719 C   0  0  0  0  0  0  0  0  0  0  0  0
  -23.3613   -8.6597   22.5272 C   0  0  0  0  0  0  0  0  0  0  0  0
  -22.5229   -8.9644   20.2819 C   0  0  0  0  0  0  0  0  0  0  0  0
  -27.1530  -28.1833   18.7380 C   0  0  0  0  0  0  0  0  0  0  0  0
  -21.9409   -5.6131   22.1620 C   0  0  0  0  0  0  0  0  0  0  0  0
  -22.0267   -4.4380   22.9087 C   0  0  0  0  0  0  0  0  0  0  0  0
  -31.1609  -19.6213   24.3852 C   0  0  0  0  0  0  0  0  0  0  0  0
  -30.1557  -20.1516   22.2533 C   0  0  0  0  0  0  0  0  0  0  0  0
  -25.9660  -27.2671   20.6276 C   0  0  0  0  0  0  0  0  0  0  0  0
  -31.4595  -21.8166   23.4216 C   0  0  0  0  0  0  0  0  0  0  0  0
  -20.7647   -5.4765   24.6880 C   0  0  0  0  0  0  0  0  0  0  0  0
  -24.7308   -9.7536   20.8643 C   0  0  0  0  0  0  0  0  0  0  0  0
  -30.3912  -19.2431   23.2852 C   0  0  0  0  0  0  0  0  0  0  0  0
  -27.1217   -9.7936   19.9760 C   0  0  0  0  0  0  0  0  0  0  0  0
  -28.7175  -35.0477   22.3266 C   0  0  0  0  0  0  0  0  0  0  0  0
  -25.6738  -29.5981   20.0438 C   0  0  0  0  0  0  0  0  0  0  0  0
  -28.5530  -33.6498   22.2923 C   0  0  0  0  0  0  0  0  0  0  0  0
  -25.3620  -28.5100   20.8714 C   0  0  0  0  0  0  0  0  0  0  0  0
  -31.6950  -20.9081   24.4535 C   0  0  0  0  0  0  0  0  0  0  0  0
  -30.6898  -21.4384   22.3215 C   0  0  0  0  0  0  0  0  0  0  0  0
  -22.3459   -8.4982   21.5846 C   0  0  0  0  0  0  0  0  0  0  0  0
  -26.8578  -27.1055   19.5676 C   0  0  0  0  0  0  0  0  0  0  0  0
  -21.2672   -6.7199   22.6784 C   0  0  0  0  0  0  0  0  0  0  0  0
  -21.4386   -4.3697   24.1716 C   0  0  0  0  0  0  0  0  0  0  0  0
  -20.6790   -6.6516   23.9414 C   0  0  0  0  0  0  0  0  0  0  0  0
  -25.9621  -10.4026   20.4919 C   0  0  0  0  0  0  0  0  0  0  0  0
  -28.0004  -10.8324   19.7879 C   0  0  0  0  0  0  0  0  0  0  0  0
  -29.8343  -17.9012   23.2146 C   0  0  0  0  0  0  0  0  0  0  0  0
  -28.7942  -17.5247   22.4407 C   0  0  0  0  0  0  0  0  0  0  0  0
  -27.3814   -8.4124   19.6921 C   0  0  0  0  0  0  0  0  0  0  0  0
  -28.3500  -16.1167   22.4724 C   0  0  0  0  0  0  0  0  0  0  0  0
  -25.6487  -31.3960   22.6649 C   0  0  0  0  0  0  0  0  0  0  0  0
  -22.6585  -30.1834   22.9973 C   0  0  0  0  0  0  0  0  0  0  0  0
  -20.4528  -27.6778   22.2874 C   0  0  0  0  0  0  0  0  0  0  0  0
  -27.9410  -35.9146   23.2858 C   0  0  0  0  0  0  0  0  0  0  0  0
  -25.0229  -30.9357   20.2665 C   0  0  0  0  0  0  0  0  0  0  0  0
  -24.4004  -28.6398   22.0234 C   0  0  0  0  0  0  0  0  0  0  0  0
  -26.7048  -35.2292   23.8621 C   0  0  0  0  0  0  0  0  0  0  0  0
  -28.1414  -15.5101   18.8641 C   0  0  0  0  0  0  0  0  0  0  0  0
  -27.0457  -33.8174   24.3285 C   0  0  0  0  0  0  0  0  0  0  0  0
  -27.6149  -14.0777   18.8370 C   0  0  0  0  0  0  0  0  0  0  0  0
  -27.5826  -16.3025   20.0449 C   0  0  0  0  0  0  0  0  0  0  0  0
  -27.2786  -14.2100   21.3370 C   0  0  0  0  0  0  0  0  0  0  0  0
  -27.5273  -32.9512   23.1584 C   0  0  1  0  0  0  0  0  0  0  0  0
  -24.5304  -31.1297   21.6973 C   0  0  1  0  0  0  0  0  0  0  0  0
  -27.8647  -13.3805   20.1837 C   0  0  1  0  0  0  0  0  0  0  0  0
  -32.5178  -21.3128   25.6298 C   0  0  0  0  0  0  0  0  0  0  0  0
  -18.0937  -26.9459   22.7306 C   0  0  0  0  0  0  0  0  0  0  0  0
  -23.4598  -29.3117   25.8094 C   0  0  0  0  0  0  0  0  0  0  0  0
  -21.4652  -27.7987   25.8334 C   0  0  0  0  0  0  0  0  0  0  0  0
  -21.1549  -30.2654   25.6299 C   0  0  0  0  0  0  0  0  0  0  0  0
  -19.7626  -27.7642   19.4108 C   0  0  0  0  0  0  0  0  0  0  0  0
  -30.4350  -22.4206   21.2061 C   0  0  0  0  0  0  0  0  0  0  0  0
  -29.1739  -23.2690   21.4042 C   0  0  0  0  0  0  0  0  0  0  0  0
  -28.8903  -24.2038   20.2275 C   0  0  0  0  0  0  0  0  0  0  0  0
  -27.6545  -25.0576   20.4771 C   0  0  0  0  0  0  0  0  0  1  0  0
  -22.0671  -28.9645   23.6633 C   0  0  1  0  0  0  0  0  0  0  0  0
  -19.0175  -27.7091   21.7941 C   0  0  2  0  0  0  0  0  0  0  0  0
  -22.0564  -29.0828   25.2135 C   0  0  0  0  0  0  0  0  0  0  0  0
  -26.0894  -11.7256   20.6233 N   0  0  0  0  0  0  0  0  0  0  0  0
  -27.3395  -11.9566   20.1874 N   0  0  0  0  0  0  0  0  0  0  0  0
  -27.7815  -15.5881   21.3149 N   0  0  0  0  0  0  0  0  0  0  0  0
  -23.7947  -29.9695   22.2040 N   0  0  0  0  0  0  0  0  0  0  0  0
  -29.2662  -10.8847   19.3216 N   0  0  0  0  0  0  0  0  0  0  0  0
  -26.3689   -7.4767   19.9440 N   0  0  0  0  0  0  0  0  0  0  0  0
  -26.4038  -32.5121   22.3587 N   0  0  0  0  0  0  0  0  0  0  0  0
  -20.7481  -28.7744   23.0694 N   0  0  0  0  0  0  0  0  0  0  0  0
  -18.9222  -27.0975   20.4385 N   0  3  0  0  0  0  0  0  0  0  0  0
  -28.4846   -8.0176   19.2441 O   0  0  0  0  0  0  0  0  0  0  0  0
  -28.5053  -15.4951   23.5251 O   0  0  0  0  0  0  0  0  0  0  0  0
  -25.8133  -30.6455   23.6195 O   0  0  0  0  0  0  0  0  0  0  0  0
  -22.1276  -31.2836   23.1686 O   0  0  0  0  0  0  0  0  0  0  0  0
  -21.2328  -26.7694   22.0101 O   0  0  0  0  0  0  0  0  0  0  0  0
  -21.1822   -7.8855   21.9356 O   0  0  0  0  0  0  0  0  0  0  0  0
  -27.4349  -25.8939   19.3419 O   0  0  0  0  0  0  0  0  0  1  0  0
  -21.5196   -3.2407   24.8878 F   0  0  0  0  0  0  0  0  0  0  0  0
  -20.0294   -7.7113   24.4422 F   0  0  0  0  0  0  0  0  0  0  0  0
  1  2  1  0  0  0  0
  1  5  2  0  0  0  0
  2  6  2  0  0  0  0
  3  8  2  0  0  0  0
  3 18  1  0  0  0  0
  4  9  1  0  0  0  0
  4 18  2  0  0  0  0
  5 21  1  0  0  0  0
  6 23  1  0  0  0  0
  7 10  2  0  0  0  0
  7 22  1  0  0  0  0
  8 27  1  0  0  0  0
  9 27  2  0  0  0  0
 10 28  1  0  0  0  0
 11 12  2  0  0  0  0
 11 29  1  0  0  0  0
 12 30  1  0  0  0  0
 13 19  2  0  0  0  0
 13 25  1  0  0  0  0
 14 19  1  0  0  0  0
 14 26  2  0  0  0  0
 15 24  1  0  0  0  0
 15 28  2  0  0  0  0
 16 25  2  0  0  0  0
 16 26  1  0  0  0  0
 17 30  2  0  0  0  0
 17 31  1  0  0  0  0
 18 32  1  0  0  0  0
 19 34  1  0  0  0  0
 20 32  1  0  0  0  0
 20 33  2  0  0  0  0
 20 36  1  0  0  0  0
 21 23  2  0  0  0  0
 21 41  1  0  0  0  0
 22 24  2  0  0  0  0
 22 42  1  0  0  0  0
 23 50  1  0  0  0  0
 24 43  1  0  0  0  0
 25 53  1  0  0  0  0
 26 59  1  0  0  0  0
 27 80  1  0  0  0  0
 28 81  1  0  0  0  0
 29 31  2  0  0  0  0
 29 80  1  0  0  0  0
 30 82  1  0  0  0  0
 31 83  1  0  0  0  0
 32 66  2  0  0  0  0
 33 67  1  0  0  0  0
 33 70  1  0  0  0  0
 34 35  2  0  0  0  0
 35 37  1  0  0  0  0
 36 71  1  0  0  0  0
 36 75  2  0  0  0  0
 37 68  1  0  0  0  0
 37 76  2  0  0  0  0
 38 51  1  0  0  0  0
 38 72  1  0  0  0  0
 38 77  2  0  0  0  0
 39 63  1  0  0  0  0
 39 69  1  0  0  0  0
 39 78  2  0  0  0  0
 40 64  1  0  0  0  0
 40 73  1  0  0  0  0
 40 79  2  0  0  0  0
 41 44  1  0  0  0  0
 42 51  1  0  0  0  0
 43 69  1  0  0  0  0
 44 46  1  0  0  0  0
 45 47  1  0  0  0  0
 45 48  1  0  0  0  0
 46 50  1  0  0  0  0
 47 52  1  0  0  0  0
 48 68  1  0  0  0  0
 49 52  1  0  0  0  0
 49 68  1  0  0  0  0
 50 72  1  0  0  0  0
 51 69  1  0  0  0  0
 52 67  1  0  0  0  0
 54 64  1  0  0  0  0
 55 65  1  0  0  0  0
 56 65  1  0  0  0  0
 57 65  1  0  0  0  0
 58 74  1  0  0  0  0
 59 60  1  0  0  0  0
 60 61  1  0  0  0  0
 61 62  1  0  0  0  0
 62 81  1  0  0  0  0
 63 65  1  0  0  0  0
 63 73  1  0  0  0  0
 64 74  1  0  0  0  0
 66 67  1  0  0  0  0
M  CHG  1  74   1
M  ISO  4  35 100  37 100  62 101  81 101
M  END
> <Batch ID>
0129

> <Smiles>
CNC(C)C(=O)NC(C(=O)N1Cc2cc([101O:1][101CH2:1]CCCc3cc(C)cc(C=[100CH:0][100C:0](=O)N4CCCC(n5nc(-c6ccc(Oc7ccc(F)cc7F)cc6)c(C(N)=O)c5N)C4)c3)ccc2CC1C(=O)NC1CCCc2ccccc21)C(C)(C)C

> <Shape>
0.280

> <Color>
0.105

> <Negative vol penalty>
0.000

$$$$

  -OEChem-04052302193D

 83 91  0     1  0  0  0  0  0999 V2000
  -26.7423  -36.7608   16.9186 C   0  0  0  0  0  0  0  0  0  0  0  0
  -27.0445  -35.4056   16.8318 C   0  0  0  0  0  0  0  0  0  0  0  0
  -25.2953   -7.8574   21.4274 C   0  0  0  0  0  0  0  0  0  0  0  0
  -24.1307   -9.9714   21.3174 C   0  0  0  0  0  0  0  0  0  0  0  0
  -27.9028  -18.2822   20.6131 C   0  0  0  0  0  0  0  0  0  0  0  0
  -30.1903  -18.3780   21.3846 C   0  0  0  0  0  0  0  0  0  0  0  0
  -26.5815  -37.3593   18.1676 C   0  0  0  0  0  0  0  0  0  0  0  0
  -27.1870  -34.6483   17.9939 C   0  0  0  0  0  0  0  0  0  0  0  0
  -25.6306  -28.7771   18.7762 C   0  0  0  0  0  0  0  0  0  0  0  0
  -28.1064  -16.9748   20.1717 C   0  0  0  0  0  0  0  0  0  0  0  0
  -30.3939  -17.0706   20.9433 C   0  0  0  0  0  0  0  0  0  0  0  0
  -24.4082   -7.4198   22.4108 C   0  0  0  0  0  0  0  0  0  0  0  0
  -23.2435   -9.5337   22.3008 C   0  0  0  0  0  0  0  0  0  0  0  0
  -26.3726  -27.5972   18.7407 C   0  0  0  0  0  0  0  0  0  0  0  0
  -21.2569   -6.2034   22.5597 C   0  0  0  0  0  0  0  0  0  0  0  0
  -20.7377   -4.9146   22.4372 C   0  0  0  0  0  0  0  0  0  0  0  0
  -26.5920  -27.6701   21.1419 C   0  0  0  0  0  0  0  0  0  0  0  0
  -21.7090   -4.3208   24.5682 C   0  0  0  0  0  0  0  0  0  0  0  0
  -25.1566   -9.1333   20.8807 C   0  0  0  0  0  0  0  0  0  0  0  0
  -28.9448  -18.9839   21.2195 C   0  0  0  0  0  0  0  0  0  0  0  0
  -25.9380   -9.4394   18.4717 C   0  0  0  0  0  0  0  0  0  0  0  0
  -26.7126  -36.6069   19.3454 C   0  0  0  0  0  0  0  0  0  0  0  0
  -25.3726  -29.4192   19.9958 C   0  0  0  0  0  0  0  0  0  0  0  0
  -27.0291  -35.2376   19.2598 C   0  0  0  0  0  0  0  0  0  0  0  0
  -25.8443  -28.8565   21.1904 C   0  0  0  0  0  0  0  0  0  0  0  0
  -29.3519  -16.3690   20.3369 C   0  0  0  0  0  0  0  0  0  0  0  0
  -23.3823   -8.2579   22.8475 C   0  0  0  0  0  0  0  0  0  0  0  0
  -26.8559  -27.0451   19.9233 C   0  0  0  0  0  0  0  0  0  0  0  0
  -22.0022   -6.5509   23.6864 C   0  0  0  0  0  0  0  0  0  0  0  0
  -20.9637   -3.9733   23.4414 C   0  0  0  0  0  0  0  0  0  0  0  0
  -22.2282   -5.6096   24.6906 C   0  0  0  0  0  0  0  0  0  0  0  0
  -26.0731   -9.5861   19.8653 C   0  0  0  0  0  0  0  0  0  0  0  0
  -27.0628  -10.0332   17.9534 C   0  0  0  0  0  0  0  0  0  0  0  0
  -28.7305  -20.3637   21.6865 C   0  0  0  0  0  0  0  0  0  0  0  0
  -27.7493  -21.1788   21.2686 C   0  0  0  0  0  0  0  0  0  0  0  0
  -24.8895   -8.8218   17.7136 C   0  0  0  0  0  0  0  0  0  0  0  0
  -26.0927  -32.2572   21.2330 C   0  0  0  0  0  0  0  0  0  0  0  0
  -27.6627  -23.5872   20.6308 C   0  0  0  0  0  0  0  0  0  0  0  0
  -24.1618  -31.2621   23.6421 C   0  0  0  0  0  0  0  0  0  0  0  0
  -22.7528  -28.6570   25.3378 C   0  0  0  0  0  0  0  0  0  0  0  0
  -30.7323  -14.2924   19.9780 C   0  0  0  0  0  0  0  0  0  0  0  0
  -26.5763  -37.3081   20.6737 C   0  0  0  0  0  0  0  0  0  0  0  0
  -24.5479  -30.6768   20.0197 C   0  0  0  0  0  0  0  0  0  0  0  0
  -25.5776  -29.4959   22.5277 C   0  0  0  0  0  0  0  0  0  0  0  0
  -26.3743  -36.3541   21.8482 C   0  0  0  0  0  0  0  0  0  0  0  0
  -31.6320  -10.9803   19.0307 C   0  0  0  0  0  0  0  0  0  0  0  0
  -27.3690  -35.1998   21.7755 C   0  0  0  0  0  0  0  0  0  0  0  0
  -30.2955  -10.2350   19.0044 C   0  0  0  0  0  0  0  0  0  0  0  0
  -31.6874  -12.0057   20.1616 C   0  0  0  0  0  0  0  0  0  0  0  0
  -29.2324  -12.2114   20.1666 C   0  0  0  0  0  0  0  0  0  0  0  0
  -27.1672  -34.3773   20.4972 C   0  0  1  0  0  0  0  0  0  0  0  0
  -24.7829  -31.5218   21.2680 C   0  0  1  0  0  0  0  0  0  0  0  0
  -29.1046  -11.2134   19.0042 C   0  0  2  0  0  0  0  0  0  0  0  0
  -21.2506  -28.1560   27.2845 C   0  0  0  0  0  0  0  0  0  0  0  0
  -26.4494  -31.8819   25.5638 C   0  0  0  0  0  0  0  0  0  0  0  0
  -25.2752  -30.5064   27.2951 C   0  0  0  0  0  0  0  0  0  0  0  0
  -24.1856  -32.5573   26.3844 C   0  0  0  0  0  0  0  0  0  0  0  0
  -20.7592  -27.3223   23.6049 C   0  0  0  0  0  0  0  0  0  0  0  0
  -27.5748  -22.5801   21.7689 C   0  0  0  0  0  0  0  0  0  0  0  0
  -27.4949  -25.0404   21.0318 C   0  0  0  0  0  0  0  0  0  1  0  0
  -24.3643  -30.4982   24.9284 C   0  0  1  0  0  0  0  0  0  0  0  0
  -21.3251  -28.4010   25.7854 C   0  0  2  0  0  0  0  0  0  0  0  0
  -25.0755  -31.3497   26.0177 C   0  0  0  0  0  0  0  0  0  0  0  0
  -27.1953  -10.2229   20.2104 N   0  0  0  0  0  0  0  0  0  0  0  0
  -27.7757  -10.4816   19.0262 N   0  0  0  0  0  0  0  0  0  0  0  0
  -24.7718  -30.7278   22.4983 N   0  0  0  0  0  0  0  0  0  0  0  0
  -30.5302  -12.9009   20.0952 N   0  0  0  0  0  0  0  0  0  0  0  0
  -27.5019  -10.2101   16.6891 N   0  0  0  0  0  0  0  0  0  0  0  0
  -23.8069   -8.2605   18.4045 N   0  0  0  0  0  0  0  0  0  0  0  0
  -29.5584  -15.0401   19.8905 N   0  0  0  0  0  0  0  0  0  0  0  0
  -26.0236  -33.5011   20.6351 N   0  0  0  0  0  0  0  0  0  0  0  0
  -23.0491  -30.0035   25.3208 N   0  0  0  0  0  0  0  0  0  0  0  0
  -20.7689  -27.2084   25.0861 N   0  3  0  0  0  0  0  0  0  0  0  0
  -24.9198   -8.7547   16.4614 O   0  0  0  0  0  0  0  0  0  0  0  0
  -27.0916  -31.7355   21.7142 O   0  0  0  0  0  0  0  0  0  0  0  0
  -27.8708  -23.2606   19.4629 O   0  0  0  0  0  0  0  0  0  0  0  0
  -23.4814  -32.2909   23.6505 O   0  0  0  0  0  0  0  0  0  0  0  0
  -23.5289  -27.7527   25.0371 O   0  0  0  0  0  0  0  0  0  0  0  0
  -31.8636  -14.7821   19.9294 O   0  0  0  0  0  0  0  0  0  0  0  0
  -22.5163   -7.8311   23.8068 O   0  0  0  0  0  0  0  0  0  0  0  0
  -27.5810  -25.8940   19.8914 O   0  0  0  0  0  0  0  0  0  1  0  0
  -20.4637   -2.7362   23.3244 F   0  0  0  0  0  0  0  0  0  0  0  0
  -22.9424   -5.9380   25.7759 F   0  0  0  0  0  0  0  0  0  0  0  0
  1  2  1  0  0  0  0
  1  7  2  0  0  0  0
  2  8  2  0  0  0  0
  3 12  2  0  0  0  0
  3 19  1  0  0  0  0
  4 13  1  0  0  0  0
  4 19  2  0  0  0  0
  5 10  2  0  0  0  0
  5 20  1  0  0  0  0
  6 11  1  0  0  0  0
  6 20  2  0  0  0  0
  7 22  1  0  0  0  0
  8 24  1  0  0  0  0
  9 14  2  0  0  0  0
  9 23  1  0  0  0  0
 10 26  1  0  0  0  0
 11 26  2  0  0  0  0
 12 27  1  0  0  0  0
 13 27  2  0  0  0  0
 14 28  1  0  0  0  0
 15 16  2  0  0  0  0
 15 29  1  0  0  0  0
 16 30  1  0  0  0  0
 17 25  1  0  0  0  0
 17 28  2  0  0  0  0
 18 30  2  0  0  0  0
 18 31  1  0  0  0  0
 19 32  1  0  0  0  0
 20 34  1  0  0  0  0
 21 32  1  0  0  0  0
 21 33  2  0  0  0  0
 21 36  1  0  0  0  0
 22 24  2  0  0  0  0
 22 42  1  0  0  0  0
 23 25  2  0  0  0  0
 23 43  1  0  0  0  0
 24 51  1  0  0  0  0
 25 44  1  0  0  0  0
 26 70  1  0  0  0  0
 27 80  1  0  0  0  0
 28 81  1  0  0  0  0
 29 31  2  0  0  0  0
 29 80  1  0  0  0  0
 30 82  1  0  0  0  0
 31 83  1  0  0  0  0
 32 64  2  0  0  0  0
 33 65  1  0  0  0  0
 33 68  1  0  0  0  0
 34 35  2  0  0  0  0
 35 59  1  0  0  0  0
 36 69  1  0  0  0  0
 36 74  2  0  0  0  0
 37 52  1  0  0  0  0
 37 71  1  0  0  0  0
 37 75  2  0  0  0  0
 38 59  1  0  0  0  0
 38 60  1  0  0  0  0
 38 76  2  0  0  0  0
 39 61  1  0  0  0  0
 39 66  1  0  0  0  0
 39 77  2  0  0  0  0
 40 62  1  0  0  0  0
 40 72  1  0  0  0  0
 40 78  2  0  0  0  0
 41 67  1  0  0  0  0
 41 70  1  0  0  0  0
 41 79  2  0  0  0  0
 42 45  1  0  0  0  0
 43 52  1  0  0  0  0
 44 66  1  0  0  0  0
 45 47  1  0  0  0  0
 46 48  1  0  0  0  0
 46 49  1  0  0  0  0
 47 51  1  0  0  0  0
 48 53  1  0  0  0  0
 49 67  1  0  0  0  0
 50 53  1  0  0  0  0
 50 67  1  0  0  0  0
 51 71  1  0  0  0  0
 52 66  1  0  0  0  0
 53 65  1  0  0  0  0
 54 62  1  0  0  0  0
 55 63  1  0  0  0  0
 56 63  1  0  0  0  0
 57 63  1  0  0  0  0
 58 73  1  0  0  0  0
 60 81  1  0  0  0  0
 61 63  1  0  0  0  0
 61 72  1  0  0  0  0
 62 73  1  0  0  0  0
 64 65  1  0  0  0  0
M  CHG  1  73   1
M  ISO  4  41 100  60 101  70 100  81 101
M  END
> <Batch ID>
0129

> <Smiles>
CNC(C)C(=O)NC(C(=O)N1Cc2cc([101O:1][101CH2:1]C(=O)CC=Cc3ccc([100NH:0][100C:0](=O)N4CCCC(n5nc(-c6ccc(Oc7ccc(F)cc7F)cc6)c(C(N)=O)c5N)C4)cc3)ccc2CC1C(=O)NC1CCCc2ccccc21)C(C)(C)C

> <Shape>
0.258

> <Color>
0.108

> <Negative vol penalty>
0.000

$$$$

  -OEChem-04052302193D

 84 92  0     1  0  0  0  0  0999 V2000
  -22.3985  -34.5391   20.4995 C   0  0  0  0  0  0  0  0  0  0  0  0
  -23.4738  -33.6700   20.6534 C   0  0  0  0  0  0  0  0  0  0  0  0
  -24.2183   -9.4832   22.0372 C   0  0  0  0  0  0  0  0  0  0  0  0
  -23.4506   -9.3624   19.7496 C   0  0  0  0  0  0  0  0  0  0  0  0
  -31.0946  -20.6485   19.8701 C   0  0  0  0  0  0  0  0  0  0  0  0
  -31.3342  -22.0163   19.7395 C   0  0  0  0  0  0  0  0  0  0  0  0
  -21.1810  -34.2562   21.1171 C   0  0  0  0  0  0  0  0  0  0  0  0
  -23.3325  -32.5178   21.4260 C   0  0  0  0  0  0  0  0  0  0  0  0
  -25.3270  -28.4295   19.2005 C   0  0  0  0  0  0  0  0  0  0  0  0
  -23.1971   -8.6163   22.4258 C   0  0  0  0  0  0  0  0  0  0  0  0
  -22.4293   -8.4953   20.1382 C   0  0  0  0  0  0  0  0  0  0  0  0
  -26.7128  -28.2873   19.2549 C   0  0  0  0  0  0  0  0  0  0  0  0
  -22.5818   -5.2927   22.3347 C   0  0  0  0  0  0  0  0  0  0  0  0
  -22.9113   -4.2495   23.2000 C   0  0  0  0  0  0  0  0  0  0  0  0
  -29.1430  -21.1187   21.2144 C   0  0  0  0  0  0  0  0  0  0  0  0
  -26.4748  -26.7234   21.0761 C   0  0  0  0  0  0  0  0  0  0  0  0
  -21.3426   -5.1035   24.8269 C   0  0  0  0  0  0  0  0  0  0  0  0
  -24.3450   -9.8564   20.6991 C   0  0  0  0  0  0  0  0  0  0  0  0
  -29.9989  -20.1996   20.6076 C   0  0  0  0  0  0  0  0  0  0  0  0
  -30.4783  -22.9354   20.3464 C   0  0  0  0  0  0  0  0  0  0  0  0
  -26.6979  -10.4041   19.8796 C   0  0  0  0  0  0  0  0  0  0  0  0
  -21.0218  -33.0951   21.8898 C   0  0  0  0  0  0  0  0  0  0  0  0
  -24.5038  -27.7269   20.0922 C   0  0  0  0  0  0  0  0  0  0  0  0
  -22.1121  -32.2197   22.0557 C   0  0  0  0  0  0  0  0  0  0  0  0
  -25.0787  -26.8565   21.0293 C   0  0  0  0  0  0  0  0  0  0  0  0
  -29.3826  -22.4866   21.0838 C   0  0  0  0  0  0  0  0  0  0  0  0
  -22.3026   -8.1223   21.4763 C   0  0  0  0  0  0  0  0  0  0  0  0
  -27.2871  -27.4364   20.1947 C   0  0  0  0  0  0  0  0  0  0  0  0
  -21.6327   -6.2414   22.7155 C   0  0  0  0  0  0  0  0  0  0  0  0
  -22.2917   -4.1548   24.4461 C   0  0  0  0  0  0  0  0  0  0  0  0
  -21.0131   -6.1467   23.9616 C   0  0  0  0  0  0  0  0  0  0  0  0
  -25.3994  -10.7524   20.2972 C   0  0  0  0  0  0  0  0  0  0  0  0
  -27.3061  -11.6060   19.6111 C   0  0  0  0  0  0  0  0  0  0  0  0
  -29.7503  -18.7731   20.7439 C   0  0  0  0  0  0  0  0  0  0  0  0
  -30.7579  -24.3725   20.1897 C   0  0  0  0  0  0  0  0  0  0  0  0
  -28.5693  -18.2126   21.0815 C   0  0  0  0  0  0  0  0  0  0  0  0
  -30.3022  -25.1442   19.1905 C   0  0  0  0  0  0  0  0  0  0  0  0
  -27.3004   -9.1099   19.7463 C   0  0  0  0  0  0  0  0  0  0  0  0
  -28.4732  -16.7416   21.1695 C   0  0  0  0  0  0  0  0  0  0  0  0
  -22.4371  -28.5518   22.3620 C   0  0  0  0  0  0  0  0  0  0  0  0
  -21.8579  -25.3614   22.4505 C   0  0  0  0  0  0  0  0  0  0  0  0
  -22.9770  -22.1956   21.8400 C   0  0  0  0  0  0  0  0  0  0  0  0
  -19.7007  -32.8558   22.5769 C   0  0  0  0  0  0  0  0  0  0  0  0
  -23.0093  -27.8708   20.0030 C   0  0  0  0  0  0  0  0  0  0  0  0
  -24.2380  -26.0641   21.9956 C   0  0  0  0  0  0  0  0  0  0  0  0
  -19.5222  -31.4227   23.0716 C   0  0  0  0  0  0  0  0  0  0  0  0
  -25.4039  -16.2603   19.2253 C   0  0  0  0  0  0  0  0  0  0  0  0
  -20.7756  -30.9498   23.8012 C   0  0  0  0  0  0  0  0  0  0  0  0
  -25.2158  -14.7501   19.3425 C   0  0  0  0  0  0  0  0  0  0  0  0
  -26.0153  -16.8602   20.4906 C   0  0  0  0  0  0  0  0  0  0  0  0
  -27.1042  -14.6980   21.0192 C   0  0  0  0  0  0  0  0  0  0  0  0
  -21.9906  -30.9472   22.8657 C   0  0  1  0  0  0  0  0  0  0  0  0
  -22.2948  -27.4996   21.2988 C   0  0  1  0  0  0  0  0  0  0  0  0
  -26.5339  -14.0667   19.7396 C   0  0  1  0  0  0  0  0  0  0  0  0
  -29.0301  -24.0284   23.0294 C   0  0  0  0  0  0  0  0  0  0  0  0
  -22.2942  -19.7901   22.0508 C   0  0  0  0  0  0  0  0  0  0  0  0
  -22.3994  -25.4731   25.4512 C   0  0  0  0  0  0  0  0  0  0  0  0
  -22.6425  -22.9814   25.4295 C   0  0  0  0  0  0  0  0  0  0  0  0
  -20.4688  -24.0263   24.7927 C   0  0  0  0  0  0  0  0  0  0  0  0
  -23.1610  -21.7668   18.9175 C   0  0  0  0  0  0  0  0  0  0  0  0
  -28.4449  -23.4427   21.7486 C   0  0  0  0  0  0  0  0  0  0  0  0
  -30.6233  -26.6082   19.0618 C   0  0  0  0  0  0  0  0  0  0  0  0
  -29.3604  -27.4609   19.0299 C   0  0  0  0  0  0  0  0  0  1  0  0
  -22.4338  -24.1910   23.2104 C   0  0  1  0  0  0  0  0  0  0  0  0
  -22.3248  -21.0128   21.1471 C   0  0  2  0  0  0  0  0  0  0  0  0
  -22.0024  -24.1842   24.7042 C   0  0  0  0  0  0  0  0  0  0  0  0
  -25.1939  -12.0722   20.2959 N   0  0  0  0  0  0  0  0  0  0  0  0
  -26.3715  -12.5637   19.8743 N   0  0  0  0  0  0  0  0  0  0  0  0
  -27.2431  -16.1522   20.8830 N   0  0  0  0  0  0  0  0  0  0  0  0
  -22.7819  -26.2438   21.8731 N   0  0  0  0  0  0  0  0  0  0  0  0
  -28.5439  -11.9263   19.1780 N   0  0  0  0  0  0  0  0  0  0  0  0
  -26.5340   -7.9803   20.0639 N   0  0  0  0  0  0  0  0  0  0  0  0
  -21.9543  -29.7930   21.9933 N   0  0  0  0  0  0  0  0  0  0  0  0
  -22.0469  -22.9942   22.4713 N   0  0  0  0  0  0  0  0  0  0  0  0
  -23.0730  -20.6621   19.9069 N   0  3  0  0  0  0  0  0  0  0  0  0
  -28.4885   -8.9606   19.3727 O   0  0  0  0  0  0  0  0  0  0  0  0
  -29.4882  -16.1240   21.4965 O   0  0  0  0  0  0  0  0  0  0  0  0
  -22.9457  -28.2589   23.4377 O   0  0  0  0  0  0  0  0  0  0  0  0
  -20.6334  -25.4841   22.3661 O   0  0  0  0  0  0  0  0  0  0  0  0
  -24.1905  -22.3896   21.8261 O   0  0  0  0  0  0  0  0  0  0  0  0
  -21.3061   -7.2760   21.8550 O   0  0  0  0  0  0  0  0  0  0  0  0
  -28.6396  -27.2962   20.2504 O   0  0  0  0  0  0  0  0  0  1  0  0
  -22.6071   -3.1521   25.2763 F   0  0  0  0  0  0  0  0  0  0  0  0
  -20.0997   -7.0544   24.3326 F   0  0  0  0  0  0  0  0  0  0  0  0
  1  2  1  0  0  0  0
  1  7  2  0  0  0  0
  2  8  2  0  0  0  0
  3 10  2  0  0  0  0
  3 18  1  0  0  0  0
  4 11  1  0  0  0  0
  4 18  2  0  0  0  0
  5  6  2  0  0  0  0
  5 19  1  0  0  0  0
  6 20  1  0  0  0  0
  7 22  1  0  0  0  0
  8 24  1  0  0  0  0
  9 12  2  0  0  0  0
  9 23  1  0  0  0  0
 10 27  1  0  0  0  0
 11 27  2  0  0  0  0
 12 28  1  0  0  0  0
 13 14  2  0  0  0  0
 13 29  1  0  0  0  0
 14 30  1  0  0  0  0
 15 19  2  0  0  0  0
 15 26  1  0  0  0  0
 16 25  1  0  0  0  0
 16 28  2  0  0  0  0
 17 30  2  0  0  0  0
 17 31  1  0  0  0  0
 18 32  1  0  0  0  0
 19 34  1  0  0  0  0
 20 26  2  0  0  0  0
 20 35  1  0  0  0  0
 21 32  1  0  0  0  0
 21 33  2  0  0  0  0
 21 38  1  0  0  0  0
 22 24  2  0  0  0  0
 22 43  1  0  0  0  0
 23 25  2  0  0  0  0
 23 44  1  0  0  0  0
 24 52  1  0  0  0  0
 25 45  1  0  0  0  0
 26 61  1  0  0  0  0
 27 81  1  0  0  0  0
 28 82  1  0  0  0  0
 29 31  2  0  0  0  0
 29 81  1  0  0  0  0
 30 83  1  0  0  0  0
 31 84  1  0  0  0  0
 32 67  2  0  0  0  0
 33 68  1  0  0  0  0
 33 71  1  0  0  0  0
 34 36  2  0  0  0  0
 35 37  2  0  0  0  0
 36 39  1  0  0  0  0
 37 62  1  0  0  0  0
 38 72  1  0  0  0  0
 38 76  2  0  0  0  0
 39 69  1  0  0  0  0
 39 77  2  0  0  0  0
 40 53  1  0  0  0  0
 40 73  1  0  0  0  0
 40 78  2  0  0  0  0
 41 64  1  0  0  0  0
 41 70  1  0  0  0  0
 41 79  2  0  0  0  0
 42 65  1  0  0  0  0
 42 74  1  0  0  0  0
 42 80  2  0  0  0  0
 43 46  1  0  0  0  0
 44 53  1  0  0  0  0
 45 70  1  0  0  0  0
 46 48  1  0  0  0  0
 47 49  1  0  0  0  0
 47 50  1  0  0  0  0
 48 52  1  0  0  0  0
 49 54  1  0  0  0  0
 50 69  1  0  0  0  0
 51 54  1  0  0  0  0
 51 69  1  0  0  0  0
 52 73  1  0  0  0  0
 53 70  1  0  0  0  0
 54 68  1  0  0  0  0
 55 61  1  0  0  0  0
 56 65  1  0  0  0  0
 57 66  1  0  0  0  0
 58 66  1  0  0  0  0
 59 66  1  0  0  0  0
 60 75  1  0  0  0  0
 62 63  1  0  0  0  0
 63 82  1  0  0  0  0
 64 66  1  0  0  0  0
 64 74  1  0  0  0  0
 65 75  1  0  0  0  0
 67 68  1  0  0  0  0
M  CHG  1  75   1
M  ISO  4  36 100  39 100  63 101  82 101
M  END
> <Batch ID>
0129

> <Smiles>
CCc1cc(C=[100CH:0][100C:0](=O)N2CCCC(n3nc(-c4ccc(Oc5ccc(F)cc5F)cc4)c(C(N)=O)c3N)C2)ccc1C=CC[101CH2:1][101O:1]c1ccc2c(c1)CN(C(=O)C(NC(=O)C(C)NC)C(C)(C)C)C(C(=O)NC1CCCc3ccccc31)C2

> <Shape>
0.256

> <Color>
0.110

> <Negative vol penalty>
0.000

$$$$

  -OEChem-04052302193D

 84 92  0     1  0  0  0  0  0999 V2000
  -26.3282  -39.8449   21.9337 C   0  0  0  0  0  0  0  0  0  0  0  0
  -27.1292  -38.7435   21.6494 C   0  0  0  0  0  0  0  0  0  0  0  0
  -24.1938   -9.3312   22.2693 C   0  0  0  0  0  0  0  0  0  0  0  0
  -24.2102   -8.8772   19.8964 C   0  0  0  0  0  0  0  0  0  0  0  0
  -28.8849  -20.9328   20.6345 C   0  0  0  0  0  0  0  0  0  0  0  0
  -29.1177  -22.2873   20.3966 C   0  0  0  0  0  0  0  0  0  0  0  0
  -25.2457  -39.7124   22.8023 C   0  0  0  0  0  0  0  0  0  0  0  0
  -26.8488  -37.5092   22.2344 C   0  0  0  0  0  0  0  0  0  0  0  0
  -27.6141  -31.9811   19.7126 C   0  0  0  0  0  0  0  0  0  0  0  0
  -23.1240   -8.4509   22.4303 C   0  0  0  0  0  0  0  0  0  0  0  0
  -23.1404   -7.9968   20.0574 C   0  0  0  0  0  0  0  0  0  0  0  0
  -28.6265  -31.0295   19.8279 C   0  0  0  0  0  0  0  0  0  0  0  0
  -22.6551   -5.1071   22.6107 C   0  0  0  0  0  0  0  0  0  0  0  0
  -22.7134   -4.2035   23.6716 C   0  0  0  0  0  0  0  0  0  0  0  0
  -31.0564  -20.7425   21.6764 C   0  0  0  0  0  0  0  0  0  0  0  0
  -27.3457  -29.8803   21.5185 C   0  0  0  0  0  0  0  0  0  0  0  0
  -20.6819   -5.1419   24.5824 C   0  0  0  0  0  0  0  0  0  0  0  0
  -24.7369   -9.5445   21.0022 C   0  0  0  0  0  0  0  0  0  0  0  0
  -29.8542  -20.1604   21.2744 C   0  0  0  0  0  0  0  0  0  0  0  0
  -30.3199  -22.8695   20.7985 C   0  0  0  0  0  0  0  0  0  0  0  0
  -27.2138  -10.1469   20.9032 C   0  0  0  0  0  0  0  0  0  0  0  0
  -24.9461  -38.4736   23.3907 C   0  0  0  0  0  0  0  0  0  0  0  0
  -26.4627  -31.8953   20.5085 C   0  0  0  0  0  0  0  0  0  0  0  0
  -25.7620  -37.3604   23.1127 C   0  0  0  0  0  0  0  0  0  0  0  0
  -26.3190  -30.8306   21.4095 C   0  0  0  0  0  0  0  0  0  0  0  0
  -31.2892  -22.0971   21.4384 C   0  0  0  0  0  0  0  0  0  0  0  0
  -22.5973   -7.7836   21.3244 C   0  0  0  0  0  0  0  0  0  0  0  0
  -28.4937  -29.9806   20.7329 C   0  0  0  0  0  0  0  0  0  0  0  0
  -21.6103   -6.0282   22.5356 C   0  0  0  0  0  0  0  0  0  0  0  0
  -21.7267   -4.2208   24.6575 C   0  0  0  0  0  0  0  0  0  0  0  0
  -20.6237   -6.0456   23.5215 C   0  0  0  0  0  0  0  0  0  0  0  0
  -25.8417  -10.4543   20.8351 C   0  0  0  0  0  0  0  0  0  0  0  0
  -27.8457  -11.3454   20.6775 C   0  0  0  0  0  0  0  0  0  0  0  0
  -29.6109  -18.7479   21.5213 C   0  0  0  0  0  0  0  0  0  0  0  0
  -30.5357  -24.3029   20.5331 C   0  0  0  0  0  0  0  0  0  0  0  0
  -28.3988  -18.1537   21.5414 C   0  0  0  0  0  0  0  0  0  0  0  0
  -29.7493  -25.2880   20.9887 C   0  0  0  0  0  0  0  0  0  0  0  0
  -27.8594   -8.8905   21.1486 C   0  0  0  0  0  0  0  0  0  0  0  0
  -30.0498  -26.7105   20.6543 C   0  0  0  0  0  0  0  0  0  0  0  0
  -28.3164  -16.7016   21.7974 C   0  0  0  0  0  0  0  0  0  0  0  0
  -25.1234  -33.7420   22.7220 C   0  0  0  0  0  0  0  0  0  0  0  0
  -22.7404  -31.5477   22.5533 C   0  0  0  0  0  0  0  0  0  0  0  0
  -21.7818  -28.3656   21.7773 C   0  0  0  0  0  0  0  0  0  0  0  0
  -23.7937  -38.3902   24.3602 C   0  0  0  0  0  0  0  0  0  0  0  0
  -25.3678  -32.9148   20.3531 C   0  0  0  0  0  0  0  0  0  0  0  0
  -25.0936  -30.6820   22.2725 C   0  0  0  0  0  0  0  0  0  0  0  0
  -23.3403  -36.9609   24.6459 C   0  0  0  0  0  0  0  0  0  0  0  0
  -26.0537  -15.7755   19.0672 C   0  0  0  0  0  0  0  0  0  0  0  0
  -24.5430  -36.0649   24.9242 C   0  0  0  0  0  0  0  0  0  0  0  0
  -25.8760  -14.2819   19.3269 C   0  0  0  0  0  0  0  0  0  0  0  0
  -26.2078  -16.5671   20.3649 C   0  0  0  0  0  0  0  0  0  0  0  0
  -27.1215  -14.5662   21.5059 C   0  0  0  0  0  0  0  0  0  0  0  0
  -25.4751  -35.9991   23.7083 C   0  0  1  0  0  0  0  0  0  0  0  0
  -24.4679  -33.0171   21.5807 C   0  0  1  0  0  0  0  0  0  0  0  0
  -27.0117  -13.7445   20.2120 C   0  0  1  0  0  0  0  0  0  0  0  0
  -32.5893  -22.6871   21.8821 C   0  0  0  0  0  0  0  0  0  0  0  0
  -19.7772  -26.8559   21.7809 C   0  0  0  0  0  0  0  0  0  0  0  0
  -22.9864  -31.2323   25.5782 C   0  0  0  0  0  0  0  0  0  0  0  0
  -21.6861  -29.1009   25.3917 C   0  0  0  0  0  0  0  0  0  0  0  0
  -20.6375  -31.2624   24.7201 C   0  0  0  0  0  0  0  0  0  0  0  0
  -21.9160  -27.9882   18.8450 C   0  0  0  0  0  0  0  0  0  0  0  0
  -29.0896  -27.7318   21.2267 C   0  0  0  0  0  0  0  0  0  1  0  0
  -22.4322  -30.2479   23.2566 C   0  0  1  0  0  0  0  0  0  0  0  0
  -20.6113  -27.8349   20.9693 C   0  0  2  0  0  0  0  0  0  0  0  0
  -21.9596  -30.4645   24.7219 C   0  0  0  0  0  0  0  0  0  0  0  0
  -25.6145  -11.7466   20.5858 N   0  0  0  0  0  0  0  0  0  0  0  0
  -26.8523  -12.2620   20.4953 N   0  0  0  0  0  0  0  0  0  0  0  0
  -27.2603  -15.9986   21.2204 N   0  0  0  0  0  0  0  0  0  0  0  0
  -24.0535  -31.7076   22.0884 N   0  0  0  0  0  0  0  0  0  0  0  0
  -29.1486  -11.6939   20.6191 N   0  0  0  0  0  0  0  0  0  0  0  0
  -27.0603   -7.7588   21.3603 N   0  0  0  0  0  0  0  0  0  0  0  0
  -24.9326  -35.1105   22.7031 N   0  0  0  0  0  0  0  0  0  0  0  0
  -21.4682  -29.5471   22.4152 N   0  0  0  0  0  0  0  0  0  0  0  0
  -21.1000  -27.1357   19.7474 N   0  3  0  0  0  0  0  0  0  0  0  0
  -29.1079   -8.7779   21.1954 O   0  0  0  0  0  0  0  0  0  0  0  0
  -31.0124  -27.0284   19.9612 O   0  0  0  0  0  0  0  0  0  0  0  0
  -29.1864  -16.1999   22.5117 O   0  0  0  0  0  0  0  0  0  0  0  0
  -25.7543  -33.1067   23.5587 O   0  0  0  0  0  0  0  0  0  0  0  0
  -21.8471  -32.3870   22.4151 O   0  0  0  0  0  0  0  0  0  0  0  0
  -22.8647  -27.7877   21.8396 O   0  0  0  0  0  0  0  0  0  0  0  0
  -21.5535   -6.9242   21.4813 O   0  0  0  0  0  0  0  0  0  0  0  0
  -29.4808  -29.0508   20.8479 O   0  0  0  0  0  0  0  0  0  1  0  0
  -21.7819   -3.3520   25.6754 F   0  0  0  0  0  0  0  0  0  0  0  0
  -19.6169   -6.9274   23.4541 F   0  0  0  0  0  0  0  0  0  0  0  0
  1  2  1  0  0  0  0
  1  7  2  0  0  0  0
  2  8  2  0  0  0  0
  3 10  2  0  0  0  0
  3 18  1  0  0  0  0
  4 11  1  0  0  0  0
  4 18  2  0  0  0  0
  5  6  2  0  0  0  0
  5 19  1  0  0  0  0
  6 20  1  0  0  0  0
  7 22  1  0  0  0  0
  8 24  1  0  0  0  0
  9 12  2  0  0  0  0
  9 23  1  0  0  0  0
 10 27  1  0  0  0  0
 11 27  2  0  0  0  0
 12 28  1  0  0  0  0
 13 14  2  0  0  0  0
 13 29  1  0  0  0  0
 14 30  1  0  0  0  0
 15 19  2  0  0  0  0
 15 26  1  0  0  0  0
 16 25  1  0  0  0  0
 16 28  2  0  0  0  0
 17 30  2  0  0  0  0
 17 31  1  0  0  0  0
 18 32  1  0  0  0  0
 19 34  1  0  0  0  0
 20 26  2  0  0  0  0
 20 35  1  0  0  0  0
 21 32  1  0  0  0  0
 21 33  2  0  0  0  0
 21 38  1  0  0  0  0
 22 24  2  0  0  0  0
 22 44  1  0  0  0  0
 23 25  2  0  0  0  0
 23 45  1  0  0  0  0
 24 53  1  0  0  0  0
 25 46  1  0  0  0  0
 26 56  1  0  0  0  0
 27 81  1  0  0  0  0
 28 82  1  0  0  0  0
 29 31  2  0  0  0  0
 29 81  1  0  0  0  0
 30 83  1  0  0  0  0
 31 84  1  0  0  0  0
 32 66  2  0  0  0  0
 33 67  1  0  0  0  0
 33 70  1  0  0  0  0
 34 36  2  0  0  0  0
 35 37  2  0  0  0  0
 36 40  1  0  0  0  0
 37 39  1  0  0  0  0
 38 71  1  0  0  0  0
 38 75  2  0  0  0  0
 39 62  1  0  0  0  0
 39 76  2  0  0  0  0
 40 68  1  0  0  0  0
 40 77  2  0  0  0  0
 41 54  1  0  0  0  0
 41 72  1  0  0  0  0
 41 78  2  0  0  0  0
 42 63  1  0  0  0  0
 42 69  1  0  0  0  0
 42 79  2  0  0  0  0
 43 64  1  0  0  0  0
 43 73  1  0  0  0  0
 43 80  2  0  0  0  0
 44 47  1  0  0  0  0
 45 54  1  0  0  0  0
 46 69  1  0  0  0  0
 47 49  1  0  0  0  0
 48 50  1  0  0  0  0
 48 51  1  0  0  0  0
 49 53  1  0  0  0  0
 50 55  1  0  0  0  0
 51 68  1  0  0  0  0
 52 55  1  0  0  0  0
 52 68  1  0  0  0  0
 53 72  1  0  0  0  0
 54 69  1  0  0  0  0
 55 67  1  0  0  0  0
 57 64  1  0  0  0  0
 58 65  1  0  0  0  0
 59 65  1  0  0  0  0
 60 65  1  0  0  0  0
 61 74  1  0  0  0  0
 62 82  1  0  0  0  0
 63 65  1  0  0  0  0
 63 73  1  0  0  0  0
 64 74  1  0  0  0  0
 66 67  1  0  0  0  0
M  CHG  1  74   1
M  ISO  4  36 100  40 100  62 101  82 101
M  END
> <Batch ID>
0129

> <Smiles>
CNC(C)C(=O)NC(C(=O)N1Cc2cc([101O:1][101CH2:1]C(=O)C=Cc3ccc(C=[100CH:0][100C:0](=O)N4CCCC(n5nc(-c6ccc(Oc7ccc(F)cc7F)cc6)c(C(N)=O)c5N)C4)cc3C)ccc2CC1C(=O)NC1CCCc2ccccc21)C(C)(C)C

> <Shape>
0.306

> <Color>
0.092

> <Negative vol penalty>
0.000

$$$$

  -OEChem-04052302193D

 88 97  0     1  0  0  0  0  0999 V2000
  -22.1936   -7.4470   20.4018 C   0  0  0  0  0  0  0  0  0  0  0  0
  -21.6813   -8.7371   20.3081 C   0  0  0  0  0  0  0  0  0  0  0  0
  -18.4513  -27.8129   23.7641 C   0  0  0  0  0  0  0  0  0  0  0  0
  -25.9933  -24.4087   18.8278 C   0  0  0  0  0  0  0  0  0  0  0  0
  -26.5150  -25.7302   16.8737 C   0  0  0  0  0  0  0  0  0  0  0  0
  -19.4342  -28.8013   23.8141 C   0  0  0  0  0  0  0  0  0  0  0  0
  -23.3608   -7.2127   21.1275 C   0  0  0  0  0  0  0  0  0  0  0  0
  -22.3355   -9.7935   20.9410 C   0  0  0  0  0  0  0  0  0  0  0  0
  -22.7687  -15.5721   18.9596 C   0  0  0  0  0  0  0  0  0  0  0  0
  -18.5582  -26.7689   22.8452 C   0  0  0  0  0  0  0  0  0  0  0  0
  -25.3749  -23.4559   18.0184 C   0  0  0  0  0  0  0  0  0  0  0  0
  -25.8967  -24.7773   16.0642 C   0  0  0  0  0  0  0  0  0  0  0  0
  -22.0579  -16.7285   19.2778 C   0  0  0  0  0  0  0  0  0  0  0  0
  -24.7724  -22.5167   13.4482 C   0  0  0  0  0  0  0  0  0  0  0  0
  -25.4319  -22.1290   12.2819 C   0  0  0  0  0  0  0  0  0  0  0  0
  -20.6307  -27.7020   22.0261 C   0  0  0  0  0  0  0  0  0  0  0  0
  -23.7693  -17.3365   20.8653 C   0  0  0  0  0  0  0  0  0  0  0  0
  -27.3064  -21.3595   13.5977 C   0  0  0  0  0  0  0  0  0  0  0  0
  -26.5633  -25.5460   18.2555 C   0  0  0  0  0  0  0  0  0  0  0  0
  -20.5239  -28.7459   22.9451 C   0  0  0  0  0  0  0  0  0  0  0  0
  -28.5548  -26.5692   19.4782 C   0  0  0  0  0  0  0  0  0  0  0  0
  -24.0349   -8.2682   21.7616 C   0  0  0  0  0  0  0  0  0  0  0  0
  -23.9818  -15.2832   19.6010 C   0  0  0  0  0  0  0  0  0  0  0  0
  -23.5121   -9.5728   21.6770 C   0  0  0  0  0  0  0  0  0  0  0  0
  -24.4949  -16.1771   20.5517 C   0  0  0  0  0  0  0  0  0  0  0  0
  -19.6478  -26.7134   21.9762 C   0  0  0  0  0  0  0  0  0  0  0  0
  -25.3266  -23.6402   16.6366 C   0  0  0  0  0  0  0  0  0  0  0  0
  -22.5567  -17.6095   20.2328 C   0  0  0  0  0  0  0  0  0  0  0  0
  -25.3799  -22.3258   14.6893 C   0  0  0  0  0  0  0  0  0  0  0  0
  -26.6989  -21.5505   12.3566 C   0  0  0  0  0  0  0  0  0  0  0  0
  -26.6469  -21.7472   14.7640 C   0  0  0  0  0  0  0  0  0  0  0  0
  -27.2018  -26.5309   19.0912 C   0  0  0  0  0  0  0  0  0  0  0  0
  -28.6558  -27.6917   20.2632 C   0  0  0  0  0  0  0  0  0  0  0  0
  -21.5048  -22.1245   21.3731 C   0  0  0  0  0  0  0  0  0  0  0  0
  -21.9326  -21.1417   20.5402 C   0  0  0  0  0  0  0  0  0  0  0  0
  -20.7693  -23.2921   20.8411 C   0  0  0  0  0  0  0  0  0  0  0  0
  -21.5485  -29.7773   22.9965 C   0  0  0  0  0  0  0  0  0  0  0  0
  -20.5099  -24.4118   21.5396 C   0  0  0  0  0  0  0  0  0  0  0  0
  -22.8031  -29.6594   22.5124 C   0  0  0  0  0  0  0  0  0  0  0  0
  -29.6247  -25.6705   19.1566 C   0  0  0  0  0  0  0  0  0  0  0  0
  -23.7290  -30.8056   22.6323 C   0  0  0  0  0  0  0  0  0  0  0  0
  -25.0254  -12.9376   21.4753 C   0  0  0  0  0  0  0  0  0  0  0  0
  -27.8650  -14.4730   21.1572 C   0  0  0  0  0  0  0  0  0  0  0  0
  -29.5299  -17.3787   20.5000 C   0  0  0  0  0  0  0  0  0  0  0  0
  -25.2671   -7.9585   22.5741 C   0  0  0  0  0  0  0  0  0  0  0  0
  -24.7497  -14.0450   19.2272 C   0  0  0  0  0  0  0  0  0  0  0  0
  -25.8027  -15.9231   21.2542 C   0  0  0  0  0  0  0  0  0  0  0  0
  -21.7567  -21.2164   19.0338 C   0  0  0  0  0  0  0  0  0  0  0  0
  -20.2793  -23.1919   19.4142 C   0  0  0  0  0  0  0  0  0  0  0  0
  -26.1056   -9.1911   22.9029 C   0  0  0  0  0  0  0  0  0  0  0  0
  -21.3576  -22.5964   18.5247 C   0  0  0  0  0  0  0  0  0  0  0  0
  -26.6673  -32.0226   20.8881 C   0  0  0  0  0  0  0  0  0  0  0  0
  -25.2155  -10.3243   23.4031 C   0  0  0  0  0  0  0  0  0  0  0  0
  -27.1580  -30.7567   20.1786 C   0  0  0  0  0  0  0  0  0  0  0  0
  -25.9664  -31.7531   22.2159 C   0  0  0  0  0  0  0  0  0  0  0  0
  -25.5186  -29.3946   21.5272 C   0  0  0  0  0  0  0  0  0  0  0  0
  -24.2066  -10.7486   22.3290 C   0  0  1  0  0  0  0  0  0  0  0  0
  -25.7194  -13.5924   20.3145 C   0  0  1  0  0  0  0  0  0  0  0  0
  -26.9710  -29.4929   21.0306 C   0  0  1  0  0  0  0  0  0  0  0  0
  -21.7229  -22.1016   22.8691 C   0  0  0  0  0  0  0  0  0  0  0  0
  -31.8468  -18.3312   20.3513 C   0  0  0  0  0  0  0  0  0  0  0  0
  -28.0392  -14.5186   24.2031 C   0  0  0  0  0  0  0  0  0  0  0  0
  -29.8218  -16.2654   24.0056 C   0  0  0  0  0  0  0  0  0  0  0  0
  -30.1916  -13.9940   23.0429 C   0  0  0  0  0  0  0  0  0  0  0  0
  -29.1816  -18.0852   17.6472 C   0  0  0  0  0  0  0  0  0  0  0  0
  -19.7636  -25.5838   20.9837 C   0  0  0  0  0  0  0  0  0  0  0  0
  -22.6247  -19.8707   20.9664 C   0  0  0  0  0  0  0  0  0  1  0  0
  -28.5756  -15.5730   21.9083 C   0  0  1  0  0  0  0  0  0  0  0  0
  -30.7035  -17.6827   19.5864 C   0  0  2  0  0  0  0  0  0  0  0  0
  -29.1314  -15.0918   23.2783 C   0  0  0  0  0  0  0  0  0  0  0  0
  -26.4940  -27.5481   19.5895 N   0  0  0  0  0  0  0  0  0  0  0  0
  -27.4057  -28.2361   20.2977 N   0  0  0  0  0  0  0  0  0  0  0  0
  -25.0169  -30.6443   22.1198 N   0  0  0  0  0  0  0  0  0  0  0  0
  -26.5133  -14.6958   20.8589 N   0  0  0  0  0  0  0  0  0  0  0  0
  -29.6910  -28.2562   20.9205 N   0  0  0  0  0  0  0  0  0  0  0  0
  -29.3474  -24.5675   18.3376 N   0  0  0  0  0  0  0  0  0  0  0  0
  -24.8497  -11.5747   21.3298 N   0  0  0  0  0  0  0  0  0  0  0  0
  -29.5919  -16.0958   21.0015 N   0  0  0  0  0  0  0  0  0  0  0  0
  -30.2844  -18.6068   18.4949 N   0  3  0  0  0  0  0  0  0  0  0  0
  -30.7884  -25.8315   19.5964 O   0  0  0  0  0  0  0  0  0  0  0  0
  -23.3093  -31.8289   23.1742 O   0  0  0  0  0  0  0  0  0  0  0  0
  -24.6764  -13.6183   22.4327 O   0  0  0  0  0  0  0  0  0  0  0  0
  -28.4883  -13.4567   20.8404 O   0  0  0  0  0  0  0  0  0  0  0  0
  -28.6484  -18.1987   20.7473 O   0  0  0  0  0  0  0  0  0  0  0  0
  -24.7235  -22.7105   15.8464 O   0  0  0  0  0  0  0  0  0  0  0  0
  -21.8646  -18.7386   20.5456 O   0  0  0  0  0  0  0  0  0  1  0  0
  -27.3315  -21.1769   11.2366 F   0  0  0  0  0  0  0  0  0  0  0  0
  -27.2351  -21.5602   15.9535 F   0  0  0  0  0  0  0  0  0  0  0  0
  1  2  1  0  0  0  0
  1  7  2  0  0  0  0
  2  8  2  0  0  0  0
  3  6  1  0  0  0  0
  3 10  2  0  0  0  0
  4 11  2  0  0  0  0
  4 19  1  0  0  0  0
  5 12  1  0  0  0  0
  5 19  2  0  0  0  0
  6 20  2  0  0  0  0
  7 22  1  0  0  0  0
  8 24  1  0  0  0  0
  9 13  2  0  0  0  0
  9 23  1  0  0  0  0
 10 26  1  0  0  0  0
 11 27  1  0  0  0  0
 12 27  2  0  0  0  0
 13 28  1  0  0  0  0
 14 15  2  0  0  0  0
 14 29  1  0  0  0  0
 15 30  1  0  0  0  0
 16 20  1  0  0  0  0
 16 26  2  0  0  0  0
 17 25  1  0  0  0  0
 17 28  2  0  0  0  0
 18 30  2  0  0  0  0
 18 31  1  0  0  0  0
 19 32  1  0  0  0  0
 20 37  1  0  0  0  0
 21 32  1  0  0  0  0
 21 33  2  0  0  0  0
 21 40  1  0  0  0  0
 22 24  2  0  0  0  0
 22 45  1  0  0  0  0
 23 25  2  0  0  0  0
 23 46  1  0  0  0  0
 24 57  1  0  0  0  0
 25 47  1  0  0  0  0
 26 66  1  0  0  0  0
 27 85  1  0  0  0  0
 28 86  1  0  0  0  0
 29 31  2  0  0  0  0
 29 85  1  0  0  0  0
 30 87  1  0  0  0  0
 31 88  1  0  0  0  0
 32 71  2  0  0  0  0
 33 72  1  0  0  0  0
 33 75  1  0  0  0  0
 34 35  2  0  0  0  0
 34 36  1  0  0  0  0
 34 60  1  0  0  0  0
 35 48  1  0  0  0  0
 35 67  1  0  0  0  0
 36 38  2  0  0  0  0
 36 49  1  0  0  0  0
 37 39  2  0  0  0  0
 38 66  1  0  0  0  0
 39 41  1  0  0  0  0
 40 76  1  0  0  0  0
 40 80  2  0  0  0  0
 41 73  1  0  0  0  0
 41 81  2  0  0  0  0
 42 58  1  0  0  0  0
 42 77  1  0  0  0  0
 42 82  2  0  0  0  0
 43 68  1  0  0  0  0
 43 74  1  0  0  0  0
 43 83  2  0  0  0  0
 44 69  1  0  0  0  0
 44 78  1  0  0  0  0
 44 84  2  0  0  0  0
 45 50  1  0  0  0  0
 46 58  1  0  0  0  0
 47 74  1  0  0  0  0
 48 51  1  0  0  0  0
 49 51  1  0  0  0  0
 50 53  1  0  0  0  0
 52 54  1  0  0  0  0
 52 55  1  0  0  0  0
 53 57  1  0  0  0  0
 54 59  1  0  0  0  0
 55 73  1  0  0  0  0
 56 59  1  0  0  0  0
 56 73  1  0  0  0  0
 57 77  1  0  0  0  0
 58 74  1  0  0  0  0
 59 72  1  0  0  0  0
 61 69  1  0  0  0  0
 62 70  1  0  0  0  0
 63 70  1  0  0  0  0
 64 70  1  0  0  0  0
 65 79  1  0  0  0  0
 67 86  1  0  0  0  0
 68 70  1  0  0  0  0
 68 78  1  0  0  0  0
 69 79  1  0  0  0  0
 71 72  1  0  0  0  0
M  CHG  1  79   1
M  ISO  4  39 100  41 100  67 101  86 101
M  END
> <Batch ID>
0129

> <Smiles>
CNC(C)C(=O)NC(C(=O)N1Cc2cc([101O:1][101CH2:1]C3=C(C)C(=CCc4cccc(C=[100CH:0][100C:0](=O)N5CCCC(n6nc(-c7ccc(Oc8ccc(F)cc8F)cc7)c(C(N)=O)c6N)C5)c4)CCC3)ccc2CC1C(=O)NC1CCCc2ccccc21)C(C)(C)C

> <Shape>
0.271

> <Color>
0.057

> <Negative vol penalty>
0.000

$$$$

  -OEChem-04052302193D

 84 92  0     1  0  0  0  0  0999 V2000
  -16.5085  -29.8378   23.2218 C   0  0  0  0  0  0  0  0  0  0  0  0
  -17.4604  -30.0655   22.2332 C   0  0  0  0  0  0  0  0  0  0  0  0
  -30.2881  -26.7562   18.0408 C   0  0  0  0  0  0  0  0  0  0  0  0
  -25.8629  -13.7343   20.7765 C   0  0  0  0  0  0  0  0  0  0  0  0
  -27.9220  -12.6431   20.1390 C   0  0  0  0  0  0  0  0  0  0  0  0
  -29.8429  -25.5515   18.5850 C   0  0  0  0  0  0  0  0  0  0  0  0
  -16.9092  -29.4262   24.4922 C   0  0  0  0  0  0  0  0  0  0  0  0
  -18.8138  -29.8827   22.5147 C   0  0  0  0  0  0  0  0  0  0  0  0
  -24.9309  -27.8120   19.4149 C   0  0  0  0  0  0  0  0  0  0  0  0
  -31.2687  -27.4986   18.6988 C   0  0  0  0  0  0  0  0  0  0  0  0
  -25.1447  -12.5999   20.3985 C   0  0  0  0  0  0  0  0  0  0  0  0
  -27.2038  -11.5086   19.7610 C   0  0  0  0  0  0  0  0  0  0  0  0
  -26.2432  -28.2439   19.2268 C   0  0  0  0  0  0  0  0  0  0  0  0
  -22.8027   -9.8579   19.9389 C   0  0  0  0  0  0  0  0  0  0  0  0
  -21.8040   -9.4054   20.8011 C   0  0  0  0  0  0  0  0  0  0  0  0
  -31.3588  -25.8316   20.4452 C   0  0  0  0  0  0  0  0  0  0  0  0
  -26.8129  -27.4542   21.4338 C   0  0  0  0  0  0  0  0  0  0  0  0
  -23.4485   -9.0970   22.5440 C   0  0  0  0  0  0  0  0  0  0  0  0
  -27.2516  -13.7559   20.6467 C   0  0  0  0  0  0  0  0  0  0  0  0
  -30.3782  -25.0892   19.7872 C   0  0  0  0  0  0  0  0  0  0  0  0
  -28.5356  -15.2078   22.3053 C   0  0  0  0  0  0  0  0  0  0  0  0
  -18.2675  -29.2289   24.7867 C   0  0  0  0  0  0  0  0  0  0  0  0
  -24.5466  -27.2068   20.6200 C   0  0  0  0  0  0  0  0  0  0  0  0
  -19.2332  -29.4693   23.7907 C   0  0  0  0  0  0  0  0  0  0  0  0
  -25.4958  -27.0132   21.6337 C   0  0  0  0  0  0  0  0  0  0  0  0
  -31.8041  -27.0363   19.9010 C   0  0  0  0  0  0  0  0  0  0  0  0
  -25.8151  -11.4871   19.8908 C   0  0  0  0  0  0  0  0  0  0  0  0
  -27.1837  -28.0676   20.2375 C   0  0  0  0  0  0  0  0  0  0  0  0
  -24.1243   -9.9298   20.3791 C   0  0  0  0  0  0  0  0  0  0  0  0
  -22.1269   -9.0250   22.1037 C   0  0  0  0  0  0  0  0  0  0  0  0
  -24.4473   -9.5493   21.6817 C   0  0  0  0  0  0  0  0  0  0  0  0
  -27.9940  -14.9276   21.0365 C   0  0  0  0  0  0  0  0  0  0  0  0
  -29.1399  -16.4323   22.1580 C   0  0  0  0  0  0  0  0  0  0  0  0
  -29.9134  -23.8332   20.3552 C   0  0  0  0  0  0  0  0  0  0  0  0
  -29.2816  -22.8528   19.6755 C   0  0  0  0  0  0  0  0  0  0  0  0
  -30.1539  -29.9669   20.8239 C   0  0  0  0  0  0  0  0  0  0  0  0
  -28.4959  -14.4305   23.5095 C   0  0  0  0  0  0  0  0  0  0  0  0
  -31.4936  -29.9680   20.9702 C   0  0  0  0  0  0  0  0  0  0  0  0
  -28.8790  -21.6272   20.3942 C   0  0  0  0  0  0  0  0  0  0  0  0
  -22.4670  -27.9086   22.9193 C   0  0  0  0  0  0  0  0  0  0  0  0
  -23.3267  -24.9924   24.0502 C   0  0  0  0  0  0  0  0  0  0  0  0
  -25.6623  -22.5073   24.1768 C   0  0  0  0  0  0  0  0  0  0  0  0
  -18.6558  -28.8290   26.1881 C   0  0  0  0  0  0  0  0  0  0  0  0
  -23.1337  -26.7223   20.7969 C   0  0  0  0  0  0  0  0  0  0  0  0
  -25.1389  -26.3507   22.9384 C   0  0  0  0  0  0  0  0  0  0  0  0
  -20.0824  -28.2967   26.2964 C   0  0  0  0  0  0  0  0  0  0  0  0
  -30.1604  -19.1395   18.0275 C   0  0  0  0  0  0  0  0  0  0  0  0
  -21.0498  -29.2054   25.5445 C   0  0  0  0  0  0  0  0  0  0  0  0
  -29.7068  -17.8419   18.6912 C   0  0  0  0  0  0  0  0  0  0  0  0
  -29.1612  -20.2741   18.2481 C   0  0  0  0  0  0  0  0  0  0  0  0
  -28.3830  -19.2137   20.3482 C   0  0  0  0  0  0  0  0  0  0  0  0
  -20.7090  -29.2580   24.0503 C   0  0  1  0  0  0  0  0  0  0  0  0
  -22.7286  -26.5834   22.2612 C   0  0  1  0  0  0  0  0  0  0  0  0
  -29.3963  -18.0710   20.1788 C   0  0  1  0  0  0  0  0  0  0  0  0
  -32.3005  -31.1518   20.5006 C   0  0  0  0  0  0  0  0  0  0  0  0
  -26.6573  -20.2735   24.7403 C   0  0  0  0  0  0  0  0  0  0  0  0
  -23.9468  -26.3465   26.7132 C   0  0  0  0  0  0  0  0  0  0  0  0
  -25.2387  -24.3053   27.3708 C   0  0  0  0  0  0  0  0  0  0  0  0
  -22.7929  -24.1365   26.9104 C   0  0  0  0  0  0  0  0  0  0  0  0
  -24.5612  -21.2685   21.7249 C   0  0  0  0  0  0  0  0  0  0  0  0
  -32.8654  -27.8388   20.6116 C   0  0  0  0  0  0  0  0  0  0  0  0
  -29.1837  -28.8995   21.2192 C   0  0  0  0  0  0  0  0  0  1  0  0
  -32.2965  -28.8553   21.6119 C   0  0  0  0  0  0  0  0  0  0  0  0
  -24.3955  -24.4810   24.9856 C   0  0  1  0  0  0  0  0  0  0  0  0
  -25.5435  -21.0036   24.0061 C   0  0  2  0  0  0  0  0  0  0  0  0
  -24.1000  -24.8316   26.4713 C   0  0  0  0  0  0  0  0  0  0  0  0
  -28.2331  -15.8963   20.1485 N   0  0  0  0  0  0  0  0  0  0  0  0
  -28.9314  -16.7972   20.8605 N   0  0  0  0  0  0  0  0  0  0  0  0
  -28.8356  -20.4353   19.6732 N   0  0  0  0  0  0  0  0  0  0  0  0
  -23.7432  -25.8999   23.0659 N   0  0  0  0  0  0  0  0  0  0  0  0
  -29.8239  -17.2219   23.0131 N   0  0  0  0  0  0  0  0  0  0  0  0
  -27.8334  -13.1957   23.4862 N   0  0  0  0  0  0  0  0  0  0  0  0
  -21.1744  -28.0609   23.3833 N   0  0  0  0  0  0  0  0  0  0  0  0
  -24.5187  -23.0514   24.7221 N   0  0  0  0  0  0  0  0  0  0  0  0
  -25.6141  -20.6389   22.5628 N   0  3  0  0  0  0  0  0  0  0  0  0
  -29.0180  -14.8270   24.5790 O   0  0  0  0  0  0  0  0  0  0  0  0
  -28.6007  -21.7347   21.5899 O   0  0  0  0  0  0  0  0  0  0  0  0
  -23.3714  -28.7314   23.0013 O   0  0  0  0  0  0  0  0  0  0  0  0
  -22.1663  -24.5955   24.1832 O   0  0  0  0  0  0  0  0  0  0  0  0
  -26.6703  -23.1359   23.8616 O   0  0  0  0  0  0  0  0  0  0  0  0
  -25.1146  -10.3799   19.5221 O   0  0  0  0  0  0  0  0  0  0  0  0
  -28.4650  -28.4888   20.0568 O   0  0  0  0  0  0  0  0  0  1  0  0
  -21.1675   -8.5921   22.9321 F   0  0  0  0  0  0  0  0  0  0  0  0
  -25.7150   -9.6174   22.1107 F   0  0  0  0  0  0  0  0  0  0  0  0
  1  2  1  0  0  0  0
  1  7  2  0  0  0  0
  2  8  2  0  0  0  0
  3  6  1  0  0  0  0
  3 10  2  0  0  0  0
  4 11  2  0  0  0  0
  4 19  1  0  0  0  0
  5 12  1  0  0  0  0
  5 19  2  0  0  0  0
  6 20  2  0  0  0  0
  7 22  1  0  0  0  0
  8 24  1  0  0  0  0
  9 13  2  0  0  0  0
  9 23  1  0  0  0  0
 10 26  1  0  0  0  0
 11 27  1  0  0  0  0
 12 27  2  0  0  0  0
 13 28  1  0  0  0  0
 14 15  2  0  0  0  0
 14 29  1  0  0  0  0
 15 30  1  0  0  0  0
 16 20  1  0  0  0  0
 16 26  2  0  0  0  0
 17 25  1  0  0  0  0
 17 28  2  0  0  0  0
 18 30  2  0  0  0  0
 18 31  1  0  0  0  0
 19 32  1  0  0  0  0
 20 34  1  0  0  0  0
 21 32  1  0  0  0  0
 21 33  2  0  0  0  0
 21 37  1  0  0  0  0
 22 24  2  0  0  0  0
 22 43  1  0  0  0  0
 23 25  2  0  0  0  0
 23 44  1  0  0  0  0
 24 52  1  0  0  0  0
 25 45  1  0  0  0  0
 26 61  1  0  0  0  0
 27 81  1  0  0  0  0
 28 82  1  0  0  0  0
 29 31  2  0  0  0  0
 29 81  1  0  0  0  0
 30 83  1  0  0  0  0
 31 84  1  0  0  0  0
 32 67  2  0  0  0  0
 33 68  1  0  0  0  0
 33 71  1  0  0  0  0
 34 35  2  0  0  0  0
 35 39  1  0  0  0  0
 36 38  2  0  0  0  0
 36 62  1  0  0  0  0
 37 72  1  0  0  0  0
 37 76  2  0  0  0  0
 38 55  1  0  0  0  0
 38 63  1  0  0  0  0
 39 69  1  0  0  0  0
 39 77  2  0  0  0  0
 40 53  1  0  0  0  0
 40 73  1  0  0  0  0
 40 78  2  0  0  0  0
 41 64  1  0  0  0  0
 41 70  1  0  0  0  0
 41 79  2  0  0  0  0
 42 65  1  0  0  0  0
 42 74  1  0  0  0  0
 42 80  2  0  0  0  0
 43 46  1  0  0  0  0
 44 53  1  0  0  0  0
 45 70  1  0  0  0  0
 46 48  1  0  0  0  0
 47 49  1  0  0  0  0
 47 50  1  0  0  0  0
 48 52  1  0  0  0  0
 49 54  1  0  0  0  0
 50 69  1  0  0  0  0
 51 54  1  0  0  0  0
 51 69  1  0  0  0  0
 52 73  1  0  0  0  0
 53 70  1  0  0  0  0
 54 68  1  0  0  0  0
 56 65  1  0  0  0  0
 57 66  1  0  0  0  0
 58 66  1  0  0  0  0
 59 66  1  0  0  0  0
 60 75  1  0  0  0  0
 61 63  1  0  0  0  0
 62 82  1  0  0  0  0
 64 66  1  0  0  0  0
 64 74  1  0  0  0  0
 65 75  1  0  0  0  0
 67 68  1  0  0  0  0
M  CHG  1  75   1
M  ISO  4  35 100  39 100  62 101  82 101
M  END
> <Batch ID>
0129

> <Smiles>
CNC(C)C(=O)NC(C(=O)N1Cc2cc([101O:1][101CH2:1]C=C(C)CCc3cccc(C=[100CH:0][100C:0](=O)N4CCCC(n5nc(-c6ccc(Oc7ccc(F)cc7F)cc6)c(C(N)=O)c5N)C4)c3)ccc2CC1C(=O)NC1CCCc2ccccc21)C(C)(C)C

> <Shape>
0.260

> <Color>
0.074

> <Negative vol penalty>
0.000

$$$$

  -OEChem-04052302193D

 83 91  0     1  0  0  0  0  0999 V2000
  -24.5222  -35.2144   24.4604 C   0  0  0  0  0  0  0  0  0  0  0  0
  -24.0986  -33.8961   24.3266 C   0  0  0  0  0  0  0  0  0  0  0  0
  -24.3809   -9.4757   21.4615 C   0  0  0  0  0  0  0  0  0  0  0  0
  -24.8498  -10.5992   23.5484 C   0  0  0  0  0  0  0  0  0  0  0  0
  -25.4455  -35.7436   23.5596 C   0  0  0  0  0  0  0  0  0  0  0  0
  -24.5973  -33.1064   23.2911 C   0  0  0  0  0  0  0  0  0  0  0  0
  -25.7427  -27.0930   23.4709 C   0  0  0  0  0  0  0  0  0  0  0  0
  -29.7529  -19.6780   19.7670 C   0  0  0  0  0  0  0  0  0  0  0  0
  -24.0701   -8.3088   22.1595 C   0  0  0  0  0  0  0  0  0  0  0  0
  -24.5389   -9.4323   24.2464 C   0  0  0  0  0  0  0  0  0  0  0  0
  -25.0136  -25.9859   23.0389 C   0  0  0  0  0  0  0  0  0  0  0  0
  -21.4599   -7.0826   23.9248 C   0  0  0  0  0  0  0  0  0  0  0  0
  -29.7384  -21.0711   19.7006 C   0  0  0  0  0  0  0  0  0  0  0  0
  -20.3105   -6.3883   23.5476 C   0  0  0  0  0  0  0  0  0  0  0  0
  -27.5695  -19.7044   20.8009 C   0  0  0  0  0  0  0  0  0  0  0  0
  -26.2614  -25.9774   20.9744 C   0  0  0  0  0  0  0  0  0  0  0  0
  -21.6521   -4.4451   23.0365 C   0  0  0  0  0  0  0  0  0  0  0  0
  -24.7709  -10.6209   22.1559 C   0  0  0  0  0  0  0  0  0  0  0  0
  -27.5549  -21.0976   20.7346 C   0  0  0  0  0  0  0  0  0  0  0  0
  -24.2106  -12.8630   21.0757 C   0  0  0  0  0  0  0  0  0  0  0  0
  -25.9630  -34.9571   22.5183 C   0  0  0  0  0  0  0  0  0  0  0  0
  -26.7308  -27.6582   22.6520 C   0  0  0  0  0  0  0  0  0  0  0  0
  -25.5273  -33.6260   22.3747 C   0  0  0  0  0  0  0  0  0  0  0  0
  -27.0034  -27.0900   21.3994 C   0  0  0  0  0  0  0  0  0  0  0  0
  -28.6684  -18.9946   20.3171 C   0  0  0  0  0  0  0  0  0  0  0  0
  -24.1490   -8.2871   23.5520 C   0  0  0  0  0  0  0  0  0  0  0  0
  -25.2709  -25.4297   21.7893 C   0  0  0  0  0  0  0  0  0  0  0  0
  -22.7054   -6.4582   23.8579 C   0  0  0  0  0  0  0  0  0  0  0  0
  -20.4066   -5.0695   23.1034 C   0  0  0  0  0  0  0  0  0  0  0  0
  -28.6394  -21.7810   20.1845 C   0  0  0  0  0  0  0  0  0  0  0  0
  -22.8015   -5.1395   23.4137 C   0  0  0  0  0  0  0  0  0  0  0  0
  -25.0926  -11.8265   21.4354 C   0  0  0  0  0  0  0  0  0  0  0  0
  -24.9993  -13.7700   20.4112 C   0  0  0  0  0  0  0  0  0  0  0  0
  -22.7586  -21.4587   21.7555 C   0  0  0  0  0  0  0  0  0  0  0  0
  -26.3917  -21.8432   21.2475 C   0  0  0  0  0  0  0  0  0  0  0  0
  -25.1358  -21.3663   21.2804 C   0  0  0  0  0  0  0  0  0  0  0  0
  -22.8040  -12.9943   21.3206 C   0  0  0  0  0  0  0  0  0  0  0  0
  -23.9579  -22.0654   21.7869 C   0  0  0  0  0  0  0  0  0  0  0  0
  -27.1560  -30.4946   21.2816 C   0  0  0  0  0  0  0  0  0  0  0  0
  -30.0297  -29.2327   20.4619 C   0  0  0  0  0  0  0  0  0  0  0  0
  -31.9095  -26.4446   19.8790 C   0  0  0  0  0  0  0  0  0  0  0  0
  -29.6967  -16.7240   19.9514 C   0  0  0  0  0  0  0  0  0  0  0  0
  -26.9233  -35.5873   21.5409 C   0  0  0  0  0  0  0  0  0  0  0  0
  -27.5268  -28.8359   23.1437 C   0  0  0  0  0  0  0  0  0  0  0  0
  -28.0676  -27.6468   20.4907 C   0  0  0  0  0  0  0  0  0  0  0  0
  -27.6865  -34.5709   20.6955 C   0  0  0  0  0  0  0  0  0  0  0  0
  -29.7547  -13.3837   18.7202 C   0  0  0  0  0  0  0  0  0  0  0  0
  -26.7354  -33.5132   20.1446 C   0  0  0  0  0  0  0  0  0  0  0  0
  -28.4744  -12.7660   19.2873 C   0  0  0  0  0  0  0  0  0  0  0  0
  -30.4017  -14.3538   19.7071 C   0  0  0  0  0  0  0  0  0  0  0  0
  -28.2308  -14.7838   20.7893 C   0  0  0  0  0  0  0  0  0  0  0  0
  -26.0640  -32.7303   21.2793 C   0  0  1  0  0  0  0  0  0  0  0  0
  -28.1561  -29.6454   22.0140 C   0  0  1  0  0  0  0  0  0  0  0  0
  -27.5080  -13.8490   19.8058 C   0  0  2  0  0  0  0  0  0  0  0  0
  -34.2142  -25.7317   19.1880 C   0  0  0  0  0  0  0  0  0  0  0  0
  -29.3890  -29.9715   17.5717 C   0  0  0  0  0  0  0  0  0  0  0  0
  -31.2197  -28.4264   16.8442 C   0  0  0  0  0  0  0  0  0  0  0  0
  -31.7528  -30.4092   18.2608 C   0  0  0  0  0  0  0  0  0  0  0  0
  -32.3572  -25.0125   22.4300 C   0  0  0  0  0  0  0  0  0  0  0  0
  -24.0854  -23.4504   22.3661 C   0  0  0  0  0  0  0  0  0  1  0  0
  -30.5528  -28.4366   19.2908 C   0  0  1  0  0  0  0  0  0  0  0  0
  -33.2936  -26.0449   20.3573 C   0  0  2  0  0  0  0  0  0  0  0  0
  -30.7071  -29.3014   18.0080 C   0  0  0  0  0  0  0  0  0  0  0  0
  -26.3458  -12.0529   21.0325 N   0  0  0  0  0  0  0  0  0  0  0  0
  -26.2569  -13.2420   20.4128 N   0  0  0  0  0  0  0  0  0  0  0  0
  -28.8145  -28.8027   21.0137 N   0  0  0  0  0  0  0  0  0  0  0  0
  -29.4282  -15.3535   20.1518 N   0  0  0  0  0  0  0  0  0  0  0  0
  -24.7330  -14.9597   19.8314 N   0  0  0  0  0  0  0  0  0  0  0  0
  -22.1488  -11.9703   22.0181 N   0  0  0  0  0  0  0  0  0  0  0  0
  -28.6843  -17.5793   20.3852 N   0  0  0  0  0  0  0  0  0  0  0  0
  -26.9780  -31.7514   21.8277 N   0  0  0  0  0  0  0  0  0  0  0  0
  -31.7912  -27.8116   19.7427 N   0  0  0  0  0  0  0  0  0  0  0  0
  -33.2124  -24.8380   21.2278 N   0  3  0  0  0  0  0  0  0  0  0  0
  -22.1443  -13.9823   20.9179 O   0  0  0  0  0  0  0  0  0  0  0  0
  -26.5889  -30.0435   20.2934 O   0  0  0  0  0  0  0  0  0  0  0  0
  -30.6789  -30.1961   20.8766 O   0  0  0  0  0  0  0  0  0  0  0  0
  -31.0231  -25.6258   19.6459 O   0  0  0  0  0  0  0  0  0  0  0  0
  -30.7354  -17.1093   19.4085 O   0  0  0  0  0  0  0  0  0  0  0  0
  -23.8456   -7.1487   24.2335 O   0  0  0  0  0  0  0  0  0  0  0  0
  -24.5603  -24.3495   21.3649 O   0  0  0  0  0  0  0  0  0  1  0  0
  -19.3025   -4.4023   22.7427 F   0  0  0  0  0  0  0  0  0  0  0  0
  -28.6407  -23.1202   20.1140 F   0  0  0  0  0  0  0  0  0  0  0  0
  -23.9952   -4.5339   23.3484 F   0  0  0  0  0  0  0  0  0  0  0  0
  1  2  1  0  0  0  0
  1  5  2  0  0  0  0
  2  6  2  0  0  0  0
  3  9  2  0  0  0  0
  3 18  1  0  0  0  0
  4 10  1  0  0  0  0
  4 18  2  0  0  0  0
  5 21  1  0  0  0  0
  6 23  1  0  0  0  0
  7 11  2  0  0  0  0
  7 22  1  0  0  0  0
  8 13  2  0  0  0  0
  8 25  1  0  0  0  0
  9 26  1  0  0  0  0
 10 26  2  0  0  0  0
 11 27  1  0  0  0  0
 12 14  2  0  0  0  0
 12 28  1  0  0  0  0
 13 30  1  0  0  0  0
 14 29  1  0  0  0  0
 15 19  1  0  0  0  0
 15 25  2  0  0  0  0
 16 24  1  0  0  0  0
 16 27  2  0  0  0  0
 17 29  2  0  0  0  0
 17 31  1  0  0  0  0
 18 32  1  0  0  0  0
 19 30  2  0  0  0  0
 19 35  1  0  0  0  0
 20 32  1  0  0  0  0
 20 33  2  0  0  0  0
 20 37  1  0  0  0  0
 21 23  2  0  0  0  0
 21 43  1  0  0  0  0
 22 24  2  0  0  0  0
 22 44  1  0  0  0  0
 23 52  1  0  0  0  0
 24 45  1  0  0  0  0
 25 70  1  0  0  0  0
 26 79  1  0  0  0  0
 27 80  1  0  0  0  0
 28 31  2  0  0  0  0
 28 79  1  0  0  0  0
 29 81  1  0  0  0  0
 30 82  1  0  0  0  0
 31 83  1  0  0  0  0
 32 64  2  0  0  0  0
 33 65  1  0  0  0  0
 33 68  1  0  0  0  0
 34 38  2  0  0  0  0
 35 36  2  0  0  0  0
 36 38  1  0  0  0  0
 37 69  1  0  0  0  0
 37 74  2  0  0  0  0
 38 60  1  0  0  0  0
 39 53  1  0  0  0  0
 39 71  1  0  0  0  0
 39 75  2  0  0  0  0
 40 61  1  0  0  0  0
 40 66  1  0  0  0  0
 40 76  2  0  0  0  0
 41 62  1  0  0  0  0
 41 72  1  0  0  0  0
 41 77  2  0  0  0  0
 42 67  1  0  0  0  0
 42 70  1  0  0  0  0
 42 78  2  0  0  0  0
 43 46  1  0  0  0  0
 44 53  1  0  0  0  0
 45 66  1  0  0  0  0
 46 48  1  0  0  0  0
 47 49  1  0  0  0  0
 47 50  1  0  0  0  0
 48 52  1  0  0  0  0
 49 54  1  0  0  0  0
 50 67  1  0  0  0  0
 51 54  1  0  0  0  0
 51 67  1  0  0  0  0
 52 71  1  0  0  0  0
 53 66  1  0  0  0  0
 54 65  1  0  0  0  0
 55 62  1  0  0  0  0
 56 63  1  0  0  0  0
 57 63  1  0  0  0  0
 58 63  1  0  0  0  0
 59 73  1  0  0  0  0
 60 80  1  0  0  0  0
 61 63  1  0  0  0  0
 61 72  1  0  0  0  0
 62 73  1  0  0  0  0
 64 65  1  0  0  0  0
M  CHG  1  73   1
M  ISO  4  42 100  60 101  70 100  80 101
M  END
> <Batch ID>
0129

> <Smiles>
C=C(C=Cc1cc([100NH:0][100C:0](=O)N2CCCC(n3nc(-c4ccc(Oc5ccc(F)cc5F)cc4)c(C(N)=O)c3N)C2)ccc1F)[101CH2:1][101O:1]c1ccc2c(c1)CN(C(=O)C(NC(=O)C(C)NC)C(C)(C)C)C(C(=O)NC1CCCc3ccccc31)C2

> <Shape>
0.273

> <Color>
0.115

> <Negative vol penalty>
0.000

$$$$

  -OEChem-04052302193D

 87 95  0     1  0  0  0  0  0999 V2000
  -19.2691  -24.2468   21.9513 C   0  0  0  0  0  0  0  0  0  0  0  0
  -20.2279  -24.7001   21.0509 C   0  0  0  0  0  0  0  0  0  0  0  0
  -25.9464  -13.3967   21.6377 C   0  0  0  0  0  0  0  0  0  0  0  0
  -26.1253  -13.0332   19.2559 C   0  0  0  0  0  0  0  0  0  0  0  0
  -18.6049  -25.1538   22.7760 C   0  0  0  0  0  0  0  0  0  0  0  0
  -20.5223  -26.0609   20.9739 C   0  0  0  0  0  0  0  0  0  0  0  0
  -25.5016  -26.9637   20.7826 C   0  0  0  0  0  0  0  0  0  0  0  0
  -24.7664  -12.6534   21.6626 C   0  0  0  0  0  0  0  0  0  0  0  0
  -24.9453  -12.2898   19.2808 C   0  0  0  0  0  0  0  0  0  0  0  0
  -26.1383  -26.7641   19.5584 C   0  0  0  0  0  0  0  0  0  0  0  0
  -23.9903   -9.1636   20.1383 C   0  0  0  0  0  0  0  0  0  0  0  0
  -23.9698   -7.9594   19.4347 C   0  0  0  0  0  0  0  0  0  0  0  0
  -28.3792  -25.3390   22.9890 C   0  0  0  0  0  0  0  0  0  0  0  0
  -29.1435  -25.0488   20.7156 C   0  0  0  0  0  0  0  0  0  0  0  0
  -26.0663  -29.1389   19.1406 C   0  0  0  0  0  0  0  0  0  0  0  0
  -22.1537   -8.7860   18.0727 C   0  0  0  0  0  0  0  0  0  0  0  0
  -26.6258  -13.5866   20.4344 C   0  0  0  0  0  0  0  0  0  0  0  0
  -28.6611  -24.5058   21.9065 C   0  0  0  0  0  0  0  0  0  0  0  0
  -29.1564  -13.8740   20.5797 C   0  0  0  0  0  0  0  0  0  0  0  0
  -18.8982  -26.5253   22.7158 C   0  0  0  0  0  0  0  0  0  0  0  0
  -25.1320  -28.2534   21.1907 C   0  0  0  0  0  0  0  0  0  0  0  0
  -19.8604  -26.9873   21.7976 C   0  0  0  0  0  0  0  0  0  0  0  0
  -25.4274  -29.3525   20.3716 C   0  0  0  0  0  0  0  0  0  0  0  0
  -28.5796  -26.7152   22.8807 C   0  0  0  0  0  0  0  0  0  0  0  0
  -24.2658  -12.0999   20.4841 C   0  0  0  0  0  0  0  0  0  0  0  0
  -26.4182  -27.8515   18.7359 C   0  0  0  0  0  0  0  0  0  0  0  0
  -23.0924  -10.1790   19.8091 C   0  0  0  0  0  0  0  0  0  0  0  0
  -29.3440  -26.4249   20.6072 C   0  0  0  0  0  0  0  0  0  0  0  0
  -29.0620  -27.2581   21.6898 C   0  0  0  0  0  0  0  0  0  0  0  0
  -23.0515   -7.7706   18.4019 C   0  0  0  0  0  0  0  0  0  0  0  0
  -22.1741   -9.9903   18.7763 C   0  0  0  0  0  0  0  0  0  0  0  0
  -27.8445  -14.3549   20.4080 C   0  0  0  0  0  0  0  0  0  0  0  0
  -29.9487  -14.9904   20.4680 C   0  0  0  0  0  0  0  0  0  0  0  0
  -28.4514  -23.0708   22.0195 C   0  0  0  0  0  0  0  0  0  0  0  0
  -29.0183  -22.1322   21.2321 C   0  0  0  0  0  0  0  0  0  0  0  0
  -29.6177  -12.5377   20.8188 C   0  0  0  0  0  0  0  0  0  0  0  0
  -28.7126  -20.7088   21.4800 C   0  0  0  0  0  0  0  0  0  0  0  0
  -22.3772  -29.6919   21.8580 C   0  0  0  0  0  0  0  0  0  0  0  0
  -24.3166  -32.1345   22.7495 C   0  0  0  0  0  0  0  0  0  0  0  0
  -27.3457  -33.6807   22.4654 C   0  0  0  0  0  0  0  0  0  0  0  0
  -18.1203  -27.4732   23.5940 C   0  0  0  0  0  0  0  0  0  0  0  0
  -24.4699  -28.4549   22.5261 C   0  0  0  0  0  0  0  0  0  0  0  0
  -25.0697  -30.7594   20.7728 C   0  0  0  0  0  0  0  0  0  0  0  0
  -18.7585  -28.8547   23.7142 C   0  0  0  0  0  0  0  0  0  0  0  0
  -30.1106  -19.2882   18.4045 C   0  0  0  0  0  0  0  0  0  0  0  0
  -19.1763  -29.3711   22.3411 C   0  0  0  0  0  0  0  0  0  0  0  0
  -29.7577  -17.8130   18.5755 C   0  0  0  0  0  0  0  0  0  0  0  0
  -29.0423  -20.2043   18.9995 C   0  0  0  0  0  0  0  0  0  0  0  0
  -28.3780  -18.4319   20.5988 C   0  0  0  0  0  0  0  0  0  0  0  0
  -20.2252  -28.4529   21.7021 C   0  0  1  0  0  0  0  0  0  0  0  0
  -23.6767  -29.7553   22.6097 C   0  0  1  0  0  0  0  0  0  0  0  0
  -29.4618  -17.4915   20.0490 C   0  0  1  0  0  0  0  0  0  0  0  0
  -28.2737  -27.5910   24.0507 C   0  0  0  0  0  0  0  0  0  0  0  0
  -30.5686  -30.6002   21.7419 C   0  0  0  0  0  0  0  0  0  0  0  0
  -29.1744  -35.3277   22.9560 C   0  0  0  0  0  0  0  0  0  0  0  0
  -28.1755  -29.2692   16.1704 C   0  0  0  0  0  0  0  0  0  0  0  0
  -22.7032  -33.9309   20.8841 C   0  0  0  0  0  0  0  0  0  0  0  0
  -24.5567  -35.6092   21.0107 C   0  0  0  0  0  0  0  0  0  0  0  0
  -23.3069  -34.9758   23.0745 C   0  0  0  0  0  0  0  0  0  0  0  0
  -28.4891  -31.9568   24.5819 C   0  0  0  0  0  0  0  0  0  0  0  0
  -29.3726  -27.2568   17.0979 C   0  0  0  0  0  0  0  0  0  0  0  0
  -30.5439  -29.1005   21.9462 C   0  0  0  0  0  0  0  0  0  0  0  0
  -29.4787  -26.2511   18.2393 C   0  0  0  0  0  0  0  0  0  0  0  0
  -24.9257  -33.3258   22.0504 C   0  0  1  0  0  0  0  0  0  0  0  0
  -28.3101  -34.2071   23.5129 C   0  0  2  0  0  0  0  0  0  0  0  0
  -28.2938  -28.3110   17.3479 C   0  0  2  0  0  0  0  0  0  1  0  0
  -23.8783  -34.4338   21.7462 C   0  0  0  0  0  0  0  0  0  0  0  0
  -27.8016  -15.6740   20.2029 N   0  0  0  0  0  0  0  0  0  0  0  0
  -29.0963  -16.0316   20.2451 N   0  0  0  0  0  0  0  0  0  0  0  0
  -28.7347  -19.8398   20.3906 N   0  0  0  0  0  0  0  0  0  0  0  0
  -24.4178  -30.9041   22.0850 N   0  0  0  0  0  0  0  0  0  0  0  0
  -31.2843  -15.1732   20.5397 N   0  0  0  0  0  0  0  0  0  0  0  0
  -28.6696  -11.5091   20.9053 N   0  0  0  0  0  0  0  0  0  0  0  0
  -21.5277  -28.6899   22.2866 N   0  0  0  0  0  0  0  0  0  0  0  0
  -26.0360  -33.7668   22.8878 N   0  0  0  0  0  0  0  0  0  0  0  0
  -29.2056  -33.1147   23.9880 N   0  3  0  0  0  0  0  0  0  0  0  0
  -30.8333  -12.2664   20.9680 O   0  0  0  0  0  0  0  0  0  0  0  0
  -28.4511  -20.3767   22.6376 O   0  0  0  0  0  0  0  0  0  0  0  0
  -22.1607  -30.4937   20.9570 O   0  0  0  0  0  0  0  0  0  0  0  0
  -23.7774  -32.2887   23.8482 O   0  0  0  0  0  0  0  0  0  0  0  0
  -27.7168  -33.2408   21.3794 O   0  0  0  0  0  0  0  0  0  0  0  0
  -23.1145  -11.3743   20.5080 O   0  0  0  0  0  0  0  0  0  0  0  0
  -29.8184  -26.9461   19.4319 O   0  0  0  0  0  0  0  0  0  0  0  0
  -29.2591  -28.6031   21.5798 O   0  0  0  0  0  0  0  0  0  0  0  0
  -27.0390  -27.6594   17.5403 O   0  0  0  0  0  0  0  0  0  1  0  0
  -23.0330   -6.6147   17.7253 F   0  0  0  0  0  0  0  0  0  0  0  0
  -21.3098  -10.9626   18.4547 F   0  0  0  0  0  0  0  0  0  0  0  0
  1  2  1  0  0  0  0
  1  5  2  0  0  0  0
  2  6  2  0  0  0  0
  3  8  2  0  0  0  0
  3 17  1  0  0  0  0
  4  9  1  0  0  0  0
  4 17  2  0  0  0  0
  5 20  1  0  0  0  0
  6 22  1  0  0  0  0
  7 10  2  0  0  0  0
  7 21  1  0  0  0  0
  8 25  1  0  0  0  0
  9 25  2  0  0  0  0
 10 26  1  0  0  0  0
 11 12  2  0  0  0  0
 11 27  1  0  0  0  0
 12 30  1  0  0  0  0
 13 18  1  0  0  0  0
 13 24  2  0  0  0  0
 14 18  2  0  0  0  0
 14 28  1  0  0  0  0
 15 23  1  0  0  0  0
 15 26  2  0  0  0  0
 16 30  2  0  0  0  0
 16 31  1  0  0  0  0
 17 32  1  0  0  0  0
 18 34  1  0  0  0  0
 19 32  1  0  0  0  0
 19 33  2  0  0  0  0
 19 36  1  0  0  0  0
 20 22  2  0  0  0  0
 20 41  1  0  0  0  0
 21 23  2  0  0  0  0
 21 42  1  0  0  0  0
 22 50  1  0  0  0  0
 23 43  1  0  0  0  0
 24 29  1  0  0  0  0
 24 53  1  0  0  0  0
 25 82  1  0  0  0  0
 26 85  1  0  0  0  0
 27 31  2  0  0  0  0
 27 82  1  0  0  0  0
 28 29  2  0  0  0  0
 28 83  1  0  0  0  0
 29 84  1  0  0  0  0
 30 86  1  0  0  0  0
 31 87  1  0  0  0  0
 32 68  2  0  0  0  0
 33 69  1  0  0  0  0
 33 72  1  0  0  0  0
 34 35  2  0  0  0  0
 35 37  1  0  0  0  0
 36 73  1  0  0  0  0
 36 77  2  0  0  0  0
 37 70  1  0  0  0  0
 37 78  2  0  0  0  0
 38 51  1  0  0  0  0
 38 74  1  0  0  0  0
 38 79  2  0  0  0  0
 39 64  1  0  0  0  0
 39 71  1  0  0  0  0
 39 80  2  0  0  0  0
 40 65  1  0  0  0  0
 40 75  1  0  0  0  0
 40 81  2  0  0  0  0
 41 44  1  0  0  0  0
 42 51  1  0  0  0  0
 43 71  1  0  0  0  0
 44 46  1  0  0  0  0
 45 47  1  0  0  0  0
 45 48  1  0  0  0  0
 46 50  1  0  0  0  0
 47 52  1  0  0  0  0
 48 70  1  0  0  0  0
 49 52  1  0  0  0  0
 49 70  1  0  0  0  0
 50 74  1  0  0  0  0
 51 71  1  0  0  0  0
 52 69  1  0  0  0  0
 54 62  1  0  0  0  0
 55 65  1  0  0  0  0
 56 66  1  0  0  0  0
 57 67  1  0  0  0  0
 58 67  1  0  0  0  0
 59 67  1  0  0  0  0
 60 76  1  0  0  0  0
 61 63  1  0  0  0  0
 61 66  1  0  0  0  0
 62 84  1  0  0  0  0
 63 83  1  0  0  0  0
 64 67  1  0  0  0  0
 64 75  1  0  0  0  0
 65 76  1  0  0  0  0
 66 85  1  0  0  0  0
 68 69  1  0  0  0  0
M  CHG  1  76   1
M  ISO  4  35 100  37 100  66 101  85 101
M  END
> <Batch ID>
0129

> <Smiles>
CCOc1c(C)cc(C=[100CH:0][100C:0](=O)N2CCCC(n3nc(-c4ccc(Oc5ccc(F)cc5F)cc4)c(C(N)=O)c3N)C2)cc1OCC[101CH:1](C)[101O:1]c1ccc2c(c1)CN(C(=O)C(NC(=O)C(C)NC)C(C)(C)C)C(C(=O)NC1CCCc3ccccc31)C2

> <Shape>
0.318

> <Color>
0.111

> <Negative vol penalty>
0.000

$$$$

  -OEChem-04052302193D

 83 91  0     1  0  0  0  0  0999 V2000
  -23.8839  -33.8158   13.5522 C   0  0  0  0  0  0  0  0  0  0  0  0
  -24.3530  -32.5950   14.0266 C   0  0  0  0  0  0  0  0  0  0  0  0
  -24.2232   -9.4858   22.1600 C   0  0  0  0  0  0  0  0  0  0  0  0
  -24.4806   -8.6908   19.8931 C   0  0  0  0  0  0  0  0  0  0  0  0
  -29.2386  -20.7261   19.3660 C   0  0  0  0  0  0  0  0  0  0  0  0
  -31.2852  -20.6881   20.6494 C   0  0  0  0  0  0  0  0  0  0  0  0
  -24.0835  -34.9759   14.2992 C   0  0  0  0  0  0  0  0  0  0  0  0
  -25.0230  -32.5339   15.2479 C   0  0  0  0  0  0  0  0  0  0  0  0
  -24.8338  -27.9691   19.3263 C   0  0  0  0  0  0  0  0  0  0  0  0
  -29.5164  -22.0318   18.9616 C   0  0  0  0  0  0  0  0  0  0  0  0
  -31.5631  -21.9938   20.2449 C   0  0  0  0  0  0  0  0  0  0  0  0
  -23.1290   -8.6383   22.3330 C   0  0  0  0  0  0  0  0  0  0  0  0
  -23.3863   -7.8433   20.0661 C   0  0  0  0  0  0  0  0  0  0  0  0
  -25.6970  -26.9050   19.5839 C   0  0  0  0  0  0  0  0  0  0  0  0
  -22.5923   -5.3566   22.9454 C   0  0  0  0  0  0  0  0  0  0  0  0
  -22.5254   -4.6172   24.1263 C   0  0  0  0  0  0  0  0  0  0  0  0
  -26.7437  -28.1868   21.3391 C   0  0  0  0  0  0  0  0  0  0  0  0
  -20.4245   -5.6784   24.6716 C   0  0  0  0  0  0  0  0  0  0  0  0
  -24.8990   -9.5121   20.9400 C   0  0  0  0  0  0  0  0  0  0  0  0
  -30.1229  -20.0542   20.2099 C   0  0  0  0  0  0  0  0  0  0  0  0
  -27.3817  -10.0936   21.0170 C   0  0  0  0  0  0  0  0  0  0  0  0
  -24.7478  -34.9275   15.5350 C   0  0  0  0  0  0  0  0  0  0  0  0
  -24.9264  -29.1562   20.0672 C   0  0  0  0  0  0  0  0  0  0  0  0
  -25.2329  -33.6947   16.0116 C   0  0  0  0  0  0  0  0  0  0  0  0
  -25.8788  -29.2636   21.0907 C   0  0  0  0  0  0  0  0  0  0  0  0
  -30.6786  -22.6656   19.4010 C   0  0  0  0  0  0  0  0  0  0  0  0
  -22.7105   -7.8170   21.2860 C   0  0  0  0  0  0  0  0  0  0  0  0
  -26.6541  -27.0148   20.5884 C   0  0  0  0  0  0  0  0  0  0  0  0
  -21.5754   -6.2570   22.6277 C   0  0  0  0  0  0  0  0  0  0  0  0
  -21.4415   -4.7781   24.9894 C   0  0  0  0  0  0  0  0  0  0  0  0
  -20.4915   -6.4178   23.4908 C   0  0  0  0  0  0  0  0  0  0  0  0
  -26.0291  -10.3878   20.7605 C   0  0  0  0  0  0  0  0  0  0  0  0
  -28.0521  -11.2463   20.6880 C   0  0  0  0  0  0  0  0  0  0  0  0
  -29.8334  -18.6927   20.6319 C   0  0  0  0  0  0  0  0  0  0  0  0
  -28.6168  -18.1079   20.6096 C   0  0  0  0  0  0  0  0  0  0  0  0
  -27.9787   -8.8864   21.5086 C   0  0  0  0  0  0  0  0  0  0  0  0
  -28.4857  -16.7086   21.0632 C   0  0  0  0  0  0  0  0  0  0  0  0
  -25.5646  -32.1911   19.3705 C   0  0  0  0  0  0  0  0  0  0  0  0
  -24.8119  -32.6591   22.4909 C   0  0  0  0  0  0  0  0  0  0  0  0
  -24.5485  -31.3569   25.6344 C   0  0  0  0  0  0  0  0  0  0  0  0
  -24.9814  -36.2152   16.2844 C   0  0  0  0  0  0  0  0  0  0  0  0
  -23.9703  -30.2849   19.7949 C   0  0  0  0  0  0  0  0  0  0  0  0
  -26.0059  -30.5089   21.9282 C   0  0  0  0  0  0  0  0  0  0  0  0
  -25.3713  -36.0074   17.7457 C   0  0  0  0  0  0  0  0  0  0  0  0
  -26.5068  -15.3946   18.2724 C   0  0  0  0  0  0  0  0  0  0  0  0
  -26.4494  -34.9347   17.8632 C   0  0  0  0  0  0  0  0  0  0  0  0
  -26.2799  -13.9548   18.7255 C   0  0  0  0  0  0  0  0  0  0  0  0
  -26.5366  -16.3668   19.4506 C   0  0  0  0  0  0  0  0  0  0  0  0
  -27.2951  -14.5535   20.9596 C   0  0  0  0  0  0  0  0  0  0  0  0
  -25.9425  -33.5839   17.3437 C   0  0  1  0  0  0  0  0  0  0  0  0
  -24.4932  -31.6380   20.2671 C   0  0  1  0  0  0  0  0  0  0  0  0
  -27.3084  -13.5520   19.7942 C   0  0  1  0  0  0  0  0  0  0  0  0
  -31.1764  -24.1443   17.4382 C   0  0  0  0  0  0  0  0  0  0  0  0
  -23.9439  -31.9924   27.9856 C   0  0  0  0  0  0  0  0  0  0  0  0
  -27.4998  -34.0701   22.7981 C   0  0  0  0  0  0  0  0  0  0  0  0
  -27.2633  -33.8302   25.2790 C   0  0  0  0  0  0  0  0  0  0  0  0
  -25.5999  -35.1730   23.9934 C   0  0  0  0  0  0  0  0  0  0  0  0
  -22.3156  -29.4159   25.7082 C   0  0  0  0  0  0  0  0  0  0  0  0
  -29.7955  -25.2303   20.9260 C   0  0  0  0  0  0  0  0  0  0  0  0
  -29.9065  -25.1032   19.3998 C   0  0  0  0  0  0  0  0  0  0  0  0
  -28.7949  -26.3031   21.3409 C   0  0  0  0  0  0  0  0  0  1  0  0
  -30.9817  -24.0867   18.9583 C   0  0  1  0  0  0  0  0  0  0  0  0
  -25.5824  -32.6531   23.7891 C   0  0  1  0  0  0  0  0  0  0  0  0
  -23.4372  -31.4318   26.6659 C   0  0  2  0  0  0  0  0  0  0  0  0
  -26.4855  -33.9087   23.9480 C   0  0  0  0  0  0  0  0  0  0  0  0
  -25.8492  -11.6300   20.3039 N   0  0  0  0  0  0  0  0  0  0  0  0
  -27.0975  -12.1267   20.2709 N   0  0  0  0  0  0  0  0  0  0  0  0
  -27.4850  -15.9291   20.4859 N   0  0  0  0  0  0  0  0  0  0  0  0
  -25.0523  -31.5873   21.6195 N   0  0  0  0  0  0  0  0  0  0  0  0
  -29.3592  -11.5827   20.7177 N   0  0  0  0  0  0  0  0  0  0  0  0
  -27.1444   -7.7976   21.7965 N   0  0  0  0  0  0  0  0  0  0  0  0
  -25.0838  -32.9552   18.3244 N   0  0  0  0  0  0  0  0  0  0  0  0
  -24.5940  -32.4897   24.8497 N   0  0  0  0  0  0  0  0  0  0  0  0
  -22.8717  -30.0760   26.9173 N   0  3  0  0  0  0  0  0  0  0  0  0
  -29.2135   -8.7818   21.7029 O   0  0  0  0  0  0  0  0  0  0  0  0
  -29.2684  -16.3164   21.9305 O   0  0  0  0  0  0  0  0  0  0  0  0
  -26.7406  -31.9443   19.6110 O   0  0  0  0  0  0  0  0  0  0  0  0
  -24.0204  -33.5770   22.2617 O   0  0  0  0  0  0  0  0  0  0  0  0
  -25.3032  -30.3918   25.5373 O   0  0  0  0  0  0  0  0  0  0  0  0
  -21.6430   -6.9897   21.4546 O   0  0  0  0  0  0  0  0  0  0  0  0
  -27.4983  -25.9779   20.8414 O   0  0  0  0  0  0  0  0  0  1  0  0
  -21.3766   -4.0668   26.1226 F   0  0  0  0  0  0  0  0  0  0  0  0
  -19.5110   -7.2804   23.1903 F   0  0  0  0  0  0  0  0  0  0  0  0
  1  2  1  0  0  0  0
  1  7  2  0  0  0  0
  2  8  2  0  0  0  0
  3 12  2  0  0  0  0
  3 19  1  0  0  0  0
  4 13  1  0  0  0  0
  4 19  2  0  0  0  0
  5 10  2  0  0  0  0
  5 20  1  0  0  0  0
  6 11  1  0  0  0  0
  6 20  2  0  0  0  0
  7 22  1  0  0  0  0
  8 24  1  0  0  0  0
  9 14  2  0  0  0  0
  9 23  1  0  0  0  0
 10 26  1  0  0  0  0
 11 26  2  0  0  0  0
 12 27  1  0  0  0  0
 13 27  2  0  0  0  0
 14 28  1  0  0  0  0
 15 16  2  0  0  0  0
 15 29  1  0  0  0  0
 16 30  1  0  0  0  0
 17 25  1  0  0  0  0
 17 28  2  0  0  0  0
 18 30  2  0  0  0  0
 18 31  1  0  0  0  0
 19 32  1  0  0  0  0
 20 34  1  0  0  0  0
 21 32  1  0  0  0  0
 21 33  2  0  0  0  0
 21 36  1  0  0  0  0
 22 24  2  0  0  0  0
 22 41  1  0  0  0  0
 23 25  2  0  0  0  0
 23 42  1  0  0  0  0
 24 50  1  0  0  0  0
 25 43  1  0  0  0  0
 26 62  1  0  0  0  0
 27 80  1  0  0  0  0
 28 81  1  0  0  0  0
 29 31  2  0  0  0  0
 29 80  1  0  0  0  0
 30 82  1  0  0  0  0
 31 83  1  0  0  0  0
 32 66  2  0  0  0  0
 33 67  1  0  0  0  0
 33 70  1  0  0  0  0
 34 35  2  0  0  0  0
 35 37  1  0  0  0  0
 36 71  1  0  0  0  0
 36 75  2  0  0  0  0
 37 68  1  0  0  0  0
 37 76  2  0  0  0  0
 38 51  1  0  0  0  0
 38 72  1  0  0  0  0
 38 77  2  0  0  0  0
 39 63  1  0  0  0  0
 39 69  1  0  0  0  0
 39 78  2  0  0  0  0
 40 64  1  0  0  0  0
 40 73  1  0  0  0  0
 40 79  2  0  0  0  0
 41 44  1  0  0  0  0
 42 51  1  0  0  0  0
 43 69  1  0  0  0  0
 44 46  1  0  0  0  0
 45 47  1  0  0  0  0
 45 48  1  0  0  0  0
 46 50  1  0  0  0  0
 47 52  1  0  0  0  0
 48 68  1  0  0  0  0
 49 52  1  0  0  0  0
 49 68  1  0  0  0  0
 50 72  1  0  0  0  0
 51 69  1  0  0  0  0
 52 67  1  0  0  0  0
 53 62  1  0  0  0  0
 54 64  1  0  0  0  0
 55 65  1  0  0  0  0
 56 65  1  0  0  0  0
 57 65  1  0  0  0  0
 58 74  1  0  0  0  0
 59 60  1  0  0  0  0
 59 61  1  0  0  0  0
 60 62  1  0  0  0  0
 61 81  1  0  0  0  0
 63 65  1  0  0  0  0
 63 73  1  0  0  0  0
 64 74  1  0  0  0  0
 66 67  1  0  0  0  0
M  CHG  1  74   1
M  ISO  4  35 100  37 100  61 101  81 101
M  END
> <Batch ID>
0129

> <Smiles>
CNC(C)C(=O)NC(C(=O)N1Cc2cc([101O:1][101CH2:1]CCC(C)c3ccc(C=[100CH:0][100C:0](=O)N4CCCC(n5nc(-c6ccc(Oc7ccc(F)cc7F)cc6)c(C(N)=O)c5N)C4)cc3)ccc2CC1C(=O)NC1CCCc2ccccc21)C(C)(C)C

> <Shape>
0.283

> <Color>
0.105

> <Negative vol penalty>
0.000

$$$$

  -OEChem-04052302193D

 85 93  0     1  0  0  0  0  0999 V2000
  -19.9466  -33.5113   19.2058 C   0  0  0  0  0  0  0  0  0  0  0  0
  -20.7674  -33.3759   20.3209 C   0  0  0  0  0  0  0  0  0  0  0  0
  -23.0791   -9.8189   20.3787 C   0  0  0  0  0  0  0  0  0  0  0  0
  -23.7901  -10.1960   22.6567 C   0  0  0  0  0  0  0  0  0  0  0  0
  -19.4000  -32.3795   18.6025 C   0  0  0  0  0  0  0  0  0  0  0  0
  -21.0412  -32.1086   20.8339 C   0  0  0  0  0  0  0  0  0  0  0  0
  -27.8100  -29.6972   21.3437 C   0  0  0  0  0  0  0  0  0  0  0  0
  -31.2464  -19.1012   19.7379 C   0  0  0  0  0  0  0  0  0  0  0  0
  -31.0891  -17.7312   19.9476 C   0  0  0  0  0  0  0  0  0  0  0  0
  -22.3373   -8.7128   20.7933 C   0  0  0  0  0  0  0  0  0  0  0  0
  -23.0482   -9.0899   23.0713 C   0  0  0  0  0  0  0  0  0  0  0  0
  -29.0897  -29.2470   21.6691 C   0  0  0  0  0  0  0  0  0  0  0  0
  -23.3716   -5.7245   23.0533 C   0  0  0  0  0  0  0  0  0  0  0  0
  -23.9781   -4.8316   23.9367 C   0  0  0  0  0  0  0  0  0  0  0  0
  -28.1635  -27.1635   22.4748 C   0  0  0  0  0  0  0  0  0  0  0  0
  -29.4181  -18.1812   21.6336 C   0  0  0  0  0  0  0  0  0  0  0  0
  -22.2398   -5.2570   25.5599 C   0  0  0  0  0  0  0  0  0  0  0  0
  -23.8055  -10.5605   21.3104 C   0  0  0  0  0  0  0  0  0  0  0  0
  -24.1341  -13.0379   20.7986 C   0  0  0  0  0  0  0  0  0  0  0  0
  -19.6751  -31.0969   19.1026 C   0  0  0  0  0  0  0  0  0  0  0  0
  -26.7024  -28.8751   21.5687 C   0  0  0  0  0  0  0  0  0  0  0  0
  -20.4967  -30.9586   20.2375 C   0  0  0  0  0  0  0  0  0  0  0  0
  -26.8805  -27.6041   22.1394 C   0  0  0  0  0  0  0  0  0  0  0  0
  -30.4896  -20.0112   20.4761 C   0  0  0  0  0  0  0  0  0  0  0  0
  -29.5755  -19.5512   21.4239 C   0  0  0  0  0  0  0  0  0  0  0  0
  -30.1749  -17.2712   20.8954 C   0  0  0  0  0  0  0  0  0  0  0  0
  -22.3218   -8.3483   22.1396 C   0  0  0  0  0  0  0  0  0  0  0  0
  -29.2659  -27.9834   22.2335 C   0  0  0  0  0  0  0  0  0  0  0  0
  -22.1992   -6.3837   23.4231 C   0  0  0  0  0  0  0  0  0  0  0  0
  -23.4122   -4.5978   25.1900 C   0  0  0  0  0  0  0  0  0  0  0  0
  -21.6333   -6.1499   24.6764 C   0  0  0  0  0  0  0  0  0  0  0  0
  -24.5725  -11.7028   20.8826 C   0  0  0  0  0  0  0  0  0  0  0  0
  -25.2290  -13.7308   20.3431 C   0  0  0  0  0  0  0  0  0  0  0  0
  -22.8518  -13.6014   21.1051 C   0  0  0  0  0  0  0  0  0  0  0  0
  -22.9835  -28.4478   21.3169 C   0  0  0  0  0  0  0  0  0  0  0  0
  -31.7325  -23.6421   21.0167 C   0  0  0  0  0  0  0  0  0  0  0  0
  -24.2438  -25.7619   20.5375 C   0  0  0  0  0  0  0  0  0  0  0  0
  -26.0309  -23.1132   19.3426 C   0  0  0  0  0  0  0  0  0  0  0  0
  -30.6837  -14.8428   20.4589 C   0  0  0  0  0  0  0  0  0  0  0  0
  -19.0232  -29.9063   18.4452 C   0  0  0  0  0  0  0  0  0  0  0  0
  -25.2997  -29.3430   21.2907 C   0  0  0  0  0  0  0  0  0  0  0  0
  -25.6565  -26.7679   22.3956 C   0  0  0  0  0  0  0  0  0  0  0  0
  -19.6650  -28.5741   18.8243 C   0  0  0  0  0  0  0  0  0  0  0  0
  -29.6348  -12.0741   18.4813 C   0  0  0  0  0  0  0  0  0  0  0  0
  -19.8836  -28.4967   20.3320 C   0  0  0  0  0  0  0  0  0  0  0  0
  -28.1882  -11.8405   18.9228 C   0  0  0  0  0  0  0  0  0  0  0  0
  -30.5228  -12.4989   19.6495 C   0  0  0  0  0  0  0  0  0  0  0  0
  -28.5825  -13.4147   20.8602 C   0  0  0  0  0  0  0  0  0  0  0  0
  -20.8371  -29.5990   20.8085 C   0  0  1  0  0  0  0  0  0  0  0  0
  -24.3733  -28.2155   20.8012 C   0  0  1  0  0  0  0  0  0  0  0  0
  -27.6359  -13.0479   19.7055 C   0  0  2  0  0  0  0  0  0  0  0  0
  -28.7530  -20.5068   22.2244 C   0  0  0  0  0  0  0  0  0  0  0  0
  -25.7402  -20.8100   18.3895 C   0  0  0  0  0  0  0  0  0  0  0  0
  -23.6306  -24.6893   23.3263 C   0  0  0  0  0  0  0  0  0  0  0  0
  -24.2870  -22.4125   22.5177 C   0  0  0  0  0  0  0  0  0  0  0  0
  -22.3486  -23.5915   21.4808 C   0  0  0  0  0  0  0  0  0  0  0  0
  -27.3339  -23.8760   16.7971 C   0  0  0  0  0  0  0  0  0  0  0  0
  -30.6781  -21.4883   20.2320 C   0  0  0  0  0  0  0  0  0  0  0  0
  -31.5392  -22.1625   21.2982 C   0  0  0  0  0  0  0  0  0  0  0  0
  -32.5613  -24.4205   22.0261 C   0  0  0  0  0  0  0  0  0  0  0  0
  -32.2072  -25.9022   22.1002 C   0  0  0  0  0  0  0  0  0  0  0  0
  -30.7508  -26.1418   22.4809 C   0  0  0  0  0  0  0  0  0  1  0  0
  -24.6948  -24.3969   20.9922 C   0  0  1  0  0  0  0  0  0  0  0  0
  -25.8873  -22.2906   18.0748 C   0  0  2  0  0  0  0  0  0  0  0  0
  -23.7584  -23.7944   22.0774 C   0  0  0  0  0  0  0  0  0  0  0  0
  -25.8465  -11.5540   20.5101 N   0  0  0  0  0  0  0  0  0  0  0  0
  -26.2180  -12.8046   20.1876 N   0  0  0  0  0  0  0  0  0  0  0  0
  -24.7360  -26.8610   21.2516 N   0  0  0  0  0  0  0  0  0  0  0  0
  -29.9389  -13.6502   20.3411 N   0  0  0  0  0  0  0  0  0  0  0  0
  -25.4326  -15.0359   20.0643 N   0  0  0  0  0  0  0  0  0  0  0  0
  -21.8387  -12.7475   21.5619 N   0  0  0  0  0  0  0  0  0  0  0  0
  -30.0133  -15.8795   21.1074 N   0  0  0  0  0  0  0  0  0  0  0  0
  -22.2075  -29.2494   20.5016 N   0  0  0  0  0  0  0  0  0  0  0  0
  -24.8133  -23.5836   19.7868 N   0  0  0  0  0  0  0  0  0  0  0  0
  -27.0829  -22.4692   17.2032 N   0  3  0  0  0  0  0  0  0  0  0  0
  -22.6067  -14.8233   20.9620 O   0  0  0  0  0  0  0  0  0  0  0  0
  -22.6387  -27.9367   22.3760 O   0  0  0  0  0  0  0  0  0  0  0  0
  -31.2538  -24.1613   20.0088 O   0  0  0  0  0  0  0  0  0  0  0  0
  -23.4716  -25.8537   19.5791 O   0  0  0  0  0  0  0  0  0  0  0  0
  -27.1144  -23.3149   19.8866 O   0  0  0  0  0  0  0  0  0  0  0  0
  -31.8213  -14.9461   19.9931 O   0  0  0  0  0  0  0  0  0  0  0  0
  -21.5979   -7.2692   22.5446 O   0  0  0  0  0  0  0  0  0  0  0  0
  -30.5184  -27.5483   22.5445 O   0  0  0  0  0  0  0  0  0  1  0  0
  -23.9939   -3.7392   26.0378 F   0  0  0  0  0  0  0  0  0  0  0  0
  -20.5065   -6.7793   25.0369 F   0  0  0  0  0  0  0  0  0  0  0  0
  1  2  1  0  0  0  0
  1  5  2  0  0  0  0
  2  6  2  0  0  0  0
  3 10  2  0  0  0  0
  3 18  1  0  0  0  0
  4 11  1  0  0  0  0
  4 18  2  0  0  0  0
  5 20  1  0  0  0  0
  6 22  1  0  0  0  0
  7 12  2  0  0  0  0
  7 21  1  0  0  0  0
  8  9  2  0  0  0  0
  8 24  1  0  0  0  0
  9 26  1  0  0  0  0
 10 27  1  0  0  0  0
 11 27  2  0  0  0  0
 12 28  1  0  0  0  0
 13 14  2  0  0  0  0
 13 29  1  0  0  0  0
 14 30  1  0  0  0  0
 15 23  1  0  0  0  0
 15 28  2  0  0  0  0
 16 25  1  0  0  0  0
 16 26  2  0  0  0  0
 17 30  2  0  0  0  0
 17 31  1  0  0  0  0
 18 32  1  0  0  0  0
 19 32  1  0  0  0  0
 19 33  2  0  0  0  0
 19 34  1  0  0  0  0
 20 22  2  0  0  0  0
 20 40  1  0  0  0  0
 21 23  2  0  0  0  0
 21 41  1  0  0  0  0
 22 49  1  0  0  0  0
 23 42  1  0  0  0  0
 24 25  2  0  0  0  0
 24 58  1  0  0  0  0
 25 52  1  0  0  0  0
 26 72  1  0  0  0  0
 27 82  1  0  0  0  0
 28 83  1  0  0  0  0
 29 31  2  0  0  0  0
 29 82  1  0  0  0  0
 30 84  1  0  0  0  0
 31 85  1  0  0  0  0
 32 66  2  0  0  0  0
 33 67  1  0  0  0  0
 33 70  1  0  0  0  0
 34 71  1  0  0  0  0
 34 76  2  0  0  0  0
 35 50  1  0  0  0  0
 35 73  1  0  0  0  0
 35 77  2  0  0  0  0
 36 59  1  0  0  0  0
 36 60  1  0  0  0  0
 36 78  2  0  0  0  0
 37 63  1  0  0  0  0
 37 68  1  0  0  0  0
 37 79  2  0  0  0  0
 38 64  1  0  0  0  0
 38 74  1  0  0  0  0
 38 80  2  0  0  0  0
 39 69  1  0  0  0  0
 39 72  1  0  0  0  0
 39 81  2  0  0  0  0
 40 43  1  0  0  0  0
 41 50  1  0  0  0  0
 42 68  1  0  0  0  0
 43 45  1  0  0  0  0
 44 46  1  0  0  0  0
 44 47  1  0  0  0  0
 45 49  1  0  0  0  0
 46 51  1  0  0  0  0
 47 69  1  0  0  0  0
 48 51  1  0  0  0  0
 48 69  1  0  0  0  0
 49 73  1  0  0  0  0
 50 68  1  0  0  0  0
 51 67  1  0  0  0  0
 53 64  1  0  0  0  0
 54 65  1  0  0  0  0
 55 65  1  0  0  0  0
 56 65  1  0  0  0  0
 57 75  1  0  0  0  0
 58 59  1  0  0  0  0
 60 61  1  0  0  0  0
 61 62  1  0  0  0  0
 62 83  1  0  0  0  0
 63 65  1  0  0  0  0
 63 74  1  0  0  0  0
 64 75  1  0  0  0  0
 66 67  1  0  0  0  0
M  CHG  1  75   1
M  ISO  4  39 100  62 101  72 100  83 101
M  END
> <Batch ID>
0129

> <Smiles>
CNC(C)C(=O)NC(C(=O)N1Cc2cc([101O:1][101CH2:1]CCC(=O)CCc3ccc([100NH:0][100C:0](=O)N4CCCC(n5nc(-c6ccc(Oc7ccc(F)cc7F)cc6)c(C(N)=O)c5N)C4)cc3C)ccc2CC1C(=O)NC1CCCc2ccccc21)C(C)(C)C

> <Shape>
0.250

> <Color>
0.188

> <Negative vol penalty>
0.000

$$$$

  -OEChem-04052302193D

 84 92  0     1  0  0  0  0  0999 V2000
  -25.0021   -5.9442   23.2045 C   0  0  0  0  0  0  0  0  0  0  0  0
  -26.1426   -6.6382   22.8131 C   0  0  0  0  0  0  0  0  0  0  0  0
  -23.0355  -30.8178   21.0440 C   0  0  0  0  0  0  0  0  0  0  0  0
  -22.7240  -28.8820   22.4556 C   0  0  0  0  0  0  0  0  0  0  0  0
  -23.7403   -6.4356   22.8725 C   0  0  0  0  0  0  0  0  0  0  0  0
  -26.0218   -7.8235   22.0886 C   0  0  0  0  0  0  0  0  0  0  0  0
  -29.2321  -14.1625   21.1790 C   0  0  0  0  0  0  0  0  0  0  0  0
  -21.6591  -30.8811   20.8270 C   0  0  0  0  0  0  0  0  0  0  0  0
  -21.3476  -28.9453   22.2387 C   0  0  0  0  0  0  0  0  0  0  0  0
  -29.7308  -14.9819   20.1673 C   0  0  0  0  0  0  0  0  0  0  0  0
  -18.7289  -30.7529   23.3768 C   0  0  0  0  0  0  0  0  0  0  0  0
  -17.8925  -30.6044   24.4832 C   0  0  0  0  0  0  0  0  0  0  0  0
  -29.3019  -22.3605   20.4587 C   0  0  0  0  0  0  0  0  0  0  0  0
  -27.4979  -15.7770   19.7189 C   0  0  0  0  0  0  0  0  0  0  0  0
  -28.0429  -22.7291   22.4875 C   0  0  0  0  0  0  0  0  0  0  0  0
  -16.8791  -28.6661   23.4568 C   0  0  0  0  0  0  0  0  0  0  0  0
  -23.5680  -29.8182   21.8582 C   0  0  0  0  0  0  0  0  0  0  0  0
  -29.1810  -20.9820   20.6341 C   0  0  0  0  0  0  0  0  0  0  0  0
  -25.7190  -30.3825   23.1081 C   0  0  0  0  0  0  0  0  0  0  0  0
  -23.6037   -7.6325   22.1519 C   0  0  0  0  0  0  0  0  0  0  0  0
  -27.8588  -14.1360   21.4615 C   0  0  0  0  0  0  0  0  0  0  0  0
  -24.7569   -8.3306   21.7455 C   0  0  0  0  0  0  0  0  0  0  0  0
  -26.9846  -14.9582   20.7364 C   0  0  0  0  0  0  0  0  0  0  0  0
  -27.9219  -21.3506   22.6629 C   0  0  0  0  0  0  0  0  0  0  0  0
  -28.4910  -20.4771   21.7362 C   0  0  0  0  0  0  0  0  0  0  0  0
  -28.7330  -23.2341   21.3855 C   0  0  0  0  0  0  0  0  0  0  0  0
  -20.8151  -29.9449   21.4244 C   0  0  0  0  0  0  0  0  0  0  0  0
  -28.8633  -15.7872   19.4351 C   0  0  0  0  0  0  0  0  0  0  0  0
  -18.6403  -29.8581   22.3104 C   0  0  0  0  0  0  0  0  0  0  0  0
  -16.9676  -29.5610   24.5231 C   0  0  0  0  0  0  0  0  0  0  0  0
  -17.7155  -28.8147   22.3504 C   0  0  0  0  0  0  0  0  0  0  0  0
  -24.9898  -29.7520   22.0822 C   0  0  0  0  0  0  0  0  0  0  0  0
  -27.0213  -30.0082   22.8836 C   0  0  0  0  0  0  0  0  0  0  0  0
  -29.7943  -20.0884   19.6374 C   0  0  0  0  0  0  0  0  0  0  0  0
  -29.5075  -20.0779   18.3261 C   0  0  0  0  0  0  0  0  0  0  0  0
  -25.2602  -31.2306   24.1692 C   0  0  0  0  0  0  0  0  0  0  0  0
  -25.5917  -11.9100   21.3660 C   0  0  0  0  0  0  0  0  0  0  0  0
  -23.7856  -14.2464   22.7082 C   0  0  0  0  0  0  0  0  0  0  0  0
  -23.2722  -17.5825   23.2121 C   0  0  0  0  0  0  0  0  0  0  0  0
  -29.5056  -25.3003   20.1689 C   0  0  0  0  0  0  0  0  0  0  0  0
  -22.2199   -8.0994   21.7754 C   0  0  0  0  0  0  0  0  0  0  0  0
  -27.3402  -13.2665   22.5739 C   0  0  0  0  0  0  0  0  0  0  0  0
  -25.5045  -14.9816   21.0140 C   0  0  0  0  0  0  0  0  0  0  0  0
  -22.1697   -9.5585   21.3295 C   0  0  0  0  0  0  0  0  0  0  0  0
  -29.9954  -28.7315   19.3539 C   0  0  0  0  0  0  0  0  0  0  0  0
  -23.2911   -9.8526   20.3382 C   0  0  0  0  0  0  0  0  0  0  0  0
  -28.8372  -29.4407   20.0594 C   0  0  0  0  0  0  0  0  0  0  0  0
  -29.5742  -27.3721   18.7985 C   0  0  0  0  0  0  0  0  0  0  0  0
  -27.7805  -27.1832   20.4767 C   0  0  0  0  0  0  0  0  0  0  0  0
  -24.6664   -9.6328   20.9799 C   0  0  1  0  0  0  0  0  0  0  0  0
  -25.8578  -12.9353   22.4317 C   0  0  1  0  0  0  0  0  0  0  0  0
  -28.1734  -28.5282   21.1093 C   0  0  2  0  0  0  0  0  0  0  0  0
  -27.1776  -20.8368   23.8518 C   0  0  0  0  0  0  0  0  0  0  0  0
  -28.3544  -18.9992   21.9351 C   0  0  0  0  0  0  0  0  0  0  0  0
  -22.2239  -19.6619   24.1473 C   0  0  0  0  0  0  0  0  0  0  0  0
  -21.7661  -13.8010   20.4647 C   0  0  0  0  0  0  0  0  0  0  0  0
  -20.7299  -16.0024   21.0549 C   0  0  0  0  0  0  0  0  0  0  0  0
  -20.7543  -14.1497   22.7250 C   0  0  0  0  0  0  0  0  0  0  0  0
  -25.0559  -17.5591   25.5737 C   0  0  0  0  0  0  0  0  0  0  0  0
  -30.1636  -19.1490   17.3441 C   0  0  0  0  0  0  0  0  0  0  0  0
  -29.1418  -18.2164   16.6964 C   0  0  0  0  0  0  0  0  0  0  0  0
  -28.4020  -17.3864   17.7364 C   0  0  0  0  0  0  0  0  0  1  0  0
  -22.9085  -15.3559   22.1803 C   0  0  1  0  0  0  0  0  0  0  0  0
  -22.9695  -18.3763   24.4702 C   0  0  2  0  0  0  0  0  0  0  0  0
  -21.5673  -14.8256   21.5995 C   0  0  0  0  0  0  0  0  0  0  0  0
  -25.7645  -29.0319   21.2666 N   0  0  0  0  0  0  0  0  0  0  0  0
  -26.9941  -29.2077   21.7797 N   0  0  0  0  0  0  0  0  0  0  0  0
  -25.0449  -14.1092   22.1073 N   0  0  0  0  0  0  0  0  0  0  0  0
  -28.9574  -26.5608   19.8503 N   0  0  0  0  0  0  0  0  0  0  0  0
  -28.1757  -30.2891   23.5247 N   0  0  0  0  0  0  0  0  0  0  0  0
  -23.8901  -31.5135   24.2535 N   0  0  0  0  0  0  0  0  0  0  0  0
  -28.8550  -24.6345   21.2072 N   0  0  0  0  0  0  0  0  0  0  0  0
  -25.0089  -10.7485   21.8358 N   0  0  0  0  0  0  0  0  0  0  0  0
  -22.7509  -16.3075   23.2749 N   0  0  0  0  0  0  0  0  0  0  0  0
  -24.2334  -18.7305   25.1758 N   0  3  0  0  0  0  0  0  0  0  0  0
  -26.0442  -31.7364   25.0077 O   0  0  0  0  0  0  0  0  0  0  0  0
  -25.8916  -12.1552   20.2034 O   0  0  0  0  0  0  0  0  0  0  0  0
  -23.3716  -13.5325   23.6250 O   0  0  0  0  0  0  0  0  0  0  0  0
  -23.9045  -18.0482   22.2667 O   0  0  0  0  0  0  0  0  0  0  0  0
  -30.4970  -24.8571   19.5836 O   0  0  0  0  0  0  0  0  0  0  0  0
  -19.4720  -30.0065   21.2131 O   0  0  0  0  0  0  0  0  0  0  0  0
  -29.3473  -16.5874   18.4466 O   0  0  0  0  0  0  0  0  0  1  0  0
  -16.1656  -29.4175   25.5863 F   0  0  0  0  0  0  0  0  0  0  0  0
  -17.6267  -27.9513   21.3294 F   0  0  0  0  0  0  0  0  0  0  0  0
  1  2  1  0  0  0  0
  1  5  2  0  0  0  0
  2  6  2  0  0  0  0
  3  8  2  0  0  0  0
  3 17  1  0  0  0  0
  4  9  1  0  0  0  0
  4 17  2  0  0  0  0
  5 20  1  0  0  0  0
  6 22  1  0  0  0  0
  7 10  2  0  0  0  0
  7 21  1  0  0  0  0
  8 27  1  0  0  0  0
  9 27  2  0  0  0  0
 10 28  1  0  0  0  0
 11 12  2  0  0  0  0
 11 29  1  0  0  0  0
 12 30  1  0  0  0  0
 13 18  1  0  0  0  0
 13 26  2  0  0  0  0
 14 23  1  0  0  0  0
 14 28  2  0  0  0  0
 15 24  2  0  0  0  0
 15 26  1  0  0  0  0
 16 30  2  0  0  0  0
 16 31  1  0  0  0  0
 17 32  1  0  0  0  0
 18 25  2  0  0  0  0
 18 34  1  0  0  0  0
 19 32  1  0  0  0  0
 19 33  2  0  0  0  0
 19 36  1  0  0  0  0
 20 22  2  0  0  0  0
 20 41  1  0  0  0  0
 21 23  2  0  0  0  0
 21 42  1  0  0  0  0
 22 50  1  0  0  0  0
 23 43  1  0  0  0  0
 24 25  1  0  0  0  0
 24 53  1  0  0  0  0
 25 54  1  0  0  0  0
 26 72  1  0  0  0  0
 27 81  1  0  0  0  0
 28 82  1  0  0  0  0
 29 31  2  0  0  0  0
 29 81  1  0  0  0  0
 30 83  1  0  0  0  0
 31 84  1  0  0  0  0
 32 66  2  0  0  0  0
 33 67  1  0  0  0  0
 33 70  1  0  0  0  0
 34 35  2  0  0  0  0
 35 60  1  0  0  0  0
 36 71  1  0  0  0  0
 36 76  2  0  0  0  0
 37 51  1  0  0  0  0
 37 73  1  0  0  0  0
 37 77  2  0  0  0  0
 38 63  1  0  0  0  0
 38 68  1  0  0  0  0
 38 78  2  0  0  0  0
 39 64  1  0  0  0  0
 39 74  1  0  0  0  0
 39 79  2  0  0  0  0
 40 69  1  0  0  0  0
 40 72  1  0  0  0  0
 40 80  2  0  0  0  0
 41 44  1  0  0  0  0
 42 51  1  0  0  0  0
 43 68  1  0  0  0  0
 44 46  1  0  0  0  0
 45 47  1  0  0  0  0
 45 48  1  0  0  0  0
 46 50  1  0  0  0  0
 47 52  1  0  0  0  0
 48 69  1  0  0  0  0
 49 52  1  0  0  0  0
 49 69  1  0  0  0  0
 50 73  1  0  0  0  0
 51 68  1  0  0  0  0
 52 67  1  0  0  0  0
 55 64  1  0  0  0  0
 56 65  1  0  0  0  0
 57 65  1  0  0  0  0
 58 65  1  0  0  0  0
 59 75  1  0  0  0  0
 60 61  1  0  0  0  0
 61 62  1  0  0  0  0
 62 82  1  0  0  0  0
 63 65  1  0  0  0  0
 63 74  1  0  0  0  0
 64 75  1  0  0  0  0
 66 67  1  0  0  0  0
M  CHG  1  75   1
M  ISO  4  40 100  62 101  72 100  82 101
M  END
> <Batch ID>
0129

> <Smiles>
CNC(C)C(=O)NC(C(=O)N1Cc2cc([101O:1][101CH2:1]CCC=Cc3cc([100NH:0][100C:0](=O)N4CCCC(n5nc(-c6ccc(Oc7ccc(F)cc7F)cc6)c(C(N)=O)c5N)C4)cc(C)c3C)ccc2CC1C(=O)NC1CCCc2ccccc21)C(C)(C)C

> <Shape>
0.293

> <Color>
0.062

> <Negative vol penalty>
0.000

$$$$

  -OEChem-04052302193D

 84 92  0     1  0  0  0  0  0999 V2000
  -29.5766  -34.7035   23.6818 C   0  0  0  0  0  0  0  0  0  0  0  0
  -29.4080  -33.3333   23.5098 C   0  0  0  0  0  0  0  0  0  0  0  0
  -23.5883  -10.0194   22.1820 C   0  0  0  0  0  0  0  0  0  0  0  0
  -23.5929   -9.5233   19.8175 C   0  0  0  0  0  0  0  0  0  0  0  0
  -31.4971  -19.0565   18.8068 C   0  0  0  0  0  0  0  0  0  0  0  0
  -28.4787  -35.5070   23.9868 C   0  0  0  0  0  0  0  0  0  0  0  0
  -28.1414  -32.7656   23.6438 C   0  0  0  0  0  0  0  0  0  0  0  0
  -27.1006  -29.4471   19.9629 C   0  0  0  0  0  0  0  0  0  0  0  0
  -31.4931  -17.6790   18.5877 C   0  0  0  0  0  0  0  0  0  0  0  0
  -22.6900   -8.9748   22.3995 C   0  0  0  0  0  0  0  0  0  0  0  0
  -22.6946   -8.4786   20.0350 C   0  0  0  0  0  0  0  0  0  0  0  0
  -27.6719  -28.1797   20.0680 C   0  0  0  0  0  0  0  0  0  0  0  0
  -22.8019   -5.6046   22.6490 C   0  0  0  0  0  0  0  0  0  0  0  0
  -23.0520   -4.7470   23.7202 C   0  0  0  0  0  0  0  0  0  0  0  0
  -29.5757  -19.2922   17.3612 C   0  0  0  0  0  0  0  0  0  0  0  0
  -25.5886  -27.3185   20.9266 C   0  0  0  0  0  0  0  0  0  0  0  0
  -20.9263   -5.3486   24.6982 C   0  0  0  0  0  0  0  0  0  0  0  0
  -24.0397  -10.2938   20.8910 C   0  0  0  0  0  0  0  0  0  0  0  0
  -30.5384  -19.8631   18.1936 C   0  0  0  0  0  0  0  0  0  0  0  0
  -26.3732  -11.3034   20.6827 C   0  0  0  0  0  0  0  0  0  0  0  0
  -27.1964  -34.9502   24.1151 C   0  0  0  0  0  0  0  0  0  0  0  0
  -25.7701  -29.6624   20.3497 C   0  0  0  0  0  0  0  0  0  0  0  0
  -27.0255  -33.5622   23.9521 C   0  0  0  0  0  0  0  0  0  0  0  0
  -25.0020  -28.5890   20.8230 C   0  0  0  0  0  0  0  0  0  0  0  0
  -30.5304  -17.1081   17.7553 C   0  0  0  0  0  0  0  0  0  0  0  0
  -29.5717  -17.9146   17.1421 C   0  0  0  0  0  0  0  0  0  0  0  0
  -22.2431   -8.2044   21.3260 C   0  0  0  0  0  0  0  0  0  0  0  0
  -26.9168  -27.1158   20.5526 C   0  0  0  0  0  0  0  0  0  0  0  0
  -21.6140   -6.3343   22.6024 C   0  0  0  0  0  0  0  0  0  0  0  0
  -22.1142   -4.6190   24.7448 C   0  0  0  0  0  0  0  0  0  0  0  0
  -20.6762   -6.2063   23.6270 C   0  0  0  0  0  0  0  0  0  0  0  0
  -24.9673  -11.3731   20.6656 C   0  0  0  0  0  0  0  0  0  0  0  0
  -26.7839  -12.5861   20.4135 C   0  0  0  0  0  0  0  0  0  0  0  0
  -30.5425  -21.3172   18.4254 C   0  0  0  0  0  0  0  0  0  0  0  0
  -29.4982  -22.1364   18.2254 C   0  0  0  0  0  0  0  0  0  0  0  0
  -27.2312  -10.1795   20.9206 C   0  0  0  0  0  0  0  0  0  0  0  0
  -24.3353  -31.4532   22.5494 C   0  0  0  0  0  0  0  0  0  0  0  0
  -21.6380  -30.3883   21.0959 C   0  0  0  0  0  0  0  0  0  0  0  0
  -20.1260  -27.9959   19.1887 C   0  0  0  0  0  0  0  0  0  0  0  0
  -26.3733  -17.3117   17.4732 C   0  0  0  0  0  0  0  0  0  0  0  0
  -26.0479  -35.8520   24.4923 C   0  0  0  0  0  0  0  0  0  0  0  0
  -25.1605  -31.0299   20.2050 C   0  0  0  0  0  0  0  0  0  0  0  0
  -23.5631  -28.7632   21.2324 C   0  0  0  0  0  0  0  0  0  0  0  0
  -24.6769  -35.2269   24.2477 C   0  0  0  0  0  0  0  0  0  0  0  0
  -24.1687  -16.9124   20.2403 C   0  0  0  0  0  0  0  0  0  0  0  0
  -24.6381  -33.7989   24.7827 C   0  0  0  0  0  0  0  0  0  0  0  0
  -24.2913  -15.4294   20.5947 C   0  0  0  0  0  0  0  0  0  0  0  0
  -24.2469  -17.1407   18.7324 C   0  0  0  0  0  0  0  0  0  0  0  0
  -25.5556  -15.0740   18.4327 C   0  0  0  0  0  0  0  0  0  0  0  0
  -25.6633  -32.9128   24.0649 C   0  0  1  0  0  0  0  0  0  0  0  0
  -23.9523  -31.2444   21.1115 C   0  0  1  0  0  0  0  0  0  0  0  0
  -25.5385  -14.7991   19.9461 C   0  0  2  0  0  0  0  0  0  0  0  0
  -30.5460  -15.6310   17.5361 C   0  0  0  0  0  0  0  0  0  0  0  0
  -17.9043  -27.3799   18.1978 C   0  0  0  0  0  0  0  0  0  0  0  0
  -20.6707  -29.4715   23.8407 C   0  0  0  0  0  0  0  0  0  0  0  0
  -18.9558  -28.0584   22.6873 C   0  0  0  0  0  0  0  0  0  0  0  0
  -18.9124  -30.5379   22.4176 C   0  0  0  0  0  0  0  0  0  0  0  0
  -21.1905  -28.1231   16.4301 C   0  0  0  0  0  0  0  0  0  0  0  0
  -28.5311  -17.3258   16.2472 C   0  0  0  0  0  0  0  0  0  0  0  0
  -29.5478  -23.6162   18.4805 C   0  0  0  0  0  0  0  0  0  0  0  0
  -28.4809  -24.0406   19.4881 C   0  0  0  0  0  0  0  0  0  0  0  0
  -28.4972  -25.5449   19.7215 C   0  0  0  0  0  0  0  0  0  1  0  0
  -20.7261  -29.1984   21.2740 C   0  0  1  0  0  0  0  0  0  0  0  0
  -19.2250  -28.0990   17.9713 C   0  0  2  0  0  0  0  0  0  0  0  0
  -19.8439  -29.3134   22.5491 C   0  0  0  0  0  0  0  0  0  0  0  0
  -24.5151  -12.6029   20.4062 N   0  0  0  0  0  0  0  0  0  0  0  0
  -25.6435  -13.3177   20.2579 N   0  0  0  0  0  0  0  0  0  0  0  0
  -23.0142  -30.1206   21.0784 N   0  0  0  0  0  0  0  0  0  0  0  0
  -25.4531  -16.5198   18.1796 N   0  0  0  0  0  0  0  0  0  0  0  0
  -28.0058  -13.1482   20.2972 N   0  0  0  0  0  0  0  0  0  0  0  0
  -26.6439   -8.9340   21.1816 N   0  0  0  0  0  0  0  0  0  0  0  0
  -25.1741  -32.5314   22.7573 N   0  0  0  0  0  0  0  0  0  0  0  0
  -19.9692  -29.0748   20.0329 N   0  0  0  0  0  0  0  0  0  0  0  0
  -27.4923  -16.6457   16.9882 N   0  0  0  0  0  0  0  0  0  0  0  0
  -19.8905  -27.4960   16.7819 N   0  3  0  0  0  0  0  0  0  0  0  0
  -28.4815  -10.2804   20.9185 O   0  0  0  0  0  0  0  0  0  0  0  0
  -23.9008  -30.6932   23.4068 O   0  0  0  0  0  0  0  0  0  0  0  0
  -21.1470  -31.5128   20.9696 O   0  0  0  0  0  0  0  0  0  0  0  0
  -20.8896  -27.0509   19.3742 O   0  0  0  0  0  0  0  0  0  0  0  0
  -26.2126  -18.5235   17.2930 O   0  0  0  0  0  0  0  0  0  0  0  0
  -21.3667   -7.1848   21.5379 O   0  0  0  0  0  0  0  0  0  0  0  0
  -27.4722  -25.8778   20.6568 O   0  0  0  0  0  0  0  0  0  1  0  0
  -22.3539   -3.7942   25.7727 F   0  0  0  0  0  0  0  0  0  0  0  0
  -19.5326   -6.9038   23.5872 F   0  0  0  0  0  0  0  0  0  0  0  0
  1  2  1  0  0  0  0
  1  6  2  0  0  0  0
  2  7  2  0  0  0  0
  3 10  2  0  0  0  0
  3 18  1  0  0  0  0
  4 11  1  0  0  0  0
  4 18  2  0  0  0  0
  5  9  2  0  0  0  0
  5 19  1  0  0  0  0
  6 21  1  0  0  0  0
  7 23  1  0  0  0  0
  8 12  2  0  0  0  0
  8 22  1  0  0  0  0
  9 25  1  0  0  0  0
 10 27  1  0  0  0  0
 11 27  2  0  0  0  0
 12 28  1  0  0  0  0
 13 14  2  0  0  0  0
 13 29  1  0  0  0  0
 14 30  1  0  0  0  0
 15 19  2  0  0  0  0
 15 26  1  0  0  0  0
 16 24  1  0  0  0  0
 16 28  2  0  0  0  0
 17 30  2  0  0  0  0
 17 31  1  0  0  0  0
 18 32  1  0  0  0  0
 19 34  1  0  0  0  0
 20 32  1  0  0  0  0
 20 33  2  0  0  0  0
 20 36  1  0  0  0  0
 21 23  2  0  0  0  0
 21 41  1  0  0  0  0
 22 24  2  0  0  0  0
 22 42  1  0  0  0  0
 23 50  1  0  0  0  0
 24 43  1  0  0  0  0
 25 26  2  0  0  0  0
 25 53  1  0  0  0  0
 26 59  1  0  0  0  0
 27 81  1  0  0  0  0
 28 82  1  0  0  0  0
 29 31  2  0  0  0  0
 29 81  1  0  0  0  0
 30 83  1  0  0  0  0
 31 84  1  0  0  0  0
 32 66  2  0  0  0  0
 33 67  1  0  0  0  0
 33 70  1  0  0  0  0
 34 35  2  0  0  0  0
 35 60  1  0  0  0  0
 36 71  1  0  0  0  0
 36 76  2  0  0  0  0
 37 51  1  0  0  0  0
 37 72  1  0  0  0  0
 37 77  2  0  0  0  0
 38 63  1  0  0  0  0
 38 68  1  0  0  0  0
 38 78  2  0  0  0  0
 39 64  1  0  0  0  0
 39 73  1  0  0  0  0
 39 79  2  0  0  0  0
 40 69  1  0  0  0  0
 40 74  1  0  0  0  0
 40 80  2  0  0  0  0
 41 44  1  0  0  0  0
 42 51  1  0  0  0  0
 43 68  1  0  0  0  0
 44 46  1  0  0  0  0
 45 47  1  0  0  0  0
 45 48  1  0  0  0  0
 46 50  1  0  0  0  0
 47 52  1  0  0  0  0
 48 69  1  0  0  0  0
 49 52  1  0  0  0  0
 49 69  1  0  0  0  0
 50 72  1  0  0  0  0
 51 68  1  0  0  0  0
 52 67  1  0  0  0  0
 54 64  1  0  0  0  0
 55 65  1  0  0  0  0
 56 65  1  0  0  0  0
 57 65  1  0  0  0  0
 58 75  1  0  0  0  0
 59 74  1  0  0  0  0
 60 61  1  0  0  0  0
 61 62  1  0  0  0  0
 62 82  1  0  0  0  0
 63 65  1  0  0  0  0
 63 73  1  0  0  0  0
 64 75  1  0  0  0  0
 66 67  1  0  0  0  0
M  CHG  1  75   1
M  ISO  4  40 100  62 101  74 100  82 101
M  END
> <Batch ID>
0129

> <Smiles>
CNC(C)C(=O)NC(C(=O)N1Cc2cc([101O:1][101CH2:1]CCC=Cc3ccc(C)c(C[100NH:0][100C:0](=O)N4CCCC(n5nc(-c6ccc(Oc7ccc(F)cc7F)cc6)c(C(N)=O)c5N)C4)c3)ccc2CC1C(=O)NC1CCCc2ccccc21)C(C)(C)C

> <Shape>
0.295

> <Color>
0.110

> <Negative vol penalty>
0.000

$$$$

  -OEChem-04052302193D

 86 95  0     1  0  0  0  0  0999 V2000
  -25.3645  -37.4462   22.1243 C   0  0  0  0  0  0  0  0  0  0  0  0
  -26.1049  -36.3716   21.6421 C   0  0  0  0  0  0  0  0  0  0  0  0
  -24.1513   -9.5544   22.2493 C   0  0  0  0  0  0  0  0  0  0  0  0
  -24.6248   -8.5348   20.1107 C   0  0  0  0  0  0  0  0  0  0  0  0
  -30.3042  -20.1379   19.1789 C   0  0  0  0  0  0  0  0  0  0  0  0
  -24.4529  -37.2537   23.1616 C   0  0  0  0  0  0  0  0  0  0  0  0
  -25.9348  -35.1040   22.1977 C   0  0  0  0  0  0  0  0  0  0  0  0
  -26.2534  -29.7310   19.2762 C   0  0  0  0  0  0  0  0  0  0  0  0
  -30.7267  -21.3795   18.7040 C   0  0  0  0  0  0  0  0  0  0  0  0
  -22.9834   -8.7986   22.3510 C   0  0  0  0  0  0  0  0  0  0  0  0
  -23.4569   -7.7790   20.2125 C   0  0  0  0  0  0  0  0  0  0  0  0
  -27.2722  -28.7866   19.1578 C   0  0  0  0  0  0  0  0  0  0  0  0
  -22.1299   -5.6301   23.1665 C   0  0  0  0  0  0  0  0  0  0  0  0
  -21.8628   -5.0109   24.3875 C   0  0  0  0  0  0  0  0  0  0  0  0
  -32.1688  -20.0907   20.7145 C   0  0  0  0  0  0  0  0  0  0  0  0
  -26.3129  -27.5319   20.9812 C   0  0  0  0  0  0  0  0  0  0  0  0
  -19.7968   -6.2509   24.5644 C   0  0  0  0  0  0  0  0  0  0  0  0
  -24.9720   -9.4225   21.1291 C   0  0  0  0  0  0  0  0  0  0  0  0
  -31.0252  -19.4935   20.1842 C   0  0  0  0  0  0  0  0  0  0  0  0
  -27.4631   -9.8488   21.4763 C   0  0  0  0  0  0  0  0  0  0  0  0
  -24.2646  -35.9812   23.7236 C   0  0  0  0  0  0  0  0  0  0  0  0
  -25.2612  -29.5883   20.2568 C   0  0  0  0  0  0  0  0  0  0  0  0
  -25.0208  -34.8945   23.2444 C   0  0  0  0  0  0  0  0  0  0  0  0
  -25.2812  -28.4744   21.1083 C   0  0  0  0  0  0  0  0  0  0  0  0
  -31.8703  -21.9767   19.2343 C   0  0  0  0  0  0  0  0  0  0  0  0
  -32.5914  -21.3323   20.2395 C   0  0  0  0  0  0  0  0  0  0  0  0
  -22.6362   -7.9109   21.3327 C   0  0  0  0  0  0  0  0  0  0  0  0
  -27.3038  -27.6884   20.0122 C   0  0  0  0  0  0  0  0  0  0  0  0
  -21.2305   -6.5598   22.6445 C   0  0  0  0  0  0  0  0  0  0  0  0
  -20.6963   -5.3213   25.0864 C   0  0  0  0  0  0  0  0  0  0  0  0
  -20.0640   -6.8701   23.3434 C   0  0  0  0  0  0  0  0  0  0  0  0
  -26.1783  -10.2034   21.0231 C   0  0  0  0  0  0  0  0  0  0  0  0
  -28.2538  -10.9202   21.1397 C   0  0  0  0  0  0  0  0  0  0  0  0
  -30.6402  -26.3671   19.9770 C   0  0  0  0  0  0  0  0  0  0  0  0
  -30.5843  -18.1990   20.6797 C   0  0  0  0  0  0  0  0  0  0  0  0
  -29.5873  -27.1853   20.0658 C   0  0  0  0  0  0  0  0  0  1  0  0
  -29.3390  -17.6937   20.5504 C   0  0  0  0  0  0  0  0  0  0  0  0
  -27.9025   -8.6574   22.1421 C   0  0  0  0  0  0  0  0  0  0  0  0
  -29.0482  -16.3546   21.1009 C   0  0  0  0  0  0  0  0  0  0  0  0
  -24.3306  -31.2956   22.7714 C   0  0  0  0  0  0  0  0  0  0  0  0
  -21.9598  -29.0855   22.9037 C   0  0  0  0  0  0  0  0  0  0  0  0
  -20.8856  -25.9393   22.1328 C   0  0  0  0  0  0  0  0  0  0  0  0
  -23.3021  -35.8314   24.8750 C   0  0  0  0  0  0  0  0  0  0  0  0
  -24.1539  -30.6017   20.3541 C   0  0  0  0  0  0  0  0  0  0  0  0
  -24.2280  -28.2645   22.1643 C   0  0  0  0  0  0  0  0  0  0  0  0
  -32.0739  -26.7715   20.1502 C   0  0  0  0  0  0  0  0  0  0  0  0
  -30.5749  -24.9140   19.6294 C   0  0  0  0  0  0  0  0  0  0  0  0
  -22.9092  -34.3834   25.1561 C   0  0  0  0  0  0  0  0  0  0  0  0
  -27.3340  -14.9130   18.1999 C   0  0  0  0  0  0  0  0  0  0  0  0
  -24.1440  -33.4878   25.1674 C   0  0  0  0  0  0  0  0  0  0  0  0
  -26.9453  -13.5397   18.7411 C   0  0  0  0  0  0  0  0  0  0  0  0
  -27.2919  -15.9879   19.2850 C   0  0  0  0  0  0  0  0  0  0  0  0
  -27.7204  -14.2799   21.0284 C   0  0  0  0  0  0  0  0  0  0  0  0
  -32.8412  -25.6775   19.4196 C   0  0  0  0  0  0  0  0  0  0  0  0
  -24.8465  -33.4995   23.8044 C   0  0  1  0  0  0  0  0  0  0  0  0
  -23.4851  -30.6262   21.7250 C   0  0  1  0  0  0  0  0  0  0  0  0
  -27.8014  -13.1744   19.9641 C   0  0  1  0  0  0  0  0  0  0  0  0
  -33.8185  -21.9524   20.8226 C   0  0  0  0  0  0  0  0  0  0  0  0
  -18.9163  -24.4080   22.4059 C   0  0  0  0  0  0  0  0  0  0  0  0
  -22.7374  -28.6086   25.8154 C   0  0  0  0  0  0  0  0  0  0  0  0
  -21.4290  -26.4753   25.7427 C   0  0  0  0  0  0  0  0  0  0  0  0
  -20.2738  -28.6576   25.3882 C   0  0  0  0  0  0  0  0  0  0  0  0
  -20.4999  -25.7240   19.2064 C   0  0  0  0  0  0  0  0  0  0  0  0
  -32.3048  -23.3126   18.7075 C   0  0  0  0  0  0  0  0  0  0  0  0
  -21.7835  -27.7458   23.5767 C   0  0  1  0  0  0  0  0  0  0  0  0
  -19.5917  -25.4397   21.5158 C   0  0  2  0  0  0  0  0  0  0  0  0
  -21.5770  -27.8765   25.1122 C   0  0  0  0  0  0  0  0  0  0  0  0
  -26.1500  -11.4061   20.4428 N   0  0  0  0  0  0  0  0  0  0  0  0
  -27.4267  -11.8166   20.5293 N   0  0  0  0  0  0  0  0  0  0  0  0
  -28.0702  -15.5898   20.4676 N   0  0  0  0  0  0  0  0  0  0  0  0
  -23.1696  -29.2862   22.2240 N   0  0  0  0  0  0  0  0  0  0  0  0
  -29.5689  -11.1735   21.3092 N   0  0  0  0  0  0  0  0  0  0  0  0
  -26.9595   -7.6561   22.4116 N   0  0  0  0  0  0  0  0  0  0  0  0
  -24.1366  -32.6607   22.8627 N   0  0  0  0  0  0  0  0  0  0  0  0
  -20.6873  -27.0805   22.8809 N   0  0  0  0  0  0  0  0  0  0  0  0
  -32.0091  -24.4353   19.6452 N   0  3  2  0  0  0  0  0  0  0  0  0
  -19.8581  -24.8139   20.1897 N   0  3  0  0  0  0  0  0  0  0  0  0
  -29.0926   -8.4928   22.5025 O   0  0  0  0  0  0  0  0  0  0  0  0
  -29.6866  -15.9964   22.0922 O   0  0  0  0  0  0  0  0  0  0  0  0
  -25.1008  -30.6231   23.4469 O   0  0  0  0  0  0  0  0  0  0  0  0
  -21.0544  -29.9205   22.9722 O   0  0  0  0  0  0  0  0  0  0  0  0
  -21.9636  -25.3718   21.9707 O   0  0  0  0  0  0  0  0  0  0  0  0
  -21.4967   -7.1731   21.4318 O   0  0  0  0  0  0  0  0  0  0  0  0
  -28.2975  -26.7655   19.8992 O   0  0  0  0  0  0  0  0  0  1  0  0
  -20.4392   -4.7254   26.2582 F   0  0  0  0  0  0  0  0  0  0  0  0
  -19.1955   -7.7616   22.8463 F   0  0  0  0  0  0  0  0  0  0  0  0
  1  2  1  0  0  0  0
  1  6  2  0  0  0  0
  2  7  2  0  0  0  0
  3 10  2  0  0  0  0
  3 18  1  0  0  0  0
  4 11  1  0  0  0  0
  4 18  2  0  0  0  0
  5  9  2  0  0  0  0
  5 19  1  0  0  0  0
  6 21  1  0  0  0  0
  7 23  1  0  0  0  0
  8 12  2  0  0  0  0
  8 22  1  0  0  0  0
  9 25  1  0  0  0  0
 10 27  1  0  0  0  0
 11 27  2  0  0  0  0
 12 28  1  0  0  0  0
 13 14  2  0  0  0  0
 13 29  1  0  0  0  0
 14 30  1  0  0  0  0
 15 19  2  0  0  0  0
 15 26  1  0  0  0  0
 16 24  1  0  0  0  0
 16 28  2  0  0  0  0
 17 30  2  0  0  0  0
 17 31  1  0  0  0  0
 18 32  1  0  0  0  0
 19 35  1  0  0  0  0
 20 32  1  0  0  0  0
 20 33  2  0  0  0  0
 20 38  1  0  0  0  0
 21 23  2  0  0  0  0
 21 43  1  0  0  0  0
 22 24  2  0  0  0  0
 22 44  1  0  0  0  0
 23 55  1  0  0  0  0
 24 45  1  0  0  0  0
 25 26  2  0  0  0  0
 25 64  1  0  0  0  0
 26 58  1  0  0  0  0
 27 83  1  0  0  0  0
 28 84  1  0  0  0  0
 29 31  2  0  0  0  0
 29 83  1  0  0  0  0
 30 85  1  0  0  0  0
 31 86  1  0  0  0  0
 32 68  2  0  0  0  0
 33 69  1  0  0  0  0
 33 72  1  0  0  0  0
 34 36  2  0  0  0  0
 34 46  1  0  0  0  0
 34 47  1  0  0  0  0
 35 37  2  0  0  0  0
 36 84  1  0  0  0  0
 37 39  1  0  0  0  0
 38 73  1  0  0  0  0
 38 78  2  0  0  0  0
 39 70  1  0  0  0  0
 39 79  2  0  0  0  0
 40 56  1  0  0  0  0
 40 74  1  0  0  0  0
 40 80  2  0  0  0  0
 41 65  1  0  0  0  0
 41 71  1  0  0  0  0
 41 81  2  0  0  0  0
 42 66  1  0  0  0  0
 42 75  1  0  0  0  0
 42 82  2  0  0  0  0
 43 48  1  0  0  0  0
 44 56  1  0  0  0  0
 45 71  1  0  0  0  0
 46 54  1  0  0  0  0
 47 76  1  0  0  0  0
 48 50  1  0  0  0  0
 49 51  1  0  0  0  0
 49 52  1  0  0  0  0
 50 55  1  0  0  0  0
 51 57  1  0  0  0  0
 52 70  1  0  0  0  0
 53 57  1  0  0  0  0
 53 70  1  0  0  0  0
 54 76  1  0  0  0  0
 55 74  1  0  0  0  0
 56 71  1  0  0  0  0
 57 69  1  0  0  0  0
 59 66  1  0  0  0  0
 60 67  1  0  0  0  0
 61 67  1  0  0  0  0
 62 67  1  0  0  0  0
 63 77  1  0  0  0  0
 64 76  1  0  0  0  0
 65 67  1  0  0  0  0
 65 75  1  0  0  0  0
 66 77  1  0  0  0  0
 68 69  1  0  0  0  0
M  CHG  2  76   1  77   1
M  ISO  4  36 101  37 100  39 100  84 101
M  END
> <Batch ID>
0129

> <Smiles>
CNC(C)C(=O)NC(C(=O)N1Cc2cc([101O:1][101CH:1]=C3CCN(Cc4ccc(C=[100CH:0][100C:0](=O)N5CCCC(n6nc(-c7ccc(Oc8ccc(F)cc8F)cc7)c(C(N)=O)c6N)C5)cc4C)C3)ccc2CC1C(=O)NC1CCCc2ccccc21)C(C)(C)C

> <Shape>
0.310

> <Color>
0.096

> <Negative vol penalty>
0.000

$$$$

  -OEChem-04052302193D

 84 92  0     1  0  0  0  0  0999 V2000
  -23.3905   -7.9422   21.0133 C   0  0  0  0  0  0  0  0  0  0  0  0
  -24.0543   -9.0014   20.4027 C   0  0  0  0  0  0  0  0  0  0  0  0
  -22.6586  -28.5892   22.7775 C   0  0  0  0  0  0  0  0  0  0  0  0
  -22.6939  -26.1854   23.0177 C   0  0  0  0  0  0  0  0  0  0  0  0
  -22.1727   -8.1617   21.6558 C   0  0  0  0  0  0  0  0  0  0  0  0
  -23.5001  -10.2806   20.4332 C   0  0  0  0  0  0  0  0  0  0  0  0
  -26.9116  -13.8491   21.5612 C   0  0  0  0  0  0  0  0  0  0  0  0
  -21.2968  -28.5395   22.4801 C   0  0  0  0  0  0  0  0  0  0  0  0
  -21.3320  -26.1357   22.7204 C   0  0  0  0  0  0  0  0  0  0  0  0
  -27.7710  -14.2537   20.5406 C   0  0  0  0  0  0  0  0  0  0  0  0
  -17.7325  -29.0799   22.0119 C   0  0  0  0  0  0  0  0  0  0  0  0
  -16.8985  -30.0086   22.6343 C   0  0  0  0  0  0  0  0  0  0  0  0
  -29.7850  -20.4413   20.2097 C   0  0  0  0  0  0  0  0  0  0  0  0
  -29.9289  -21.4142   18.0030 C   0  0  0  0  0  0  0  0  0  0  0  0
  -26.4010  -16.2040   20.1682 C   0  0  0  0  0  0  0  0  0  0  0  0
  -17.5522  -29.1476   24.7950 C   0  0  0  0  0  0  0  0  0  0  0  0
  -23.3572  -27.4121   23.0462 C   0  0  0  0  0  0  0  0  0  0  0  0
  -29.9245  -20.2909   18.8300 C   0  0  0  0  0  0  0  0  0  0  0  0
  -25.3527  -27.5983   24.6246 C   0  0  0  0  0  0  0  0  0  0  0  0
  -21.6081   -9.4461   21.7026 C   0  0  0  0  0  0  0  0  0  0  0  0
  -25.7825  -14.6146   21.8861 C   0  0  0  0  0  0  0  0  0  0  0  0
  -22.2730  -10.5173   21.0758 C   0  0  0  0  0  0  0  0  0  0  0  0
  -25.5303  -15.8083   21.1950 C   0  0  0  0  0  0  0  0  0  0  0  0
  -29.6498  -21.7148   20.7624 C   0  0  0  0  0  0  0  0  0  0  0  0
  -29.6542  -22.8381   19.9354 C   0  0  0  0  0  0  0  0  0  0  0  0
  -20.6334  -27.3128   22.4516 C   0  0  0  0  0  0  0  0  0  0  0  0
  -27.5142  -15.4297   19.8420 C   0  0  0  0  0  0  0  0  0  0  0  0
  -18.4763  -28.1849   22.7810 C   0  0  0  0  0  0  0  0  0  0  0  0
  -16.8084  -30.0425   24.0259 C   0  0  0  0  0  0  0  0  0  0  0  0
  -29.7937  -22.6878   18.5556 C   0  0  0  0  0  0  0  0  0  0  0  0
  -18.3862  -28.2188   24.1726 C   0  0  0  0  0  0  0  0  0  0  0  0
  -24.7642  -27.4627   23.3529 C   0  0  0  0  0  0  0  0  0  0  0  0
  -26.7042  -27.5928   24.3798 C   0  0  0  0  0  0  0  0  0  0  0  0
  -30.0671  -18.9468   18.2461 C   0  0  0  0  0  0  0  0  0  0  0  0
  -30.4534  -17.8499   18.9163 C   0  0  0  0  0  0  0  0  0  0  0  0
  -24.7331  -27.7183   25.9120 C   0  0  0  0  0  0  0  0  0  0  0  0
  -22.6441  -14.1123   21.8446 C   0  0  0  0  0  0  0  0  0  0  0  0
  -22.5517  -17.0294   23.2602 C   0  0  0  0  0  0  0  0  0  0  0  0
  -24.0740  -20.0348   23.8053 C   0  0  0  0  0  0  0  0  0  0  0  0
  -30.0458  -25.3263   19.9751 C   0  0  0  0  0  0  0  0  0  0  0  0
  -20.2666   -9.6255   22.3680 C   0  0  0  0  0  0  0  0  0  0  0  0
  -24.8800  -14.1784   23.0075 C   0  0  0  0  0  0  0  0  0  0  0  0
  -24.3428  -16.6764   21.5188 C   0  0  0  0  0  0  0  0  0  0  0  0
  -19.9307  -11.0819   22.6788 C   0  0  0  0  0  0  0  0  0  0  0  0
  -29.9029  -28.7323   21.0028 C   0  0  0  0  0  0  0  0  0  0  0  0
  -20.2270  -11.9672   21.4725 C   0  0  0  0  0  0  0  0  0  0  0  0
  -28.6257  -28.8042   21.8429 C   0  0  0  0  0  0  0  0  0  0  0  0
  -29.7463  -27.7878   19.8124 C   0  0  0  0  0  0  0  0  0  0  0  0
  -27.9994  -26.5096   20.9887 C   0  0  0  0  0  0  0  0  0  0  0  0
  -21.7162  -11.9240   21.1090 C   0  0  1  0  0  0  0  0  0  0  0  0
  -23.4767  -14.7688   22.9092 C   0  0  1  0  0  0  0  0  0  0  0  0
  -28.1299  -27.3987   22.2361 C   0  0  2  0  0  0  0  0  0  0  0  0
  -30.7942  -22.3028   22.9144 C   0  0  0  0  0  0  0  0  0  0  0  0
  -23.7374  -22.2305   24.9728 C   0  0  0  0  0  0  0  0  0  0  0  0
  -20.6002  -17.8882   21.0775 C   0  0  0  0  0  0  0  0  0  0  0  0
  -21.0415  -20.2684   21.7164 C   0  0  0  0  0  0  0  0  0  0  0  0
  -20.0246  -18.7027   23.3709 C   0  0  0  0  0  0  0  0  0  0  0  0
  -26.4637  -19.6302   25.5035 C   0  0  0  0  0  0  0  0  0  0  0  0
  -29.5025  -21.8464   22.2437 C   0  0  0  0  0  0  0  0  0  0  0  0
  -30.5983  -16.4962   18.2765 C   0  0  0  0  0  0  0  0  0  0  0  0
  -29.7235  -15.4531   18.9618 C   0  0  0  0  0  0  0  0  0  1  0  0
  -22.4674  -18.4542   22.7684 C   0  0  1  0  0  0  0  0  0  0  0  0
  -24.3129  -20.8267   25.0781 C   0  0  2  0  0  0  0  0  0  0  0  0
  -21.0548  -18.8113   22.2257 C   0  0  0  0  0  0  0  0  0  0  0  0
  -25.6678  -27.3775   22.3730 N   0  0  0  0  0  0  0  0  0  0  0  0
  -26.8378  -27.4598   23.0290 N   0  0  0  0  0  0  0  0  0  0  0  0
  -23.4864  -16.2041   22.6192 N   0  0  0  0  0  0  0  0  0  0  0  0
  -29.2780  -26.4749   20.2616 N   0  0  0  0  0  0  0  0  0  0  0  0
  -27.7794  -27.6888   25.1904 N   0  0  0  0  0  0  0  0  0  0  0  0
  -23.3334  -27.7057   25.9836 N   0  0  0  0  0  0  0  0  0  0  0  0
  -29.5176  -24.1388   20.4804 N   0  0  0  0  0  0  0  0  0  0  0  0
  -22.4822  -12.7508   22.0167 N   0  0  0  0  0  0  0  0  0  0  0  0
  -22.9125  -19.2949   23.8746 N   0  0  0  0  0  0  0  0  0  0  0  0
  -25.7735  -20.9370   25.3531 N   0  3  0  0  0  0  0  0  0  0  0  0
  -25.4006  -27.8498   26.9659 O   0  0  0  0  0  0  0  0  0  0  0  0
  -22.1815  -14.7910   20.9351 O   0  0  0  0  0  0  0  0  0  0  0  0
  -21.8203  -16.6643   24.1840 O   0  0  0  0  0  0  0  0  0  0  0  0
  -24.8390  -20.0720   22.8441 O   0  0  0  0  0  0  0  0  0  0  0  0
  -31.1087  -25.3949   19.3525 O   0  0  0  0  0  0  0  0  0  0  0  0
  -19.3045  -27.2639   22.1616 O   0  0  0  0  0  0  0  0  0  0  0  0
  -28.3511  -15.8265   18.8450 O   0  0  0  0  0  0  0  0  0  1  0  0
  -16.0086  -30.9355   24.6235 F   0  0  0  0  0  0  0  0  0  0  0  0
  -29.7994  -23.7596   17.7500 F   0  0  0  0  0  0  0  0  0  0  0  0
  -19.0993  -27.3624   24.9168 F   0  0  0  0  0  0  0  0  0  0  0  0
  1  2  1  0  0  0  0
  1  5  2  0  0  0  0
  2  6  2  0  0  0  0
  3  8  2  0  0  0  0
  3 17  1  0  0  0  0
  4  9  1  0  0  0  0
  4 17  2  0  0  0  0
  5 20  1  0  0  0  0
  6 22  1  0  0  0  0
  7 10  2  0  0  0  0
  7 21  1  0  0  0  0
  8 26  1  0  0  0  0
  9 26  2  0  0  0  0
 10 27  1  0  0  0  0
 11 12  2  0  0  0  0
 11 28  1  0  0  0  0
 12 29  1  0  0  0  0
 13 18  2  0  0  0  0
 13 24  1  0  0  0  0
 14 18  1  0  0  0  0
 14 30  2  0  0  0  0
 15 23  1  0  0  0  0
 15 27  2  0  0  0  0
 16 29  2  0  0  0  0
 16 31  1  0  0  0  0
 17 32  1  0  0  0  0
 18 34  1  0  0  0  0
 19 32  1  0  0  0  0
 19 33  2  0  0  0  0
 19 36  1  0  0  0  0
 20 22  2  0  0  0  0
 20 41  1  0  0  0  0
 21 23  2  0  0  0  0
 21 42  1  0  0  0  0
 22 50  1  0  0  0  0
 23 43  1  0  0  0  0
 24 25  2  0  0  0  0
 24 59  1  0  0  0  0
 25 30  1  0  0  0  0
 25 71  1  0  0  0  0
 26 80  1  0  0  0  0
 27 81  1  0  0  0  0
 28 31  2  0  0  0  0
 28 80  1  0  0  0  0
 29 82  1  0  0  0  0
 30 83  1  0  0  0  0
 31 84  1  0  0  0  0
 32 65  2  0  0  0  0
 33 66  1  0  0  0  0
 33 69  1  0  0  0  0
 34 35  2  0  0  0  0
 35 60  1  0  0  0  0
 36 70  1  0  0  0  0
 36 75  2  0  0  0  0
 37 51  1  0  0  0  0
 37 72  1  0  0  0  0
 37 76  2  0  0  0  0
 38 62  1  0  0  0  0
 38 67  1  0  0  0  0
 38 77  2  0  0  0  0
 39 63  1  0  0  0  0
 39 73  1  0  0  0  0
 39 78  2  0  0  0  0
 40 68  1  0  0  0  0
 40 71  1  0  0  0  0
 40 79  2  0  0  0  0
 41 44  1  0  0  0  0
 42 51  1  0  0  0  0
 43 67  1  0  0  0  0
 44 46  1  0  0  0  0
 45 47  1  0  0  0  0
 45 48  1  0  0  0  0
 46 50  1  0  0  0  0
 47 52  1  0  0  0  0
 48 68  1  0  0  0  0
 49 52  1  0  0  0  0
 49 68  1  0  0  0  0
 50 72  1  0  0  0  0
 51 67  1  0  0  0  0
 52 66  1  0  0  0  0
 53 59  1  0  0  0  0
 54 63  1  0  0  0  0
 55 64  1  0  0  0  0
 56 64  1  0  0  0  0
 57 64  1  0  0  0  0
 58 74  1  0  0  0  0
 60 61  1  0  0  0  0
 61 81  1  0  0  0  0
 62 64  1  0  0  0  0
 62 73  1  0  0  0  0
 63 74  1  0  0  0  0
 65 66  1  0  0  0  0
M  CHG  1  74   1
M  ISO  4  40 100  61 101  71 100  81 101
M  END
> <Batch ID>
0129

> <Smiles>
CCc1cc(C=CC[101CH2:1][101O:1]c2ccc3c(c2)CN(C(=O)C(NC(=O)C(C)NC)C(C)(C)C)C(C(=O)NC2CCCc4ccccc42)C3)cc(F)c1[100NH:0][100C:0](=O)N1CCCC(n2nc(-c3ccc(Oc4ccc(F)cc4F)cc3)c(C(N)=O)c2N)C1

> <Shape>
0.224

> <Color>
0.085

> <Negative vol penalty>
0.000

$$$$

  -OEChem-04052302193D

 84 92  0     1  0  0  0  0  0999 V2000
  -28.5449  -36.1539   17.8445 C   0  0  0  0  0  0  0  0  0  0  0  0
  -28.8087  -34.8837   18.3470 C   0  0  0  0  0  0  0  0  0  0  0  0
  -24.1249   -9.4037   22.2121 C   0  0  0  0  0  0  0  0  0  0  0  0
  -23.3701   -9.4884   19.9185 C   0  0  0  0  0  0  0  0  0  0  0  0
  -31.0410  -20.7939   21.9543 C   0  0  0  0  0  0  0  0  0  0  0  0
  -27.5062  -36.9130   18.3818 C   0  0  0  0  0  0  0  0  0  0  0  0
  -28.0347  -34.3724   19.3881 C   0  0  0  0  0  0  0  0  0  0  0  0
  -26.6615  -29.5612   18.6063 C   0  0  0  0  0  0  0  0  0  0  0  0
  -31.2593  -22.1716   21.9550 C   0  0  0  0  0  0  0  0  0  0  0  0
  -23.1154   -8.4884   22.5105 C   0  0  0  0  0  0  0  0  0  0  0  0
  -22.3607   -8.5731   20.2169 C   0  0  0  0  0  0  0  0  0  0  0  0
  -27.6206  -28.5783   18.8463 C   0  0  0  0  0  0  0  0  0  0  0  0
  -22.5526   -5.1795   22.1015 C   0  0  0  0  0  0  0  0  0  0  0  0
  -22.8942   -4.0642   22.8662 C   0  0  0  0  0  0  0  0  0  0  0  0
  -28.6656  -21.1704   21.7244 C   0  0  0  0  0  0  0  0  0  0  0  0
  -26.6144  -28.1290   20.9922 C   0  0  0  0  0  0  0  0  0  0  0  0
  -21.3046   -4.7365   24.5568 C   0  0  0  0  0  0  0  0  0  0  0  0
  -24.2521   -9.9037   20.9161 C   0  0  0  0  0  0  0  0  0  0  0  0
  -29.7441  -20.2933   21.8389 C   0  0  0  0  0  0  0  0  0  0  0  0
  -26.6001  -10.5620   20.1668 C   0  0  0  0  0  0  0  0  0  0  0  0
  -26.7128  -36.4069   19.4235 C   0  0  0  0  0  0  0  0  0  0  0  0
  -25.6765  -29.8434   19.5637 C   0  0  0  0  0  0  0  0  0  0  0  0
  -26.9853  -35.1261   19.9408 C   0  0  0  0  0  0  0  0  0  0  0  0
  -25.6423  -29.1142   20.7608 C   0  0  0  0  0  0  0  0  0  0  0  0
  -28.8839  -22.5481   21.7252 C   0  0  0  0  0  0  0  0  0  0  0  0
  -30.1808  -23.0487   21.8405 C   0  0  0  0  0  0  0  0  0  0  0  0
  -22.2334   -8.0731   21.5129 C   0  0  0  0  0  0  0  0  0  0  0  0
  -27.5989  -27.8640   20.0407 C   0  0  0  0  0  0  0  0  0  0  0  0
  -21.5870   -6.0734   22.5644 C   0  0  0  0  0  0  0  0  0  0  0  0
  -22.2702   -3.8426   24.0939 C   0  0  0  0  0  0  0  0  0  0  0  0
  -20.9630   -5.8519   23.7921 C   0  0  0  0  0  0  0  0  0  0  0  0
  -25.2943  -10.8496   20.6074 C   0  0  0  0  0  0  0  0  0  0  0  0
  -27.1907  -11.7930   20.0170 C   0  0  0  0  0  0  0  0  0  0  0  0
  -29.5172  -18.8567   21.8381 C   0  0  0  0  0  0  0  0  0  0  0  0
  -28.3435  -18.2490   22.1137 C   0  0  0  0  0  0  0  0  0  0  0  0
  -30.6247  -24.9702   20.6849 C   0  0  0  0  0  0  0  0  0  0  0  0
  -27.2233   -9.2955   19.9154 C   0  0  0  0  0  0  0  0  0  0  0  0
  -28.2699  -16.7750   22.0616 C   0  0  0  0  0  0  0  0  0  0  0  0
  -24.8847  -32.3979   21.2816 C   0  0  0  0  0  0  0  0  0  0  0  0
  -22.3889  -30.5334   22.1855 C   0  0  0  0  0  0  0  0  0  0  0  0
  -21.1189  -27.3926   22.5972 C   0  0  0  0  0  0  0  0  0  0  0  0
  -25.6314  -37.2834   20.0040 C   0  0  0  0  0  0  0  0  0  0  0  0
  -24.6328  -30.8883   19.2782 C   0  0  0  0  0  0  0  0  0  0  0  0
  -24.5936  -29.3648   21.8124 C   0  0  0  0  0  0  0  0  0  0  0  0
  -24.6187  -36.5195   20.8532 C   0  0  0  0  0  0  0  0  0  0  0  0
  -25.2179  -16.4337   20.0615 C   0  0  0  0  0  0  0  0  0  0  0  0
  -25.3329  -35.5754   21.8152 C   0  0  0  0  0  0  0  0  0  0  0  0
  -25.0529  -14.9165   20.0340 C   0  0  0  0  0  0  0  0  0  0  0  0
  -25.8138  -16.9202   21.3816 C   0  0  0  0  0  0  0  0  0  0  0  0
  -26.9338  -14.7344   21.7101 C   0  0  0  0  0  0  0  0  0  0  0  0
  -26.1520  -34.5269   21.0529 C   0  0  1  0  0  0  0  0  0  0  0  0
  -23.9862  -31.4477   20.5417 C   0  0  1  0  0  0  0  0  0  0  0  0
  -26.3796  -14.2185   20.3729 C   0  0  1  0  0  0  0  0  0  0  0  0
  -27.1944  -23.5537   20.1693 C   0  0  0  0  0  0  0  0  0  0  0  0
  -19.0662  -26.1861   23.3898 C   0  0  0  0  0  0  0  0  0  0  0  0
  -23.1780  -31.0965   25.0786 C   0  0  0  0  0  0  0  0  0  0  0  0
  -21.7443  -29.1648   25.7724 C   0  0  0  0  0  0  0  0  0  0  0  0
  -20.7158  -31.1365   24.6422 C   0  0  0  0  0  0  0  0  0  0  0  0
  -20.6797  -26.1565   19.9443 C   0  0  0  0  0  0  0  0  0  0  0  0
  -27.7134  -23.4679   21.6013 C   0  0  0  0  0  0  0  0  0  0  0  0
  -30.8775  -26.4489   20.5601 C   0  0  0  0  0  0  0  0  0  0  0  0
  -29.8165  -27.0851   19.6780 C   0  0  0  0  0  0  0  0  0  1  0  0
  -22.1429  -29.5413   23.2965 C   0  0  1  0  0  0  0  0  0  0  0  0
  -19.7890  -26.7828   22.1922 C   0  0  2  0  0  0  0  0  0  0  0  0
  -21.9663  -30.2311   24.6786 C   0  0  0  0  0  0  0  0  0  0  0  0
  -25.0683  -12.1603   20.7296 N   0  0  0  0  0  0  0  0  0  0  0  0
  -30.4197  -24.4332   21.8431 N   0  0  0  0  0  0  0  0  0  0  0  0
  -26.2400  -12.7073   20.3638 N   0  0  0  0  0  0  0  0  0  0  0  0
  -27.0506  -16.1969   21.7129 N   0  0  0  0  0  0  0  0  0  0  0  0
  -23.5988  -30.4009   21.4894 N   0  0  0  0  0  0  0  0  0  0  0  0
  -28.4255  -12.1716   19.6239 N   0  0  0  0  0  0  0  0  0  0  0  0
  -26.4732   -8.1294   20.1199 N   0  0  0  0  0  0  0  0  0  0  0  0
  -25.2870  -33.4887   20.5348 N   0  0  0  0  0  0  0  0  0  0  0  0
  -20.9994  -28.7369   22.8797 N   0  0  0  0  0  0  0  0  0  0  0  0
  -19.9989  -25.7046   21.1850 N   0  3  0  0  0  0  0  0  0  0  0  0
  -28.4154   -9.2002   19.5367 O   0  0  0  0  0  0  0  0  0  0  0  0
  -29.2929  -16.1445   22.3350 O   0  0  0  0  0  0  0  0  0  0  0  0
  -25.1891  -32.1599   22.4445 O   0  0  0  0  0  0  0  0  0  0  0  0
  -21.5358  -31.3897   21.9395 O   0  0  0  0  0  0  0  0  0  0  0  0
  -22.1589  -26.7408   22.6606 O   0  0  0  0  0  0  0  0  0  0  0  0
  -21.2484   -7.1799   21.8037 O   0  0  0  0  0  0  0  0  0  0  0  0
  -28.5344  -26.9045   20.2778 O   0  0  0  0  0  0  0  0  0  1  0  0
  -22.5972   -2.7706   24.8274 F   0  0  0  0  0  0  0  0  0  0  0  0
  -20.0338   -6.7065   24.2415 F   0  0  0  0  0  0  0  0  0  0  0  0
  1  2  1  0  0  0  0
  1  6  2  0  0  0  0
  2  7  2  0  0  0  0
  3 10  2  0  0  0  0
  3 18  1  0  0  0  0
  4 11  1  0  0  0  0
  4 18  2  0  0  0  0
  5  9  2  0  0  0  0
  5 19  1  0  0  0  0
  6 21  1  0  0  0  0
  7 23  1  0  0  0  0
  8 12  2  0  0  0  0
  8 22  1  0  0  0  0
  9 26  1  0  0  0  0
 10 27  1  0  0  0  0
 11 27  2  0  0  0  0
 12 28  1  0  0  0  0
 13 14  2  0  0  0  0
 13 29  1  0  0  0  0
 14 30  1  0  0  0  0
 15 19  2  0  0  0  0
 15 25  1  0  0  0  0
 16 24  1  0  0  0  0
 16 28  2  0  0  0  0
 17 30  2  0  0  0  0
 17 31  1  0  0  0  0
 18 32  1  0  0  0  0
 19 34  1  0  0  0  0
 20 32  1  0  0  0  0
 20 33  2  0  0  0  0
 20 37  1  0  0  0  0
 21 23  2  0  0  0  0
 21 42  1  0  0  0  0
 22 24  2  0  0  0  0
 22 43  1  0  0  0  0
 23 51  1  0  0  0  0
 24 44  1  0  0  0  0
 25 26  2  0  0  0  0
 25 60  1  0  0  0  0
 26 67  1  0  0  0  0
 27 81  1  0  0  0  0
 28 82  1  0  0  0  0
 29 31  2  0  0  0  0
 29 81  1  0  0  0  0
 30 83  1  0  0  0  0
 31 84  1  0  0  0  0
 32 66  2  0  0  0  0
 33 68  1  0  0  0  0
 33 71  1  0  0  0  0
 34 35  2  0  0  0  0
 35 38  1  0  0  0  0
 36 61  1  0  0  0  0
 36 67  2  0  0  0  0
 37 72  1  0  0  0  0
 37 76  2  0  0  0  0
 38 69  1  0  0  0  0
 38 77  2  0  0  0  0
 39 52  1  0  0  0  0
 39 73  1  0  0  0  0
 39 78  2  0  0  0  0
 40 63  1  0  0  0  0
 40 70  1  0  0  0  0
 40 79  2  0  0  0  0
 41 64  1  0  0  0  0
 41 74  1  0  0  0  0
 41 80  2  0  0  0  0
 42 45  1  0  0  0  0
 43 52  1  0  0  0  0
 44 70  1  0  0  0  0
 45 47  1  0  0  0  0
 46 48  1  0  0  0  0
 46 49  1  0  0  0  0
 47 51  1  0  0  0  0
 48 53  1  0  0  0  0
 49 69  1  0  0  0  0
 50 53  1  0  0  0  0
 50 69  1  0  0  0  0
 51 73  1  0  0  0  0
 52 70  1  0  0  0  0
 53 68  1  0  0  0  0
 54 60  1  0  0  0  0
 55 64  1  0  0  0  0
 56 65  1  0  0  0  0
 57 65  1  0  0  0  0
 58 65  1  0  0  0  0
 59 75  1  0  0  0  0
 61 62  1  0  0  0  0
 62 82  1  0  0  0  0
 63 65  1  0  0  0  0
 63 74  1  0  0  0  0
 64 75  1  0  0  0  0
 66 68  1  0  0  0  0
M  CHG  1  75   1
M  ISO  4  35 100  38 100  62 101  82 101
M  END
> <Batch ID>
0129

> <Smiles>
CCc1cc(C=[100CH:0][100C:0](=O)N2CCCC(n3nc(-c4ccc(Oc5ccc(F)cc5F)cc4)c(C(N)=O)c3N)C2)ccc1NC=C[101CH2:1][101O:1]c1ccc2c(c1)CN(C(=O)C(NC(=O)C(C)NC)C(C)(C)C)C(C(=O)NC1CCCc3ccccc31)C2

> <Shape>
0.297

> <Color>
0.113

> <Negative vol penalty>
0.000

$$$$

  -OEChem-04052302193D

 82 90  0     1  0  0  0  0  0999 V2000
  -18.8645  -33.2158   20.6381 C   0  0  0  0  0  0  0  0  0  0  0  0
  -20.1662  -32.8964   20.2652 C   0  0  0  0  0  0  0  0  0  0  0  0
  -23.9406   -9.6619   22.2487 C   0  0  0  0  0  0  0  0  0  0  0  0
  -24.4834   -8.8586   20.0357 C   0  0  0  0  0  0  0  0  0  0  0  0
  -28.0848  -21.4989   20.2553 C   0  0  0  0  0  0  0  0  0  0  0  0
  -30.0861  -20.7769   19.1105 C   0  0  0  0  0  0  0  0  0  0  0  0
  -18.3260  -32.6851   21.8096 C   0  0  0  0  0  0  0  0  0  0  0  0
  -20.9306  -32.0470   21.0643 C   0  0  0  0  0  0  0  0  0  0  0  0
  -25.0869  -27.9655   19.1742 C   0  0  0  0  0  0  0  0  0  0  0  0
  -28.2731  -22.7925   19.7687 C   0  0  0  0  0  0  0  0  0  0  0  0
  -30.2743  -22.0705   18.6238 C   0  0  0  0  0  0  0  0  0  0  0  0
  -22.9196   -8.7162   22.3416 C   0  0  0  0  0  0  0  0  0  0  0  0
  -23.4624   -7.9128   20.1286 C   0  0  0  0  0  0  0  0  0  0  0  0
  -26.4779  -28.0125   19.0923 C   0  0  0  0  0  0  0  0  0  0  0  0
  -20.4048   -6.2746   23.3057 C   0  0  0  0  0  0  0  0  0  0  0  0
  -20.2947   -5.5539   24.4948 C   0  0  0  0  0  0  0  0  0  0  0  0
  -26.6350  -26.9098   21.2320 C   0  0  0  0  0  0  0  0  0  0  0  0
  -22.5275   -4.6876   24.1767 C   0  0  0  0  0  0  0  0  0  0  0  0
  -24.7225   -9.7332   21.0957 C   0  0  0  0  0  0  0  0  0  0  0  0
  -28.9914  -20.4911   19.9263 C   0  0  0  0  0  0  0  0  0  0  0  0
  -27.1212  -10.5516   21.3860 C   0  0  0  0  0  0  0  0  0  0  0  0
  -19.0809  -31.8211   22.6184 C   0  0  0  0  0  0  0  0  0  0  0  0
  -24.4584  -27.3992   20.2925 C   0  0  0  0  0  0  0  0  0  0  0  0
  -20.4022  -31.5053   22.2485 C   0  0  0  0  0  0  0  0  0  0  0  0
  -25.2359  -26.8545   21.3245 C   0  0  0  0  0  0  0  0  0  0  0  0
  -29.3678  -23.0783   18.9529 C   0  0  0  0  0  0  0  0  0  0  0  0
  -22.6805   -7.8416   21.2816 C   0  0  0  0  0  0  0  0  0  0  0  0
  -27.2522  -27.4872   20.1226 C   0  0  0  0  0  0  0  0  0  0  0  0
  -21.5763   -6.2017   22.5520 C   0  0  0  0  0  0  0  0  0  0  0  0
  -21.3560   -4.7605   24.9304 C   0  0  0  0  0  0  0  0  0  0  0  0
  -22.6376   -5.4083   22.9875 C   0  0  0  0  0  0  0  0  0  0  0  0
  -25.7770  -10.7103   20.9989 C   0  0  0  0  0  0  0  0  0  0  0  0
  -27.7081  -11.7579   21.0911 C   0  0  0  0  0  0  0  0  0  0  0  0
  -28.7954  -19.1422   20.4338 C   0  0  0  0  0  0  0  0  0  0  0  0
  -27.6294  -18.6398   20.8927 C   0  0  0  0  0  0  0  0  0  0  0  0
  -27.7803   -9.4154   21.9606 C   0  0  0  0  0  0  0  0  0  0  0  0
  -27.5886  -17.2420   21.3673 C   0  0  0  0  0  0  0  0  0  0  0  0
  -22.5003  -28.4789   22.5516 C   0  0  0  0  0  0  0  0  0  0  0  0
  -22.4095  -25.3548   23.4198 C   0  0  0  0  0  0  0  0  0  0  0  0
  -23.9265  -22.2978   23.4027 C   0  0  0  0  0  0  0  0  0  0  0  0
  -18.4723  -31.3098   23.9002 C   0  0  0  0  0  0  0  0  0  0  0  0
  -22.9570  -27.3322   20.3533 C   0  0  0  0  0  0  0  0  0  0  0  0
  -24.6101  -26.2173   22.5372 C   0  0  0  0  0  0  0  0  0  0  0  0
  -19.2190  -30.1196   24.4967 C   0  0  0  0  0  0  0  0  0  0  0  0
  -26.0129  -15.6987   18.4403 C   0  0  0  0  0  0  0  0  0  0  0  0
  -20.7219  -30.3804   24.5019 C   0  0  0  0  0  0  0  0  0  0  0  0
  -25.8810  -14.2514   18.9067 C   0  0  0  0  0  0  0  0  0  0  0  0
  -25.8404  -16.6884   19.5915 C   0  0  0  0  0  0  0  0  0  0  0  0
  -26.6210  -14.9811   21.2089 C   0  0  0  0  0  0  0  0  0  0  0  0
  -21.2543  -30.5678   23.0761 C   0  0  1  0  0  0  0  0  0  0  0  0
  -22.4222  -27.1947   21.7754 C   0  0  1  0  0  0  0  0  0  0  0  0
  -26.8379  -13.9667   20.0752 C   0  0  1  0  0  0  0  0  0  0  0  0
  -23.6283  -19.9461   24.2262 C   0  0  0  0  0  0  0  0  0  0  0  0
  -23.1905  -26.2432   26.2324 C   0  0  0  0  0  0  0  0  0  0  0  0
  -23.7967  -23.8675   26.7393 C   0  0  0  0  0  0  0  0  0  0  0  0
  -21.4447  -24.4544   26.1505 C   0  0  0  0  0  0  0  0  0  0  0  0
  -23.9140  -21.2119   20.6496 C   0  0  0  0  0  0  0  0  0  0  0  0
  -29.5693  -24.4764   18.4252 C   0  0  0  0  0  0  0  0  0  0  0  0
  -30.4158  -25.3677   19.3408 C   0  0  0  0  0  0  0  0  0  0  0  0
  -30.5446  -26.8025   18.8272 C   0  0  0  0  0  0  0  0  0  0  0  0
  -29.1884  -27.4895   18.7417 C   0  0  0  0  0  0  0  0  0  1  0  0
  -23.2168  -24.4791   24.3474 C   0  0  1  0  0  0  0  0  0  0  0  0
  -23.3980  -20.9129   23.0751 C   0  0  2  0  0  0  0  0  0  0  0  0
  -22.9243  -24.7747   25.8456 C   0  0  0  0  0  0  0  0  0  0  0  0
  -25.5247  -11.9220   20.4966 N   0  0  0  0  0  0  0  0  0  0  0  0
  -26.7183  -12.5356   20.5661 N   0  0  0  0  0  0  0  0  0  0  0  0
  -26.7243  -16.3606   20.7202 N   0  0  0  0  0  0  0  0  0  0  0  0
  -23.1383  -26.1816   22.5532 N   0  0  0  0  0  0  0  0  0  0  0  0
  -28.9691  -12.2186   21.2324 N   0  0  0  0  0  0  0  0  0  0  0  0
  -27.0289   -8.2564   22.1978 N   0  0  0  0  0  0  0  0  0  0  0  0
  -21.3883  -29.2877   22.4144 N   0  0  0  0  0  0  0  0  0  0  0  0
  -22.9477  -23.1025   23.9464 N   0  0  0  0  0  0  0  0  0  0  0  0
  -24.0778  -20.3722   21.8641 N   0  3  0  0  0  0  0  0  0  0  0  0
  -28.9958   -9.4331   22.2701 O   0  0  0  0  0  0  0  0  0  0  0  0
  -28.3198  -16.9408   22.3125 O   0  0  0  0  0  0  0  0  0  0  0  0
  -23.4950  -28.7177   23.2262 O   0  0  0  0  0  0  0  0  0  0  0  0
  -21.1777  -25.3018   23.4577 O   0  0  0  0  0  0  0  0  0  0  0  0
  -25.0920  -22.6311   23.2002 O   0  0  0  0  0  0  0  0  0  0  0  0
  -21.6844   -6.9184   21.3720 O   0  0  0  0  0  0  0  0  0  0  0  0
  -28.6101  -27.5324   20.0455 O   0  0  0  0  0  0  0  0  0  1  0  0
  -21.2506   -4.0697   26.0731 F   0  0  0  0  0  0  0  0  0  0  0  0
  -23.7660   -5.3353   22.2683 F   0  0  0  0  0  0  0  0  0  0  0  0
  1  2  1  0  0  0  0
  1  7  2  0  0  0  0
  2  8  2  0  0  0  0
  3 12  2  0  0  0  0
  3 19  1  0  0  0  0
  4 13  1  0  0  0  0
  4 19  2  0  0  0  0
  5 10  2  0  0  0  0
  5 20  1  0  0  0  0
  6 11  1  0  0  0  0
  6 20  2  0  0  0  0
  7 22  1  0  0  0  0
  8 24  1  0  0  0  0
  9 14  2  0  0  0  0
  9 23  1  0  0  0  0
 10 26  1  0  0  0  0
 11 26  2  0  0  0  0
 12 27  1  0  0  0  0
 13 27  2  0  0  0  0
 14 28  1  0  0  0  0
 15 16  2  0  0  0  0
 15 29  1  0  0  0  0
 16 30  1  0  0  0  0
 17 25  1  0  0  0  0
 17 28  2  0  0  0  0
 18 30  2  0  0  0  0
 18 31  1  0  0  0  0
 19 32  1  0  0  0  0
 20 34  1  0  0  0  0
 21 32  1  0  0  0  0
 21 33  2  0  0  0  0
 21 36  1  0  0  0  0
 22 24  2  0  0  0  0
 22 41  1  0  0  0  0
 23 25  2  0  0  0  0
 23 42  1  0  0  0  0
 24 50  1  0  0  0  0
 25 43  1  0  0  0  0
 26 58  1  0  0  0  0
 27 79  1  0  0  0  0
 28 80  1  0  0  0  0
 29 31  2  0  0  0  0
 29 79  1  0  0  0  0
 30 81  1  0  0  0  0
 31 82  1  0  0  0  0
 32 65  2  0  0  0  0
 33 66  1  0  0  0  0
 33 69  1  0  0  0  0
 34 35  2  0  0  0  0
 35 37  1  0  0  0  0
 36 70  1  0  0  0  0
 36 74  2  0  0  0  0
 37 67  1  0  0  0  0
 37 75  2  0  0  0  0
 38 51  1  0  0  0  0
 38 71  1  0  0  0  0
 38 76  2  0  0  0  0
 39 62  1  0  0  0  0
 39 68  1  0  0  0  0
 39 77  2  0  0  0  0
 40 63  1  0  0  0  0
 40 72  1  0  0  0  0
 40 78  2  0  0  0  0
 41 44  1  0  0  0  0
 42 51  1  0  0  0  0
 43 68  1  0  0  0  0
 44 46  1  0  0  0  0
 45 47  1  0  0  0  0
 45 48  1  0  0  0  0
 46 50  1  0  0  0  0
 47 52  1  0  0  0  0
 48 67  1  0  0  0  0
 49 52  1  0  0  0  0
 49 67  1  0  0  0  0
 50 71  1  0  0  0  0
 51 68  1  0  0  0  0
 52 66  1  0  0  0  0
 53 63  1  0  0  0  0
 54 64  1  0  0  0  0
 55 64  1  0  0  0  0
 56 64  1  0  0  0  0
 57 73  1  0  0  0  0
 58 59  1  0  0  0  0
 59 60  1  0  0  0  0
 60 61  1  0  0  0  0
 61 80  1  0  0  0  0
 62 64  1  0  0  0  0
 62 72  1  0  0  0  0
 63 73  1  0  0  0  0
 65 66  1  0  0  0  0
M  CHG  1  73   1
M  ISO  4  35 100  37 100  61 101  80 101
M  END
> <Batch ID>
0129

> <Smiles>
CNC(C)C(=O)NC(C(=O)N1Cc2cc([101O:1][101CH2:1]CCCc3ccc(C=[100CH:0][100C:0](=O)N4CCCC(n5nc(-c6ccc(Oc7ccc(F)cc7F)cc6)c(C(N)=O)c5N)C4)cc3)ccc2CC1C(=O)NC1CCCc2ccccc21)C(C)(C)C

> <Shape>
0.245

> <Color>
0.136

> <Negative vol penalty>
0.000

$$$$

  -OEChem-04052302193D

 84 92  0     1  0  0  0  0  0999 V2000
  -19.8677  -34.3616   21.2324 C   0  0  0  0  0  0  0  0  0  0  0  0
  -21.1247  -33.8746   20.8885 C   0  0  0  0  0  0  0  0  0  0  0  0
  -26.3926  -13.0619   18.6917 C   0  0  0  0  0  0  0  0  0  0  0  0
  -24.6890  -13.7700   20.2516 C   0  0  0  0  0  0  0  0  0  0  0  0
  -19.1362  -33.7454   22.2468 C   0  0  0  0  0  0  0  0  0  0  0  0
  -21.6514  -32.7716   21.5597 C   0  0  0  0  0  0  0  0  0  0  0  0
  -25.2053  -28.3780   19.1993 C   0  0  0  0  0  0  0  0  0  0  0  0
  -33.8460  -25.3286   18.2754 C   0  0  0  0  0  0  0  0  0  0  0  0
  -34.5378  -24.1401   18.0421 C   0  0  0  0  0  0  0  0  0  0  0  0
  -26.4039  -11.7965   19.2784 C   0  0  0  0  0  0  0  0  0  0  0  0
  -24.7002  -12.5046   20.8383 C   0  0  0  0  0  0  0  0  0  0  0  0
  -26.5849  -28.1780   19.2153 C   0  0  0  0  0  0  0  0  0  0  0  0
  -23.4449   -9.4392   20.1687 C   0  0  0  0  0  0  0  0  0  0  0  0
  -22.2142   -8.8447   20.4470 C   0  0  0  0  0  0  0  0  0  0  0  0
  -31.7565  -24.1157   18.2578 C   0  0  0  0  0  0  0  0  0  0  0  0
  -26.3441  -26.7103   21.1145 C   0  0  0  0  0  0  0  0  0  0  0  0
  -22.7876   -8.7559   22.7923 C   0  0  0  0  0  0  0  0  0  0  0  0
  -25.5352  -14.0487   19.1784 C   0  0  0  0  0  0  0  0  0  0  0  0
  -32.4484  -22.9272   18.0244 C   0  0  0  0  0  0  0  0  0  0  0  0
  -24.7212  -15.7894   17.5005 C   0  0  0  0  0  0  0  0  0  0  0  0
  -19.6500  -32.6284   22.9242 C   0  0  0  0  0  0  0  0  0  0  0  0
  -24.3844  -27.7532   20.1492 C   0  0  0  0  0  0  0  0  0  0  0  0
  -20.9266  -32.1407   22.5851 C   0  0  0  0  0  0  0  0  0  0  0  0
  -24.9540  -26.9021   21.1069 C   0  0  0  0  0  0  0  0  0  0  0  0
  -32.4553  -25.3164   18.3834 C   0  0  0  0  0  0  0  0  0  0  0  0
  -33.8391  -22.9394   17.9165 C   0  0  0  0  0  0  0  0  0  0  0  0
  -25.5577  -11.5178   20.3517 C   0  0  0  0  0  0  0  0  0  0  0  0
  -27.1549  -27.3463   20.1748 C   0  0  0  0  0  0  0  0  0  0  0  0
  -24.3471   -9.6920   21.2021 C   0  0  0  0  0  0  0  0  0  0  0  0
  -21.8856   -8.5031   21.7589 C   0  0  0  0  0  0  0  0  0  0  0  0
  -24.0184   -9.3504   22.5139 C   0  0  0  0  0  0  0  0  0  0  0  0
  -25.5235  -15.3562   18.5731 C   0  0  0  0  0  0  0  0  0  0  0  0
  -25.0861  -17.0991   17.3058 C   0  0  0  0  0  0  0  0  0  0  0  0
  -31.6903  -21.6892   17.8975 C   0  0  0  0  0  0  0  0  0  0  0  0
  -30.8739  -21.1739   18.8391 C   0  0  0  0  0  0  0  0  0  0  0  0
  -23.7342  -15.0720   16.7476 C   0  0  0  0  0  0  0  0  0  0  0  0
  -30.1642  -19.9103   18.5557 C   0  0  0  0  0  0  0  0  0  0  0  0
  -22.4338  -28.7700   22.4438 C   0  0  0  0  0  0  0  0  0  0  0  0
  -21.7240  -25.6153   22.7005 C   0  0  0  0  0  0  0  0  0  0  0  0
  -22.6869  -22.3792   22.2031 C   0  0  0  0  0  0  0  0  0  0  0  0
  -18.8425  -32.0248   24.0459 C   0  0  0  0  0  0  0  0  0  0  0  0
  -22.8951  -27.9582   20.1019 C   0  0  0  0  0  0  0  0  0  0  0  0
  -24.1145  -26.1919   22.1361 C   0  0  0  0  0  0  0  0  0  0  0  0
  -19.3126  -30.6307   24.4532 C   0  0  0  0  0  0  0  0  0  0  0  0
  -26.8002  -20.9027   19.6187 C   0  0  0  0  0  0  0  0  0  0  0  0
  -20.8304  -30.6015   24.6018 C   0  0  0  0  0  0  0  0  0  0  0  0
  -26.0307  -19.6009   19.4115 C   0  0  0  0  0  0  0  0  0  0  0  0
  -28.2407  -20.6512   20.0615 C   0  0  0  0  0  0  0  0  0  0  0  0
  -28.2247  -18.4402   18.9427 C   0  0  0  0  0  0  0  0  0  0  0  0
  -21.5214  -30.9312   23.2731 C   0  0  1  0  0  0  0  0  0  0  0  0
  -22.2107  -27.6779   21.4363 C   0  0  1  0  0  0  0  0  0  0  0  0
  -26.7867  -18.6687   18.4514 C   0  0  1  0  0  0  0  0  0  0  0  0
  -34.6131  -21.6854   17.6647 C   0  0  0  0  0  0  0  0  0  0  0  0
  -22.4955  -19.8782   22.1283 C   0  0  0  0  0  0  0  0  0  0  0  0
  -30.5184  -28.3511   21.9328 C   0  0  0  0  0  0  0  0  0  0  0  0
  -22.3729  -25.8394   25.6735 C   0  0  0  0  0  0  0  0  0  0  0  0
  -22.5099  -23.3410   25.7608 C   0  0  0  0  0  0  0  0  0  0  0  0
  -20.3614  -24.4499   25.1466 C   0  0  0  0  0  0  0  0  0  0  0  0
  -21.6249  -22.4271   19.4411 C   0  0  0  0  0  0  0  0  0  0  0  0
  -31.7084  -26.6021   18.6357 C   0  0  0  0  0  0  0  0  0  0  0  0
  -31.5084  -26.9260   20.1227 C   0  0  0  0  0  0  0  0  0  0  0  0
  -29.3203  -28.2204   19.7244 C   0  0  0  0  0  0  0  0  0  1  0  0
  -22.2759  -24.4565   23.4954 C   0  0  1  0  0  0  0  0  0  0  0  0
  -21.9620  -21.1958   21.5879 C   0  0  2  0  0  0  0  0  0  0  0  0
  -30.6904  -28.2033   20.4156 C   0  0  1  0  0  0  0  0  0  0  0  0
  -21.8963  -24.5365   25.0010 C   0  0  0  0  0  0  0  0  0  0  0  0
  -26.3370  -16.3131   19.0278 N   0  0  0  0  0  0  0  0  0  0  0  0
  -26.0477  -17.3605   18.2370 N   0  0  0  0  0  0  0  0  0  0  0  0
  -28.9245  -19.7112   19.1605 N   0  0  0  0  0  0  0  0  0  0  0  0
  -22.6639  -26.4293   22.0526 N   0  0  0  0  0  0  0  0  0  0  0  0
  -24.6751  -18.0411   16.4305 N   0  0  0  0  0  0  0  0  0  0  0  0
  -23.4830  -13.7337   17.0797 N   0  0  0  0  0  0  0  0  0  0  0  0
  -21.4959  -29.7835   22.3918 N   0  0  0  0  0  0  0  0  0  0  0  0
  -21.8136  -23.2454   22.8261 N   0  0  0  0  0  0  0  0  0  0  0  0
  -22.1293  -21.1986   20.1071 N   0  3  0  0  0  0  0  0  0  0  0  0
  -23.1057  -15.5971   15.7975 O   0  0  0  0  0  0  0  0  0  0  0  0
  -30.7156  -19.1048   17.8035 O   0  0  0  0  0  0  0  0  0  0  0  0
  -23.3855  -28.6978   23.2124 O   0  0  0  0  0  0  0  0  0  0  0  0
  -20.5036  -25.7874   22.6503 O   0  0  0  0  0  0  0  0  0  0  0  0
  -23.9064  -22.5191   22.1406 O   0  0  0  0  0  0  0  0  0  0  0  0
  -25.5682  -10.2831   20.9242 O   0  0  0  0  0  0  0  0  0  0  0  0
  -28.5013  -27.1499   20.1930 O   0  0  0  0  0  0  0  0  0  1  0  0
  -20.7031   -7.9335   22.0262 F   0  0  0  0  0  0  0  0  0  0  0  0
  -24.8804   -9.5919   23.5111 F   0  0  0  0  0  0  0  0  0  0  0  0
  1  2  1  0  0  0  0
  1  5  2  0  0  0  0
  2  6  2  0  0  0  0
  3 10  2  0  0  0  0
  3 18  1  0  0  0  0
  4 11  1  0  0  0  0
  4 18  2  0  0  0  0
  5 21  1  0  0  0  0
  6 23  1  0  0  0  0
  7 12  2  0  0  0  0
  7 22  1  0  0  0  0
  8  9  2  0  0  0  0
  8 25  1  0  0  0  0
  9 26  1  0  0  0  0
 10 27  1  0  0  0  0
 11 27  2  0  0  0  0
 12 28  1  0  0  0  0
 13 14  2  0  0  0  0
 13 29  1  0  0  0  0
 14 30  1  0  0  0  0
 15 19  1  0  0  0  0
 15 25  2  0  0  0  0
 16 24  1  0  0  0  0
 16 28  2  0  0  0  0
 17 30  2  0  0  0  0
 17 31  1  0  0  0  0
 18 32  1  0  0  0  0
 19 26  2  0  0  0  0
 19 34  1  0  0  0  0
 20 32  1  0  0  0  0
 20 33  2  0  0  0  0
 20 36  1  0  0  0  0
 21 23  2  0  0  0  0
 21 41  1  0  0  0  0
 22 24  2  0  0  0  0
 22 42  1  0  0  0  0
 23 50  1  0  0  0  0
 24 43  1  0  0  0  0
 25 60  1  0  0  0  0
 26 53  1  0  0  0  0
 27 81  1  0  0  0  0
 28 82  1  0  0  0  0
 29 31  2  0  0  0  0
 29 81  1  0  0  0  0
 30 83  1  0  0  0  0
 31 84  1  0  0  0  0
 32 67  2  0  0  0  0
 33 68  1  0  0  0  0
 33 71  1  0  0  0  0
 34 35  2  0  0  0  0
 35 37  1  0  0  0  0
 36 72  1  0  0  0  0
 36 76  2  0  0  0  0
 37 69  1  0  0  0  0
 37 77  2  0  0  0  0
 38 51  1  0  0  0  0
 38 73  1  0  0  0  0
 38 78  2  0  0  0  0
 39 63  1  0  0  0  0
 39 70  1  0  0  0  0
 39 79  2  0  0  0  0
 40 64  1  0  0  0  0
 40 74  1  0  0  0  0
 40 80  2  0  0  0  0
 41 44  1  0  0  0  0
 42 51  1  0  0  0  0
 43 70  1  0  0  0  0
 44 46  1  0  0  0  0
 45 47  1  0  0  0  0
 45 48  1  0  0  0  0
 46 50  1  0  0  0  0
 47 52  1  0  0  0  0
 48 69  1  0  0  0  0
 49 52  1  0  0  0  0
 49 69  1  0  0  0  0
 50 73  1  0  0  0  0
 51 70  1  0  0  0  0
 52 68  1  0  0  0  0
 54 64  1  0  0  0  0
 55 65  1  0  0  0  0
 56 66  1  0  0  0  0
 57 66  1  0  0  0  0
 58 66  1  0  0  0  0
 59 75  1  0  0  0  0
 60 61  1  0  0  0  0
 61 65  1  0  0  0  0
 62 65  1  0  0  0  0
 62 82  1  0  0  0  0
 63 66  1  0  0  0  0
 63 74  1  0  0  0  0
 64 75  1  0  0  0  0
 67 68  1  0  0  0  0
M  CHG  1  75   1
M  ISO  4  35 100  37 100  62 101  82 101
M  END
> <Batch ID>
0129

> <Smiles>
CNC(C)C(=O)NC(C(=O)N1Cc2cc([101O:1][101CH2:1]C(C)CCc3ccc(C)c(C=[100CH:0][100C:0](=O)N4CCCC(n5nc(-c6ccc(Oc7ccc(F)cc7F)cc6)c(C(N)=O)c5N)C4)c3)ccc2CC1C(=O)NC1CCCc2ccccc21)C(C)(C)C

> <Shape>
0.190

> <Color>
0.093

> <Negative vol penalty>
0.000

$$$$

  -OEChem-04052302193D

 83 91  0     1  0  0  0  0  0999 V2000
  -31.8035  -34.1400   22.5370 C   0  0  0  0  0  0  0  0  0  0  0  0
  -31.4779  -32.9499   21.8942 C   0  0  0  0  0  0  0  0  0  0  0  0
  -24.2556   -8.8346   20.3701 C   0  0  0  0  0  0  0  0  0  0  0  0
  -22.8651  -10.7338   20.9143 C   0  0  0  0  0  0  0  0  0  0  0  0
  -31.1106  -34.5232   23.6847 C   0  0  0  0  0  0  0  0  0  0  0  0
  -30.4600  -32.1418   22.3993 C   0  0  0  0  0  0  0  0  0  0  0  0
  -26.5313  -28.7236   19.1764 C   0  0  0  0  0  0  0  0  0  0  0  0
  -29.0976  -20.5997   19.9014 C   0  0  0  0  0  0  0  0  0  0  0  0
  -29.1922  -19.2453   20.2214 C   0  0  0  0  0  0  0  0  0  0  0  0
  -23.2870   -7.9763   20.8903 C   0  0  0  0  0  0  0  0  0  0  0  0
  -21.8964   -9.8755   21.4345 C   0  0  0  0  0  0  0  0  0  0  0  0
  -26.5105  -27.3661   18.8591 C   0  0  0  0  0  0  0  0  0  0  0  0
  -22.2681   -6.9254   23.9369 C   0  0  0  0  0  0  0  0  0  0  0  0
  -22.6985   -5.8918   24.7687 C   0  0  0  0  0  0  0  0  0  0  0  0
  -25.0472  -26.9569   20.7328 C   0  0  0  0  0  0  0  0  0  0  0  0
  -27.7596  -20.0492   17.9665 C   0  0  0  0  0  0  0  0  0  0  0  0
  -21.7684   -4.2716   23.2367 C   0  0  0  0  0  0  0  0  0  0  0  0
  -24.0448  -10.2134   20.3821 C   0  0  0  0  0  0  0  0  0  0  0  0
  -25.1515  -11.5587   18.5186 C   0  0  0  0  0  0  0  0  0  0  0  0
  -30.0772  -33.7241   24.1986 C   0  0  0  0  0  0  0  0  0  0  0  0
  -25.8178  -29.2070   20.2826 C   0  0  0  0  0  0  0  0  0  0  0  0
  -29.7536  -32.5140   23.5557 C   0  0  0  0  0  0  0  0  0  0  0  0
  -25.0585  -28.3213   21.0604 C   0  0  0  0  0  0  0  0  0  0  0  0
  -28.3812  -21.0016   18.7740 C   0  0  0  0  0  0  0  0  0  0  0  0
  -27.8543  -18.6948   18.2864 C   0  0  0  0  0  0  0  0  0  0  0  0
  -28.5706  -18.2929   19.4139 C   0  0  0  0  0  0  0  0  0  0  0  0
  -22.1073   -8.4967   21.4224 C   0  0  0  0  0  0  0  0  0  0  0  0
  -25.7707  -26.4821   19.6390 C   0  0  0  0  0  0  0  0  0  0  0  0
  -21.5878   -6.6322   22.7550 C   0  0  0  0  0  0  0  0  0  0  0  0
  -22.4487   -4.5649   24.4186 C   0  0  0  0  0  0  0  0  0  0  0  0
  -21.3379   -5.3053   22.4049 C   0  0  0  0  0  0  0  0  0  0  0  0
  -25.0453  -11.1005   19.8455 C   0  0  0  0  0  0  0  0  0  0  0  0
  -26.2598  -12.3699   18.5232 C   0  0  0  0  0  0  0  0  0  0  0  0
  -24.3224  -11.2764   17.3834 C   0  0  0  0  0  0  0  0  0  0  0  0
  -26.6032  -30.6665   22.9949 C   0  0  0  0  0  0  0  0  0  0  0  0
  -27.0844  -23.1529   19.0573 C   0  0  0  0  0  0  0  0  0  0  0  0
  -23.3867  -30.8855   23.3534 C   0  0  0  0  0  0  0  0  0  0  0  0
  -20.2954  -29.6643   22.5792 C   0  0  0  0  0  0  0  0  0  0  0  0
  -29.3561  -16.3736   20.8442 C   0  0  0  0  0  0  0  0  0  0  0  0
  -29.3885  -34.1564   25.4688 C   0  0  0  0  0  0  0  0  0  0  0  0
  -25.8290  -30.6782   20.5957 C   0  0  0  0  0  0  0  0  0  0  0  0
  -24.2589  -28.7929   22.2464 C   0  0  0  0  0  0  0  0  0  0  0  0
  -28.0715  -33.4286   25.7256 C   0  0  0  0  0  0  0  0  0  0  0  0
  -29.8247  -13.0566   22.0505 C   0  0  0  0  0  0  0  0  0  0  0  0
  -28.2393  -31.9282   25.5075 C   0  0  0  0  0  0  0  0  0  0  0  0
  -28.6318  -12.2897   21.4752 C   0  0  0  0  0  0  0  0  0  0  0  0
  -29.4435  -14.4805   22.4515 C   0  0  0  0  0  0  0  0  0  0  0  0
  -27.5939  -14.5002   20.8244 C   0  0  0  0  0  0  0  0  0  0  0  0
  -28.6390  -31.6226   24.0589 C   0  0  1  0  0  0  0  0  0  0  0  0
  -25.4792  -30.9824   22.0491 C   0  0  1  0  0  0  0  0  0  0  0  0
  -27.9442  -13.0817   20.3458 C   0  0  2  0  0  0  0  0  0  0  0  0
  -28.1675  -16.9755   16.4885 C   0  0  0  0  0  0  0  0  0  0  0  0
  -17.8582  -30.0271   23.0546 C   0  0  0  0  0  0  0  0  0  0  0  0
  -23.7284  -29.5793   26.0897 C   0  0  0  0  0  0  0  0  0  0  0  0
  -21.2696  -29.1077   26.0942 C   0  0  0  0  0  0  0  0  0  0  0  0
  -22.0856  -31.4641   26.0312 C   0  0  0  0  0  0  0  0  0  0  0  0
  -19.7045  -30.2228   19.7335 C   0  0  0  0  0  0  0  0  0  0  0  0
  -28.2812  -22.4637   18.4274 C   0  0  0  0  0  0  0  0  0  0  0  0
  -27.1809  -17.6961   17.4018 C   0  0  0  0  0  0  0  0  0  0  0  0
  -26.9103  -24.6168   18.7021 C   0  0  0  0  0  0  0  0  0  1  0  0
  -22.3182  -30.0165   23.9716 C   0  0  1  0  0  0  0  0  0  0  0  0
  -19.0213  -30.3579   22.1322 C   0  0  2  0  0  0  0  0  0  0  0  0
  -22.3670  -30.0324   25.5255 C   0  0  0  0  0  0  0  0  0  0  0  0
  -26.0093  -11.5806   20.6355 N   0  0  0  0  0  0  0  0  0  0  0  0
  -26.7319  -12.3489   19.8026 N   0  0  0  0  0  0  0  0  0  0  0  0
  -24.3069  -30.2395   22.5157 N   0  0  0  0  0  0  0  0  0  0  0  0
  -28.8013  -15.1711   21.3310 N   0  0  0  0  0  0  0  0  0  0  0  0
  -26.8669  -13.0920   17.5575 N   0  0  0  0  0  0  0  0  0  0  0  0
  -23.2242  -10.4225   17.5541 N   0  0  0  0  0  0  0  0  0  0  0  0
  -28.6785  -16.9220   19.7557 N   0  0  0  0  0  0  0  0  0  0  0  0
  -27.4870  -31.7111   23.1874 N   0  0  0  0  0  0  0  0  0  0  0  0
  -21.0497  -30.4667   23.4089 N   0  0  0  0  0  0  0  0  0  0  0  0
  -18.6593  -29.9358   20.7496 N   0  3  0  0  0  0  0  0  0  0  0  0
  -24.5582  -11.7538   16.2477 O   0  0  0  0  0  0  0  0  0  0  0  0
  -26.6632  -29.5576   23.5130 O   0  0  0  0  0  0  0  0  0  0  0  0
  -26.3009  -22.5734   19.8082 O   0  0  0  0  0  0  0  0  0  0  0  0
  -23.3999  -32.0943   23.5989 O   0  0  0  0  0  0  0  0  0  0  0  0
  -20.5901  -28.5232   22.2305 O   0  0  0  0  0  0  0  0  0  0  0  0
  -30.3742  -16.8652   21.3379 O   0  0  0  0  0  0  0  0  0  0  0  0
  -21.1618   -7.6595   21.9299 O   0  0  0  0  0  0  0  0  0  0  0  0
  -25.7492  -25.1565   19.3320 O   0  0  0  0  0  0  0  0  0  1  0  0
  -22.8634   -3.5723   25.2167 F   0  0  0  0  0  0  0  0  0  0  0  0
  -20.6858   -5.0174   21.2702 F   0  0  0  0  0  0  0  0  0  0  0  0
  1  2  1  0  0  0  0
  1  5  2  0  0  0  0
  2  6  2  0  0  0  0
  3 10  2  0  0  0  0
  3 18  1  0  0  0  0
  4 11  1  0  0  0  0
  4 18  2  0  0  0  0
  5 20  1  0  0  0  0
  6 22  1  0  0  0  0
  7 12  2  0  0  0  0
  7 21  1  0  0  0  0
  8  9  2  0  0  0  0
  8 24  1  0  0  0  0
  9 26  1  0  0  0  0
 10 27  1  0  0  0  0
 11 27  2  0  0  0  0
 12 28  1  0  0  0  0
 13 14  2  0  0  0  0
 13 29  1  0  0  0  0
 14 30  1  0  0  0  0
 15 23  1  0  0  0  0
 15 28  2  0  0  0  0
 16 24  2  0  0  0  0
 16 25  1  0  0  0  0
 17 30  2  0  0  0  0
 17 31  1  0  0  0  0
 18 32  1  0  0  0  0
 19 32  1  0  0  0  0
 19 33  2  0  0  0  0
 19 34  1  0  0  0  0
 20 22  2  0  0  0  0
 20 40  1  0  0  0  0
 21 23  2  0  0  0  0
 21 41  1  0  0  0  0
 22 49  1  0  0  0  0
 23 42  1  0  0  0  0
 24 58  1  0  0  0  0
 25 26  2  0  0  0  0
 25 59  1  0  0  0  0
 26 70  1  0  0  0  0
 27 80  1  0  0  0  0
 28 81  1  0  0  0  0
 29 31  2  0  0  0  0
 29 80  1  0  0  0  0
 30 82  1  0  0  0  0
 31 83  1  0  0  0  0
 32 64  2  0  0  0  0
 33 65  1  0  0  0  0
 33 68  1  0  0  0  0
 34 69  1  0  0  0  0
 34 74  2  0  0  0  0
 35 50  1  0  0  0  0
 35 71  1  0  0  0  0
 35 75  2  0  0  0  0
 36 58  1  0  0  0  0
 36 60  1  0  0  0  0
 36 76  2  0  0  0  0
 37 61  1  0  0  0  0
 37 66  1  0  0  0  0
 37 77  2  0  0  0  0
 38 62  1  0  0  0  0
 38 72  1  0  0  0  0
 38 78  2  0  0  0  0
 39 67  1  0  0  0  0
 39 70  1  0  0  0  0
 39 79  2  0  0  0  0
 40 43  1  0  0  0  0
 41 50  1  0  0  0  0
 42 66  1  0  0  0  0
 43 45  1  0  0  0  0
 44 46  1  0  0  0  0
 44 47  1  0  0  0  0
 45 49  1  0  0  0  0
 46 51  1  0  0  0  0
 47 67  1  0  0  0  0
 48 51  1  0  0  0  0
 48 67  1  0  0  0  0
 49 71  1  0  0  0  0
 50 66  1  0  0  0  0
 51 65  1  0  0  0  0
 52 59  1  0  0  0  0
 53 62  1  0  0  0  0
 54 63  1  0  0  0  0
 55 63  1  0  0  0  0
 56 63  1  0  0  0  0
 57 73  1  0  0  0  0
 60 81  1  0  0  0  0
 61 63  1  0  0  0  0
 61 72  1  0  0  0  0
 62 73  1  0  0  0  0
 64 65  1  0  0  0  0
M  CHG  1  73   1
M  ISO  4  39 100  60 101  70 100  81 101
M  END
> <Batch ID>
0129

> <Smiles>
CCc1cc(CC(=O)[101CH2:1][101O:1]c2ccc3c(c2)CN(C(=O)C(NC(=O)C(C)NC)C(C)(C)C)C(C(=O)NC2CCCc4ccccc42)C3)ccc1[100NH:0][100C:0](=O)N1CCCC(n2nc(-c3ccc(Oc4ccc(F)cc4F)cc3)c(C(N)=O)c2N)C1

> <Shape>
0.288

> <Color>
0.110

> <Negative vol penalty>
0.000

$$$$

  -OEChem-04052302193D

 82 90  0     1  0  0  0  0  0999 V2000
  -16.5383  -29.4493   23.5291 C   0  0  0  0  0  0  0  0  0  0  0  0
  -17.3768  -29.6728   22.4417 C   0  0  0  0  0  0  0  0  0  0  0  0
  -26.7811  -13.7077   22.5106 C   0  0  0  0  0  0  0  0  0  0  0  0
  -26.2897  -13.2752   20.1849 C   0  0  0  0  0  0  0  0  0  0  0  0
  -17.0823  -29.1443   24.7761 C   0  0  0  0  0  0  0  0  0  0  0  0
  -18.7597  -29.5925   22.6009 C   0  0  0  0  0  0  0  0  0  0  0  0
  -24.6889  -27.7142   19.0465 C   0  0  0  0  0  0  0  0  0  0  0  0
  -25.5933  -13.0760   22.8790 C   0  0  0  0  0  0  0  0  0  0  0  0
  -25.1019  -12.6434   20.5534 C   0  0  0  0  0  0  0  0  0  0  0  0
  -25.9457  -28.2140   18.7082 C   0  0  0  0  0  0  0  0  0  0  0  0
  -24.1563   -9.6378   21.7751 C   0  0  0  0  0  0  0  0  0  0  0  0
  -23.8508   -8.4248   21.1581 C   0  0  0  0  0  0  0  0  0  0  0  0
  -26.7701  -27.6019   20.8911 C   0  0  0  0  0  0  0  0  0  0  0  0
  -33.2757  -25.7772   20.6569 C   0  0  0  0  0  0  0  0  0  0  0  0
  -21.8120   -9.3827   20.2846 C   0  0  0  0  0  0  0  0  0  0  0  0
  -27.1293  -13.8073   21.1635 C   0  0  0  0  0  0  0  0  0  0  0  0
  -29.6221  -13.8656   20.6251 C   0  0  0  0  0  0  0  0  0  0  0  0
  -18.4723  -29.0507   24.9486 C   0  0  0  0  0  0  0  0  0  0  0  0
  -24.4600  -27.1635   20.3157 C   0  0  0  0  0  0  0  0  0  0  0  0
  -19.3228  -29.2872   23.8517 C   0  0  0  0  0  0  0  0  0  0  0  0
  -25.5102  -27.0935   21.2421 C   0  0  0  0  0  0  0  0  0  0  0  0
  -33.2939  -24.4557   21.1633 C   0  0  0  0  0  0  0  0  0  0  0  0
  -24.7538  -12.5438   21.9004 C   0  0  0  0  0  0  0  0  0  0  0  0
  -26.9857  -28.1605   19.6315 C   0  0  0  0  0  0  0  0  0  0  0  0
  -23.2896  -10.7233   21.6470 C   0  0  0  0  0  0  0  0  0  0  0  0
  -22.6786   -8.2972   20.4128 C   0  0  0  0  0  0  0  0  0  0  0  0
  -22.1175  -10.5957   20.9018 C   0  0  0  0  0  0  0  0  0  0  0  0
  -28.3558  -14.4602   20.7822 C   0  0  0  0  0  0  0  0  0  0  0  0
  -32.0251  -25.9614   20.1148 C   0  0  0  0  0  0  0  0  0  0  0  0
  -32.0529  -23.9266   20.8948 C   0  0  0  0  0  0  0  0  0  0  0  0
  -30.4450  -14.9022   20.2576 C   0  0  0  0  0  0  0  0  0  0  0  0
  -31.5057  -27.1736   19.4601 C   0  0  0  0  0  0  0  0  0  0  0  0
  -31.5780  -22.6302   21.2056 C   0  0  0  0  0  0  0  0  0  0  0  0
  -30.3403  -22.1146   20.9089 C   0  0  0  0  0  0  0  0  0  0  0  0
  -30.5997  -27.1896   18.4699 C   0  0  0  0  0  0  0  0  0  0  0  0
  -30.0191  -12.4985   20.7959 C   0  0  0  0  0  0  0  0  0  0  0  0
  -29.9959  -20.7311   21.2939 C   0  0  0  0  0  0  0  0  0  0  0  0
  -22.5601  -27.8784   22.7617 C   0  0  0  0  0  0  0  0  0  0  0  0
  -23.7167  -25.0983   23.9681 C   0  0  0  0  0  0  0  0  0  0  0  0
  -26.2170  -22.7759   24.0093 C   0  0  0  0  0  0  0  0  0  0  0  0
  -19.0153  -28.7648   26.3263 C   0  0  0  0  0  0  0  0  0  0  0  0
  -23.1057  -26.6044   20.6557 C   0  0  0  0  0  0  0  0  0  0  0  0
  -25.3216  -26.4937   22.6108 C   0  0  0  0  0  0  0  0  0  0  0  0
  -20.4785  -28.3299   26.3261 C   0  0  0  0  0  0  0  0  0  0  0  0
  -30.4042  -19.1190   18.0280 C   0  0  0  0  0  0  0  0  0  0  0  0
  -21.3081  -29.2477   25.4338 C   0  0  0  0  0  0  0  0  0  0  0  0
  -29.9898  -17.6866   18.3537 C   0  0  0  0  0  0  0  0  0  0  0  0
  -29.6116  -20.1423   18.8400 C   0  0  0  0  0  0  0  0  0  0  0  0
  -29.2534  -18.4748   20.6377 C   0  0  0  0  0  0  0  0  0  0  0  0
  -20.8273  -29.1847   23.9790 C   0  0  1  0  0  0  0  0  0  0  0  0
  -22.8486  -26.5332   22.1578 C   0  0  1  0  0  0  0  0  0  0  0  0
  -30.0710  -17.4271   19.8664 C   0  0  1  0  0  0  0  0  0  0  0  0
  -34.4278  -23.7968   21.8408 C   0  0  0  0  0  0  0  0  0  0  0  0
  -26.8977  -20.6338   25.1252 C   0  0  0  0  0  0  0  0  0  0  0  0
  -24.4881  -26.6535   26.4773 C   0  0  0  0  0  0  0  0  0  0  0  0
  -25.9709  -24.7419   27.1218 C   0  0  0  0  0  0  0  0  0  0  0  0
  -23.5099  -24.3930   26.9106 C   0  0  0  0  0  0  0  0  0  0  0  0
  -26.2342  -21.3074   21.4398 C   0  0  0  0  0  0  0  0  0  0  0  0
  -30.1052  -28.4527   17.8196 C   0  0  0  0  0  0  0  0  0  0  0  0
  -28.5910  -28.5868   17.9293 C   0  0  0  0  0  0  0  0  0  1  0  0
  -24.8999  -24.7142   24.8233 C   0  0  1  0  0  0  0  0  0  0  0  0
  -26.1850  -21.2600   23.9366 C   0  0  2  0  0  0  0  0  0  0  0  0
  -24.7206  -25.1388   26.3082 C   0  0  0  0  0  0  0  0  0  0  0  0
  -28.3682  -15.7728   20.5350 N   0  0  0  0  0  0  0  0  0  0  0  0
  -29.6524  -16.0115   20.2188 N   0  0  0  0  0  0  0  0  0  0  0  0
  -29.6562  -19.8391   20.2783 N   0  0  0  0  0  0  0  0  0  0  0  0
  -23.9775  -25.9661   22.8982 N   0  0  0  0  0  0  0  0  0  0  0  0
  -31.7619  -14.9638   19.9672 N   0  0  0  0  0  0  0  0  0  0  0  0
  -29.0472  -11.5631   21.1760 N   0  0  0  0  0  0  0  0  0  0  0  0
  -21.3088  -27.9792   23.3392 N   0  0  0  0  0  0  0  0  0  0  0  0
  -25.0947  -23.2813   24.6308 N   0  0  0  0  0  0  0  0  0  0  0  0
  -26.8481  -20.7871   22.6886 N   0  3  0  0  0  0  0  0  0  0  0  0
  -31.2041  -12.1208   20.6327 O   0  0  0  0  0  0  0  0  0  0  0  0
  -30.0254  -20.4507   22.4936 O   0  0  0  0  0  0  0  0  0  0  0  0
  -23.4104  -28.7593   22.7090 O   0  0  0  0  0  0  0  0  0  0  0  0
  -22.6032  -24.6394   24.2351 O   0  0  0  0  0  0  0  0  0  0  0  0
  -27.1465  -23.4447   23.5628 O   0  0  0  0  0  0  0  0  0  0  0  0
  -31.2735  -24.8381   20.2558 O   0  0  0  0  0  0  0  0  0  0  0  0
  -23.5948  -11.9272   22.2596 O   0  0  0  0  0  0  0  0  0  0  0  0
  -28.2132  -28.6482   19.3041 O   0  0  0  0  0  0  0  0  0  1  0  0
  -22.3861   -7.1327   19.8190 F   0  0  0  0  0  0  0  0  0  0  0  0
  -21.2816  -11.6353   20.7741 F   0  0  0  0  0  0  0  0  0  0  0  0
  1  2  1  0  0  0  0
  1  5  2  0  0  0  0
  2  6  2  0  0  0  0
  3  8  2  0  0  0  0
  3 16  1  0  0  0  0
  4  9  1  0  0  0  0
  4 16  2  0  0  0  0
  5 18  1  0  0  0  0
  6 20  1  0  0  0  0
  7 10  2  0  0  0  0
  7 19  1  0  0  0  0
  8 23  1  0  0  0  0
  9 23  2  0  0  0  0
 10 24  1  0  0  0  0
 11 12  2  0  0  0  0
 11 25  1  0  0  0  0
 12 26  1  0  0  0  0
 13 21  1  0  0  0  0
 13 24  2  0  0  0  0
 14 22  1  0  0  0  0
 14 29  2  0  0  0  0
 15 26  2  0  0  0  0
 15 27  1  0  0  0  0
 16 28  1  0  0  0  0
 17 28  1  0  0  0  0
 17 31  2  0  0  0  0
 17 36  1  0  0  0  0
 18 20  2  0  0  0  0
 18 41  1  0  0  0  0
 19 21  2  0  0  0  0
 19 42  1  0  0  0  0
 20 50  1  0  0  0  0
 21 43  1  0  0  0  0
 22 30  2  0  0  0  0
 22 53  1  0  0  0  0
 23 79  1  0  0  0  0
 24 80  1  0  0  0  0
 25 27  2  0  0  0  0
 25 79  1  0  0  0  0
 26 81  1  0  0  0  0
 27 82  1  0  0  0  0
 28 64  2  0  0  0  0
 29 32  1  0  0  0  0
 29 78  1  0  0  0  0
 30 33  1  0  0  0  0
 30 78  1  0  0  0  0
 31 65  1  0  0  0  0
 31 68  1  0  0  0  0
 32 35  2  0  0  0  0
 33 34  2  0  0  0  0
 34 37  1  0  0  0  0
 35 59  1  0  0  0  0
 36 69  1  0  0  0  0
 36 73  2  0  0  0  0
 37 66  1  0  0  0  0
 37 74  2  0  0  0  0
 38 51  1  0  0  0  0
 38 70  1  0  0  0  0
 38 75  2  0  0  0  0
 39 61  1  0  0  0  0
 39 67  1  0  0  0  0
 39 76  2  0  0  0  0
 40 62  1  0  0  0  0
 40 71  1  0  0  0  0
 40 77  2  0  0  0  0
 41 44  1  0  0  0  0
 42 51  1  0  0  0  0
 43 67  1  0  0  0  0
 44 46  1  0  0  0  0
 45 47  1  0  0  0  0
 45 48  1  0  0  0  0
 46 50  1  0  0  0  0
 47 52  1  0  0  0  0
 48 66  1  0  0  0  0
 49 52  1  0  0  0  0
 49 66  1  0  0  0  0
 50 70  1  0  0  0  0
 51 67  1  0  0  0  0
 52 65  1  0  0  0  0
 54 62  1  0  0  0  0
 55 63  1  0  0  0  0
 56 63  1  0  0  0  0
 57 63  1  0  0  0  0
 58 72  1  0  0  0  0
 59 60  1  0  0  0  0
 60 80  1  0  0  0  0
 61 63  1  0  0  0  0
 61 71  1  0  0  0  0
 62 72  1  0  0  0  0
 64 65  1  0  0  0  0
M  CHG  1  72   1
M  ISO  4  34 100  37 100  60 101  80 101
M  END
> <Batch ID>
0129

> <Smiles>
CNC(C)C(=O)NC(C(=O)N1Cc2cc([101O:1][101CH2:1]CC=Cc3cc(C)c(C=[100CH:0][100C:0](=O)N4CCCC(n5nc(-c6ccc(Oc7ccc(F)cc7F)cc6)c(C(N)=O)c5N)C4)o3)ccc2CC1C(=O)NC1CCCc2ccccc21)C(C)(C)C

> <Shape>
0.232

> <Color>
0.095

> <Negative vol penalty>
0.000

$$$$

  -OEChem-04052302193D

 85 93  0     1  0  0  0  0  0999 V2000
  -19.3004  -28.2829   26.6874 C   0  0  0  0  0  0  0  0  0  0  0  0
  -20.6163  -27.9717   26.3602 C   0  0  0  0  0  0  0  0  0  0  0  0
  -24.6620   -8.7110   21.9921 C   0  0  0  0  0  0  0  0  0  0  0  0
  -24.3673   -8.2256   19.6438 C   0  0  0  0  0  0  0  0  0  0  0  0
  -29.6906  -20.1147   22.1430 C   0  0  0  0  0  0  0  0  0  0  0  0
  -30.0883  -21.4313   21.9106 C   0  0  0  0  0  0  0  0  0  0  0  0
  -18.3817  -28.5700   25.6787 C   0  0  0  0  0  0  0  0  0  0  0  0
  -21.0140  -27.9464   25.0239 C   0  0  0  0  0  0  0  0  0  0  0  0
  -26.4761  -29.5659   22.7770 C   0  0  0  0  0  0  0  0  0  0  0  0
  -23.4722   -8.0423   22.2797 C   0  0  0  0  0  0  0  0  0  0  0  0
  -23.1775   -7.5568   19.9314 C   0  0  0  0  0  0  0  0  0  0  0  0
  -27.5962  -28.8225   22.4076 C   0  0  0  0  0  0  0  0  0  0  0  0
  -20.6975   -6.1518   23.6734 C   0  0  0  0  0  0  0  0  0  0  0  0
  -20.6935   -5.2716   24.7554 C   0  0  0  0  0  0  0  0  0  0  0  0
  -29.1898  -19.8512   19.7942 C   0  0  0  0  0  0  0  0  0  0  0  0
  -26.8486  -28.8471   20.1142 C   0  0  0  0  0  0  0  0  0  0  0  0
  -22.4258   -3.9621   23.6964 C   0  0  0  0  0  0  0  0  0  0  0  0
  -25.1096   -8.8027   20.6742 C   0  0  0  0  0  0  0  0  0  0  0  0
  -29.2414  -19.3246   21.0848 C   0  0  0  0  0  0  0  0  0  0  0  0
  -30.0367  -21.9579   20.6200 C   0  0  0  0  0  0  0  0  0  0  0  0
  -27.6330   -8.9432   20.3275 C   0  0  0  0  0  0  0  0  0  0  0  0
  -18.7707  -28.5576   24.3299 C   0  0  0  0  0  0  0  0  0  0  0  0
  -25.5266  -29.9468   21.8179 C   0  0  0  0  0  0  0  0  0  0  0  0
  -20.0993  -28.2323   23.9961 C   0  0  0  0  0  0  0  0  0  0  0  0
  -25.7186  -29.5974   20.4736 C   0  0  0  0  0  0  0  0  0  0  0  0
  -29.5874  -21.1679   19.5618 C   0  0  0  0  0  0  0  0  0  0  0  0
  -22.7299   -7.4652   21.2494 C   0  0  0  0  0  0  0  0  0  0  0  0
  -27.7811  -28.4605   21.0765 C   0  0  0  0  0  0  0  0  0  0  0  0
  -21.5656   -5.9372   22.6028 C   0  0  0  0  0  0  0  0  0  0  0  0
  -21.5577   -4.1767   24.7670 C   0  0  0  0  0  0  0  0  0  0  0  0
  -22.4298   -4.8423   22.6144 C   0  0  0  0  0  0  0  0  0  0  0  0
  -26.3383   -9.4938   20.3764 C   0  0  0  0  0  0  0  0  0  0  0  0
  -28.4450  -10.0032   20.0056 C   0  0  0  0  0  0  0  0  0  0  0  0
  -28.8273  -17.9517   21.3284 C   0  0  0  0  0  0  0  0  0  0  0  0
  -28.0377  -17.2162   20.5171 C   0  0  0  0  0  0  0  0  0  0  0  0
  -29.7318  -24.4301   21.1300 C   0  0  0  0  0  0  0  0  0  0  0  0
  -30.0910  -25.7126   20.9802 C   0  0  0  0  0  0  0  0  0  0  0  0
  -30.4660  -23.3604   20.4016 C   0  0  0  0  0  0  0  0  0  0  0  0
  -28.0632   -7.5942   20.5528 C   0  0  0  0  0  0  0  0  0  0  0  0
  -27.7133  -15.8272   20.8994 C   0  0  0  0  0  0  0  0  0  0  0  0
  -22.4358  -29.3593   21.3648 C   0  0  0  0  0  0  0  0  0  0  0  0
  -22.7748  -31.5224   18.9714 C   0  0  0  0  0  0  0  0  0  0  0  0
  -24.8427  -33.0921   16.7563 C   0  0  0  0  0  0  0  0  0  0  0  0
  -17.7306  -28.8284   23.2719 C   0  0  0  0  0  0  0  0  0  0  0  0
  -24.3375  -30.7713   22.2283 C   0  0  0  0  0  0  0  0  0  0  0  0
  -24.7391  -29.9989   19.4022 C   0  0  0  0  0  0  0  0  0  0  0  0
  -18.3238  -29.1468   21.9019 C   0  0  0  0  0  0  0  0  0  0  0  0
  -28.4290  -14.1814   17.7039 C   0  0  0  0  0  0  0  0  0  0  0  0
  -19.4223  -28.1484   21.5507 C   0  0  0  0  0  0  0  0  0  0  0  0
  -28.0410  -12.7400   18.0226 C   0  0  0  0  0  0  0  0  0  0  0  0
  -27.5406  -15.1874   18.4342 C   0  0  0  0  0  0  0  0  0  0  0  0
  -27.1032  -13.5357   20.2289 C   0  0  0  0  0  0  0  0  0  0  0  0
  -20.5749  -28.2188   22.5596 C   0  0  1  0  0  0  0  0  0  0  0  0
  -23.1707  -30.6649   21.2512 C   0  0  1  0  0  0  0  0  0  0  0  0
  -28.0142  -12.5067   19.5415 C   0  0  1  0  0  0  0  0  0  0  0  0
  -30.6746  -21.2082   17.3028 C   0  0  0  0  0  0  0  0  0  0  0  0
  -24.8240  -34.7827   14.9019 C   0  0  0  0  0  0  0  0  0  0  0  0
  -21.5748  -29.4416   17.0898 C   0  0  0  0  0  0  0  0  0  0  0  0
  -22.4458  -30.7830   15.1636 C   0  0  0  0  0  0  0  0  0  0  0  0
  -20.7645  -31.7777   16.7149 C   0  0  0  0  0  0  0  0  0  0  0  0
  -26.6672  -34.8985   18.2284 C   0  0  0  0  0  0  0  0  0  0  0  0
  -29.5232  -21.7076   18.1700 C   0  0  0  0  0  0  0  0  0  0  0  0
  -29.4128  -26.8416   21.6870 C   0  0  0  0  0  0  0  0  0  1  0  0
  -23.1423  -31.4499   17.5090 C   0  0  1  0  0  0  0  0  0  0  0  0
  -25.0056  -34.5574   16.3949 C   0  0  2  0  0  0  0  0  0  0  0  0
  -21.9995  -30.8537   16.6396 C   0  0  0  0  0  0  0  0  0  0  0  0
  -26.3238  -10.8020   20.1073 N   0  0  0  0  0  0  0  0  0  0  0  0
  -27.6194  -11.0823   19.8862 N   0  0  0  0  0  0  0  0  0  0  0  0
  -27.4845  -14.9081   19.8770 N   0  0  0  0  0  0  0  0  0  0  0  0
  -23.5891  -30.7992   19.8544 N   0  0  0  0  0  0  0  0  0  0  0  0
  -29.7774  -10.1082   19.8159 N   0  0  0  0  0  0  0  0  0  0  0  0
  -27.0982   -6.6300   20.8741 N   0  0  0  0  0  0  0  0  0  0  0  0
  -21.4112  -29.3692   22.2920 N   0  0  0  0  0  0  0  0  0  0  0  0
  -23.5464  -32.7974   17.1224 N   0  0  0  0  0  0  0  0  0  0  0  0
  -26.3622  -35.0385   16.7812 N   0  3  0  0  0  0  0  0  0  0  0  0
  -31.4131  -23.5983   19.6602 O   0  0  0  0  0  0  0  0  0  0  0  0
  -29.2698   -7.2573   20.4879 O   0  0  0  0  0  0  0  0  0  0  0  0
  -27.6597  -15.5663   22.1026 O   0  0  0  0  0  0  0  0  0  0  0  0
  -22.7723  -28.4134   20.6622 O   0  0  0  0  0  0  0  0  0  0  0  0
  -21.8053  -32.2016   19.3184 O   0  0  0  0  0  0  0  0  0  0  0  0
  -25.7716  -32.2883   16.7142 O   0  0  0  0  0  0  0  0  0  0  0  0
  -21.5690   -6.8124   21.5297 O   0  0  0  0  0  0  0  0  0  0  0  0
  -28.8732  -27.7344   20.7133 O   0  0  0  0  0  0  0  0  0  1  0  0
  -21.5548   -3.3324   25.8068 F   0  0  0  0  0  0  0  0  0  0  0  0
  -23.2669   -4.6315   21.5894 F   0  0  0  0  0  0  0  0  0  0  0  0
  1  2  1  0  0  0  0
  1  7  2  0  0  0  0
  2  8  2  0  0  0  0
  3 10  2  0  0  0  0
  3 18  1  0  0  0  0
  4 11  1  0  0  0  0
  4 18  2  0  0  0  0
  5  6  2  0  0  0  0
  5 19  1  0  0  0  0
  6 20  1  0  0  0  0
  7 22  1  0  0  0  0
  8 24  1  0  0  0  0
  9 12  2  0  0  0  0
  9 23  1  0  0  0  0
 10 27  1  0  0  0  0
 11 27  2  0  0  0  0
 12 28  1  0  0  0  0
 13 14  2  0  0  0  0
 13 29  1  0  0  0  0
 14 30  1  0  0  0  0
 15 19  2  0  0  0  0
 15 26  1  0  0  0  0
 16 25  1  0  0  0  0
 16 28  2  0  0  0  0
 17 30  2  0  0  0  0
 17 31  1  0  0  0  0
 18 32  1  0  0  0  0
 19 34  1  0  0  0  0
 20 26  2  0  0  0  0
 20 38  1  0  0  0  0
 21 32  1  0  0  0  0
 21 33  2  0  0  0  0
 21 39  1  0  0  0  0
 22 24  2  0  0  0  0
 22 44  1  0  0  0  0
 23 25  2  0  0  0  0
 23 45  1  0  0  0  0
 24 53  1  0  0  0  0
 25 46  1  0  0  0  0
 26 62  1  0  0  0  0
 27 82  1  0  0  0  0
 28 83  1  0  0  0  0
 29 31  2  0  0  0  0
 29 82  1  0  0  0  0
 30 84  1  0  0  0  0
 31 85  1  0  0  0  0
 32 67  2  0  0  0  0
 33 68  1  0  0  0  0
 33 71  1  0  0  0  0
 34 35  2  0  0  0  0
 35 40  1  0  0  0  0
 36 37  2  0  0  0  0
 36 38  1  0  0  0  0
 37 63  1  0  0  0  0
 38 76  2  0  0  0  0
 39 72  1  0  0  0  0
 39 77  2  0  0  0  0
 40 69  1  0  0  0  0
 40 78  2  0  0  0  0
 41 54  1  0  0  0  0
 41 73  1  0  0  0  0
 41 79  2  0  0  0  0
 42 64  1  0  0  0  0
 42 70  1  0  0  0  0
 42 80  2  0  0  0  0
 43 65  1  0  0  0  0
 43 74  1  0  0  0  0
 43 81  2  0  0  0  0
 44 47  1  0  0  0  0
 45 54  1  0  0  0  0
 46 70  1  0  0  0  0
 47 49  1  0  0  0  0
 48 50  1  0  0  0  0
 48 51  1  0  0  0  0
 49 53  1  0  0  0  0
 50 55  1  0  0  0  0
 51 69  1  0  0  0  0
 52 55  1  0  0  0  0
 52 69  1  0  0  0  0
 53 73  1  0  0  0  0
 54 70  1  0  0  0  0
 55 68  1  0  0  0  0
 56 62  1  0  0  0  0
 57 65  1  0  0  0  0
 58 66  1  0  0  0  0
 59 66  1  0  0  0  0
 60 66  1  0  0  0  0
 61 75  1  0  0  0  0
 63 83  1  0  0  0  0
 64 66  1  0  0  0  0
 64 74  1  0  0  0  0
 65 75  1  0  0  0  0
 67 68  1  0  0  0  0
M  CHG  1  75   1
M  ISO  4  35 100  40 100  63 101  83 101
M  END
> <Batch ID>
0129

> <Smiles>
CCc1cc(C=[100CH:0][100C:0](=O)N2CCCC(n3nc(-c4ccc(Oc5ccc(F)cc5F)cc4)c(C(N)=O)c3N)C2)ccc1C(=O)C=C[101CH2:1][101O:1]c1ccc2c(c1)CN(C(=O)C(NC(=O)C(C)NC)C(C)(C)C)C(C(=O)NC1CCCc3ccccc31)C2

> <Shape>
0.272

> <Color>
0.102

> <Negative vol penalty>
0.000

$$$$

  -OEChem-04052302193D

 84 92  0     1  0  0  0  0  0999 V2000
  -20.3089  -24.4512   23.4439 C   0  0  0  0  0  0  0  0  0  0  0  0
  -21.4403  -24.9187   22.7832 C   0  0  0  0  0  0  0  0  0  0  0  0
  -24.2473  -15.0708   25.9738 C   0  0  0  0  0  0  0  0  0  0  0  0
  -22.1126  -15.5078   24.9301 C   0  0  0  0  0  0  0  0  0  0  0  0
  -19.1790  -25.2614   23.5477 C   0  0  0  0  0  0  0  0  0  0  0  0
  -21.4422  -26.1965   22.2248 C   0  0  0  0  0  0  0  0  0  0  0  0
  -25.7034  -28.7453   23.2200 C   0  0  0  0  0  0  0  0  0  0  0  0
  -23.6005  -14.7797   27.1749 C   0  0  0  0  0  0  0  0  0  0  0  0
  -21.4658  -15.2166   26.1311 C   0  0  0  0  0  0  0  0  0  0  0  0
  -26.8299  -28.4217   22.4651 C   0  0  0  0  0  0  0  0  0  0  0  0
  -20.5583  -12.4618   27.8654 C   0  0  0  0  0  0  0  0  0  0  0  0
  -19.4296  -11.6442   27.8102 C   0  0  0  0  0  0  0  0  0  0  0  0
  -30.2702  -23.0229   18.2415 C   0  0  0  0  0  0  0  0  0  0  0  0
  -31.8286  -23.9013   16.6176 C   0  0  0  0  0  0  0  0  0  0  0  0
  -31.6792  -21.5177   16.9821 C   0  0  0  0  0  0  0  0  0  0  0  0
  -26.4406  -30.3498   21.0686 C   0  0  0  0  0  0  0  0  0  0  0  0
  -18.0978  -13.4182   28.7676 C   0  0  0  0  0  0  0  0  0  0  0  0
  -23.5034  -15.4349   24.8514 C   0  0  0  0  0  0  0  0  0  0  0  0
  -30.8395  -24.1103   17.5787 C   0  0  0  0  0  0  0  0  0  0  0  0
  -30.6901  -21.7266   17.9432 C   0  0  0  0  0  0  0  0  0  0  0  0
  -24.4917  -14.8357   22.5773 C   0  0  0  0  0  0  0  0  0  0  0  0
  -19.1703  -26.5534   22.9988 C   0  0  0  0  0  0  0  0  0  0  0  0
  -24.9294  -29.8694   22.8976 C   0  0  0  0  0  0  0  0  0  0  0  0
  -20.3106  -27.0243   22.3202 C   0  0  0  0  0  0  0  0  0  0  0  0
  -25.3062  -30.6870   21.8226 C   0  0  0  0  0  0  0  0  0  0  0  0
  -32.2484  -22.6050   16.3193 C   0  0  0  0  0  0  0  0  0  0  0  0
  -22.2097  -14.8526   27.2535 C   0  0  0  0  0  0  0  0  0  0  0  0
  -27.1971  -29.2223   21.3874 C   0  0  0  0  0  0  0  0  0  0  0  0
  -20.4568  -13.7576   28.3718 C   0  0  0  0  0  0  0  0  0  0  0  0
  -18.1993  -12.1224   28.2613 C   0  0  0  0  0  0  0  0  0  0  0  0
  -19.2266  -14.2358   28.8228 C   0  0  0  0  0  0  0  0  0  0  0  0
  -24.1710  -15.7363   23.6107 C   0  0  0  0  0  0  0  0  0  0  0  0
  -25.1133  -15.6096   21.6280 C   0  0  0  0  0  0  0  0  0  0  0  0
  -30.3956  -25.4797   17.8934 C   0  0  0  0  0  0  0  0  0  0  0  0
  -30.0962  -20.5926   18.6339 C   0  0  0  0  0  0  0  0  0  0  0  0
  -29.7624  -25.8346   19.0202 C   0  0  0  0  0  0  0  0  0  0  0  0
  -29.4376  -20.6499   19.8110 C   0  0  0  0  0  0  0  0  0  0  0  0
  -24.2493  -13.4257   22.4838 C   0  0  0  0  0  0  0  0  0  0  0  0
  -29.3451  -27.2501   19.2388 C   0  0  0  0  0  0  0  0  0  0  0  0
  -28.8805  -19.4071   20.3818 C   0  0  0  0  0  0  0  0  0  0  0  0
  -21.9186  -30.3347   21.9910 C   0  0  0  0  0  0  0  0  0  0  0  0
  -22.7189  -33.4630   22.2999 C   0  0  0  0  0  0  0  0  0  0  0  0
  -25.1709  -35.8364   22.3349 C   0  0  0  0  0  0  0  0  0  0  0  0
  -17.9090  -27.3747   23.0951 C   0  0  0  0  0  0  0  0  0  0  0  0
  -23.7324  -30.2200   23.7382 C   0  0  0  0  0  0  0  0  0  0  0  0
  -24.5206  -31.9161   21.4477 C   0  0  0  0  0  0  0  0  0  0  0  0
  -18.1236  -28.8573   22.8018 C   0  0  0  0  0  0  0  0  0  0  0  0
  -25.5174  -20.6174   21.1922 C   0  0  0  0  0  0  0  0  0  0  0  0
  -18.9696  -29.0359   21.5451 C   0  0  0  0  0  0  0  0  0  0  0  0
  -24.9129  -19.3826   21.8553 C   0  0  0  0  0  0  0  0  0  0  0  0
  -27.0111  -20.7502   21.4853 C   0  0  0  0  0  0  0  0  0  0  0  0
  -27.1935  -18.2984   21.7951 C   0  0  0  0  0  0  0  0  0  0  0  0
  -20.3599  -28.4139   21.7230 C   0  0  1  0  0  0  0  0  0  0  0  0
  -22.7235  -31.0980   23.0045 C   0  0  1  0  0  0  0  0  0  0  0  0
  -25.7013  -18.1194   21.4748 C   0  0  1  0  0  0  0  0  0  0  0  0
  -33.3054  -22.3813   15.2912 C   0  0  0  0  0  0  0  0  0  0  0  0
  -25.5139  -38.3111   22.5708 C   0  0  0  0  0  0  0  0  0  0  0  0
  -21.7205  -33.8711   19.4457 C   0  0  0  0  0  0  0  0  0  0  0  0
  -22.9361  -36.0594   19.4075 C   0  0  0  0  0  0  0  0  0  0  0  0
  -21.0883  -35.6895   21.0420 C   0  0  0  0  0  0  0  0  0  0  0  0
  -26.8350  -35.4920   24.7579 C   0  0  0  0  0  0  0  0  0  0  0  0
  -28.6385  -27.5267   20.5490 C   0  0  0  0  0  0  0  0  0  1  0  0
  -23.3000  -34.5133   21.3844 C   0  0  1  0  0  0  0  0  0  0  0  0
  -25.4562  -36.9759   23.2965 C   0  0  2  0  0  0  0  0  0  0  0  0
  -22.2751  -35.0092   20.3255 C   0  0  0  0  0  0  0  0  0  0  0  0
  -24.5571  -16.9867   23.3432 N   0  0  0  0  0  0  0  0  0  0  0  0
  -25.1270  -16.8773   22.1310 N   0  0  0  0  0  0  0  0  0  0  0  0
  -27.7343  -19.5096   21.1680 N   0  0  0  0  0  0  0  0  0  0  0  0
  -23.3547  -32.2134   22.2961 N   0  0  0  0  0  0  0  0  0  0  0  0
  -25.6442  -15.3226   20.4204 N   0  0  0  0  0  0  0  0  0  0  0  0
  -23.5988  -12.7875   23.5487 N   0  0  0  0  0  0  0  0  0  0  0  0
  -21.2022  -29.2787   22.5212 N   0  0  0  0  0  0  0  0  0  0  0  0
  -23.8216  -35.5657   22.2498 N   0  0  0  0  0  0  0  0  0  0  0  0
  -26.7599  -36.7585   23.9850 N   0  3  0  0  0  0  0  0  0  0  0  0
  -24.6138  -12.7487   21.4927 O   0  0  0  0  0  0  0  0  0  0  0  0
  -29.5621  -28.1296   18.4096 O   0  0  0  0  0  0  0  0  0  0  0  0
  -29.4678  -18.3531   20.1312 O   0  0  0  0  0  0  0  0  0  0  0  0
  -21.9444  -30.6792   20.8152 O   0  0  0  0  0  0  0  0  0  0  0  0
  -21.7414  -33.7433   22.9982 O   0  0  0  0  0  0  0  0  0  0  0  0
  -26.0562  -35.2480   21.7180 O   0  0  0  0  0  0  0  0  0  0  0  0
  -21.5782  -14.5683   28.4252 O   0  0  0  0  0  0  0  0  0  0  0  0
  -28.2959  -28.9083   20.6485 O   0  0  0  0  0  0  0  0  0  1  0  0
  -17.1151  -11.3377   28.2068 F   0  0  0  0  0  0  0  0  0  0  0  0
  -19.1226  -15.4801   29.3092 F   0  0  0  0  0  0  0  0  0  0  0  0
  1  2  1  0  0  0  0
  1  5  2  0  0  0  0
  2  6  2  0  0  0  0
  3  8  2  0  0  0  0
  3 18  1  0  0  0  0
  4  9  1  0  0  0  0
  4 18  2  0  0  0  0
  5 22  1  0  0  0  0
  6 24  1  0  0  0  0
  7 10  2  0  0  0  0
  7 23  1  0  0  0  0
  8 27  1  0  0  0  0
  9 27  2  0  0  0  0
 10 28  1  0  0  0  0
 11 12  2  0  0  0  0
 11 29  1  0  0  0  0
 12 30  1  0  0  0  0
 13 19  2  0  0  0  0
 13 20  1  0  0  0  0
 14 19  1  0  0  0  0
 14 26  2  0  0  0  0
 15 20  2  0  0  0  0
 15 26  1  0  0  0  0
 16 25  1  0  0  0  0
 16 28  2  0  0  0  0
 17 30  2  0  0  0  0
 17 31  1  0  0  0  0
 18 32  1  0  0  0  0
 19 34  1  0  0  0  0
 20 35  1  0  0  0  0
 21 32  1  0  0  0  0
 21 33  2  0  0  0  0
 21 38  1  0  0  0  0
 22 24  2  0  0  0  0
 22 44  1  0  0  0  0
 23 25  2  0  0  0  0
 23 45  1  0  0  0  0
 24 53  1  0  0  0  0
 25 46  1  0  0  0  0
 26 56  1  0  0  0  0
 27 81  1  0  0  0  0
 28 82  1  0  0  0  0
 29 31  2  0  0  0  0
 29 81  1  0  0  0  0
 30 83  1  0  0  0  0
 31 84  1  0  0  0  0
 32 66  2  0  0  0  0
 33 67  1  0  0  0  0
 33 70  1  0  0  0  0
 34 36  2  0  0  0  0
 35 37  2  0  0  0  0
 36 39  1  0  0  0  0
 37 40  1  0  0  0  0
 38 71  1  0  0  0  0
 38 75  2  0  0  0  0
 39 62  1  0  0  0  0
 39 76  2  0  0  0  0
 40 68  1  0  0  0  0
 40 77  2  0  0  0  0
 41 54  1  0  0  0  0
 41 72  1  0  0  0  0
 41 78  2  0  0  0  0
 42 63  1  0  0  0  0
 42 69  1  0  0  0  0
 42 79  2  0  0  0  0
 43 64  1  0  0  0  0
 43 73  1  0  0  0  0
 43 80  2  0  0  0  0
 44 47  1  0  0  0  0
 45 54  1  0  0  0  0
 46 69  1  0  0  0  0
 47 49  1  0  0  0  0
 48 50  1  0  0  0  0
 48 51  1  0  0  0  0
 49 53  1  0  0  0  0
 50 55  1  0  0  0  0
 51 68  1  0  0  0  0
 52 55  1  0  0  0  0
 52 68  1  0  0  0  0
 53 72  1  0  0  0  0
 54 69  1  0  0  0  0
 55 67  1  0  0  0  0
 57 64  1  0  0  0  0
 58 65  1  0  0  0  0
 59 65  1  0  0  0  0
 60 65  1  0  0  0  0
 61 74  1  0  0  0  0
 62 82  1  0  0  0  0
 63 65  1  0  0  0  0
 63 73  1  0  0  0  0
 64 74  1  0  0  0  0
 66 67  1  0  0  0  0
M  CHG  1  74   1
M  ISO  4  37 100  40 100  62 101  82 101
M  END
> <Batch ID>
0129

> <Smiles>
CNC(C)C(=O)NC(C(=O)N1Cc2cc([101O:1][101CH2:1]C(=O)C=Cc3cc(C)cc(C=[100CH:0][100C:0](=O)N4CCCC(n5nc(-c6ccc(Oc7ccc(F)cc7F)cc6)c(C(N)=O)c5N)C4)c3)ccc2CC1C(=O)NC1CCCc2ccccc21)C(C)(C)C

> <Shape>
0.218

> <Color>
0.120

> <Negative vol penalty>
0.000

$$$$

  -OEChem-04052302193D

 84 92  0     1  0  0  0  0  0999 V2000
  -30.5767  -22.4090   22.7970 C   0  0  0  0  0  0  0  0  0  0  0  0
  -29.2010  -22.5561   22.6512 C   0  0  0  0  0  0  0  0  0  0  0  0
  -28.5270  -28.9485   20.2211 C   0  0  0  0  0  0  0  0  0  0  0  0
  -27.0964  -27.0026   20.1585 C   0  0  0  0  0  0  0  0  0  0  0  0
  -31.2450  -21.3965   22.1098 C   0  0  0  0  0  0  0  0  0  0  0  0
  -28.4930  -21.6915   21.8172 C   0  0  0  0  0  0  0  0  0  0  0  0
  -24.1989  -20.0362   23.9306 C   0  0  0  0  0  0  0  0  0  0  0  0
  -29.6307  -28.1464   19.9308 C   0  0  0  0  0  0  0  0  0  0  0  0
  -28.2000  -26.2005   19.8682 C   0  0  0  0  0  0  0  0  0  0  0  0
  -23.1129  -20.9104   23.9343 C   0  0  0  0  0  0  0  0  0  0  0  0
  -30.5849  -23.6926   18.7543 C   0  0  0  0  0  0  0  0  0  0  0  0
  -30.4480  -22.7409   17.7438 C   0  0  0  0  0  0  0  0  0  0  0  0
  -22.1855  -19.7569   22.0294 C   0  0  0  0  0  0  0  0  0  0  0  0
  -19.1128  -27.4217   21.2236 C   0  0  0  0  0  0  0  0  0  0  0  0
  -19.6854  -28.8306   23.1009 C   0  0  0  0  0  0  0  0  0  0  0  0
  -18.8178  -26.6077   23.4792 C   0  0  0  0  0  0  0  0  0  0  0  0
  -29.9551  -24.4956   16.1579 C   0  0  0  0  0  0  0  0  0  0  0  0
  -27.2599  -28.3765   20.3350 C   0  0  0  0  0  0  0  0  0  0  0  0
  -25.2751  -29.8546   19.7157 C   0  0  0  0  0  0  0  0  0  0  0  0
  -30.5434  -20.5131   21.2744 C   0  0  0  0  0  0  0  0  0  0  0  0
  -24.2920  -19.0209   22.9678 C   0  0  0  0  0  0  0  0  0  0  0  0
  -29.1527  -20.6672   21.1171 C   0  0  0  0  0  0  0  0  0  0  0  0
  -23.2725  -18.8695   22.0172 C   0  0  0  0  0  0  0  0  0  0  0  0
  -19.5928  -28.6323   21.7233 C   0  0  0  0  0  0  0  0  0  0  0  0
  -18.7252  -26.4094   22.1016 C   0  0  0  0  0  0  0  0  0  0  0  0
  -19.2979  -27.8183   23.9788 C   0  0  0  0  0  0  0  0  0  0  0  0
  -29.4672  -26.7725   19.7543 C   0  0  0  0  0  0  0  0  0  0  0  0
  -22.1074  -20.7727   22.9819 C   0  0  0  0  0  0  0  0  0  0  0  0
  -30.4068  -25.0458   18.4667 C   0  0  0  0  0  0  0  0  0  0  0  0
  -30.1332  -23.1424   16.4456 C   0  0  0  0  0  0  0  0  0  0  0  0
  -30.0920  -25.4473   17.1685 C   0  0  0  0  0  0  0  0  0  0  0  0
  -26.1195  -29.2045   20.6355 C   0  0  0  0  0  0  0  0  0  0  0  0
  -24.3529  -30.5064   20.4975 C   0  0  0  0  0  0  0  0  0  0  0  0
  -19.3020  -24.0974   21.3432 C   0  0  0  0  0  0  0  0  0  0  0  0
  -19.3364  -22.8924   21.9314 C   0  0  0  0  0  0  0  0  0  0  0  0
  -25.3202  -29.8681   18.2827 C   0  0  0  0  0  0  0  0  0  0  0  0
  -26.3449  -18.3118   20.6469 C   0  0  0  0  0  0  0  0  0  0  0  0
  -24.5156  -15.6468   20.3748 C   0  0  0  0  0  0  0  0  0  0  0  0
  -21.4945  -14.1424   20.8811 C   0  0  0  0  0  0  0  0  0  0  0  0
  -22.2961  -29.5433   26.0376 C   0  0  0  0  0  0  0  0  0  0  0  0
  -31.3161  -19.4637   20.5152 C   0  0  0  0  0  0  0  0  0  0  0  0
  -25.4567  -18.0693   22.9938 C   0  0  0  0  0  0  0  0  0  0  0  0
  -23.3151  -17.7832   20.9748 C   0  0  0  0  0  0  0  0  0  0  0  0
  -30.4369  -18.3548   19.9430 C   0  0  0  0  0  0  0  0  0  0  0  0
  -23.8491  -32.5048   24.8153 C   0  0  0  0  0  0  0  0  0  0  0  0
  -29.2135  -18.9472   19.2507 C   0  0  0  0  0  0  0  0  0  0  0  0
  -24.5309  -32.0535   23.5225 C   0  0  0  0  0  0  0  0  0  0  0  0
  -23.9043  -31.4217   25.8903 C   0  0  0  0  0  0  0  0  0  0  0  0
  -24.0653  -29.6554   24.1791 C   0  0  0  0  0  0  0  0  0  0  0  0
  -28.3460  -19.7336   20.2409 C   0  0  1  0  0  0  0  0  0  0  0  0
  -25.7057  -17.3929   21.6493 C   0  0  1  0  0  0  0  0  0  0  0  0
  -23.9861  -30.6933   23.0465 C   0  0  2  0  0  0  0  0  0  0  0  0
  -20.0073  -29.7142   20.7840 C   0  0  0  0  0  0  0  0  0  0  0  0
  -20.2905  -11.9703   20.5208 C   0  0  0  0  0  0  0  0  0  0  0  0
  -24.2120  -16.3094   17.4119 C   0  0  0  0  0  0  0  0  0  0  0  0
  -22.2884  -14.7094   17.3227 C   0  0  0  0  0  0  0  0  0  0  0  0
  -24.5687  -13.8842   17.9074 C   0  0  0  0  0  0  0  0  0  0  0  0
  -21.0590  -13.7686   23.7845 C   0  0  0  0  0  0  0  0  0  0  0  0
  -18.2065  -25.1001   21.5619 C   0  0  0  0  0  0  0  0  0  0  0  0
  -19.3971  -28.0307   25.4518 C   0  0  0  0  0  0  0  0  0  0  0  0
  -20.4326  -21.8993   21.7243 C   0  0  0  0  0  0  0  0  0  1  0  0
  -20.7458  -27.6053   26.0442 C   0  0  0  0  0  0  0  0  0  0  0  0
  -23.2844  -15.2712   19.5862 C   0  0  1  0  0  0  0  0  0  0  0  0
  -21.1268  -12.7985   21.4838 C   0  0  2  0  0  0  0  0  0  0  0  0
  -23.5882  -15.0653   18.0754 C   0  0  0  0  0  0  0  0  0  0  0  0
  -25.7653  -29.4234   21.9046 N   0  0  0  0  0  0  0  0  0  0  0  0
  -24.6882  -30.2186   21.7878 N   0  0  0  0  0  0  0  0  0  0  0  0
  -24.4774  -16.8818   21.0376 N   0  0  0  0  0  0  0  0  0  0  0  0
  -23.3718  -30.1578   25.3755 N   0  0  0  0  0  0  0  0  0  0  0  0
  -23.2962  -31.2921   20.2002 N   0  0  0  0  0  0  0  0  0  0  0  0
  -26.3336  -29.1447   17.6393 N   0  0  0  0  0  0  0  0  0  0  0  0
  -27.5600  -18.8296   21.0529 N   0  0  0  0  0  0  0  0  0  0  0  0
  -22.7181  -14.1001   20.2468 N   0  0  0  0  0  0  0  0  0  0  0  0
  -21.8484  -28.3517   25.4803 N   0  0  0  0  0  0  0  0  0  0  0  0
  -20.3466  -12.9898   22.7390 N   0  3  0  0  0  0  0  0  0  0  0  0
  -24.4964  -30.5163   17.5936 O   0  0  0  0  0  0  0  0  0  0  0  0
  -25.7783  -18.5334   19.5831 O   0  0  0  0  0  0  0  0  0  0  0  0
  -25.4731  -14.8698   20.4076 O   0  0  0  0  0  0  0  0  0  0  0  0
  -20.7671  -15.1298   20.9614 O   0  0  0  0  0  0  0  0  0  0  0  0
  -21.7700  -30.0238   27.0472 O   0  0  0  0  0  0  0  0  0  0  0  0
  -30.5439  -25.9895   19.4708 O   0  0  0  0  0  0  0  0  0  0  0  0
  -21.0466  -21.6250   22.9829 O   0  0  0  0  0  0  0  0  0  1  0  0
  -30.0032  -22.2285   15.4751 F   0  0  0  0  0  0  0  0  0  0  0  0
  -29.9208  -26.7460   16.8858 F   0  0  0  0  0  0  0  0  0  0  0  0
  1  2  1  0  0  0  0
  1  5  2  0  0  0  0
  2  6  2  0  0  0  0
  3  8  2  0  0  0  0
  3 18  1  0  0  0  0
  4  9  1  0  0  0  0
  4 18  2  0  0  0  0
  5 20  1  0  0  0  0
  6 22  1  0  0  0  0
  7 10  2  0  0  0  0
  7 21  1  0  0  0  0
  8 27  1  0  0  0  0
  9 27  2  0  0  0  0
 10 28  1  0  0  0  0
 11 12  2  0  0  0  0
 11 29  1  0  0  0  0
 12 30  1  0  0  0  0
 13 23  1  0  0  0  0
 13 28  2  0  0  0  0
 14 24  2  0  0  0  0
 14 25  1  0  0  0  0
 15 24  1  0  0  0  0
 15 26  2  0  0  0  0
 16 25  2  0  0  0  0
 16 26  1  0  0  0  0
 17 30  2  0  0  0  0
 17 31  1  0  0  0  0
 18 32  1  0  0  0  0
 19 32  1  0  0  0  0
 19 33  2  0  0  0  0
 19 36  1  0  0  0  0
 20 22  2  0  0  0  0
 20 41  1  0  0  0  0
 21 23  2  0  0  0  0
 21 42  1  0  0  0  0
 22 50  1  0  0  0  0
 23 43  1  0  0  0  0
 24 53  1  0  0  0  0
 25 59  1  0  0  0  0
 26 60  1  0  0  0  0
 27 81  1  0  0  0  0
 28 82  1  0  0  0  0
 29 31  2  0  0  0  0
 29 81  1  0  0  0  0
 30 83  1  0  0  0  0
 31 84  1  0  0  0  0
 32 66  2  0  0  0  0
 33 67  1  0  0  0  0
 33 70  1  0  0  0  0
 34 35  2  0  0  0  0
 34 59  1  0  0  0  0
 35 61  1  0  0  0  0
 36 71  1  0  0  0  0
 36 76  2  0  0  0  0
 37 51  1  0  0  0  0
 37 72  1  0  0  0  0
 37 77  2  0  0  0  0
 38 63  1  0  0  0  0
 38 68  1  0  0  0  0
 38 78  2  0  0  0  0
 39 64  1  0  0  0  0
 39 73  1  0  0  0  0
 39 79  2  0  0  0  0
 40 69  1  0  0  0  0
 40 74  1  0  0  0  0
 40 80  2  0  0  0  0
 41 44  1  0  0  0  0
 42 51  1  0  0  0  0
 43 68  1  0  0  0  0
 44 46  1  0  0  0  0
 45 47  1  0  0  0  0
 45 48  1  0  0  0  0
 46 50  1  0  0  0  0
 47 52  1  0  0  0  0
 48 69  1  0  0  0  0
 49 52  1  0  0  0  0
 49 69  1  0  0  0  0
 50 72  1  0  0  0  0
 51 68  1  0  0  0  0
 52 67  1  0  0  0  0
 54 64  1  0  0  0  0
 55 65  1  0  0  0  0
 56 65  1  0  0  0  0
 57 65  1  0  0  0  0
 58 75  1  0  0  0  0
 60 62  1  0  0  0  0
 61 82  1  0  0  0  0
 62 74  1  0  0  0  0
 63 65  1  0  0  0  0
 63 73  1  0  0  0  0
 64 75  1  0  0  0  0
 66 67  1  0  0  0  0
M  CHG  1  75   1
M  ISO  4  40 100  61 101  74 100  82 101
M  END
> <Batch ID>
0129

> <Smiles>
CNC(C)C(=O)NC(C(=O)N1Cc2cc([101O:1][101CH2:1]C=CCc3cc(C)cc(CC[100NH:0][100C:0](=O)N4CCCC(n5nc(-c6ccc(Oc7ccc(F)cc7F)cc6)c(C(N)=O)c5N)C4)c3)ccc2CC1C(=O)NC1CCCc2ccccc21)C(C)(C)C

> <Shape>
0.231

> <Color>
0.065

> <Negative vol penalty>
0.000

$$$$

  -OEChem-04052302193D

 84 92  0     1  0  0  0  0  0999 V2000
  -26.5004  -19.1542   24.7834 C   0  0  0  0  0  0  0  0  0  0  0  0
  -26.8329  -20.0943   23.8133 C   0  0  0  0  0  0  0  0  0  0  0  0
  -23.5709  -12.3738   19.5983 C   0  0  0  0  0  0  0  0  0  0  0  0
  -25.0386  -12.1217   21.5007 C   0  0  0  0  0  0  0  0  0  0  0  0
  -31.3407  -22.7738   17.0868 C   0  0  0  0  0  0  0  0  0  0  0  0
  -25.1819  -19.0443   25.2231 C   0  0  0  0  0  0  0  0  0  0  0  0
  -25.8466  -20.9243   23.2815 C   0  0  0  0  0  0  0  0  0  0  0  0
  -27.3410  -25.7516   22.9508 C   0  0  0  0  0  0  0  0  0  0  0  0
  -31.9074  -21.5131   17.2743 C   0  0  0  0  0  0  0  0  0  0  0  0
  -23.3637  -10.9946   19.5754 C   0  0  0  0  0  0  0  0  0  0  0  0
  -24.8313  -10.7425   21.4779 C   0  0  0  0  0  0  0  0  0  0  0  0
  -28.1835  -26.0862   21.8917 C   0  0  0  0  0  0  0  0  0  0  0  0
  -24.4048   -7.1942   22.1452 C   0  0  0  0  0  0  0  0  0  0  0  0
  -24.1586   -6.5544   23.3599 C   0  0  0  0  0  0  0  0  0  0  0  0
  -26.2966  -26.9738   20.6789 C   0  0  0  0  0  0  0  0  0  0  0  0
  -32.7583  -22.2152   19.4238 C   0  0  0  0  0  0  0  0  0  0  0  0
  -22.1956   -7.9250   23.6841 C   0  0  0  0  0  0  0  0  0  0  0  0
  -24.4084  -12.9374   20.5609 C   0  0  0  0  0  0  0  0  0  0  0  0
  -31.4830  -23.7553   18.0678 C   0  0  0  0  0  0  0  0  0  0  0  0
  -23.8745  -15.3229   21.2901 C   0  0  0  0  0  0  0  0  0  0  0  0
  -24.1808  -19.8800   24.7034 C   0  0  0  0  0  0  0  0  0  0  0  0
  -25.9658  -26.0162   22.8773 C   0  0  0  0  0  0  0  0  0  0  0  0
  -24.5132  -20.8246   23.7137 C   0  0  0  0  0  0  0  0  0  0  0  0
  -25.4391  -26.6439   21.7395 C   0  0  0  0  0  0  0  0  0  0  0  0
  -32.6161  -21.2338   18.4428 C   0  0  0  0  0  0  0  0  0  0  0  0
  -32.1917  -23.4760   19.2363 C   0  0  0  0  0  0  0  0  0  0  0  0
  -23.9939  -10.1790   20.5152 C   0  0  0  0  0  0  0  0  0  0  0  0
  -27.6610  -26.6947   20.7543 C   0  0  0  0  0  0  0  0  0  0  0  0
  -23.5464   -8.1995   21.6999 C   0  0  0  0  0  0  0  0  0  0  0  0
  -23.0541   -6.9197   24.1294 C   0  0  0  0  0  0  0  0  0  0  0  0
  -22.4418   -8.5649   22.4693 C   0  0  0  0  0  0  0  0  0  0  0  0
  -24.6233  -14.3619   20.5848 C   0  0  0  0  0  0  0  0  0  0  0  0
  -24.4767  -16.5191   20.9850 C   0  0  0  0  0  0  0  0  0  0  0  0
  -30.8734  -25.0760   17.8398 C   0  0  0  0  0  0  0  0  0  0  0  0
  -29.5666  -25.2981   17.6283 C   0  0  0  0  0  0  0  0  0  0  0  0
  -22.7363  -15.1498   22.1446 C   0  0  0  0  0  0  0  0  0  0  0  0
  -23.3335  -24.2348   22.9190 C   0  0  0  0  0  0  0  0  0  0  0  0
  -30.0364  -17.7617   19.3055 C   0  0  0  0  0  0  0  0  0  0  0  0
  -21.8511  -27.1196   22.9758 C   0  0  0  0  0  0  0  0  0  0  0  0
  -21.9788  -30.4569   22.2737 C   0  0  0  0  0  0  0  0  0  0  0  0
  -22.7608  -19.6920   25.1755 C   0  0  0  0  0  0  0  0  0  0  0  0
  -25.0745  -25.6734   24.0395 C   0  0  0  0  0  0  0  0  0  0  0  0
  -23.9731  -26.9677   21.6195 C   0  0  0  0  0  0  0  0  0  0  0  0
  -21.8447  -20.8639   24.8327 C   0  0  0  0  0  0  0  0  0  0  0  0
  -26.9895  -18.6861   17.5480 C   0  0  0  0  0  0  0  0  0  0  0  0
  -22.0391  -21.2863   23.3799 C   0  0  0  0  0  0  0  0  0  0  0  0
  -25.9717  -17.7389   18.1819 C   0  0  0  0  0  0  0  0  0  0  0  0
  -28.3603  -18.0282   17.4130 C   0  0  0  0  0  0  0  0  0  0  0  0
  -27.8834  -16.5430   19.3343 C   0  0  0  0  0  0  0  0  0  0  0  0
  -23.4762  -21.7598   23.1306 C   0  0  1  0  0  0  0  0  0  0  0  0
  -23.6089  -25.5217   23.6441 C   0  0  1  0  0  0  0  0  0  0  0  0
  -26.4951  -17.1790   19.5161 C   0  0  2  0  0  0  0  0  0  0  0  0
  -32.3645  -24.5033   20.3085 C   0  0  0  0  0  0  0  0  0  0  0  0
  -20.6003  -32.5501   22.3978 C   0  0  0  0  0  0  0  0  0  0  0  0
  -20.2388  -26.1985   20.5546 C   0  0  0  0  0  0  0  0  0  0  0  0
  -19.6062  -28.5877   20.1545 C   0  0  0  0  0  0  0  0  0  0  0  0
  -18.9209  -27.4551   22.2689 C   0  0  0  0  0  0  0  0  0  0  0  0
  -23.9201  -31.7665   24.0834 C   0  0  0  0  0  0  0  0  0  0  0  0
  -33.2207  -19.8856   18.6444 C   0  0  0  0  0  0  0  0  0  0  0  0
  -28.9870  -26.6650   17.3867 C   0  0  0  0  0  0  0  0  0  0  0  0
  -30.9576  -18.7011   18.5687 C   0  0  0  0  0  0  0  0  0  0  0  0
  -32.2543  -18.9138   19.3436 C   0  0  0  0  0  0  0  0  0  0  0  0
  -27.9116  -27.0095   18.4103 C   0  0  0  0  0  0  0  0  0  1  0  0
  -21.3463  -28.0829   21.9289 C   0  0  1  0  0  0  0  0  0  0  0  0
  -21.6233  -31.6756   23.1060 C   0  0  2  0  0  0  0  0  0  0  0  0
  -20.0554  -27.5733   21.2279 C   0  0  0  0  0  0  0  0  0  0  0  0
  -25.6247  -14.9010   19.8843 N   0  0  0  0  0  0  0  0  0  0  0  0
  -25.5092  -16.2137   20.1479 N   0  0  0  0  0  0  0  0  0  0  0  0
  -23.1415  -26.6073   22.7797 N   0  0  0  0  0  0  0  0  0  0  0  0
  -28.8111  -17.4835   18.6993 N   0  0  0  0  0  0  0  0  0  0  0  0
  -24.2184  -17.7917   21.3538 N   0  0  0  0  0  0  0  0  0  0  0  0
  -22.2461  -13.8530   22.3501 N   0  0  0  0  0  0  0  0  0  0  0  0
  -23.6614  -23.1020   23.6392 N   0  0  0  0  0  0  0  0  0  0  0  0
  -21.1943  -29.3703   22.5982 N   0  0  0  0  0  0  0  0  0  0  0  0
  -22.8397  -32.4951   23.3701 N   0  3  0  0  0  0  0  0  0  0  0  0
  -22.1607  -16.1183   22.6963 O   0  0  0  0  0  0  0  0  0  0  0  0
  -22.8574  -24.2672   21.7903 O   0  0  0  0  0  0  0  0  0  0  0  0
  -30.3957  -17.2924   20.3885 O   0  0  0  0  0  0  0  0  0  0  0  0
  -21.1300  -26.8376   23.9361 O   0  0  0  0  0  0  0  0  0  0  0  0
  -22.8613  -30.4686   21.4184 O   0  0  0  0  0  0  0  0  0  0  0  0
  -23.7917   -8.8332   20.4933 O   0  0  0  0  0  0  0  0  0  0  0  0
  -28.4811  -27.0218   19.7187 O   0  0  0  0  0  0  0  0  0  1  0  0
  -22.8169   -6.3042   25.2951 F   0  0  0  0  0  0  0  0  0  0  0  0
  -21.6129   -9.5291   22.0462 F   0  0  0  0  0  0  0  0  0  0  0  0
  1  2  1  0  0  0  0
  1  6  2  0  0  0  0
  2  7  2  0  0  0  0
  3 10  2  0  0  0  0
  3 18  1  0  0  0  0
  4 11  1  0  0  0  0
  4 18  2  0  0  0  0
  5  9  2  0  0  0  0
  5 19  1  0  0  0  0
  6 21  1  0  0  0  0
  7 23  1  0  0  0  0
  8 12  2  0  0  0  0
  8 22  1  0  0  0  0
  9 25  1  0  0  0  0
 10 27  1  0  0  0  0
 11 27  2  0  0  0  0
 12 28  1  0  0  0  0
 13 14  2  0  0  0  0
 13 29  1  0  0  0  0
 14 30  1  0  0  0  0
 15 24  1  0  0  0  0
 15 28  2  0  0  0  0
 16 25  2  0  0  0  0
 16 26  1  0  0  0  0
 17 30  2  0  0  0  0
 17 31  1  0  0  0  0
 18 32  1  0  0  0  0
 19 26  2  0  0  0  0
 19 34  1  0  0  0  0
 20 32  1  0  0  0  0
 20 33  2  0  0  0  0
 20 36  1  0  0  0  0
 21 23  2  0  0  0  0
 21 41  1  0  0  0  0
 22 24  2  0  0  0  0
 22 42  1  0  0  0  0
 23 50  1  0  0  0  0
 24 43  1  0  0  0  0
 25 59  1  0  0  0  0
 26 53  1  0  0  0  0
 27 81  1  0  0  0  0
 28 82  1  0  0  0  0
 29 31  2  0  0  0  0
 29 81  1  0  0  0  0
 30 83  1  0  0  0  0
 31 84  1  0  0  0  0
 32 67  2  0  0  0  0
 33 68  1  0  0  0  0
 33 71  1  0  0  0  0
 34 35  2  0  0  0  0
 35 60  1  0  0  0  0
 36 72  1  0  0  0  0
 36 76  2  0  0  0  0
 37 51  1  0  0  0  0
 37 73  1  0  0  0  0
 37 77  2  0  0  0  0
 38 61  1  0  0  0  0
 38 70  1  0  0  0  0
 38 78  2  0  0  0  0
 39 64  1  0  0  0  0
 39 69  1  0  0  0  0
 39 79  2  0  0  0  0
 40 65  1  0  0  0  0
 40 74  1  0  0  0  0
 40 80  2  0  0  0  0
 41 44  1  0  0  0  0
 42 51  1  0  0  0  0
 43 69  1  0  0  0  0
 44 46  1  0  0  0  0
 45 47  1  0  0  0  0
 45 48  1  0  0  0  0
 46 50  1  0  0  0  0
 47 52  1  0  0  0  0
 48 70  1  0  0  0  0
 49 52  1  0  0  0  0
 49 70  1  0  0  0  0
 50 73  1  0  0  0  0
 51 69  1  0  0  0  0
 52 68  1  0  0  0  0
 54 65  1  0  0  0  0
 55 66  1  0  0  0  0
 56 66  1  0  0  0  0
 57 66  1  0  0  0  0
 58 75  1  0  0  0  0
 59 62  1  0  0  0  0
 60 63  1  0  0  0  0
 61 62  1  0  0  0  0
 63 82  1  0  0  0  0
 64 66  1  0  0  0  0
 64 74  1  0  0  0  0
 65 75  1  0  0  0  0
 67 68  1  0  0  0  0
M  CHG  1  75   1
M  ISO  4  38 100  61 100  63 101  82 101
M  END
> <Batch ID>
0129

> <Smiles>
CNC(C)C(=O)NC(C(=O)N1Cc2cc([101O:1][101CH2:1]CC=Cc3ccc(CC[100CH2:0][100C:0](=O)N4CCCC(n5nc(-c6ccc(Oc7ccc(F)cc7F)cc6)c(C(N)=O)c5N)C4)cc3C)ccc2CC1C(=O)NC1CCCc2ccccc21)C(C)(C)C

> <Shape>
0.204

> <Color>
0.071

> <Negative vol penalty>
0.000

$$$$

  -OEChem-04052302193D

 82 90  0     1  0  0  0  0  0999 V2000
  -18.2878  -33.2673   24.1613 C   0  0  0  0  0  0  0  0  0  0  0  0
  -19.5113  -33.4365   23.5211 C   0  0  0  0  0  0  0  0  0  0  0  0
  -30.8565  -26.8888   26.9695 C   0  0  0  0  0  0  0  0  0  0  0  0
  -29.1991  -16.7442   19.6731 C   0  0  0  0  0  0  0  0  0  0  0  0
  -26.8348  -17.1563   19.3948 C   0  0  0  0  0  0  0  0  0  0  0  0
  -30.5548  -25.5349   27.1152 C   0  0  0  0  0  0  0  0  0  0  0  0
  -17.9991  -32.0641   24.8039 C   0  0  0  0  0  0  0  0  0  0  0  0
  -20.4473  -32.4029   23.5242 C   0  0  0  0  0  0  0  0  0  0  0  0
  -25.5996  -29.5251   19.4635 C   0  0  0  0  0  0  0  0  0  0  0  0
  -31.1945  -27.3970   25.7152 C   0  0  0  0  0  0  0  0  0  0  0  0
  -28.9776  -15.3748   19.5278 C   0  0  0  0  0  0  0  0  0  0  0  0
  -26.6133  -15.7868   19.2495 C   0  0  0  0  0  0  0  0  0  0  0  0
  -26.9403  -29.1488   19.5313 C   0  0  0  0  0  0  0  0  0  0  0  0
  -25.3762  -12.3703   19.1643 C   0  0  0  0  0  0  0  0  0  0  0  0
  -24.3032  -11.8101   19.8573 C   0  0  0  0  0  0  0  0  0  0  0  0
  -30.9291  -25.1972   24.7524 C   0  0  0  0  0  0  0  0  0  0  0  0
  -26.3008  -27.0858   20.6057 C   0  0  0  0  0  0  0  0  0  0  0  0
  -25.2853  -12.5161   21.9487 C   0  0  0  0  0  0  0  0  0  0  0  0
  -28.1277  -17.6350   19.6066 C   0  0  0  0  0  0  0  0  0  0  0  0
  -30.5911  -24.6890   26.0067 C   0  0  0  0  0  0  0  0  0  0  0  0
  -28.6376  -19.9786   18.7376 C   0  0  0  0  0  0  0  0  0  0  0  0
  -18.9282  -31.0118   24.8066 C   0  0  0  0  0  0  0  0  0  0  0  0
  -24.5986  -28.6880   19.9770 C   0  0  0  0  0  0  0  0  0  0  0  0
  -20.1713  -31.1850   24.1686 C   0  0  0  0  0  0  0  0  0  0  0  0
  -24.9479  -27.4526   20.5409 C   0  0  0  0  0  0  0  0  0  0  0  0
  -31.2309  -26.5512   24.6067 C   0  0  0  0  0  0  0  0  0  0  0  0
  -27.6847  -14.8961   19.3160 C   0  0  0  0  0  0  0  0  0  0  0  0
  -27.2913  -27.9303   20.1051 C   0  0  0  0  0  0  0  0  0  0  0  0
  -26.4039  -13.0034   19.8635 C   0  0  0  0  0  0  0  0  0  0  0  0
  -24.2577  -11.8829   21.2495 C   0  0  0  0  0  0  0  0  0  0  0  0
  -26.3584  -13.0763   21.2557 C   0  0  0  0  0  0  0  0  0  0  0  0
  -28.3559  -19.0497   19.7572 C   0  0  0  0  0  0  0  0  0  0  0  0
  -28.7687  -21.1785   19.3929 C   0  0  0  0  0  0  0  0  0  0  0  0
  -30.2758  -23.2775   26.1589 C   0  0  0  0  0  0  0  0  0  0  0  0
  -28.7689  -19.7750   17.3244 C   0  0  0  0  0  0  0  0  0  0  0  0
  -30.3048  -22.3546   25.0064 C   0  0  0  0  0  0  0  0  0  0  0  0
  -22.4226  -28.9451   22.2798 C   0  0  0  0  0  0  0  0  0  0  0  0
  -21.4224  -26.0864   21.1179 C   0  0  0  0  0  0  0  0  0  0  0  0
  -22.1750  -23.2306   19.4077 C   0  0  0  0  0  0  0  0  0  0  0  0
  -18.5900  -29.7468   25.5549 C   0  0  0  0  0  0  0  0  0  0  0  0
  -23.1548  -29.0965   19.8721 C   0  0  0  0  0  0  0  0  0  0  0  0
  -23.9096  -26.5088   21.0883 C   0  0  0  0  0  0  0  0  0  0  0  0
  -19.4866  -28.5659   25.1915 C   0  0  0  0  0  0  0  0  0  0  0  0
  -27.2884  -23.5158   23.2788 C   0  0  0  0  0  0  0  0  0  0  0  0
  -20.9514  -28.9912   25.1808 C   0  0  0  0  0  0  0  0  0  0  0  0
  -27.2291  -22.5421   22.1048 C   0  0  0  0  0  0  0  0  0  0  0  0
  -27.8460  -22.8577   24.5399 C   0  0  0  0  0  0  0  0  0  0  0  0
  -29.1142  -21.2349   23.1620 C   0  0  0  0  0  0  0  0  0  0  0  0
  -21.2026  -30.0782   24.1287 C   0  0  1  0  0  0  0  0  0  0  0  0
  -22.2602  -28.3964   20.8905 C   0  0  1  0  0  0  0  0  0  0  0  0
  -28.6002  -21.8886   21.8699 C   0  0  1  0  0  0  0  0  0  0  0  0
  -21.1627  -21.0624   18.6519 C   0  0  0  0  0  0  0  0  0  0  0  0
  -21.6424  -24.9960   23.9591 C   0  0  0  0  0  0  0  0  0  0  0  0
  -21.5563  -22.6835   23.0038 C   0  0  0  0  0  0  0  0  0  0  0  0
  -19.6218  -24.2290   22.7009 C   0  0  0  0  0  0  0  0  0  0  0  0
  -22.6196  -23.8836   16.5555 C   0  0  0  0  0  0  0  0  0  0  0  0
  -31.5964  -27.1004   23.2507 C   0  0  0  0  0  0  0  0  0  0  0  0
  -30.3949  -27.5999   22.4406 C   0  0  0  0  0  0  0  0  0  0  0  0
  -30.7758  -28.0814   21.0399 C   0  0  0  0  0  0  0  0  0  0  0  0
  -29.5647  -28.6062   20.2806 C   0  0  0  0  0  0  0  0  0  1  0  0
  -21.7526  -24.6414   21.4041 C   0  0  1  0  0  0  0  0  0  0  0  0
  -21.4526  -22.5093   18.2842 C   0  0  2  0  0  0  0  0  0  0  0  0
  -21.1632  -24.1559   22.7585 C   0  0  0  0  0  0  0  0  0  0  0  0
  -28.3106  -19.6113   20.9682 N   0  0  0  0  0  0  0  0  0  0  0  0
  -29.9531  -22.7344   27.3016 N   0  0  0  0  0  0  0  0  0  0  0  0
  -28.5658  -20.9060   20.7138 N   0  0  0  0  0  0  0  0  0  0  0  0
  -29.1293  -22.1896   24.2760 N   0  0  0  0  0  0  0  0  0  0  0  0
  -22.5120  -26.9560   20.9682 N   0  0  0  0  0  0  0  0  0  0  0  0
  -29.0367  -22.4296   18.9624 N   0  0  0  0  0  0  0  0  0  0  0  0
  -28.6034  -18.4787   16.8179 N   0  0  0  0  0  0  0  0  0  0  0  0
  -21.2693  -29.4953   22.8058 N   0  0  0  0  0  0  0  0  0  0  0  0
  -21.2947  -23.8810   20.2463 N   0  0  0  0  0  0  0  0  0  0  0  0
  -22.2793  -22.5226   17.0443 N   0  3  0  0  0  0  0  0  0  0  0  0
  -29.0417  -20.7120   16.5362 O   0  0  0  0  0  0  0  0  0  0  0  0
  -31.3684  -21.7815   24.7634 O   0  0  0  0  0  0  0  0  0  0  0  0
  -23.5131  -28.8731   22.8342 O   0  0  0  0  0  0  0  0  0  0  0  0
  -20.2413  -26.4296   21.0234 O   0  0  0  0  0  0  0  0  0  0  0  0
  -23.3977  -23.2153   19.5314 O   0  0  0  0  0  0  0  0  0  0  0  0
  -27.4681  -13.5599   19.1740 O   0  0  0  0  0  0  0  0  0  0  0  0
  -28.5993  -27.5608   20.1731 O   0  0  0  0  0  0  0  0  0  1  0  0
  -23.2264  -11.3462   21.9148 F   0  0  0  0  0  0  0  0  0  0  0  0
  -27.3421  -13.6843   21.9328 F   0  0  0  0  0  0  0  0  0  0  0  0
  1  2  1  0  0  0  0
  1  7  2  0  0  0  0
  2  8  2  0  0  0  0
  3  6  1  0  0  0  0
  3 10  2  0  0  0  0
  4 11  2  0  0  0  0
  4 19  1  0  0  0  0
  5 12  1  0  0  0  0
  5 19  2  0  0  0  0
  6 20  2  0  0  0  0
  7 22  1  0  0  0  0
  8 24  1  0  0  0  0
  9 13  2  0  0  0  0
  9 23  1  0  0  0  0
 10 26  1  0  0  0  0
 11 27  1  0  0  0  0
 12 27  2  0  0  0  0
 13 28  1  0  0  0  0
 14 15  2  0  0  0  0
 14 29  1  0  0  0  0
 15 30  1  0  0  0  0
 16 20  1  0  0  0  0
 16 26  2  0  0  0  0
 17 25  1  0  0  0  0
 17 28  2  0  0  0  0
 18 30  2  0  0  0  0
 18 31  1  0  0  0  0
 19 32  1  0  0  0  0
 20 34  1  0  0  0  0
 21 32  1  0  0  0  0
 21 33  2  0  0  0  0
 21 35  1  0  0  0  0
 22 24  2  0  0  0  0
 22 40  1  0  0  0  0
 23 25  2  0  0  0  0
 23 41  1  0  0  0  0
 24 49  1  0  0  0  0
 25 42  1  0  0  0  0
 26 57  1  0  0  0  0
 27 79  1  0  0  0  0
 28 80  1  0  0  0  0
 29 31  2  0  0  0  0
 29 79  1  0  0  0  0
 30 81  1  0  0  0  0
 31 82  1  0  0  0  0
 32 64  2  0  0  0  0
 33 66  1  0  0  0  0
 33 69  1  0  0  0  0
 34 36  1  0  0  0  0
 34 65  2  0  0  0  0
 35 70  1  0  0  0  0
 35 74  2  0  0  0  0
 36 67  1  0  0  0  0
 36 75  2  0  0  0  0
 37 50  1  0  0  0  0
 37 71  1  0  0  0  0
 37 76  2  0  0  0  0
 38 61  1  0  0  0  0
 38 68  1  0  0  0  0
 38 77  2  0  0  0  0
 39 62  1  0  0  0  0
 39 72  1  0  0  0  0
 39 78  2  0  0  0  0
 40 43  1  0  0  0  0
 41 50  1  0  0  0  0
 42 68  1  0  0  0  0
 43 45  1  0  0  0  0
 44 46  1  0  0  0  0
 44 47  1  0  0  0  0
 45 49  1  0  0  0  0
 46 51  1  0  0  0  0
 47 67  1  0  0  0  0
 48 51  1  0  0  0  0
 48 67  1  0  0  0  0
 49 71  1  0  0  0  0
 50 68  1  0  0  0  0
 51 66  1  0  0  0  0
 52 62  1  0  0  0  0
 53 63  1  0  0  0  0
 54 63  1  0  0  0  0
 55 63  1  0  0  0  0
 56 73  1  0  0  0  0
 57 58  1  0  0  0  0
 58 59  1  0  0  0  0
 59 60  1  0  0  0  0
 60 80  1  0  0  0  0
 61 63  1  0  0  0  0
 61 72  1  0  0  0  0
 62 73  1  0  0  0  0
 64 66  1  0  0  0  0
M  CHG  1  73   1
M  ISO  4  34 100  36 100  60 101  80 101
M  END
> <Batch ID>
0129

> <Smiles>
CNC(C)C(=O)NC(C(=O)N1Cc2cc([101O:1][101CH2:1]CCCc3cccc([100C:0](=N)[100C:0](=O)N4CCCC(n5nc(-c6ccc(Oc7ccc(F)cc7F)cc6)c(C(N)=O)c5N)C4)c3)ccc2CC1C(=O)NC1CCCc2ccccc21)C(C)(C)C

> <Shape>
0.196

> <Color>
0.095

> <Negative vol penalty>
0.000

$$$$

  -OEChem-04052302193D

 83 91  0     1  0  0  0  0  0999 V2000
  -19.6390  -31.5052   22.1736 C   0  0  0  0  0  0  0  0  0  0  0  0
  -20.9772  -31.1321   22.2480 C   0  0  0  0  0  0  0  0  0  0  0  0
  -26.1795  -13.4004   21.4300 C   0  0  0  0  0  0  0  0  0  0  0  0
  -27.7463  -12.5852   19.7814 C   0  0  0  0  0  0  0  0  0  0  0  0
  -32.6247  -24.7403   24.1706 C   0  0  0  0  0  0  0  0  0  0  0  0
  -18.6402  -30.5374   22.2721 C   0  0  0  0  0  0  0  0  0  0  0  0
  -21.3173  -29.7911   22.4221 C   0  0  0  0  0  0  0  0  0  0  0  0
  -25.0819  -28.3293   19.3666 C   0  0  0  0  0  0  0  0  0  0  0  0
  -33.0748  -26.0469   23.9816 C   0  0  0  0  0  0  0  0  0  0  0  0
  -25.2073  -12.5305   20.9361 C   0  0  0  0  0  0  0  0  0  0  0  0
  -26.7741  -11.7153   19.2876 C   0  0  0  0  0  0  0  0  0  0  0  0
  -26.3765  -28.6974   19.7303 C   0  0  0  0  0  0  0  0  0  0  0  0
  -24.4480   -9.2449   21.1825 C   0  0  0  0  0  0  0  0  0  0  0  0
  -23.6985   -8.5179   22.1074 C   0  0  0  0  0  0  0  0  0  0  0  0
  -31.7464  -24.7172   21.9200 C   0  0  0  0  0  0  0  0  0  0  0  0
  -26.7450  -26.4897   20.6300 C   0  0  0  0  0  0  0  0  0  0  0  0
  -21.6750   -9.5379   21.2696 C   0  0  0  0  0  0  0  0  0  0  0  0
  -27.4490  -13.4277   20.8526 C   0  0  0  0  0  0  0  0  0  0  0  0
  -31.9606  -24.0754   23.1398 C   0  0  0  0  0  0  0  0  0  0  0  0
  -29.3897  -14.0657   22.3804 C   0  0  0  0  0  0  0  0  0  0  0  0
  -18.9685  -29.1826   22.4378 C   0  0  0  0  0  0  0  0  0  0  0  0
  -24.6046  -27.0398   19.6422 C   0  0  0  0  0  0  0  0  0  0  0  0
  -20.3219  -28.8044   22.5243 C   0  0  0  0  0  0  0  0  0  0  0  0
  -25.4449  -26.1069   20.2665 C   0  0  0  0  0  0  0  0  0  0  0  0
  -32.8606  -26.6887   22.7618 C   0  0  0  0  0  0  0  0  0  0  0  0
  -32.1965  -26.0238   21.7310 C   0  0  0  0  0  0  0  0  0  0  0  0
  -25.5046  -11.6880   19.8650 C   0  0  0  0  0  0  0  0  0  0  0  0
  -27.2073  -27.7784   20.3647 C   0  0  0  0  0  0  0  0  0  0  0  0
  -23.8109  -10.1185   20.3012 C   0  0  0  0  0  0  0  0  0  0  0  0
  -22.3121   -8.6643   22.1509 C   0  0  0  0  0  0  0  0  0  0  0  0
  -22.4245  -10.2649   20.3447 C   0  0  0  0  0  0  0  0  0  0  0  0
  -28.4535  -14.3264   21.3619 C   0  0  0  0  0  0  0  0  0  0  0  0
  -30.1113  -15.2293   22.4895 C   0  0  0  0  0  0  0  0  0  0  0  0
  -31.4918  -22.7126   23.3369 C   0  0  0  0  0  0  0  0  0  0  0  0
  -30.5348  -22.1004   22.6075 C   0  0  0  0  0  0  0  0  0  0  0  0
  -29.5894  -12.8779   23.1581 C   0  0  0  0  0  0  0  0  0  0  0  0
  -30.1748  -20.7039   22.9253 C   0  0  0  0  0  0  0  0  0  0  0  0
  -22.2400  -25.8519   21.4033 C   0  0  0  0  0  0  0  0  0  0  0  0
  -23.1528  -23.0534   20.0404 C   0  0  0  0  0  0  0  0  0  0  0  0
  -25.6141  -21.2319   18.5334 C   0  0  0  0  0  0  0  0  0  0  0  0
  -17.8531  -28.1783   22.5867 C   0  0  0  0  0  0  0  0  0  0  0  0
  -23.2147  -26.6500   19.2195 C   0  0  0  0  0  0  0  0  0  0  0  0
  -24.9873  -24.7036   20.5665 C   0  0  0  0  0  0  0  0  0  0  0  0
  -18.3052  -26.7330   22.3946 C   0  0  0  0  0  0  0  0  0  0  0  0
  -30.2644  -19.3136   19.5355 C   0  0  0  0  0  0  0  0  0  0  0  0
  -19.5850  -26.4650   23.1801 C   0  0  0  0  0  0  0  0  0  0  0  0
  -29.8281  -17.8744   19.7968 C   0  0  0  0  0  0  0  0  0  0  0  0
  -29.5751  -20.2998   20.4772 C   0  0  0  0  0  0  0  0  0  0  0  0
  -29.3047  -18.5216   22.1816 C   0  0  0  0  0  0  0  0  0  0  0  0
  -20.7314  -27.3567   22.6879 C   0  0  1  0  0  0  0  0  0  0  0  0
  -22.6580  -25.4708   20.0112 C   0  0  1  0  0  0  0  0  0  0  0  0
  -30.0213  -17.5072   21.2767 C   0  0  1  0  0  0  0  0  0  0  0  0
  -34.8563  -28.2058   22.8077 C   0  0  0  0  0  0  0  0  0  0  0  0
  -26.0734  -18.9626   17.5655 C   0  0  0  0  0  0  0  0  0  0  0  0
  -23.3828  -21.9015   22.8565 C   0  0  0  0  0  0  0  0  0  0  0  0
  -24.7212  -20.0142   21.9000 C   0  0  0  0  0  0  0  0  0  0  0  0
  -22.3581  -20.3566   21.1779 C   0  0  0  0  0  0  0  0  0  0  0  0
  -26.1676  -22.3591   15.8535 C   0  0  0  0  0  0  0  0  0  0  0  0
  -33.3518  -28.0876   22.5830 C   0  0  0  0  0  0  0  0  0  0  0  0
  -31.9538  -26.6970   20.4037 C   0  0  0  0  0  0  0  0  0  0  0  0
  -30.8163  -27.7202   20.4309 C   0  0  0  0  0  0  0  0  0  0  0  0
  -29.4568  -27.1036   20.7391 C   0  0  0  0  0  0  0  0  0  1  0  0
  -24.1408  -21.9666   20.3892 C   0  0  1  0  0  0  0  0  0  0  0  0
  -25.6117  -20.3823   17.2754 C   0  0  2  0  0  0  0  0  0  0  0  0
  -23.6590  -21.0867   21.5771 C   0  0  0  0  0  0  0  0  0  0  0  0
  -28.5674  -15.5590   20.8600 N   0  0  0  0  0  0  0  0  0  0  0  0
  -29.5836  -16.0831   21.5660 N   0  0  0  0  0  0  0  0  0  0  0  0
  -29.7242  -19.8955   21.8832 N   0  0  0  0  0  0  0  0  0  0  0  0
  -23.6179  -24.3724   20.1393 N   0  0  0  0  0  0  0  0  0  0  0  0
  -31.1391  -15.5952   23.2845 N   0  0  0  0  0  0  0  0  0  0  0  0
  -28.7601  -11.7741   22.9169 N   0  0  0  0  0  0  0  0  0  0  0  0
  -21.2768  -26.8416   21.4503 N   0  0  0  0  0  0  0  0  0  0  0  0
  -24.3841  -21.2251   19.1566 N   0  0  0  0  0  0  0  0  0  0  0  0
  -26.5193  -20.9715   16.2507 N   0  3  0  0  0  0  0  0  0  0  0  0
  -30.4661  -12.8034   24.0522 O   0  0  0  0  0  0  0  0  0  0  0  0
  -30.2906  -20.3394   24.0968 O   0  0  0  0  0  0  0  0  0  0  0  0
  -22.7523  -25.2887   22.3635 O   0  0  0  0  0  0  0  0  0  0  0  0
  -22.0127  -22.7432   19.6861 O   0  0  0  0  0  0  0  0  0  0  0  0
  -26.6087  -21.8377   18.9262 O   0  0  0  0  0  0  0  0  0  0  0  0
  -24.5563  -10.8389   19.3830 O   0  0  0  0  0  0  0  0  0  0  0  0
  -28.4712  -28.1353   20.7213 O   0  0  0  0  0  0  0  0  0  1  0  0
  -21.5924   -7.9650   23.0381 F   0  0  0  0  0  0  0  0  0  0  0  0
  -21.8067  -11.1017   19.4997 F   0  0  0  0  0  0  0  0  0  0  0  0
  1  2  1  0  0  0  0
  1  6  2  0  0  0  0
  2  7  2  0  0  0  0
  3 10  2  0  0  0  0
  3 18  1  0  0  0  0
  4 11  1  0  0  0  0
  4 18  2  0  0  0  0
  5  9  2  0  0  0  0
  5 19  1  0  0  0  0
  6 21  1  0  0  0  0
  7 23  1  0  0  0  0
  8 12  2  0  0  0  0
  8 22  1  0  0  0  0
  9 25  1  0  0  0  0
 10 27  1  0  0  0  0
 11 27  2  0  0  0  0
 12 28  1  0  0  0  0
 13 14  2  0  0  0  0
 13 29  1  0  0  0  0
 14 30  1  0  0  0  0
 15 19  2  0  0  0  0
 15 26  1  0  0  0  0
 16 24  1  0  0  0  0
 16 28  2  0  0  0  0
 17 30  2  0  0  0  0
 17 31  1  0  0  0  0
 18 32  1  0  0  0  0
 19 34  1  0  0  0  0
 20 32  1  0  0  0  0
 20 33  2  0  0  0  0
 20 36  1  0  0  0  0
 21 23  2  0  0  0  0
 21 41  1  0  0  0  0
 22 24  2  0  0  0  0
 22 42  1  0  0  0  0
 23 50  1  0  0  0  0
 24 43  1  0  0  0  0
 25 26  2  0  0  0  0
 25 59  1  0  0  0  0
 26 60  1  0  0  0  0
 27 80  1  0  0  0  0
 28 81  1  0  0  0  0
 29 31  2  0  0  0  0
 29 80  1  0  0  0  0
 30 82  1  0  0  0  0
 31 83  1  0  0  0  0
 32 66  2  0  0  0  0
 33 67  1  0  0  0  0
 33 70  1  0  0  0  0
 34 35  2  0  0  0  0
 35 37  1  0  0  0  0
 36 71  1  0  0  0  0
 36 75  2  0  0  0  0
 37 68  1  0  0  0  0
 37 76  2  0  0  0  0
 38 51  1  0  0  0  0
 38 72  1  0  0  0  0
 38 77  2  0  0  0  0
 39 63  1  0  0  0  0
 39 69  1  0  0  0  0
 39 78  2  0  0  0  0
 40 64  1  0  0  0  0
 40 73  1  0  0  0  0
 40 79  2  0  0  0  0
 41 44  1  0  0  0  0
 42 51  1  0  0  0  0
 43 69  1  0  0  0  0
 44 46  1  0  0  0  0
 45 47  1  0  0  0  0
 45 48  1  0  0  0  0
 46 50  1  0  0  0  0
 47 52  1  0  0  0  0
 48 68  1  0  0  0  0
 49 52  1  0  0  0  0
 49 68  1  0  0  0  0
 50 72  1  0  0  0  0
 51 69  1  0  0  0  0
 52 67  1  0  0  0  0
 53 59  1  0  0  0  0
 54 64  1  0  0  0  0
 55 65  1  0  0  0  0
 56 65  1  0  0  0  0
 57 65  1  0  0  0  0
 58 74  1  0  0  0  0
 60 61  1  0  0  0  0
 61 62  1  0  0  0  0
 62 81  1  0  0  0  0
 63 65  1  0  0  0  0
 63 73  1  0  0  0  0
 64 74  1  0  0  0  0
 66 67  1  0  0  0  0
M  CHG  1  74   1
M  ISO  4  35 100  37 100  62 101  81 101
M  END
> <Batch ID>
0129

> <Smiles>
CCc1ccc(C=[100CH:0][100C:0](=O)N2CCCC(n3nc(-c4ccc(Oc5ccc(F)cc5F)cc4)c(C(N)=O)c3N)C2)cc1CC[101CH2:1][101O:1]c1ccc2c(c1)CN(C(=O)C(NC(=O)C(C)NC)C(C)(C)C)C(C(=O)NC1CCCc3ccccc31)C2

> <Shape>
0.234

> <Color>
0.053

> <Negative vol penalty>
0.000

$$$$

  -OEChem-04052302193D

 83 92  0     1  0  0  0  0  0999 V2000
  -25.1755  -36.0984   15.8975 C   0  0  0  0  0  0  0  0  0  0  0  0
  -25.6518  -34.7923   15.9464 C   0  0  0  0  0  0  0  0  0  0  0  0
  -24.2530   -9.6041   21.9462 C   0  0  0  0  0  0  0  0  0  0  0  0
  -22.7064  -10.0531   20.1451 C   0  0  0  0  0  0  0  0  0  0  0  0
  -25.0907  -36.8526   17.0671 C   0  0  0  0  0  0  0  0  0  0  0  0
  -26.0447  -34.2398   17.1649 C   0  0  0  0  0  0  0  0  0  0  0  0
  -25.4407  -28.4060   18.9277 C   0  0  0  0  0  0  0  0  0  0  0  0
  -23.3346   -8.7217   22.5148 C   0  0  0  0  0  0  0  0  0  0  0  0
  -21.7880   -9.1706   20.7138 C   0  0  0  0  0  0  0  0  0  0  0  0
  -26.3308  -27.3330   18.9404 C   0  0  0  0  0  0  0  0  0  0  0  0
  -22.2953   -5.5433   22.0140 C   0  0  0  0  0  0  0  0  0  0  0  0
  -22.7729   -4.3135   22.4668 C   0  0  0  0  0  0  0  0  0  0  0  0
  -26.8385  -27.7893   21.2540 C   0  0  0  0  0  0  0  0  0  0  0  0
  -22.0200   -4.8436   24.7005 C   0  0  0  0  0  0  0  0  0  0  0  0
  -23.9389  -10.2699   20.7614 C   0  0  0  0  0  0  0  0  0  0  0  0
  -30.4937  -20.0656   20.5630 C   0  0  0  0  0  0  0  0  0  0  0  0
  -25.8909  -10.8769   19.2353 C   0  0  0  0  0  0  0  0  0  0  0  0
  -25.4736  -36.3058   18.3020 C   0  0  0  0  0  0  0  0  0  0  0  0
  -25.2506  -29.1867   20.0769 C   0  0  0  0  0  0  0  0  0  0  0  0
  -25.9662  -34.9878   18.3520 C   0  0  0  0  0  0  0  0  0  0  0  0
  -25.9435  -28.8701   21.2541 C   0  0  0  0  0  0  0  0  0  0  0  0
  -29.6538  -21.1555   20.1834 C   0  0  0  0  0  0  0  0  0  0  0  0
  -22.1021   -8.5049   21.8986 C   0  0  0  0  0  0  0  0  0  0  0  0
  -27.0320  -27.0263   20.1028 C   0  0  0  0  0  0  0  0  0  0  0  0
  -21.6801   -6.4234   22.9044 C   0  0  0  0  0  0  0  0  0  0  0  0
  -22.6352   -3.9636   23.8100 C   0  0  0  0  0  0  0  0  0  0  0  0
  -21.5425   -6.0735   24.2476 C   0  0  0  0  0  0  0  0  0  0  0  0
  -24.8869  -11.1821   20.1737 C   0  0  0  0  0  0  0  0  0  0  0  0
  -30.2881  -22.3684   20.3706 C   0  0  0  0  0  0  0  0  0  0  0  0
  -31.7250  -20.4904   21.0137 C   0  0  0  0  0  0  0  0  0  0  0  0
  -26.5149  -12.0771   18.9975 C   0  0  0  0  0  0  0  0  0  0  0  0
  -30.1340  -18.6950   20.5023 C   0  0  0  0  0  0  0  0  0  0  0  0
  -29.0808  -18.0950   21.1438 C   0  0  0  0  0  0  0  0  0  0  0  0
  -26.2291   -9.6208   18.6324 C   0  0  0  0  0  0  0  0  0  0  0  0
  -28.8296  -16.6500   20.9713 C   0  0  0  0  0  0  0  0  0  0  0  0
  -25.7144  -32.2438   20.8137 C   0  0  0  0  0  0  0  0  0  0  0  0
  -24.2618  -31.3922   23.5862 C   0  0  0  0  0  0  0  0  0  0  0  0
  -23.4581  -28.9178   25.7948 C   0  0  0  0  0  0  0  0  0  0  0  0
  -25.4085  -37.1756   19.5324 C   0  0  0  0  0  0  0  0  0  0  0  0
  -24.2669  -30.3243   20.0545 C   0  0  0  0  0  0  0  0  0  0  0  0
  -28.2514  -21.0610   19.6702 C   0  0  0  0  0  0  0  0  0  0  0  0
  -25.7601  -29.6647   22.5203 C   0  0  0  0  0  0  0  0  0  0  0  0
  -29.7001  -23.7075   20.0488 C   0  0  0  0  0  0  0  0  0  0  0  0
  -25.4923  -36.3901   20.8387 C   0  0  0  0  0  0  0  0  0  0  0  0
  -27.7939  -22.3728   19.0122 C   0  0  0  0  0  0  0  0  0  0  0  0
  -25.2323  -16.7816   20.2832 C   0  0  0  0  0  0  0  0  0  0  0  0
  -26.6222  -35.3673   20.7751 C   0  0  0  0  0  0  0  0  0  0  0  0
  -24.9015  -15.2963   20.1642 C   0  0  0  0  0  0  0  0  0  0  0  0
  -26.3305  -17.0422   21.3130 C   0  0  0  0  0  0  0  0  0  0  0  0
  -27.2414  -14.7658   20.9539 C   0  0  0  0  0  0  0  0  0  0  0  0
  -26.3787  -34.3450   19.6584 C   0  0  1  0  0  0  0  0  0  0  0  0
  -24.5360  -31.3683   21.1340 C   0  0  1  0  0  0  0  0  0  0  0  0
  -28.1685  -23.6018   19.8692 C   0  0  2  0  0  0  0  0  0  0  0  0
  -26.1719  -14.4761   19.8892 C   0  0  1  0  0  0  0  0  0  0  0  0
  -32.8754  -19.6908   21.4971 C   0  0  0  0  0  0  0  0  0  0  0  0
  -22.2987  -28.5342   27.9871 C   0  0  0  0  0  0  0  0  0  0  0  0
  -26.6631  -32.5650   25.0587 C   0  0  0  0  0  0  0  0  0  0  0  0
  -25.9216  -31.3309   27.1070 C   0  0  0  0  0  0  0  0  0  0  0  0
  -24.4484  -33.0753   26.1023 C   0  0  0  0  0  0  0  0  0  0  0  0
  -21.4698  -27.1074   24.5587 C   0  0  0  0  0  0  0  0  0  0  0  0
  -27.6139  -24.8834   19.2511 C   0  0  0  0  0  0  0  0  0  1  0  0
  -24.7301  -30.8591   24.9187 C   0  0  1  0  0  0  0  0  0  0  0  0
  -22.1485  -28.5600   26.4739 C   0  0  2  0  0  0  0  0  0  0  0  0
  -25.4459  -31.9436   25.7724 C   0  0  0  0  0  0  0  0  0  0  0  0
  -24.8706  -12.4748   20.5094 N   0  0  0  0  0  0  0  0  0  0  0  0
  -25.8721  -12.9925   19.7779 N   0  0  0  0  0  0  0  0  0  0  0  0
  -27.5125  -16.2036   21.0632 N   0  0  0  0  0  0  0  0  0  0  0  0
  -24.7918  -30.7713   22.4464 N   0  0  0  0  0  0  0  0  0  0  0  0
  -27.5454  -12.4282   18.1992 N   0  0  0  0  0  0  0  0  0  0  0  0
  -25.4862   -8.4871   18.9887 N   0  0  0  0  0  0  0  0  0  0  0  0
  -25.3964  -33.3669   20.0741 N   0  0  0  0  0  0  0  0  0  0  0  0
  -23.5576  -30.2726   25.5586 N   0  0  0  0  0  0  0  0  0  0  0  0
  -21.6819  -27.2177   26.0250 N   0  3  0  0  0  0  0  0  0  0  0  0
  -27.1731   -9.5041   17.8146 O   0  0  0  0  0  0  0  0  0  0  0  0
  -29.8035  -15.9248   20.7609 O   0  0  0  0  0  0  0  0  0  0  0  0
  -26.8294  -31.9249   21.2096 O   0  0  0  0  0  0  0  0  0  0  0  0
  -23.4499  -32.3205   23.5579 O   0  0  0  0  0  0  0  0  0  0  0  0
  -24.3096  -28.0797   25.5064 O   0  0  0  0  0  0  0  0  0  0  0  0
  -21.2058   -7.6436   22.4531 O   0  0  0  0  0  0  0  0  0  0  0  0
  -27.9019  -25.9799   20.1177 O   0  0  0  0  0  0  0  0  0  1  0  0
  -23.0925   -2.7820   24.2444 F   0  0  0  0  0  0  0  0  0  0  0  0
  -20.9513   -6.9143   25.1075 F   0  0  0  0  0  0  0  0  0  0  0  0
  -31.8681  -22.1964   20.9817 S   0  0  0  0  0  0  0  0  0  0  0  0
  1  2  1  0  0  0  0
  1  5  2  0  0  0  0
  2  6  2  0  0  0  0
  3  8  2  0  0  0  0
  3 15  1  0  0  0  0
  4  9  1  0  0  0  0
  4 15  2  0  0  0  0
  5 18  1  0  0  0  0
  6 20  1  0  0  0  0
  7 10  2  0  0  0  0
  7 19  1  0  0  0  0
  8 23  1  0  0  0  0
  9 23  2  0  0  0  0
 10 24  1  0  0  0  0
 11 12  2  0  0  0  0
 11 25  1  0  0  0  0
 12 26  1  0  0  0  0
 13 21  1  0  0  0  0
 13 24  2  0  0  0  0
 14 26  2  0  0  0  0
 14 27  1  0  0  0  0
 15 28  1  0  0  0  0
 16 22  1  0  0  0  0
 16 30  2  0  0  0  0
 16 32  1  0  0  0  0
 17 28  1  0  0  0  0
 17 31  2  0  0  0  0
 17 34  1  0  0  0  0
 18 20  2  0  0  0  0
 18 39  1  0  0  0  0
 19 21  2  0  0  0  0
 19 40  1  0  0  0  0
 20 51  1  0  0  0  0
 21 42  1  0  0  0  0
 22 29  2  0  0  0  0
 22 41  1  0  0  0  0
 23 79  1  0  0  0  0
 24 80  1  0  0  0  0
 25 27  2  0  0  0  0
 25 79  1  0  0  0  0
 26 81  1  0  0  0  0
 27 82  1  0  0  0  0
 28 65  2  0  0  0  0
 29 43  1  0  0  0  0
 29 83  1  0  0  0  0
 30 55  1  0  0  0  0
 30 83  1  0  0  0  0
 31 66  1  0  0  0  0
 31 69  1  0  0  0  0
 32 33  2  0  0  0  0
 33 35  1  0  0  0  0
 34 70  1  0  0  0  0
 34 74  2  0  0  0  0
 35 67  1  0  0  0  0
 35 75  2  0  0  0  0
 36 52  1  0  0  0  0
 36 71  1  0  0  0  0
 36 76  2  0  0  0  0
 37 62  1  0  0  0  0
 37 68  1  0  0  0  0
 37 77  2  0  0  0  0
 38 63  1  0  0  0  0
 38 72  1  0  0  0  0
 38 78  2  0  0  0  0
 39 44  1  0  0  0  0
 40 52  1  0  0  0  0
 41 45  1  0  0  0  0
 42 68  1  0  0  0  0
 43 53  1  0  0  0  0
 44 47  1  0  0  0  0
 45 53  1  0  0  0  0
 46 48  1  0  0  0  0
 46 49  1  0  0  0  0
 47 51  1  0  0  0  0
 48 54  1  0  0  0  0
 49 67  1  0  0  0  0
 50 54  1  0  0  0  0
 50 67  1  0  0  0  0
 51 71  1  0  0  0  0
 52 68  1  0  0  0  0
 53 61  1  0  0  0  0
 54 66  1  0  0  0  0
 56 63  1  0  0  0  0
 57 64  1  0  0  0  0
 58 64  1  0  0  0  0
 59 64  1  0  0  0  0
 60 73  1  0  0  0  0
 61 80  1  0  0  0  0
 62 64  1  0  0  0  0
 62 72  1  0  0  0  0
 63 73  1  0  0  0  0
 65 66  1  0  0  0  0
M  CHG  1  73   1
M  ISO  4  33 100  35 100  61 101  80 101
M  END
> <Batch ID>
0129

> <Smiles>
CNC(C)C(=O)NC(C(=O)N1Cc2cc([101O:1][101CH2:1]C3CCc4c(sc(C)c4C=[100CH:0][100C:0](=O)N4CCCC(n5nc(-c6ccc(Oc7ccc(F)cc7F)cc6)c(C(N)=O)c5N)C4)C3)ccc2CC1C(=O)NC1CCCc2ccccc21)C(C)(C)C

> <Shape>
0.291

> <Color>
0.113

> <Negative vol penalty>
0.000

$$$$

  -OEChem-04052302193D

 82 90  0     1  0  0  0  0  0999 V2000
  -24.5188  -35.2930   20.8553 C   0  0  0  0  0  0  0  0  0  0  0  0
  -25.3071  -34.1484   20.9180 C   0  0  0  0  0  0  0  0  0  0  0  0
  -28.9099  -19.6357   20.6536 C   0  0  0  0  0  0  0  0  0  0  0  0
  -21.7079  -11.3056   22.0743 C   0  0  0  0  0  0  0  0  0  0  0  0
  -23.6600  -10.9791   20.6888 C   0  0  0  0  0  0  0  0  0  0  0  0
  -27.6749  -19.4292   20.0390 C   0  0  0  0  0  0  0  0  0  0  0  0
  -29.5451  -20.8728   20.5445 C   0  0  0  0  0  0  0  0  0  0  0  0
  -23.2964  -35.3337   21.5247 C   0  0  0  0  0  0  0  0  0  0  0  0
  -24.8739  -33.0442   21.6512 C   0  0  0  0  0  0  0  0  0  0  0  0
  -25.5317  -28.6819   19.1647 C   0  0  0  0  0  0  0  0  0  0  0  0
  -21.4678   -9.9317   22.0598 C   0  0  0  0  0  0  0  0  0  0  0  0
  -23.4200   -9.6051   20.6743 C   0  0  0  0  0  0  0  0  0  0  0  0
  -26.8207  -28.1511   19.1403 C   0  0  0  0  0  0  0  0  0  0  0  0
  -22.6645   -7.1774   23.6137 C   0  0  0  0  0  0  0  0  0  0  0  0
  -22.3414   -6.5630   24.8235 C   0  0  0  0  0  0  0  0  0  0  0  0
  -27.7104  -21.6967   19.2058 C   0  0  0  0  0  0  0  0  0  0  0  0
  -26.2189  -26.6246   20.9087 C   0  0  0  0  0  0  0  0  0  0  0  0
  -20.2244   -5.8554   23.8989 C   0  0  0  0  0  0  0  0  0  0  0  0
  -22.8040  -11.8294   21.3887 C   0  0  0  0  0  0  0  0  0  0  0  0
  -27.0752  -20.4596   19.3150 C   0  0  0  0  0  0  0  0  0  0  0  0
  -28.9453  -21.9032   19.8205 C   0  0  0  0  0  0  0  0  0  0  0  0
  -23.8309  -13.9663   22.3305 C   0  0  0  0  0  0  0  0  0  0  0  0
  -22.8436  -34.2260   22.2585 C   0  0  0  0  0  0  0  0  0  0  0  0
  -24.5783  -28.1948   20.0702 C   0  0  0  0  0  0  0  0  0  0  0  0
  -23.6450  -33.0707   22.3321 C   0  0  0  0  0  0  0  0  0  0  0  0
  -24.9178  -27.1493   20.9408 C   0  0  0  0  0  0  0  0  0  0  0  0
  -22.3238   -9.0814   21.3599 C   0  0  0  0  0  0  0  0  0  0  0  0
  -27.1653  -27.1242   20.0143 C   0  0  0  0  0  0  0  0  0  0  0  0
  -21.7675   -7.1308   22.5465 C   0  0  0  0  0  0  0  0  0  0  0  0
  -21.1214   -5.9020   24.9662 C   0  0  0  0  0  0  0  0  0  0  0  0
  -20.5475   -6.4699   22.6891 C   0  0  0  0  0  0  0  0  0  0  0  0
  -23.0522  -13.2486   21.4028 C   0  0  0  0  0  0  0  0  0  0  0  0
  -23.7511  -15.2711   21.9091 C   0  0  0  0  0  0  0  0  0  0  0  0
  -25.7873  -20.2433   18.6746 C   0  0  0  0  0  0  0  0  0  0  0  0
  -29.6164  -23.2088   19.7059 C   0  0  0  0  0  0  0  0  0  0  0  0
  -25.2540  -19.0398   18.3747 C   0  0  0  0  0  0  0  0  0  0  0  0
  -29.3604  -24.1294   18.7632 C   0  0  0  0  0  0  0  0  0  0  0  0
  -24.5610  -13.4955   23.4710 C   0  0  0  0  0  0  0  0  0  0  0  0
  -23.9223  -18.9844   17.7292 C   0  0  0  0  0  0  0  0  0  0  0  0
  -22.9233  -29.4497   22.4765 C   0  0  0  0  0  0  0  0  0  0  0  0
  -21.4632  -26.5531   22.4700 C   0  0  0  0  0  0  0  0  0  0  0  0
  -21.6091  -23.2369   21.6775 C   0  0  0  0  0  0  0  0  0  0  0  0
  -21.5372  -34.3341   23.0043 C   0  0  0  0  0  0  0  0  0  0  0  0
  -23.1844  -28.7599   20.0657 C   0  0  0  0  0  0  0  0  0  0  0  0
  -23.9250  -26.5772   21.9182 C   0  0  0  0  0  0  0  0  0  0  0  0
  -20.9775  -32.9860   23.4511 C   0  0  0  0  0  0  0  0  0  0  0  0
  -20.7649  -17.4563   18.4726 C   0  0  0  0  0  0  0  0  0  0  0  0
  -22.0719  -32.1403   24.0944 C   0  0  0  0  0  0  0  0  0  0  0  0
  -21.1477  -16.2615   19.3454 C   0  0  0  0  0  0  0  0  0  0  0  0
  -21.8239  -17.7339   17.4105 C   0  0  0  0  0  0  0  0  0  0  0  0
  -23.5862  -16.7373   18.8423 C   0  0  0  0  0  0  0  0  0  0  0  0
  -23.1980  -31.8436   23.0967 C   0  0  1  0  0  0  0  0  0  0  0  0
  -22.4454  -28.5382   21.3818 C   0  0  1  0  0  0  0  0  0  0  0  0
  -22.5537  -16.4434   19.9446 C   0  0  2  0  0  0  0  0  0  0  0  0
  -20.2781  -21.1148   21.8293 C   0  0  0  0  0  0  0  0  0  0  0  0
  -22.1319  -26.3490   25.4401 C   0  0  0  0  0  0  0  0  0  0  0  0
  -21.6540  -23.8949   25.3077 C   0  0  0  0  0  0  0  0  0  0  0  0
  -19.8447  -25.5438   24.8280 C   0  0  0  0  0  0  0  0  0  0  0  0
  -21.5480  -22.9280   18.7347 C   0  0  0  0  0  0  0  0  0  0  0  0
  -30.0799  -25.4475   18.6754 C   0  0  0  0  0  0  0  0  0  0  0  0
  -29.1121  -26.6228   18.7437 C   0  0  0  0  0  0  0  0  0  1  0  0
  -21.7113  -25.2293   23.1520 C   0  0  1  0  0  0  0  0  0  0  0  0
  -20.6202  -22.3249   20.9740 C   0  0  2  0  0  0  0  0  0  0  0  0
  -21.3550  -25.2661   24.6649 C   0  0  0  0  0  0  0  0  0  0  0  0
  -22.5170  -14.0325   20.4631 N   0  0  0  0  0  0  0  0  0  0  0  0
  -22.9600  -15.2563   20.7982 N   0  0  0  0  0  0  0  0  0  0  0  0
  -23.1509  -17.8651   18.0089 N   0  0  0  0  0  0  0  0  0  0  0  0
  -22.5768  -27.1674   21.8798 N   0  0  0  0  0  0  0  0  0  0  0  0
  -24.2810  -16.4181   22.3842 N   0  0  0  0  0  0  0  0  0  0  0  0
  -24.5364  -12.1244   23.7608 N   0  0  0  0  0  0  0  0  0  0  0  0
  -22.8001  -30.7943   22.1828 N   0  0  0  0  0  0  0  0  0  0  0  0
  -20.9706  -24.2314   22.3878 N   0  0  0  0  0  0  0  0  0  0  0  0
  -21.1880  -21.8427   19.6832 N   0  3  0  0  0  0  0  0  0  0  0  0
  -25.2025  -14.2700   24.2208 O   0  0  0  0  0  0  0  0  0  0  0  0
  -23.6432  -19.9373   17.0134 O   0  0  0  0  0  0  0  0  0  0  0  0
  -23.3695  -28.9687   23.5115 O   0  0  0  0  0  0  0  0  0  0  0  0
  -20.3221  -27.0213   22.4552 O   0  0  0  0  0  0  0  0  0  0  0  0
  -22.8261  -23.0803   21.6072 O   0  0  0  0  0  0  0  0  0  0  0  0
  -22.0900   -7.7406   21.3457 O   0  0  0  0  0  0  0  0  0  0  0  0
  -28.4229  -26.6047   19.9931 O   0  0  0  0  0  0  0  0  0  1  0  0
  -20.8120   -5.3107   26.1276 F   0  0  0  0  0  0  0  0  0  0  0  0
  -19.6822   -6.4208   21.6670 F   0  0  0  0  0  0  0  0  0  0  0  0
  1  2  1  0  0  0  0
  1  8  2  0  0  0  0
  2  9  2  0  0  0  0
  3  6  1  0  0  0  0
  3  7  2  0  0  0  0
  4 11  2  0  0  0  0
  4 19  1  0  0  0  0
  5 12  1  0  0  0  0
  5 19  2  0  0  0  0
  6 20  2  0  0  0  0
  7 21  1  0  0  0  0
  8 23  1  0  0  0  0
  9 25  1  0  0  0  0
 10 13  2  0  0  0  0
 10 24  1  0  0  0  0
 11 27  1  0  0  0  0
 12 27  2  0  0  0  0
 13 28  1  0  0  0  0
 14 15  2  0  0  0  0
 14 29  1  0  0  0  0
 15 30  1  0  0  0  0
 16 20  1  0  0  0  0
 16 21  2  0  0  0  0
 17 26  1  0  0  0  0
 17 28  2  0  0  0  0
 18 30  2  0  0  0  0
 18 31  1  0  0  0  0
 19 32  1  0  0  0  0
 20 34  1  0  0  0  0
 21 35  1  0  0  0  0
 22 32  1  0  0  0  0
 22 33  2  0  0  0  0
 22 38  1  0  0  0  0
 23 25  2  0  0  0  0
 23 43  1  0  0  0  0
 24 26  2  0  0  0  0
 24 44  1  0  0  0  0
 25 52  1  0  0  0  0
 26 45  1  0  0  0  0
 27 79  1  0  0  0  0
 28 80  1  0  0  0  0
 29 31  2  0  0  0  0
 29 79  1  0  0  0  0
 30 81  1  0  0  0  0
 31 82  1  0  0  0  0
 32 65  2  0  0  0  0
 33 66  1  0  0  0  0
 33 69  1  0  0  0  0
 34 36  2  0  0  0  0
 35 37  2  0  0  0  0
 36 39  1  0  0  0  0
 37 60  1  0  0  0  0
 38 70  1  0  0  0  0
 38 74  2  0  0  0  0
 39 67  1  0  0  0  0
 39 75  2  0  0  0  0
 40 53  1  0  0  0  0
 40 71  1  0  0  0  0
 40 76  2  0  0  0  0
 41 62  1  0  0  0  0
 41 68  1  0  0  0  0
 41 77  2  0  0  0  0
 42 63  1  0  0  0  0
 42 72  1  0  0  0  0
 42 78  2  0  0  0  0
 43 46  1  0  0  0  0
 44 53  1  0  0  0  0
 45 68  1  0  0  0  0
 46 48  1  0  0  0  0
 47 49  1  0  0  0  0
 47 50  1  0  0  0  0
 48 52  1  0  0  0  0
 49 54  1  0  0  0  0
 50 67  1  0  0  0  0
 51 54  1  0  0  0  0
 51 67  1  0  0  0  0
 52 71  1  0  0  0  0
 53 68  1  0  0  0  0
 54 66  1  0  0  0  0
 55 63  1  0  0  0  0
 56 64  1  0  0  0  0
 57 64  1  0  0  0  0
 58 64  1  0  0  0  0
 59 73  1  0  0  0  0
 60 61  1  0  0  0  0
 61 80  1  0  0  0  0
 62 64  1  0  0  0  0
 62 72  1  0  0  0  0
 63 73  1  0  0  0  0
 65 66  1  0  0  0  0
M  CHG  1  73   1
M  ISO  4  36 100  39 100  61 101  80 101
M  END
> <Batch ID>
0129

> <Smiles>
CNC(C)C(=O)NC(C(=O)N1Cc2cc([101O:1][101CH2:1]CC=Cc3cccc(C=[100CH:0][100C:0](=O)N4CCCC(n5nc(-c6ccc(Oc7ccc(F)cc7F)cc6)c(C(N)=O)c5N)C4)c3)ccc2CC1C(=O)NC1CCCc2ccccc21)C(C)(C)C

> <Shape>
0.218

> <Color>
0.083

> <Negative vol penalty>
0.000

$$$$

  -OEChem-04052302193D

 83 91  0     1  0  0  0  0  0999 V2000
  -17.5371  -32.1917   22.9213 C   0  0  0  0  0  0  0  0  0  0  0  0
  -18.7112  -32.3567   22.1935 C   0  0  0  0  0  0  0  0  0  0  0  0
  -24.1065   -9.7769   22.1504 C   0  0  0  0  0  0  0  0  0  0  0  0
  -23.1408   -9.8849   19.9385 C   0  0  0  0  0  0  0  0  0  0  0  0
  -30.4906  -22.5121   21.6292 C   0  0  0  0  0  0  0  0  0  0  0  0
  -30.2563  -21.1386   21.6933 C   0  0  0  0  0  0  0  0  0  0  0  0
  -17.4717  -31.2292   23.9279 C   0  0  0  0  0  0  0  0  0  0  0  0
  -19.8210  -31.5600   22.4726 C   0  0  0  0  0  0  0  0  0  0  0  0
  -25.4295  -28.4748   19.2566 C   0  0  0  0  0  0  0  0  0  0  0  0
  -23.0935   -8.9055   22.5502 C   0  0  0  0  0  0  0  0  0  0  0  0
  -22.1277   -9.0135   20.3383 C   0  0  0  0  0  0  0  0  0  0  0  0
  -26.8163  -28.3813   19.3657 C   0  0  0  0  0  0  0  0  0  0  0  0
  -22.3589   -5.6215   22.2213 C   0  0  0  0  0  0  0  0  0  0  0  0
  -22.7257   -4.4956   22.9584 C   0  0  0  0  0  0  0  0  0  0  0  0
  -29.6246  -22.5548   19.3742 C   0  0  0  0  0  0  0  0  0  0  0  0
  -26.5622  -26.6968   21.0737 C   0  0  0  0  0  0  0  0  0  0  0  0
  -21.3333   -5.2393   24.7874 C   0  0  0  0  0  0  0  0  0  0  0  0
  -24.1302  -10.2667   20.8445 C   0  0  0  0  0  0  0  0  0  0  0  0
  -30.1747  -23.2203   20.4697 C   0  0  0  0  0  0  0  0  0  0  0  0
  -29.7062  -20.4731   20.5977 C   0  0  0  0  0  0  0  0  0  0  0  0
  -26.4211  -10.8243   19.8706 C   0  0  0  0  0  0  0  0  0  0  0  0
  -18.5782  -30.4137   24.2130 C   0  0  0  0  0  0  0  0  0  0  0  0
  -24.5972  -27.6866   20.0643 C   0  0  0  0  0  0  0  0  0  0  0  0
  -19.7708  -30.5866   23.4849 C   0  0  0  0  0  0  0  0  0  0  0  0
  -25.1653  -26.7804   20.9711 C   0  0  0  0  0  0  0  0  0  0  0  0
  -29.3903  -21.1812   19.4382 C   0  0  0  0  0  0  0  0  0  0  0  0
  -22.1040   -8.5238   21.6442 C   0  0  0  0  0  0  0  0  0  0  0  0
  -27.3829  -27.4943   20.2763 C   0  0  0  0  0  0  0  0  0  0  0  0
  -21.4793   -6.5564   22.7673 C   0  0  0  0  0  0  0  0  0  0  0  0
  -22.2129   -4.3044   24.2414 C   0  0  0  0  0  0  0  0  0  0  0  0
  -20.9665   -6.3653   24.0503 C   0  0  0  0  0  0  0  0  0  0  0  0
  -25.1761  -11.1674   20.4311 C   0  0  0  0  0  0  0  0  0  0  0  0
  -27.0448  -12.0290   19.6561 C   0  0  0  0  0  0  0  0  0  0  0  0
  -30.4232  -24.6699   20.4028 C   0  0  0  0  0  0  0  0  0  0  0  0
  -29.4731  -19.0383   20.6955 C   0  0  0  0  0  0  0  0  0  0  0  0
  -28.6562  -18.4389   21.5856 C   0  0  0  0  0  0  0  0  0  0  0  0
  -30.5283  -25.3848   19.2716 C   0  0  0  0  0  0  0  0  0  0  0  0
  -26.9650   -9.5321   19.5705 C   0  0  0  0  0  0  0  0  0  0  0  0
  -28.5175  -16.9690   21.5516 C   0  0  0  0  0  0  0  0  0  0  0  0
  -22.4023  -28.2877   22.2835 C   0  0  0  0  0  0  0  0  0  0  0  0
  -21.9483  -25.0787   22.1476 C   0  0  0  0  0  0  0  0  0  0  0  0
  -23.2190  -22.0022   21.3943 C   0  0  0  0  0  0  0  0  0  0  0  0
  -18.4752  -29.4191   25.3421 C   0  0  0  0  0  0  0  0  0  0  0  0
  -23.1034  -27.7801   19.9156 C   0  0  0  0  0  0  0  0  0  0  0  0
  -24.3158  -25.8973   21.8469 C   0  0  0  0  0  0  0  0  0  0  0  0
  -19.5747  -28.3603   25.3234 C   0  0  0  0  0  0  0  0  0  0  0  0
  -25.2773  -16.7479   19.8533 C   0  0  0  0  0  0  0  0  0  0  0  0
  -20.9366  -29.0089   25.0966 C   0  0  0  0  0  0  0  0  0  0  0  0
  -25.0483  -15.2388   19.8530 C   0  0  0  0  0  0  0  0  0  0  0  0
  -26.0157  -17.2139   21.1072 C   0  0  0  0  0  0  0  0  0  0  0  0
  -27.0713  -14.9845   21.3440 C   0  0  0  0  0  0  0  0  0  0  0  0
  -20.9879  -29.7247   23.7414 C   0  0  1  0  0  0  0  0  0  0  0  0
  -22.3487  -27.3008   21.1518 C   0  0  1  0  0  0  0  0  0  0  0  0
  -26.3715  -14.4874   20.0694 C   0  0  1  0  0  0  0  0  0  0  0  0
  -28.8005  -20.5009   18.2447 C   0  0  0  0  0  0  0  0  0  0  0  0
  -22.6248  -19.5643   21.4240 C   0  0  0  0  0  0  0  0  0  0  0  0
  -22.3539  -25.0193   25.1711 C   0  0  0  0  0  0  0  0  0  0  0  0
  -22.6976  -22.5448   25.0064 C   0  0  0  0  0  0  0  0  0  0  0  0
  -20.5133  -23.5463   24.3363 C   0  0  0  0  0  0  0  0  0  0  0  0
  -23.5470  -21.7675   18.4623 C   0  0  0  0  0  0  0  0  0  0  0  0
  -30.7957  -26.8649   19.2487 C   0  0  0  0  0  0  0  0  0  0  0  0
  -29.5022  -27.6702   19.2117 C   0  0  0  0  0  0  0  0  0  1  0  0
  -22.5371  -23.8846   22.8592 C   0  0  1  0  0  0  0  0  0  0  0  0
  -22.6456  -20.8424   20.6002 C   0  0  2  0  0  0  0  0  0  0  0  0
  -22.0418  -23.7666   24.3283 C   0  0  0  0  0  0  0  0  0  0  0  0
  -25.0168  -12.4867   20.5645 N   0  0  0  0  0  0  0  0  0  0  0  0
  -26.1698  -12.9833   20.0849 N   0  0  0  0  0  0  0  0  0  0  0  0
  -27.2478  -16.4409   21.3248 N   0  0  0  0  0  0  0  0  0  0  0  0
  -22.8604  -26.0300   21.6689 N   0  0  0  0  0  0  0  0  0  0  0  0
  -28.2510  -12.3546   19.1446 N   0  0  0  0  0  0  0  0  0  0  0  0
  -26.1906   -8.3989   19.8541 N   0  0  0  0  0  0  0  0  0  0  0  0
  -21.1656  -28.7674   22.6707 N   0  0  0  0  0  0  0  0  0  0  0  0
  -22.2310  -22.7237   22.0304 N   0  0  0  0  0  0  0  0  0  0  0  0
  -23.4605  -20.5995   19.3763 N   0  3  0  0  0  0  0  0  0  0  0  0
  -28.1107   -9.3859   19.0810 O   0  0  0  0  0  0  0  0  0  0  0  0
  -29.5351  -16.2976   21.7313 O   0  0  0  0  0  0  0  0  0  0  0  0
  -23.4853  -28.5904   22.7704 O   0  0  0  0  0  0  0  0  0  0  0  0
  -20.7247  -25.1608   22.0148 O   0  0  0  0  0  0  0  0  0  0  0  0
  -24.4233  -22.2418   21.4481 O   0  0  0  0  0  0  0  0  0  0  0  0
  -21.1154   -7.6733   22.0339 O   0  0  0  0  0  0  0  0  0  0  0  0
  -28.7361  -27.4014   20.3853 O   0  0  0  0  0  0  0  0  0  1  0  0
  -22.5641   -3.2224   24.9485 F   0  0  0  0  0  0  0  0  0  0  0  0
  -20.1202   -7.2593   24.5796 F   0  0  0  0  0  0  0  0  0  0  0  0
  1  2  1  0  0  0  0
  1  7  2  0  0  0  0
  2  8  2  0  0  0  0
  3 10  2  0  0  0  0
  3 18  1  0  0  0  0
  4 11  1  0  0  0  0
  4 18  2  0  0  0  0
  5  6  2  0  0  0  0
  5 19  1  0  0  0  0
  6 20  1  0  0  0  0
  7 22  1  0  0  0  0
  8 24  1  0  0  0  0
  9 12  2  0  0  0  0
  9 23  1  0  0  0  0
 10 27  1  0  0  0  0
 11 27  2  0  0  0  0
 12 28  1  0  0  0  0
 13 14  2  0  0  0  0
 13 29  1  0  0  0  0
 14 30  1  0  0  0  0
 15 19  2  0  0  0  0
 15 26  1  0  0  0  0
 16 25  1  0  0  0  0
 16 28  2  0  0  0  0
 17 30  2  0  0  0  0
 17 31  1  0  0  0  0
 18 32  1  0  0  0  0
 19 34  1  0  0  0  0
 20 26  2  0  0  0  0
 20 35  1  0  0  0  0
 21 32  1  0  0  0  0
 21 33  2  0  0  0  0
 21 38  1  0  0  0  0
 22 24  2  0  0  0  0
 22 43  1  0  0  0  0
 23 25  2  0  0  0  0
 23 44  1  0  0  0  0
 24 52  1  0  0  0  0
 25 45  1  0  0  0  0
 26 55  1  0  0  0  0
 27 80  1  0  0  0  0
 28 81  1  0  0  0  0
 29 31  2  0  0  0  0
 29 80  1  0  0  0  0
 30 82  1  0  0  0  0
 31 83  1  0  0  0  0
 32 66  2  0  0  0  0
 33 67  1  0  0  0  0
 33 70  1  0  0  0  0
 34 37  2  0  0  0  0
 35 36  2  0  0  0  0
 36 39  1  0  0  0  0
 37 61  1  0  0  0  0
 38 71  1  0  0  0  0
 38 75  2  0  0  0  0
 39 68  1  0  0  0  0
 39 76  2  0  0  0  0
 40 53  1  0  0  0  0
 40 72  1  0  0  0  0
 40 77  2  0  0  0  0
 41 63  1  0  0  0  0
 41 69  1  0  0  0  0
 41 78  2  0  0  0  0
 42 64  1  0  0  0  0
 42 73  1  0  0  0  0
 42 79  2  0  0  0  0
 43 46  1  0  0  0  0
 44 53  1  0  0  0  0
 45 69  1  0  0  0  0
 46 48  1  0  0  0  0
 47 49  1  0  0  0  0
 47 50  1  0  0  0  0
 48 52  1  0  0  0  0
 49 54  1  0  0  0  0
 50 68  1  0  0  0  0
 51 54  1  0  0  0  0
 51 68  1  0  0  0  0
 52 72  1  0  0  0  0
 53 69  1  0  0  0  0
 54 67  1  0  0  0  0
 56 64  1  0  0  0  0
 57 65  1  0  0  0  0
 58 65  1  0  0  0  0
 59 65  1  0  0  0  0
 60 74  1  0  0  0  0
 61 62  1  0  0  0  0
 62 81  1  0  0  0  0
 63 65  1  0  0  0  0
 63 73  1  0  0  0  0
 64 74  1  0  0  0  0
 66 67  1  0  0  0  0
M  CHG  1  74   1
M  ISO  4  36 100  39 100  62 101  81 101
M  END
> <Batch ID>
0129

> <Smiles>
CNC(C)C(=O)NC(C(=O)N1Cc2cc([101O:1][101CH2:1]CC=Cc3ccc(C=[100CH:0][100C:0](=O)N4CCCC(n5nc(-c6ccc(Oc7ccc(F)cc7F)cc6)c(C(N)=O)c5N)C4)c(C)c3)ccc2CC1C(=O)NC1CCCc2ccccc21)C(C)(C)C

> <Shape>
0.285

> <Color>
0.107

> <Negative vol penalty>
0.000

$$$$

  -OEChem-04052302193D

 84 92  0     1  0  0  0  0  0999 V2000
  -26.5352  -18.2842   21.0491 C   0  0  0  0  0  0  0  0  0  0  0  0
  -25.7734  -19.4462   20.9796 C   0  0  0  0  0  0  0  0  0  0  0  0
  -23.5873  -15.4442   19.9505 C   0  0  0  0  0  0  0  0  0  0  0  0
  -24.8146  -15.0393   21.9917 C   0  0  0  0  0  0  0  0  0  0  0  0
  -27.8619  -18.3461   21.4732 C   0  0  0  0  0  0  0  0  0  0  0  0
  -26.3376  -20.6707   21.3353 C   0  0  0  0  0  0  0  0  0  0  0  0
  -25.1602  -26.1333   18.8295 C   0  0  0  0  0  0  0  0  0  0  0  0
  -24.5878  -14.8018   19.2214 C   0  0  0  0  0  0  0  0  0  0  0  0
  -25.8152  -14.3967   21.2626 C   0  0  0  0  0  0  0  0  0  0  0  0
  -24.3312  -27.1847   19.2184 C   0  0  0  0  0  0  0  0  0  0  0  0
  -28.4439  -15.2778   19.3276 C   0  0  0  0  0  0  0  0  0  0  0  0
  -29.7689  -15.5955   19.6262 C   0  0  0  0  0  0  0  0  0  0  0  0
  -20.2427  -26.9629   22.1227 C   0  0  0  0  0  0  0  0  0  0  0  0
  -26.2126  -28.2732   20.2646 C   0  0  0  0  0  0  0  0  0  0  0  0
  -17.8587  -27.5658   23.4403 C   0  0  0  0  0  0  0  0  0  0  0  0
  -30.1936  -13.2866   20.1973 C   0  0  0  0  0  0  0  0  0  0  0  0
  -23.7007  -15.5631   21.3357 C   0  0  0  0  0  0  0  0  0  0  0  0
  -19.3455  -25.9438   22.4423 C   0  0  0  0  0  0  0  0  0  0  0  0
  -19.9480  -28.2834   22.4620 C   0  0  0  0  0  0  0  0  0  0  0  0
  -21.5228  -15.6412   22.6617 C   0  0  0  0  0  0  0  0  0  0  0  0
  -28.4456  -19.5733   21.8250 C   0  0  0  0  0  0  0  0  0  0  0  0
  -26.5217  -26.1388   19.1652 C   0  0  0  0  0  0  0  0  0  0  0  0
  -27.6730  -20.7489   21.7658 C   0  0  0  0  0  0  0  0  0  0  0  0
  -27.0573  -27.2220   19.8766 C   0  0  0  0  0  0  0  0  0  0  0  0
  -18.1535  -26.2452   23.1011 C   0  0  0  0  0  0  0  0  0  0  0  0
  -18.7560  -28.5848   23.1207 C   0  0  0  0  0  0  0  0  0  0  0  0
  -25.7018  -14.2780   19.8774 C   0  0  0  0  0  0  0  0  0  0  0  0
  -24.8568  -28.2534   19.9386 C   0  0  0  0  0  0  0  0  0  0  0  0
  -27.9937  -13.9646   19.4639 C   0  0  0  0  0  0  0  0  0  0  0  0
  -30.6437  -14.5999   20.0610 C   0  0  0  0  0  0  0  0  0  0  0  0
  -28.8686  -12.9690   19.8987 C   0  0  0  0  0  0  0  0  0  0  0  0
  -22.6677  -16.2272   22.0893 C   0  0  0  0  0  0  0  0  0  0  0  0
  -20.8668  -16.6866   23.2645 C   0  0  0  0  0  0  0  0  0  0  0  0
  -19.6811  -24.5743   22.0751 C   0  0  0  0  0  0  0  0  0  0  0  0
  -20.9148  -29.3370   22.1113 C   0  0  0  0  0  0  0  0  0  0  0  0
  -20.7564  -23.8893   22.5148 C   0  0  0  0  0  0  0  0  0  0  0  0
  -22.1791  -29.4054   22.5570 C   0  0  0  0  0  0  0  0  0  0  0  0
  -21.0909  -14.2740   22.6497 C   0  0  0  0  0  0  0  0  0  0  0  0
  -20.9544  -22.4993   22.0573 C   0  0  0  0  0  0  0  0  0  0  0  0
  -28.4105  -24.2659   20.9054 C   0  0  0  0  0  0  0  0  0  0  0  0
  -30.7419  -26.2038   19.7516 C   0  0  0  0  0  0  0  0  0  0  0  0
  -31.6074  -29.2387   18.4526 C   0  0  0  0  0  0  0  0  0  0  0  0
  -29.8693  -19.5839   22.3228 C   0  0  0  0  0  0  0  0  0  0  0  0
  -27.4081  -25.0101   18.7151 C   0  0  0  0  0  0  0  0  0  0  0  0
  -28.5165  -27.2855   20.2444 C   0  0  0  0  0  0  0  0  0  0  0  0
  -30.5038  -20.9723   22.3238 C   0  0  0  0  0  0  0  0  0  0  0  0
  -21.6399  -20.9316   25.2984 C   0  0  0  0  0  0  0  0  0  0  0  0
  -29.5509  -21.9943   22.9356 C   0  0  0  0  0  0  0  0  0  0  0  0
  -21.9236  -19.4930   24.8746 C   0  0  0  0  0  0  0  0  0  0  0  0
  -22.1227  -21.9402   24.2571 C   0  0  0  0  0  0  0  0  0  0  0  0
  -21.8698  -20.2479   22.4647 C   0  0  0  0  0  0  0  0  0  0  0  0
  -28.2568  -22.0995   22.1196 C   0  0  1  0  0  0  0  0  0  0  0  0
  -28.6735  -24.8722   19.5561 C   0  0  1  0  0  0  0  0  0  0  0  0
  -21.3501  -19.2144   23.4762 C   0  0  1  0  0  0  0  0  0  0  0  0
  -17.1689  -25.1788   23.4593 C   0  0  0  0  0  0  0  0  0  0  0  0
  -18.4073  -29.9885   23.4995 C   0  0  0  0  0  0  0  0  0  0  0  0
  -33.5940  -30.5409   17.6433 C   0  0  0  0  0  0  0  0  0  0  0  0
  -31.6081  -26.6725   22.6395 C   0  0  0  0  0  0  0  0  0  0  0  0
  -32.9192  -28.6544   21.8513 C   0  0  0  0  0  0  0  0  0  0  0  0
  -33.4910  -26.3726   21.0213 C   0  0  0  0  0  0  0  0  0  0  0  0
  -30.4733  -29.5004   15.7315 C   0  0  0  0  0  0  0  0  0  0  0  0
  -23.1310  -30.5084   22.1827 C   0  0  0  0  0  0  0  0  0  0  0  0
  -24.3933  -29.9636   21.5249 C   0  0  0  0  0  0  0  0  0  1  0  0
  -31.3789  -27.4958   20.2032 C   0  0  1  0  0  0  0  0  0  0  0  0
  -32.4534  -29.6152   17.2497 C   0  0  2  0  0  0  0  0  0  0  0  0
  -32.3214  -27.2970   21.4237 C   0  0  0  0  0  0  0  0  0  0  0  0
  -22.7379  -17.5428   22.3087 N   0  0  0  0  0  0  0  0  0  0  0  0
  -21.6289  -17.7922   23.0255 N   0  0  0  0  0  0  0  0  0  0  0  0
  -21.6082  -21.6187   22.9174 N   0  0  0  0  0  0  0  0  0  0  0  0
  -29.3411  -26.1549   19.7871 N   0  0  0  0  0  0  0  0  0  0  0  0
  -19.7183  -16.7588   23.9702 N   0  0  0  0  0  0  0  0  0  0  0  0
  -21.8836  -13.3287   21.9846 N   0  0  0  0  0  0  0  0  0  0  0  0
  -28.4755  -22.8857   20.9244 N   0  0  0  0  0  0  0  0  0  0  0  0
  -32.0339  -28.0605   19.0283 N   0  0  0  0  0  0  0  0  0  0  0  0
  -31.6195  -30.3060   16.2258 N   0  3  0  0  0  0  0  0  0  0  0  0
  -20.0249  -13.9046   23.1980 O   0  0  0  0  0  0  0  0  0  0  0  0
  -20.5326  -22.2035   20.9378 O   0  0  0  0  0  0  0  0  0  0  0  0
  -28.1680  -24.9962   21.8591 O   0  0  0  0  0  0  0  0  0  0  0  0
  -31.4604  -25.2748   19.3743 O   0  0  0  0  0  0  0  0  0  0  0  0
  -30.6650  -29.9232   18.8447 O   0  0  0  0  0  0  0  0  0  0  0  0
  -26.6782  -13.6507   19.1663 O   0  0  0  0  0  0  0  0  0  0  0  0
  -24.0497  -29.2805   20.3200 O   0  0  0  0  0  0  0  0  0  1  0  0
  -31.9165  -14.9047   20.3462 F   0  0  0  0  0  0  0  0  0  0  0  0
  -28.4422  -11.7055   20.0305 F   0  0  0  0  0  0  0  0  0  0  0  0
  1  2  1  0  0  0  0
  1  5  2  0  0  0  0
  2  6  2  0  0  0  0
  3  8  2  0  0  0  0
  3 17  1  0  0  0  0
  4  9  1  0  0  0  0
  4 17  2  0  0  0  0
  5 21  1  0  0  0  0
  6 23  1  0  0  0  0
  7 10  2  0  0  0  0
  7 22  1  0  0  0  0
  8 27  1  0  0  0  0
  9 27  2  0  0  0  0
 10 28  1  0  0  0  0
 11 12  2  0  0  0  0
 11 29  1  0  0  0  0
 12 30  1  0  0  0  0
 13 18  2  0  0  0  0
 13 19  1  0  0  0  0
 14 24  1  0  0  0  0
 14 28  2  0  0  0  0
 15 25  2  0  0  0  0
 15 26  1  0  0  0  0
 16 30  2  0  0  0  0
 16 31  1  0  0  0  0
 17 32  1  0  0  0  0
 18 25  1  0  0  0  0
 18 34  1  0  0  0  0
 19 26  2  0  0  0  0
 19 35  1  0  0  0  0
 20 32  1  0  0  0  0
 20 33  2  0  0  0  0
 20 38  1  0  0  0  0
 21 23  2  0  0  0  0
 21 43  1  0  0  0  0
 22 24  2  0  0  0  0
 22 44  1  0  0  0  0
 23 52  1  0  0  0  0
 24 45  1  0  0  0  0
 25 55  1  0  0  0  0
 26 56  1  0  0  0  0
 27 81  1  0  0  0  0
 28 82  1  0  0  0  0
 29 31  2  0  0  0  0
 29 81  1  0  0  0  0
 30 83  1  0  0  0  0
 31 84  1  0  0  0  0
 32 67  2  0  0  0  0
 33 68  1  0  0  0  0
 33 71  1  0  0  0  0
 34 36  2  0  0  0  0
 35 37  2  0  0  0  0
 36 39  1  0  0  0  0
 37 62  1  0  0  0  0
 38 72  1  0  0  0  0
 38 76  2  0  0  0  0
 39 69  1  0  0  0  0
 39 77  2  0  0  0  0
 40 53  1  0  0  0  0
 40 73  1  0  0  0  0
 40 78  2  0  0  0  0
 41 64  1  0  0  0  0
 41 70  1  0  0  0  0
 41 79  2  0  0  0  0
 42 65  1  0  0  0  0
 42 74  1  0  0  0  0
 42 80  2  0  0  0  0
 43 46  1  0  0  0  0
 44 53  1  0  0  0  0
 45 70  1  0  0  0  0
 46 48  1  0  0  0  0
 47 49  1  0  0  0  0
 47 50  1  0  0  0  0
 48 52  1  0  0  0  0
 49 54  1  0  0  0  0
 50 69  1  0  0  0  0
 51 54  1  0  0  0  0
 51 69  1  0  0  0  0
 52 73  1  0  0  0  0
 53 70  1  0  0  0  0
 54 68  1  0  0  0  0
 57 65  1  0  0  0  0
 58 66  1  0  0  0  0
 59 66  1  0  0  0  0
 60 66  1  0  0  0  0
 61 75  1  0  0  0  0
 62 63  1  0  0  0  0
 63 82  1  0  0  0  0
 64 66  1  0  0  0  0
 64 74  1  0  0  0  0
 65 75  1  0  0  0  0
 67 68  1  0  0  0  0
M  CHG  1  75   1
M  ISO  4  36 100  39 100  63 101  82 101
M  END
> <Batch ID>
0129

> <Smiles>
CNC(C)C(=O)NC(C(=O)N1Cc2cc([101O:1][101CH2:1]CC=Cc3cc(C=[100CH:0][100C:0](=O)N4CCCC(n5nc(-c6ccc(Oc7ccc(F)cc7F)cc6)c(C(N)=O)c5N)C4)c(C)cc3C)ccc2CC1C(=O)NC1CCCc2ccccc21)C(C)(C)C

> <Shape>
0.242

> <Color>
0.048

> <Negative vol penalty>
0.000

$$$$

  -OEChem-04052302193D

 82 90  0     1  0  0  0  0  0999 V2000
  -27.4255  -36.6073   20.4780 C   0  0  0  0  0  0  0  0  0  0  0  0
  -27.8510  -35.2952   20.6592 C   0  0  0  0  0  0  0  0  0  0  0  0
  -24.0130   -9.5639   22.2241 C   0  0  0  0  0  0  0  0  0  0  0  0
  -24.0288   -9.0687   19.8595 C   0  0  0  0  0  0  0  0  0  0  0  0
  -28.0375  -21.3745   20.3319 C   0  0  0  0  0  0  0  0  0  0  0  0
  -28.1918  -22.7355   20.0684 C   0  0  0  0  0  0  0  0  0  0  0  0
  -26.2138  -37.0278   21.0246 C   0  0  0  0  0  0  0  0  0  0  0  0
  -27.0653  -34.4031   21.3882 C   0  0  0  0  0  0  0  0  0  0  0  0
  -26.6669  -29.8819   19.1420 C   0  0  0  0  0  0  0  0  0  0  0  0
  -22.9952   -8.6290   22.4131 C   0  0  0  0  0  0  0  0  0  0  0  0
  -23.0111   -8.1337   20.0485 C   0  0  0  0  0  0  0  0  0  0  0  0
  -27.7511  -29.0137   19.2617 C   0  0  0  0  0  0  0  0  0  0  0  0
  -22.7139   -5.2683   22.6573 C   0  0  0  0  0  0  0  0  0  0  0  0
  -22.8334   -4.3886   23.7331 C   0  0  0  0  0  0  0  0  0  0  0  0
  -30.2270  -21.3237   21.3520 C   0  0  0  0  0  0  0  0  0  0  0  0
  -26.6005  -27.8289   21.0200 C   0  0  0  0  0  0  0  0  0  0  0  0
  -20.7631   -5.2300   24.6513 C   0  0  0  0  0  0  0  0  0  0  0  0
  -24.5297   -9.7838   20.9473 C   0  0  0  0  0  0  0  0  0  0  0  0
  -29.0551  -20.6686   20.9737 C   0  0  0  0  0  0  0  0  0  0  0  0
  -29.3637  -23.3907   20.4467 C   0  0  0  0  0  0  0  0  0  0  0  0
  -26.9683  -10.5199   20.8086 C   0  0  0  0  0  0  0  0  0  0  0  0
  -25.4083  -36.1378   21.7525 C   0  0  0  0  0  0  0  0  0  0  0  0
  -25.5439  -29.7366   19.9692 C   0  0  0  0  0  0  0  0  0  0  0  0
  -25.8423  -34.8124   21.9462 C   0  0  0  0  0  0  0  0  0  0  0  0
  -25.5022  -28.6950   20.9070 C   0  0  0  0  0  0  0  0  0  0  0  0
  -30.3813  -22.6848   21.0886 C   0  0  0  0  0  0  0  0  0  0  0  0
  -22.4943   -7.9139   21.3254 C   0  0  0  0  0  0  0  0  0  0  0  0
  -27.7193  -27.9888   20.2028 C   0  0  0  0  0  0  0  0  0  0  0  0
  -21.6190   -6.1290   22.5785 C   0  0  0  0  0  0  0  0  0  0  0  0
  -21.8580   -4.3694   24.7301 C   0  0  0  0  0  0  0  0  0  0  0  0
  -20.6437   -6.1098   23.5755 C   0  0  0  0  0  0  0  0  0  0  0  0
  -25.5806  -10.7499   20.7513 C   0  0  0  0  0  0  0  0  0  0  0  0
  -27.5305  -11.7470   20.5545 C   0  0  0  0  0  0  0  0  0  0  0  0
  -28.8929  -19.2494   21.2481 C   0  0  0  0  0  0  0  0  0  0  0  0
  -27.7157  -18.5899   21.2929 C   0  0  0  0  0  0  0  0  0  0  0  0
  -29.5016  -24.8462   20.1531 C   0  0  0  0  0  0  0  0  0  0  0  0
  -27.6850   -9.3055   21.0681 C   0  0  0  0  0  0  0  0  0  0  0  0
  -27.7165  -17.1404   21.5752 C   0  0  0  0  0  0  0  0  0  0  0  0
  -24.1191  -31.5507   22.1562 C   0  0  0  0  0  0  0  0  0  0  0  0
  -21.9067  -29.1787   22.1179 C   0  0  0  0  0  0  0  0  0  0  0  0
  -21.1753  -25.9092   21.4680 C   0  0  0  0  0  0  0  0  0  0  0  0
  -24.1290  -36.6511   22.3645 C   0  0  0  0  0  0  0  0  0  0  0  0
  -24.3714  -30.6650   19.8093 C   0  0  0  0  0  0  0  0  0  0  0  0
  -24.3118  -28.4837   21.8051 C   0  0  0  0  0  0  0  0  0  0  0  0
  -23.1771  -35.5422   22.8056 C   0  0  0  0  0  0  0  0  0  0  0  0
  -25.4791  -16.0419   18.8883 C   0  0  0  0  0  0  0  0  0  0  0  0
  -23.9319  -34.4683   23.5825 C   0  0  0  0  0  0  0  0  0  0  0  0
  -25.3870  -14.5457   19.1762 C   0  0  0  0  0  0  0  0  0  0  0  0
  -25.6033  -16.8641   20.1702 C   0  0  0  0  0  0  0  0  0  0  0  0
  -26.6384  -14.9375   21.3350 C   0  0  0  0  0  0  0  0  0  0  0  0
  -25.0063  -33.8084   22.7097 C   0  0  1  0  0  0  0  0  0  0  0  0
  -23.4947  -30.7405   21.0555 C   0  0  1  0  0  0  0  0  0  0  0  0
  -26.5602  -14.0877   20.0571 C   0  0  1  0  0  0  0  0  0  0  0  0
  -31.6460  -23.3629   21.5048 C   0  0  0  0  0  0  0  0  0  0  0  0
  -19.2919  -24.2540   21.5705 C   0  0  0  0  0  0  0  0  0  0  0  0
  -22.2451  -28.9846   25.1441 C   0  0  0  0  0  0  0  0  0  0  0  0
  -21.1067  -26.7564   25.0585 C   0  0  0  0  0  0  0  0  0  0  0  0
  -19.8817  -28.8091   24.3453 C   0  0  0  0  0  0  0  0  0  0  0  0
  -21.2706  -25.4446   18.5467 C   0  0  0  0  0  0  0  0  0  0  0  0
  -28.4956  -25.8091   20.7525 C   0  0  0  0  0  0  0  0  0  1  0  0
  -21.7144  -27.8838   22.8697 C   0  0  1  0  0  0  0  0  0  0  0  0
  -20.0303  -25.2651   20.7073 C   0  0  2  0  0  0  0  0  0  0  0  0
  -21.2604  -28.1134   24.3389 C   0  0  0  0  0  0  0  0  0  0  0  0
  -25.2797  -12.0231   20.4821 N   0  0  0  0  0  0  0  0  0  0  0  0
  -26.4861  -12.6041   20.3681 N   0  0  0  0  0  0  0  0  0  0  0  0
  -26.6947  -16.3700   21.0230 N   0  0  0  0  0  0  0  0  0  0  0  0
  -23.1927  -29.4214   21.6149 N   0  0  0  0  0  0  0  0  0  0  0  0
  -28.8114  -12.1657   20.4746 N   0  0  0  0  0  0  0  0  0  0  0  0
  -26.9519   -8.1355   21.3090 N   0  0  0  0  0  0  0  0  0  0  0  0
  -24.4047  -32.8554   21.8018 N   0  0  0  0  0  0  0  0  0  0  0  0
  -20.7874  -27.0846   22.0758 N   0  0  0  0  0  0  0  0  0  0  0  0
  -20.5427  -24.5640   19.4962 N   0  3  0  0  0  0  0  0  0  0  0  0
  -30.4210  -25.2363   19.4371 O   0  0  0  0  0  0  0  0  0  0  0  0
  -28.9382   -9.2628   21.1021 O   0  0  0  0  0  0  0  0  0  0  0  0
  -28.6206  -16.7004   22.2877 O   0  0  0  0  0  0  0  0  0  0  0  0
  -24.3251  -31.0310   23.2467 O   0  0  0  0  0  0  0  0  0  0  0  0
  -20.9492  -29.9434   21.9757 O   0  0  0  0  0  0  0  0  0  0  0  0
  -22.3001  -25.4169   21.5211 O   0  0  0  0  0  0  0  0  0  0  0  0
  -21.5014   -7.0013   21.5095 O   0  0  0  0  0  0  0  0  0  0  0  0
  -28.7765  -27.1403   20.3222 O   0  0  0  0  0  0  0  0  0  1  0  0
  -21.9722   -3.5234   25.7623 F   0  0  0  0  0  0  0  0  0  0  0  0
  -19.5890   -6.9335   23.5046 F   0  0  0  0  0  0  0  0  0  0  0  0
  1  2  1  0  0  0  0
  1  7  2  0  0  0  0
  2  8  2  0  0  0  0
  3 10  2  0  0  0  0
  3 18  1  0  0  0  0
  4 11  1  0  0  0  0
  4 18  2  0  0  0  0
  5  6  2  0  0  0  0
  5 19  1  0  0  0  0
  6 20  1  0  0  0  0
  7 22  1  0  0  0  0
  8 24  1  0  0  0  0
  9 12  2  0  0  0  0
  9 23  1  0  0  0  0
 10 27  1  0  0  0  0
 11 27  2  0  0  0  0
 12 28  1  0  0  0  0
 13 14  2  0  0  0  0
 13 29  1  0  0  0  0
 14 30  1  0  0  0  0
 15 19  2  0  0  0  0
 15 26  1  0  0  0  0
 16 25  1  0  0  0  0
 16 28  2  0  0  0  0
 17 30  2  0  0  0  0
 17 31  1  0  0  0  0
 18 32  1  0  0  0  0
 19 34  1  0  0  0  0
 20 26  2  0  0  0  0
 20 36  1  0  0  0  0
 21 32  1  0  0  0  0
 21 33  2  0  0  0  0
 21 37  1  0  0  0  0
 22 24  2  0  0  0  0
 22 42  1  0  0  0  0
 23 25  2  0  0  0  0
 23 43  1  0  0  0  0
 24 51  1  0  0  0  0
 25 44  1  0  0  0  0
 26 54  1  0  0  0  0
 27 79  1  0  0  0  0
 28 80  1  0  0  0  0
 29 31  2  0  0  0  0
 29 79  1  0  0  0  0
 30 81  1  0  0  0  0
 31 82  1  0  0  0  0
 32 64  2  0  0  0  0
 33 65  1  0  0  0  0
 33 68  1  0  0  0  0
 34 35  2  0  0  0  0
 35 38  1  0  0  0  0
 36 60  1  0  0  0  0
 36 73  2  0  0  0  0
 37 69  1  0  0  0  0
 37 74  2  0  0  0  0
 38 66  1  0  0  0  0
 38 75  2  0  0  0  0
 39 52  1  0  0  0  0
 39 70  1  0  0  0  0
 39 76  2  0  0  0  0
 40 61  1  0  0  0  0
 40 67  1  0  0  0  0
 40 77  2  0  0  0  0
 41 62  1  0  0  0  0
 41 71  1  0  0  0  0
 41 78  2  0  0  0  0
 42 45  1  0  0  0  0
 43 52  1  0  0  0  0
 44 67  1  0  0  0  0
 45 47  1  0  0  0  0
 46 48  1  0  0  0  0
 46 49  1  0  0  0  0
 47 51  1  0  0  0  0
 48 53  1  0  0  0  0
 49 66  1  0  0  0  0
 50 53  1  0  0  0  0
 50 66  1  0  0  0  0
 51 70  1  0  0  0  0
 52 67  1  0  0  0  0
 53 65  1  0  0  0  0
 55 62  1  0  0  0  0
 56 63  1  0  0  0  0
 57 63  1  0  0  0  0
 58 63  1  0  0  0  0
 59 72  1  0  0  0  0
 60 80  1  0  0  0  0
 61 63  1  0  0  0  0
 61 71  1  0  0  0  0
 62 72  1  0  0  0  0
 64 65  1  0  0  0  0
M  CHG  1  72   1
M  ISO  4  35 100  38 100  60 101  80 101
M  END
> <Batch ID>
0129

> <Smiles>
CNC(C)C(=O)NC(C(=O)N1Cc2cc([101O:1][101CH2:1]C(=O)c3ccc(C=[100CH:0][100C:0](=O)N4CCCC(n5nc(-c6ccc(Oc7ccc(F)cc7F)cc6)c(C(N)=O)c5N)C4)cc3C)ccc2CC1C(=O)NC1CCCc2ccccc21)C(C)(C)C

> <Shape>
0.318

> <Color>
0.131

> <Negative vol penalty>
0.000

$$$$

  -OEChem-04052302193D

 84 92  0     1  0  0  0  0  0999 V2000
  -22.8178   -8.4432   20.8755 C   0  0  0  0  0  0  0  0  0  0  0  0
  -22.3271   -9.5478   20.1866 C   0  0  0  0  0  0  0  0  0  0  0  0
  -29.1338  -25.1062   21.3669 C   0  0  0  0  0  0  0  0  0  0  0  0
  -27.1142  -23.8037   21.1178 C   0  0  0  0  0  0  0  0  0  0  0  0
  -23.7598   -8.6169   21.8886 C   0  0  0  0  0  0  0  0  0  0  0  0
  -22.7775  -10.8270   20.5113 C   0  0  0  0  0  0  0  0  0  0  0  0
  -24.1490  -17.1894   17.5189 C   0  0  0  0  0  0  0  0  0  0  0  0
  -29.7465  -24.0327   22.0131 C   0  0  0  0  0  0  0  0  0  0  0  0
  -27.7269  -22.7301   21.7640 C   0  0  0  0  0  0  0  0  0  0  0  0
  -23.8465  -18.5413   17.6762 C   0  0  0  0  0  0  0  0  0  0  0  0
  -31.2041  -21.1071   21.1475 C   0  0  0  0  0  0  0  0  0  0  0  0
  -32.5055  -20.7790   20.7678 C   0  0  0  0  0  0  0  0  0  0  0  0
  -18.6477  -24.8831   22.8545 C   0  0  0  0  0  0  0  0  0  0  0  0
  -19.8984  -26.3543   21.4026 C   0  0  0  0  0  0  0  0  0  0  0  0
  -25.5345  -18.7134   19.3909 C   0  0  0  0  0  0  0  0  0  0  0  0
  -18.7778  -27.2444   23.3492 C   0  0  0  0  0  0  0  0  0  0  0  0
  -33.2657  -21.1806   23.0256 C   0  0  0  0  0  0  0  0  0  0  0  0
  -27.8176  -24.9918   20.9192 C   0  0  0  0  0  0  0  0  0  0  0  0
  -19.4380  -25.0769   21.7216 C   0  0  0  0  0  0  0  0  0  0  0  0
  -27.1794  -26.3715   18.8707 C   0  0  0  0  0  0  0  0  0  0  0  0
  -24.2290   -9.8979   22.2193 C   0  0  0  0  0  0  0  0  0  0  0  0
  -25.1407  -16.5858   18.3054 C   0  0  0  0  0  0  0  0  0  0  0  0
  -23.7256  -11.0181   21.5307 C   0  0  0  0  0  0  0  0  0  0  0  0
  -25.8495  -17.3543   19.2398 C   0  0  0  0  0  0  0  0  0  0  0  0
  -18.3175  -25.9669   23.6682 C   0  0  0  0  0  0  0  0  0  0  0  0
  -19.5683  -27.4381   22.2163 C   0  0  0  0  0  0  0  0  0  0  0  0
  -29.0431  -22.8446   22.2117 C   0  0  0  0  0  0  0  0  0  0  0  0
  -24.5373  -19.3028   18.6143 C   0  0  0  0  0  0  0  0  0  0  0  0
  -30.9334  -21.4720   22.4664 C   0  0  0  0  0  0  0  0  0  0  0  0
  -33.5363  -20.8157   21.7068 C   0  0  0  0  0  0  0  0  0  0  0  0
  -31.9642  -21.5087   23.4054 C   0  0  0  0  0  0  0  0  0  0  0  0
  -27.1840  -26.1006   20.2521 C   0  0  0  0  0  0  0  0  0  0  0  0
  -26.4477  -27.5276   18.7499 C   0  0  0  0  0  0  0  0  0  0  0  0
  -19.7860  -23.9325   20.8628 C   0  0  0  0  0  0  0  0  0  0  0  0
  -20.8108  -23.8977   19.9966 C   0  0  0  0  0  0  0  0  0  0  0  0
  -27.7826  -25.6432   17.7930 C   0  0  0  0  0  0  0  0  0  0  0  0
  -25.1858  -14.2331   20.4423 C   0  0  0  0  0  0  0  0  0  0  0  0
  -28.3921  -14.7101   20.3223 C   0  0  0  0  0  0  0  0  0  0  0  0
  -30.9832  -16.8246   19.6428 C   0  0  0  0  0  0  0  0  0  0  0  0
  -22.1981  -30.0364   22.1407 C   0  0  0  0  0  0  0  0  0  0  0  0
  -25.2125  -10.0403   23.3539 C   0  0  0  0  0  0  0  0  0  0  0  0
  -25.4736  -15.1328   18.1048 C   0  0  0  0  0  0  0  0  0  0  0  0
  -26.9371  -16.7586   20.0947 C   0  0  0  0  0  0  0  0  0  0  0  0
  -25.9170  -11.3942   23.3830 C   0  0  0  0  0  0  0  0  0  0  0  0
  -25.2930  -31.4970   21.1584 C   0  0  0  0  0  0  0  0  0  0  0  0
  -24.9096  -12.5243   23.1966 C   0  0  0  0  0  0  0  0  0  0  0  0
  -26.1282  -30.3041   20.6901 C   0  0  0  0  0  0  0  0  0  0  0  0
  -24.4089  -31.1342   22.3495 C   0  0  0  0  0  0  0  0  0  0  0  0
  -24.3799  -28.7639   21.6752 C   0  0  0  0  0  0  0  0  0  0  0  0
  -24.2081  -12.4193   21.8370 C   0  0  1  0  0  0  0  0  0  0  0  0
  -26.1472  -14.5010   19.3191 C   0  0  1  0  0  0  0  0  0  0  0  0
  -25.2464  -29.0657   20.4405 C   0  0  2  0  0  0  0  0  0  0  0  0
  -17.4721  -25.7600   24.8794 C   0  0  0  0  0  0  0  0  0  0  0  0
  -33.4896  -16.9432   19.6761 C   0  0  0  0  0  0  0  0  0  0  0  0
  -28.3353  -15.0082   23.3584 C   0  0  0  0  0  0  0  0  0  0  0  0
  -30.6114  -16.0431   23.2296 C   0  0  0  0  0  0  0  0  0  0  0  0
  -30.2686  -13.6900   22.4756 C   0  0  0  0  0  0  0  0  0  0  0  0
  -31.1147  -17.3095   16.7262 C   0  0  0  0  0  0  0  0  0  0  0  0
  -20.0603  -28.8041   21.8750 C   0  0  0  0  0  0  0  0  0  0  0  0
  -21.1308  -22.7036   19.1425 C   0  0  0  0  0  0  0  0  0  0  0  0
  -22.5546  -22.2099   19.3920 C   0  0  0  0  0  0  0  0  0  0  0  0
  -22.9014  -21.0253   18.5008 C   0  0  0  0  0  0  0  0  0  1  0  0
  -29.3711  -15.5867   21.0652 C   0  0  1  0  0  0  0  0  0  0  0  0
  -32.2576  -16.6311   18.8410 C   0  0  2  0  0  0  0  0  0  0  0  0
  -29.6248  -15.0931   22.5176 C   0  0  0  0  0  0  0  0  0  0  0  0
  -26.5089  -27.0114   20.9584 N   0  0  0  0  0  0  0  0  0  0  0  0
  -26.0733  -27.8659   20.0170 N   0  0  0  0  0  0  0  0  0  0  0  0
  -27.2215  -15.3324   19.8658 N   0  0  0  0  0  0  0  0  0  0  0  0
  -23.5971  -29.9529   22.0471 N   0  0  0  0  0  0  0  0  0  0  0  0
  -26.0945  -28.2776   17.6845 N   0  0  0  0  0  0  0  0  0  0  0  0
  -28.4988  -24.4766   18.0934 N   0  0  0  0  0  0  0  0  0  0  0  0
  -25.0756  -12.8983   20.7823 N   0  0  0  0  0  0  0  0  0  0  0  0
  -30.5709  -15.6510   20.2378 N   0  0  0  0  0  0  0  0  0  0  0  0
  -21.5040  -28.8732   21.8310 N   0  0  0  0  0  0  0  0  0  0  0  0
  -32.2597  -17.5243   17.6481 N   0  3  0  0  0  0  0  0  0  0  0  0
  -27.7030  -26.0249   16.6007 O   0  0  0  0  0  0  0  0  0  0  0  0
  -24.5892  -15.1684   20.9630 O   0  0  0  0  0  0  0  0  0  0  0  0
  -28.6595  -13.5187   20.1470 O   0  0  0  0  0  0  0  0  0  0  0  0
  -30.4127  -17.9093   19.7354 O   0  0  0  0  0  0  0  0  0  0  0  0
  -21.6108  -31.0725   22.4703 O   0  0  0  0  0  0  0  0  0  0  0  0
  -29.6407  -21.7968   22.8420 O   0  0  0  0  0  0  0  0  0  0  0  0
  -24.2435  -20.6224   18.7703 O   0  0  0  0  0  0  0  0  0  1  0  0
  -34.7857  -20.4991   21.3423 F   0  0  0  0  0  0  0  0  0  0  0  0
  -31.7101  -21.8574   24.6741 F   0  0  0  0  0  0  0  0  0  0  0  0
  1  2  1  0  0  0  0
  1  5  2  0  0  0  0
  2  6  2  0  0  0  0
  3  8  2  0  0  0  0
  3 18  1  0  0  0  0
  4  9  1  0  0  0  0
  4 18  2  0  0  0  0
  5 21  1  0  0  0  0
  6 23  1  0  0  0  0
  7 10  2  0  0  0  0
  7 22  1  0  0  0  0
  8 27  1  0  0  0  0
  9 27  2  0  0  0  0
 10 28  1  0  0  0  0
 11 12  2  0  0  0  0
 11 29  1  0  0  0  0
 12 30  1  0  0  0  0
 13 19  1  0  0  0  0
 13 25  2  0  0  0  0
 14 19  2  0  0  0  0
 14 26  1  0  0  0  0
 15 24  1  0  0  0  0
 15 28  2  0  0  0  0
 16 25  1  0  0  0  0
 16 26  2  0  0  0  0
 17 30  2  0  0  0  0
 17 31  1  0  0  0  0
 18 32  1  0  0  0  0
 19 34  1  0  0  0  0
 20 32  1  0  0  0  0
 20 33  2  0  0  0  0
 20 36  1  0  0  0  0
 21 23  2  0  0  0  0
 21 41  1  0  0  0  0
 22 24  2  0  0  0  0
 22 42  1  0  0  0  0
 23 50  1  0  0  0  0
 24 43  1  0  0  0  0
 25 53  1  0  0  0  0
 26 59  1  0  0  0  0
 27 81  1  0  0  0  0
 28 82  1  0  0  0  0
 29 31  2  0  0  0  0
 29 81  1  0  0  0  0
 30 83  1  0  0  0  0
 31 84  1  0  0  0  0
 32 66  2  0  0  0  0
 33 67  1  0  0  0  0
 33 70  1  0  0  0  0
 34 35  2  0  0  0  0
 35 60  1  0  0  0  0
 36 71  1  0  0  0  0
 36 76  2  0  0  0  0
 37 51  1  0  0  0  0
 37 72  1  0  0  0  0
 37 77  2  0  0  0  0
 38 63  1  0  0  0  0
 38 68  1  0  0  0  0
 38 78  2  0  0  0  0
 39 64  1  0  0  0  0
 39 73  1  0  0  0  0
 39 79  2  0  0  0  0
 40 69  1  0  0  0  0
 40 74  1  0  0  0  0
 40 80  2  0  0  0  0
 41 44  1  0  0  0  0
 42 51  1  0  0  0  0
 43 68  1  0  0  0  0
 44 46  1  0  0  0  0
 45 47  1  0  0  0  0
 45 48  1  0  0  0  0
 46 50  1  0  0  0  0
 47 52  1  0  0  0  0
 48 69  1  0  0  0  0
 49 52  1  0  0  0  0
 49 69  1  0  0  0  0
 50 72  1  0  0  0  0
 51 68  1  0  0  0  0
 52 67  1  0  0  0  0
 54 64  1  0  0  0  0
 55 65  1  0  0  0  0
 56 65  1  0  0  0  0
 57 65  1  0  0  0  0
 58 75  1  0  0  0  0
 59 74  1  0  0  0  0
 60 61  1  0  0  0  0
 61 62  1  0  0  0  0
 62 82  1  0  0  0  0
 63 65  1  0  0  0  0
 63 73  1  0  0  0  0
 64 75  1  0  0  0  0
 66 67  1  0  0  0  0
M  CHG  1  75   1
M  ISO  4  40 100  62 101  74 100  82 101
M  END
> <Batch ID>
0129

> <Smiles>
CNC(C)C(=O)NC(C(=O)N1Cc2cc([101O:1][101CH2:1]CCC=Cc3cc(C)cc(C[100NH:0][100C:0](=O)N4CCCC(n5nc(-c6ccc(Oc7ccc(F)cc7F)cc6)c(C(N)=O)c5N)C4)c3)ccc2CC1C(=O)NC1CCCc2ccccc21)C(C)(C)C

> <Shape>
0.228

> <Color>
0.074

> <Negative vol penalty>
0.000

$$$$

  -OEChem-04052302193D

 83 91  0     1  0  0  0  0  0999 V2000
  -28.5834  -17.9699   19.8419 C   0  0  0  0  0  0  0  0  0  0  0  0
  -27.5159  -18.8276   19.5966 C   0  0  0  0  0  0  0  0  0  0  0  0
  -23.4924  -15.1473   22.2753 C   0  0  0  0  0  0  0  0  0  0  0  0
  -25.8592  -15.6328   22.2811 C   0  0  0  0  0  0  0  0  0  0  0  0
  -18.7332  -28.9777   22.5432 C   0  0  0  0  0  0  0  0  0  0  0  0
  -29.6298  -18.3795   20.6673 C   0  0  0  0  0  0  0  0  0  0  0  0
  -27.4936  -20.0950   20.1776 C   0  0  0  0  0  0  0  0  0  0  0  0
  -25.2802  -26.7862   18.8946 C   0  0  0  0  0  0  0  0  0  0  0  0
  -17.7118  -28.0296   22.5992 C   0  0  0  0  0  0  0  0  0  0  0  0
  -23.7311  -13.9927   21.5300 C   0  0  0  0  0  0  0  0  0  0  0  0
  -26.0978  -14.4781   21.5358 C   0  0  0  0  0  0  0  0  0  0  0  0
  -24.5254  -27.8018   19.4799 C   0  0  0  0  0  0  0  0  0  0  0  0
  -24.8324  -10.8462   22.0953 C   0  0  0  0  0  0  0  0  0  0  0  0
  -24.1815   -9.6762   22.4863 C   0  0  0  0  0  0  0  0  0  0  0  0
  -20.3676  -27.2395   22.9233 C   0  0  0  0  0  0  0  0  0  0  0  0
  -26.4264  -28.4313   20.8249 C   0  0  0  0  0  0  0  0  0  0  0  0
  -23.1046   -9.5537   20.3270 C   0  0  0  0  0  0  0  0  0  0  0  0
  -24.5565  -15.9674   22.6508 C   0  0  0  0  0  0  0  0  0  0  0  0
  -20.0612  -28.5827   22.7052 C   0  0  0  0  0  0  0  0  0  0  0  0
  -19.3461  -26.2913   22.9793 C   0  0  0  0  0  0  0  0  0  0  0  0
  -24.2834  -17.2770   24.8229 C   0  0  0  0  0  0  0  0  0  0  0  0
  -29.6251  -19.6562   21.2509 C   0  0  0  0  0  0  0  0  0  0  0  0
  -26.6128  -26.5782   19.2786 C   0  0  0  0  0  0  0  0  0  0  0  0
  -28.5403  -20.5216   21.0126 C   0  0  0  0  0  0  0  0  0  0  0  0
  -27.1968  -27.4140   20.2411 C   0  0  0  0  0  0  0  0  0  0  0  0
  -18.0182  -26.6864   22.8173 C   0  0  0  0  0  0  0  0  0  0  0  0
  -25.0338  -13.6581   21.1603 C   0  0  0  0  0  0  0  0  0  0  0  0
  -25.0976  -28.6227   20.4473 C   0  0  0  0  0  0  0  0  0  0  0  0
  -24.6194  -11.3701   20.8202 C   0  0  0  0  0  0  0  0  0  0  0  0
  -23.3176   -9.0299   21.6022 C   0  0  0  0  0  0  0  0  0  0  0  0
  -23.7556  -10.7238   19.9361 C   0  0  0  0  0  0  0  0  0  0  0  0
  -24.3105  -17.1606   23.4202 C   0  0  0  0  0  0  0  0  0  0  0  0
  -24.0116  -18.6037   25.0521 C   0  0  0  0  0  0  0  0  0  0  0  0
  -21.1385  -29.5846   22.6460 C   0  0  0  0  0  0  0  0  0  0  0  0
  -19.6974  -24.8959   23.2088 C   0  0  0  0  0  0  0  0  0  0  0  0
  -20.5089  -24.1563   22.4259 C   0  0  0  0  0  0  0  0  0  0  0  0
  -22.3731  -29.4228   23.1473 C   0  0  0  0  0  0  0  0  0  0  0  0
  -24.4859  -16.2756   25.8287 C   0  0  0  0  0  0  0  0  0  0  0  0
  -20.7771  -22.7528   22.7987 C   0  0  0  0  0  0  0  0  0  0  0  0
  -28.2129  -24.1809   20.6190 C   0  0  0  0  0  0  0  0  0  0  0  0
  -30.7763  -26.0820   20.0381 C   0  0  0  0  0  0  0  0  0  0  0  0
  -31.9896  -29.2272   19.5073 C   0  0  0  0  0  0  0  0  0  0  0  0
  -30.7555  -20.0367   22.1739 C   0  0  0  0  0  0  0  0  0  0  0  0
  -27.4216  -25.4954   18.6185 C   0  0  0  0  0  0  0  0  0  0  0  0
  -28.6295  -27.2452   20.6737 C   0  0  0  0  0  0  0  0  0  0  0  0
  -30.8381  -21.5357   22.4500 C   0  0  0  0  0  0  0  0  0  0  0  0
  -24.4242  -22.7610   22.4382 C   0  0  0  0  0  0  0  0  0  0  0  0
  -29.4580  -22.0943   22.7818 C   0  0  0  0  0  0  0  0  0  0  0  0
  -24.7531  -21.3028   22.7466 C   0  0  0  0  0  0  0  0  0  0  0  0
  -23.0846  -22.9050   21.7177 C   0  0  0  0  0  0  0  0  0  0  0  0
  -22.2779  -20.7990   22.7446 C   0  0  0  0  0  0  0  0  0  0  0  0
  -28.4921  -21.9135   21.6046 C   0  0  1  0  0  0  0  0  0  0  0  0
  -28.6139  -25.0448   19.4569 C   0  0  1  0  0  0  0  0  0  0  0  0
  -23.5995  -20.6346   23.5113 C   0  0  1  0  0  0  0  0  0  0  0  0
  -16.8977  -25.6982   22.8723 C   0  0  0  0  0  0  0  0  0  0  0  0
  -34.1318  -30.4697   19.1012 C   0  0  0  0  0  0  0  0  0  0  0  0
  -31.4963  -25.8002   22.9898 C   0  0  0  0  0  0  0  0  0  0  0  0
  -33.0263  -27.7651   22.7323 C   0  0  0  0  0  0  0  0  0  0  0  0
  -33.4436  -25.6820   21.4250 C   0  0  0  0  0  0  0  0  0  0  0  0
  -31.0580  -30.2066   16.8744 C   0  0  0  0  0  0  0  0  0  0  0  0
  -23.4413  -30.4794   23.0758 C   0  0  0  0  0  0  0  0  0  0  0  0
  -24.6891  -29.9711   22.3632 C   0  0  0  0  0  0  0  0  0  1  0  0
  -31.4962  -27.1683   20.8001 C   0  0  1  0  0  0  0  0  0  0  0  0
  -32.9403  -29.7765   18.4589 C   0  0  2  0  0  0  0  0  0  0  0  0
  -32.3380  -26.6061   21.9803 C   0  0  0  0  0  0  0  0  0  0  0  0
  -24.0746  -18.3207   22.8018 N   0  0  0  0  0  0  0  0  0  0  0  0
  -23.8966  -19.1788   23.8207 N   0  0  0  0  0  0  0  0  0  0  0  0
  -22.0083  -22.2082   22.4382 N   0  0  0  0  0  0  0  0  0  0  0  0
  -29.3773  -26.1685   20.0035 N   0  0  0  0  0  0  0  0  0  0  0  0
  -23.8620  -19.3228   26.1847 N   0  0  0  0  0  0  0  0  0  0  0  0
  -24.7554  -14.9625   25.4195 N   0  0  0  0  0  0  0  0  0  0  0  0
  -28.7475  -22.9072   20.5840 N   0  0  0  0  0  0  0  0  0  0  0  0
  -32.2720  -27.9130   19.8143 N   0  0  0  0  0  0  0  0  0  0  0  0
  -32.2379  -30.7603   17.5873 N   0  3  0  0  0  0  0  0  0  0  0  0
  -24.4132  -16.5340   27.0541 O   0  0  0  0  0  0  0  0  0  0  0  0
  -19.8912  -22.1458   23.4033 O   0  0  0  0  0  0  0  0  0  0  0  0
  -27.4743  -24.6367   21.4842 O   0  0  0  0  0  0  0  0  0  0  0  0
  -31.4314  -25.1935   19.4877 O   0  0  0  0  0  0  0  0  0  0  0  0
  -31.0892  -29.8982   20.0068 O   0  0  0  0  0  0  0  0  0  0  0  0
  -25.2670  -12.5313   20.4332 O   0  0  0  0  0  0  0  0  0  0  0  0
  -24.3629  -29.6144   21.0206 O   0  0  0  0  0  0  0  0  0  1  0  0
  -22.6938   -7.9055   21.9773 F   0  0  0  0  0  0  0  0  0  0  0  0
  -23.5479  -11.2216   18.7093 F   0  0  0  0  0  0  0  0  0  0  0  0
  1  2  1  0  0  0  0
  1  6  2  0  0  0  0
  2  7  2  0  0  0  0
  3 10  2  0  0  0  0
  3 18  1  0  0  0  0
  4 11  1  0  0  0  0
  4 18  2  0  0  0  0
  5  9  2  0  0  0  0
  5 19  1  0  0  0  0
  6 22  1  0  0  0  0
  7 24  1  0  0  0  0
  8 12  2  0  0  0  0
  8 23  1  0  0  0  0
  9 26  1  0  0  0  0
 10 27  1  0  0  0  0
 11 27  2  0  0  0  0
 12 28  1  0  0  0  0
 13 14  2  0  0  0  0
 13 29  1  0  0  0  0
 14 30  1  0  0  0  0
 15 19  2  0  0  0  0
 15 20  1  0  0  0  0
 16 25  1  0  0  0  0
 16 28  2  0  0  0  0
 17 30  2  0  0  0  0
 17 31  1  0  0  0  0
 18 32  1  0  0  0  0
 19 34  1  0  0  0  0
 20 26  2  0  0  0  0
 20 35  1  0  0  0  0
 21 32  1  0  0  0  0
 21 33  2  0  0  0  0
 21 38  1  0  0  0  0
 22 24  2  0  0  0  0
 22 43  1  0  0  0  0
 23 25  2  0  0  0  0
 23 44  1  0  0  0  0
 24 52  1  0  0  0  0
 25 45  1  0  0  0  0
 26 55  1  0  0  0  0
 27 80  1  0  0  0  0
 28 81  1  0  0  0  0
 29 31  2  0  0  0  0
 29 80  1  0  0  0  0
 30 82  1  0  0  0  0
 31 83  1  0  0  0  0
 32 66  2  0  0  0  0
 33 67  1  0  0  0  0
 33 70  1  0  0  0  0
 34 37  2  0  0  0  0
 35 36  2  0  0  0  0
 36 39  1  0  0  0  0
 37 61  1  0  0  0  0
 38 71  1  0  0  0  0
 38 75  2  0  0  0  0
 39 68  1  0  0  0  0
 39 76  2  0  0  0  0
 40 53  1  0  0  0  0
 40 72  1  0  0  0  0
 40 77  2  0  0  0  0
 41 63  1  0  0  0  0
 41 69  1  0  0  0  0
 41 78  2  0  0  0  0
 42 64  1  0  0  0  0
 42 73  1  0  0  0  0
 42 79  2  0  0  0  0
 43 46  1  0  0  0  0
 44 53  1  0  0  0  0
 45 69  1  0  0  0  0
 46 48  1  0  0  0  0
 47 49  1  0  0  0  0
 47 50  1  0  0  0  0
 48 52  1  0  0  0  0
 49 54  1  0  0  0  0
 50 68  1  0  0  0  0
 51 54  1  0  0  0  0
 51 68  1  0  0  0  0
 52 72  1  0  0  0  0
 53 69  1  0  0  0  0
 54 67  1  0  0  0  0
 56 64  1  0  0  0  0
 57 65  1  0  0  0  0
 58 65  1  0  0  0  0
 59 65  1  0  0  0  0
 60 74  1  0  0  0  0
 61 62  1  0  0  0  0
 62 81  1  0  0  0  0
 63 65  1  0  0  0  0
 63 73  1  0  0  0  0
 64 74  1  0  0  0  0
 66 67  1  0  0  0  0
M  CHG  1  74   1
M  ISO  4  36 100  39 100  62 101  81 101
M  END
> <Batch ID>
0129

> <Smiles>
CNC(C)C(=O)NC(C(=O)N1Cc2cc([101O:1][101CH2:1]CC=Cc3ccc(C)c(C=[100CH:0][100C:0](=O)N4CCCC(n5nc(-c6ccc(Oc7ccc(F)cc7F)cc6)c(C(N)=O)c5N)C4)c3)ccc2CC1C(=O)NC1CCCc2ccccc21)C(C)(C)C

> <Shape>
0.246

> <Color>
0.052

> <Negative vol penalty>
0.000

$$$$

  -OEChem-04052302193D

 85 93  0     1  0  0  0  0  0999 V2000
  -25.6510  -23.8584   17.4024 C   0  0  0  0  0  0  0  0  0  0  0  0
  -24.6011  -24.4211   18.1211 C   0  0  0  0  0  0  0  0  0  0  0  0
  -22.5811  -24.4616   23.8399 C   0  0  0  0  0  0  0  0  0  0  0  0
  -27.4928  -12.4942   18.8392 C   0  0  0  0  0  0  0  0  0  0  0  0
  -27.1814  -11.5356   21.0349 C   0  0  0  0  0  0  0  0  0  0  0  0
  -22.7836  -23.2183   23.2410 C   0  0  0  0  0  0  0  0  0  0  0  0
  -21.5614  -25.2974   23.3845 C   0  0  0  0  0  0  0  0  0  0  0  0
  -26.9668  -24.0681   17.8132 C   0  0  0  0  0  0  0  0  0  0  0  0
  -24.8663  -25.1930   19.2517 C   0  0  0  0  0  0  0  0  0  0  0  0
  -22.1363  -29.4564   19.3774 C   0  0  0  0  0  0  0  0  0  0  0  0
  -28.5611  -11.6267   18.6119 C   0  0  0  0  0  0  0  0  0  0  0  0
  -28.2497  -10.6680   20.8076 C   0  0  0  0  0  0  0  0  0  0  0  0
  -20.8039  -29.3478   19.7730 C   0  0  0  0  0  0  0  0  0  0  0  0
  -28.8014   -7.7832   19.1360 C   0  0  0  0  0  0  0  0  0  0  0  0
  -28.6331   -6.4442   19.4884 C   0  0  0  0  0  0  0  0  0  0  0  0
  -21.4046  -30.1049   21.9832 C   0  0  0  0  0  0  0  0  0  0  0  0
  -30.4949   -6.6130   21.0189 C   0  0  0  0  0  0  0  0  0  0  0  0
  -26.8030  -12.4487   20.0507 C   0  0  0  0  0  0  0  0  0  0  0  0
  -21.9665  -22.8107   22.1865 C   0  0  0  0  0  0  0  0  0  0  0  0
  -20.7443  -24.8898   22.3300 C   0  0  0  0  0  0  0  0  0  0  0  0
  -24.3416  -13.1167   19.9941 C   0  0  0  0  0  0  0  0  0  0  0  0
  -27.2487  -24.8510   18.9438 C   0  0  0  0  0  0  0  0  0  0  0  0
  -23.1164  -29.8803   20.2864 C   0  0  0  0  0  0  0  0  0  0  0  0
  -26.1870  -25.4123   19.6788 C   0  0  0  0  0  0  0  0  0  0  0  0
  -22.7484  -30.2205   21.5960 C   0  0  0  0  0  0  0  0  0  0  0  0
  -20.9469  -23.6465   21.7309 C   0  0  0  0  0  0  0  0  0  0  0  0
  -28.9396  -10.7136   19.5961 C   0  0  0  0  0  0  0  0  0  0  0  0
  -20.4383  -29.6693   21.0769 C   0  0  0  0  0  0  0  0  0  0  0  0
  -29.8165   -8.5372   19.7250 C   0  0  0  0  0  0  0  0  0  0  0  0
  -29.4798   -5.8591   20.4299 C   0  0  0  0  0  0  0  0  0  0  0  0
  -30.6632   -7.9521   20.6664 C   0  0  0  0  0  0  0  0  0  0  0  0
  -25.6997  -13.3450   20.2862 C   0  0  0  0  0  0  0  0  0  0  0  0
  -23.7048  -14.2622   20.4048 C   0  0  0  0  0  0  0  0  0  0  0  0
  -22.2071  -21.5054   21.5842 C   0  0  0  0  0  0  0  0  0  0  0  0
  -19.6784  -25.7984   21.8756 C   0  0  0  0  0  0  0  0  0  0  0  0
  -23.3616  -21.1122   21.0095 C   0  0  0  0  0  0  0  0  0  0  0  0
  -18.6804  -26.2660   22.6418 C   0  0  0  0  0  0  0  0  0  0  0  0
  -23.7121  -11.9715   19.4043 C   0  0  0  0  0  0  0  0  0  0  0  0
  -23.4530  -19.7486   20.4500 C   0  0  0  0  0  0  0  0  0  0  0  0
  -25.7364  -28.5786   21.5292 C   0  0  0  0  0  0  0  0  0  0  0  0
  -26.1313  -31.5363   22.8015 C   0  0  0  0  0  0  0  0  0  0  0  0
  -24.7106  -34.4751   23.7974 C   0  0  0  0  0  0  0  0  0  0  0  0
  -28.6847  -25.0105   19.3766 C   0  0  0  0  0  0  0  0  0  0  0  0
  -24.5451  -30.0178   19.8365 C   0  0  0  0  0  0  0  0  0  0  0  0
  -23.7591  -30.7001   22.6044 C   0  0  0  0  0  0  0  0  0  0  0  0
  -28.8988  -26.1508   20.3687 C   0  0  0  0  0  0  0  0  0  0  0  0
  -25.3531  -18.1579   23.1503 C   0  0  0  0  0  0  0  0  0  0  0  0
  -27.8463  -26.1033   21.4718 C   0  0  0  0  0  0  0  0  0  0  0  0
  -25.5389  -16.7506   22.5891 C   0  0  0  0  0  0  0  0  0  0  0  0
  -25.3696  -19.2187   22.0507 C   0  0  0  0  0  0  0  0  0  0  0  0
  -24.5718  -17.5535   20.3981 C   0  0  0  0  0  0  0  0  0  0  0  0
  -26.4355  -26.2762   20.8962 C   0  0  1  0  0  0  0  0  0  0  0  0
  -25.5422  -29.9676   20.9900 C   0  0  1  0  0  0  0  0  0  0  0  0
  -24.5114  -16.4660   21.4821 C   0  0  1  0  0  0  0  0  0  0  0  0
  -20.7662  -23.3419   19.2488 C   0  0  0  0  0  0  0  0  0  0  0  0
  -25.2825  -36.6881   24.8331 C   0  0  0  0  0  0  0  0  0  0  0  0
  -26.3771  -30.1930   25.5301 C   0  0  0  0  0  0  0  0  0  0  0  0
  -25.9910  -32.4290   26.5881 C   0  0  0  0  0  0  0  0  0  0  0  0
  -27.9891  -32.0647   25.1398 C   0  0  0  0  0  0  0  0  0  0  0  0
  -23.7657  -35.9630   21.4200 C   0  0  0  0  0  0  0  0  0  0  0  0
  -20.0694  -23.2085   20.5972 C   0  0  0  0  0  0  0  0  0  0  0  0
  -17.6155  -27.1967   22.1346 C   0  0  0  0  0  0  0  0  0  0  0  0
  -17.5807  -28.4919   22.9436 C   0  0  0  0  0  0  0  0  0  0  0  0
  -18.8941  -29.2546   22.8374 C   0  0  0  0  0  0  0  0  0  1  0  0
  -25.6998  -32.2174   24.0778 C   0  0  1  0  0  0  0  0  0  0  0  0
  -25.0951  -35.9198   23.5342 C   0  0  2  0  0  0  0  0  0  0  0  0
  -26.4953  -31.7152   25.3157 C   0  0  0  0  0  0  0  0  0  0  0  0
  -25.9140  -14.5416   20.8396 N   0  0  0  0  0  0  0  0  0  0  0  0
  -24.6820  -15.0755   20.8984 N   0  0  0  0  0  0  0  0  0  0  0  0
  -24.4206  -18.8939   20.9752 N   0  0  0  0  0  0  0  0  0  0  0  0
  -25.1443  -30.8119   22.1183 N   0  0  0  0  0  0  0  0  0  0  0  0
  -22.4097  -14.6431   20.3882 N   0  0  0  0  0  0  0  0  0  0  0  0
  -24.5142  -10.8810   19.0412 N   0  0  0  0  0  0  0  0  0  0  0  0
  -26.1815  -27.6677   20.5903 N   0  0  0  0  0  0  0  0  0  0  0  0
  -25.8156  -33.6512   23.8346 N   0  0  0  0  0  0  0  0  0  0  0  0
  -24.0372  -36.5999   22.7344 N   0  3  0  0  0  0  0  0  0  0  0  0
  -22.4770  -11.9234   19.1902 O   0  0  0  0  0  0  0  0  0  0  0  0
  -22.6689  -19.4507   19.5471 O   0  0  0  0  0  0  0  0  0  0  0  0
  -25.5013  -28.3506   22.7101 O   0  0  0  0  0  0  0  0  0  0  0  0
  -27.2993  -31.6489   22.4210 O   0  0  0  0  0  0  0  0  0  0  0  0
  -23.5468  -34.1141   23.9580 O   0  0  0  0  0  0  0  0  0  0  0  0
  -29.9818   -9.8667   19.3746 O   0  0  0  0  0  0  0  0  0  0  0  0
  -19.1385  -29.5636   21.4658 O   0  0  0  0  0  0  0  0  0  1  0  0
  -29.3171   -4.5736   20.7693 F   0  0  0  0  0  0  0  0  0  0  0  0
  -31.6395   -8.6716   21.2365 F   0  0  0  0  0  0  0  0  0  0  0  0
  1  2  1  0  0  0  0
  1  8  2  0  0  0  0
  2  9  2  0  0  0  0
  3  6  2  0  0  0  0
  3  7  1  0  0  0  0
  4 11  2  0  0  0  0
  4 18  1  0  0  0  0
  5 12  1  0  0  0  0
  5 18  2  0  0  0  0
  6 19  1  0  0  0  0
  7 20  2  0  0  0  0
  8 22  1  0  0  0  0
  9 24  1  0  0  0  0
 10 13  2  0  0  0  0
 10 23  1  0  0  0  0
 11 27  1  0  0  0  0
 12 27  2  0  0  0  0
 13 28  1  0  0  0  0
 14 15  2  0  0  0  0
 14 29  1  0  0  0  0
 15 30  1  0  0  0  0
 16 25  1  0  0  0  0
 16 28  2  0  0  0  0
 17 30  2  0  0  0  0
 17 31  1  0  0  0  0
 18 32  1  0  0  0  0
 19 26  2  0  0  0  0
 19 34  1  0  0  0  0
 20 26  1  0  0  0  0
 20 35  1  0  0  0  0
 21 32  1  0  0  0  0
 21 33  2  0  0  0  0
 21 38  1  0  0  0  0
 22 24  2  0  0  0  0
 22 43  1  0  0  0  0
 23 25  2  0  0  0  0
 23 44  1  0  0  0  0
 24 52  1  0  0  0  0
 25 45  1  0  0  0  0
 26 61  1  0  0  0  0
 27 82  1  0  0  0  0
 28 83  1  0  0  0  0
 29 31  2  0  0  0  0
 29 82  1  0  0  0  0
 30 84  1  0  0  0  0
 31 85  1  0  0  0  0
 32 68  2  0  0  0  0
 33 69  1  0  0  0  0
 33 72  1  0  0  0  0
 34 36  2  0  0  0  0
 35 37  2  0  0  0  0
 36 39  1  0  0  0  0
 37 62  1  0  0  0  0
 38 73  1  0  0  0  0
 38 77  2  0  0  0  0
 39 70  1  0  0  0  0
 39 78  2  0  0  0  0
 40 53  1  0  0  0  0
 40 74  1  0  0  0  0
 40 79  2  0  0  0  0
 41 65  1  0  0  0  0
 41 71  1  0  0  0  0
 41 80  2  0  0  0  0
 42 66  1  0  0  0  0
 42 75  1  0  0  0  0
 42 81  2  0  0  0  0
 43 46  1  0  0  0  0
 44 53  1  0  0  0  0
 45 71  1  0  0  0  0
 46 48  1  0  0  0  0
 47 49  1  0  0  0  0
 47 50  1  0  0  0  0
 48 52  1  0  0  0  0
 49 54  1  0  0  0  0
 50 70  1  0  0  0  0
 51 54  1  0  0  0  0
 51 70  1  0  0  0  0
 52 74  1  0  0  0  0
 53 71  1  0  0  0  0
 54 69  1  0  0  0  0
 55 61  1  0  0  0  0
 56 66  1  0  0  0  0
 57 67  1  0  0  0  0
 58 67  1  0  0  0  0
 59 67  1  0  0  0  0
 60 76  1  0  0  0  0
 62 63  1  0  0  0  0
 63 64  1  0  0  0  0
 64 83  1  0  0  0  0
 65 67  1  0  0  0  0
 65 75  1  0  0  0  0
 66 76  1  0  0  0  0
 68 69  1  0  0  0  0
M  CHG  1  76   1
M  ISO  4  36 100  39 100  64 101  83 101
M  END
> <Batch ID>
0129

> <Smiles>
CCc1c(C=CCC[101CH2:1][101O:1]c2ccc3c(c2)CN(C(=O)C(NC(=O)C(C)NC)C(C)(C)C)C(C(=O)NC2CCCc4ccccc42)C3)cccc1C=[100CH:0][100C:0](=O)N1CCCC(n2nc(-c3ccc(Oc4ccc(F)cc4F)cc3)c(C(N)=O)c2N)C1

> <Shape>
0.261

> <Color>
0.077

> <Negative vol penalty>
0.000

$$$$

  -OEChem-04052302193D

 82 90  0     1  0  0  0  0  0999 V2000
  -16.5381  -30.6320   23.8342 C   0  0  0  0  0  0  0  0  0  0  0  0
  -17.8528  -31.0660   23.6977 C   0  0  0  0  0  0  0  0  0  0  0  0
  -25.4897  -16.2872   21.5405 C   0  0  0  0  0  0  0  0  0  0  0  0
  -25.4106  -16.1917   19.1277 C   0  0  0  0  0  0  0  0  0  0  0  0
  -16.2552  -29.2671   23.8634 C   0  0  0  0  0  0  0  0  0  0  0  0
  -18.8856  -30.1351   23.5913 C   0  0  0  0  0  0  0  0  0  0  0  0
  -24.0042  -30.6785   20.2732 C   0  0  0  0  0  0  0  0  0  0  0  0
  -24.2344  -15.6826   21.6056 C   0  0  0  0  0  0  0  0  0  0  0  0
  -24.1553  -15.5870   19.1928 C   0  0  0  0  0  0  0  0  0  0  0  0
  -25.3044  -31.0534   20.6090 C   0  0  0  0  0  0  0  0  0  0  0  0
  -21.2093  -13.8361   22.4149 C   0  0  0  0  0  0  0  0  0  0  0  0
  -21.0335  -12.8044   23.3370 C   0  0  0  0  0  0  0  0  0  0  0  0
  -32.2636  -26.6798   23.2460 C   0  0  0  0  0  0  0  0  0  0  0  0
  -30.9105  -27.2121   21.3166 C   0  0  0  0  0  0  0  0  0  0  0  0
  -25.9112  -28.7292   20.8301 C   0  0  0  0  0  0  0  0  0  0  0  0
  -32.4248  -28.8623   22.2224 C   0  0  0  0  0  0  0  0  0  0  0  0
  -22.7760  -11.5339   22.2477 C   0  0  0  0  0  0  0  0  0  0  0  0
  -26.0778  -16.5418   20.3016 C   0  0  0  0  0  0  0  0  0  0  0  0
  -31.3078  -26.3072   22.3010 C   0  0  0  0  0  0  0  0  0  0  0  0
  -28.6274  -16.5256   20.2178 C   0  0  0  0  0  0  0  0  0  0  0  0
  -17.2840  -28.3190   23.7477 C   0  0  0  0  0  0  0  0  0  0  0  0
  -23.6444  -29.3240   20.2238 C   0  0  0  0  0  0  0  0  0  0  0  0
  -18.6163  -28.7562   23.6203 C   0  0  0  0  0  0  0  0  0  0  0  0
  -24.6065  -28.3396   20.4909 C   0  0  0  0  0  0  0  0  0  0  0  0
  -32.8221  -27.9574   23.2068 C   0  0  0  0  0  0  0  0  0  0  0  0
  -31.4690  -28.4897   21.2773 C   0  0  0  0  0  0  0  0  0  0  0  0
  -23.5672  -15.3324   20.4318 C   0  0  0  0  0  0  0  0  0  0  0  0
  -26.2573  -30.0789   20.8904 C   0  0  0  0  0  0  0  0  0  0  0  0
  -22.1684  -13.7167   21.4091 C   0  0  0  0  0  0  0  0  0  0  0  0
  -21.8168  -11.6533   23.2534 C   0  0  0  0  0  0  0  0  0  0  0  0
  -22.9518  -12.5656   21.3256 C   0  0  0  0  0  0  0  0  0  0  0  0
  -27.3742  -17.1669   20.2337 C   0  0  0  0  0  0  0  0  0  0  0  0
  -29.5373  -17.5520   20.1465 C   0  0  0  0  0  0  0  0  0  0  0  0
  -30.7255  -24.9749   22.3425 C   0  0  0  0  0  0  0  0  0  0  0  0
  -29.5603  -24.6111   21.7656 C   0  0  0  0  0  0  0  0  0  0  0  0
  -28.9408  -15.1273   20.2633 C   0  0  0  0  0  0  0  0  0  0  0  0
  -29.1058  -23.2115   21.8889 C   0  0  0  0  0  0  0  0  0  0  0  0
  -21.5687  -27.4961   21.7903 C   0  0  0  0  0  0  0  0  0  0  0  0
  -22.5056  -25.2603   19.6350 C   0  0  0  0  0  0  0  0  0  0  0  0
  -24.8995  -24.1426   17.4748 C   0  0  0  0  0  0  0  0  0  0  0  0
  -16.9343  -26.8544   23.8320 C   0  0  0  0  0  0  0  0  0  0  0  0
  -22.2447  -28.9353   19.8338 C   0  0  0  0  0  0  0  0  0  0  0  0
  -24.2762  -26.8713   20.4319 C   0  0  0  0  0  0  0  0  0  0  0  0
  -18.0463  -25.9332   23.3368 C   0  0  0  0  0  0  0  0  0  0  0  0
  -30.0407  -22.0194   18.5518 C   0  0  0  0  0  0  0  0  0  0  0  0
  -19.3902  -26.3569   23.9208 C   0  0  0  0  0  0  0  0  0  0  0  0
  -29.5264  -20.5831   18.5982 C   0  0  0  0  0  0  0  0  0  0  0  0
  -29.1498  -22.9718   19.3479 C   0  0  0  0  0  0  0  0  0  0  0  0
  -28.4179  -21.1072   20.8066 C   0  0  0  0  0  0  0  0  0  0  0  0
  -19.7613  -27.7771   23.4772 C   0  0  1  0  0  0  0  0  0  0  0  0
  -21.8554  -27.5412   20.3161 C   0  0  1  0  0  0  0  0  0  0  0  0
  -29.3252  -20.1237   20.0510 C   0  0  1  0  0  0  0  0  0  0  0  0
  -33.8439  -28.3562   24.2174 C   0  0  0  0  0  0  0  0  0  0  0  0
  -25.3958  -22.2670   15.8831 C   0  0  0  0  0  0  0  0  0  0  0  0
  -23.1167  -23.4235   21.9936 C   0  0  0  0  0  0  0  0  0  0  0  0
  -24.4614  -21.9922   20.4408 C   0  0  0  0  0  0  0  0  0  0  0  0
  -22.0163  -22.2962   20.0513 C   0  0  0  0  0  0  0  0  0  0  0  0
  -25.0822  -25.9914   15.1709 C   0  0  0  0  0  0  0  0  0  0  0  0
  -31.0395  -29.4679   20.2133 C   0  0  0  0  0  0  0  0  0  0  0  0
  -29.8480  -30.3374   20.6209 C   0  0  0  0  0  0  0  0  0  0  0  0
  -28.5732  -29.5384   20.8656 C   0  0  0  0  0  0  0  0  0  1  0  0
  -23.5940  -24.2154   19.5830 C   0  0  1  0  0  0  0  0  0  0  0  0
  -24.8143  -23.6638   16.0367 C   0  0  2  0  0  0  0  0  0  0  0  0
  -23.3031  -23.0095   20.5203 C   0  0  0  0  0  0  0  0  0  0  0  0
  -27.4751  -18.4975   20.1772 N   0  0  0  0  0  0  0  0  0  0  0  0
  -28.8026  -18.7008   20.1252 N   0  0  0  0  0  0  0  0  0  0  0  0
  -28.9246  -22.4811   20.7158 N   0  0  0  0  0  0  0  0  0  0  0  0
  -22.8925  -26.5418   20.0520 N   0  0  0  0  0  0  0  0  0  0  0  0
  -30.8863  -17.5747   20.1007 N   0  0  0  0  0  0  0  0  0  0  0  0
  -27.8853  -14.2080   20.3350 N   0  0  0  0  0  0  0  0  0  0  0  0
  -20.2539  -27.7691   22.1164 N   0  0  0  0  0  0  0  0  0  0  0  0
  -23.7482  -23.8563   18.1775 N   0  0  0  0  0  0  0  0  0  0  0  0
  -25.5642  -24.5865   15.1383 N   0  3  0  0  0  0  0  0  0  0  0  0
  -30.1224  -14.7062   20.2576 O   0  0  0  0  0  0  0  0  0  0  0  0
  -28.9094  -22.7754   23.0247 O   0  0  0  0  0  0  0  0  0  0  0  0
  -22.4730  -27.2317   22.5739 O   0  0  0  0  0  0  0  0  0  0  0  0
  -21.3560  -24.9526   19.3105 O   0  0  0  0  0  0  0  0  0  0  0  0
  -25.8899  -24.7102   17.9302 O   0  0  0  0  0  0  0  0  0  0  0  0
  -22.3424  -14.7422   20.4949 O   0  0  0  0  0  0  0  0  0  0  0  0
  -27.5269  -30.4421   21.2191 O   0  0  0  0  0  0  0  0  0  1  0  0
  -21.6489  -10.6633   24.1399 F   0  0  0  0  0  0  0  0  0  0  0  0
  -23.8756  -12.4456   20.3623 F   0  0  0  0  0  0  0  0  0  0  0  0
  1  2  1  0  0  0  0
  1  5  2  0  0  0  0
  2  6  2  0  0  0  0
  3  8  2  0  0  0  0
  3 18  1  0  0  0  0
  4  9  1  0  0  0  0
  4 18  2  0  0  0  0
  5 21  1  0  0  0  0
  6 23  1  0  0  0  0
  7 10  2  0  0  0  0
  7 22  1  0  0  0  0
  8 27  1  0  0  0  0
  9 27  2  0  0  0  0
 10 28  1  0  0  0  0
 11 12  2  0  0  0  0
 11 29  1  0  0  0  0
 12 30  1  0  0  0  0
 13 19  2  0  0  0  0
 13 25  1  0  0  0  0
 14 19  1  0  0  0  0
 14 26  2  0  0  0  0
 15 24  1  0  0  0  0
 15 28  2  0  0  0  0
 16 25  2  0  0  0  0
 16 26  1  0  0  0  0
 17 30  2  0  0  0  0
 17 31  1  0  0  0  0
 18 32  1  0  0  0  0
 19 34  1  0  0  0  0
 20 32  1  0  0  0  0
 20 33  2  0  0  0  0
 20 36  1  0  0  0  0
 21 23  2  0  0  0  0
 21 41  1  0  0  0  0
 22 24  2  0  0  0  0
 22 42  1  0  0  0  0
 23 50  1  0  0  0  0
 24 43  1  0  0  0  0
 25 53  1  0  0  0  0
 26 59  1  0  0  0  0
 27 79  1  0  0  0  0
 28 80  1  0  0  0  0
 29 31  2  0  0  0  0
 29 79  1  0  0  0  0
 30 81  1  0  0  0  0
 31 82  1  0  0  0  0
 32 65  2  0  0  0  0
 33 66  1  0  0  0  0
 33 69  1  0  0  0  0
 34 35  2  0  0  0  0
 35 37  1  0  0  0  0
 36 70  1  0  0  0  0
 36 74  2  0  0  0  0
 37 67  1  0  0  0  0
 37 75  2  0  0  0  0
 38 51  1  0  0  0  0
 38 71  1  0  0  0  0
 38 76  2  0  0  0  0
 39 62  1  0  0  0  0
 39 68  1  0  0  0  0
 39 77  2  0  0  0  0
 40 63  1  0  0  0  0
 40 72  1  0  0  0  0
 40 78  2  0  0  0  0
 41 44  1  0  0  0  0
 42 51  1  0  0  0  0
 43 68  1  0  0  0  0
 44 46  1  0  0  0  0
 45 47  1  0  0  0  0
 45 48  1  0  0  0  0
 46 50  1  0  0  0  0
 47 52  1  0  0  0  0
 48 67  1  0  0  0  0
 49 52  1  0  0  0  0
 49 67  1  0  0  0  0
 50 71  1  0  0  0  0
 51 68  1  0  0  0  0
 52 66  1  0  0  0  0
 54 63  1  0  0  0  0
 55 64  1  0  0  0  0
 56 64  1  0  0  0  0
 57 64  1  0  0  0  0
 58 73  1  0  0  0  0
 59 60  1  0  0  0  0
 60 61  1  0  0  0  0
 61 80  1  0  0  0  0
 62 64  1  0  0  0  0
 62 72  1  0  0  0  0
 63 73  1  0  0  0  0
 65 66  1  0  0  0  0
M  CHG  1  73   1
M  ISO  4  35 100  37 100  61 101  80 101
M  END
> <Batch ID>
0129

> <Smiles>
CNC(C)C(=O)NC(C(=O)N1Cc2cc([101O:1][101CH2:1]CCc3cc(C)cc(C=[100CH:0][100C:0](=O)N4CCCC(n5nc(-c6ccc(Oc7ccc(F)cc7F)cc6)c(C(N)=O)c5N)C4)c3)ccc2CC1C(=O)NC1CCCc2ccccc21)C(C)(C)C

> <Shape>
0.250

> <Color>
0.068

> <Negative vol penalty>
0.000

$$$$

  -OEChem-04052302193D

 85 93  0     1  0  0  0  0  0999 V2000
  -17.9157  -31.5912   20.5212 C   0  0  0  0  0  0  0  0  0  0  0  0
  -19.2421  -31.4934   20.1133 C   0  0  0  0  0  0  0  0  0  0  0  0
  -24.3850   -9.5007   22.2396 C   0  0  0  0  0  0  0  0  0  0  0  0
  -23.9420   -9.3802   19.8677 C   0  0  0  0  0  0  0  0  0  0  0  0
  -31.1033  -20.4264   22.5277 C   0  0  0  0  0  0  0  0  0  0  0  0
  -17.5252  -31.0639   21.7514 C   0  0  0  0  0  0  0  0  0  0  0  0
  -20.1792  -30.8692   20.9359 C   0  0  0  0  0  0  0  0  0  0  0  0
  -24.9771  -27.5042   19.1575 C   0  0  0  0  0  0  0  0  0  0  0  0
  -31.4824  -21.7656   22.4373 C   0  0  0  0  0  0  0  0  0  0  0  0
  -23.2373   -8.7493   22.4922 C   0  0  0  0  0  0  0  0  0  0  0  0
  -22.7943   -8.6288   20.1202 C   0  0  0  0  0  0  0  0  0  0  0  0
  -26.3303  -27.8050   19.0089 C   0  0  0  0  0  0  0  0  0  0  0  0
  -22.3115   -5.4994   22.3738 C   0  0  0  0  0  0  0  0  0  0  0  0
  -22.4085   -4.4580   23.2965 C   0  0  0  0  0  0  0  0  0  0  0  0
  -26.7617  -26.9256   21.2133 C   0  0  0  0  0  0  0  0  0  0  0  0
  -32.3624  -21.3671   20.2228 C   0  0  0  0  0  0  0  0  0  0  0  0
  -20.7180   -5.5117   24.6636 C   0  0  0  0  0  0  0  0  0  0  0  0
  -24.7373   -9.8162   20.9274 C   0  0  0  0  0  0  0  0  0  0  0  0
  -31.3539  -19.5574   21.4657 C   0  0  0  0  0  0  0  0  0  0  0  0
  -27.2257  -10.1075   20.4470 C   0  0  0  0  0  0  0  0  0  0  0  0
  -18.4560  -30.4243   22.5853 C   0  0  0  0  0  0  0  0  0  0  0  0
  -24.5035  -26.9207   20.3415 C   0  0  0  0  0  0  0  0  0  0  0  0
  -19.8011  -30.3340   22.1790 C   0  0  0  0  0  0  0  0  0  0  0  0
  -25.4025  -26.6159   21.3735 C   0  0  0  0  0  0  0  0  0  0  0  0
  -32.1119  -22.2360   21.2848 C   0  0  0  0  0  0  0  0  0  0  0  0
  -31.9834  -20.0277   20.3133 C   0  0  0  0  0  0  0  0  0  0  0  0
  -22.4419   -8.3134   21.4325 C   0  0  0  0  0  0  0  0  0  0  0  0
  -27.2224  -27.5184   20.0380 C   0  0  0  0  0  0  0  0  0  0  0  0
  -21.4178   -6.5471   22.5959 C   0  0  0  0  0  0  0  0  0  0  0  0
  -21.6118   -4.4640   24.4414 C   0  0  0  0  0  0  0  0  0  0  0  0
  -20.6210   -6.5532   23.7408 C   0  0  0  0  0  0  0  0  0  0  0  0
  -25.9225  -10.5928   20.6659 C   0  0  0  0  0  0  0  0  0  0  0  0
  -27.9832  -11.2357   20.2473 C   0  0  0  0  0  0  0  0  0  0  0  0
  -30.9461  -18.1642   21.5909 C   0  0  0  0  0  0  0  0  0  0  0  0
  -29.6797  -17.7339   21.7641 C   0  0  0  0  0  0  0  0  0  0  0  0
  -27.7084   -8.7576   20.4258 C   0  0  0  0  0  0  0  0  0  0  0  0
  -29.4252  -16.2827   21.8641 C   0  0  0  0  0  0  0  0  0  0  0  0
  -22.4467  -27.7898   22.6038 C   0  0  0  0  0  0  0  0  0  0  0  0
  -30.7786  -26.8796   19.8230 C   0  0  0  0  0  0  0  0  0  0  0  0
  -22.9811  -24.7835   23.6989 C   0  0  0  0  0  0  0  0  0  0  0  0
  -25.0524  -22.0746   23.8335 C   0  0  0  0  0  0  0  0  0  0  0  0
  -17.9965  -29.9116   23.9271 C   0  0  0  0  0  0  0  0  0  0  0  0
  -23.0451  -26.5778   20.4756 C   0  0  0  0  0  0  0  0  0  0  0  0
  -24.9479  -25.9711   22.6565 C   0  0  0  0  0  0  0  0  0  0  0  0
  -18.9750  -28.9342   24.5733 C   0  0  0  0  0  0  0  0  0  0  0  0
  -26.6308  -16.0369   19.5055 C   0  0  0  0  0  0  0  0  0  0  0  0
  -20.3999  -29.4724   24.4909 C   0  0  0  0  0  0  0  0  0  0  0  0
  -26.2778  -14.5565   19.6218 C   0  0  0  0  0  0  0  0  0  0  0  0
  -27.1131  -16.6158   20.8347 C   0  0  0  0  0  0  0  0  0  0  0  0
  -27.8939  -14.3769   21.5547 C   0  0  0  0  0  0  0  0  0  0  0  0
  -20.8419  -29.6423   23.0324 C   0  0  1  0  0  0  0  0  0  0  0  0
  -22.5910  -26.4561   21.9270 C   0  0  1  0  0  0  0  0  0  0  0  0
  -27.4509  -13.7623   20.2178 C   0  0  1  0  0  0  0  0  0  0  0  0
  -32.2681  -19.1252   19.1559 C   0  0  0  0  0  0  0  0  0  0  0  0
  -25.2345  -19.7820   24.8376 C   0  0  0  0  0  0  0  0  0  0  0  0
  -23.6656  -26.0241   26.4012 C   0  0  0  0  0  0  0  0  0  0  0  0
  -24.7296  -23.8528   27.0502 C   0  0  0  0  0  0  0  0  0  0  0  0
  -22.2917  -23.9384   26.5289 C   0  0  0  0  0  0  0  0  0  0  0  0
  -25.1615  -20.7899   21.1695 C   0  0  0  0  0  0  0  0  0  0  0  0
  -32.5202  -23.6835   21.1859 C   0  0  0  0  0  0  0  0  0  0  0  0
  -31.8464  -26.0026   20.4554 C   0  0  0  0  0  0  0  0  0  0  0  0
  -29.4722  -26.9766   20.5862 C   0  0  0  0  0  0  0  0  0  1  0  0
  -31.4068  -24.5463   20.5890 C   0  0  0  0  0  0  0  0  0  0  0  0
  -23.9693  -24.1519   24.6495 C   0  0  1  0  0  0  0  0  0  0  0  0
  -24.7881  -20.5935   23.6314 C   0  0  2  0  0  0  0  0  0  0  0  0
  -23.6726  -24.5057   26.1342 C   0  0  0  0  0  0  0  0  0  0  0  0
  -25.8525  -11.9255   20.6108 N   0  0  0  0  0  0  0  0  0  0  0  0
  -27.1213  -12.2872   20.3550 N   0  0  0  0  0  0  0  0  0  0  0  0
  -28.1956  -15.8058   21.4135 N   0  0  0  0  0  0  0  0  0  0  0  0
  -23.5113  -25.6608   22.7423 N   0  0  0  0  0  0  0  0  0  0  0  0
  -29.2958  -11.4209   19.9921 N   0  0  0  0  0  0  0  0  0  0  0  0
  -26.7954   -7.7180   20.6499 N   0  0  0  0  0  0  0  0  0  0  0  0
  -21.1970  -28.3616   22.4595 N   0  0  0  0  0  0  0  0  0  0  0  0
  -23.9555  -22.7217   24.3618 N   0  0  0  0  0  0  0  0  0  0  0  0
  -25.5204  -20.0954   22.4328 N   0  3  0  0  0  0  0  0  0  0  0  0
  -28.9165   -8.4822   20.2308 O   0  0  0  0  0  0  0  0  0  0  0  0
  -30.3164  -15.5810   22.3457 O   0  0  0  0  0  0  0  0  0  0  0  0
  -23.3982  -28.2642   23.2131 O   0  0  0  0  0  0  0  0  0  0  0  0
  -30.9538  -27.4739   18.7604 O   0  0  0  0  0  0  0  0  0  0  0  0
  -21.7839  -24.5032   23.7969 O   0  0  0  0  0  0  0  0  0  0  0  0
  -26.1260  -22.6038   23.5543 O   0  0  0  0  0  0  0  0  0  0  0  0
  -21.3220   -7.5800   21.6785 O   0  0  0  0  0  0  0  0  0  0  0  0
  -28.5436  -27.8116   19.8958 O   0  0  0  0  0  0  0  0  0  1  0  0
  -21.7039   -3.4631   25.3267 F   0  0  0  0  0  0  0  0  0  0  0  0
  -19.7597   -7.5564   23.9591 F   0  0  0  0  0  0  0  0  0  0  0  0
  1  2  1  0  0  0  0
  1  6  2  0  0  0  0
  2  7  2  0  0  0  0
  3 10  2  0  0  0  0
  3 18  1  0  0  0  0
  4 11  1  0  0  0  0
  4 18  2  0  0  0  0
  5  9  2  0  0  0  0
  5 19  1  0  0  0  0
  6 21  1  0  0  0  0
  7 23  1  0  0  0  0
  8 12  2  0  0  0  0
  8 22  1  0  0  0  0
  9 25  1  0  0  0  0
 10 27  1  0  0  0  0
 11 27  2  0  0  0  0
 12 28  1  0  0  0  0
 13 14  2  0  0  0  0
 13 29  1  0  0  0  0
 14 30  1  0  0  0  0
 15 24  1  0  0  0  0
 15 28  2  0  0  0  0
 16 25  2  0  0  0  0
 16 26  1  0  0  0  0
 17 30  2  0  0  0  0
 17 31  1  0  0  0  0
 18 32  1  0  0  0  0
 19 26  2  0  0  0  0
 19 34  1  0  0  0  0
 20 32  1  0  0  0  0
 20 33  2  0  0  0  0
 20 36  1  0  0  0  0
 21 23  2  0  0  0  0
 21 42  1  0  0  0  0
 22 24  2  0  0  0  0
 22 43  1  0  0  0  0
 23 51  1  0  0  0  0
 24 44  1  0  0  0  0
 25 60  1  0  0  0  0
 26 54  1  0  0  0  0
 27 82  1  0  0  0  0
 28 83  1  0  0  0  0
 29 31  2  0  0  0  0
 29 82  1  0  0  0  0
 30 84  1  0  0  0  0
 31 85  1  0  0  0  0
 32 67  2  0  0  0  0
 33 68  1  0  0  0  0
 33 71  1  0  0  0  0
 34 35  2  0  0  0  0
 35 37  1  0  0  0  0
 36 72  1  0  0  0  0
 36 76  2  0  0  0  0
 37 69  1  0  0  0  0
 37 77  2  0  0  0  0
 38 52  1  0  0  0  0
 38 73  1  0  0  0  0
 38 78  2  0  0  0  0
 39 61  1  0  0  0  0
 39 62  1  0  0  0  0
 39 79  2  0  0  0  0
 40 64  1  0  0  0  0
 40 70  1  0  0  0  0
 40 80  2  0  0  0  0
 41 65  1  0  0  0  0
 41 74  1  0  0  0  0
 41 81  2  0  0  0  0
 42 45  1  0  0  0  0
 43 52  1  0  0  0  0
 44 70  1  0  0  0  0
 45 47  1  0  0  0  0
 46 48  1  0  0  0  0
 46 49  1  0  0  0  0
 47 51  1  0  0  0  0
 48 53  1  0  0  0  0
 49 69  1  0  0  0  0
 50 53  1  0  0  0  0
 50 69  1  0  0  0  0
 51 73  1  0  0  0  0
 52 70  1  0  0  0  0
 53 68  1  0  0  0  0
 55 65  1  0  0  0  0
 56 66  1  0  0  0  0
 57 66  1  0  0  0  0
 58 66  1  0  0  0  0
 59 75  1  0  0  0  0
 60 63  1  0  0  0  0
 61 63  1  0  0  0  0
 62 83  1  0  0  0  0
 64 66  1  0  0  0  0
 64 74  1  0  0  0  0
 65 75  1  0  0  0  0
 67 68  1  0  0  0  0
M  CHG  1  75   1
M  ISO  4  35 100  37 100  62 101  83 101
M  END
> <Batch ID>
0129

> <Smiles>
CNC(C)C(=O)NC(C(=O)N1Cc2cc([101O:1][101CH2:1]C(=O)CCCc3ccc(C=[100CH:0][100C:0](=O)N4CCCC(n5nc(-c6ccc(Oc7ccc(F)cc7F)cc6)c(C(N)=O)c5N)C4)c(C)c3)ccc2CC1C(=O)NC1CCCc2ccccc21)C(C)(C)C

> <Shape>
0.230

> <Color>
0.102

> <Negative vol penalty>
0.000

$$$$

  -OEChem-04052302193D

 82 90  0     1  0  0  0  0  0999 V2000
  -28.4587  -24.0903   17.9934 C   0  0  0  0  0  0  0  0  0  0  0  0
  -27.2493  -24.3575   18.6269 C   0  0  0  0  0  0  0  0  0  0  0  0
  -26.7245  -16.8691   22.8921 C   0  0  0  0  0  0  0  0  0  0  0  0
  -24.9250  -17.9687   21.7132 C   0  0  0  0  0  0  0  0  0  0  0  0
  -29.6317  -24.6881   18.4524 C   0  0  0  0  0  0  0  0  0  0  0  0
  -27.2124  -25.2217   19.7206 C   0  0  0  0  0  0  0  0  0  0  0  0
  -23.3773  -28.5187   19.4626 C   0  0  0  0  0  0  0  0  0  0  0  0
  -26.5998  -15.7633   22.0511 C   0  0  0  0  0  0  0  0  0  0  0  0
  -24.8003  -16.8629   20.8721 C   0  0  0  0  0  0  0  0  0  0  0  0
  -22.1092  -28.0482   19.8008 C   0  0  0  0  0  0  0  0  0  0  0  0
  -26.9963  -12.7989   19.9847 C   0  0  0  0  0  0  0  0  0  0  0  0
  -28.1662  -12.2404   19.4700 C   0  0  0  0  0  0  0  0  0  0  0  0
  -22.3302  -29.0423   21.9876 C   0  0  0  0  0  0  0  0  0  0  0  0
  -19.1504  -25.4830   26.3923 C   0  0  0  0  0  0  0  0  0  0  0  0
  -20.4394  -24.0615   27.8601 C   0  0  0  0  0  0  0  0  0  0  0  0
  -20.0313  -23.3865   25.5764 C   0  0  0  0  0  0  0  0  0  0  0  0
  -28.6985  -14.3408   18.4011 C   0  0  0  0  0  0  0  0  0  0  0  0
  -25.8871  -17.9718   22.7232 C   0  0  0  0  0  0  0  0  0  0  0  0
  -26.8327  -20.2433   23.3967 C   0  0  0  0  0  0  0  0  0  0  0  0
  -29.6077  -25.5676   19.5462 C   0  0  0  0  0  0  0  0  0  0  0  0
  -24.1370  -29.2465   20.3897 C   0  0  0  0  0  0  0  0  0  0  0  0
  -28.3864  -25.8308   20.1955 C   0  0  0  0  0  0  0  0  0  0  0  0
  -23.6066  -29.5232   21.6578 C   0  0  0  0  0  0  0  0  0  0  0  0
  -19.7160  -25.2341   27.6427 C   0  0  0  0  0  0  0  0  0  0  0  0
  -19.3080  -24.5592   25.3591 C   0  0  0  0  0  0  0  0  0  0  0  0
  -20.5971  -23.1376   26.8269 C   0  0  0  0  0  0  0  0  0  0  0  0
  -25.6377  -15.7602   21.0411 C   0  0  0  0  0  0  0  0  0  0  0  0
  -21.5867  -28.3074   21.0645 C   0  0  0  0  0  0  0  0  0  0  0  0
  -26.6774  -14.1283   19.7077 C   0  0  0  0  0  0  0  0  0  0  0  0
  -29.0173  -13.0114   18.6782 C   0  0  0  0  0  0  0  0  0  0  0  0
  -27.5285  -14.8992   18.9159 C   0  0  0  0  0  0  0  0  0  0  0  0
  -26.0150  -19.1141   23.5920 C   0  0  0  0  0  0  0  0  0  0  0  0
  -26.5950  -21.0334   24.4948 C   0  0  0  0  0  0  0  0  0  0  0  0
  -27.7271  -20.5506   22.3191 C   0  0  0  0  0  0  0  0  0  0  0  0
  -26.9369  -28.8107   21.8301 C   0  0  0  0  0  0  0  0  0  0  0  0
  -26.3916  -31.8094   22.9405 C   0  0  0  0  0  0  0  0  0  0  0  0
  -24.1324  -34.2547   23.6909 C   0  0  0  0  0  0  0  0  0  0  0  0
  -21.9576  -21.5462   28.2279 C   0  0  0  0  0  0  0  0  0  0  0  0
  -30.9086  -26.1530   20.0358 C   0  0  0  0  0  0  0  0  0  0  0  0
  -25.4923  -29.7700   20.0002 C   0  0  0  0  0  0  0  0  0  0  0  0
  -24.3736  -30.3173   22.6823 C   0  0  0  0  0  0  0  0  0  0  0  0
  -30.7263  -27.3489   20.9669 C   0  0  0  0  0  0  0  0  0  0  0  0
  -25.3175  -20.7560   29.1019 C   0  0  0  0  0  0  0  0  0  0  0  0
  -29.6646  -27.0484   22.0201 C   0  0  0  0  0  0  0  0  0  0  0  0
  -25.9537  -20.3539   27.7693 C   0  0  0  0  0  0  0  0  0  0  0  0
  -23.8666  -20.2883   29.2017 C   0  0  0  0  0  0  0  0  0  0  0  0
  -23.6429  -20.2869   26.7483 C   0  0  0  0  0  0  0  0  0  0  0  0
  -28.3018  -26.7820   21.3694 C   0  0  1  0  0  0  0  0  0  0  0  0
  -26.3885  -30.0598   21.2003 C   0  0  1  0  0  0  0  0  0  0  0  0
  -25.0843  -20.7926   26.5746 C   0  0  2  0  0  0  0  0  0  0  0  0
  -19.5473  -26.2219   28.7473 C   0  0  0  0  0  0  0  0  0  0  0  0
  -23.9836  -36.5818   24.6183 C   0  0  0  0  0  0  0  0  0  0  0  0
  -26.8400  -30.7146   25.7530 C   0  0  0  0  0  0  0  0  0  0  0  0
  -25.7670  -32.7886   26.6561 C   0  0  0  0  0  0  0  0  0  0  0  0
  -27.8721  -32.9525   25.3278 C   0  0  0  0  0  0  0  0  0  0  0  0
  -22.9522  -35.3018   21.1870 C   0  0  0  0  0  0  0  0  0  0  0  0
  -18.6965  -24.8284   24.0073 C   0  0  0  0  0  0  0  0  0  0  0  0
  -19.6206  -25.5894   23.0502 C   0  0  0  0  0  0  0  0  0  0  0  0
  -18.9562  -25.9204   21.7131 C   0  0  0  0  0  0  0  0  0  0  0  0
  -19.9157  -26.6401   20.7750 C   0  0  0  0  0  0  0  0  0  1  0  0
  -25.7052  -32.3924   24.1520 C   0  0  1  0  0  0  0  0  0  0  0  0
  -24.1043  -35.7360   23.3602 C   0  0  2  0  0  0  0  0  0  0  0  0
  -26.5322  -32.1954   25.4538 C   0  0  0  0  0  0  0  0  0  0  0  0
  -25.3106  -19.1773   24.7250 N   0  0  0  0  0  0  0  0  0  0  0  0
  -25.6851  -20.3557   25.2517 N   0  0  0  0  0  0  0  0  0  0  0  0
  -25.6968  -30.8021   22.2561 N   0  0  0  0  0  0  0  0  0  0  0  0
  -23.1029  -20.7443   28.0382 N   0  0  0  0  0  0  0  0  0  0  0  0
  -27.0777  -22.2348   24.8771 N   0  0  0  0  0  0  0  0  0  0  0  0
  -27.8517  -19.6288   21.2707 N   0  0  0  0  0  0  0  0  0  0  0  0
  -21.3320  -21.9464   27.0476 N   0  0  0  0  0  0  0  0  0  0  0  0
  -27.6809  -28.0265   20.9693 N   0  0  0  0  0  0  0  0  0  0  0  0
  -25.4220  -33.7867   23.8293 N   0  0  0  0  0  0  0  0  0  0  0  0
  -22.9484  -36.0467   22.4723 N   0  3  0  0  0  0  0  0  0  0  0  0
  -28.4084  -21.6036   22.2949 O   0  0  0  0  0  0  0  0  0  0  0  0
  -26.7036  -28.5765   23.0101 O   0  0  0  0  0  0  0  0  0  0  0  0
  -27.5002  -32.2370   22.6093 O   0  0  0  0  0  0  0  0  0  0  0  0
  -23.1123  -33.5811   23.8178 O   0  0  0  0  0  0  0  0  0  0  0  0
  -21.5767  -21.8777   29.3535 O   0  0  0  0  0  0  0  0  0  0  0  0
  -25.5159  -14.6815   20.2201 O   0  0  0  0  0  0  0  0  0  0  0  0
  -20.3495  -27.8487   21.3974 O   0  0  0  0  0  0  0  0  0  1  0  0
  -30.1415  -12.4754   18.1852 F   0  0  0  0  0  0  0  0  0  0  0  0
  -27.2281  -16.1772   18.6473 F   0  0  0  0  0  0  0  0  0  0  0  0
  1  2  1  0  0  0  0
  1  5  2  0  0  0  0
  2  6  2  0  0  0  0
  3  8  2  0  0  0  0
  3 18  1  0  0  0  0
  4  9  1  0  0  0  0
  4 18  2  0  0  0  0
  5 20  1  0  0  0  0
  6 22  1  0  0  0  0
  7 10  2  0  0  0  0
  7 21  1  0  0  0  0
  8 27  1  0  0  0  0
  9 27  2  0  0  0  0
 10 28  1  0  0  0  0
 11 12  2  0  0  0  0
 11 29  1  0  0  0  0
 12 30  1  0  0  0  0
 13 23  1  0  0  0  0
 13 28  2  0  0  0  0
 14 24  2  0  0  0  0
 14 25  1  0  0  0  0
 15 24  1  0  0  0  0
 15 26  2  0  0  0  0
 16 25  2  0  0  0  0
 16 26  1  0  0  0  0
 17 30  2  0  0  0  0
 17 31  1  0  0  0  0
 18 32  1  0  0  0  0
 19 32  1  0  0  0  0
 19 33  2  0  0  0  0
 19 34  1  0  0  0  0
 20 22  2  0  0  0  0
 20 39  1  0  0  0  0
 21 23  2  0  0  0  0
 21 40  1  0  0  0  0
 22 48  1  0  0  0  0
 23 41  1  0  0  0  0
 24 51  1  0  0  0  0
 25 57  1  0  0  0  0
 26 70  1  0  0  0  0
 27 79  1  0  0  0  0
 28 80  1  0  0  0  0
 29 31  2  0  0  0  0
 29 79  1  0  0  0  0
 30 81  1  0  0  0  0
 31 82  1  0  0  0  0
 32 64  2  0  0  0  0
 33 65  1  0  0  0  0
 33 68  1  0  0  0  0
 34 69  1  0  0  0  0
 34 74  2  0  0  0  0
 35 49  1  0  0  0  0
 35 71  1  0  0  0  0
 35 75  2  0  0  0  0
 36 61  1  0  0  0  0
 36 66  1  0  0  0  0
 36 76  2  0  0  0  0
 37 62  1  0  0  0  0
 37 72  1  0  0  0  0
 37 77  2  0  0  0  0
 38 67  1  0  0  0  0
 38 70  1  0  0  0  0
 38 78  2  0  0  0  0
 39 42  1  0  0  0  0
 40 49  1  0  0  0  0
 41 66  1  0  0  0  0
 42 44  1  0  0  0  0
 43 45  1  0  0  0  0
 43 46  1  0  0  0  0
 44 48  1  0  0  0  0
 45 50  1  0  0  0  0
 46 67  1  0  0  0  0
 47 50  1  0  0  0  0
 47 67  1  0  0  0  0
 48 71  1  0  0  0  0
 49 66  1  0  0  0  0
 50 65  1  0  0  0  0
 52 62  1  0  0  0  0
 53 63  1  0  0  0  0
 54 63  1  0  0  0  0
 55 63  1  0  0  0  0
 56 73  1  0  0  0  0
 57 58  1  0  0  0  0
 58 59  1  0  0  0  0
 59 60  1  0  0  0  0
 60 80  1  0  0  0  0
 61 63  1  0  0  0  0
 61 72  1  0  0  0  0
 62 73  1  0  0  0  0
 64 65  1  0  0  0  0
M  CHG  1  73   1
M  ISO  4  38 100  60 101  70 100  80 101
M  END
> <Batch ID>
0129

> <Smiles>
CNC(C)C(=O)NC(C(=O)N1Cc2cc([101O:1][101CH2:1]CCCc3cc(C)cc([100NH:0][100C:0](=O)N4CCCC(n5nc(-c6ccc(Oc7ccc(F)cc7F)cc6)c(C(N)=O)c5N)C4)c3)ccc2CC1C(=O)NC1CCCc2ccccc21)C(C)(C)C

> <Shape>
0.257

> <Color>
0.061

> <Negative vol penalty>
0.000

$$$$

  -OEChem-04052302193D

 86 94  0     1  0  0  0  0  0999 V2000
  -34.7417  -32.4882   18.6677 C   0  0  0  0  0  0  0  0  0  0  0  0
  -33.4607  -32.6933   19.1700 C   0  0  0  0  0  0  0  0  0  0  0  0
  -27.6561  -13.2074   18.6918 C   0  0  0  0  0  0  0  0  0  0  0  0
  -28.0849  -13.3429   21.0656 C   0  0  0  0  0  0  0  0  0  0  0  0
  -34.9712  -31.4728   17.7402 C   0  0  0  0  0  0  0  0  0  0  0  0
  -32.4082  -31.8838   18.7443 C   0  0  0  0  0  0  0  0  0  0  0  0
  -26.2941  -28.9821   21.0926 C   0  0  0  0  0  0  0  0  0  0  0  0
  -28.9459  -12.7174   18.4868 C   0  0  0  0  0  0  0  0  0  0  0  0
  -29.3746  -12.8529   20.8606 C   0  0  0  0  0  0  0  0  0  0  0  0
  -24.9465  -28.8841   20.7486 C   0  0  0  0  0  0  0  0  0  0  0  0
  -32.9017  -11.9779   20.9225 C   0  0  0  0  0  0  0  0  0  0  0  0
  -33.9502  -12.6140   21.5870 C   0  0  0  0  0  0  0  0  0  0  0  0
  -17.2362  -21.5178   18.5562 C   0  0  0  0  0  0  0  0  0  0  0  0
  -19.2959  -22.6528   19.1096 C   0  0  0  0  0  0  0  0  0  0  0  0
  -25.4763  -27.1098   19.2025 C   0  0  0  0  0  0  0  0  0  0  0  0
  -33.4045  -14.6838   20.4666 C   0  0  0  0  0  0  0  0  0  0  0  0
  -27.2256  -13.5202   19.9812 C   0  0  0  0  0  0  0  0  0  0  0  0
  -18.6058  -21.4764   18.8169 C   0  0  0  0  0  0  0  0  0  0  0  0
  -24.7292  -13.2773   20.4468 C   0  0  0  0  0  0  0  0  0  0  0  0
  -33.9228  -30.6442   17.3102 C   0  0  0  0  0  0  0  0  0  0  0  0
  -27.2460  -28.1506   20.4850 C   0  0  0  0  0  0  0  0  0  0  0  0
  -32.6236  -30.8572   17.8092 C   0  0  0  0  0  0  0  0  0  0  0  0
  -26.8349  -27.1974   19.5424 C   0  0  0  0  0  0  0  0  0  0  0  0
  -16.5566  -22.7355   18.5881 C   0  0  0  0  0  0  0  0  0  0  0  0
  -17.2467  -23.9119   18.8807 C   0  0  0  0  0  0  0  0  0  0  0  0
  -29.8051  -12.5401   19.5712 C   0  0  0  0  0  0  0  0  0  0  0  0
  -24.5378  -27.9499   19.8014 C   0  0  0  0  0  0  0  0  0  0  0  0
  -32.1047  -12.6946   20.0299 C   0  0  0  0  0  0  0  0  0  0  0  0
  -18.6163  -23.8705   19.1415 C   0  0  0  0  0  0  0  0  0  0  0  0
  -34.2016  -13.9670   21.3591 C   0  0  0  0  0  0  0  0  0  0  0  0
  -32.3561  -14.0476   19.8020 C   0  0  0  0  0  0  0  0  0  0  0  0
  -25.8936  -14.0269   20.1935 C   0  0  0  0  0  0  0  0  0  0  0  0
  -23.7362  -14.2177   20.5733 C   0  0  0  0  0  0  0  0  0  0  0  0
  -19.3151  -20.2070   18.7829 C   0  0  0  0  0  0  0  0  0  0  0  0
  -20.6489  -20.0588   18.6356 C   0  0  0  0  0  0  0  0  0  0  0  0
  -24.5604  -11.8578   20.5579 C   0  0  0  0  0  0  0  0  0  0  0  0
  -21.2227  -18.6981   18.6309 C   0  0  0  0  0  0  0  0  0  0  0  0
  -29.7995  -28.6291   18.6536 C   0  0  0  0  0  0  0  0  0  0  0  0
  -21.2909  -26.3949   19.4209 C   0  0  0  0  0  0  0  0  0  0  0  0
  -30.1896  -25.4316   19.0361 C   0  0  0  0  0  0  0  0  0  0  0  0
  -28.7754  -22.4015   19.7181 C   0  0  0  0  0  0  0  0  0  0  0  0
  -34.2103  -29.5901   16.2705 C   0  0  0  0  0  0  0  0  0  0  0  0
  -28.6921  -28.2505   20.8866 C   0  0  0  0  0  0  0  0  0  0  0  0
  -27.8146  -26.2675   18.8759 C   0  0  0  0  0  0  0  0  0  0  0  0
  -33.1134  -28.5350   16.1534 C   0  0  0  0  0  0  0  0  0  0  0  0
  -23.9713  -19.2375   20.9944 C   0  0  0  0  0  0  0  0  0  0  0  0
  -31.7396  -29.1961   16.1048 C   0  0  0  0  0  0  0  0  0  0  0  0
  -24.6479  -17.8694   20.9751 C   0  0  0  0  0  0  0  0  0  0  0  0
  -23.3886  -19.6064   19.6309 C   0  0  0  0  0  0  0  0  0  0  0  0
  -23.1374  -17.2078   19.0617 C   0  0  0  0  0  0  0  0  0  0  0  0
  -31.4607  -29.9840   17.3905 C   0  0  1  0  0  0  0  0  0  0  0  0
  -29.6452  -27.7045   19.8279 C   0  0  1  0  0  0  0  0  0  0  0  0
  -23.6897  -16.7958   20.4352 C   0  0  1  0  0  0  0  0  0  0  0  0
  -15.0899  -22.7536   18.3055 C   0  0  0  0  0  0  0  0  0  0  0  0
  -16.2330  -25.7568   17.5186 C   0  0  0  0  0  0  0  0  0  0  0  0
  -29.3404  -19.9649   19.9213 C   0  0  0  0  0  0  0  0  0  0  0  0
  -30.3155  -25.2097   15.9955 C   0  0  0  0  0  0  0  0  0  0  0  0
  -29.9228  -22.7481   16.2285 C   0  0  0  0  0  0  0  0  0  0  0  0
  -31.9675  -23.7820   17.2150 C   0  0  0  0  0  0  0  0  0  0  0  0
  -27.9401  -22.3254   22.5563 C   0  0  0  0  0  0  0  0  0  0  0  0
  -16.5233  -25.2202   18.9162 C   0  0  0  0  0  0  0  0  0  0  0  0
  -22.7507  -26.5694   19.0555 C   0  0  0  0  0  0  0  0  0  1  0  0
  -20.6735  -25.0606   19.0555 C   0  0  0  0  0  0  0  0  0  0  0  0
  -29.7212  -24.2015   18.2969 C   0  0  1  0  0  0  0  0  0  0  0  0
  -29.1900  -21.2856   20.6601 C   0  0  2  0  0  0  0  0  0  0  0  0
  -30.4633  -24.0040   16.9449 C   0  0  0  0  0  0  0  0  0  0  0  0
  -25.6631  -15.3421   20.1606 N   0  0  0  0  0  0  0  0  0  0  0  0
  -24.3425  -15.4263   20.3948 N   0  0  0  0  0  0  0  0  0  0  0  0
  -22.5221  -18.5389   19.1092 N   0  0  0  0  0  0  0  0  0  0  0  0
  -29.2181  -26.4082   19.2975 N   0  0  0  0  0  0  0  0  0  0  0  0
  -22.4123  -14.1204   20.8187 N   0  0  0  0  0  0  0  0  0  0  0  0
  -25.6854  -11.0369   20.4008 N   0  0  0  0  0  0  0  0  0  0  0  0
  -31.0896  -29.0860   18.4630 N   0  0  0  0  0  0  0  0  0  0  0  0
  -29.8664  -23.0866   19.2266 N   0  0  0  0  0  0  0  0  0  0  0  0
  -28.1722  -21.1098   21.7344 N   0  3  0  0  0  0  0  0  0  0  0  0
  -23.4421  -11.3321   20.7733 O   0  0  0  0  0  0  0  0  0  0  0  0
  -20.5171  -17.7850   18.1985 O   0  0  0  0  0  0  0  0  0  0  0  0
  -28.8209  -28.9062   17.9701 O   0  0  0  0  0  0  0  0  0  0  0  0
  -20.6468  -27.2818   19.9792 O   0  0  0  0  0  0  0  0  0  0  0  0
  -31.3723  -25.5195   19.3755 O   0  0  0  0  0  0  0  0  0  0  0  0
  -27.6015  -22.6390   19.4427 O   0  0  0  0  0  0  0  0  0  0  0  0
  -31.0637  -12.0618   19.3715 O   0  0  0  0  0  0  0  0  0  0  0  0
  -23.2232  -27.8527   19.4634 O   0  0  0  0  0  0  0  0  0  1  0  0
  -19.3131  -25.0197   19.4314 O   0  0  0  0  0  0  0  0  0  0  0  0
  -35.2075  -14.5781   21.9985 F   0  0  0  0  0  0  0  0  0  0  0  0
  -31.5930  -14.7417   18.9466 F   0  0  0  0  0  0  0  0  0  0  0  0
  1  2  1  0  0  0  0
  1  5  2  0  0  0  0
  2  6  2  0  0  0  0
  3  8  2  0  0  0  0
  3 17  1  0  0  0  0
  4  9  1  0  0  0  0
  4 17  2  0  0  0  0
  5 20  1  0  0  0  0
  6 22  1  0  0  0  0
  7 10  2  0  0  0  0
  7 21  1  0  0  0  0
  8 26  1  0  0  0  0
  9 26  2  0  0  0  0
 10 27  1  0  0  0  0
 11 12  2  0  0  0  0
 11 28  1  0  0  0  0
 12 30  1  0  0  0  0
 13 18  1  0  0  0  0
 13 24  2  0  0  0  0
 14 18  2  0  0  0  0
 14 29  1  0  0  0  0
 15 23  1  0  0  0  0
 15 27  2  0  0  0  0
 16 30  2  0  0  0  0
 16 31  1  0  0  0  0
 17 32  1  0  0  0  0
 18 34  1  0  0  0  0
 19 32  1  0  0  0  0
 19 33  2  0  0  0  0
 19 36  1  0  0  0  0
 20 22  2  0  0  0  0
 20 42  1  0  0  0  0
 21 23  2  0  0  0  0
 21 43  1  0  0  0  0
 22 51  1  0  0  0  0
 23 44  1  0  0  0  0
 24 25  1  0  0  0  0
 24 54  1  0  0  0  0
 25 29  2  0  0  0  0
 25 61  1  0  0  0  0
 26 82  1  0  0  0  0
 27 83  1  0  0  0  0
 28 31  2  0  0  0  0
 28 82  1  0  0  0  0
 29 84  1  0  0  0  0
 30 85  1  0  0  0  0
 31 86  1  0  0  0  0
 32 67  2  0  0  0  0
 33 68  1  0  0  0  0
 33 71  1  0  0  0  0
 34 35  2  0  0  0  0
 35 37  1  0  0  0  0
 36 72  1  0  0  0  0
 36 76  2  0  0  0  0
 37 69  1  0  0  0  0
 37 77  2  0  0  0  0
 38 52  1  0  0  0  0
 38 73  1  0  0  0  0
 38 78  2  0  0  0  0
 39 62  1  0  0  0  0
 39 63  1  0  0  0  0
 39 79  2  0  0  0  0
 40 64  1  0  0  0  0
 40 70  1  0  0  0  0
 40 80  2  0  0  0  0
 41 65  1  0  0  0  0
 41 74  1  0  0  0  0
 41 81  2  0  0  0  0
 42 45  1  0  0  0  0
 43 52  1  0  0  0  0
 44 70  1  0  0  0  0
 45 47  1  0  0  0  0
 46 48  1  0  0  0  0
 46 49  1  0  0  0  0
 47 51  1  0  0  0  0
 48 53  1  0  0  0  0
 49 69  1  0  0  0  0
 50 53  1  0  0  0  0
 50 69  1  0  0  0  0
 51 73  1  0  0  0  0
 52 70  1  0  0  0  0
 53 68  1  0  0  0  0
 55 61  1  0  0  0  0
 56 65  1  0  0  0  0
 57 66  1  0  0  0  0
 58 66  1  0  0  0  0
 59 66  1  0  0  0  0
 60 75  1  0  0  0  0
 62 83  1  0  0  0  0
 63 84  1  0  0  0  0
 64 66  1  0  0  0  0
 64 74  1  0  0  0  0
 65 75  1  0  0  0  0
 67 68  1  0  0  0  0
M  CHG  1  75   1
M  ISO  4  35 100  37 100  62 101  83 101
M  END
> <Batch ID>
0129

> <Smiles>
CCc1c(C)cc(C=[100CH:0][100C:0](=O)N2CCCC(n3nc(-c4ccc(Oc5ccc(F)cc5F)cc4)c(C(N)=O)c3N)C2)cc1OCC(=O)[101CH2:1][101O:1]c1ccc2c(c1)CN(C(=O)C(NC(=O)C(C)NC)C(C)(C)C)C(C(=O)NC1CCCc3ccccc31)C2

> <Shape>
0.222

> <Color>
0.079

> <Negative vol penalty>
0.000

$$$$

  -OEChem-04052302193D

 82 90  0     1  0  0  0  0  0999 V2000
  -25.0808  -19.2934   23.7582 C   0  0  0  0  0  0  0  0  0  0  0  0
  -25.9484  -20.1880   23.1399 C   0  0  0  0  0  0  0  0  0  0  0  0
  -24.1709   -9.6776   22.6278 C   0  0  0  0  0  0  0  0  0  0  0  0
  -24.3050   -9.4492   20.2264 C   0  0  0  0  0  0  0  0  0  0  0  0
  -28.7372  -21.4828   19.7736 C   0  0  0  0  0  0  0  0  0  0  0  0
  -31.0660  -21.0421   20.2422 C   0  0  0  0  0  0  0  0  0  0  0  0
  -23.7128  -19.5608   23.7916 C   0  0  0  0  0  0  0  0  0  0  0  0
  -25.4483  -21.3502   22.5537 C   0  0  0  0  0  0  0  0  0  0  0  0
  -28.2101  -25.4410   23.6864 C   0  0  0  0  0  0  0  0  0  0  0  0
  -23.0925   -8.7932   22.6517 C   0  0  0  0  0  0  0  0  0  0  0  0
  -23.2267   -8.5648   20.2502 C   0  0  0  0  0  0  0  0  0  0  0  0
  -29.0799  -22.7241   19.2376 C   0  0  0  0  0  0  0  0  0  0  0  0
  -31.4088  -22.2834   19.7061 C   0  0  0  0  0  0  0  0  0  0  0  0
  -29.4064  -25.6139   22.9916 C   0  0  0  0  0  0  0  0  0  0  0  0
  -22.6084   -5.4506   22.4918 C   0  0  0  0  0  0  0  0  0  0  0  0
  -22.6117   -4.4505   23.4641 C   0  0  0  0  0  0  0  0  0  0  0  0
  -28.3240  -27.2039   21.5357 C   0  0  0  0  0  0  0  0  0  0  0  0
  -20.5391   -5.3127   24.3576 C   0  0  0  0  0  0  0  0  0  0  0  0
  -24.7771  -10.0057   21.4151 C   0  0  0  0  0  0  0  0  0  0  0  0
  -29.7303  -20.6418   20.2760 C   0  0  0  0  0  0  0  0  0  0  0  0
  -27.1310  -10.7666   22.0378 C   0  0  0  0  0  0  0  0  0  0  0  0
  -23.1969  -20.7316   23.2140 C   0  0  0  0  0  0  0  0  0  0  0  0
  -27.0571  -26.1412   23.3036 C   0  0  0  0  0  0  0  0  0  0  0  0
  -24.0720  -21.6329   22.5782 C   0  0  0  0  0  0  0  0  0  0  0  0
  -27.1150  -27.0400   22.2289 C   0  0  0  0  0  0  0  0  0  0  0  0
  -22.6205   -8.2367   21.4629 C   0  0  0  0  0  0  0  0  0  0  0  0
  -30.4157  -23.1243   19.2038 C   0  0  0  0  0  0  0  0  0  0  0  0
  -29.4628  -26.4933   21.9143 C   0  0  0  0  0  0  0  0  0  0  0  0
  -21.5706   -6.3817   22.4523 C   0  0  0  0  0  0  0  0  0  0  0  0
  -21.5770   -4.3816   24.3970 C   0  0  0  0  0  0  0  0  0  0  0  0
  -20.5359   -6.3127   23.3852 C   0  0  0  0  0  0  0  0  0  0  0  0
  -25.8907  -10.9197   21.3898 C   0  0  0  0  0  0  0  0  0  0  0  0
  -27.8354  -11.8971   21.7026 C   0  0  0  0  0  0  0  0  0  0  0  0
  -29.3728  -19.3476   20.8350 C   0  0  0  0  0  0  0  0  0  0  0  0
  -28.2229  -18.6817   20.5962 C   0  0  0  0  0  0  0  0  0  0  0  0
  -27.6042   -9.6981   22.8686 C   0  0  0  0  0  0  0  0  0  0  0  0
  -28.0104  -17.3665   21.2333 C   0  0  0  0  0  0  0  0  0  0  0  0
  -24.1754  -25.3117   22.2491 C   0  0  0  0  0  0  0  0  0  0  0  0
  -23.5882  -28.4901   22.5242 C   0  0  0  0  0  0  0  0  0  0  0  0
  -24.8286  -31.6680   22.6187 C   0  0  0  0  0  0  0  0  0  0  0  0
  -21.7053  -20.9544   23.2336 C   0  0  0  0  0  0  0  0  0  0  0  0
  -25.7812  -25.9636   24.0801 C   0  0  0  0  0  0  0  0  0  0  0  0
  -25.9104  -27.8309   21.7907 C   0  0  0  0  0  0  0  0  0  0  0  0
  -21.3000  -22.3917   22.9173 C   0  0  0  0  0  0  0  0  0  0  0  0
  -26.8926  -15.4891   18.2909 C   0  0  0  0  0  0  0  0  0  0  0  0
  -22.0586  -22.9041   21.6972 C   0  0  0  0  0  0  0  0  0  0  0  0
  -26.5892  -14.1271   18.9095 C   0  0  0  0  0  0  0  0  0  0  0  0
  -26.5783  -16.6357   19.2506 C   0  0  0  0  0  0  0  0  0  0  0  0
  -26.9480  -15.1434   21.1939 C   0  0  0  0  0  0  0  0  0  0  0  0
  -23.5706  -22.9165   21.9528 C   0  0  1  0  0  0  0  0  0  0  0  0
  -24.5378  -26.3419   23.2811 C   0  0  1  0  0  0  0  0  0  0  0  0
  -27.3012  -13.9731   20.2628 C   0  0  1  0  0  0  0  0  0  0  0  0
  -24.1010  -34.0616   22.8145 C   0  0  0  0  0  0  0  0  0  0  0  0
  -22.6581  -28.4425   19.6186 C   0  0  0  0  0  0  0  0  0  0  0  0
  -22.8560  -30.9381   19.5872 C   0  0  0  0  0  0  0  0  0  0  0  0
  -21.2474  -29.8357   21.1428 C   0  0  0  0  0  0  0  0  0  0  0  0
  -26.3591  -32.0496   25.1229 C   0  0  0  0  0  0  0  0  0  0  0  0
  -31.7581  -26.4892   19.1088 C   0  0  0  0  0  0  0  0  0  0  0  0
  -31.9039  -24.9793   19.2161 C   0  0  0  0  0  0  0  0  0  0  0  0
  -30.5309  -26.9963   19.8498 C   0  0  0  0  0  0  0  0  0  1  0  0
  -23.7270  -29.6857   21.6130 C   0  0  1  0  0  0  0  0  0  0  0  0
  -24.5656  -32.8242   23.5665 C   0  0  2  0  0  0  0  0  0  0  0  0
  -22.6445  -29.7093   20.4972 C   0  0  0  0  0  0  0  0  0  0  0  0
  -25.8087  -12.0577   20.6954 N   0  0  0  0  0  0  0  0  0  0  0  0
  -27.0063  -12.6301   20.9054 N   0  0  0  0  0  0  0  0  0  0  0  0
  -27.2231  -16.4362   20.5572 N   0  0  0  0  0  0  0  0  0  0  0  0
  -24.6846  -27.6178   22.5777 N   0  0  0  0  0  0  0  0  0  0  0  0
  -29.0768  -12.3257   22.0149 N   0  0  0  0  0  0  0  0  0  0  0  0
  -28.2730   -8.6262   22.2620 N   0  0  0  0  0  0  0  0  0  0  0  0
  -23.9358  -24.0542   22.7693 N   0  0  0  0  0  0  0  0  0  0  0  0
  -23.7196  -30.8608   22.4776 N   0  0  0  0  0  0  0  0  0  0  0  0
  -25.8048  -33.1692   24.3191 N   0  3  0  0  0  0  0  0  0  0  0  0
  -27.4242   -9.6861   24.1099 O   0  0  0  0  0  0  0  0  0  0  0  0
  -28.5399  -17.1734   22.3292 O   0  0  0  0  0  0  0  0  0  0  0  0
  -24.1161  -25.6343   21.0683 O   0  0  0  0  0  0  0  0  0  0  0  0
  -22.5482  -28.3396   23.1702 O   0  0  0  0  0  0  0  0  0  0  0  0
  -25.9086  -31.5000   22.0565 O   0  0  0  0  0  0  0  0  0  0  0  0
  -21.5684   -7.3735   21.4859 O   0  0  0  0  0  0  0  0  0  0  0  0
  -30.7525  -24.3441   18.6770 O   0  0  0  0  0  0  0  0  0  0  0  0
  -30.6290  -26.6634   21.2340 O   0  0  0  0  0  0  0  0  0  1  0  0
  -21.5794   -3.4202   25.3298 F   0  0  0  0  0  0  0  0  0  0  0  0
  -19.5355   -7.2037   23.3516 F   0  0  0  0  0  0  0  0  0  0  0  0
  1  2  1  0  0  0  0
  1  7  2  0  0  0  0
  2  8  2  0  0  0  0
  3 10  2  0  0  0  0
  3 19  1  0  0  0  0
  4 11  1  0  0  0  0
  4 19  2  0  0  0  0
  5 12  2  0  0  0  0
  5 20  1  0  0  0  0
  6 13  1  0  0  0  0
  6 20  2  0  0  0  0
  7 22  1  0  0  0  0
  8 24  1  0  0  0  0
  9 14  2  0  0  0  0
  9 23  1  0  0  0  0
 10 26  1  0  0  0  0
 11 26  2  0  0  0  0
 12 27  1  0  0  0  0
 13 27  2  0  0  0  0
 14 28  1  0  0  0  0
 15 16  2  0  0  0  0
 15 29  1  0  0  0  0
 16 30  1  0  0  0  0
 17 25  1  0  0  0  0
 17 28  2  0  0  0  0
 18 30  2  0  0  0  0
 18 31  1  0  0  0  0
 19 32  1  0  0  0  0
 20 34  1  0  0  0  0
 21 32  1  0  0  0  0
 21 33  2  0  0  0  0
 21 36  1  0  0  0  0
 22 24  2  0  0  0  0
 22 41  1  0  0  0  0
 23 25  2  0  0  0  0
 23 42  1  0  0  0  0
 24 50  1  0  0  0  0
 25 43  1  0  0  0  0
 26 78  1  0  0  0  0
 27 79  1  0  0  0  0
 28 80  1  0  0  0  0
 29 31  2  0  0  0  0
 29 78  1  0  0  0  0
 30 81  1  0  0  0  0
 31 82  1  0  0  0  0
 32 64  2  0  0  0  0
 33 65  1  0  0  0  0
 33 68  1  0  0  0  0
 34 35  2  0  0  0  0
 35 37  1  0  0  0  0
 36 69  1  0  0  0  0
 36 73  2  0  0  0  0
 37 66  1  0  0  0  0
 37 74  2  0  0  0  0
 38 51  1  0  0  0  0
 38 70  1  0  0  0  0
 38 75  2  0  0  0  0
 39 61  1  0  0  0  0
 39 67  1  0  0  0  0
 39 76  2  0  0  0  0
 40 62  1  0  0  0  0
 40 71  1  0  0  0  0
 40 77  2  0  0  0  0
 41 44  1  0  0  0  0
 42 51  1  0  0  0  0
 43 67  1  0  0  0  0
 44 46  1  0  0  0  0
 45 47  1  0  0  0  0
 45 48  1  0  0  0  0
 46 50  1  0  0  0  0
 47 52  1  0  0  0  0
 48 66  1  0  0  0  0
 49 52  1  0  0  0  0
 49 66  1  0  0  0  0
 50 70  1  0  0  0  0
 51 67  1  0  0  0  0
 52 65  1  0  0  0  0
 53 62  1  0  0  0  0
 54 63  1  0  0  0  0
 55 63  1  0  0  0  0
 56 63  1  0  0  0  0
 57 72  1  0  0  0  0
 58 59  1  0  0  0  0
 58 60  1  0  0  0  0
 59 79  1  0  0  0  0
 60 80  1  0  0  0  0
 61 63  1  0  0  0  0
 61 71  1  0  0  0  0
 62 72  1  0  0  0  0
 64 65  1  0  0  0  0
M  CHG  1  72   1
M  ISO  4  35 100  37 100  60 101  80 101
M  END
> <Batch ID>
0129

> <Smiles>
CNC(C)C(=O)NC(C(=O)N1Cc2cc([101O:1][101CH2:1]CCOc3ccc(C=[100CH:0][100C:0](=O)N4CCCC(n5nc(-c6ccc(Oc7ccc(F)cc7F)cc6)c(C(N)=O)c5N)C4)cc3)ccc2CC1C(=O)NC1CCCc2ccccc21)C(C)(C)C

> <Shape>
0.263

> <Color>
0.090

> <Negative vol penalty>
0.000

$$$$

  -OEChem-04052302193D

 85 93  0     1  0  0  0  0  0999 V2000
  -31.5004  -37.7309   26.2022 C   0  0  0  0  0  0  0  0  0  0  0  0
  -31.7672  -36.9793   25.0622 C   0  0  0  0  0  0  0  0  0  0  0  0
  -24.2562   -9.1509   21.2729 C   0  0  0  0  0  0  0  0  0  0  0  0
  -25.3436   -9.9231   23.2875 C   0  0  0  0  0  0  0  0  0  0  0  0
  -30.7949  -37.1618   27.2616 C   0  0  0  0  0  0  0  0  0  0  0  0
  -31.3295  -35.6578   24.9816 C   0  0  0  0  0  0  0  0  0  0  0  0
  -28.9901  -30.8317   20.2326 C   0  0  0  0  0  0  0  0  0  0  0  0
  -31.4855  -19.6263   20.9788 C   0  0  0  0  0  0  0  0  0  0  0  0
  -31.0391  -18.4271   20.4236 C   0  0  0  0  0  0  0  0  0  0  0  0
  -23.9548   -7.9416   21.8992 C   0  0  0  0  0  0  0  0  0  0  0  0
  -25.0421   -8.7138   23.9138 C   0  0  0  0  0  0  0  0  0  0  0  0
  -29.2452  -29.5292   19.8060 C   0  0  0  0  0  0  0  0  0  0  0  0
  -21.6754   -6.7822   24.1112 C   0  0  0  0  0  0  0  0  0  0  0  0
  -20.3849   -6.2760   23.9562 C   0  0  0  0  0  0  0  0  0  0  0  0
  -27.9665  -28.6762   21.6652 C   0  0  0  0  0  0  0  0  0  0  0  0
  -29.2857  -20.0200   21.8970 C   0  0  0  0  0  0  0  0  0  0  0  0
  -21.2894   -4.2842   22.9306 C   0  0  0  0  0  0  0  0  0  0  0  0
  -24.9507  -10.1417   21.9671 C   0  0  0  0  0  0  0  0  0  0  0  0
  -24.4748  -12.5572   21.2990 C   0  0  0  0  0  0  0  0  0  0  0  0
  -30.3400  -35.8358   27.1899 C   0  0  0  0  0  0  0  0  0  0  0  0
  -28.2291  -31.0664   21.3869 C   0  0  0  0  0  0  0  0  0  0  0  0
  -30.6184  -35.0701   26.0416 C   0  0  0  0  0  0  0  0  0  0  0  0
  -27.7010  -29.9827   22.1029 C   0  0  0  0  0  0  0  0  0  0  0  0
  -30.6088  -20.4228   21.7155 C   0  0  0  0  0  0  0  0  0  0  0  0
  -28.8393  -18.8208   21.3418 C   0  0  0  0  0  0  0  0  0  0  0  0
  -29.7161  -18.0243   20.6051 C   0  0  0  0  0  0  0  0  0  0  0  0
  -24.3477   -7.7230   23.2196 C   0  0  0  0  0  0  0  0  0  0  0  0
  -28.7358  -28.4511   20.5239 C   0  0  0  0  0  0  0  0  0  0  0  0
  -22.7729   -6.0395   23.6758 C   0  0  0  0  0  0  0  0  0  0  0  0
  -20.1919   -5.0270   23.3660 C   0  0  0  0  0  0  0  0  0  0  0  0
  -22.5799   -4.7905   23.0856 C   0  0  0  0  0  0  0  0  0  0  0  0
  -25.2629  -11.3909   21.3205 C   0  0  0  0  0  0  0  0  0  0  0  0
  -25.2082  -13.4536   20.5606 C   0  0  0  0  0  0  0  0  0  0  0  0
  -30.1185  -23.9281   21.6536 C   0  0  0  0  0  0  0  0  0  0  0  0
  -30.9107  -22.8832   21.3798 C   0  0  0  0  0  0  0  0  0  0  0  0
  -23.1944  -12.8080   21.8935 C   0  0  0  0  0  0  0  0  0  0  0  0
  -29.9730  -25.0509   20.6851 C   0  0  0  0  0  0  0  0  0  0  0  0
  -28.7817  -32.4490   24.1953 C   0  0  0  0  0  0  0  0  0  0  0  0
  -25.6056  -31.9498   24.6264 C   0  0  0  0  0  0  0  0  0  0  0  0
  -22.8168  -30.1606   23.8091 C   0  0  0  0  0  0  0  0  0  0  0  0
  -30.0384  -15.9080   19.2770 C   0  0  0  0  0  0  0  0  0  0  0  0
  -29.6224  -35.2491   28.3797 C   0  0  0  0  0  0  0  0  0  0  0  0
  -27.9404  -32.4780   21.8188 C   0  0  0  0  0  0  0  0  0  0  0  0
  -26.8611  -30.1815   23.3372 C   0  0  0  0  0  0  0  0  0  0  0  0
  -28.8683  -33.9606   28.0617 C   0  0  0  0  0  0  0  0  0  0  0  0
  -29.3466  -12.7792   17.7250 C   0  0  0  0  0  0  0  0  0  0  0  0
  -29.7470  -33.0142   27.2498 C   0  0  0  0  0  0  0  0  0  0  0  0
  -28.1577  -12.2350   18.5203 C   0  0  0  0  0  0  0  0  0  0  0  0
  -30.3316  -13.5296   18.6197 C   0  0  0  0  0  0  0  0  0  0  0  0
  -28.5488  -14.0453   20.2398 C   0  0  0  0  0  0  0  0  0  0  0  0
  -30.1387  -33.6412   25.9063 C   0  0  1  0  0  0  0  0  0  0  0  0
  -27.5845  -32.5893   23.2981 C   0  0  1  0  0  0  0  0  0  0  0  0
  -27.4966  -13.3374   19.3708 C   0  0  2  0  0  0  0  0  0  0  0  0
  -26.5592  -18.6597   20.3115 C   0  0  0  0  0  0  0  0  0  0  0  0
  -20.3758  -29.9586   24.3549 C   0  0  0  0  0  0  0  0  0  0  0  0
  -26.3091  -30.5421   27.2405 C   0  0  0  0  0  0  0  0  0  0  0  0
  -24.0067  -29.5585   27.2493 C   0  0  0  0  0  0  0  0  0  0  0  0
  -24.3046  -32.0324   27.3648 C   0  0  0  0  0  0  0  0  0  0  0  0
  -22.0239  -30.7953   21.0293 C   0  0  0  0  0  0  0  0  0  0  0  0
  -31.0909  -21.7206   22.3138 C   0  0  0  0  0  0  0  0  0  0  0  0
  -27.4159  -18.4156   21.5497 C   0  0  0  0  0  0  0  0  0  0  0  0
  -29.0479  -26.1691   21.1165 C   0  0  0  0  0  0  0  0  0  1  0  0
  -24.7664  -30.8286   25.1901 C   0  0  1  0  0  0  0  0  0  0  0  0
  -21.4104  -30.5988   23.4426 C   0  0  2  0  0  0  0  0  0  0  0  0
  -24.8641  -30.7363   26.7391 C   0  0  0  0  0  0  0  0  0  0  0  0
  -26.4090  -11.5306   20.6490 N   0  0  0  0  0  0  0  0  0  0  0  0
  -26.3464  -12.7952   20.1985 N   0  0  0  0  0  0  0  0  0  0  0  0
  -26.6120  -31.5803   23.7229 N   0  0  0  0  0  0  0  0  0  0  0  0
  -29.6351  -14.5608   19.3918 N   0  0  0  0  0  0  0  0  0  0  0  0
  -24.9840  -14.7328   20.1922 N   0  0  0  0  0  0  0  0  0  0  0  0
  -22.5811  -11.7774   22.6187 N   0  0  0  0  0  0  0  0  0  0  0  0
  -29.2819  -16.8028   20.0331 N   0  0  0  0  0  0  0  0  0  0  0  0
  -29.0364  -33.5632   24.9718 N   0  0  0  0  0  0  0  0  0  0  0  0
  -23.4129  -31.0398   24.6883 N   0  0  0  0  0  0  0  0  0  0  0  0
  -21.0984  -30.2157   22.0366 N   0  3  0  0  0  0  0  0  0  0  0  0
  -22.6040  -13.9080   21.7709 O   0  0  0  0  0  0  0  0  0  0  0  0
  -30.5661  -25.0646   19.6099 O   0  0  0  0  0  0  0  0  0  0  0  0
  -29.4256  -31.4064   24.1849 O   0  0  0  0  0  0  0  0  0  0  0  0
  -25.3720  -33.1114   24.9696 O   0  0  0  0  0  0  0  0  0  0  0  0
  -23.3335  -29.1384   23.3633 O   0  0  0  0  0  0  0  0  0  0  0  0
  -30.9678  -16.2466   18.5398 O   0  0  0  0  0  0  0  0  0  0  0  0
  -24.0535   -6.5431   23.8311 O   0  0  0  0  0  0  0  0  0  0  0  0
  -28.9839  -27.1787   20.1100 O   0  0  0  0  0  0  0  0  0  1  0  0
  -18.9527   -4.5403   23.2187 F   0  0  0  0  0  0  0  0  0  0  0  0
  -23.6305   -4.0718   22.6664 F   0  0  0  0  0  0  0  0  0  0  0  0
  1  2  1  0  0  0  0
  1  5  2  0  0  0  0
  2  6  2  0  0  0  0
  3 10  2  0  0  0  0
  3 18  1  0  0  0  0
  4 11  1  0  0  0  0
  4 18  2  0  0  0  0
  5 20  1  0  0  0  0
  6 22  1  0  0  0  0
  7 12  2  0  0  0  0
  7 21  1  0  0  0  0
  8  9  2  0  0  0  0
  8 24  1  0  0  0  0
  9 26  1  0  0  0  0
 10 27  1  0  0  0  0
 11 27  2  0  0  0  0
 12 28  1  0  0  0  0
 13 14  2  0  0  0  0
 13 29  1  0  0  0  0
 14 30  1  0  0  0  0
 15 23  1  0  0  0  0
 15 28  2  0  0  0  0
 16 24  2  0  0  0  0
 16 25  1  0  0  0  0
 17 30  2  0  0  0  0
 17 31  1  0  0  0  0
 18 32  1  0  0  0  0
 19 32  1  0  0  0  0
 19 33  2  0  0  0  0
 19 36  1  0  0  0  0
 20 22  2  0  0  0  0
 20 42  1  0  0  0  0
 21 23  2  0  0  0  0
 21 43  1  0  0  0  0
 22 51  1  0  0  0  0
 23 44  1  0  0  0  0
 24 60  1  0  0  0  0
 25 26  2  0  0  0  0
 25 61  1  0  0  0  0
 26 72  1  0  0  0  0
 27 82  1  0  0  0  0
 28 83  1  0  0  0  0
 29 31  2  0  0  0  0
 29 82  1  0  0  0  0
 30 84  1  0  0  0  0
 31 85  1  0  0  0  0
 32 66  2  0  0  0  0
 33 67  1  0  0  0  0
 33 70  1  0  0  0  0
 34 35  2  0  0  0  0
 34 37  1  0  0  0  0
 35 60  1  0  0  0  0
 36 71  1  0  0  0  0
 36 76  2  0  0  0  0
 37 62  1  0  0  0  0
 37 77  2  0  0  0  0
 38 52  1  0  0  0  0
 38 73  1  0  0  0  0
 38 78  2  0  0  0  0
 39 63  1  0  0  0  0
 39 68  1  0  0  0  0
 39 79  2  0  0  0  0
 40 64  1  0  0  0  0
 40 74  1  0  0  0  0
 40 80  2  0  0  0  0
 41 69  1  0  0  0  0
 41 72  1  0  0  0  0
 41 81  2  0  0  0  0
 42 45  1  0  0  0  0
 43 52  1  0  0  0  0
 44 68  1  0  0  0  0
 45 47  1  0  0  0  0
 46 48  1  0  0  0  0
 46 49  1  0  0  0  0
 47 51  1  0  0  0  0
 48 53  1  0  0  0  0
 49 69  1  0  0  0  0
 50 53  1  0  0  0  0
 50 69  1  0  0  0  0
 51 73  1  0  0  0  0
 52 68  1  0  0  0  0
 53 67  1  0  0  0  0
 54 61  1  0  0  0  0
 55 64  1  0  0  0  0
 56 65  1  0  0  0  0
 57 65  1  0  0  0  0
 58 65  1  0  0  0  0
 59 75  1  0  0  0  0
 62 83  1  0  0  0  0
 63 65  1  0  0  0  0
 63 74  1  0  0  0  0
 64 75  1  0  0  0  0
 66 67  1  0  0  0  0
M  CHG  1  75   1
M  ISO  4  41 100  62 101  72 100  83 101
M  END
> <Batch ID>
0129

> <Smiles>
CCc1cc(CC=CC(=O)[101CH2:1][101O:1]c2ccc3c(c2)CN(C(=O)C(NC(=O)C(C)NC)C(C)(C)C)C(C(=O)NC2CCCc4ccccc42)C3)ccc1[100NH:0][100C:0](=O)N1CCCC(n2nc(-c3ccc(Oc4ccc(F)cc4F)cc3)c(C(N)=O)c2N)C1

> <Shape>
0.294

> <Color>
0.150

> <Negative vol penalty>
0.000

$$$$

  -OEChem-04052302193D

 83 91  0     1  0  0  0  0  0999 V2000
  -28.7445  -21.7419   36.9697 C   0  0  0  0  0  0  0  0  0  0  0  0
  -28.6522  -21.5070   35.6015 C   0  0  0  0  0  0  0  0  0  0  0  0
  -23.0754   -9.8687   19.9399 C   0  0  0  0  0  0  0  0  0  0  0  0
  -23.8352   -9.8744   22.2333 C   0  0  0  0  0  0  0  0  0  0  0  0
  -28.3695  -20.7485   37.8732 C   0  0  0  0  0  0  0  0  0  0  0  0
  -28.1857  -20.2780   35.1362 C   0  0  0  0  0  0  0  0  0  0  0  0
  -24.8448  -20.7707   31.3626 C   0  0  0  0  0  0  0  0  0  0  0  0
  -32.6527  -17.4897   23.4566 C   0  0  0  0  0  0  0  0  0  0  0  0
  -32.0649  -16.6058   22.5519 C   0  0  0  0  0  0  0  0  0  0  0  0
  -22.3311   -8.7157   20.1893 C   0  0  0  0  0  0  0  0  0  0  0  0
  -23.0909   -8.7214   22.4828 C   0  0  0  0  0  0  0  0  0  0  0  0
  -25.3530  -21.0498   30.0946 C   0  0  0  0  0  0  0  0  0  0  0  0
  -19.8624   -7.9245   23.0848 C   0  0  0  0  0  0  0  0  0  0  0  0
  -19.1054   -7.8844   24.2556 C   0  0  0  0  0  0  0  0  0  0  0  0
  -29.8811  -17.4551   23.1409 C   0  0  0  0  0  0  0  0  0  0  0  0
  -25.1253  -18.7235   29.4980 C   0  0  0  0  0  0  0  0  0  0  0  0
  -20.3461   -5.9461   24.9913 C   0  0  0  0  0  0  0  0  0  0  0  0
  -23.8275  -10.4480   20.9619 C   0  0  0  0  0  0  0  0  0  0  0  0
  -30.4690  -18.3391   24.0457 C   0  0  0  0  0  0  0  0  0  0  0  0
  -24.1703  -12.9731   20.8430 C   0  0  0  0  0  0  0  0  0  0  0  0
  -27.8890  -19.5102   37.4188 C   0  0  0  0  0  0  0  0  0  0  0  0
  -24.4826  -19.4619   31.7120 C   0  0  0  0  0  0  0  0  0  0  0  0
  -27.8051  -19.2667   36.0346 C   0  0  0  0  0  0  0  0  0  0  0  0
  -24.6104  -18.4310   30.7702 C   0  0  0  0  0  0  0  0  0  0  0  0
  -31.8548  -18.3564   24.2036 C   0  0  0  0  0  0  0  0  0  0  0  0
  -30.6791  -16.5885   22.3940 C   0  0  0  0  0  0  0  0  0  0  0  0
  -22.3388   -8.1421   21.4608 C   0  0  0  0  0  0  0  0  0  0  0  0
  -25.4960  -20.0256   29.1631 C   0  0  0  0  0  0  0  0  0  0  0  0
  -20.8612   -6.9755   22.8671 C   0  0  0  0  0  0  0  0  0  0  0  0
  -19.3472   -6.8952   25.2089 C   0  0  0  0  0  0  0  0  0  0  0  0
  -21.1031   -5.9863   23.8204 C   0  0  0  0  0  0  0  0  0  0  0  0
  -24.5971  -11.6388   20.7047 C   0  0  0  0  0  0  0  0  0  0  0  0
  -25.2627  -13.7224   20.4801 C   0  0  0  0  0  0  0  0  0  0  0  0
  -29.5986  -19.2413   24.8202 C   0  0  0  0  0  0  0  0  0  0  0  0
  -28.6213  -18.8354   25.6428 C   0  0  0  0  0  0  0  0  0  0  0  0
  -22.9000  -13.4892   21.2621 C   0  0  0  0  0  0  0  0  0  0  0  0
  -27.7879  -19.8323   26.3757 C   0  0  0  0  0  0  0  0  0  0  0  0
  -25.4605  -17.3717   33.8980 C   0  0  0  0  0  0  0  0  0  0  0  0
  -22.9619  -15.6284   32.7843 C   0  0  0  0  0  0  0  0  0  0  0  0
  -20.8087  -14.9604   30.2223 C   0  0  0  0  0  0  0  0  0  0  0  0
  -30.7293  -14.7659   20.6556 C   0  0  0  0  0  0  0  0  0  0  0  0
  -27.5403  -18.4502   38.4333 C   0  0  0  0  0  0  0  0  0  0  0  0
  -23.9110  -19.1820   33.0748 C   0  0  0  0  0  0  0  0  0  0  0  0
  -24.2171  -17.0124   31.0889 C   0  0  0  0  0  0  0  0  0  0  0  0
  -26.7024  -17.3103   37.8598 C   0  0  0  0  0  0  0  0  0  0  0  0
  -29.6141  -12.3535   18.2862 C   0  0  0  0  0  0  0  0  0  0  0  0
  -27.2876  -16.8320   36.5348 C   0  0  0  0  0  0  0  0  0  0  0  0
  -28.1744  -12.0623   18.7155 C   0  0  0  0  0  0  0  0  0  0  0  0
  -30.5293  -12.5815   19.4880 C   0  0  0  0  0  0  0  0  0  0  0  0
  -28.6225  -13.3060   20.8694 C   0  0  0  0  0  0  0  0  0  0  0  0
  -27.2805  -17.9554   35.4910 C   0  0  1  0  0  0  0  0  0  0  0  0
  -24.0561  -17.7228   33.4955 C   0  0  1  0  0  0  0  0  0  0  0  0
  -27.6497  -13.1336   19.6915 C   0  0  2  0  0  0  0  0  0  0  0  0
  -32.5189  -19.2900   25.1640 C   0  0  0  0  0  0  0  0  0  0  0  0
  -18.9008  -13.4562   29.5939 C   0  0  0  0  0  0  0  0  0  0  0  0
  -24.9201  -13.3282   32.3548 C   0  0  0  0  0  0  0  0  0  0  0  0
  -23.2103  -12.2390   30.8856 C   0  0  0  0  0  0  0  0  0  0  0  0
  -22.7034  -12.6498   33.2933 C   0  0  0  0  0  0  0  0  0  0  0  0
  -18.9686  -17.2507   29.8649 C   0  0  0  0  0  0  0  0  0  0  0  0
  -26.7165  -19.2517   27.2743 C   0  0  0  0  0  0  0  0  0  1  0  0
  -22.7759  -14.6041   31.6911 C   0  0  1  0  0  0  0  0  0  0  0  0
  -19.2998  -14.7966   30.1913 C   0  0  2  0  0  0  0  0  0  0  0  0
  -23.4118  -13.2316   32.0505 C   0  0  0  0  0  0  0  0  0  0  0  0
  -25.8619  -11.5426   20.2865 N   0  0  0  0  0  0  0  0  0  0  0  0
  -26.2393  -12.8261   20.1587 N   0  0  0  0  0  0  0  0  0  0  0  0
  -23.6690  -16.7882   32.4368 N   0  0  0  0  0  0  0  0  0  0  0  0
  -29.9706  -13.6121   20.3658 N   0  0  0  0  0  0  0  0  0  0  0  0
  -25.4736  -15.0538   20.4077 N   0  0  0  0  0  0  0  0  0  0  0  0
  -21.8877  -12.5803   21.5989 N   0  0  0  0  0  0  0  0  0  0  0  0
  -30.0822  -15.6908   21.4743 N   0  0  0  0  0  0  0  0  0  0  0  0
  -25.9518  -18.1289   34.9443 N   0  0  0  0  0  0  0  0  0  0  0  0
  -21.3427  -14.5473   31.4245 N   0  0  0  0  0  0  0  0  0  0  0  0
  -18.6780  -15.8782   29.3762 N   0  3  0  0  0  0  0  0  0  0  0  0
  -22.6642  -14.7199   21.3200 O   0  0  0  0  0  0  0  0  0  0  0  0
  -27.9621  -21.0421   26.2562 O   0  0  0  0  0  0  0  0  0  0  0  0
  -26.0538  -16.4789   33.3044 O   0  0  0  0  0  0  0  0  0  0  0  0
  -22.4908  -15.4108   33.9034 O   0  0  0  0  0  0  0  0  0  0  0  0
  -21.4499  -15.4065   29.2734 O   0  0  0  0  0  0  0  0  0  0  0  0
  -31.8585  -14.9344   20.1881 O   0  0  0  0  0  0  0  0  0  0  0  0
  -21.6125   -7.0172   21.7046 O   0  0  0  0  0  0  0  0  0  0  0  0
  -25.9924  -20.2951   27.9250 O   0  0  0  0  0  0  0  0  0  1  0  0
  -18.6212   -6.8577   26.3339 F   0  0  0  0  0  0  0  0  0  0  0  0
  -22.0621   -5.0726   23.6174 F   0  0  0  0  0  0  0  0  0  0  0  0
  1  2  1  0  0  0  0
  1  5  2  0  0  0  0
  2  6  2  0  0  0  0
  3 10  2  0  0  0  0
  3 18  1  0  0  0  0
  4 11  1  0  0  0  0
  4 18  2  0  0  0  0
  5 21  1  0  0  0  0
  6 23  1  0  0  0  0
  7 12  2  0  0  0  0
  7 22  1  0  0  0  0
  8  9  2  0  0  0  0
  8 25  1  0  0  0  0
  9 26  1  0  0  0  0
 10 27  1  0  0  0  0
 11 27  2  0  0  0  0
 12 28  1  0  0  0  0
 13 14  2  0  0  0  0
 13 29  1  0  0  0  0
 14 30  1  0  0  0  0
 15 19  1  0  0  0  0
 15 26  2  0  0  0  0
 16 24  1  0  0  0  0
 16 28  2  0  0  0  0
 17 30  2  0  0  0  0
 17 31  1  0  0  0  0
 18 32  1  0  0  0  0
 19 25  2  0  0  0  0
 19 34  1  0  0  0  0
 20 32  1  0  0  0  0
 20 33  2  0  0  0  0
 20 36  1  0  0  0  0
 21 23  2  0  0  0  0
 21 42  1  0  0  0  0
 22 24  2  0  0  0  0
 22 43  1  0  0  0  0
 23 51  1  0  0  0  0
 24 44  1  0  0  0  0
 25 54  1  0  0  0  0
 26 70  1  0  0  0  0
 27 80  1  0  0  0  0
 28 81  1  0  0  0  0
 29 31  2  0  0  0  0
 29 80  1  0  0  0  0
 30 82  1  0  0  0  0
 31 83  1  0  0  0  0
 32 64  2  0  0  0  0
 33 65  1  0  0  0  0
 33 68  1  0  0  0  0
 34 35  2  0  0  0  0
 35 37  1  0  0  0  0
 36 69  1  0  0  0  0
 36 74  2  0  0  0  0
 37 60  1  0  0  0  0
 37 75  2  0  0  0  0
 38 52  1  0  0  0  0
 38 71  1  0  0  0  0
 38 76  2  0  0  0  0
 39 61  1  0  0  0  0
 39 66  1  0  0  0  0
 39 77  2  0  0  0  0
 40 62  1  0  0  0  0
 40 72  1  0  0  0  0
 40 78  2  0  0  0  0
 41 67  1  0  0  0  0
 41 70  1  0  0  0  0
 41 79  2  0  0  0  0
 42 45  1  0  0  0  0
 43 52  1  0  0  0  0
 44 66  1  0  0  0  0
 45 47  1  0  0  0  0
 46 48  1  0  0  0  0
 46 49  1  0  0  0  0
 47 51  1  0  0  0  0
 48 53  1  0  0  0  0
 49 67  1  0  0  0  0
 50 53  1  0  0  0  0
 50 67  1  0  0  0  0
 51 71  1  0  0  0  0
 52 66  1  0  0  0  0
 53 65  1  0  0  0  0
 55 62  1  0  0  0  0
 56 63  1  0  0  0  0
 57 63  1  0  0  0  0
 58 63  1  0  0  0  0
 59 73  1  0  0  0  0
 60 81  1  0  0  0  0
 61 63  1  0  0  0  0
 61 72  1  0  0  0  0
 62 73  1  0  0  0  0
 64 65  1  0  0  0  0
M  CHG  1  73   1
M  ISO  4  41 100  60 101  70 100  81 101
M  END
> <Batch ID>
0129

> <Smiles>
CNC(C)C(=O)NC(C(=O)N1Cc2cc([101O:1][101CH2:1]C(=O)C=Cc3cc([100NH:0][100C:0](=O)N4CCCC(n5nc(-c6ccc(Oc7ccc(F)cc7F)cc6)c(C(N)=O)c5N)C4)ccc3C)ccc2CC1C(=O)NC1CCCc2ccccc21)C(C)(C)C

> <Shape>
0.166

> <Color>
0.196

> <Negative vol penalty>
0.000

$$$$

  -OEChem-04052302193D

 84 92  0     1  0  0  0  0  0999 V2000
  -24.7821  -10.2192   18.4759 C   0  0  0  0  0  0  0  0  0  0  0  0
  -24.5156  -11.0333   19.5721 C   0  0  0  0  0  0  0  0  0  0  0  0
  -26.0415  -28.5946   21.3820 C   0  0  0  0  0  0  0  0  0  0  0  0
  -24.7453  -29.6470   19.6357 C   0  0  0  0  0  0  0  0  0  0  0  0
  -26.0778  -10.1389   17.9673 C   0  0  0  0  0  0  0  0  0  0  0  0
  -25.5449  -11.7670   20.1609 C   0  0  0  0  0  0  0  0  0  0  0  0
  -24.1952  -16.5420   21.1718 C   0  0  0  0  0  0  0  0  0  0  0  0
  -15.6964  -20.1296   26.6281 C   0  0  0  0  0  0  0  0  0  0  0  0
  -17.0161  -19.6953   26.7522 C   0  0  0  0  0  0  0  0  0  0  0  0
  -27.1532  -28.5668   20.5400 C   0  0  0  0  0  0  0  0  0  0  0  0
  -25.8571  -29.6192   18.7938 C   0  0  0  0  0  0  0  0  0  0  0  0
  -23.4067  -16.7552   22.3017 C   0  0  0  0  0  0  0  0  0  0  0  0
  -30.2323  -27.8923   18.7267 C   0  0  0  0  0  0  0  0  0  0  0  0
  -30.9772  -26.7143   18.6723 C   0  0  0  0  0  0  0  0  0  0  0  0
  -16.4760  -22.2629   25.8043 C   0  0  0  0  0  0  0  0  0  0  0  0
  -25.3656  -17.4391   23.5323 C   0  0  0  0  0  0  0  0  0  0  0  0
  -29.0251  -25.5154   17.9049 C   0  0  0  0  0  0  0  0  0  0  0  0
  -24.8375  -29.1346   20.9298 C   0  0  0  0  0  0  0  0  0  0  0  0
  -17.7957  -21.8285   25.9284 C   0  0  0  0  0  0  0  0  0  0  0  0
  -23.3217  -30.1896   22.6896 C   0  0  0  0  0  0  0  0  0  0  0  0
  -27.1216  -10.8794   18.5441 C   0  0  0  0  0  0  0  0  0  0  0  0
  -25.5788  -16.7657   21.2169 C   0  0  0  0  0  0  0  0  0  0  0  0
  -26.8560  -11.6955   19.6603 C   0  0  0  0  0  0  0  0  0  0  0  0
  -26.1690  -17.2305   22.4009 C   0  0  0  0  0  0  0  0  0  0  0  0
  -15.4263  -21.4135   26.1542 C   0  0  0  0  0  0  0  0  0  0  0  0
  -18.0657  -20.5447   26.4023 C   0  0  0  0  0  0  0  0  0  0  0  0
  -27.0610  -29.0791   19.2460 C   0  0  0  0  0  0  0  0  0  0  0  0
  -23.9923  -17.2010   23.4830 C   0  0  0  0  0  0  0  0  0  0  0  0
  -28.8837  -27.8819   18.3704 C   0  0  0  0  0  0  0  0  0  0  0  0
  -30.3736  -25.5259   18.2613 C   0  0  0  0  0  0  0  0  0  0  0  0
  -28.2801  -26.6934   17.9594 C   0  0  0  0  0  0  0  0  0  0  0  0
  -23.6886  -29.1631   21.7989 C   0  0  0  0  0  0  0  0  0  0  0  0
  -22.1643  -29.7383   23.2756 C   0  0  0  0  0  0  0  0  0  0  0  0
  -18.8704  -22.7392   25.5553 C   0  0  0  0  0  0  0  0  0  0  0  0
  -19.0366  -23.2928   24.3369 C   0  0  0  0  0  0  0  0  0  0  0  0
  -23.9691  -31.4393   22.9629 C   0  0  0  0  0  0  0  0  0  0  0  0
  -20.1746  -24.2079   24.1170 C   0  0  0  0  0  0  0  0  0  0  0  0
  -28.1585  -14.9493   20.8304 C   0  0  0  0  0  0  0  0  0  0  0  0
  -21.3660  -18.6494   25.5234 C   0  0  0  0  0  0  0  0  0  0  0  0
  -29.7138  -17.7853   21.0762 C   0  0  0  0  0  0  0  0  0  0  0  0
  -29.7047  -21.0064   22.2038 C   0  0  0  0  0  0  0  0  0  0  0  0
  -28.5152  -10.7237   17.9888 C   0  0  0  0  0  0  0  0  0  0  0  0
  -26.4114  -16.5567   19.9818 C   0  0  0  0  0  0  0  0  0  0  0  0
  -27.6469  -17.5051   22.4955 C   0  0  0  0  0  0  0  0  0  0  0  0
  -29.4757  -11.8221   18.4372 C   0  0  0  0  0  0  0  0  0  0  0  0
  -18.3854  -26.9438   22.4600 C   0  0  0  0  0  0  0  0  0  0  0  0
  -29.3534  -12.0579   19.9393 C   0  0  0  0  0  0  0  0  0  0  0  0
  -19.5346  -27.8973   22.1440 C   0  0  0  0  0  0  0  0  0  0  0  0
  -18.8156  -25.4804   22.3705 C   0  0  0  0  0  0  0  0  0  0  0  0
  -21.1542  -26.1102   22.8946 C   0  0  0  0  0  0  0  0  0  0  0  0
  -27.9411  -12.5257   20.3110 C   0  0  1  0  0  0  0  0  0  0  0  0
  -27.8876  -16.3244   20.2886 C   0  0  1  0  0  0  0  0  0  0  0  0
  -20.7558  -27.5886   23.0247 C   0  0  1  0  0  0  0  0  0  0  0  0
  -14.0149  -21.8767   26.0220 C   0  0  0  0  0  0  0  0  0  0  0  0
  -31.1323  -23.0686   22.2864 C   0  0  0  0  0  0  0  0  0  0  0  0
  -31.4004  -16.5264   23.2853 C   0  0  0  0  0  0  0  0  0  0  0  0
  -32.1127  -18.8302   23.9586 C   0  0  0  0  0  0  0  0  0  0  0  0
  -32.6788  -17.9650   21.6884 C   0  0  0  0  0  0  0  0  0  0  0  0
  -27.7254  -22.5789   20.6648 C   0  0  0  0  0  0  0  0  0  0  0  0
  -19.4815  -20.0415   26.5516 C   0  0  0  0  0  0  0  0  0  0  0  0
  -19.9221  -19.1178   25.4144 C   0  0  0  0  0  0  0  0  0  0  0  0
  -21.8697  -17.8007   24.3725 C   0  0  0  0  0  0  0  0  0  1  0  0
  -30.2874  -18.5950   22.2139 C   0  0  1  0  0  0  0  0  0  0  0  0
  -30.0577  -22.3144   21.5189 C   0  0  2  0  0  0  0  0  0  0  0  0
  -31.5923  -17.9722   22.7856 C   0  0  0  0  0  0  0  0  0  0  0  0
  -22.8337  -28.1369   21.8143 N   0  0  0  0  0  0  0  0  0  0  0  0
  -21.9181  -28.5164   22.7220 N   0  0  0  0  0  0  0  0  0  0  0  0
  -20.0196  -25.2232   23.1748 N   0  0  0  0  0  0  0  0  0  0  0  0
  -28.4195  -17.2795   21.2628 N   0  0  0  0  0  0  0  0  0  0  0  0
  -21.3434  -30.2715   24.2053 N   0  0  0  0  0  0  0  0  0  0  0  0
  -25.1495  -31.7454   22.2721 N   0  0  0  0  0  0  0  0  0  0  0  0
  -27.7708  -13.9258   19.9868 N   0  0  0  0  0  0  0  0  0  0  0  0
  -30.4457  -19.9543   21.7084 N   0  0  0  0  0  0  0  0  0  0  0  0
  -28.8537  -23.1867   21.4162 N   0  3  0  0  0  0  0  0  0  0  0  0
  -23.5231  -32.2531   23.8069 O   0  0  0  0  0  0  0  0  0  0  0  0
  -21.1961  -24.0142   24.7785 O   0  0  0  0  0  0  0  0  0  0  0  0
  -28.6820  -14.8261   21.9315 O   0  0  0  0  0  0  0  0  0  0  0  0
  -22.0956  -18.9633   26.4623 O   0  0  0  0  0  0  0  0  0  0  0  0
  -30.3865  -17.6142   20.0565 O   0  0  0  0  0  0  0  0  0  0  0  0
  -28.8592  -20.9266   23.0922 O   0  0  0  0  0  0  0  0  0  0  0  0
  -28.1457  -29.0524   18.4242 O   0  0  0  0  0  0  0  0  0  0  0  0
  -23.2251  -17.4093   24.5875 O   0  0  0  0  0  0  0  0  0  1  0  0
  -31.0895  -24.3950   18.2076 F   0  0  0  0  0  0  0  0  0  0  0  0
  -26.9852  -26.6774   17.6147 F   0  0  0  0  0  0  0  0  0  0  0  0
  1  2  1  0  0  0  0
  1  5  2  0  0  0  0
  2  6  2  0  0  0  0
  3 10  2  0  0  0  0
  3 18  1  0  0  0  0
  4 11  1  0  0  0  0
  4 18  2  0  0  0  0
  5 21  1  0  0  0  0
  6 23  1  0  0  0  0
  7 12  2  0  0  0  0
  7 22  1  0  0  0  0
  8  9  2  0  0  0  0
  8 25  1  0  0  0  0
  9 26  1  0  0  0  0
 10 27  1  0  0  0  0
 11 27  2  0  0  0  0
 12 28  1  0  0  0  0
 13 14  2  0  0  0  0
 13 29  1  0  0  0  0
 14 30  1  0  0  0  0
 15 19  1  0  0  0  0
 15 25  2  0  0  0  0
 16 24  1  0  0  0  0
 16 28  2  0  0  0  0
 17 30  2  0  0  0  0
 17 31  1  0  0  0  0
 18 32  1  0  0  0  0
 19 26  2  0  0  0  0
 19 34  1  0  0  0  0
 20 32  1  0  0  0  0
 20 33  2  0  0  0  0
 20 36  1  0  0  0  0
 21 23  2  0  0  0  0
 21 42  1  0  0  0  0
 22 24  2  0  0  0  0
 22 43  1  0  0  0  0
 23 51  1  0  0  0  0
 24 44  1  0  0  0  0
 25 54  1  0  0  0  0
 26 60  1  0  0  0  0
 27 81  1  0  0  0  0
 28 82  1  0  0  0  0
 29 31  2  0  0  0  0
 29 81  1  0  0  0  0
 30 83  1  0  0  0  0
 31 84  1  0  0  0  0
 32 66  2  0  0  0  0
 33 67  1  0  0  0  0
 33 70  1  0  0  0  0
 34 35  2  0  0  0  0
 35 37  1  0  0  0  0
 36 71  1  0  0  0  0
 36 75  2  0  0  0  0
 37 68  1  0  0  0  0
 37 76  2  0  0  0  0
 38 52  1  0  0  0  0
 38 72  1  0  0  0  0
 38 77  2  0  0  0  0
 39 61  1  0  0  0  0
 39 62  1  0  0  0  0
 39 78  2  0  0  0  0
 40 63  1  0  0  0  0
 40 69  1  0  0  0  0
 40 79  2  0  0  0  0
 41 64  1  0  0  0  0
 41 73  1  0  0  0  0
 41 80  2  0  0  0  0
 42 45  1  0  0  0  0
 43 52  1  0  0  0  0
 44 69  1  0  0  0  0
 45 47  1  0  0  0  0
 46 48  1  0  0  0  0
 46 49  1  0  0  0  0
 47 51  1  0  0  0  0
 48 53  1  0  0  0  0
 49 68  1  0  0  0  0
 50 53  1  0  0  0  0
 50 68  1  0  0  0  0
 51 72  1  0  0  0  0
 52 69  1  0  0  0  0
 53 67  1  0  0  0  0
 55 64  1  0  0  0  0
 56 65  1  0  0  0  0
 57 65  1  0  0  0  0
 58 65  1  0  0  0  0
 59 74  1  0  0  0  0
 60 61  1  0  0  0  0
 62 82  1  0  0  0  0
 63 65  1  0  0  0  0
 63 73  1  0  0  0  0
 64 74  1  0  0  0  0
 66 67  1  0  0  0  0
M  CHG  1  74   1
M  ISO  4  35 100  37 100  62 101  82 101
M  END
> <Batch ID>
0129

> <Smiles>
CNC(C)C(=O)NC(C(=O)N1Cc2cc([101O:1][101CH2:1]C(=O)CCc3ccc(C)cc3C=[100CH:0][100C:0](=O)N3CCCC(n4nc(-c5ccc(Oc6ccc(F)cc6F)cc5)c(C(N)=O)c4N)C3)ccc2CC1C(=O)NC1CCCc2ccccc21)C(C)(C)C

> <Shape>
0.235

> <Color>
0.057

> <Negative vol penalty>
0.000

$$$$

  -OEChem-04052302193D

 83 91  0     1  0  0  0  0  0999 V2000
  -31.3441  -31.2693   16.6220 C   0  0  0  0  0  0  0  0  0  0  0  0
  -30.7567  -30.2506   17.3655 C   0  0  0  0  0  0  0  0  0  0  0  0
  -24.1304   -9.5193   22.3363 C   0  0  0  0  0  0  0  0  0  0  0  0
  -23.8017   -9.4546   19.9436 C   0  0  0  0  0  0  0  0  0  0  0  0
  -30.8504  -21.0260   22.6328 C   0  0  0  0  0  0  0  0  0  0  0  0
  -31.2684  -32.5883   17.0672 C   0  0  0  0  0  0  0  0  0  0  0  0
  -30.0942  -30.5504   18.5553 C   0  0  0  0  0  0  0  0  0  0  0  0
  -25.6530  -28.1515   18.9635 C   0  0  0  0  0  0  0  0  0  0  0  0
  -31.0486  -22.4060   22.5895 C   0  0  0  0  0  0  0  0  0  0  0  0
  -23.0940   -8.6009   22.5036 C   0  0  0  0  0  0  0  0  0  0  0  0
  -22.7653   -8.5361   20.1109 C   0  0  0  0  0  0  0  0  0  0  0  0
  -25.6871  -26.8067   19.3297 C   0  0  0  0  0  0  0  0  0  0  0  0
  -22.6516   -5.2623   22.2023 C   0  0  0  0  0  0  0  0  0  0  0  0
  -22.8619   -4.2008   23.0825 C   0  0  0  0  0  0  0  0  0  0  0  0
  -28.5512  -21.3349   21.9580 C   0  0  0  0  0  0  0  0  0  0  0  0
  -25.1457  -27.4174   21.5997 C   0  0  0  0  0  0  0  0  0  0  0  0
  -20.9854   -4.9346   24.4157 C   0  0  0  0  0  0  0  0  0  0  0  0
  -24.4842   -9.9462   21.0563 C   0  0  0  0  0  0  0  0  0  0  0  0
  -29.6018  -20.4904   22.3170 C   0  0  0  0  0  0  0  0  0  0  0  0
  -26.9213  -10.6118   20.7026 C   0  0  0  0  0  0  0  0  0  0  0  0
  -30.5962  -32.9056   18.2581 C   0  0  0  0  0  0  0  0  0  0  0  0
  -25.3754  -29.1420   19.9166 C   0  0  0  0  0  0  0  0  0  0  0  0
  -30.0106  -31.8748   19.0175 C   0  0  0  0  0  0  0  0  0  0  0  0
  -25.1063  -28.7739   21.2425 C   0  0  0  0  0  0  0  0  0  0  0  0
  -29.9981  -23.2505   22.2304 C   0  0  0  0  0  0  0  0  0  0  0  0
  -22.4115   -8.1092   21.3909 C   0  0  0  0  0  0  0  0  0  0  0  0
  -25.4362  -26.4397   20.6486 C   0  0  0  0  0  0  0  0  0  0  0  0
  -21.6083   -6.1600   22.4288 C   0  0  0  0  0  0  0  0  0  0  0  0
  -28.7494  -22.7150   21.9147 C   0  0  0  0  0  0  0  0  0  0  0  0
  -22.0288   -4.0369   24.1891 C   0  0  0  0  0  0  0  0  0  0  0  0
  -20.7752   -5.9961   23.5355 C   0  0  0  0  0  0  0  0  0  0  0  0
  -25.5543  -10.8954   20.8829 C   0  0  0  0  0  0  0  0  0  0  0  0
  -27.5155  -11.8447   20.5868 C   0  0  0  0  0  0  0  0  0  0  0  0
  -29.3949  -19.0517   22.3629 C   0  0  0  0  0  0  0  0  0  0  0  0
  -28.1976  -18.4350   22.4595 C   0  0  0  0  0  0  0  0  0  0  0  0
  -27.5940   -9.3469   20.6449 C   0  0  0  0  0  0  0  0  0  0  0  0
  -28.1512  -16.9592   22.4848 C   0  0  0  0  0  0  0  0  0  0  0  0
  -26.9656  -31.6286   21.0961 C   0  0  0  0  0  0  0  0  0  0  0  0
  -24.1507  -32.2215   22.5951 C   0  0  0  0  0  0  0  0  0  0  0  0
  -21.1929  -31.0087   23.7899 C   0  0  0  0  0  0  0  0  0  0  0  0
  -30.5814  -34.3402   18.7232 C   0  0  0  0  0  0  0  0  0  0  0  0
  -25.3161  -30.5860   19.4999 C   0  0  0  0  0  0  0  0  0  0  0  0
  -24.7831  -29.7970   22.2996 C   0  0  0  0  0  0  0  0  0  0  0  0
  -29.5383  -34.6200   19.8021 C   0  0  0  0  0  0  0  0  0  0  0  0
  -25.5150  -16.4356   19.9932 C   0  0  0  0  0  0  0  0  0  0  0  0
  -29.5860  -33.5443   20.8825 C   0  0  0  0  0  0  0  0  0  0  0  0
  -25.3748  -14.9161   20.0290 C   0  0  0  0  0  0  0  0  0  0  0  0
  -25.8569  -17.0107   21.3669 C   0  0  0  0  0  0  0  0  0  0  0  0
  -26.9237  -14.8727   22.0238 C   0  0  0  0  0  0  0  0  0  0  0  0
  -29.2618  -32.1631   20.3006 C   0  0  1  0  0  0  0  0  0  0  0  0
  -25.5295  -31.5522   20.6611 C   0  0  1  0  0  0  0  0  0  0  0  0
  -26.6261  -14.2683   20.6427 C   0  0  1  0  0  0  0  0  0  0  0  0
  -30.3899  -25.2466   20.7647 C   0  0  0  0  0  0  0  0  0  0  0  0
  -19.1143  -31.7261   24.9991 C   0  0  0  0  0  0  0  0  0  0  0  0
  -25.7087  -32.3073   25.2172 C   0  0  0  0  0  0  0  0  0  0  0  0
  -23.5345  -32.0710   26.4360 C   0  0  0  0  0  0  0  0  0  0  0  0
  -23.9439  -34.0652   24.9943 C   0  0  0  0  0  0  0  0  0  0  0  0
  -19.4630  -30.2297   21.5184 C   0  0  0  0  0  0  0  0  0  0  0  0
  -30.2280  -24.7252   22.1895 C   0  0  0  0  0  0  0  0  0  0  0  0
  -25.8599  -24.8321   22.3491 C   0  0  0  0  0  0  0  0  0  1  0  0
  -26.5458  -23.4799   22.3782 C   0  0  0  0  0  0  0  0  0  0  0  0
  -23.5352  -31.8168   23.9128 C   0  0  1  0  0  0  0  0  0  0  0  0
  -19.7667  -31.5076   23.6429 C   0  0  2  0  0  0  0  0  0  0  0  0
  -24.1885  -32.5457   25.1208 C   0  0  0  0  0  0  0  0  0  0  0  0
  -25.2952  -12.2057   20.8826 N   0  0  0  0  0  0  0  0  0  0  0  0
  -26.5075  -12.7564   20.7007 N   0  0  0  0  0  0  0  0  0  0  0  0
  -27.0216  -16.3352   21.9585 N   0  0  0  0  0  0  0  0  0  0  0  0
  -24.7433  -31.1965   21.8441 N   0  0  0  0  0  0  0  0  0  0  0  0
  -28.7966  -12.2270   20.3997 N   0  0  0  0  0  0  0  0  0  0  0  0
  -26.8324   -8.1783   20.7819 N   0  0  0  0  0  0  0  0  0  0  0  0
  -27.8358  -32.0223   20.0975 N   0  0  0  0  0  0  0  0  0  0  0  0
  -22.1005  -32.0467   23.7809 N   0  0  0  0  0  0  0  0  0  0  0  0
  -18.9489  -30.5216   22.8813 N   0  3  0  0  0  0  0  0  0  0  0  0
  -28.8359   -9.2561   20.4932 O   0  0  0  0  0  0  0  0  0  0  0  0
  -29.1149  -16.3684   22.9756 O   0  0  0  0  0  0  0  0  0  0  0  0
  -27.2621  -31.3524   22.2526 O   0  0  0  0  0  0  0  0  0  0  0  0
  -24.1010  -33.4023   22.2417 O   0  0  0  0  0  0  0  0  0  0  0  0
  -21.4733  -29.8177   23.9051 O   0  0  0  0  0  0  0  0  0  0  0  0
  -21.4004   -7.2128   21.5537 O   0  0  0  0  0  0  0  0  0  0  0  0
  -25.4694  -25.1279   21.0088 O   0  0  0  0  0  0  0  0  0  1  0  0
  -27.7076  -23.5306   21.5590 O   0  0  0  0  0  0  0  0  0  0  0  0
  -22.2299   -3.0167   25.0334 F   0  0  0  0  0  0  0  0  0  0  0  0
  -19.7705   -6.8546   23.7577 F   0  0  0  0  0  0  0  0  0  0  0  0
  1  2  1  0  0  0  0
  1  6  2  0  0  0  0
  2  7  2  0  0  0  0
  3 10  2  0  0  0  0
  3 18  1  0  0  0  0
  4 11  1  0  0  0  0
  4 18  2  0  0  0  0
  5  9  2  0  0  0  0
  5 19  1  0  0  0  0
  6 21  1  0  0  0  0
  7 23  1  0  0  0  0
  8 12  2  0  0  0  0
  8 22  1  0  0  0  0
  9 25  1  0  0  0  0
 10 26  1  0  0  0  0
 11 26  2  0  0  0  0
 12 27  1  0  0  0  0
 13 14  2  0  0  0  0
 13 28  1  0  0  0  0
 14 30  1  0  0  0  0
 15 19  2  0  0  0  0
 15 29  1  0  0  0  0
 16 24  1  0  0  0  0
 16 27  2  0  0  0  0
 17 30  2  0  0  0  0
 17 31  1  0  0  0  0
 18 32  1  0  0  0  0
 19 34  1  0  0  0  0
 20 32  1  0  0  0  0
 20 33  2  0  0  0  0
 20 36  1  0  0  0  0
 21 23  2  0  0  0  0
 21 41  1  0  0  0  0
 22 24  2  0  0  0  0
 22 42  1  0  0  0  0
 23 50  1  0  0  0  0
 24 43  1  0  0  0  0
 25 29  2  0  0  0  0
 25 59  1  0  0  0  0
 26 79  1  0  0  0  0
 27 80  1  0  0  0  0
 28 31  2  0  0  0  0
 28 79  1  0  0  0  0
 29 81  1  0  0  0  0
 30 82  1  0  0  0  0
 31 83  1  0  0  0  0
 32 65  2  0  0  0  0
 33 66  1  0  0  0  0
 33 69  1  0  0  0  0
 34 35  2  0  0  0  0
 35 37  1  0  0  0  0
 36 70  1  0  0  0  0
 36 74  2  0  0  0  0
 37 67  1  0  0  0  0
 37 75  2  0  0  0  0
 38 51  1  0  0  0  0
 38 71  1  0  0  0  0
 38 76  2  0  0  0  0
 39 62  1  0  0  0  0
 39 68  1  0  0  0  0
 39 77  2  0  0  0  0
 40 63  1  0  0  0  0
 40 72  1  0  0  0  0
 40 78  2  0  0  0  0
 41 44  1  0  0  0  0
 42 51  1  0  0  0  0
 43 68  1  0  0  0  0
 44 46  1  0  0  0  0
 45 47  1  0  0  0  0
 45 48  1  0  0  0  0
 46 50  1  0  0  0  0
 47 52  1  0  0  0  0
 48 67  1  0  0  0  0
 49 52  1  0  0  0  0
 49 67  1  0  0  0  0
 50 71  1  0  0  0  0
 51 68  1  0  0  0  0
 52 66  1  0  0  0  0
 53 59  1  0  0  0  0
 54 63  1  0  0  0  0
 55 64  1  0  0  0  0
 56 64  1  0  0  0  0
 57 64  1  0  0  0  0
 58 73  1  0  0  0  0
 60 61  1  0  0  0  0
 60 80  1  0  0  0  0
 61 81  1  0  0  0  0
 62 64  1  0  0  0  0
 62 72  1  0  0  0  0
 63 73  1  0  0  0  0
 65 66  1  0  0  0  0
M  CHG  1  73   1
M  ISO  4  35 100  37 100  60 101  80 101
M  END
> <Batch ID>
0129

> <Smiles>
CCc1ccc(C=[100CH:0][100C:0](=O)N2CCCC(n3nc(-c4ccc(Oc5ccc(F)cc5F)cc4)c(C(N)=O)c3N)C2)cc1OC[101CH2:1][101O:1]c1ccc2c(c1)CN(C(=O)C(NC(=O)C(C)NC)C(C)(C)C)C(C(=O)NC1CCCc3ccccc31)C2

> <Shape>
0.239

> <Color>
0.090

> <Negative vol penalty>
0.000

$$$$

  -OEChem-04052302193D

 86 94  0     1  0  0  0  0  0999 V2000
  -27.3224  -36.9728   24.2666 C   0  0  0  0  0  0  0  0  0  0  0  0
  -27.8977  -35.8598   23.6620 C   0  0  0  0  0  0  0  0  0  0  0  0
  -25.2933   -7.1072   22.8166 C   0  0  0  0  0  0  0  0  0  0  0  0
  -23.2819   -7.4040   24.1217 C   0  0  0  0  0  0  0  0  0  0  0  0
  -25.5038  -20.0998   18.5544 C   0  0  0  0  0  0  0  0  0  0  0  0
  -25.4076  -18.7352   18.8267 C   0  0  0  0  0  0  0  0  0  0  0  0
  -26.1649  -36.8294   25.0306 C   0  0  0  0  0  0  0  0  0  0  0  0
  -27.3164  -34.6024   23.8220 C   0  0  0  0  0  0  0  0  0  0  0  0
  -27.1280  -30.0818   19.6947 C   0  0  0  0  0  0  0  0  0  0  0  0
  -25.7778   -6.2091   23.7674 C   0  0  0  0  0  0  0  0  0  0  0  0
  -23.7664   -6.5058   25.0726 C   0  0  0  0  0  0  0  0  0  0  0  0
  -27.9059  -28.9381   19.5200 C   0  0  0  0  0  0  0  0  0  0  0  0
  -25.3025   -2.9670   24.6014 C   0  0  0  0  0  0  0  0  0  0  0  0
  -25.8759   -1.7819   24.1407 C   0  0  0  0  0  0  0  0  0  0  0  0
  -27.9136  -19.9277   18.5428 C   0  0  0  0  0  0  0  0  0  0  0  0
  -26.2721  -27.6480   20.7389 C   0  0  0  0  0  0  0  0  0  0  0  0
  -27.9599   -2.3747   25.2096 C   0  0  0  0  0  0  0  0  0  0  0  0
  -24.0453   -7.7047   22.9937 C   0  0  0  0  0  0  0  0  0  0  0  0
  -26.7568  -20.6961   18.4124 C   0  0  0  0  0  0  0  0  0  0  0  0
  -26.5644  -17.9668   18.9571 C   0  0  0  0  0  0  0  0  0  0  0  0
  -22.7647   -8.3334   20.8789 C   0  0  0  0  0  0  0  0  0  0  0  0
  -25.5637  -35.5711   25.1920 C   0  0  0  0  0  0  0  0  0  0  0  0
  -25.9196  -30.0193   20.4033 C   0  0  0  0  0  0  0  0  0  0  0  0
  -26.1506  -34.4418   24.5899 C   0  0  0  0  0  0  0  0  0  0  0  0
  -25.4794  -28.7918   20.9189 C   0  0  0  0  0  0  0  0  0  0  0  0
  -27.8175  -18.5631   18.8151 C   0  0  0  0  0  0  0  0  0  0  0  0
  -25.0144   -5.9084   24.8955 C   0  0  0  0  0  0  0  0  0  0  0  0
  -27.4795  -27.7215   20.0447 C   0  0  0  0  0  0  0  0  0  0  0  0
  -26.0578   -3.8561   25.3661 C   0  0  0  0  0  0  0  0  0  0  0  0
  -27.2046   -1.4857   24.4449 C   0  0  0  0  0  0  0  0  0  0  0  0
  -27.3865   -3.5599   25.6703 C   0  0  0  0  0  0  0  0  0  0  0  0
  -23.5445   -8.6330   22.0121 C   0  0  0  0  0  0  0  0  0  0  0  0
  -22.5525   -9.5496   20.2769 C   0  0  0  0  0  0  0  0  0  0  0  0
  -26.8574  -22.1380   18.1256 C   0  0  0  0  0  0  0  0  0  0  0  0
  -26.4311  -16.5441   19.2412 C   0  0  0  0  0  0  0  0  0  0  0  0
  -27.9506  -22.8828   18.3421 C   0  0  0  0  0  0  0  0  0  0  0  0
  -25.8112  -16.0175   20.3170 C   0  0  0  0  0  0  0  0  0  0  0  0
  -22.2759   -7.0690   20.4122 C   0  0  0  0  0  0  0  0  0  0  0  0
  -27.9474  -24.3424   18.0258 C   0  0  0  0  0  0  0  0  0  0  0  0
  -25.7504  -14.5489   20.4593 C   0  0  0  0  0  0  0  0  0  0  0  0
  -24.8080  -31.3558   23.0645 C   0  0  0  0  0  0  0  0  0  0  0  0
  -22.0437  -29.9128   22.1708 C   0  0  0  0  0  0  0  0  0  0  0  0
  -20.5136  -27.4200   20.4125 C   0  0  0  0  0  0  0  0  0  0  0  0
  -24.3398  -35.4581   26.0660 C   0  0  0  0  0  0  0  0  0  0  0  0
  -25.0789  -31.2567   20.5599 C   0  0  0  0  0  0  0  0  0  0  0  0
  -24.1799  -28.6674   21.6700 C   0  0  0  0  0  0  0  0  0  0  0  0
  -23.5753  -34.1504   25.8774 C   0  0  0  0  0  0  0  0  0  0  0  0
  -22.1875  -14.2060   21.2464 C   0  0  0  0  0  0  0  0  0  0  0  0
  -24.5361  -32.9655   25.8782 C   0  0  0  0  0  0  0  0  0  0  0  0
  -22.0807  -12.7005   21.4745 C   0  0  0  0  0  0  0  0  0  0  0  0
  -23.5343  -14.7601   21.7085 C   0  0  0  0  0  0  0  0  0  0  0  0
  -24.5984  -12.5538   21.3341 C   0  0  0  0  0  0  0  0  0  0  0  0
  -25.5357  -33.0651   24.7196 C   0  0  1  0  0  0  0  0  0  0  0  0
  -24.1172  -31.1800   21.7418 C   0  0  1  0  0  0  0  0  0  0  0  0
  -23.2694  -11.9672   20.8332 C   0  0  1  0  0  0  0  0  0  0  0  0
  -29.4187  -17.4702   20.4051 C   0  0  0  0  0  0  0  0  0  0  0  0
  -18.2458  -26.4730   19.9051 C   0  0  0  0  0  0  0  0  0  0  0  0
  -21.9554  -28.6443   24.9444 C   0  0  0  0  0  0  0  0  0  0  0  0
  -20.2605  -27.0213   24.0718 C   0  0  0  0  0  0  0  0  0  0  0  0
  -19.7479  -29.4624   24.1007 C   0  0  0  0  0  0  0  0  0  0  0  0
  -20.8198  -27.9336   17.5140 C   0  0  0  0  0  0  0  0  0  0  0  0
  -29.0783  -17.7709   18.9492 C   0  0  0  0  0  0  0  0  0  0  0  0
  -29.2487  -25.0741   18.3170 C   0  0  0  0  0  0  0  0  0  0  0  0
  -29.0361  -26.5325   18.6960 C   0  0  0  0  0  0  0  0  0  1  0  0
  -21.4115  -28.5651   22.4217 C   0  0  1  0  0  0  0  0  0  0  0  0
  -19.3327  -27.4385   19.4588 C   0  0  2  0  0  0  0  0  0  0  0  0
  -20.8693  -28.4257   23.8722 C   0  0  0  0  0  0  0  0  0  0  0  0
  -23.8098   -9.9371   22.1254 N   0  0  0  0  0  0  0  0  0  0  0  0
  -23.1934  -10.4678   21.0556 N   0  0  0  0  0  0  0  0  0  0  0  0
  -24.6548  -14.0053   21.1276 N   0  0  0  0  0  0  0  0  0  0  0  0
  -23.3964  -29.9068   21.8023 N   0  0  0  0  0  0  0  0  0  0  0  0
  -21.8822   -9.9124   19.1627 N   0  0  0  0  0  0  0  0  0  0  0  0
  -22.5862   -5.9189   21.1506 N   0  0  0  0  0  0  0  0  0  0  0  0
  -24.9090  -32.6710   23.4761 N   0  0  0  0  0  0  0  0  0  0  0  0
  -20.3992  -28.3898   21.3860 N   0  0  0  0  0  0  0  0  0  0  0  0
  -19.7689  -27.0535   18.0868 N   0  3  0  0  0  0  0  0  0  0  0  0
  -21.5981   -6.9601   19.3623 O   0  0  0  0  0  0  0  0  0  0  0  0
  -26.9569  -24.9006   17.5620 O   0  0  0  0  0  0  0  0  0  0  0  0
  -26.6774  -13.8925   19.9813 O   0  0  0  0  0  0  0  0  0  0  0  0
  -25.2176  -30.3709   23.6678 O   0  0  0  0  0  0  0  0  0  0  0  0
  -21.3604  -30.9329   22.2901 O   0  0  0  0  0  0  0  0  0  0  0  0
  -21.4427  -26.6224   20.3069 O   0  0  0  0  0  0  0  0  0  0  0  0
  -25.4868   -5.0319   25.8234 O   0  0  0  0  0  0  0  0  0  0  0  0
  -28.2372  -26.6038   19.8762 O   0  0  0  0  0  0  0  0  0  1  0  0
  -27.7547   -0.3468   24.0037 F   0  0  0  0  0  0  0  0  0  0  0  0
  -28.1168   -4.4095   26.4055 F   0  0  0  0  0  0  0  0  0  0  0  0
  1  2  1  0  0  0  0
  1  7  2  0  0  0  0
  2  8  2  0  0  0  0
  3 10  2  0  0  0  0
  3 18  1  0  0  0  0
  4 11  1  0  0  0  0
  4 18  2  0  0  0  0
  5  6  2  0  0  0  0
  5 19  1  0  0  0  0
  6 20  1  0  0  0  0
  7 22  1  0  0  0  0
  8 24  1  0  0  0  0
  9 12  2  0  0  0  0
  9 23  1  0  0  0  0
 10 27  1  0  0  0  0
 11 27  2  0  0  0  0
 12 28  1  0  0  0  0
 13 14  2  0  0  0  0
 13 29  1  0  0  0  0
 14 30  1  0  0  0  0
 15 19  2  0  0  0  0
 15 26  1  0  0  0  0
 16 25  1  0  0  0  0
 16 28  2  0  0  0  0
 17 30  2  0  0  0  0
 17 31  1  0  0  0  0
 18 32  1  0  0  0  0
 19 34  1  0  0  0  0
 20 26  2  0  0  0  0
 20 35  1  0  0  0  0
 21 32  1  0  0  0  0
 21 33  2  0  0  0  0
 21 38  1  0  0  0  0
 22 24  2  0  0  0  0
 22 44  1  0  0  0  0
 23 25  2  0  0  0  0
 23 45  1  0  0  0  0
 24 53  1  0  0  0  0
 25 46  1  0  0  0  0
 26 62  1  0  0  0  0
 27 83  1  0  0  0  0
 28 84  1  0  0  0  0
 29 31  2  0  0  0  0
 29 83  1  0  0  0  0
 30 85  1  0  0  0  0
 31 86  1  0  0  0  0
 32 68  2  0  0  0  0
 33 69  1  0  0  0  0
 33 72  1  0  0  0  0
 34 36  2  0  0  0  0
 35 37  2  0  0  0  0
 36 39  1  0  0  0  0
 37 40  1  0  0  0  0
 38 73  1  0  0  0  0
 38 77  2  0  0  0  0
 39 63  1  0  0  0  0
 39 78  2  0  0  0  0
 40 70  1  0  0  0  0
 40 79  2  0  0  0  0
 41 54  1  0  0  0  0
 41 74  1  0  0  0  0
 41 80  2  0  0  0  0
 42 65  1  0  0  0  0
 42 71  1  0  0  0  0
 42 81  2  0  0  0  0
 43 66  1  0  0  0  0
 43 75  1  0  0  0  0
 43 82  2  0  0  0  0
 44 47  1  0  0  0  0
 45 54  1  0  0  0  0
 46 71  1  0  0  0  0
 47 49  1  0  0  0  0
 48 50  1  0  0  0  0
 48 51  1  0  0  0  0
 49 53  1  0  0  0  0
 50 55  1  0  0  0  0
 51 70  1  0  0  0  0
 52 55  1  0  0  0  0
 52 70  1  0  0  0  0
 53 74  1  0  0  0  0
 54 71  1  0  0  0  0
 55 69  1  0  0  0  0
 56 62  1  0  0  0  0
 57 66  1  0  0  0  0
 58 67  1  0  0  0  0
 59 67  1  0  0  0  0
 60 67  1  0  0  0  0
 61 76  1  0  0  0  0
 63 64  1  0  0  0  0
 64 84  1  0  0  0  0
 65 67  1  0  0  0  0
 65 75  1  0  0  0  0
 66 76  1  0  0  0  0
 68 69  1  0  0  0  0
M  CHG  1  76   1
M  ISO  4  37 100  40 100  64 101  84 101
M  END
> <Batch ID>
0129

> <Smiles>
CCc1cc(C=CC(=O)C[101CH2:1][101O:1]c2ccc3c(c2)CN(C(=O)C(NC(=O)C(C)NC)C(C)(C)C)C(C(=O)NC2CCCc4ccccc42)C3)ccc1C=[100CH:0][100C:0](=O)N1CCCC(n2nc(-c3ccc(Oc4ccc(F)cc4F)cc3)c(C(N)=O)c2N)C1

> <Shape>
0.301

> <Color>
0.068

> <Negative vol penalty>
0.000

$$$$

  -OEChem-04052302193D

 85 93  0     1  0  0  0  0  0999 V2000
  -18.2739  -12.8122   29.9472 C   0  0  0  0  0  0  0  0  0  0  0  0
  -19.5464  -13.2859   29.6445 C   0  0  0  0  0  0  0  0  0  0  0  0
  -23.0755   -9.8686   19.9406 C   0  0  0  0  0  0  0  0  0  0  0  0
  -23.8351   -9.8750   22.2340 C   0  0  0  0  0  0  0  0  0  0  0  0
  -17.2087  -13.7042   30.0635 C   0  0  0  0  0  0  0  0  0  0  0  0
  -19.7543  -14.6519   29.4569 C   0  0  0  0  0  0  0  0  0  0  0  0
  -24.7497  -17.8572   30.9660 C   0  0  0  0  0  0  0  0  0  0  0  0
  -22.3311   -8.7157   20.1903 C   0  0  0  0  0  0  0  0  0  0  0  0
  -23.0907   -8.7221   22.4838 C   0  0  0  0  0  0  0  0  0  0  0  0
  -25.8470  -18.2893   30.2224 C   0  0  0  0  0  0  0  0  0  0  0  0
  -19.8622   -7.9255   23.0859 C   0  0  0  0  0  0  0  0  0  0  0  0
  -19.1051   -7.8857   24.2567 C   0  0  0  0  0  0  0  0  0  0  0  0
  -24.7861  -20.4338   29.9145 C   0  0  0  0  0  0  0  0  0  0  0  0
  -31.8962  -18.3423   24.1894 C   0  0  0  0  0  0  0  0  0  0  0  0
  -32.0668  -16.5896   22.5353 C   0  0  0  0  0  0  0  0  0  0  0  0
  -20.3457   -5.9477   24.9930 C   0  0  0  0  0  0  0  0  0  0  0  0
  -23.8275  -10.4482   20.9624 C   0  0  0  0  0  0  0  0  0  0  0  0
  -24.1704  -12.9733   20.8428 C   0  0  0  0  0  0  0  0  0  0  0  0
  -17.4054  -15.0828   29.8867 C   0  0  0  0  0  0  0  0  0  0  0  0
  -23.6558  -18.7078   31.1806 C   0  0  0  0  0  0  0  0  0  0  0  0
  -18.6904  -15.5630   29.5696 C   0  0  0  0  0  0  0  0  0  0  0  0
  -23.6773  -20.0109   30.6634 C   0  0  0  0  0  0  0  0  0  0  0  0
  -30.5086  -18.3416   24.0470 C   0  0  0  0  0  0  0  0  0  0  0  0
  -29.9002  -17.4649   23.1488 C   0  0  0  0  0  0  0  0  0  0  0  0
  -30.6792  -16.5889   22.3929 C   0  0  0  0  0  0  0  0  0  0  0  0
  -22.3387   -8.1425   21.4619 C   0  0  0  0  0  0  0  0  0  0  0  0
  -25.8641  -19.5768   29.6940 C   0  0  0  0  0  0  0  0  0  0  0  0
  -20.8610   -6.9763   22.8686 C   0  0  0  0  0  0  0  0  0  0  0  0
  -19.3469   -6.8968   25.2103 C   0  0  0  0  0  0  0  0  0  0  0  0
  -32.6753  -17.4663   23.4335 C   0  0  0  0  0  0  0  0  0  0  0  0
  -21.1028   -5.9874   23.8222 C   0  0  0  0  0  0  0  0  0  0  0  0
  -24.5971  -11.6388   20.7049 C   0  0  0  0  0  0  0  0  0  0  0  0
  -25.2629  -13.7224   20.4797 C   0  0  0  0  0  0  0  0  0  0  0  0
  -22.9001  -13.4895   21.2617 C   0  0  0  0  0  0  0  0  0  0  0  0
  -20.5696  -18.6277   30.4236 C   0  0  0  0  0  0  0  0  0  0  0  0
  -28.2496  -19.6063   26.9717 C   0  0  0  0  0  0  0  0  0  0  0  0
  -20.4495  -21.2982   32.2611 C   0  0  0  0  0  0  0  0  0  0  0  0
  -22.0967  -23.9711   33.5987 C   0  0  0  0  0  0  0  0  0  0  0  0
  -30.7294  -14.7657   20.6551 C   0  0  0  0  0  0  0  0  0  0  0  0
  -16.2141  -16.0034   29.9758 C   0  0  0  0  0  0  0  0  0  0  0  0
  -22.4915  -18.2356   32.0075 C   0  0  0  0  0  0  0  0  0  0  0  0
  -22.5368  -20.9700   30.8823 C   0  0  0  0  0  0  0  0  0  0  0  0
  -16.5914  -17.4744   30.1314 C   0  0  0  0  0  0  0  0  0  0  0  0
  -29.6143  -12.3527   18.2864 C   0  0  0  0  0  0  0  0  0  0  0  0
  -17.6841  -17.8534   29.1368 C   0  0  0  0  0  0  0  0  0  0  0  0
  -28.1745  -12.0616   18.7158 C   0  0  0  0  0  0  0  0  0  0  0  0
  -30.5294  -12.5810   19.4882 C   0  0  0  0  0  0  0  0  0  0  0  0
  -28.6226  -13.3060   20.8693 C   0  0  0  0  0  0  0  0  0  0  0  0
  -18.9606  -17.0403   29.3833 C   0  0  1  0  0  0  0  0  0  0  0  0
  -21.2074  -19.0108   31.7290 C   0  0  1  0  0  0  0  0  0  0  0  0
  -27.6498  -13.1333   19.6914 C   0  0  2  0  0  0  0  0  0  0  0  0
  -27.9612  -18.1844   21.7313 C   0  0  0  0  0  0  0  0  0  0  0  0
  -21.7246  -26.0011   35.0264 C   0  0  0  0  0  0  0  0  0  0  0  0
  -19.1165  -22.7074   29.9058 C   0  0  0  0  0  0  0  0  0  0  0  0
  -19.6335  -24.8936   31.0111 C   0  0  0  0  0  0  0  0  0  0  0  0
  -18.1326  -23.2515   32.1397 C   0  0  0  0  0  0  0  0  0  0  0  0
  -24.0052  -23.0203   35.6511 C   0  0  0  0  0  0  0  0  0  0  0  0
  -29.6890  -19.2987   24.8789 C   0  0  0  0  0  0  0  0  0  0  0  0
  -28.4109  -17.4674   22.9993 C   0  0  0  0  0  0  0  0  0  0  0  0
  -29.0319  -18.6405   26.0936 C   0  0  0  0  0  0  0  0  0  0  0  0
  -27.6529  -19.0117   28.2323 C   0  0  0  0  0  0  0  0  0  1  0  0
  -20.6126  -22.7777   32.0089 C   0  0  1  0  0  0  0  0  0  0  0  0
  -22.1254  -24.5342   35.0082 C   0  0  2  0  0  0  0  0  0  0  0  0
  -19.3946  -23.3891   31.2604 C   0  0  0  0  0  0  0  0  0  0  0  0
  -25.8620  -11.5426   20.2868 N   0  0  0  0  0  0  0  0  0  0  0  0
  -26.2394  -12.8260   20.1586 N   0  0  0  0  0  0  0  0  0  0  0  0
  -21.4184  -20.4594   31.6923 N   0  0  0  0  0  0  0  0  0  0  0  0
  -29.9707  -13.6119   20.3656 N   0  0  0  0  0  0  0  0  0  0  0  0
  -25.4738  -15.0537   20.4069 N   0  0  0  0  0  0  0  0  0  0  0  0
  -21.8877  -12.5807   21.5987 N   0  0  0  0  0  0  0  0  0  0  0  0
  -30.0824  -15.6909   21.4736 N   0  0  0  0  0  0  0  0  0  0  0  0
  -19.6857  -17.5698   30.5184 N   0  0  0  0  0  0  0  0  0  0  0  0
  -20.8827  -23.3857   33.3072 N   0  0  0  0  0  0  0  0  0  0  0  0
  -23.4936  -24.4136   35.5864 N   0  3  0  0  0  0  0  0  0  0  0  0
  -22.6643  -14.7202   21.3191 O   0  0  0  0  0  0  0  0  0  0  0  0
  -20.8570  -19.2470   29.4060 O   0  0  0  0  0  0  0  0  0  0  0  0
  -28.1336  -20.8009   26.7032 O   0  0  0  0  0  0  0  0  0  0  0  0
  -19.5016  -20.9020   32.9438 O   0  0  0  0  0  0  0  0  0  0  0  0
  -23.0540  -24.0466   32.8316 O   0  0  0  0  0  0  0  0  0  0  0  0
  -31.8587  -14.9341   20.1876 O   0  0  0  0  0  0  0  0  0  0  0  0
  -21.6123   -7.0176   21.7060 O   0  0  0  0  0  0  0  0  0  0  0  0
  -26.9335  -20.0010   28.9673 O   0  0  0  0  0  0  0  0  0  1  0  0
  -18.6208   -6.8597   26.3353 F   0  0  0  0  0  0  0  0  0  0  0  0
  -34.0080  -17.4684   23.5685 F   0  0  0  0  0  0  0  0  0  0  0  0
  -22.0617   -5.0736   23.6195 F   0  0  0  0  0  0  0  0  0  0  0  0
  1  2  1  0  0  0  0
  1  5  2  0  0  0  0
  2  6  2  0  0  0  0
  3  8  2  0  0  0  0
  3 17  1  0  0  0  0
  4  9  1  0  0  0  0
  4 17  2  0  0  0  0
  5 19  1  0  0  0  0
  6 21  1  0  0  0  0
  7 10  2  0  0  0  0
  7 20  1  0  0  0  0
  8 26  1  0  0  0  0
  9 26  2  0  0  0  0
 10 27  1  0  0  0  0
 11 12  2  0  0  0  0
 11 28  1  0  0  0  0
 12 29  1  0  0  0  0
 13 22  1  0  0  0  0
 13 27  2  0  0  0  0
 14 23  2  0  0  0  0
 14 30  1  0  0  0  0
 15 25  1  0  0  0  0
 15 30  2  0  0  0  0
 16 29  2  0  0  0  0
 16 31  1  0  0  0  0
 17 32  1  0  0  0  0
 18 32  1  0  0  0  0
 18 33  2  0  0  0  0
 18 34  1  0  0  0  0
 19 21  2  0  0  0  0
 19 40  1  0  0  0  0
 20 22  2  0  0  0  0
 20 41  1  0  0  0  0
 21 49  1  0  0  0  0
 22 42  1  0  0  0  0
 23 24  1  0  0  0  0
 23 58  1  0  0  0  0
 24 25  2  0  0  0  0
 24 59  1  0  0  0  0
 25 71  1  0  0  0  0
 26 81  1  0  0  0  0
 27 82  1  0  0  0  0
 28 31  2  0  0  0  0
 28 81  1  0  0  0  0
 29 83  1  0  0  0  0
 30 84  1  0  0  0  0
 31 85  1  0  0  0  0
 32 65  2  0  0  0  0
 33 66  1  0  0  0  0
 33 69  1  0  0  0  0
 34 70  1  0  0  0  0
 34 75  2  0  0  0  0
 35 50  1  0  0  0  0
 35 72  1  0  0  0  0
 35 76  2  0  0  0  0
 36 60  1  0  0  0  0
 36 61  1  0  0  0  0
 36 77  2  0  0  0  0
 37 62  1  0  0  0  0
 37 67  1  0  0  0  0
 37 78  2  0  0  0  0
 38 63  1  0  0  0  0
 38 73  1  0  0  0  0
 38 79  2  0  0  0  0
 39 68  1  0  0  0  0
 39 71  1  0  0  0  0
 39 80  2  0  0  0  0
 40 43  1  0  0  0  0
 41 50  1  0  0  0  0
 42 67  1  0  0  0  0
 43 45  1  0  0  0  0
 44 46  1  0  0  0  0
 44 47  1  0  0  0  0
 45 49  1  0  0  0  0
 46 51  1  0  0  0  0
 47 68  1  0  0  0  0
 48 51  1  0  0  0  0
 48 68  1  0  0  0  0
 49 72  1  0  0  0  0
 50 67  1  0  0  0  0
 51 66  1  0  0  0  0
 52 59  1  0  0  0  0
 53 63  1  0  0  0  0
 54 64  1  0  0  0  0
 55 64  1  0  0  0  0
 56 64  1  0  0  0  0
 57 74  1  0  0  0  0
 58 60  1  0  0  0  0
 61 82  1  0  0  0  0
 62 64  1  0  0  0  0
 62 73  1  0  0  0  0
 63 74  1  0  0  0  0
 65 66  1  0  0  0  0
M  CHG  1  74   1
M  ISO  4  39 100  61 101  71 100  82 101
M  END
> <Batch ID>
0129

> <Smiles>
CCc1c(CCC(=O)[101CH2:1][101O:1]c2ccc3c(c2)CN(C(=O)C(NC(=O)C(C)NC)C(C)(C)C)C(C(=O)NC2CCCc4ccccc42)C3)cc(F)cc1[100NH:0][100C:0](=O)N1CCCC(n2nc(-c3ccc(Oc4ccc(F)cc4F)cc3)c(C(N)=O)c2N)C1

> <Shape>
0.169

> <Color>
0.191

> <Negative vol penalty>
0.000

$$$$

  -OEChem-04052302193D

 84 92  0     1  0  0  0  0  0999 V2000
  -33.2495  -28.3029   17.7956 C   0  0  0  0  0  0  0  0  0  0  0  0
  -32.0297  -28.2189   18.4594 C   0  0  0  0  0  0  0  0  0  0  0  0
  -18.7093  -27.2888   23.5785 C   0  0  0  0  0  0  0  0  0  0  0  0
  -23.7995  -14.8142   19.7025 C   0  0  0  0  0  0  0  0  0  0  0  0
  -23.0014  -13.6063   21.6367 C   0  0  0  0  0  0  0  0  0  0  0  0
  -18.8279  -26.0054   23.0452 C   0  0  0  0  0  0  0  0  0  0  0  0
  -33.7011  -27.2281   17.0310 C   0  0  0  0  0  0  0  0  0  0  0  0
  -31.2604  -27.0603   18.3581 C   0  0  0  0  0  0  0  0  0  0  0  0
  -29.4041  -25.5640   22.8258 C   0  0  0  0  0  0  0  0  0  0  0  0
  -19.4871  -28.3296   23.0709 C   0  0  0  0  0  0  0  0  0  0  0  0
  -24.8742  -13.9316   19.5948 C   0  0  0  0  0  0  0  0  0  0  0  0
  -24.0761  -12.7236   21.5289 C   0  0  0  0  0  0  0  0  0  0  0  0
  -28.2936  -26.2499   23.3158 C   0  0  0  0  0  0  0  0  0  0  0  0
  -27.8674  -13.4577   21.0917 C   0  0  0  0  0  0  0  0  0  0  0  0
  -29.1312  -14.0016   20.8625 C   0  0  0  0  0  0  0  0  0  0  0  0
  -20.5021  -26.8034   21.4969 C   0  0  0  0  0  0  0  0  0  0  0  0
  -26.8606  -24.4703   22.5420 C   0  0  0  0  0  0  0  0  0  0  0  0
  -29.2925  -12.7566   18.7982 C   0  0  0  0  0  0  0  0  0  0  0  0
  -22.8631  -14.6516   20.7235 C   0  0  0  0  0  0  0  0  0  0  0  0
  -19.7243  -25.7627   22.0044 C   0  0  0  0  0  0  0  0  0  0  0  0
  -20.4861  -15.4381   20.2350 C   0  0  0  0  0  0  0  0  0  0  0  0
  -32.9415  -26.0521   16.9281 C   0  0  0  0  0  0  0  0  0  0  0  0
  -29.2498  -24.3292   22.1794 C   0  0  0  0  0  0  0  0  0  0  0  0
  -31.7017  -25.9692   17.5903 C   0  0  0  0  0  0  0  0  0  0  0  0
  -27.9710  -23.7696   22.0470 C   0  0  0  0  0  0  0  0  0  0  0  0
  -20.3835  -28.0869   22.0301 C   0  0  0  0  0  0  0  0  0  0  0  0
  -25.0125  -12.8863   20.5079 C   0  0  0  0  0  0  0  0  0  0  0  0
  -27.0213  -25.7045   23.1714 C   0  0  0  0  0  0  0  0  0  0  0  0
  -27.3161  -12.5632   20.1743 C   0  0  0  0  0  0  0  0  0  0  0  0
  -29.8438  -13.6511   19.7157 C   0  0  0  0  0  0  0  0  0  0  0  0
  -28.0287  -12.2127   19.0275 C   0  0  0  0  0  0  0  0  0  0  0  0
  -21.7531  -15.5633   20.8357 C   0  0  0  0  0  0  0  0  0  0  0  0
  -19.7984  -16.5528   20.6484 C   0  0  0  0  0  0  0  0  0  0  0  0
  -19.8486  -24.4240   21.4488 C   0  0  0  0  0  0  0  0  0  0  0  0
  -19.4689  -23.2832   22.0625 C   0  0  0  0  0  0  0  0  0  0  0  0
  -23.8725  -27.4117   23.1013 C   0  0  0  0  0  0  0  0  0  0  0  0
  -23.4272  -28.1301   22.0597 C   0  0  0  0  0  0  0  0  0  0  0  0
  -19.9764  -14.4064   19.3798 C   0  0  0  0  0  0  0  0  0  0  0  0
  -19.6520  -21.9968   21.3607 C   0  0  0  0  0  0  0  0  0  0  0  0
  -29.8586  -23.2351   19.2577 C   0  0  0  0  0  0  0  0  0  0  0  0
  -28.9902  -20.3952   20.5627 C   0  0  0  0  0  0  0  0  0  0  0  0
  -27.2581  -18.7289   22.9855 C   0  0  0  0  0  0  0  0  0  0  0  0
  -33.4489  -24.9345   16.0516 C   0  0  0  0  0  0  0  0  0  0  0  0
  -30.4605  -23.5893   21.6802 C   0  0  0  0  0  0  0  0  0  0  0  0
  -27.7537  -22.4373   21.3789 C   0  0  0  0  0  0  0  0  0  0  0  0
  -32.7493  -23.6005   16.2994 C   0  0  0  0  0  0  0  0  0  0  0  0
  -20.8909  -19.9942   24.1690 C   0  0  0  0  0  0  0  0  0  0  0  0
  -31.2378  -23.7945   16.3652 C   0  0  0  0  0  0  0  0  0  0  0  0
  -21.1657  -18.6603   23.4798 C   0  0  0  0  0  0  0  0  0  0  0  0
  -21.1660  -21.1813   23.2473 C   0  0  0  0  0  0  0  0  0  0  0  0
  -20.7117  -19.7743   21.2587 C   0  0  0  0  0  0  0  0  0  0  0  0
  -30.8503  -24.7199   17.5249 C   0  0  1  0  0  0  0  0  0  0  0  0
  -30.1343  -22.5815   20.5823 C   0  0  1  0  0  0  0  0  0  0  0  0
  -20.3966  -18.5647   22.1526 C   0  0  1  0  0  0  0  0  0  0  0  0
  -23.3407  -30.5719   21.6264 C   0  0  0  0  0  0  0  0  0  0  0  0
  -26.7065  -16.4103   23.7713 C   0  0  0  0  0  0  0  0  0  0  0  0
  -26.9904  -20.0990   18.2773 C   0  0  0  0  0  0  0  0  0  0  0  0
  -25.8475  -18.3082   19.6021 C   0  0  0  0  0  0  0  0  0  0  0  0
  -28.2129  -18.0000   18.8724 C   0  0  0  0  0  0  0  0  0  0  0  0
  -28.5544  -19.1838   25.6069 C   0  0  0  0  0  0  0  0  0  0  0  0
  -21.2246  -29.2146   21.4799 C   0  0  0  0  0  0  0  0  0  0  0  0
  -24.6998  -26.1761   22.9622 C   0  0  0  0  0  0  0  0  0  1  0  0
  -22.5798  -29.3732   22.1992 C   0  0  1  0  0  0  0  0  0  0  0  0
  -27.6902  -19.6441   20.7205 C   0  0  1  0  0  0  0  0  0  0  0  0
  -27.6571  -17.5897   23.9061 C   0  0  2  0  0  0  0  0  0  0  0  0
  -27.1888  -19.0388   19.3790 C   0  0  0  0  0  0  0  0  0  0  0  0
  -21.8663  -16.6703   21.5745 N   0  0  0  0  0  0  0  0  0  0  0  0
  -20.6617  -17.2510   21.4406 N   0  0  0  0  0  0  0  0  0  0  0  0
  -20.4659  -21.0383   21.9619 N   0  0  0  0  0  0  0  0  0  0  0  0
  -28.9682  -21.7555   20.9017 N   0  0  0  0  0  0  0  0  0  0  0  0
  -18.5455  -16.9942   20.4080 N   0  0  0  0  0  0  0  0  0  0  0  0
  -20.8162  -13.3325   19.0547 N   0  0  0  0  0  0  0  0  0  0  0  0
  -30.9031  -24.0044   18.7817 N   0  0  0  0  0  0  0  0  0  0  0  0
  -27.9129  -18.6597   21.7740 N   0  0  0  0  0  0  0  0  0  0  0  0
  -27.6455  -18.0428   25.3258 N   0  3  0  0  0  0  0  0  0  0  0  0
  -18.8162  -14.4442   18.9043 O   0  0  0  0  0  0  0  0  0  0  0  0
  -19.0761  -21.8511   20.2810 O   0  0  0  0  0  0  0  0  0  0  0  0
  -28.7787  -23.0537   18.7076 O   0  0  0  0  0  0  0  0  0  0  0  0
  -29.9902  -19.7953   20.1604 O   0  0  0  0  0  0  0  0  0  0  0  0
  -26.4440  -19.5915   23.3074 O   0  0  0  0  0  0  0  0  0  0  0  0
  -26.0610  -12.0248   20.4029 O   0  0  0  0  0  0  0  0  0  0  0  0
  -25.9356  -26.3721   23.6482 O   0  0  0  0  0  0  0  0  0  1  0  0
  -31.0567  -14.1746   19.4949 F   0  0  0  0  0  0  0  0  0  0  0  0
  -27.5038  -11.3548   18.1419 F   0  0  0  0  0  0  0  0  0  0  0  0
  1  2  1  0  0  0  0
  1  7  2  0  0  0  0
  2  8  2  0  0  0  0
  3  6  1  0  0  0  0
  3 10  2  0  0  0  0
  4 11  2  0  0  0  0
  4 19  1  0  0  0  0
  5 12  1  0  0  0  0
  5 19  2  0  0  0  0
  6 20  2  0  0  0  0
  7 22  1  0  0  0  0
  8 24  1  0  0  0  0
  9 13  2  0  0  0  0
  9 23  1  0  0  0  0
 10 26  1  0  0  0  0
 11 27  1  0  0  0  0
 12 27  2  0  0  0  0
 13 28  1  0  0  0  0
 14 15  2  0  0  0  0
 14 29  1  0  0  0  0
 15 30  1  0  0  0  0
 16 20  1  0  0  0  0
 16 26  2  0  0  0  0
 17 25  1  0  0  0  0
 17 28  2  0  0  0  0
 18 30  2  0  0  0  0
 18 31  1  0  0  0  0
 19 32  1  0  0  0  0
 20 34  1  0  0  0  0
 21 32  1  0  0  0  0
 21 33  2  0  0  0  0
 21 38  1  0  0  0  0
 22 24  2  0  0  0  0
 22 43  1  0  0  0  0
 23 25  2  0  0  0  0
 23 44  1  0  0  0  0
 24 52  1  0  0  0  0
 25 45  1  0  0  0  0
 26 61  1  0  0  0  0
 27 81  1  0  0  0  0
 28 82  1  0  0  0  0
 29 31  2  0  0  0  0
 29 81  1  0  0  0  0
 30 83  1  0  0  0  0
 31 84  1  0  0  0  0
 32 67  2  0  0  0  0
 33 68  1  0  0  0  0
 33 71  1  0  0  0  0
 34 35  2  0  0  0  0
 35 39  1  0  0  0  0
 36 37  2  0  0  0  0
 36 62  1  0  0  0  0
 37 63  1  0  0  0  0
 38 72  1  0  0  0  0
 38 76  2  0  0  0  0
 39 69  1  0  0  0  0
 39 77  2  0  0  0  0
 40 53  1  0  0  0  0
 40 73  1  0  0  0  0
 40 78  2  0  0  0  0
 41 64  1  0  0  0  0
 41 70  1  0  0  0  0
 41 79  2  0  0  0  0
 42 65  1  0  0  0  0
 42 74  1  0  0  0  0
 42 80  2  0  0  0  0
 43 46  1  0  0  0  0
 44 53  1  0  0  0  0
 45 70  1  0  0  0  0
 46 48  1  0  0  0  0
 47 49  1  0  0  0  0
 47 50  1  0  0  0  0
 48 52  1  0  0  0  0
 49 54  1  0  0  0  0
 50 69  1  0  0  0  0
 51 54  1  0  0  0  0
 51 69  1  0  0  0  0
 52 73  1  0  0  0  0
 53 70  1  0  0  0  0
 54 68  1  0  0  0  0
 55 63  1  0  0  0  0
 56 65  1  0  0  0  0
 57 66  1  0  0  0  0
 58 66  1  0  0  0  0
 59 66  1  0  0  0  0
 60 75  1  0  0  0  0
 61 63  1  0  0  0  0
 62 82  1  0  0  0  0
 64 66  1  0  0  0  0
 64 74  1  0  0  0  0
 65 75  1  0  0  0  0
 67 68  1  0  0  0  0
M  CHG  1  75   1
M  ISO  4  35 100  39 100  62 101  82 101
M  END
> <Batch ID>
0129

> <Smiles>
CNC(C)C(=O)NC(C(=O)N1Cc2cc([101O:1][101CH2:1]C=CC(C)Cc3cccc(C=[100CH:0][100C:0](=O)N4CCCC(n5nc(-c6ccc(Oc7ccc(F)cc7F)cc6)c(C(N)=O)c5N)C4)c3)ccc2CC1C(=O)NC1CCCc2ccccc21)C(C)(C)C

> <Shape>
0.219

> <Color>
0.071

> <Negative vol penalty>
0.000

$$$$

  -OEChem-04052302193D

 82 90  0     1  0  0  0  0  0999 V2000
  -26.8791  -23.5064   18.0791 C   0  0  0  0  0  0  0  0  0  0  0  0
  -25.7103  -24.1306   18.5029 C   0  0  0  0  0  0  0  0  0  0  0  0
  -25.6723  -13.6979   21.0399 C   0  0  0  0  0  0  0  0  0  0  0  0
  -25.8645  -13.6468   18.6321 C   0  0  0  0  0  0  0  0  0  0  0  0
  -20.9863  -25.2504   22.0754 C   0  0  0  0  0  0  0  0  0  0  0  0
  -28.0707  -23.7162   18.7719 C   0  0  0  0  0  0  0  0  0  0  0  0
  -25.7322  -24.9640   19.6207 C   0  0  0  0  0  0  0  0  0  0  0  0
  -23.1840  -29.2769   18.8782 C   0  0  0  0  0  0  0  0  0  0  0  0
  -20.2244  -26.4173   22.0184 C   0  0  0  0  0  0  0  0  0  0  0  0
  -25.4907  -12.3150   21.0549 C   0  0  0  0  0  0  0  0  0  0  0  0
  -25.6830  -12.2638   18.6470 C   0  0  0  0  0  0  0  0  0  0  0  0
  -21.7935  -29.2169   18.9591 C   0  0  0  0  0  0  0  0  0  0  0  0
  -24.6175   -8.8437   21.6962 C   0  0  0  0  0  0  0  0  0  0  0  0
  -23.6018   -8.3301   22.5024 C   0  0  0  0  0  0  0  0  0  0  0  0
  -19.0677  -23.9630   21.3693 C   0  0  0  0  0  0  0  0  0  0  0  0
  -21.8923  -30.0943   21.2040 C   0  0  0  0  0  0  0  0  0  0  0  0
  -21.9702   -9.6091   21.2616 C   0  0  0  0  0  0  0  0  0  0  0  0
  -25.8591  -14.3638   19.8286 C   0  0  0  0  0  0  0  0  0  0  0  0
  -20.4080  -24.0232   21.7508 C   0  0  0  0  0  0  0  0  0  0  0  0
  -27.2655  -16.4911   19.8948 C   0  0  0  0  0  0  0  0  0  0  0  0
  -28.1092  -24.5602   19.8930 C   0  0  0  0  0  0  0  0  0  0  0  0
  -23.9411  -29.7366   19.9653 C   0  0  0  0  0  0  0  0  0  0  0  0
  -26.9251  -25.1842   20.3300 C   0  0  0  0  0  0  0  0  0  0  0  0
  -23.2922  -30.1616   21.1334 C   0  0  0  0  0  0  0  0  0  0  0  0
  -18.8840  -26.3571   21.6370 C   0  0  0  0  0  0  0  0  0  0  0  0
  -18.3057  -25.1300   21.3124 C   0  0  0  0  0  0  0  0  0  0  0  0
  -25.4961  -11.5980   19.8584 C   0  0  0  0  0  0  0  0  0  0  0  0
  -21.1476  -29.6229   20.1232 C   0  0  0  0  0  0  0  0  0  0  0  0
  -24.3097   -9.7401   20.6727 C   0  0  0  0  0  0  0  0  0  0  0  0
  -22.2781   -8.7127   22.2851 C   0  0  0  0  0  0  0  0  0  0  0  0
  -22.9860  -10.1227   20.4554 C   0  0  0  0  0  0  0  0  0  0  0  0
  -26.0461  -15.7924   19.8125 C   0  0  0  0  0  0  0  0  0  0  0  0
  -26.9068  -17.8157   19.8372 C   0  0  0  0  0  0  0  0  0  0  0  0
  -21.2029  -22.8064   21.8097 C   0  0  0  0  0  0  0  0  0  0  0  0
  -20.9102  -21.6486   21.1802 C   0  0  0  0  0  0  0  0  0  0  0  0
  -28.6028  -15.9878   20.0127 C   0  0  0  0  0  0  0  0  0  0  0  0
  -21.8257  -20.4997   21.3308 C   0  0  0  0  0  0  0  0  0  0  0  0
  -26.1611  -28.4638   21.8509 C   0  0  0  0  0  0  0  0  0  0  0  0
  -26.3461  -31.4848   23.0178 C   0  0  0  0  0  0  0  0  0  0  0  0
  -24.8285  -34.5039   23.4960 C   0  0  0  0  0  0  0  0  0  0  0  0
  -29.4110  -24.7189   20.6378 C   0  0  0  0  0  0  0  0  0  0  0  0
  -25.4386  -29.8204   19.8524 C   0  0  0  0  0  0  0  0  0  0  0  0
  -24.0578  -30.6822   22.3213 C   0  0  0  0  0  0  0  0  0  0  0  0
  -29.4268  -25.9127   21.5891 C   0  0  0  0  0  0  0  0  0  0  0  0
  -23.5465  -20.7234   18.1027 C   0  0  0  0  0  0  0  0  0  0  0  0
  -28.1475  -25.9511   22.4189 C   0  0  0  0  0  0  0  0  0  0  0  0
  -24.4651  -19.5065   18.1747 C   0  0  0  0  0  0  0  0  0  0  0  0
  -22.2138  -20.4763   18.8079 C   0  0  0  0  0  0  0  0  0  0  0  0
  -23.2812  -18.8038   20.2924 C   0  0  0  0  0  0  0  0  0  0  0  0
  -26.9137  -26.1150   21.5231 C   0  0  1  0  0  0  0  0  0  0  0  0
  -26.1408  -29.8212   21.2068 C   0  0  1  0  0  0  0  0  0  0  0  0
  -24.6463  -19.0466   19.6299 C   0  0  1  0  0  0  0  0  0  0  0  0
  -16.8728  -25.0411   20.9009 C   0  0  0  0  0  0  0  0  0  0  0  0
  -25.2164  -36.7643   24.5146 C   0  0  0  0  0  0  0  0  0  0  0  0
  -25.9132  -30.3038   25.7976 C   0  0  0  0  0  0  0  0  0  0  0  0
  -25.3651  -32.6061   26.6143 C   0  0  0  0  0  0  0  0  0  0  0  0
  -27.6306  -32.1186   25.6911 C   0  0  0  0  0  0  0  0  0  0  0  0
  -24.5051  -35.8634   20.8871 C   0  0  0  0  0  0  0  0  0  0  0  0
  -18.0809  -27.6321   21.5826 C   0  0  0  0  0  0  0  0  0  0  0  0
  -17.8499  -28.1545   20.1630 C   0  0  0  0  0  0  0  0  0  0  0  0
  -19.1371  -28.5473   19.4473 C   0  0  0  0  0  0  0  0  0  1  0  0
  -25.6539  -32.2493   24.1202 C   0  0  1  0  0  0  0  0  0  0  0  0
  -25.3091  -35.9229   23.2511 C   0  0  2  0  0  0  0  0  0  0  0  0
  -26.1261  -31.8079   25.5343 C   0  0  0  0  0  0  0  0  0  0  0  0
  -24.9916  -16.6058   19.7105 N   0  0  0  0  0  0  0  0  0  0  0  0
  -25.5473  -17.8293   19.7284 N   0  0  0  0  0  0  0  0  0  0  0  0
  -22.4135  -19.9814   20.1783 N   0  0  0  0  0  0  0  0  0  0  0  0
  -25.5206  -30.7390   22.1645 N   0  0  0  0  0  0  0  0  0  0  0  0
  -27.6248  -18.9584   19.8695 N   0  0  0  0  0  0  0  0  0  0  0  0
  -28.7928  -14.5999   20.0581 N   0  0  0  0  0  0  0  0  0  0  0  0
  -26.7814  -27.4901   21.0917 N   0  0  0  0  0  0  0  0  0  0  0  0
  -25.8683  -33.6635   23.8331 N   0  0  0  0  0  0  0  0  0  0  0  0
  -24.4864  -36.5730   22.1921 N   0  3  0  0  0  0  0  0  0  0  0  0
  -29.5985  -16.7466   20.0924 O   0  0  0  0  0  0  0  0  0  0  0  0
  -22.0105  -20.0653   22.4692 O   0  0  0  0  0  0  0  0  0  0  0  0
  -25.6530  -28.3116   22.9556 O   0  0  0  0  0  0  0  0  0  0  0  0
  -27.5733  -31.5528   22.9130 O   0  0  0  0  0  0  0  0  0  0  0  0
  -23.6481  -34.1748   23.4014 O   0  0  0  0  0  0  0  0  0  0  0  0
  -25.3192  -10.2485   19.8726 O   0  0  0  0  0  0  0  0  0  0  0  0
  -19.7905  -29.5647   20.2050 O   0  0  0  0  0  0  0  0  0  1  0  0
  -21.3026   -8.2182   23.0584 F   0  0  0  0  0  0  0  0  0  0  0  0
  -22.6840  -10.9825   19.4729 F   0  0  0  0  0  0  0  0  0  0  0  0
  1  2  1  0  0  0  0
  1  6  2  0  0  0  0
  2  7  2  0  0  0  0
  3 10  2  0  0  0  0
  3 18  1  0  0  0  0
  4 11  1  0  0  0  0
  4 18  2  0  0  0  0
  5  9  2  0  0  0  0
  5 19  1  0  0  0  0
  6 21  1  0  0  0  0
  7 23  1  0  0  0  0
  8 12  2  0  0  0  0
  8 22  1  0  0  0  0
  9 25  1  0  0  0  0
 10 27  1  0  0  0  0
 11 27  2  0  0  0  0
 12 28  1  0  0  0  0
 13 14  2  0  0  0  0
 13 29  1  0  0  0  0
 14 30  1  0  0  0  0
 15 19  2  0  0  0  0
 15 26  1  0  0  0  0
 16 24  1  0  0  0  0
 16 28  2  0  0  0  0
 17 30  2  0  0  0  0
 17 31  1  0  0  0  0
 18 32  1  0  0  0  0
 19 34  1  0  0  0  0
 20 32  1  0  0  0  0
 20 33  2  0  0  0  0
 20 36  1  0  0  0  0
 21 23  2  0  0  0  0
 21 41  1  0  0  0  0
 22 24  2  0  0  0  0
 22 42  1  0  0  0  0
 23 50  1  0  0  0  0
 24 43  1  0  0  0  0
 25 26  2  0  0  0  0
 25 59  1  0  0  0  0
 26 53  1  0  0  0  0
 27 79  1  0  0  0  0
 28 80  1  0  0  0  0
 29 31  2  0  0  0  0
 29 79  1  0  0  0  0
 30 81  1  0  0  0  0
 31 82  1  0  0  0  0
 32 65  2  0  0  0  0
 33 66  1  0  0  0  0
 33 69  1  0  0  0  0
 34 35  2  0  0  0  0
 35 37  1  0  0  0  0
 36 70  1  0  0  0  0
 36 74  2  0  0  0  0
 37 67  1  0  0  0  0
 37 75  2  0  0  0  0
 38 51  1  0  0  0  0
 38 71  1  0  0  0  0
 38 76  2  0  0  0  0
 39 62  1  0  0  0  0
 39 68  1  0  0  0  0
 39 77  2  0  0  0  0
 40 63  1  0  0  0  0
 40 72  1  0  0  0  0
 40 78  2  0  0  0  0
 41 44  1  0  0  0  0
 42 51  1  0  0  0  0
 43 68  1  0  0  0  0
 44 46  1  0  0  0  0
 45 47  1  0  0  0  0
 45 48  1  0  0  0  0
 46 50  1  0  0  0  0
 47 52  1  0  0  0  0
 48 67  1  0  0  0  0
 49 52  1  0  0  0  0
 49 67  1  0  0  0  0
 50 71  1  0  0  0  0
 51 68  1  0  0  0  0
 52 66  1  0  0  0  0
 54 63  1  0  0  0  0
 55 64  1  0  0  0  0
 56 64  1  0  0  0  0
 57 64  1  0  0  0  0
 58 73  1  0  0  0  0
 59 60  1  0  0  0  0
 60 61  1  0  0  0  0
 61 80  1  0  0  0  0
 62 64  1  0  0  0  0
 62 72  1  0  0  0  0
 63 73  1  0  0  0  0
 65 66  1  0  0  0  0
M  CHG  1  73   1
M  ISO  4  35 100  37 100  61 101  80 101
M  END
> <Batch ID>
0129

> <Smiles>
CNC(C)C(=O)NC(C(=O)N1Cc2cc([101O:1][101CH2:1]CCc3ccc(C=[100CH:0][100C:0](=O)N4CCCC(n5nc(-c6ccc(Oc7ccc(F)cc7F)cc6)c(C(N)=O)c5N)C4)cc3C)ccc2CC1C(=O)NC1CCCc2ccccc21)C(C)(C)C

> <Shape>
0.280

> <Color>
0.082

> <Negative vol penalty>
0.000

$$$$

  -OEChem-04052302193D

 83 91  0     1  0  0  0  0  0999 V2000
  -25.1445  -25.7224   31.8356 C   0  0  0  0  0  0  0  0  0  0  0  0
  -25.8766  -24.6071   32.2298 C   0  0  0  0  0  0  0  0  0  0  0  0
  -23.1899   -9.8193   19.9320 C   0  0  0  0  0  0  0  0  0  0  0  0
  -23.5701   -9.9992   22.3111 C   0  0  0  0  0  0  0  0  0  0  0  0
  -24.4764  -25.7194   30.6119 C   0  0  0  0  0  0  0  0  0  0  0  0
  -25.9403  -23.4876   31.4008 C   0  0  0  0  0  0  0  0  0  0  0  0
  -30.7046  -19.7082   30.6776 C   0  0  0  0  0  0  0  0  0  0  0  0
  -22.4240   -8.6724   20.1410 C   0  0  0  0  0  0  0  0  0  0  0  0
  -22.8041   -8.8523   22.5202 C   0  0  0  0  0  0  0  0  0  0  0  0
  -31.0057  -18.4628   31.2271 C   0  0  0  0  0  0  0  0  0  0  0  0
  -23.2057   -5.5058   22.2550 C   0  0  0  0  0  0  0  0  0  0  0  0
  -23.7049   -4.5444   23.1336 C   0  0  0  0  0  0  0  0  0  0  0  0
  -32.7718  -11.8457   26.3584 C   0  0  0  0  0  0  0  0  0  0  0  0
  -30.7001  -12.5149   25.3111 C   0  0  0  0  0  0  0  0  0  0  0  0
  -30.0876  -17.3857   29.2736 C   0  0  0  0  0  0  0  0  0  0  0  0
  -32.6604  -12.1070   23.9592 C   0  0  0  0  0  0  0  0  0  0  0  0
  -21.7494   -4.8037   24.5285 C   0  0  0  0  0  0  0  0  0  0  0  0
  -23.7630  -10.4827   21.0170 C   0  0  0  0  0  0  0  0  0  0  0  0
  -31.4278  -12.2047   26.4599 C   0  0  0  0  0  0  0  0  0  0  0  0
  -24.1010  -12.9994   20.7735 C   0  0  0  0  0  0  0  0  0  0  0  0
  -24.5398  -24.6030   29.7632 C   0  0  0  0  0  0  0  0  0  0  0  0
  -30.0818  -19.8017   29.4247 C   0  0  0  0  0  0  0  0  0  0  0  0
  -25.2713  -23.4692   30.1652 C   0  0  0  0  0  0  0  0  0  0  0  0
  -29.7820  -18.6336   28.7093 C   0  0  0  0  0  0  0  0  0  0  0  0
  -33.3882  -11.7969   25.1080 C   0  0  0  0  0  0  0  0  0  0  0  0
  -31.3164  -12.4660   24.0607 C   0  0  0  0  0  0  0  0  0  0  0  0
  -22.2311   -8.1890   21.4351 C   0  0  0  0  0  0  0  0  0  0  0  0
  -30.6946  -17.3012   30.5263 C   0  0  0  0  0  0  0  0  0  0  0  0
  -21.9783   -6.1163   22.5132 C   0  0  0  0  0  0  0  0  0  0  0  0
  -22.9768   -4.1933   24.2704 C   0  0  0  0  0  0  0  0  0  0  0  0
  -21.2502   -5.7651   23.6499 C   0  0  0  0  0  0  0  0  0  0  0  0
  -24.5547  -11.6671   20.8016 C   0  0  0  0  0  0  0  0  0  0  0  0
  -25.2318  -13.7424   20.5375 C   0  0  0  0  0  0  0  0  0  0  0  0
  -30.7769  -12.2570   27.7797 C   0  0  0  0  0  0  0  0  0  0  0  0
  -31.4165  -12.3593   28.9553 C   0  0  0  0  0  0  0  0  0  0  0  0
  -22.7758  -13.5190   20.9455 C   0  0  0  0  0  0  0  0  0  0  0  0
  -27.3158  -20.9650   28.3759 C   0  0  0  0  0  0  0  0  0  0  0  0
  -28.5688  -20.2612   25.4678 C   0  0  0  0  0  0  0  0  0  0  0  0
  -30.7644  -18.4022   23.6320 C   0  0  0  0  0  0  0  0  0  0  0  0
  -31.0373  -12.7827   21.5771 C   0  0  0  0  0  0  0  0  0  0  0  0
  -23.7622  -24.6283   28.4711 C   0  0  0  0  0  0  0  0  0  0  0  0
  -29.7878  -21.1534   28.8340 C   0  0  0  0  0  0  0  0  0  0  0  0
  -29.1316  -18.6802   27.3516 C   0  0  0  0  0  0  0  0  0  0  0  0
  -24.1875  -23.5453   27.4829 C   0  0  0  0  0  0  0  0  0  0  0  0
  -29.5222  -13.4647   18.4280 C   0  0  0  0  0  0  0  0  0  0  0  0
  -24.3116  -22.1983   28.1879 C   0  0  0  0  0  0  0  0  0  0  0  0
  -28.0344  -13.2083   18.6784 C   0  0  0  0  0  0  0  0  0  0  0  0
  -30.4042  -12.4797   19.1933 C   0  0  0  0  0  0  0  0  0  0  0  0
  -28.6457  -12.1375   20.8845 C   0  0  0  0  0  0  0  0  0  0  0  0
  -25.3845  -22.2452   29.2825 C   0  0  1  0  0  0  0  0  0  0  0  0
  -28.6863  -21.1177   27.7791 C   0  0  1  0  0  0  0  0  0  0  0  0
  -27.7191  -13.1459   20.1858 C   0  0  2  0  0  0  0  0  0  0  0  0
  -34.8254  -11.4136   24.9989 C   0  0  0  0  0  0  0  0  0  0  0  0
  -31.5339  -18.0237   21.2736 C   0  0  0  0  0  0  0  0  0  0  0  0
  -26.0268  -18.6735   24.8958 C   0  0  0  0  0  0  0  0  0  0  0  0
  -27.2265  -17.5709   22.9949 C   0  0  0  0  0  0  0  0  0  0  0  0
  -26.8594  -20.0381   22.9725 C   0  0  0  0  0  0  0  0  0  0  0  0
  -33.5312  -19.2304   24.2787 C   0  0  0  0  0  0  0  0  0  0  0  0
  -30.7085  -12.4138   30.2794 C   0  0  0  0  0  0  0  0  0  0  0  0
  -31.0656  -13.6857   31.0463 C   0  0  0  0  0  0  0  0  0  0  0  0
  -30.6404  -14.9356   30.2881 C   0  0  0  0  0  0  0  0  0  1  0  0
  -28.5590  -19.0524   24.5636 C   0  0  1  0  0  0  0  0  0  0  0  0
  -31.7687  -18.7945   22.5633 C   0  0  2  0  0  0  0  0  0  0  0  0
  -27.1784  -18.8324   23.8831 C   0  0  0  0  0  0  0  0  0  0  0  0
  -25.8711  -11.5663   20.5994 N   0  0  0  0  0  0  0  0  0  0  0  0
  -26.2543  -12.8448   20.4419 N   0  0  0  0  0  0  0  0  0  0  0  0
  -28.8582  -20.0253   26.8192 N   0  0  0  0  0  0  0  0  0  0  0  0
  -30.0515  -12.4778   20.6148 N   0  0  0  0  0  0  0  0  0  0  0  0
  -25.4414  -15.0693   20.4044 N   0  0  0  0  0  0  0  0  0  0  0  0
  -21.7295  -12.6165   21.1802 N   0  0  0  0  0  0  0  0  0  0  0  0
  -30.5776  -12.7821   22.8936 N   0  0  0  0  0  0  0  0  0  0  0  0
  -26.7061  -22.1623   28.6985 N   0  0  0  0  0  0  0  0  0  0  0  0
  -29.6641  -19.2332   23.6284 N   0  0  0  0  0  0  0  0  0  0  0  0
  -33.1566  -18.5176   23.0303 N   0  3  0  0  0  0  0  0  0  0  0  0
  -22.5243  -14.7460   20.8763 O   0  0  0  0  0  0  0  0  0  0  0  0
  -26.8457  -19.8440   28.5307 O   0  0  0  0  0  0  0  0  0  0  0  0
  -28.3356  -21.3748   24.9911 O   0  0  0  0  0  0  0  0  0  0  0  0
  -30.9369  -17.4513   24.3913 O   0  0  0  0  0  0  0  0  0  0  0  0
  -32.1971  -13.0531   21.2549 O   0  0  0  0  0  0  0  0  0  0  0  0
  -21.4836   -7.0700   21.6395 O   0  0  0  0  0  0  0  0  0  0  0  0
  -30.9868  -16.0842   31.0606 O   0  0  0  0  0  0  0  0  0  1  0  0
  -23.4557   -3.2689   25.1132 F   0  0  0  0  0  0  0  0  0  0  0  0
  -20.0699   -6.3473   23.9027 F   0  0  0  0  0  0  0  0  0  0  0  0
  1  2  1  0  0  0  0
  1  5  2  0  0  0  0
  2  6  2  0  0  0  0
  3  8  2  0  0  0  0
  3 18  1  0  0  0  0
  4  9  1  0  0  0  0
  4 18  2  0  0  0  0
  5 21  1  0  0  0  0
  6 23  1  0  0  0  0
  7 10  2  0  0  0  0
  7 22  1  0  0  0  0
  8 27  1  0  0  0  0
  9 27  2  0  0  0  0
 10 28  1  0  0  0  0
 11 12  2  0  0  0  0
 11 29  1  0  0  0  0
 12 30  1  0  0  0  0
 13 19  1  0  0  0  0
 13 25  2  0  0  0  0
 14 19  2  0  0  0  0
 14 26  1  0  0  0  0
 15 24  1  0  0  0  0
 15 28  2  0  0  0  0
 16 25  1  0  0  0  0
 16 26  2  0  0  0  0
 17 30  2  0  0  0  0
 17 31  1  0  0  0  0
 18 32  1  0  0  0  0
 19 34  1  0  0  0  0
 20 32  1  0  0  0  0
 20 33  2  0  0  0  0
 20 36  1  0  0  0  0
 21 23  2  0  0  0  0
 21 41  1  0  0  0  0
 22 24  2  0  0  0  0
 22 42  1  0  0  0  0
 23 50  1  0  0  0  0
 24 43  1  0  0  0  0
 25 53  1  0  0  0  0
 26 71  1  0  0  0  0
 27 80  1  0  0  0  0
 28 81  1  0  0  0  0
 29 31  2  0  0  0  0
 29 80  1  0  0  0  0
 30 82  1  0  0  0  0
 31 83  1  0  0  0  0
 32 65  2  0  0  0  0
 33 66  1  0  0  0  0
 33 69  1  0  0  0  0
 34 35  2  0  0  0  0
 35 59  1  0  0  0  0
 36 70  1  0  0  0  0
 36 75  2  0  0  0  0
 37 51  1  0  0  0  0
 37 72  1  0  0  0  0
 37 76  2  0  0  0  0
 38 62  1  0  0  0  0
 38 67  1  0  0  0  0
 38 77  2  0  0  0  0
 39 63  1  0  0  0  0
 39 73  1  0  0  0  0
 39 78  2  0  0  0  0
 40 68  1  0  0  0  0
 40 71  1  0  0  0  0
 40 79  2  0  0  0  0
 41 44  1  0  0  0  0
 42 51  1  0  0  0  0
 43 67  1  0  0  0  0
 44 46  1  0  0  0  0
 45 47  1  0  0  0  0
 45 48  1  0  0  0  0
 46 50  1  0  0  0  0
 47 52  1  0  0  0  0
 48 68  1  0  0  0  0
 49 52  1  0  0  0  0
 49 68  1  0  0  0  0
 50 72  1  0  0  0  0
 51 67  1  0  0  0  0
 52 66  1  0  0  0  0
 54 63  1  0  0  0  0
 55 64  1  0  0  0  0
 56 64  1  0  0  0  0
 57 64  1  0  0  0  0
 58 74  1  0  0  0  0
 59 60  1  0  0  0  0
 60 61  1  0  0  0  0
 61 81  1  0  0  0  0
 62 64  1  0  0  0  0
 62 73  1  0  0  0  0
 63 74  1  0  0  0  0
 65 66  1  0  0  0  0
M  CHG  1  74   1
M  ISO  4  40 100  61 101  71 100  81 101
M  END
> <Batch ID>
0129

> <Smiles>
CNC(C)C(=O)NC(C(=O)N1Cc2cc([101O:1][101CH2:1]CCC=Cc3cc(C)cc([100NH:0][100C:0](=O)N4CCCC(n5nc(-c6ccc(Oc7ccc(F)cc7F)cc6)c(C(N)=O)c5N)C4)c3)ccc2CC1C(=O)NC1CCCc2ccccc21)C(C)(C)C

> <Shape>
0.149

> <Color>
0.190

> <Negative vol penalty>
0.000

$$$$

  -OEChem-04052302193D

 84 92  0     1  0  0  0  0  0999 V2000
  -22.3795  -19.4784   21.6040 C   0  0  0  0  0  0  0  0  0  0  0  0
  -23.6562  -19.9061   21.9540 C   0  0  0  0  0  0  0  0  0  0  0  0
  -23.4756   -9.6970   21.4490 C   0  0  0  0  0  0  0  0  0  0  0  0
  -24.0725  -10.7502   23.5398 C   0  0  0  0  0  0  0  0  0  0  0  0
  -21.4846  -20.3695   21.0132 C   0  0  0  0  0  0  0  0  0  0  0  0
  -24.0391  -21.2250   21.7124 C   0  0  0  0  0  0  0  0  0  0  0  0
  -26.4610  -23.2966   25.6479 C   0  0  0  0  0  0  0  0  0  0  0  0
  -31.8689  -19.2739   21.5869 C   0  0  0  0  0  0  0  0  0  0  0  0
  -31.4482  -18.0256   21.1285 C   0  0  0  0  0  0  0  0  0  0  0  0
  -22.8512   -8.6638   22.1477 C   0  0  0  0  0  0  0  0  0  0  0  0
  -23.4479   -9.7170   24.2385 C   0  0  0  0  0  0  0  0  0  0  0  0
  -27.7991  -22.9485   25.8270 C   0  0  0  0  0  0  0  0  0  0  0  0
  -20.7866   -5.9355   23.3761 C   0  0  0  0  0  0  0  0  0  0  0  0
  -19.5309   -5.5198   22.9337 C   0  0  0  0  0  0  0  0  0  0  0  0
  -28.4705  -25.0233   24.7957 C   0  0  0  0  0  0  0  0  0  0  0  0
  -29.1472  -18.7477   21.2742 C   0  0  0  0  0  0  0  0  0  0  0  0
  -18.6621   -7.7424   23.3112 C   0  0  0  0  0  0  0  0  0  0  0  0
  -24.0864  -10.7402   22.1451 C   0  0  0  0  0  0  0  0  0  0  0  0
  -24.1490  -13.0109   20.9843 C   0  0  0  0  0  0  0  0  0  0  0  0
  -21.8534  -21.7025   20.7731 C   0  0  0  0  0  0  0  0  0  0  0  0
  -26.1171  -24.5078   25.0305 C   0  0  0  0  0  0  0  0  0  0  0  0
  -23.1487  -22.1344   21.1167 C   0  0  0  0  0  0  0  0  0  0  0  0
  -27.1273  -25.3856   24.6123 C   0  0  0  0  0  0  0  0  0  0  0  0
  -30.9289  -20.2591   21.8890 C   0  0  0  0  0  0  0  0  0  0  0  0
  -29.5680  -19.9960   21.7326 C   0  0  0  0  0  0  0  0  0  0  0  0
  -30.0873  -17.7624   20.9721 C   0  0  0  0  0  0  0  0  0  0  0  0
  -22.8373   -8.6738   23.5424 C   0  0  0  0  0  0  0  0  0  0  0  0
  -28.8041  -23.8106   25.3982 C   0  0  0  0  0  0  0  0  0  0  0  0
  -20.9802   -7.2546   23.7862 C   0  0  0  0  0  0  0  0  0  0  0  0
  -18.4686   -6.4233   22.9012 C   0  0  0  0  0  0  0  0  0  0  0  0
  -19.9180   -8.1581   23.7537 C   0  0  0  0  0  0  0  0  0  0  0  0
  -24.7321  -11.8074   21.4239 C   0  0  0  0  0  0  0  0  0  0  0  0
  -25.1719  -13.6790   20.3568 C   0  0  0  0  0  0  0  0  0  0  0  0
  -22.8030  -13.4828   21.1303 C   0  0  0  0  0  0  0  0  0  0  0  0
  -24.5438  -25.3110   22.3879 C   0  0  0  0  0  0  0  0  0  0  0  0
  -24.9133  -28.3174   23.5487 C   0  0  0  0  0  0  0  0  0  0  0  0
  -26.6746  -30.4585   25.5387 C   0  0  0  0  0  0  0  0  0  0  0  0
  -30.4609  -15.4079   20.1579 C   0  0  0  0  0  0  0  0  0  0  0  0
  -20.8678  -22.6165   20.0891 C   0  0  0  0  0  0  0  0  0  0  0  0
  -24.6689  -24.8807   24.8688 C   0  0  0  0  0  0  0  0  0  0  0  0
  -26.8108  -26.7068   23.9622 C   0  0  0  0  0  0  0  0  0  0  0  0
  -21.2241  -24.0960   20.2095 C   0  0  0  0  0  0  0  0  0  0  0  0
  -29.7889  -12.1083   19.0011 C   0  0  0  0  0  0  0  0  0  0  0  0
  -22.7011  -24.3164   19.8984 C   0  0  0  0  0  0  0  0  0  0  0  0
  -28.3654  -11.8349   19.4922 C   0  0  0  0  0  0  0  0  0  0  0  0
  -30.5887  -12.9306   20.0100 C   0  0  0  0  0  0  0  0  0  0  0  0
  -28.5229  -13.9050   20.9332 C   0  0  0  0  0  0  0  0  0  0  0  0
  -23.5927  -23.5638   20.8934 C   0  0  1  0  0  0  0  0  0  0  0  0
  -24.4357  -25.9059   23.7634 C   0  0  1  0  0  0  0  0  0  0  0  0
  -27.6580  -13.1351   19.9219 C   0  0  2  0  0  0  0  0  0  0  0  0
  -27.9789  -21.6916   20.7912 C   0  0  0  0  0  0  0  0  0  0  0  0
  -26.7613  -32.8624   26.2538 C   0  0  0  0  0  0  0  0  0  0  0  0
  -32.9462  -22.7910   25.7587 C   0  0  0  0  0  0  0  0  0  0  0  0
  -26.1403  -29.0708   20.8585 C   0  0  0  0  0  0  0  0  0  0  0  0
  -27.0508  -31.1410   21.9323 C   0  0  0  0  0  0  0  0  0  0  0  0
  -24.5853  -30.7818   21.8117 C   0  0  0  0  0  0  0  0  0  0  0  0
  -26.2280  -29.7509   28.3775 C   0  0  0  0  0  0  0  0  0  0  0  0
  -31.4081  -21.6009   22.3839 C   0  0  0  0  0  0  0  0  0  0  0  0
  -28.5437  -21.0362   22.0479 C   0  0  0  0  0  0  0  0  0  0  0  0
  -31.7791  -21.6205   23.8733 C   0  0  0  0  0  0  0  0  0  0  0  0
  -31.0432  -23.9726   24.6132 C   0  0  0  0  0  0  0  0  0  1  0  0
  -25.9631  -29.3939   23.4140 C   0  0  1  0  0  0  0  0  0  0  0  0
  -26.2232  -31.4758   26.5711 C   0  0  2  0  0  0  0  0  0  0  0  0
  -32.2122  -22.9959   24.4273 C   0  0  1  0  0  0  0  0  0  0  0  0
  -25.9412  -30.0712   22.0146 C   0  0  0  0  0  0  0  0  0  0  0  0
  -26.0252  -11.7135   21.1027 N   0  0  0  0  0  0  0  0  0  0  0  0
  -26.2630  -12.8665   20.4545 N   0  0  0  0  0  0  0  0  0  0  0  0
  -25.3800  -27.0235   23.8207 N   0  0  0  0  0  0  0  0  0  0  0  0
  -29.8589  -14.1491   20.3672 N   0  0  0  0  0  0  0  0  0  0  0  0
  -25.2354  -14.8763   19.7364 N   0  0  0  0  0  0  0  0  0  0  0  0
  -21.8793  -12.6706   21.8022 N   0  0  0  0  0  0  0  0  0  0  0  0
  -29.6595  -16.4951   20.5045 N   0  0  0  0  0  0  0  0  0  0  0  0
  -23.6593  -24.2760   22.1515 N   0  0  0  0  0  0  0  0  0  0  0  0
  -25.7498  -30.3135   24.5263 N   0  0  0  0  0  0  0  0  0  0  0  0
  -26.7018  -31.0850   27.9272 N   0  3  0  0  0  0  0  0  0  0  0  0
  -22.4263  -14.5847   20.6639 O   0  0  0  0  0  0  0  0  0  0  0  0
  -25.3675  -25.7589   21.5989 O   0  0  0  0  0  0  0  0  0  0  0  0
  -23.7227  -28.6149   23.4245 O   0  0  0  0  0  0  0  0  0  0  0  0
  -27.7426  -29.8557   25.6203 O   0  0  0  0  0  0  0  0  0  0  0  0
  -31.5930  -15.5143   19.6792 O   0  0  0  0  0  0  0  0  0  0  0  0
  -22.2277   -7.6660   24.2245 O   0  0  0  0  0  0  0  0  0  0  0  0
  -30.1110  -23.4730   25.5712 O   0  0  0  0  0  0  0  0  0  1  0  0
  -17.2631   -6.0244   22.4748 F   0  0  0  0  0  0  0  0  0  0  0  0
  -20.0981   -9.4269   24.1453 F   0  0  0  0  0  0  0  0  0  0  0  0
  1  2  1  0  0  0  0
  1  5  2  0  0  0  0
  2  6  2  0  0  0  0
  3 10  2  0  0  0  0
  3 18  1  0  0  0  0
  4 11  1  0  0  0  0
  4 18  2  0  0  0  0
  5 20  1  0  0  0  0
  6 22  1  0  0  0  0
  7 12  2  0  0  0  0
  7 21  1  0  0  0  0
  8  9  2  0  0  0  0
  8 24  1  0  0  0  0
  9 26  1  0  0  0  0
 10 27  1  0  0  0  0
 11 27  2  0  0  0  0
 12 28  1  0  0  0  0
 13 14  2  0  0  0  0
 13 29  1  0  0  0  0
 14 30  1  0  0  0  0
 15 23  1  0  0  0  0
 15 28  2  0  0  0  0
 16 25  1  0  0  0  0
 16 26  2  0  0  0  0
 17 30  2  0  0  0  0
 17 31  1  0  0  0  0
 18 32  1  0  0  0  0
 19 32  1  0  0  0  0
 19 33  2  0  0  0  0
 19 34  1  0  0  0  0
 20 22  2  0  0  0  0
 20 39  1  0  0  0  0
 21 23  2  0  0  0  0
 21 40  1  0  0  0  0
 22 48  1  0  0  0  0
 23 41  1  0  0  0  0
 24 25  2  0  0  0  0
 24 58  1  0  0  0  0
 25 59  1  0  0  0  0
 26 72  1  0  0  0  0
 27 81  1  0  0  0  0
 28 82  1  0  0  0  0
 29 31  2  0  0  0  0
 29 81  1  0  0  0  0
 30 83  1  0  0  0  0
 31 84  1  0  0  0  0
 32 66  2  0  0  0  0
 33 67  1  0  0  0  0
 33 70  1  0  0  0  0
 34 71  1  0  0  0  0
 34 76  2  0  0  0  0
 35 49  1  0  0  0  0
 35 73  1  0  0  0  0
 35 77  2  0  0  0  0
 36 62  1  0  0  0  0
 36 68  1  0  0  0  0
 36 78  2  0  0  0  0
 37 63  1  0  0  0  0
 37 74  1  0  0  0  0
 37 79  2  0  0  0  0
 38 69  1  0  0  0  0
 38 72  1  0  0  0  0
 38 80  2  0  0  0  0
 39 42  1  0  0  0  0
 40 49  1  0  0  0  0
 41 68  1  0  0  0  0
 42 44  1  0  0  0  0
 43 45  1  0  0  0  0
 43 46  1  0  0  0  0
 44 48  1  0  0  0  0
 45 50  1  0  0  0  0
 46 69  1  0  0  0  0
 47 50  1  0  0  0  0
 47 69  1  0  0  0  0
 48 73  1  0  0  0  0
 49 68  1  0  0  0  0
 50 67  1  0  0  0  0
 51 59  1  0  0  0  0
 52 63  1  0  0  0  0
 53 64  1  0  0  0  0
 54 65  1  0  0  0  0
 55 65  1  0  0  0  0
 56 65  1  0  0  0  0
 57 75  1  0  0  0  0
 58 60  1  0  0  0  0
 60 64  1  0  0  0  0
 61 64  1  0  0  0  0
 61 82  1  0  0  0  0
 62 65  1  0  0  0  0
 62 74  1  0  0  0  0
 63 75  1  0  0  0  0
 66 67  1  0  0  0  0
M  CHG  1  75   1
M  ISO  4  38 100  61 101  72 100  82 101
M  END
> <Batch ID>
0129

> <Smiles>
CCc1cc([100NH:0][100C:0](=O)N2CCCC(n3nc(-c4ccc(Oc5ccc(F)cc5F)cc4)c(C(N)=O)c3N)C2)ccc1CCC(C)[101CH2:1][101O:1]c1ccc2c(c1)CN(C(=O)C(NC(=O)C(C)NC)C(C)(C)C)C(C(=O)NC1CCCc3ccccc31)C2

> <Shape>
0.219

> <Color>
0.140

> <Negative vol penalty>
0.000

$$$$

  -OEChem-04052302193D

 82 90  0     1  0  0  0  0  0999 V2000
  -28.8682  -31.3163   27.1643 C   0  0  0  0  0  0  0  0  0  0  0  0
  -28.6973  -30.3102   26.2187 C   0  0  0  0  0  0  0  0  0  0  0  0
  -26.7458   -7.4278   22.0568 C   0  0  0  0  0  0  0  0  0  0  0  0
  -24.8550   -7.4824   20.5539 C   0  0  0  0  0  0  0  0  0  0  0  0
  -29.4695  -19.7675   21.2761 C   0  0  0  0  0  0  0  0  0  0  0  0
  -30.3850  -19.8504   19.0418 C   0  0  0  0  0  0  0  0  0  0  0  0
  -27.7723  -32.0675   27.5870 C   0  0  0  0  0  0  0  0  0  0  0  0
  -27.4302  -30.0541   25.6961 C   0  0  0  0  0  0  0  0  0  0  0  0
  -27.4887  -29.4456   20.6690 C   0  0  0  0  0  0  0  0  0  0  0  0
  -29.4886  -21.1609   21.3356 C   0  0  0  0  0  0  0  0  0  0  0  0
  -30.4040  -21.2438   19.1013 C   0  0  0  0  0  0  0  0  0  0  0  0
  -26.1804   -6.3443   22.7289 C   0  0  0  0  0  0  0  0  0  0  0  0
  -24.2895   -6.3988   21.2259 C   0  0  0  0  0  0  0  0  0  0  0  0
  -27.9303  -28.2163   20.1816 C   0  0  0  0  0  0  0  0  0  0  0  0
  -22.5706   -5.8638   24.0878 C   0  0  0  0  0  0  0  0  0  0  0  0
  -21.2122   -5.9304   24.3972 C   0  0  0  0  0  0  0  0  0  0  0  0
  -25.6406  -27.5251   19.8674 C   0  0  0  0  0  0  0  0  0  0  0  0
  -20.8148   -3.9442   23.0805 C   0  0  0  0  0  0  0  0  0  0  0  0
  -26.0831   -7.9969   20.9693 C   0  0  0  0  0  0  0  0  0  0  0  0
  -29.9178  -19.1122   20.1292 C   0  0  0  0  0  0  0  0  0  0  0  0
  -27.5410   -9.0715   19.1728 C   0  0  0  0  0  0  0  0  0  0  0  0
  -26.4928  -31.8268   27.0621 C   0  0  0  0  0  0  0  0  0  0  0  0
  -26.1173  -29.7202   20.7698 C   0  0  0  0  0  0  0  0  0  0  0  0
  -26.3159  -30.8019   26.1132 C   0  0  0  0  0  0  0  0  0  0  0  0
  -25.1842  -28.7596   20.3541 C   0  0  0  0  0  0  0  0  0  0  0  0
  -29.9558  -21.8991   20.2482 C   0  0  0  0  0  0  0  0  0  0  0  0
  -24.9522   -5.8297   22.3134 C   0  0  0  0  0  0  0  0  0  0  0  0
  -27.0063  -27.2548   19.7834 C   0  0  0  0  0  0  0  0  0  0  0  0
  -23.0512   -4.8374   23.2746 C   0  0  0  0  0  0  0  0  0  0  0  0
  -20.3343   -4.9706   23.8936 C   0  0  0  0  0  0  0  0  0  0  0  0
  -22.1733   -3.8776   22.7709 C   0  0  0  0  0  0  0  0  0  0  0  0
  -26.6664   -9.1167   20.2750 C   0  0  0  0  0  0  0  0  0  0  0  0
  -27.8037  -10.3893   18.8887 C   0  0  0  0  0  0  0  0  0  0  0  0
  -29.8981  -17.6591   20.0669 C   0  0  0  0  0  0  0  0  0  0  0  0
  -29.1480  -16.8518   20.8469 C   0  0  0  0  0  0  0  0  0  0  0  0
  -28.0686   -7.9395   18.4686 C   0  0  0  0  0  0  0  0  0  0  0  0
  -29.2316  -15.3900   20.6550 C   0  0  0  0  0  0  0  0  0  0  0  0
  -24.1321  -30.3833   23.1621 C   0  0  0  0  0  0  0  0  0  0  0  0
  -28.6919  -24.0445   19.8126 C   0  0  0  0  0  0  0  0  0  0  0  0
  -22.0101  -30.8556   20.7545 C   0  0  0  0  0  0  0  0  0  0  0  0
  -21.0892  -30.2009   17.5343 C   0  0  0  0  0  0  0  0  0  0  0  0
  -25.3303  -32.6333   27.5847 C   0  0  0  0  0  0  0  0  0  0  0  0
  -25.6574  -31.0611   21.2726 C   0  0  0  0  0  0  0  0  0  0  0  0
  -23.7011  -29.0127   20.4231 C   0  0  0  0  0  0  0  0  0  0  0  0
  -24.0858  -32.5486   26.7048 C   0  0  0  0  0  0  0  0  0  0  0  0
  -25.6480  -14.6268   20.5701 C   0  0  0  0  0  0  0  0  0  0  0  0
  -23.8030  -31.1005   26.3180 C   0  0  0  0  0  0  0  0  0  0  0  0
  -25.6746  -13.1061   20.4422 C   0  0  0  0  0  0  0  0  0  0  0  0
  -26.8073  -15.1497   21.4171 C   0  0  0  0  0  0  0  0  0  0  0  0
  -28.1720  -13.1709   20.8152 C   0  0  0  0  0  0  0  0  0  0  0  0
  -24.9614  -30.5105   25.5045 C   0  0  1  0  0  0  0  0  0  0  0  0
  -24.2313  -31.0393   21.8139 C   0  0  1  0  0  0  0  0  0  0  0  0
  -27.0414  -12.6269   19.9280 C   0  0  1  0  0  0  0  0  0  0  0  0
  -19.2868  -30.6991   15.8608 C   0  0  0  0  0  0  0  0  0  0  0  0
  -20.1531  -28.8949   22.1747 C   0  0  0  0  0  0  0  0  0  0  0  0
  -18.8425  -28.7052   20.0499 C   0  0  0  0  0  0  0  0  0  0  0  0
  -19.0130  -30.9038   21.2161 C   0  0  0  0  0  0  0  0  0  0  0  0
  -23.0033  -31.4944   15.6844 C   0  0  0  0  0  0  0  0  0  0  0  0
  -29.9738  -23.4036   20.3123 C   0  0  0  0  0  0  0  0  0  0  0  0
  -28.6753  -25.5608   19.8118 C   0  0  0  0  0  0  0  0  0  1  0  0
  -21.0323  -29.9833   20.0048 C   0  0  1  0  0  0  0  0  0  0  0  0
  -20.6429  -31.1161   16.4083 C   0  0  2  0  0  0  0  0  0  0  0  0
  -19.7881  -29.6160   20.8618 C   0  0  0  0  0  0  0  0  0  0  0  0
  -26.3921  -10.3644   20.6647 N   0  0  0  0  0  0  0  0  0  0  0  0
  -27.0984  -11.1155   19.8027 N   0  0  0  0  0  0  0  0  0  0  0  0
  -28.0984  -14.6308   20.9413 N   0  0  0  0  0  0  0  0  0  0  0  0
  -23.3011  -30.3366   20.9278 N   0  0  0  0  0  0  0  0  0  0  0  0
  -28.5671  -10.9863   17.9488 N   0  0  0  0  0  0  0  0  0  0  0  0
  -27.6961   -6.6563   18.8918 N   0  0  0  0  0  0  0  0  0  0  0  0
  -24.9091  -30.9801   24.1366 N   0  0  0  0  0  0  0  0  0  0  0  0
  -20.7185  -30.6913   18.7685 N   0  0  0  0  0  0  0  0  0  0  0  0
  -21.6303  -31.0842   15.2926 N   0  3  0  0  0  0  0  0  0  0  0  0
  -28.8603   -8.0618   17.5033 O   0  0  0  0  0  0  0  0  0  0  0  0
  -30.3030  -14.9292   20.2569 O   0  0  0  0  0  0  0  0  0  0  0  0
  -23.4035  -29.4088   23.3078 O   0  0  0  0  0  0  0  0  0  0  0  0
  -27.7234  -23.3883   19.4316 O   0  0  0  0  0  0  0  0  0  0  0  0
  -21.6442  -31.9598   21.1649 O   0  0  0  0  0  0  0  0  0  0  0  0
  -21.7020  -29.1537   17.3382 O   0  0  0  0  0  0  0  0  0  0  0  0
  -24.4003   -4.7722   22.9689 O   0  0  0  0  0  0  0  0  0  0  0  0
  -27.4346  -26.0538   19.3078 O   0  0  0  0  0  0  0  0  0  1  0  0
  -19.0301   -5.0338   24.1922 F   0  0  0  0  0  0  0  0  0  0  0  0
  -22.6293   -2.8885   21.9902 F   0  0  0  0  0  0  0  0  0  0  0  0
  1  2  1  0  0  0  0
  1  7  2  0  0  0  0
  2  8  2  0  0  0  0
  3 12  2  0  0  0  0
  3 19  1  0  0  0  0
  4 13  1  0  0  0  0
  4 19  2  0  0  0  0
  5 10  2  0  0  0  0
  5 20  1  0  0  0  0
  6 11  1  0  0  0  0
  6 20  2  0  0  0  0
  7 22  1  0  0  0  0
  8 24  1  0  0  0  0
  9 14  2  0  0  0  0
  9 23  1  0  0  0  0
 10 26  1  0  0  0  0
 11 26  2  0  0  0  0
 12 27  1  0  0  0  0
 13 27  2  0  0  0  0
 14 28  1  0  0  0  0
 15 16  2  0  0  0  0
 15 29  1  0  0  0  0
 16 30  1  0  0  0  0
 17 25  1  0  0  0  0
 17 28  2  0  0  0  0
 18 30  2  0  0  0  0
 18 31  1  0  0  0  0
 19 32  1  0  0  0  0
 20 34  1  0  0  0  0
 21 32  1  0  0  0  0
 21 33  2  0  0  0  0
 21 36  1  0  0  0  0
 22 24  2  0  0  0  0
 22 42  1  0  0  0  0
 23 25  2  0  0  0  0
 23 43  1  0  0  0  0
 24 51  1  0  0  0  0
 25 44  1  0  0  0  0
 26 59  1  0  0  0  0
 27 79  1  0  0  0  0
 28 80  1  0  0  0  0
 29 31  2  0  0  0  0
 29 79  1  0  0  0  0
 30 81  1  0  0  0  0
 31 82  1  0  0  0  0
 32 64  2  0  0  0  0
 33 65  1  0  0  0  0
 33 68  1  0  0  0  0
 34 35  2  0  0  0  0
 35 37  1  0  0  0  0
 36 69  1  0  0  0  0
 36 73  2  0  0  0  0
 37 66  1  0  0  0  0
 37 74  2  0  0  0  0
 38 52  1  0  0  0  0
 38 70  1  0  0  0  0
 38 75  2  0  0  0  0
 39 59  1  0  0  0  0
 39 60  1  0  0  0  0
 39 76  2  0  0  0  0
 40 61  1  0  0  0  0
 40 67  1  0  0  0  0
 40 77  2  0  0  0  0
 41 62  1  0  0  0  0
 41 71  1  0  0  0  0
 41 78  2  0  0  0  0
 42 45  1  0  0  0  0
 43 52  1  0  0  0  0
 44 67  1  0  0  0  0
 45 47  1  0  0  0  0
 46 48  1  0  0  0  0
 46 49  1  0  0  0  0
 47 51  1  0  0  0  0
 48 53  1  0  0  0  0
 49 66  1  0  0  0  0
 50 53  1  0  0  0  0
 50 66  1  0  0  0  0
 51 70  1  0  0  0  0
 52 67  1  0  0  0  0
 53 65  1  0  0  0  0
 54 62  1  0  0  0  0
 55 63  1  0  0  0  0
 56 63  1  0  0  0  0
 57 63  1  0  0  0  0
 58 72  1  0  0  0  0
 60 80  1  0  0  0  0
 61 63  1  0  0  0  0
 61 71  1  0  0  0  0
 62 72  1  0  0  0  0
 64 65  1  0  0  0  0
M  CHG  1  72   1
M  ISO  4  35 100  37 100  60 101  80 101
M  END
> <Batch ID>
0129

> <Smiles>
CNC(C)C(=O)NC(C(=O)N1Cc2cc([101O:1][101CH2:1]C(=O)Cc3ccc(C=[100CH:0][100C:0](=O)N4CCCC(n5nc(-c6ccc(Oc7ccc(F)cc7F)cc6)c(C(N)=O)c5N)C4)cc3)ccc2CC1C(=O)NC1CCCc2ccccc21)C(C)(C)C

> <Shape>
0.273

> <Color>
0.077

> <Negative vol penalty>
0.000

$$$$

  -OEChem-04052302193D

 83 91  0     1  0  0  0  0  0999 V2000
  -25.6299  -35.6952   21.1298 C   0  0  0  0  0  0  0  0  0  0  0  0
  -26.2546  -34.4526   21.1641 C   0  0  0  0  0  0  0  0  0  0  0  0
  -25.5846  -14.8278   20.0837 C   0  0  0  0  0  0  0  0  0  0  0  0
  -23.8665  -14.3385   21.7103 C   0  0  0  0  0  0  0  0  0  0  0  0
  -30.7838  -26.6013   24.8458 C   0  0  0  0  0  0  0  0  0  0  0  0
  -24.4054  -35.8764   21.7715 C   0  0  0  0  0  0  0  0  0  0  0  0
  -25.6557  -33.3908   21.8411 C   0  0  0  0  0  0  0  0  0  0  0  0
  -25.7908  -29.0756   19.1943 C   0  0  0  0  0  0  0  0  0  0  0  0
  -30.6197  -26.5926   26.2310 C   0  0  0  0  0  0  0  0  0  0  0  0
  -25.9613  -13.4848   20.0775 C   0  0  0  0  0  0  0  0  0  0  0  0
  -24.2432  -12.9955   21.7041 C   0  0  0  0  0  0  0  0  0  0  0  0
  -26.9966  -28.3759   19.1785 C   0  0  0  0  0  0  0  0  0  0  0  0
  -23.7771  -10.2885   19.7355 C   0  0  0  0  0  0  0  0  0  0  0  0
  -22.7630   -9.3328   19.6740 C   0  0  0  0  0  0  0  0  0  0  0  0
  -29.4819  -24.4665   26.0828 C   0  0  0  0  0  0  0  0  0  0  0  0
  -26.1440  -26.8803   20.8683 C   0  0  0  0  0  0  0  0  0  0  0  0
  -23.4984   -8.4164   21.7850 C   0  0  0  0  0  0  0  0  0  0  0  0
  -24.5372  -15.2547   20.9001 C   0  0  0  0  0  0  0  0  0  0  0  0
  -30.2970  -25.5425   24.0792 C   0  0  0  0  0  0  0  0  0  0  0  0
  -29.6460  -24.4751   24.6977 C   0  0  0  0  0  0  0  0  0  0  0  0
  -23.1899  -17.2604   20.0817 C   0  0  0  0  0  0  0  0  0  0  0  0
  -23.7865  -34.8138   22.4485 C   0  0  0  0  0  0  0  0  0  0  0  0
  -24.7548  -28.6889   20.0566 C   0  0  0  0  0  0  0  0  0  0  0  0
  -24.4224  -33.5584   22.4936 C   0  0  0  0  0  0  0  0  0  0  0  0
  -24.9252  -27.5752   20.8913 C   0  0  0  0  0  0  0  0  0  0  0  0
  -29.9687  -25.5252   26.8495 C   0  0  0  0  0  0  0  0  0  0  0  0
  -25.2906  -12.5686   20.8877 C   0  0  0  0  0  0  0  0  0  0  0  0
  -27.1744  -27.2798   20.0176 C   0  0  0  0  0  0  0  0  0  0  0  0
  -24.6520  -10.3081   20.8218 C   0  0  0  0  0  0  0  0  0  0  0  0
  -22.6236   -8.3968   20.6987 C   0  0  0  0  0  0  0  0  0  0  0  0
  -24.5126   -9.3721   21.8466 C   0  0  0  0  0  0  0  0  0  0  0  0
  -24.1480  -16.6420   20.9073 C   0  0  0  0  0  0  0  0  0  0  0  0
  -23.1911  -18.5750   20.4796 C   0  0  0  0  0  0  0  0  0  0  0  0
  -30.4925  -25.5953   22.6208 C   0  0  0  0  0  0  0  0  0  0  0  0
  -29.1202  -23.3477   23.9357 C   0  0  0  0  0  0  0  0  0  0  0  0
  -27.8248  -22.9804   23.8817 C   0  0  0  0  0  0  0  0  0  0  0  0
  -30.5386  -26.7184   21.8872 C   0  0  0  0  0  0  0  0  0  0  0  0
  -22.3721  -16.6969   19.0477 C   0  0  0  0  0  0  0  0  0  0  0  0
  -27.4469  -21.8172   23.0541 C   0  0  0  0  0  0  0  0  0  0  0  0
  -23.2155  -30.0661   22.4727 C   0  0  0  0  0  0  0  0  0  0  0  0
  -21.3792  -27.3969   22.3135 C   0  0  0  0  0  0  0  0  0  0  0  0
  -21.0995  -24.1236   21.3895 C   0  0  0  0  0  0  0  0  0  0  0  0
  -22.4857  -35.0704   23.1674 C   0  0  0  0  0  0  0  0  0  0  0  0
  -23.4505  -29.4379   20.0425 C   0  0  0  0  0  0  0  0  0  0  0  0
  -23.8366  -27.1071   21.8210 C   0  0  0  0  0  0  0  0  0  0  0  0
  -21.7368  -33.7950   23.5453 C   0  0  0  0  0  0  0  0  0  0  0  0
  -24.0213  -21.3497   24.2699 C   0  0  0  0  0  0  0  0  0  0  0  0
  -22.6883  -32.7851   24.1790 C   0  0  0  0  0  0  0  0  0  0  0  0
  -23.6008  -20.1056   23.4920 C   0  0  0  0  0  0  0  0  0  0  0  0
  -25.5047  -21.3216   24.6348 C   0  0  0  0  0  0  0  0  0  0  0  0
  -25.9824  -19.8702   22.6840 C   0  0  0  0  0  0  0  0  0  0  0  0
  -23.7923  -32.3757   23.1967 C   0  0  1  0  0  0  0  0  0  0  0  0
  -22.6508  -29.2695   21.3307 C   0  0  1  0  0  0  0  0  0  0  0  0
  -24.5040  -19.8993   22.2657 C   0  0  1  0  0  0  0  0  0  0  0  0
  -29.7937  -25.5175   28.3305 C   0  0  0  0  0  0  0  0  0  0  0  0
  -19.4909  -22.1978   21.4231 C   0  0  0  0  0  0  0  0  0  0  0  0
  -21.9285  -26.9931   25.2875 C   0  0  0  0  0  0  0  0  0  0  0  0
  -21.1283  -24.6333   25.0437 C   0  0  0  0  0  0  0  0  0  0  0  0
  -19.5722  -26.5294   24.5896 C   0  0  0  0  0  0  0  0  0  0  0  0
  -21.0820  -23.9360   18.4360 C   0  0  0  0  0  0  0  0  0  0  0  0
  -30.7280  -26.7261   20.3950 C   0  0  0  0  0  0  0  0  0  0  0  0
  -29.5277  -27.3333   19.6782 C   0  0  0  0  0  0  0  0  0  1  0  0
  -21.4268  -26.0272   22.9463 C   0  0  1  0  0  0  0  0  0  0  0  0
  -20.0174  -23.3813   20.6263 C   0  0  2  0  0  0  0  0  0  0  0  0
  -21.0354  -26.0555   24.4508 C   0  0  0  0  0  0  0  0  0  0  0  0
  -24.7165  -17.4937   21.7647 N   0  0  0  0  0  0  0  0  0  0  0  0
  -24.1140  -18.6608   21.4801 N   0  0  0  0  0  0  0  0  0  0  0  0
  -26.3444  -21.0648   23.4551 N   0  0  0  0  0  0  0  0  0  0  0  0
  -22.5819  -27.8760   21.7751 N   0  0  0  0  0  0  0  0  0  0  0  0
  -22.4927  -19.6543   20.0677 N   0  0  0  0  0  0  0  0  0  0  0  0
  -22.4973  -15.3293   18.7674 N   0  0  0  0  0  0  0  0  0  0  0  0
  -23.2831  -31.4251   22.2315 N   0  0  0  0  0  0  0  0  0  0  0  0
  -20.5807  -25.1683   22.1248 N   0  0  0  0  0  0  0  0  0  0  0  0
  -20.5519  -22.8750   19.3306 N   0  3  0  0  0  0  0  0  0  0  0  0
  -21.5662  -17.3890   18.3805 O   0  0  0  0  0  0  0  0  0  0  0  0
  -28.1345  -21.5797   22.0594 O   0  0  0  0  0  0  0  0  0  0  0  0
  -23.5628  -29.4907   23.4974 O   0  0  0  0  0  0  0  0  0  0  0  0
  -20.3124  -28.0160   22.2911 O   0  0  0  0  0  0  0  0  0  0  0  0
  -22.2858  -23.8059   21.3414 O   0  0  0  0  0  0  0  0  0  0  0  0
  -25.6578  -11.2580   20.8818 O   0  0  0  0  0  0  0  0  0  0  0  0
  -28.3506  -26.5955   20.0046 O   0  0  0  0  0  0  0  0  0  1  0  0
  -21.6487   -7.4801   20.6402 F   0  0  0  0  0  0  0  0  0  0  0  0
  -25.3493   -9.3867   22.8932 F   0  0  0  0  0  0  0  0  0  0  0  0
  1  2  1  0  0  0  0
  1  6  2  0  0  0  0
  2  7  2  0  0  0  0
  3 10  2  0  0  0  0
  3 18  1  0  0  0  0
  4 11  1  0  0  0  0
  4 18  2  0  0  0  0
  5  9  2  0  0  0  0
  5 19  1  0  0  0  0
  6 22  1  0  0  0  0
  7 24  1  0  0  0  0
  8 12  2  0  0  0  0
  8 23  1  0  0  0  0
  9 26  1  0  0  0  0
 10 27  1  0  0  0  0
 11 27  2  0  0  0  0
 12 28  1  0  0  0  0
 13 14  2  0  0  0  0
 13 29  1  0  0  0  0
 14 30  1  0  0  0  0
 15 20  1  0  0  0  0
 15 26  2  0  0  0  0
 16 25  1  0  0  0  0
 16 28  2  0  0  0  0
 17 30  2  0  0  0  0
 17 31  1  0  0  0  0
 18 32  1  0  0  0  0
 19 20  2  0  0  0  0
 19 34  1  0  0  0  0
 20 35  1  0  0  0  0
 21 32  1  0  0  0  0
 21 33  2  0  0  0  0
 21 38  1  0  0  0  0
 22 24  2  0  0  0  0
 22 43  1  0  0  0  0
 23 25  2  0  0  0  0
 23 44  1  0  0  0  0
 24 52  1  0  0  0  0
 25 45  1  0  0  0  0
 26 55  1  0  0  0  0
 27 80  1  0  0  0  0
 28 81  1  0  0  0  0
 29 31  2  0  0  0  0
 29 80  1  0  0  0  0
 30 82  1  0  0  0  0
 31 83  1  0  0  0  0
 32 66  2  0  0  0  0
 33 67  1  0  0  0  0
 33 70  1  0  0  0  0
 34 37  2  0  0  0  0
 35 36  2  0  0  0  0
 36 39  1  0  0  0  0
 37 61  1  0  0  0  0
 38 71  1  0  0  0  0
 38 75  2  0  0  0  0
 39 68  1  0  0  0  0
 39 76  2  0  0  0  0
 40 53  1  0  0  0  0
 40 72  1  0  0  0  0
 40 77  2  0  0  0  0
 41 63  1  0  0  0  0
 41 69  1  0  0  0  0
 41 78  2  0  0  0  0
 42 64  1  0  0  0  0
 42 73  1  0  0  0  0
 42 79  2  0  0  0  0
 43 46  1  0  0  0  0
 44 53  1  0  0  0  0
 45 69  1  0  0  0  0
 46 48  1  0  0  0  0
 47 49  1  0  0  0  0
 47 50  1  0  0  0  0
 48 52  1  0  0  0  0
 49 54  1  0  0  0  0
 50 68  1  0  0  0  0
 51 54  1  0  0  0  0
 51 68  1  0  0  0  0
 52 72  1  0  0  0  0
 53 69  1  0  0  0  0
 54 67  1  0  0  0  0
 56 64  1  0  0  0  0
 57 65  1  0  0  0  0
 58 65  1  0  0  0  0
 59 65  1  0  0  0  0
 60 74  1  0  0  0  0
 61 62  1  0  0  0  0
 62 81  1  0  0  0  0
 63 65  1  0  0  0  0
 63 73  1  0  0  0  0
 64 74  1  0  0  0  0
 66 67  1  0  0  0  0
M  CHG  1  74   1
M  ISO  4  36 100  39 100  62 101  81 101
M  END
> <Batch ID>
0129

> <Smiles>
CNC(C)C(=O)NC(C(=O)N1Cc2cc([101O:1][101CH2:1]CC=Cc3ccc(C)cc3C=[100CH:0][100C:0](=O)N3CCCC(n4nc(-c5ccc(Oc6ccc(F)cc6F)cc5)c(C(N)=O)c4N)C3)ccc2CC1C(=O)NC1CCCc2ccccc21)C(C)(C)C

> <Shape>
0.195

> <Color>
0.083

> <Negative vol penalty>
0.000

$$$$

  -OEChem-04052302193D

 86 95  0     1  0  0  0  0  0999 V2000
  -31.5945  -28.9678   16.6176 C   0  0  0  0  0  0  0  0  0  0  0  0
  -30.4802  -28.6278   17.3780 C   0  0  0  0  0  0  0  0  0  0  0  0
  -23.9596  -14.8858   19.6886 C   0  0  0  0  0  0  0  0  0  0  0  0
  -23.0692  -13.6632   21.5727 C   0  0  0  0  0  0  0  0  0  0  0  0
  -32.3504  -27.9689   16.0055 C   0  0  0  0  0  0  0  0  0  0  0  0
  -30.1206  -27.2887   17.5259 C   0  0  0  0  0  0  0  0  0  0  0  0
  -19.3399  -28.4704   23.1785 C   0  0  0  0  0  0  0  0  0  0  0  0
  -28.9361  -26.1117   22.3068 C   0  0  0  0  0  0  0  0  0  0  0  0
  -18.3169  -27.9515   22.3849 C   0  0  0  0  0  0  0  0  0  0  0  0
  -24.9996  -13.9626   19.5810 C   0  0  0  0  0  0  0  0  0  0  0  0
  -24.1092  -12.7400   21.4650 C   0  0  0  0  0  0  0  0  0  0  0  0
  -27.6750  -26.4932   22.7626 C   0  0  0  0  0  0  0  0  0  0  0  0
  -27.9362  -13.3277   21.1294 C   0  0  0  0  0  0  0  0  0  0  0  0
  -29.2260  -13.8245   20.9419 C   0  0  0  0  0  0  0  0  0  0  0  0
  -20.6242  -26.4518   22.8428 C   0  0  0  0  0  0  0  0  0  0  0  0
  -26.8716  -24.2475   22.4010 C   0  0  0  0  0  0  0  0  0  0  0  0
  -29.3833  -12.6266   18.8497 C   0  0  0  0  0  0  0  0  0  0  0  0
  -22.9944  -14.7362   20.6845 C   0  0  0  0  0  0  0  0  0  0  0  0
  -19.6012  -25.9329   22.0492 C   0  0  0  0  0  0  0  0  0  0  0  0
  -20.6631  -15.6323   20.1654 C   0  0  0  0  0  0  0  0  0  0  0  0
  -20.4936  -27.7206   23.4074 C   0  0  0  0  0  0  0  0  0  0  0  0
  -32.0056  -26.6162   16.1539 C   0  0  0  0  0  0  0  0  0  0  0  0
  -29.1719  -24.7958   21.8836 C   0  0  0  0  0  0  0  0  0  0  0  0
  -30.8719  -26.2708   16.9141 C   0  0  0  0  0  0  0  0  0  0  0  0
  -28.1373  -23.8512   21.9426 C   0  0  0  0  0  0  0  0  0  0  0  0
  -18.4475  -26.6828   21.8203 C   0  0  0  0  0  0  0  0  0  0  0  0
  -25.0744  -12.8897   20.4692 C   0  0  0  0  0  0  0  0  0  0  0  0
  -26.6418  -25.5618   22.8071 C   0  0  0  0  0  0  0  0  0  0  0  0
  -27.3699  -12.4802   20.1771 C   0  0  0  0  0  0  0  0  0  0  0  0
  -29.9495  -13.4740   19.8021 C   0  0  0  0  0  0  0  0  0  0  0  0
  -28.0935  -12.1297   19.0373 C   0  0  0  0  0  0  0  0  0  0  0  0
  -21.9201  -15.6898   20.7965 C   0  0  0  0  0  0  0  0  0  0  0  0
  -20.0121  -16.7637   20.5930 C   0  0  0  0  0  0  0  0  0  0  0  0
  -23.8361  -27.5296   24.0710 C   0  0  0  0  0  0  0  0  0  0  0  0
  -22.9339  -28.3822   23.5579 C   0  0  0  0  0  0  0  0  0  0  0  0
  -19.7670  -24.6045   21.4737 C   0  0  0  0  0  0  0  0  0  0  0  0
  -19.9250  -23.4639   22.1756 C   0  0  0  0  0  0  0  0  0  0  0  0
  -20.1313  -14.6445   19.2726 C   0  0  0  0  0  0  0  0  0  0  0  0
  -20.0715  -22.1892   21.4444 C   0  0  0  0  0  0  0  0  0  0  0  0
  -30.0373  -23.4426   19.1406 C   0  0  0  0  0  0  0  0  0  0  0  0
  -30.1522  -20.7546   20.9528 C   0  0  0  0  0  0  0  0  0  0  0  0
  -29.0967  -19.0925   23.7402 C   0  0  0  0  0  0  0  0  0  0  0  0
  -32.8256  -25.5749   15.4343 C   0  0  0  0  0  0  0  0  0  0  0  0
  -30.5450  -24.3935   21.4197 C   0  0  0  0  0  0  0  0  0  0  0  0
  -28.3442  -22.4208   21.5188 C   0  0  0  0  0  0  0  0  0  0  0  0
  -23.2625  -26.7251   25.1983 C   0  0  0  0  0  0  0  0  0  0  0  0
  -32.5956  -24.1562   15.9488 C   0  0  0  0  0  0  0  0  0  0  0  0
  -21.9430  -27.4321   25.5054 C   0  0  0  0  0  0  0  0  0  0  0  0
  -21.1637  -20.0667   24.2254 C   0  0  0  0  0  0  0  0  0  0  0  0
  -31.1033  -23.8778   16.0982 C   0  0  0  0  0  0  0  0  0  0  0  0
  -21.3995  -18.7405   23.5075 C   0  0  0  0  0  0  0  0  0  0  0  0
  -21.5078  -21.2645   23.3413 C   0  0  0  0  0  0  0  0  0  0  0  0
  -21.0418  -19.9282   21.3071 C   0  0  0  0  0  0  0  0  0  0  0  0
  -21.6047  -28.2857   24.2701 C   0  0  2  0  0  0  0  0  0  0  0  0
  -30.4643  -24.8278   17.1183 C   0  0  1  0  0  0  0  0  0  0  0  0
  -30.5357  -23.1552   20.5287 C   0  0  1  0  0  0  0  0  0  0  0  0
  -20.6575  -18.7104   22.1620 C   0  0  1  0  0  0  0  0  0  0  0  0
  -17.3303  -26.1576   20.9769 C   0  0  0  0  0  0  0  0  0  0  0  0
  -23.1073  -29.3575   22.4427 C   0  0  0  0  0  0  0  0  0  0  0  0
  -29.3336  -16.8972   24.9327 C   0  0  0  0  0  0  0  0  0  0  0  0
  -28.3049  -19.4466   18.9067 C   0  0  0  0  0  0  0  0  0  0  0  0
  -27.8242  -17.6558   20.5890 C   0  0  0  0  0  0  0  0  0  0  0  0
  -30.1477  -17.9751   19.7393 C   0  0  0  0  0  0  0  0  0  0  0  0
  -30.2338  -20.3893   26.1452 C   0  0  0  0  0  0  0  0  0  0  0  0
  -25.2460  -27.2902   23.6558 C   0  0  0  0  0  0  0  0  0  1  0  0
  -29.1650  -19.6767   21.3302 C   0  0  1  0  0  0  0  0  0  0  0  0
  -29.8589  -18.3182   24.8004 C   0  0  2  0  0  0  0  0  0  0  0  0
  -28.8557  -18.7159   20.1475 C   0  0  0  0  0  0  0  0  0  0  0  0
  -22.0616  -16.7722   21.5663 N   0  0  0  0  0  0  0  0  0  0  0  0
  -20.8850  -17.4052   21.4216 N   0  0  0  0  0  0  0  0  0  0  0  0
  -20.8318  -21.1831   22.0377 N   0  0  0  0  0  0  0  0  0  0  0  0
  -29.7027  -22.0778   21.0669 N   0  0  0  0  0  0  0  0  0  0  0  0
  -18.7840  -17.2624   20.3371 N   0  0  0  0  0  0  0  0  0  0  0  0
  -20.9338  -13.5454   18.9377 N   0  0  0  0  0  0  0  0  0  0  0  0
  -30.7701  -24.4011   18.4670 N   0  0  0  0  0  0  0  0  0  0  0  0
  -29.7134  -19.0156   22.5094 N   0  0  0  0  0  0  0  0  0  0  0  0
  -29.7327  -18.9910   26.1242 N   0  3  0  0  0  0  0  0  0  0  0  0
  -18.9847  -14.7423   18.7732 O   0  0  0  0  0  0  0  0  0  0  0  0
  -19.5147  -22.0948   20.3490 O   0  0  0  0  0  0  0  0  0  0  0  0
  -29.0612  -22.8384   18.7120 O   0  0  0  0  0  0  0  0  0  0  0  0
  -31.2829  -20.4347   20.5777 O   0  0  0  0  0  0  0  0  0  0  0  0
  -28.0561  -19.7013   23.9792 O   0  0  0  0  0  0  0  0  0  0  0  0
  -26.0890  -11.9884   20.3643 O   0  0  0  0  0  0  0  0  0  0  0  0
  -25.4097  -25.9317   23.2511 O   0  0  0  0  0  0  0  0  0  1  0  0
  -31.1875  -13.9524   19.6214 F   0  0  0  0  0  0  0  0  0  0  0  0
  -27.5543  -11.3169   18.1183 F   0  0  0  0  0  0  0  0  0  0  0  0
  1  2  1  0  0  0  0
  1  5  2  0  0  0  0
  2  6  2  0  0  0  0
  3 10  2  0  0  0  0
  3 18  1  0  0  0  0
  4 11  1  0  0  0  0
  4 18  2  0  0  0  0
  5 22  1  0  0  0  0
  6 24  1  0  0  0  0
  7  9  2  0  0  0  0
  7 21  1  0  0  0  0
  8 12  2  0  0  0  0
  8 23  1  0  0  0  0
  9 26  1  0  0  0  0
 10 27  1  0  0  0  0
 11 27  2  0  0  0  0
 12 28  1  0  0  0  0
 13 14  2  0  0  0  0
 13 29  1  0  0  0  0
 14 30  1  0  0  0  0
 15 19  1  0  0  0  0
 15 21  2  0  0  0  0
 16 25  1  0  0  0  0
 16 28  2  0  0  0  0
 17 30  2  0  0  0  0
 17 31  1  0  0  0  0
 18 32  1  0  0  0  0
 19 26  2  0  0  0  0
 19 36  1  0  0  0  0
 20 32  1  0  0  0  0
 20 33  2  0  0  0  0
 20 38  1  0  0  0  0
 21 54  1  0  0  0  0
 22 24  2  0  0  0  0
 22 43  1  0  0  0  0
 23 25  2  0  0  0  0
 23 44  1  0  0  0  0
 24 55  1  0  0  0  0
 25 45  1  0  0  0  0
 26 58  1  0  0  0  0
 27 83  1  0  0  0  0
 28 84  1  0  0  0  0
 29 31  2  0  0  0  0
 29 83  1  0  0  0  0
 30 85  1  0  0  0  0
 31 86  1  0  0  0  0
 32 69  2  0  0  0  0
 33 70  1  0  0  0  0
 33 73  1  0  0  0  0
 34 35  2  0  0  0  0
 34 46  1  0  0  0  0
 34 65  1  0  0  0  0
 35 54  1  0  0  0  0
 35 59  1  0  0  0  0
 36 37  2  0  0  0  0
 37 39  1  0  0  0  0
 38 74  1  0  0  0  0
 38 78  2  0  0  0  0
 39 71  1  0  0  0  0
 39 79  2  0  0  0  0
 40 56  1  0  0  0  0
 40 75  1  0  0  0  0
 40 80  2  0  0  0  0
 41 66  1  0  0  0  0
 41 72  1  0  0  0  0
 41 81  2  0  0  0  0
 42 67  1  0  0  0  0
 42 76  1  0  0  0  0
 42 82  2  0  0  0  0
 43 47  1  0  0  0  0
 44 56  1  0  0  0  0
 45 72  1  0  0  0  0
 46 48  1  0  0  0  0
 47 50  1  0  0  0  0
 48 54  1  0  0  0  0
 49 51  1  0  0  0  0
 49 52  1  0  0  0  0
 50 55  1  0  0  0  0
 51 57  1  0  0  0  0
 52 71  1  0  0  0  0
 53 57  1  0  0  0  0
 53 71  1  0  0  0  0
 55 75  1  0  0  0  0
 56 72  1  0  0  0  0
 57 70  1  0  0  0  0
 60 67  1  0  0  0  0
 61 68  1  0  0  0  0
 62 68  1  0  0  0  0
 63 68  1  0  0  0  0
 64 77  1  0  0  0  0
 65 84  1  0  0  0  0
 66 68  1  0  0  0  0
 66 76  1  0  0  0  0
 67 77  1  0  0  0  0
 69 70  1  0  0  0  0
M  CHG  1  77   1
M  ISO  4  37 100  39 100  65 101  84 101
M  END
> <Batch ID>
0129

> <Smiles>
CNC(C)C(=O)NC(C(=O)N1Cc2cc([101O:1][101CH2:1]C3=C(C)C(c4ccc(C)c(C=[100CH:0][100C:0](=O)N5CCCC(n6nc(-c7ccc(Oc8ccc(F)cc8F)cc7)c(C(N)=O)c6N)C5)c4)CC3)ccc2CC1C(=O)NC1CCCc2ccccc21)C(C)(C)C

> <Shape>
0.222

> <Color>
0.067

> <Negative vol penalty>
0.000

$$$$

  -OEChem-04052302193D

 84 92  0     1  0  0  0  0  0999 V2000
  -29.6399  -25.9063   14.1939 C   0  0  0  0  0  0  0  0  0  0  0  0
  -28.2580  -25.9520   14.3475 C   0  0  0  0  0  0  0  0  0  0  0  0
  -26.9807  -13.1667   21.0396 C   0  0  0  0  0  0  0  0  0  0  0  0
  -26.9682  -13.3535   18.6308 C   0  0  0  0  0  0  0  0  0  0  0  0
  -23.7569  -22.8909   21.1234 C   0  0  0  0  0  0  0  0  0  0  0  0
  -30.4624  -25.8190   15.3163 C   0  0  0  0  0  0  0  0  0  0  0  0
  -27.6977  -25.9092   15.6237 C   0  0  0  0  0  0  0  0  0  0  0  0
  -22.1033  -28.3854   19.3504 C   0  0  0  0  0  0  0  0  0  0  0  0
  -26.2748  -11.9670   20.9502 C   0  0  0  0  0  0  0  0  0  0  0  0
  -26.2623  -12.1538   18.5415 C   0  0  0  0  0  0  0  0  0  0  0  0
  -22.4173  -23.2684   21.0309 C   0  0  0  0  0  0  0  0  0  0  0  0
  -21.0699  -27.9333   20.1698 C   0  0  0  0  0  0  0  0  0  0  0  0
  -23.0791  -10.9897   20.4431 C   0  0  0  0  0  0  0  0  0  0  0  0
  -22.0020  -10.8064   21.3101 C   0  0  0  0  0  0  0  0  0  0  0  0
  -22.5920  -27.8623   22.0400 C   0  0  0  0  0  0  0  0  0  0  0  0
  -22.2142  -23.1366   23.4348 C   0  0  0  0  0  0  0  0  0  0  0  0
  -23.0822   -8.8556   22.2398 C   0  0  0  0  0  0  0  0  0  0  0  0
  -27.3274  -13.8600   19.8799 C   0  0  0  0  0  0  0  0  0  0  0  0
  -24.3251  -22.6361   22.3716 C   0  0  0  0  0  0  0  0  0  0  0  0
  -29.4541  -15.2655   19.9770 C   0  0  0  0  0  0  0  0  0  0  0  0
  -29.9123  -25.7849   16.6074 C   0  0  0  0  0  0  0  0  0  0  0  0
  -23.3936  -28.5692   19.8680 C   0  0  0  0  0  0  0  0  0  0  0  0
  -28.5135  -25.8200   16.7644 C   0  0  0  0  0  0  0  0  0  0  0  0
  -23.6394  -28.3193   21.2257 C   0  0  0  0  0  0  0  0  0  0  0  0
  -23.5538  -22.7590   23.5273 C   0  0  0  0  0  0  0  0  0  0  0  0
  -25.9156  -11.4605   19.7012 C   0  0  0  0  0  0  0  0  0  0  0  0
  -21.3148  -27.6689   21.5142 C   0  0  0  0  0  0  0  0  0  0  0  0
  -21.6459  -23.3913   22.1866 C   0  0  0  0  0  0  0  0  0  0  0  0
  -24.1579  -10.1059   20.4744 C   0  0  0  0  0  0  0  0  0  0  0  0
  -22.0035   -9.7393   22.2084 C   0  0  0  0  0  0  0  0  0  0  0  0
  -24.1594   -9.0389   21.3727 C   0  0  0  0  0  0  0  0  0  0  0  0
  -28.0562  -15.0996   19.9716 C   0  0  0  0  0  0  0  0  0  0  0  0
  -29.6384  -16.6226   20.0804 C   0  0  0  0  0  0  0  0  0  0  0  0
  -25.7260  -22.2428   22.4388 C   0  0  0  0  0  0  0  0  0  0  0  0
  -30.4931  -14.2808   19.8956 C   0  0  0  0  0  0  0  0  0  0  0  0
  -26.1278  -20.8230   22.3797 C   0  0  0  0  0  0  0  0  0  0  0  0
  -26.2481  -27.3005   19.2802 C   0  0  0  0  0  0  0  0  0  0  0  0
  -27.2531  -29.5631   21.3761 C   0  0  0  0  0  0  0  0  0  0  0  0
  -26.5019  -31.6413   23.9767 C   0  0  0  0  0  0  0  0  0  0  0  0
  -30.8397  -25.6426   17.7881 C   0  0  0  0  0  0  0  0  0  0  0  0
  -24.4912  -29.0830   18.9772 C   0  0  0  0  0  0  0  0  0  0  0  0
  -25.0021  -28.5200   21.8349 C   0  0  0  0  0  0  0  0  0  0  0  0
  -30.1818  -25.9800   19.1236 C   0  0  0  0  0  0  0  0  0  0  0  0
  -27.5692  -20.7852   19.0103 C   0  0  0  0  0  0  0  0  0  0  0  0
  -28.8176  -25.3061   19.2320 C   0  0  0  0  0  0  0  0  0  0  0  0
  -27.9418  -19.3119   18.8668 C   0  0  0  0  0  0  0  0  0  0  0  0
  -26.2986  -20.9756   19.8373 C   0  0  0  0  0  0  0  0  0  0  0  0
  -26.7286  -18.8484   21.0333 C   0  0  0  0  0  0  0  0  0  0  0  0
  -27.8690  -25.8009   18.1334 C   0  0  1  0  0  0  0  0  0  0  0  0
  -25.8866  -28.7434   19.4918 C   0  0  1  0  0  0  0  0  0  0  0  0
  -28.0301  -18.6362   20.2443 C   0  0  1  0  0  0  0  0  0  0  0  0
  -24.4491  -23.7795   25.6352 C   0  0  0  0  0  0  0  0  0  0  0  0
  -27.5391  -33.3437   25.5009 C   0  0  0  0  0  0  0  0  0  0  0  0
  -28.6088  -27.3265   22.9476 C   0  0  0  0  0  0  0  0  0  0  0  0
  -28.7932  -28.8969   24.8887 C   0  0  0  0  0  0  0  0  0  0  0  0
  -29.9556  -29.4240   22.7455 C   0  0  0  0  0  0  0  0  0  0  0  0
  -24.6727  -33.7690   23.0354 C   0  0  0  0  0  0  0  0  0  0  0  0
  -24.1378  -22.4932   24.8764 C   0  0  0  0  0  0  0  0  0  0  0  0
  -18.7227  -25.4490   22.6999 C   0  0  0  0  0  0  0  0  0  0  0  0
  -19.2811  -26.4502   21.7008 C   0  0  0  0  0  0  0  0  0  1  0  0
  -19.7883  -24.4829   23.1932 C   0  0  0  0  0  0  0  0  0  0  0  0
  -27.4387  -29.6268   22.8729 C   0  0  1  0  0  0  0  0  0  0  0  0
  -26.7830  -33.1161   24.2013 C   0  0  2  0  0  0  0  0  0  0  0  0
  -28.6738  -28.8128   23.3521 C   0  0  0  0  0  0  0  0  0  0  0  0
  -27.3990  -16.2587   20.0644 N   0  0  0  0  0  0  0  0  0  0  0  0
  -26.7038  -23.0988   22.5515 N   0  0  0  0  0  0  0  0  0  0  0  0
  -28.3884  -17.1659   20.1292 N   0  0  0  0  0  0  0  0  0  0  0  0
  -26.3844  -20.2716   21.1256 N   0  0  0  0  0  0  0  0  0  0  0  0
  -26.0440  -29.0178   20.9216 N   0  0  0  0  0  0  0  0  0  0  0  0
  -30.7462  -17.3923   20.1336 N   0  0  0  0  0  0  0  0  0  0  0  0
  -30.1284  -12.9314   19.7936 N   0  0  0  0  0  0  0  0  0  0  0  0
  -27.3487  -27.1096   18.4667 N   0  0  0  0  0  0  0  0  0  0  0  0
  -27.4861  -31.0434   23.2184 N   0  0  0  0  0  0  0  0  0  0  0  0
  -25.5069  -33.8837   24.2593 N   0  3  0  0  0  0  0  0  0  0  0  0
  -31.7091  -14.5873   19.9294 O   0  0  0  0  0  0  0  0  0  0  0  0
  -26.2073  -20.2096   23.4456 O   0  0  0  0  0  0  0  0  0  0  0  0
  -25.5790  -26.4251   19.8164 O   0  0  0  0  0  0  0  0  0  0  0  0
  -28.1449  -29.9883   20.6374 O   0  0  0  0  0  0  0  0  0  0  0  0
  -25.5104  -31.0754   24.4319 O   0  0  0  0  0  0  0  0  0  0  0  0
  -25.2269  -10.2898   19.6136 O   0  0  0  0  0  0  0  0  0  0  0  0
  -20.3081  -27.2270   22.3160 O   0  0  0  0  0  0  0  0  0  1  0  0
  -20.3288  -23.7595   22.0958 O   0  0  0  0  0  0  0  0  0  0  0  0
  -20.9697   -9.5643   23.0419 F   0  0  0  0  0  0  0  0  0  0  0  0
  -25.1935   -8.1872   21.4083 F   0  0  0  0  0  0  0  0  0  0  0  0
  1  2  1  0  0  0  0
  1  6  2  0  0  0  0
  2  7  2  0  0  0  0
  3  9  2  0  0  0  0
  3 18  1  0  0  0  0
  4 10  1  0  0  0  0
  4 18  2  0  0  0  0
  5 11  2  0  0  0  0
  5 19  1  0  0  0  0
  6 21  1  0  0  0  0
  7 23  1  0  0  0  0
  8 12  2  0  0  0  0
  8 22  1  0  0  0  0
  9 26  1  0  0  0  0
 10 26  2  0  0  0  0
 11 28  1  0  0  0  0
 12 27  1  0  0  0  0
 13 14  2  0  0  0  0
 13 29  1  0  0  0  0
 14 30  1  0  0  0  0
 15 24  1  0  0  0  0
 15 27  2  0  0  0  0
 16 25  1  0  0  0  0
 16 28  2  0  0  0  0
 17 30  2  0  0  0  0
 17 31  1  0  0  0  0
 18 32  1  0  0  0  0
 19 25  2  0  0  0  0
 19 34  1  0  0  0  0
 20 32  1  0  0  0  0
 20 33  2  0  0  0  0
 20 35  1  0  0  0  0
 21 23  2  0  0  0  0
 21 40  1  0  0  0  0
 22 24  2  0  0  0  0
 22 41  1  0  0  0  0
 23 49  1  0  0  0  0
 24 42  1  0  0  0  0
 25 58  1  0  0  0  0
 26 80  1  0  0  0  0
 27 81  1  0  0  0  0
 28 82  1  0  0  0  0
 29 31  2  0  0  0  0
 29 80  1  0  0  0  0
 30 83  1  0  0  0  0
 31 84  1  0  0  0  0
 32 65  2  0  0  0  0
 33 67  1  0  0  0  0
 33 70  1  0  0  0  0
 34 36  1  0  0  0  0
 34 66  2  0  0  0  0
 35 71  1  0  0  0  0
 35 75  2  0  0  0  0
 36 68  1  0  0  0  0
 36 76  2  0  0  0  0
 37 50  1  0  0  0  0
 37 72  1  0  0  0  0
 37 77  2  0  0  0  0
 38 62  1  0  0  0  0
 38 69  1  0  0  0  0
 38 78  2  0  0  0  0
 39 63  1  0  0  0  0
 39 73  1  0  0  0  0
 39 79  2  0  0  0  0
 40 43  1  0  0  0  0
 41 50  1  0  0  0  0
 42 69  1  0  0  0  0
 43 45  1  0  0  0  0
 44 46  1  0  0  0  0
 44 47  1  0  0  0  0
 45 49  1  0  0  0  0
 46 51  1  0  0  0  0
 47 68  1  0  0  0  0
 48 51  1  0  0  0  0
 48 68  1  0  0  0  0
 49 72  1  0  0  0  0
 50 69  1  0  0  0  0
 51 67  1  0  0  0  0
 52 58  1  0  0  0  0
 53 63  1  0  0  0  0
 54 64  1  0  0  0  0
 55 64  1  0  0  0  0
 56 64  1  0  0  0  0
 57 74  1  0  0  0  0
 59 60  1  0  0  0  0
 59 61  1  0  0  0  0
 60 81  1  0  0  0  0
 61 82  1  0  0  0  0
 62 64  1  0  0  0  0
 62 73  1  0  0  0  0
 63 74  1  0  0  0  0
 65 67  1  0  0  0  0
M  CHG  1  74   1
M  ISO  4  34 100  36 100  60 101  81 101
M  END
> <Batch ID>
0129

> <Smiles>
CCc1cc(OCC[101CH2:1][101O:1]c2ccc3c(c2)CN(C(=O)C(NC(=O)C(C)NC)C(C)(C)C)C(C(=O)NC2CCCc4ccccc42)C3)ccc1[100C:0](=N)[100C:0](=O)N1CCCC(n2nc(-c3ccc(Oc4ccc(F)cc4F)cc3)c(C(N)=O)c2N)C1

> <Shape>
0.269

> <Color>
0.069

> <Negative vol penalty>
0.000

$$$$

  -OEChem-04052302193D

 83 91  0     1  0  0  0  0  0999 V2000
  -29.0952  -18.6019   18.2065 C   0  0  0  0  0  0  0  0  0  0  0  0
  -27.9417  -19.3779   18.1558 C   0  0  0  0  0  0  0  0  0  0  0  0
  -24.5369  -15.9921   20.8501 C   0  0  0  0  0  0  0  0  0  0  0  0
  -26.7938  -16.6109   21.4505 C   0  0  0  0  0  0  0  0  0  0  0  0
  -30.1098  -18.9213   19.1078 C   0  0  0  0  0  0  0  0  0  0  0  0
  -27.8017  -20.4734   19.0072 C   0  0  0  0  0  0  0  0  0  0  0  0
  -24.8968  -27.0168   19.2542 C   0  0  0  0  0  0  0  0  0  0  0  0
  -25.0342  -15.0999   19.9002 C   0  0  0  0  0  0  0  0  0  0  0  0
  -27.2911  -15.7187   20.5006 C   0  0  0  0  0  0  0  0  0  0  0  0
  -24.0539  -27.7917   20.0497 C   0  0  0  0  0  0  0  0  0  0  0  0
  -29.1610  -13.3401   18.4848 C   0  0  0  0  0  0  0  0  0  0  0  0
  -30.2223  -12.5166   18.8605 C   0  0  0  0  0  0  0  0  0  0  0  0
  -20.6966  -27.4123   22.9585 C   0  0  0  0  0  0  0  0  0  0  0  0
  -25.9060  -28.2958   21.5108 C   0  0  0  0  0  0  0  0  0  0  0  0
  -18.0768  -28.1491   22.3450 C   0  0  0  0  0  0  0  0  0  0  0  0
  -28.8610  -11.5624   20.6137 C   0  0  0  0  0  0  0  0  0  0  0  0
  -25.4167  -16.7476   21.6252 C   0  0  0  0  0  0  0  0  0  0  0  0
  -19.7764  -26.4449   22.5548 C   0  0  0  0  0  0  0  0  0  0  0  0
  -24.6178  -17.4009   23.9582 C   0  0  0  0  0  0  0  0  0  0  0  0
  -29.9864  -20.0269   19.9639 C   0  0  0  0  0  0  0  0  0  0  0  0
  -26.2505  -26.8665   19.5877 C   0  0  0  0  0  0  0  0  0  0  0  0
  -28.8151  -20.8071   19.9217 C   0  0  0  0  0  0  0  0  0  0  0  0
  -26.7646  -27.5205   20.7165 C   0  0  0  0  0  0  0  0  0  0  0  0
  -20.3069  -28.7481   23.0555 C   0  0  0  0  0  0  0  0  0  0  0  0
  -18.4665  -26.8133   22.2480 C   0  0  0  0  0  0  0  0  0  0  0  0
  -18.9970  -29.1165   22.7487 C   0  0  0  0  0  0  0  0  0  0  0  0
  -26.4113  -14.9632   19.7255 C   0  0  0  0  0  0  0  0  0  0  0  0
  -24.5577  -28.4290   21.1798 C   0  0  0  0  0  0  0  0  0  0  0  0
  -27.9498  -13.2748   19.1736 C   0  0  0  0  0  0  0  0  0  0  0  0
  -30.0723  -11.6277   19.9250 C   0  0  0  0  0  0  0  0  0  0  0  0
  -27.7998  -12.3860   20.2380 C   0  0  0  0  0  0  0  0  0  0  0  0
  -24.9035  -17.6698   22.6062 C   0  0  0  0  0  0  0  0  0  0  0  0
  -24.1586  -18.5956   24.4563 C   0  0  0  0  0  0  0  0  0  0  0  0
  -20.2136  -25.0580   22.4631 C   0  0  0  0  0  0  0  0  0  0  0  0
  -21.2175  -24.6057   21.6845 C   0  0  0  0  0  0  0  0  0  0  0  0
  -24.7553  -16.1802   24.6977 C   0  0  0  0  0  0  0  0  0  0  0  0
  -21.5488  -23.1669   21.7094 C   0  0  0  0  0  0  0  0  0  0  0  0
  -28.1105  -24.4076   20.3610 C   0  0  0  0  0  0  0  0  0  0  0  0
  -30.4564  -26.6445   20.2354 C   0  0  0  0  0  0  0  0  0  0  0  0
  -31.3340  -29.9365   20.4323 C   0  0  0  0  0  0  0  0  0  0  0  0
  -31.0894  -20.3049   20.9543 C   0  0  0  0  0  0  0  0  0  0  0  0
  -27.1526  -26.0489   18.7044 C   0  0  0  0  0  0  0  0  0  0  0  0
  -28.2149  -27.4075   21.1066 C   0  0  0  0  0  0  0  0  0  0  0  0
  -31.0246  -21.7040   21.5614 C   0  0  0  0  0  0  0  0  0  0  0  0
  -24.5281  -23.3113   23.8389 C   0  0  0  0  0  0  0  0  0  0  0  0
  -29.6013  -22.0285   22.0040 C   0  0  0  0  0  0  0  0  0  0  0  0
  -24.9579  -21.8467   23.8423 C   0  0  0  0  0  0  0  0  0  0  0  0
  -23.9103  -23.7227   22.5034 C   0  0  0  0  0  0  0  0  0  0  0  0
  -23.2096  -21.3841   22.0789 C   0  0  0  0  0  0  0  0  0  0  0  0
  -28.6369  -22.0179   20.8118 C   0  0  1  0  0  0  0  0  0  0  0  0
  -28.3999  -25.5470   19.4253 C   0  0  1  0  0  0  0  0  0  0  0  0
  -23.7909  -20.9360   23.4289 C   0  0  1  0  0  0  0  0  0  0  0  0
  -17.4539  -25.8034   21.8120 C   0  0  0  0  0  0  0  0  0  0  0  0
  -18.5568  -30.5404   22.8456 C   0  0  0  0  0  0  0  0  0  0  0  0
  -33.3310  -31.4526   20.3267 C   0  0  0  0  0  0  0  0  0  0  0  0
  -31.2564  -25.7829   23.0510 C   0  0  0  0  0  0  0  0  0  0  0  0
  -32.5739  -27.9025   23.2500 C   0  0  0  0  0  0  0  0  0  0  0  0
  -33.1760  -26.2205   21.5089 C   0  0  0  0  0  0  0  0  0  0  0  0
  -30.2587  -31.3807   18.0835 C   0  0  0  0  0  0  0  0  0  0  0  0
  -21.3188  -29.7763   23.4942 C   0  0  0  0  0  0  0  0  0  0  0  0
  -21.8634  -30.6323   22.3486 C   0  0  0  0  0  0  0  0  0  0  0  0
  -22.6402  -29.8295   21.3115 C   0  0  0  0  0  0  0  0  0  1  0  0
  -31.0764  -27.6002   21.2258 C   0  0  1  0  0  0  0  0  0  0  0  0
  -32.2042  -30.8022   19.5391 C   0  0  2  0  0  0  0  0  0  0  0  0
  -31.9929  -26.8773   22.2529 C   0  0  0  0  0  0  0  0  0  0  0  0
  -24.6471  -18.9360   22.2670 N   0  0  0  0  0  0  0  0  0  0  0  0
  -24.1954  -19.4733   23.4130 N   0  0  0  0  0  0  0  0  0  0  0  0
  -22.8358  -22.8027   22.1011 N   0  0  0  0  0  0  0  0  0  0  0  0
  -29.0554  -26.5918   20.2146 N   0  0  0  0  0  0  0  0  0  0  0  0
  -23.7308  -18.9706   25.6806 N   0  0  0  0  0  0  0  0  0  0  0  0
  -25.2423  -15.0471   24.0320 N   0  0  0  0  0  0  0  0  0  0  0  0
  -28.7710  -23.2364   20.0425 N   0  0  0  0  0  0  0  0  0  0  0  0
  -31.7540  -28.6232   20.4367 N   0  0  0  0  0  0  0  0  0  0  0  0
  -31.3894  -31.8788   18.9083 N   0  3  0  0  0  0  0  0  0  0  0  0
  -24.4397  -16.0926   25.9086 O   0  0  0  0  0  0  0  0  0  0  0  0
  -20.6658  -22.3742   21.3766 O   0  0  0  0  0  0  0  0  0  0  0  0
  -27.3459  -24.5788   21.3032 O   0  0  0  0  0  0  0  0  0  0  0  0
  -31.1880  -25.9747   19.5020 O   0  0  0  0  0  0  0  0  0  0  0  0
  -30.3796  -30.3817   21.0659 O   0  0  0  0  0  0  0  0  0  0  0  0
  -26.8969  -14.0925   18.7988 O   0  0  0  0  0  0  0  0  0  0  0  0
  -23.7370  -29.1854   21.9584 O   0  0  0  0  0  0  0  0  0  1  0  0
  -31.0909  -10.8358   20.2847 F   0  0  0  0  0  0  0  0  0  0  0  0
  -26.6382  -12.3179   20.9027 F   0  0  0  0  0  0  0  0  0  0  0  0
  1  2  1  0  0  0  0
  1  5  2  0  0  0  0
  2  6  2  0  0  0  0
  3  8  2  0  0  0  0
  3 17  1  0  0  0  0
  4  9  1  0  0  0  0
  4 17  2  0  0  0  0
  5 20  1  0  0  0  0
  6 22  1  0  0  0  0
  7 10  2  0  0  0  0
  7 21  1  0  0  0  0
  8 27  1  0  0  0  0
  9 27  2  0  0  0  0
 10 28  1  0  0  0  0
 11 12  2  0  0  0  0
 11 29  1  0  0  0  0
 12 30  1  0  0  0  0
 13 18  2  0  0  0  0
 13 24  1  0  0  0  0
 14 23  1  0  0  0  0
 14 28  2  0  0  0  0
 15 25  2  0  0  0  0
 15 26  1  0  0  0  0
 16 30  2  0  0  0  0
 16 31  1  0  0  0  0
 17 32  1  0  0  0  0
 18 25  1  0  0  0  0
 18 34  1  0  0  0  0
 19 32  1  0  0  0  0
 19 33  2  0  0  0  0
 19 36  1  0  0  0  0
 20 22  2  0  0  0  0
 20 41  1  0  0  0  0
 21 23  2  0  0  0  0
 21 42  1  0  0  0  0
 22 50  1  0  0  0  0
 23 43  1  0  0  0  0
 24 26  2  0  0  0  0
 24 60  1  0  0  0  0
 25 53  1  0  0  0  0
 26 54  1  0  0  0  0
 27 80  1  0  0  0  0
 28 81  1  0  0  0  0
 29 31  2  0  0  0  0
 29 80  1  0  0  0  0
 30 82  1  0  0  0  0
 31 83  1  0  0  0  0
 32 66  2  0  0  0  0
 33 67  1  0  0  0  0
 33 70  1  0  0  0  0
 34 35  2  0  0  0  0
 35 37  1  0  0  0  0
 36 71  1  0  0  0  0
 36 75  2  0  0  0  0
 37 68  1  0  0  0  0
 37 76  2  0  0  0  0
 38 51  1  0  0  0  0
 38 72  1  0  0  0  0
 38 77  2  0  0  0  0
 39 63  1  0  0  0  0
 39 69  1  0  0  0  0
 39 78  2  0  0  0  0
 40 64  1  0  0  0  0
 40 73  1  0  0  0  0
 40 79  2  0  0  0  0
 41 44  1  0  0  0  0
 42 51  1  0  0  0  0
 43 69  1  0  0  0  0
 44 46  1  0  0  0  0
 45 47  1  0  0  0  0
 45 48  1  0  0  0  0
 46 50  1  0  0  0  0
 47 52  1  0  0  0  0
 48 68  1  0  0  0  0
 49 52  1  0  0  0  0
 49 68  1  0  0  0  0
 50 72  1  0  0  0  0
 51 69  1  0  0  0  0
 52 67  1  0  0  0  0
 55 64  1  0  0  0  0
 56 65  1  0  0  0  0
 57 65  1  0  0  0  0
 58 65  1  0  0  0  0
 59 74  1  0  0  0  0
 60 61  1  0  0  0  0
 61 62  1  0  0  0  0
 62 81  1  0  0  0  0
 63 65  1  0  0  0  0
 63 73  1  0  0  0  0
 64 74  1  0  0  0  0
 66 67  1  0  0  0  0
M  CHG  1  74   1
M  ISO  4  35 100  37 100  62 101  81 101
M  END
> <Batch ID>
0129

> <Smiles>
CNC(C)C(=O)NC(C(=O)N1Cc2cc([101O:1][101CH2:1]CCc3cc(C=[100CH:0][100C:0](=O)N4CCCC(n5nc(-c6ccc(Oc7ccc(F)cc7F)cc6)c(C(N)=O)c5N)C4)c(C)cc3C)ccc2CC1C(=O)NC1CCCc2ccccc21)C(C)(C)C

> <Shape>
0.255

> <Color>
0.060

> <Negative vol penalty>
0.000

$$$$
