
  -OEChem-04052302223D

 84 92  0     1  0  0  0  0  0999 V2000
  -23.8087  -29.1824   22.3876 C   0  0  0  0  0  0  0  0  0  0  0  0
  -24.2403  -29.7898   21.4458 C   0  0  0  0  0  0  0  0  0  0  0  0
  -30.2197  -11.9983   19.9881 C   0  0  0  0  0  0  0  0  0  0  0  0
  -30.0902  -13.0869   20.8446 C   0  0  0  0  0  0  0  0  0  0  0  0
  -28.4987  -23.5609   21.1765 C   0  0  0  0  0  0  0  0  0  0  0  0
  -29.9952  -23.9129   19.3127 C   0  0  0  0  0  0  0  0  0  0  0  0
  -29.3313  -11.8395   18.9253 C   0  0  0  0  0  0  0  0  0  0  0  0
  -29.0729  -14.0180   20.6381 C   0  0  0  0  0  0  0  0  0  0  0  0
  -25.9632  -17.0856   24.9306 C   0  0  0  0  0  0  0  0  0  0  0  0
  -22.3329  -27.0179   25.6971 C   0  0  0  0  0  0  0  0  0  0  0  0
  -21.5922  -28.0821   25.1829 C   0  0  0  0  0  0  0  0  0  0  0  0
  -28.4189  -22.2057   20.8565 C   0  0  0  0  0  0  0  0  0  0  0  0
  -29.9154  -22.5576   18.9927 C   0  0  0  0  0  0  0  0  0  0  0  0
  -26.0970  -18.3747   25.4445 C   0  0  0  0  0  0  0  0  0  0  0  0
  -28.1064  -18.5855   20.7466 C   0  0  0  0  0  0  0  0  0  0  0  0
  -28.2106  -17.6656   21.7899 C   0  0  0  0  0  0  0  0  0  0  0  0
  -24.0347  -27.3939   24.0240 C   0  0  0  0  0  0  0  0  0  0  0  0
  -24.3999  -19.1533   23.9171 C   0  0  0  0  0  0  0  0  0  0  0  0
  -30.4119  -18.5112   22.3157 C   0  0  0  0  0  0  0  0  0  0  0  0
  -23.2940  -28.4581   23.5097 C   0  0  0  0  0  0  0  0  0  0  0  0
  -29.2869  -24.4146   20.4046 C   0  0  0  0  0  0  0  0  0  0  0  0
  -30.2964  -26.4323   21.5951 C   0  0  0  0  0  0  0  0  0  0  0  0
  -28.2966  -12.7638   18.7115 C   0  0  0  0  0  0  0  0  0  0  0  0
  -25.0530  -16.8224   23.8969 C   0  0  0  0  0  0  0  0  0  0  0  0
  -28.1706  -13.8720   19.5707 C   0  0  0  0  0  0  0  0  0  0  0  0
  -24.2547  -17.8595   23.3936 C   0  0  0  0  0  0  0  0  0  0  0  0
  -23.5542  -26.6738   25.1177 C   0  0  0  0  0  0  0  0  0  0  0  0
  -22.0727  -28.8022   24.0892 C   0  0  0  0  0  0  0  0  0  0  0  0
  -29.1272  -21.7040   19.7646 C   0  0  0  0  0  0  0  0  0  0  0  0
  -25.3174  -19.4093   24.9358 C   0  0  0  0  0  0  0  0  0  0  0  0
  -29.1550  -19.4682   20.4878 C   0  0  0  0  0  0  0  0  0  0  0  0
  -29.3633  -17.6284   22.5745 C   0  0  0  0  0  0  0  0  0  0  0  0
  -30.3077  -19.4311   21.2724 C   0  0  0  0  0  0  0  0  0  0  0  0
  -29.3693  -25.8148   20.7343 C   0  0  0  0  0  0  0  0  0  0  0  0
  -29.9546  -27.7623   21.5707 C   0  0  0  0  0  0  0  0  0  0  0  0
  -24.7601  -30.5212   20.3118 C   0  0  0  0  0  0  0  0  0  0  0  0
  -31.3707  -25.8552   22.3493 C   0  0  0  0  0  0  0  0  0  0  0  0
  -25.2970  -15.7721   20.9067 C   0  0  0  0  0  0  0  0  0  0  0  0
  -24.8595  -23.0168   25.5414 C   0  0  0  0  0  0  0  0  0  0  0  0
  -22.0564  -15.7840   21.0509 C   0  0  0  0  0  0  0  0  0  0  0  0
  -19.2250  -17.0296   22.4926 C   0  0  0  0  0  0  0  0  0  0  0  0
  -27.3896  -12.5757   17.5212 C   0  0  0  0  0  0  0  0  0  0  0  0
  -24.9016  -15.4211   23.3718 C   0  0  0  0  0  0  0  0  0  0  0  0
  -23.2483  -17.6252   22.2978 C   0  0  0  0  0  0  0  0  0  0  0  0
  -26.1095  -13.4040   17.5940 C   0  0  0  0  0  0  0  0  0  0  0  0
  -27.9618  -31.0769   18.7688 C   0  0  0  0  0  0  0  0  0  0  0  0
  -26.4251  -14.8397   18.0015 C   0  0  0  0  0  0  0  0  0  0  0  0
  -28.7559  -29.8268   19.1461 C   0  0  0  0  0  0  0  0  0  0  0  0
  -26.4863  -30.7572   18.5518 C   0  0  0  0  0  0  0  0  0  0  0  0
  -26.6318  -28.8243   20.0987 C   0  0  0  0  0  0  0  0  0  0  0  0
  -27.0648  -14.8899   19.3943 C   0  0  1  0  0  0  0  0  0  0  0  0
  -24.3103  -15.3703   21.9663 C   0  0  1  0  0  0  0  0  0  0  0  0
  -28.1215  -29.1133   20.3532 C   0  0  1  0  0  0  0  0  0  0  0  0
  -21.2518  -29.9366   23.5646 C   0  0  0  0  0  0  0  0  0  0  0  0
  -16.7230  -16.8769   22.3739 C   0  0  0  0  0  0  0  0  0  0  0  0
  -22.0748  -17.4877   18.5196 C   0  0  0  0  0  0  0  0  0  0  0  0
  -19.6887  -18.0842   18.9874 C   0  0  0  0  0  0  0  0  0  0  0  0
  -20.3188  -15.7076   18.5662 C   0  0  0  0  0  0  0  0  0  0  0  0
  -19.0360  -16.0590   25.2820 C   0  0  0  0  0  0  0  0  0  0  0  0
  -24.3559  -25.5219   25.6747 C   0  0  0  0  0  0  0  0  0  0  0  0
  -24.0181  -24.1768   25.0289 C   0  0  0  0  0  0  0  0  0  0  0  0
  -24.6161  -21.6808   24.8673 C   0  0  0  0  0  0  0  0  0  1  0  0
  -20.9766  -16.7957   20.7515 C   0  0  1  0  0  0  0  0  0  0  0  0
  -17.9845  -16.3426   23.0343 C   0  0  2  0  0  0  0  0  0  0  0  0
  -20.7850  -17.0239   19.2255 C   0  0  0  0  0  0  0  0  0  0  0  0
  -28.5034  -26.6813   20.2021 N   0  0  0  0  0  0  0  0  0  0  0  0
  -28.8849  -27.8569   20.7299 N   0  0  0  0  0  0  0  0  0  0  0  0
  -25.9241  -30.0491   19.7018 N   0  0  0  0  0  0  0  0  0  0  0  0
  -23.1416  -16.2391   21.8130 N   0  0  0  0  0  0  0  0  0  0  0  0
  -30.4676  -28.8485   22.1868 N   0  0  0  0  0  0  0  0  0  0  0  0
  -31.5828  -24.4727   22.2595 N   0  0  0  0  0  0  0  0  0  0  0  0
  -26.0568  -14.7257   20.4196 N   0  0  0  0  0  0  0  0  0  0  0  0
  -19.7784  -16.3300   21.4411 N   0  0  0  0  0  0  0  0  0  0  0  0
  -17.8729  -16.5587   24.5046 N   0  3  0  0  0  0  0  0  0  0  0  0
  -24.1338  -31.5170   19.9622 O   0  0  0  0  0  0  0  0  0  0  0  0
  -32.1099  -26.5427   23.0938 O   0  0  0  0  0  0  0  0  0  0  0  0
  -25.3629  -16.9443   20.5559 O   0  0  0  0  0  0  0  0  0  0  0  0
  -25.7094  -23.1519   26.4200 O   0  0  0  0  0  0  0  0  0  0  0  0
  -21.9377  -14.6305   20.6302 O   0  0  0  0  0  0  0  0  0  0  0  0
  -19.6576  -18.0836   22.9535 O   0  0  0  0  0  0  0  0  0  0  0  0
  -29.0498  -20.3815   19.4522 O   0  0  0  0  0  0  0  0  0  0  0  0
  -25.4465  -20.6686   25.4352 O   0  0  0  0  0  0  0  0  0  1  0  0
  -29.4625  -16.7460   23.5773 F   0  0  0  0  0  0  0  0  0  0  0  0
  -31.3179  -20.2774   21.0293 F   0  0  0  0  0  0  0  0  0  0  0  0
  1  2  3  0  0  0  0
  1 20  1  0  0  0  0
  2 36  1  0  0  0  0
  3  4  1  0  0  0  0
  3  7  2  0  0  0  0
  4  8  2  0  0  0  0
  5 12  2  0  0  0  0
  5 21  1  0  0  0  0
  6 13  1  0  0  0  0
  6 21  2  0  0  0  0
  7 23  1  0  0  0  0
  8 25  1  0  0  0  0
  9 14  2  0  0  0  0
  9 24  1  0  0  0  0
 10 11  2  0  0  0  0
 10 27  1  0  0  0  0
 11 28  1  0  0  0  0
 12 29  1  0  0  0  0
 13 29  2  0  0  0  0
 14 30  1  0  0  0  0
 15 16  2  0  0  0  0
 15 31  1  0  0  0  0
 16 32  1  0  0  0  0
 17 20  1  0  0  0  0
 17 27  2  0  0  0  0
 18 26  1  0  0  0  0
 18 30  2  0  0  0  0
 19 32  2  0  0  0  0
 19 33  1  0  0  0  0
 20 28  2  0  0  0  0
 21 34  1  0  0  0  0
 22 34  1  0  0  0  0
 22 35  2  0  0  0  0
 22 37  1  0  0  0  0
 23 25  2  0  0  0  0
 23 42  1  0  0  0  0
 24 26  2  0  0  0  0
 24 43  1  0  0  0  0
 25 51  1  0  0  0  0
 26 44  1  0  0  0  0
 27 60  1  0  0  0  0
 28 54  1  0  0  0  0
 29 81  1  0  0  0  0
 30 82  1  0  0  0  0
 31 33  2  0  0  0  0
 31 81  1  0  0  0  0
 32 83  1  0  0  0  0
 33 84  1  0  0  0  0
 34 66  2  0  0  0  0
 35 67  1  0  0  0  0
 35 70  1  0  0  0  0
 36 68  1  0  0  0  0
 36 75  2  0  0  0  0
 37 71  1  0  0  0  0
 37 76  2  0  0  0  0
 38 52  1  0  0  0  0
 38 72  1  0  0  0  0
 38 77  2  0  0  0  0
 39 61  1  0  0  0  0
 39 62  1  0  0  0  0
 39 78  2  0  0  0  0
 40 63  1  0  0  0  0
 40 69  1  0  0  0  0
 40 79  2  0  0  0  0
 41 64  1  0  0  0  0
 41 73  1  0  0  0  0
 41 80  2  0  0  0  0
 42 45  1  0  0  0  0
 43 52  1  0  0  0  0
 44 69  1  0  0  0  0
 45 47  1  0  0  0  0
 46 48  1  0  0  0  0
 46 49  1  0  0  0  0
 47 51  1  0  0  0  0
 48 53  1  0  0  0  0
 49 68  1  0  0  0  0
 50 53  1  0  0  0  0
 50 68  1  0  0  0  0
 51 72  1  0  0  0  0
 52 69  1  0  0  0  0
 53 67  1  0  0  0  0
 55 64  1  0  0  0  0
 56 65  1  0  0  0  0
 57 65  1  0  0  0  0
 58 65  1  0  0  0  0
 59 74  1  0  0  0  0
 60 61  1  0  0  0  0
 62 82  1  0  0  0  0
 63 65  1  0  0  0  0
 63 73  1  0  0  0  0
 64 74  1  0  0  0  0
 66 67  1  0  0  0  0
M  CHG  1  74   1
M  ISO  4   2 100  36 100  62 101  82 101
M  END
> <Batch ID>
0130

> <Smiles>
CNC(C)C(=O)NC(C(=O)N1Cc2cc([101O:1][101CH2:1]C(=O)CCc3ccc(C)c(C#[100C:0][100C:0](=O)N4CCCC(n5nc(-c6ccc(Oc7ccc(F)cc7F)cc6)c(C(N)=O)c5N)C4)c3)ccc2CC1C(=O)NC1CCCc2ccccc21)C(C)(C)C

> <Shape>
0.200

> <Color>
0.079

> <Negative vol penalty>
0.000

$$$$

  -OEChem-04052302223D

 86 94  0     1  0  0  0  0  0999 V2000
  -19.4210  -26.8710   26.3310 C   0  0  0  0  0  0  0  0  0  0  0  0
  -20.7143  -26.5626   25.9215 C   0  0  0  0  0  0  0  0  0  0  0  0
  -24.8908   -8.9804   21.2647 C   0  0  0  0  0  0  0  0  0  0  0  0
  -23.1756  -10.0197   19.9175 C   0  0  0  0  0  0  0  0  0  0  0  0
  -18.5052  -27.3866   25.4148 C   0  0  0  0  0  0  0  0  0  0  0  0
  -21.0922  -26.7686   24.5952 C   0  0  0  0  0  0  0  0  0  0  0  0
  -26.6012  -28.5111   22.5652 C   0  0  0  0  0  0  0  0  0  0  0  0
  -23.9487   -8.0878   21.7757 C   0  0  0  0  0  0  0  0  0  0  0  0
  -22.2334   -9.1270   20.4284 C   0  0  0  0  0  0  0  0  0  0  0  0
  -27.6759  -27.7961   22.0382 C   0  0  0  0  0  0  0  0  0  0  0  0
  -22.3948   -5.2588   20.7683 C   0  0  0  0  0  0  0  0  0  0  0  0
  -22.7502   -3.9119   20.8403 C   0  0  0  0  0  0  0  0  0  0  0  0
  -32.7608  -21.5669   21.4848 C   0  0  0  0  0  0  0  0  0  0  0  0
  -32.8250  -19.1692   21.7747 C   0  0  0  0  0  0  0  0  0  0  0  0
  -26.9001  -28.2864   19.8072 C   0  0  0  0  0  0  0  0  0  0  0  0
  -22.4233   -3.9536   23.2338 C   0  0  0  0  0  0  0  0  0  0  0  0
  -24.5043   -9.9464   20.3356 C   0  0  0  0  0  0  0  0  0  0  0  0
  -31.6787  -21.4327   20.6150 C   0  0  0  0  0  0  0  0  0  0  0  0
  -31.7429  -19.0350   20.9049 C   0  0  0  0  0  0  0  0  0  0  0  0
  -26.2750  -10.6992   18.6606 C   0  0  0  0  0  0  0  0  0  0  0  0
  -18.8750  -27.6081   24.0788 C   0  0  0  0  0  0  0  0  0  0  0  0
  -25.6603  -29.1108   21.7159 C   0  0  0  0  0  0  0  0  0  0  0  0
  -20.1802  -27.2864   23.6599 C   0  0  0  0  0  0  0  0  0  0  0  0
  -25.8158  -29.0106   20.3260 C   0  0  0  0  0  0  0  0  0  0  0  0
  -33.3340  -20.4351   22.0647 C   0  0  0  0  0  0  0  0  0  0  0  0
  -31.1697  -20.1668   20.3250 C   0  0  0  0  0  0  0  0  0  0  0  0
  -22.6200   -8.1611   21.3576 C   0  0  0  0  0  0  0  0  0  0  0  0
  -27.8239  -27.6813   20.6590 C   0  0  0  0  0  0  0  0  0  0  0  0
  -22.0537   -5.9531   21.9291 C   0  0  0  0  0  0  0  0  0  0  0  0
  -22.7644   -3.2593   22.0730 C   0  0  0  0  0  0  0  0  0  0  0  0
  -22.0679   -5.3005   23.1618 C   0  0  0  0  0  0  0  0  0  0  0  0
  -25.4770  -10.8691   19.8078 C   0  0  0  0  0  0  0  0  0  0  0  0
  -27.0247  -11.8478   18.5906 C   0  0  0  0  0  0  0  0  0  0  0  0
  -31.0977  -22.6494   20.0203 C   0  0  0  0  0  0  0  0  0  0  0  0
  -31.2382  -17.6969   20.6236 C   0  0  0  0  0  0  0  0  0  0  0  0
  -30.5441  -23.6491   20.7207 C   0  0  0  0  0  0  0  0  0  0  0  0
  -30.7301  -16.8465   21.5383 C   0  0  0  0  0  0  0  0  0  0  0  0
  -26.3331   -9.6012   17.7403 C   0  0  0  0  0  0  0  0  0  0  0  0
  -29.9735  -24.8366   20.0207 C   0  0  0  0  0  0  0  0  0  0  0  0
  -30.2483  -15.5233   21.0936 C   0  0  0  0  0  0  0  0  0  0  0  0
  -22.5372  -28.7707   21.2321 C   0  0  0  0  0  0  0  0  0  0  0  0
  -22.9571  -31.3246   19.2767 C   0  0  0  0  0  0  0  0  0  0  0  0
  -25.0746  -33.1783   17.3463 C   0  0  0  0  0  0  0  0  0  0  0  0
  -17.8364  -28.1228   23.1139 C   0  0  0  0  0  0  0  0  0  0  0  0
  -24.5215  -29.9012   22.2999 C   0  0  0  0  0  0  0  0  0  0  0  0
  -24.8445  -29.6531   19.3709 C   0  0  0  0  0  0  0  0  0  0  0  0
  -18.4272  -28.6628   21.8140 C   0  0  0  0  0  0  0  0  0  0  0  0
  -26.6466  -16.2008   21.1083 C   0  0  0  0  0  0  0  0  0  0  0  0
  -19.4671  -27.6953   21.2578 C   0  0  0  0  0  0  0  0  0  0  0  0
  -26.0891  -14.8340   20.7200 C   0  0  0  0  0  0  0  0  0  0  0  0
  -27.9119  -16.0822   21.9566 C   0  0  0  0  0  0  0  0  0  0  0  0
  -28.4179  -13.8806   20.9382 C   0  0  0  0  0  0  0  0  0  0  0  0
  -20.6353  -27.5190   22.2355 C   0  0  1  0  0  0  0  0  0  0  0  0
  -23.3379  -30.0369   21.3471 C   0  0  1  0  0  0  0  0  0  0  0  0
  -27.1712  -13.9765   20.0449 C   0  0  1  0  0  0  0  0  0  0  0  0
  -34.4929  -20.5790   22.9927 C   0  0  0  0  0  0  0  0  0  0  0  0
  -28.6866  -20.3874   20.0565 C   0  0  0  0  0  0  0  0  0  0  0  0
  -25.1198  -35.1853   15.8405 C   0  0  0  0  0  0  0  0  0  0  0  0
  -21.6248  -29.6944   17.0682 C   0  0  0  0  0  0  0  0  0  0  0  0
  -22.5391  -31.3286   15.4064 C   0  0  0  0  0  0  0  0  0  0  0  0
  -20.9330  -32.0962   17.1539 C   0  0  0  0  0  0  0  0  0  0  0  0
  -27.0107  -34.5855   19.0872 C   0  0  0  0  0  0  0  0  0  0  0  0
  -30.0069  -20.0218   19.3899 C   0  0  0  0  0  0  0  0  0  0  0  0
  -29.3765  -25.8988   20.9196 C   0  0  0  0  0  0  0  0  0  1  0  0
  -23.3008  -31.5095   17.8184 C   0  0  1  0  0  0  0  0  0  0  0  0
  -25.3092  -34.6757   17.2608 C   0  0  2  0  0  0  0  0  0  0  0  0
  -22.1168  -31.1433   16.8795 C   0  0  0  0  0  0  0  0  0  0  0  0
  -25.6992  -12.0339   20.4225 N   0  0  0  0  0  0  0  0  0  0  0  0
  -26.6453  -12.6063   19.6588 N   0  0  0  0  0  0  0  0  0  0  0  0
  -28.9087  -15.2103   21.3173 N   0  0  0  0  0  0  0  0  0  0  0  0
  -23.7441  -30.4098   19.9906 N   0  0  0  0  0  0  0  0  0  0  0  0
  -27.9650  -12.2730   17.7202 N   0  0  0  0  0  0  0  0  0  0  0  0
  -25.4944   -8.5001   17.9601 N   0  0  0  0  0  0  0  0  0  0  0  0
  -21.5270  -28.6568   22.1680 N   0  0  0  0  0  0  0  0  0  0  0  0
  -23.7697  -32.8841   17.6807 N   0  0  0  0  0  0  0  0  0  0  0  0
  -26.6942  -35.0089   17.6988 N   0  3  0  0  0  0  0  0  0  0  0  0
  -27.1178   -9.5896   16.7617 O   0  0  0  0  0  0  0  0  0  0  0  0
  -29.9889  -24.9424   18.7974 O   0  0  0  0  0  0  0  0  0  0  0  0
  -31.0639  -14.7729   20.5547 O   0  0  0  0  0  0  0  0  0  0  0  0
  -22.8144  -27.9578   20.3579 O   0  0  0  0  0  0  0  0  0  0  0  0
  -22.0291  -31.9734   19.7663 O   0  0  0  0  0  0  0  0  0  0  0  0
  -25.9595  -32.3522   17.1339 O   0  0  0  0  0  0  0  0  0  0  0  0
  -21.7004   -7.2901   21.8558 O   0  0  0  0  0  0  0  0  0  0  0  0
  -28.8715  -26.9835   20.1420 O   0  0  0  0  0  0  0  0  0  1  0  0
  -23.1042   -1.9655   22.1418 F   0  0  0  0  0  0  0  0  0  0  0  0
  -21.7401   -5.9620   24.2802 F   0  0  0  0  0  0  0  0  0  0  0  0
  1  2  1  0  0  0  0
  1  5  2  0  0  0  0
  2  6  2  0  0  0  0
  3  8  2  0  0  0  0
  3 17  1  0  0  0  0
  4  9  1  0  0  0  0
  4 17  2  0  0  0  0
  5 21  1  0  0  0  0
  6 23  1  0  0  0  0
  7 10  2  0  0  0  0
  7 22  1  0  0  0  0
  8 27  1  0  0  0  0
  9 27  2  0  0  0  0
 10 28  1  0  0  0  0
 11 12  2  0  0  0  0
 11 29  1  0  0  0  0
 12 30  1  0  0  0  0
 13 18  2  0  0  0  0
 13 25  1  0  0  0  0
 14 19  1  0  0  0  0
 14 25  2  0  0  0  0
 15 24  1  0  0  0  0
 15 28  2  0  0  0  0
 16 30  2  0  0  0  0
 16 31  1  0  0  0  0
 17 32  1  0  0  0  0
 18 26  1  0  0  0  0
 18 34  1  0  0  0  0
 19 26  2  0  0  0  0
 19 35  1  0  0  0  0
 20 32  1  0  0  0  0
 20 33  2  0  0  0  0
 20 38  1  0  0  0  0
 21 23  2  0  0  0  0
 21 44  1  0  0  0  0
 22 24  2  0  0  0  0
 22 45  1  0  0  0  0
 23 53  1  0  0  0  0
 24 46  1  0  0  0  0
 25 56  1  0  0  0  0
 26 63  1  0  0  0  0
 27 83  1  0  0  0  0
 28 84  1  0  0  0  0
 29 31  2  0  0  0  0
 29 83  1  0  0  0  0
 30 85  1  0  0  0  0
 31 86  1  0  0  0  0
 32 68  2  0  0  0  0
 33 69  1  0  0  0  0
 33 72  1  0  0  0  0
 34 36  2  0  0  0  0
 35 37  2  0  0  0  0
 36 39  1  0  0  0  0
 37 40  1  0  0  0  0
 38 73  1  0  0  0  0
 38 77  2  0  0  0  0
 39 64  1  0  0  0  0
 39 78  2  0  0  0  0
 40 70  1  0  0  0  0
 40 79  2  0  0  0  0
 41 54  1  0  0  0  0
 41 74  1  0  0  0  0
 41 80  2  0  0  0  0
 42 65  1  0  0  0  0
 42 71  1  0  0  0  0
 42 81  2  0  0  0  0
 43 66  1  0  0  0  0
 43 75  1  0  0  0  0
 43 82  2  0  0  0  0
 44 47  1  0  0  0  0
 45 54  1  0  0  0  0
 46 71  1  0  0  0  0
 47 49  1  0  0  0  0
 48 50  1  0  0  0  0
 48 51  1  0  0  0  0
 49 53  1  0  0  0  0
 50 55  1  0  0  0  0
 51 70  1  0  0  0  0
 52 55  1  0  0  0  0
 52 70  1  0  0  0  0
 53 74  1  0  0  0  0
 54 71  1  0  0  0  0
 55 69  1  0  0  0  0
 57 63  1  0  0  0  0
 58 66  1  0  0  0  0
 59 67  1  0  0  0  0
 60 67  1  0  0  0  0
 61 67  1  0  0  0  0
 62 76  1  0  0  0  0
 64 84  1  0  0  0  0
 65 67  1  0  0  0  0
 65 75  1  0  0  0  0
 66 76  1  0  0  0  0
 68 69  1  0  0  0  0
M  CHG  1  76   1
M  ISO  4  37 100  40 100  64 101  84 101
M  END
> <Batch ID>
0130

> <Smiles>
CCc1c(C=CC(=O)[101CH2:1][101O:1]c2ccc3c(c2)CN(C(=O)C(NC(=O)C(C)NC)C(C)(C)C)C(C(=O)NC2CCCc4ccccc42)C3)cc(C)cc1C=[100CH:0][100C:0](=O)N1CCCC(n2nc(-c3ccc(Oc4ccc(F)cc4F)cc3)c(C(N)=O)c2N)C1

> <Shape>
0.285

> <Color>
0.132

> <Negative vol penalty>
0.000

$$$$

  -OEChem-04052302223D

 82 90  0     1  0  0  0  0  0999 V2000
  -30.3646  -25.1167   17.5732 C   0  0  0  0  0  0  0  0  0  0  0  0
  -28.9778  -25.1034   17.6833 C   0  0  0  0  0  0  0  0  0  0  0  0
  -17.9701  -21.4923   23.0471 C   0  0  0  0  0  0  0  0  0  0  0  0
  -25.5340  -15.5574   18.1788 C   0  0  0  0  0  0  0  0  0  0  0  0
  -23.4743  -15.1646   19.3789 C   0  0  0  0  0  0  0  0  0  0  0  0
  -31.1393  -25.6512   18.6017 C   0  0  0  0  0  0  0  0  0  0  0  0
  -28.3650  -25.6238   18.8227 C   0  0  0  0  0  0  0  0  0  0  0  0
  -23.0091  -28.5809   19.0971 C   0  0  0  0  0  0  0  0  0  0  0  0
  -18.1114  -22.6348   23.8347 C   0  0  0  0  0  0  0  0  0  0  0  0
  -18.7929  -21.3047   21.9365 C   0  0  0  0  0  0  0  0  0  0  0  0
  -26.1223  -14.4758   18.8343 C   0  0  0  0  0  0  0  0  0  0  0  0
  -24.0625  -14.0829   20.0344 C   0  0  0  0  0  0  0  0  0  0  0  0
  -21.7232  -28.1629   19.4372 C   0  0  0  0  0  0  0  0  0  0  0  0
  -27.4838  -13.8395   21.8618 C   0  0  0  0  0  0  0  0  0  0  0  0
  -28.7709  -14.0130   22.3704 C   0  0  0  0  0  0  0  0  0  0  0  0
  -22.0683  -28.9541   21.6898 C   0  0  0  0  0  0  0  0  0  0  0  0
  -19.8982  -23.4022   22.4010 C   0  0  0  0  0  0  0  0  0  0  0  0
  -29.5676  -12.2143   20.9678 C   0  0  0  0  0  0  0  0  0  0  0  0
  -24.2100  -15.9018   18.4511 C   0  0  0  0  0  0  0  0  0  0  0  0
  -22.8968  -16.9945   16.5566 C   0  0  0  0  0  0  0  0  0  0  0  0
  -30.5353  -26.1871   19.7500 C   0  0  0  0  0  0  0  0  0  0  0  0
  -23.8396  -29.1797   20.0553 C   0  0  0  0  0  0  0  0  0  0  0  0
  -29.1325  -26.1648   19.8681 C   0  0  0  0  0  0  0  0  0  0  0  0
  -23.3634  -29.3811   21.3587 C   0  0  0  0  0  0  0  0  0  0  0  0
  -19.0754  -23.5898   23.5116 C   0  0  0  0  0  0  0  0  0  0  0  0
  -19.7569  -22.2596   21.6134 C   0  0  0  0  0  0  0  0  0  0  0  0
  -25.3865  -13.7386   19.7621 C   0  0  0  0  0  0  0  0  0  0  0  0
  -21.2537  -28.3469   20.7344 C   0  0  0  0  0  0  0  0  0  0  0  0
  -27.2385  -12.8534   20.9062 C   0  0  0  0  0  0  0  0  0  0  0  0
  -29.8128  -13.2004   21.9234 C   0  0  0  0  0  0  0  0  0  0  0  0
  -28.2803  -12.0408   20.4592 C   0  0  0  0  0  0  0  0  0  0  0  0
  -23.6020  -17.0194   17.7747 C   0  0  0  0  0  0  0  0  0  0  0  0
  -22.5253  -18.3002   16.3482 C   0  0  0  0  0  0  0  0  0  0  0  0
  -22.6036  -15.8898   15.6909 C   0  0  0  0  0  0  0  0  0  0  0  0
  -26.6444  -28.4519   21.3619 C   0  0  0  0  0  0  0  0  0  0  0  0
  -18.6841  -26.4969   22.5044 C   0  0  0  0  0  0  0  0  0  0  0  0
  -26.3244  -31.3746   22.7322 C   0  0  0  0  0  0  0  0  0  0  0  0
  -24.2491  -33.8833   23.7551 C   0  0  0  0  0  0  0  0  0  0  0  0
  -21.5990  -22.9177   20.0260 C   0  0  0  0  0  0  0  0  0  0  0  0
  -31.4163  -26.7110   20.8564 C   0  0  0  0  0  0  0  0  0  0  0  0
  -25.2144  -29.6492   19.6656 C   0  0  0  0  0  0  0  0  0  0  0  0
  -24.2081  -30.0372   22.4190 C   0  0  0  0  0  0  0  0  0  0  0  0
  -30.6734  -27.5830   21.8654 C   0  0  0  0  0  0  0  0  0  0  0  0
  -23.9011  -22.7847   17.3131 C   0  0  0  0  0  0  0  0  0  0  0  0
  -29.3635  -26.9209   22.2808 C   0  0  0  0  0  0  0  0  0  0  0  0
  -24.0168  -21.2893   17.0088 C   0  0  0  0  0  0  0  0  0  0  0  0
  -23.7628  -23.0495   18.8113 C   0  0  0  0  0  0  0  0  0  0  0  0
  -22.8012  -20.8103   19.1720 C   0  0  0  0  0  0  0  0  0  0  0  0
  -28.4297  -26.7424   21.0775 C   0  0  1  0  0  0  0  0  0  0  0  0
  -26.1603  -29.7811   20.8552 C   0  0  1  0  0  0  0  0  0  0  0  0
  -22.8772  -20.4898   17.6703 C   0  0  2  0  0  0  0  0  0  0  0  0
  -24.2763  -36.1289   24.8749 C   0  0  0  0  0  0  0  0  0  0  0  0
  -26.7792  -30.0216   25.4290 C   0  0  0  0  0  0  0  0  0  0  0  0
  -25.8675  -32.0748   26.5343 C   0  0  0  0  0  0  0  0  0  0  0  0
  -27.9411  -32.2192   25.1552 C   0  0  0  0  0  0  0  0  0  0  0  0
  -23.0698  -35.2082   21.3859 C   0  0  0  0  0  0  0  0  0  0  0  0
  -19.2280  -24.8264   24.3646 C   0  0  0  0  0  0  0  0  0  0  0  0
  -18.3555  -25.9953   23.9032 C   0  0  0  0  0  0  0  0  0  0  0  0
  -19.7872  -27.5337   22.4208 C   0  0  0  0  0  0  0  0  0  1  0  0
  -25.7108  -31.8951   24.0095 C   0  0  1  0  0  0  0  0  0  0  0  0
  -24.3073  -35.3861   23.5482 C   0  0  2  0  0  0  0  0  0  0  0  0
  -26.5592  -31.5385   25.2628 C   0  0  0  0  0  0  0  0  0  0  0  0
  -23.6756  -18.2440   18.3030 N   0  0  0  0  0  0  0  0  0  0  0  0
  -23.0119  -19.0007   17.4125 N   0  0  0  0  0  0  0  0  0  0  0  0
  -25.5474  -30.4734   21.9907 N   0  0  0  0  0  0  0  0  0  0  0  0
  -22.6612  -22.2617   19.3686 N   0  0  0  0  0  0  0  0  0  0  0  0
  -21.8332  -18.9061   15.3601 N   0  0  0  0  0  0  0  0  0  0  0  0
  -23.0600  -14.6158   16.0556 N   0  0  0  0  0  0  0  0  0  0  0  0
  -20.5930  -22.0684   20.4855 N   0  0  0  0  0  0  0  0  0  0  0  0
  -27.7926  -27.9977   20.7417 N   0  0  0  0  0  0  0  0  0  0  0  0
  -25.5092  -33.3264   23.8119 N   0  0  0  0  0  0  0  0  0  0  0  0
  -23.1497  -35.8412   22.7275 N   0  3  0  0  0  0  0  0  0  0  0  0
  -21.9703  -16.0310   14.6174 O   0  0  0  0  0  0  0  0  0  0  0  0
  -26.0230  -27.8815   22.2508 O   0  0  0  0  0  0  0  0  0  0  0  0
  -18.1218  -26.0691   21.4978 O   0  0  0  0  0  0  0  0  0  0  0  0
  -27.4486  -31.7592   22.4008 O   0  0  0  0  0  0  0  0  0  0  0  0
  -23.1917  -33.2658   23.8598 O   0  0  0  0  0  0  0  0  0  0  0  0
  -21.5697  -24.1451   20.1467 O   0  0  0  0  0  0  0  0  0  0  0  0
  -25.9602  -12.6829   20.4017 O   0  0  0  0  0  0  0  0  0  0  0  0
  -19.9993  -27.9392   21.0692 O   0  0  0  0  0  0  0  0  0  1  0  0
  -31.0492  -13.3682   22.4107 F   0  0  0  0  0  0  0  0  0  0  0  0
  -28.0510  -11.0925   19.5405 F   0  0  0  0  0  0  0  0  0  0  0  0
  1  2  1  0  0  0  0
  1  6  2  0  0  0  0
  2  7  2  0  0  0  0
  3  9  2  0  0  0  0
  3 10  1  0  0  0  0
  4 11  2  0  0  0  0
  4 19  1  0  0  0  0
  5 12  1  0  0  0  0
  5 19  2  0  0  0  0
  6 21  1  0  0  0  0
  7 23  1  0  0  0  0
  8 13  2  0  0  0  0
  8 22  1  0  0  0  0
  9 25  1  0  0  0  0
 10 26  2  0  0  0  0
 11 27  1  0  0  0  0
 12 27  2  0  0  0  0
 13 28  1  0  0  0  0
 14 15  2  0  0  0  0
 14 29  1  0  0  0  0
 15 30  1  0  0  0  0
 16 24  1  0  0  0  0
 16 28  2  0  0  0  0
 17 25  2  0  0  0  0
 17 26  1  0  0  0  0
 18 30  2  0  0  0  0
 18 31  1  0  0  0  0
 19 32  1  0  0  0  0
 20 32  1  0  0  0  0
 20 33  2  0  0  0  0
 20 34  1  0  0  0  0
 21 23  2  0  0  0  0
 21 40  1  0  0  0  0
 22 24  2  0  0  0  0
 22 41  1  0  0  0  0
 23 49  1  0  0  0  0
 24 42  1  0  0  0  0
 25 57  1  0  0  0  0
 26 69  1  0  0  0  0
 27 79  1  0  0  0  0
 28 80  1  0  0  0  0
 29 31  2  0  0  0  0
 29 79  1  0  0  0  0
 30 81  1  0  0  0  0
 31 82  1  0  0  0  0
 32 63  2  0  0  0  0
 33 64  1  0  0  0  0
 33 67  1  0  0  0  0
 34 68  1  0  0  0  0
 34 73  2  0  0  0  0
 35 50  1  0  0  0  0
 35 70  1  0  0  0  0
 35 74  2  0  0  0  0
 36 58  1  0  0  0  0
 36 59  1  0  0  0  0
 36 75  2  0  0  0  0
 37 60  1  0  0  0  0
 37 65  1  0  0  0  0
 37 76  2  0  0  0  0
 38 61  1  0  0  0  0
 38 71  1  0  0  0  0
 38 77  2  0  0  0  0
 39 66  1  0  0  0  0
 39 69  1  0  0  0  0
 39 78  2  0  0  0  0
 40 43  1  0  0  0  0
 41 50  1  0  0  0  0
 42 65  1  0  0  0  0
 43 45  1  0  0  0  0
 44 46  1  0  0  0  0
 44 47  1  0  0  0  0
 45 49  1  0  0  0  0
 46 51  1  0  0  0  0
 47 66  1  0  0  0  0
 48 51  1  0  0  0  0
 48 66  1  0  0  0  0
 49 70  1  0  0  0  0
 50 65  1  0  0  0  0
 51 64  1  0  0  0  0
 52 61  1  0  0  0  0
 53 62  1  0  0  0  0
 54 62  1  0  0  0  0
 55 62  1  0  0  0  0
 56 72  1  0  0  0  0
 57 58  1  0  0  0  0
 59 80  1  0  0  0  0
 60 62  1  0  0  0  0
 60 71  1  0  0  0  0
 61 72  1  0  0  0  0
 63 64  1  0  0  0  0
M  CHG  1  72   1
M  ISO  4  39 100  59 101  69 100  80 101
M  END
> <Batch ID>
0130

> <Smiles>
CNC(C)C(=O)NC(C(=O)N1Cc2cc([101O:1][101CH2:1]C(=O)CCc3cccc([100NH:0][100C:0](=O)N4CCCC(n5nc(-c6ccc(Oc7ccc(F)cc7F)cc6)c(C(N)=O)c5N)C4)c3)ccc2CC1C(=O)NC1CCCc2ccccc21)C(C)(C)C

> <Shape>
0.260

> <Color>
0.059

> <Negative vol penalty>
0.000

$$$$

  -OEChem-04052302223D

 83 91  0     1  0  0  0  0  0999 V2000
  -18.4688  -27.3282   23.6774 C   0  0  0  0  0  0  0  0  0  0  0  0
  -18.8427  -26.3154   22.8000 C   0  0  0  0  0  0  0  0  0  0  0  0
  -27.5218  -17.1291   18.9987 C   0  0  0  0  0  0  0  0  0  0  0  0
  -27.8927  -17.1332   21.3861 C   0  0  0  0  0  0  0  0  0  0  0  0
  -18.9131  -28.6325   23.4647 C   0  0  0  0  0  0  0  0  0  0  0  0
  -19.6604  -26.6066   21.7086 C   0  0  0  0  0  0  0  0  0  0  0  0
  -23.3713  -23.2145   21.1017 C   0  0  0  0  0  0  0  0  0  0  0  0
  -28.2064  -18.3395   18.8903 C   0  0  0  0  0  0  0  0  0  0  0  0
  -28.5774  -18.3436   21.2776 C   0  0  0  0  0  0  0  0  0  0  0  0
  -23.0313  -21.9973   20.5130 C   0  0  0  0  0  0  0  0  0  0  0  0
  -30.1108  -21.6142   21.6792 C   0  0  0  0  0  0  0  0  0  0  0  0
  -29.8156  -22.6116   22.6085 C   0  0  0  0  0  0  0  0  0  0  0  0
  -23.9046  -22.7799   18.4049 C   0  0  0  0  0  0  0  0  0  0  0  0
  -20.1794  -15.0942   17.5571 C   0  0  0  0  0  0  0  0  0  0  0  0
  -21.0331  -16.5697   15.8451 C   0  0  0  0  0  0  0  0  0  0  0  0
  -21.8376  -14.2963   15.9916 C   0  0  0  0  0  0  0  0  0  0  0  0
  -27.5148  -22.6175   21.8713 C   0  0  0  0  0  0  0  0  0  0  0  0
  -27.3649  -16.5260   20.2466 C   0  0  0  0  0  0  0  0  0  0  0  0
  -27.2018  -13.9804   20.2772 C   0  0  0  0  0  0  0  0  0  0  0  0
  -19.7446  -28.9380   22.3757 C   0  0  0  0  0  0  0  0  0  0  0  0
  -23.9716  -24.2293   20.3426 C   0  0  0  0  0  0  0  0  0  0  0  0
  -20.1152  -27.9165   21.4804 C   0  0  0  0  0  0  0  0  0  0  0  0
  -24.2536  -24.0081   18.9870 C   0  0  0  0  0  0  0  0  0  0  0  0
  -20.1958  -16.3438   16.9377 C   0  0  0  0  0  0  0  0  0  0  0  0
  -21.0003  -14.0704   17.0842 C   0  0  0  0  0  0  0  0  0  0  0  0
  -28.7342  -18.9468   20.0297 C   0  0  0  0  0  0  0  0  0  0  0  0
  -23.2953  -21.7809   19.1637 C   0  0  0  0  0  0  0  0  0  0  0  0
  -29.1081  -21.1185   20.8458 C   0  0  0  0  0  0  0  0  0  0  0  0
  -28.5176  -23.1132   22.7046 C   0  0  0  0  0  0  0  0  0  0  0  0
  -21.8540  -15.5459   15.3721 C   0  0  0  0  0  0  0  0  0  0  0  0
  -27.8101  -21.6201   20.9419 C   0  0  0  0  0  0  0  0  0  0  0  0
  -26.6572  -15.2759   20.3594 C   0  0  0  0  0  0  0  0  0  0  0  0
  -26.1255  -13.1441   20.4466 C   0  0  0  0  0  0  0  0  0  0  0  0
  -28.5592  -13.5696   20.0665 C   0  0  0  0  0  0  0  0  0  0  0  0
  -23.1687  -27.1952   19.5288 C   0  0  0  0  0  0  0  0  0  0  0  0
  -26.1616  -27.2464   18.2789 C   0  0  0  0  0  0  0  0  0  0  0  0
  -28.8105  -25.4935   17.0308 C   0  0  0  0  0  0  0  0  0  0  0  0
  -20.6969  -12.6455   19.1013 C   0  0  0  0  0  0  0  0  0  0  0  0
  -20.1611  -30.3714   22.1601 C   0  0  0  0  0  0  0  0  0  0  0  0
  -24.3566  -25.5268   20.9989 C   0  0  0  0  0  0  0  0  0  0  0  0
  -24.9150  -25.0578   18.1330 C   0  0  0  0  0  0  0  0  0  0  0  0
  -21.3309  -30.5267   21.1917 C   0  0  0  0  0  0  0  0  0  0  0  0
  -21.6164  -13.6044   22.3994 C   0  0  0  0  0  0  0  0  0  0  0  0
  -21.1077  -29.6775   19.9444 C   0  0  0  0  0  0  0  0  0  0  0  0
  -23.0735  -14.0197   22.1996 C   0  0  0  0  0  0  0  0  0  0  0  0
  -20.7314  -14.0410   21.2315 C   0  0  0  0  0  0  0  0  0  0  0  0
  -22.6801  -14.0121   19.7064 C   0  0  0  0  0  0  0  0  0  0  0  0
  -21.0213  -28.1882   20.2992 C   0  0  1  0  0  0  0  0  0  0  0  0
  -24.4957  -26.6790   20.0087 C   0  0  1  0  0  0  0  0  0  0  0  0
  -23.6039  -13.5360   20.8383 C   0  0  1  0  0  0  0  0  0  0  0  0
  -31.1211  -25.0854   16.1409 C   0  0  0  0  0  0  0  0  0  0  0  0
  -24.9100  -28.1340   15.6416 C   0  0  0  0  0  0  0  0  0  0  0  0
  -27.0519  -27.5213   14.4992 C   0  0  0  0  0  0  0  0  0  0  0  0
  -27.0347  -29.3114   16.2364 C   0  0  0  0  0  0  0  0  0  0  0  0
  -21.0290  -11.5771   16.8824 C   0  0  0  0  0  0  0  0  0  0  0  0
  -29.9168  -25.1171   19.7499 C   0  0  0  0  0  0  0  0  0  0  0  0
  -19.3081  -17.4507   17.4482 C   0  0  0  0  0  0  0  0  0  0  0  0
  -19.9631  -18.3226   18.5253 C   0  0  0  0  0  0  0  0  0  0  0  0
  -21.1912  -19.0795   18.0178 C   0  0  0  0  0  0  0  0  0  0  0  0
  -21.8374  -19.9024   19.1241 C   0  0  0  0  0  0  0  0  0  1  0  0
  -26.7675  -26.8980   16.9408 C   0  0  1  0  0  0  0  0  0  0  0  0
  -30.2979  -25.5717   17.3236 C   0  0  2  0  0  0  0  0  0  0  0  0
  -26.4268  -27.9469   15.8449 C   0  0  0  0  0  0  0  0  0  0  0  0
  -25.3375  -15.2684   20.5649 N   0  0  0  0  0  0  0  0  0  0  0  0
  -25.0438  -13.9579   20.6132 N   0  0  0  0  0  0  0  0  0  0  0  0
  -25.2666  -26.3120   18.8191 N   0  0  0  0  0  0  0  0  0  0  0  0
  -21.2983  -13.5921   19.9520 N   0  0  0  0  0  0  0  0  0  0  0  0
  -26.0084  -11.7994   20.4678 N   0  0  0  0  0  0  0  0  0  0  0  0
  -29.5402  -14.5585   19.9117 N   0  0  0  0  0  0  0  0  0  0  0  0
  -22.3424  -27.6483   20.5394 N   0  0  0  0  0  0  0  0  0  0  0  0
  -28.1966  -26.7199   17.1738 N   0  0  0  0  0  0  0  0  0  0  0  0
  -20.9838  -12.7767   17.7255 N   0  0  0  0  0  0  0  0  0  0  0  0
  -30.6374  -24.7340   18.5085 N   0  3  0  0  0  0  0  0  0  0  0  0
  -28.8898  -12.3613   20.0007 O   0  0  0  0  0  0  0  0  0  0  0  0
  -22.9140  -27.1847   18.3301 O   0  0  0  0  0  0  0  0  0  0  0  0
  -26.4765  -28.3051   18.8281 O   0  0  0  0  0  0  0  0  0  0  0  0
  -28.2498  -24.4497   16.7041 O   0  0  0  0  0  0  0  0  0  0  0  0
  -19.9803  -11.7374   19.5393 O   0  0  0  0  0  0  0  0  0  0  0  0
  -29.4026  -20.1278   19.9242 O   0  0  0  0  0  0  0  0  0  0  0  0
  -22.9639  -20.5940   18.5864 O   0  0  0  0  0  0  0  0  0  1  0  0
  -28.2339  -24.0699   23.5982 F   0  0  0  0  0  0  0  0  0  0  0  0
  -22.6579  -15.7629   14.3229 F   0  0  0  0  0  0  0  0  0  0  0  0
  -26.8423  -21.1469   20.1449 F   0  0  0  0  0  0  0  0  0  0  0  0
  1  2  1  0  0  0  0
  1  5  2  0  0  0  0
  2  6  2  0  0  0  0
  3  8  2  0  0  0  0
  3 18  1  0  0  0  0
  4  9  1  0  0  0  0
  4 18  2  0  0  0  0
  5 20  1  0  0  0  0
  6 22  1  0  0  0  0
  7 10  2  0  0  0  0
  7 21  1  0  0  0  0
  8 26  1  0  0  0  0
  9 26  2  0  0  0  0
 10 27  1  0  0  0  0
 11 12  2  0  0  0  0
 11 28  1  0  0  0  0
 12 29  1  0  0  0  0
 13 23  1  0  0  0  0
 13 27  2  0  0  0  0
 14 24  2  0  0  0  0
 14 25  1  0  0  0  0
 15 24  1  0  0  0  0
 15 30  2  0  0  0  0
 16 25  2  0  0  0  0
 16 30  1  0  0  0  0
 17 29  2  0  0  0  0
 17 31  1  0  0  0  0
 18 32  1  0  0  0  0
 19 32  1  0  0  0  0
 19 33  2  0  0  0  0
 19 34  1  0  0  0  0
 20 22  2  0  0  0  0
 20 39  1  0  0  0  0
 21 23  2  0  0  0  0
 21 40  1  0  0  0  0
 22 48  1  0  0  0  0
 23 41  1  0  0  0  0
 24 57  1  0  0  0  0
 25 72  1  0  0  0  0
 26 79  1  0  0  0  0
 27 80  1  0  0  0  0
 28 31  2  0  0  0  0
 28 79  1  0  0  0  0
 29 81  1  0  0  0  0
 30 82  1  0  0  0  0
 31 83  1  0  0  0  0
 32 64  2  0  0  0  0
 33 65  1  0  0  0  0
 33 68  1  0  0  0  0
 34 69  1  0  0  0  0
 34 74  2  0  0  0  0
 35 49  1  0  0  0  0
 35 70  1  0  0  0  0
 35 75  2  0  0  0  0
 36 61  1  0  0  0  0
 36 66  1  0  0  0  0
 36 76  2  0  0  0  0
 37 62  1  0  0  0  0
 37 71  1  0  0  0  0
 37 77  2  0  0  0  0
 38 67  1  0  0  0  0
 38 72  1  0  0  0  0
 38 78  2  0  0  0  0
 39 42  1  0  0  0  0
 40 49  1  0  0  0  0
 41 66  1  0  0  0  0
 42 44  1  0  0  0  0
 43 45  1  0  0  0  0
 43 46  1  0  0  0  0
 44 48  1  0  0  0  0
 45 50  1  0  0  0  0
 46 67  1  0  0  0  0
 47 50  1  0  0  0  0
 47 67  1  0  0  0  0
 48 70  1  0  0  0  0
 49 66  1  0  0  0  0
 50 65  1  0  0  0  0
 51 62  1  0  0  0  0
 52 63  1  0  0  0  0
 53 63  1  0  0  0  0
 54 63  1  0  0  0  0
 55 72  1  0  0  0  0
 56 73  1  0  0  0  0
 57 58  1  0  0  0  0
 58 59  1  0  0  0  0
 59 60  1  0  0  0  0
 60 80  1  0  0  0  0
 61 63  1  0  0  0  0
 61 71  1  0  0  0  0
 62 73  1  0  0  0  0
 64 65  1  0  0  0  0
M  CHG  1  73   1
M  ISO  4  38 100  60 101  72 100  80 101
M  END
> <Batch ID>
0130

> <Smiles>
CNC(C)C(=O)NC(C(=O)N1Cc2cc([101O:1][101CH2:1]CCCc3cc(F)cc([100N:0](C)[100C:0](=O)N4CCCC(n5nc(-c6ccc(Oc7ccc(F)cc7F)cc6)c(C(N)=O)c5N)C4)c3)ccc2CC1C(=O)NC1CCCc2ccccc21)C(C)(C)C

> <Shape>
0.204

> <Color>
0.079

> <Negative vol penalty>
0.000

$$$$

  -OEChem-04052302223D

 86 94  0     1  0  0  0  0  0999 V2000
  -18.8455  -30.9045   26.5339 C   0  0  0  0  0  0  0  0  0  0  0  0
  -20.2086  -30.6281   26.5039 C   0  0  0  0  0  0  0  0  0  0  0  0
  -31.6868  -21.0411   24.0303 C   0  0  0  0  0  0  0  0  0  0  0  0
  -24.5666   -8.8593   22.0085 C   0  0  0  0  0  0  0  0  0  0  0  0
  -23.6481   -9.4542   19.8545 C   0  0  0  0  0  0  0  0  0  0  0  0
  -31.3691  -19.6991   23.8215 C   0  0  0  0  0  0  0  0  0  0  0  0
  -18.0181  -30.4380   25.5133 C   0  0  0  0  0  0  0  0  0  0  0  0
  -20.7450  -29.8839   25.4536 C   0  0  0  0  0  0  0  0  0  0  0  0
  -26.7057  -29.2560   21.5303 C   0  0  0  0  0  0  0  0  0  0  0  0
  -31.4364  -21.9809   23.0304 C   0  0  0  0  0  0  0  0  0  0  0  0
  -23.4980   -7.9891   22.2239 C   0  0  0  0  0  0  0  0  0  0  0  0
  -22.5795   -8.5840   20.0699 C   0  0  0  0  0  0  0  0  0  0  0  0
  -27.6264  -28.2944   21.1164 C   0  0  0  0  0  0  0  0  0  0  0  0
  -22.5810   -4.8823   21.2543 C   0  0  0  0  0  0  0  0  0  0  0  0
  -22.8691   -3.6144   21.7591 C   0  0  0  0  0  0  0  0  0  0  0  0
  -26.1139  -27.6077   19.3671 C   0  0  0  0  0  0  0  0  0  0  0  0
  -21.4898   -4.0696   23.6897 C   0  0  0  0  0  0  0  0  0  0  0  0
  -24.6417   -9.5919   20.8238 C   0  0  0  0  0  0  0  0  0  0  0  0
  -30.8010  -19.2968   22.6127 C   0  0  0  0  0  0  0  0  0  0  0  0
  -26.9778  -10.1899   19.9918 C   0  0  0  0  0  0  0  0  0  0  0  0
  -18.5462  -29.6959   24.4450 C   0  0  0  0  0  0  0  0  0  0  0  0
  -25.4755  -29.3936   20.8713 C   0  0  0  0  0  0  0  0  0  0  0  0
  -19.9237  -29.4058   24.4185 C   0  0  0  0  0  0  0  0  0  0  0  0
  -25.1804  -28.5736   19.7729 C   0  0  0  0  0  0  0  0  0  0  0  0
  -30.5507  -20.2366   21.6128 C   0  0  0  0  0  0  0  0  0  0  0  0
  -22.5044   -7.8514   21.2546 C   0  0  0  0  0  0  0  0  0  0  0  0
  -27.3294  -27.4681   20.0366 C   0  0  0  0  0  0  0  0  0  0  0  0
  -30.8684  -21.5786   21.8216 C   0  0  0  0  0  0  0  0  0  0  0  0
  -21.7473   -5.7440   21.9672 C   0  0  0  0  0  0  0  0  0  0  0  0
  -22.3235   -3.2080   22.9768 C   0  0  0  0  0  0  0  0  0  0  0  0
  -21.2017   -5.3376   23.1849 C   0  0  0  0  0  0  0  0  0  0  0  0
  -25.7450  -10.4913   20.6010 C   0  0  0  0  0  0  0  0  0  0  0  0
  -27.6738  -11.3737   20.0210 C   0  0  0  0  0  0  0  0  0  0  0  0
  -30.4837  -17.8868   22.4264 C   0  0  0  0  0  0  0  0  0  0  0  0
  -29.6180  -17.1758   23.1770 C   0  0  0  0  0  0  0  0  0  0  0  0
  -27.4515   -8.9507   19.4480 C   0  0  0  0  0  0  0  0  0  0  0  0
  -29.3953  -15.7518   22.8553 C   0  0  0  0  0  0  0  0  0  0  0  0
  -22.4284  -29.0825   21.7213 C   0  0  0  0  0  0  0  0  0  0  0  0
  -29.4494  -24.5441   20.2852 C   0  0  0  0  0  0  0  0  0  0  0  0
  -21.8836  -30.2068   18.7278 C   0  0  0  0  0  0  0  0  0  0  0  0
  -23.0221  -30.6233   15.5376 C   0  0  0  0  0  0  0  0  0  0  0  0
  -17.6048  -29.1726   23.3893 C   0  0  0  0  0  0  0  0  0  0  0  0
  -24.5043  -30.4538   21.3132 C   0  0  0  0  0  0  0  0  0  0  0  0
  -23.8822  -28.6947   19.0190 C   0  0  0  0  0  0  0  0  0  0  0  0
  -18.3119  -28.7103   22.1178 C   0  0  0  0  0  0  0  0  0  0  0  0
  -26.1784  -16.0611   21.1268 C   0  0  0  0  0  0  0  0  0  0  0  0
  -19.5154  -27.8390   22.4630 C   0  0  0  0  0  0  0  0  0  0  0  0
  -25.8628  -14.5975   20.8298 C   0  0  0  0  0  0  0  0  0  0  0  0
  -26.9201  -16.2285   22.4521 C   0  0  0  0  0  0  0  0  0  0  0  0
  -27.8409  -13.9364   22.2546 C   0  0  0  0  0  0  0  0  0  0  0  0
  -20.5469  -28.6229   23.2832 C   0  0  1  0  0  0  0  0  0  0  0  0
  -23.0675  -30.1606   20.8924 C   0  0  1  0  0  0  0  0  0  0  0  0
  -27.1363  -13.7403   20.9031 C   0  0  1  0  0  0  0  0  0  0  0  0
  -27.8475  -19.7952   18.8919 C   0  0  0  0  0  0  0  0  0  0  0  0
  -22.3368  -31.5437   13.3059 C   0  0  0  0  0  0  0  0  0  0  0  0
  -20.1069  -27.7687   18.2705 C   0  0  0  0  0  0  0  0  0  0  0  0
  -20.2300  -28.2269   15.8122 C   0  0  0  0  0  0  0  0  0  0  0  0
  -19.2023  -29.9076   17.3424 C   0  0  0  0  0  0  0  0  0  0  0  0
  -25.2392  -32.5837   15.5353 C   0  0  0  0  0  0  0  0  0  0  0  0
  -29.9430  -19.8223   20.3089 C   0  0  0  0  0  0  0  0  0  0  0  0
  -29.0812  -25.9728   20.6294 C   0  0  0  0  0  0  0  0  0  1  0  0
  -30.3433  -23.8343   21.2812 C   0  0  0  0  0  0  0  0  0  0  0  0
  -28.4550  -20.1872   20.2295 C   0  0  0  0  0  0  0  0  0  0  0  0
  -21.7091  -29.5798   17.3656 C   0  0  1  0  0  0  0  0  0  0  0  0
  -23.0374  -31.8353   14.6237 C   0  0  2  0  0  0  0  0  0  0  0  0
  -20.3358  -28.8669   17.2129 C   0  0  0  0  0  0  0  0  0  0  0  0
  -25.6598  -11.7666   20.9890 N   0  0  0  0  0  0  0  0  0  0  0  0
  -26.8478  -12.2769   20.6228 N   0  0  0  0  0  0  0  0  0  0  0  0
  -28.1015  -15.3553   22.5218 N   0  0  0  0  0  0  0  0  0  0  0  0
  -22.9625  -29.7420   19.4931 N   0  0  0  0  0  0  0  0  0  0  0  0
  -28.9056  -11.7196   19.5905 N   0  0  0  0  0  0  0  0  0  0  0  0
  -26.6081   -7.8326   19.4997 N   0  0  0  0  0  0  0  0  0  0  0  0
  -21.3147  -29.4995   22.4249 N   0  0  0  0  0  0  0  0  0  0  0  0
  -21.9417  -30.6431   16.3941 N   0  0  0  0  0  0  0  0  0  0  0  0
  -24.4399  -32.2447   14.3298 N   0  3  0  0  0  0  0  0  0  0  0  0
  -28.5953   -8.8342   18.9464 O   0  0  0  0  0  0  0  0  0  0  0  0
  -30.3691  -14.9983   22.9064 O   0  0  0  0  0  0  0  0  0  0  0  0
  -22.9094  -27.9553   21.7213 O   0  0  0  0  0  0  0  0  0  0  0  0
  -29.0478  -23.9949   19.2604 O   0  0  0  0  0  0  0  0  0  0  0  0
  -21.0961  -31.0819   19.0961 O   0  0  0  0  0  0  0  0  0  0  0  0
  -23.8804  -29.7448   15.4933 O   0  0  0  0  0  0  0  0  0  0  0  0
  -21.4616   -7.0022   21.4644 O   0  0  0  0  0  0  0  0  0  0  0  0
  -28.2261  -26.5282   19.6310 O   0  0  0  0  0  0  0  0  0  1  0  0
  -30.6282  -22.5205   20.8494 O   0  0  0  0  0  0  0  0  0  0  0  0
  -22.5990   -1.9898   23.4607 F   0  0  0  0  0  0  0  0  0  0  0  0
  -20.3991   -6.1605   23.8738 F   0  0  0  0  0  0  0  0  0  0  0  0
  1  2  1  0  0  0  0
  1  7  2  0  0  0  0
  2  8  2  0  0  0  0
  3  6  1  0  0  0  0
  3 10  2  0  0  0  0
  4 11  2  0  0  0  0
  4 18  1  0  0  0  0
  5 12  1  0  0  0  0
  5 18  2  0  0  0  0
  6 19  2  0  0  0  0
  7 21  1  0  0  0  0
  8 23  1  0  0  0  0
  9 13  2  0  0  0  0
  9 22  1  0  0  0  0
 10 28  1  0  0  0  0
 11 26  1  0  0  0  0
 12 26  2  0  0  0  0
 13 27  1  0  0  0  0
 14 15  2  0  0  0  0
 14 29  1  0  0  0  0
 15 30  1  0  0  0  0
 16 24  1  0  0  0  0
 16 27  2  0  0  0  0
 17 30  2  0  0  0  0
 17 31  1  0  0  0  0
 18 32  1  0  0  0  0
 19 25  1  0  0  0  0
 19 34  1  0  0  0  0
 20 32  1  0  0  0  0
 20 33  2  0  0  0  0
 20 36  1  0  0  0  0
 21 23  2  0  0  0  0
 21 42  1  0  0  0  0
 22 24  2  0  0  0  0
 22 43  1  0  0  0  0
 23 51  1  0  0  0  0
 24 44  1  0  0  0  0
 25 28  2  0  0  0  0
 25 60  1  0  0  0  0
 26 82  1  0  0  0  0
 27 83  1  0  0  0  0
 28 84  1  0  0  0  0
 29 31  2  0  0  0  0
 29 82  1  0  0  0  0
 30 85  1  0  0  0  0
 31 86  1  0  0  0  0
 32 67  2  0  0  0  0
 33 68  1  0  0  0  0
 33 71  1  0  0  0  0
 34 35  2  0  0  0  0
 35 37  1  0  0  0  0
 36 72  1  0  0  0  0
 36 76  2  0  0  0  0
 37 69  1  0  0  0  0
 37 77  2  0  0  0  0
 38 52  1  0  0  0  0
 38 73  1  0  0  0  0
 38 78  2  0  0  0  0
 39 61  1  0  0  0  0
 39 62  1  0  0  0  0
 39 79  2  0  0  0  0
 40 64  1  0  0  0  0
 40 70  1  0  0  0  0
 40 80  2  0  0  0  0
 41 65  1  0  0  0  0
 41 74  1  0  0  0  0
 41 81  2  0  0  0  0
 42 45  1  0  0  0  0
 43 52  1  0  0  0  0
 44 70  1  0  0  0  0
 45 47  1  0  0  0  0
 46 48  1  0  0  0  0
 46 49  1  0  0  0  0
 47 51  1  0  0  0  0
 48 53  1  0  0  0  0
 49 69  1  0  0  0  0
 50 53  1  0  0  0  0
 50 69  1  0  0  0  0
 51 73  1  0  0  0  0
 52 70  1  0  0  0  0
 53 68  1  0  0  0  0
 54 63  1  0  0  0  0
 55 65  1  0  0  0  0
 56 66  1  0  0  0  0
 57 66  1  0  0  0  0
 58 66  1  0  0  0  0
 59 75  1  0  0  0  0
 60 63  1  0  0  0  0
 61 83  1  0  0  0  0
 62 84  1  0  0  0  0
 64 66  1  0  0  0  0
 64 74  1  0  0  0  0
 65 75  1  0  0  0  0
 67 68  1  0  0  0  0
M  CHG  1  75   1
M  ISO  4  35 100  37 100  61 101  83 101
M  END
> <Batch ID>
0130

> <Smiles>
CCCc1c(C=[100CH:0][100C:0](=O)N2CCCC(n3nc(-c4ccc(Oc5ccc(F)cc5F)cc4)c(C(N)=O)c3N)C2)cccc1OCC(=O)[101CH2:1][101O:1]c1ccc2c(c1)CN(C(=O)C(NC(=O)C(C)NC)C(C)(C)C)C(C(=O)NC1CCCc3ccccc31)C2

> <Shape>
0.285

> <Color>
0.119

> <Negative vol penalty>
0.000

$$$$

  -OEChem-04052302223D

 84 92  0     1  0  0  0  0  0999 V2000
  -17.9229  -28.4443   25.8537 C   0  0  0  0  0  0  0  0  0  0  0  0
  -19.2872  -28.3237   26.0980 C   0  0  0  0  0  0  0  0  0  0  0  0
  -24.3296   -9.2957   22.1343 C   0  0  0  0  0  0  0  0  0  0  0  0
  -23.9184   -8.9928   19.7729 C   0  0  0  0  0  0  0  0  0  0  0  0
  -29.4092  -20.7084   20.3408 C   0  0  0  0  0  0  0  0  0  0  0  0
  -29.6841  -22.0611   20.1400 C   0  0  0  0  0  0  0  0  0  0  0  0
  -17.4413  -28.3777   24.5470 C   0  0  0  0  0  0  0  0  0  0  0  0
  -20.1706  -28.1354   25.0356 C   0  0  0  0  0  0  0  0  0  0  0  0
  -26.8478  -29.7179   22.9797 C   0  0  0  0  0  0  0  0  0  0  0  0
  -23.2481   -8.4656   22.4291 C   0  0  0  0  0  0  0  0  0  0  0  0
  -22.8369   -8.1627   20.0677 C   0  0  0  0  0  0  0  0  0  0  0  0
  -28.0027  -29.1000   22.5019 C   0  0  0  0  0  0  0  0  0  0  0  0
  -22.6041   -5.1472   22.5086 C   0  0  0  0  0  0  0  0  0  0  0  0
  -22.7819   -4.1763   23.4941 C   0  0  0  0  0  0  0  0  0  0  0  0
  -31.7080  -20.3367   20.9843 C   0  0  0  0  0  0  0  0  0  0  0  0
  -27.0653  -29.0799   20.2793 C   0  0  0  0  0  0  0  0  0  0  0  0
  -20.9962   -5.1630   24.7883 C   0  0  0  0  0  0  0  0  0  0  0  0
  -24.6647   -9.5593   20.8061 C   0  0  0  0  0  0  0  0  0  0  0  0
  -30.4211  -19.8462   20.7630 C   0  0  0  0  0  0  0  0  0  0  0  0
  -30.9709  -22.5516   20.3613 C   0  0  0  0  0  0  0  0  0  0  0  0
  -27.1231  -10.0328   20.3164 C   0  0  0  0  0  0  0  0  0  0  0  0
  -18.3203  -28.1981   23.4672 C   0  0  0  0  0  0  0  0  0  0  0  0
  -25.7868  -30.0121   22.1113 C   0  0  0  0  0  0  0  0  0  0  0  0
  -19.7002  -28.0650   23.7133 C   0  0  0  0  0  0  0  0  0  0  0  0
  -25.8991  -29.7040   20.7480 C   0  0  0  0  0  0  0  0  0  0  0  0
  -31.9829  -21.6894   20.7835 C   0  0  0  0  0  0  0  0  0  0  0  0
  -22.5017   -7.8991   21.3959 C   0  0  0  0  0  0  0  0  0  0  0  0
  -28.1104  -28.7783   21.1521 C   0  0  0  0  0  0  0  0  0  0  0  0
  -21.6224   -6.1261   22.6629 C   0  0  0  0  0  0  0  0  0  0  0  0
  -21.9780   -4.1842   24.6340 C   0  0  0  0  0  0  0  0  0  0  0  0
  -20.8184   -6.1339   23.8028 C   0  0  0  0  0  0  0  0  0  0  0  0
  -25.7814  -10.4172   20.5009 C   0  0  0  0  0  0  0  0  0  0  0  0
  -27.7832  -11.2075   20.0499 C   0  0  0  0  0  0  0  0  0  0  0  0
  -30.1332  -18.4359   20.9723 C   0  0  0  0  0  0  0  0  0  0  0  0
  -28.9063  -17.9077   21.1681 C   0  0  0  0  0  0  0  0  0  0  0  0
  -30.4596  -24.9713   20.9516 C   0  0  0  0  0  0  0  0  0  0  0  0
  -30.6722  -26.2861   20.8021 C   0  0  0  0  0  0  0  0  0  0  0  0
  -31.2349  -23.9940   20.1405 C   0  0  0  0  0  0  0  0  0  0  0  0
  -27.7193   -8.7305   20.3800 C   0  0  0  0  0  0  0  0  0  0  0  0
  -28.7757  -16.4489   21.3566 C   0  0  0  0  0  0  0  0  0  0  0  0
  -22.7448  -29.1142   21.9016 C   0  0  0  0  0  0  0  0  0  0  0  0
  -22.6578  -31.3350   19.5389 C   0  0  0  0  0  0  0  0  0  0  0  0
  -24.3601  -33.1422   17.1973 C   0  0  0  0  0  0  0  0  0  0  0  0
  -17.7480  -28.0851   22.0764 C   0  0  0  0  0  0  0  0  0  0  0  0
  -24.5587  -30.7031   22.6374 C   0  0  0  0  0  0  0  0  0  0  0  0
  -24.7967  -30.0172   19.7707 C   0  0  0  0  0  0  0  0  0  0  0  0
  -18.7890  -28.2588   20.9734 C   0  0  0  0  0  0  0  0  0  0  0  0
  -26.0323  -15.8207   19.0091 C   0  0  0  0  0  0  0  0  0  0  0  0
  -20.0327  -27.4297   21.2778 C   0  0  0  0  0  0  0  0  0  0  0  0
  -25.8059  -14.3254   19.2154 C   0  0  0  0  0  0  0  0  0  0  0  0
  -26.4523  -16.5190   20.3016 C   0  0  0  0  0  0  0  0  0  0  0  0
  -27.4152  -14.4036   21.1607 C   0  0  0  0  0  0  0  0  0  0  0  0
  -20.6926  -27.8846   22.5852 C   0  0  1  0  0  0  0  0  0  0  0  0
  -23.3304  -30.4904   21.7578 C   0  0  1  0  0  0  0  0  0  0  0  0
  -27.0375  -13.6726   19.8629 C   0  0  1  0  0  0  0  0  0  0  0  0
  -33.3695  -22.1896   21.0284 C   0  0  0  0  0  0  0  0  0  0  0  0
  -24.0123  -34.8483   15.3902 C   0  0  0  0  0  0  0  0  0  0  0  0
  -21.5217  -29.1685   17.7154 C   0  0  0  0  0  0  0  0  0  0  0  0
  -22.0853  -30.6204   15.7552 C   0  0  0  0  0  0  0  0  0  0  0  0
  -20.4485  -31.4132   17.4626 C   0  0  0  0  0  0  0  0  0  0  0  0
  -26.1087  -35.1066   18.5548 C   0  0  0  0  0  0  0  0  0  0  0  0
  -29.9444  -27.3284   21.5884 C   0  0  0  0  0  0  0  0  0  1  0  0
  -22.9059  -31.3221   18.0498 C   0  0  1  0  0  0  0  0  0  0  0  0
  -24.3416  -34.6216   16.8575 C   0  0  2  0  0  0  0  0  0  0  0  0
  -21.7605  -30.6233   17.2642 C   0  0  0  0  0  0  0  0  0  0  0  0
  -25.5984  -11.7331   20.3635 N   0  0  0  0  0  0  0  0  0  0  0  0
  -26.8338  -12.1859   20.0898 N   0  0  0  0  0  0  0  0  0  0  0  0
  -27.5951  -15.8417   20.9325 N   0  0  0  0  0  0  0  0  0  0  0  0
  -23.6134  -30.6875   20.3347 N   0  0  0  0  0  0  0  0  0  0  0  0
  -29.0773  -11.4885   19.7877 N   0  0  0  0  0  0  0  0  0  0  0  0
  -26.8966   -7.6322   20.6650 N   0  0  0  0  0  0  0  0  0  0  0  0
  -21.4463  -29.1019   22.3740 N   0  0  0  0  0  0  0  0  0  0  0  0
  -23.1363  -32.7096   17.6623 N   0  0  0  0  0  0  0  0  0  0  0  0
  -25.6698  -35.2350   17.1413 N   0  3  0  0  0  0  0  0  0  0  0  0
  -32.0867  -24.3394   19.3291 O   0  0  0  0  0  0  0  0  0  0  0  0
  -28.9482   -8.5483   20.2061 O   0  0  0  0  0  0  0  0  0  0  0  0
  -29.7195  -15.8569   21.8834 O   0  0  0  0  0  0  0  0  0  0  0  0
  -23.4205  -28.1360   21.6045 O   0  0  0  0  0  0  0  0  0  0  0  0
  -21.6569  -31.9051   19.9802 O   0  0  0  0  0  0  0  0  0  0  0  0
  -25.3592  -32.4397   17.0601 O   0  0  0  0  0  0  0  0  0  0  0  0
  -21.4465   -7.0889   21.6832 O   0  0  0  0  0  0  0  0  0  0  0  0
  -29.2363  -28.1745   20.6834 O   0  0  0  0  0  0  0  0  0  1  0  0
  -22.1478   -3.2508   25.5796 F   0  0  0  0  0  0  0  0  0  0  0  0
  -19.8729   -7.0711   23.9561 F   0  0  0  0  0  0  0  0  0  0  0  0
  1  2  1  0  0  0  0
  1  7  2  0  0  0  0
  2  8  2  0  0  0  0
  3 10  2  0  0  0  0
  3 18  1  0  0  0  0
  4 11  1  0  0  0  0
  4 18  2  0  0  0  0
  5  6  2  0  0  0  0
  5 19  1  0  0  0  0
  6 20  1  0  0  0  0
  7 22  1  0  0  0  0
  8 24  1  0  0  0  0
  9 12  2  0  0  0  0
  9 23  1  0  0  0  0
 10 27  1  0  0  0  0
 11 27  2  0  0  0  0
 12 28  1  0  0  0  0
 13 14  2  0  0  0  0
 13 29  1  0  0  0  0
 14 30  1  0  0  0  0
 15 19  2  0  0  0  0
 15 26  1  0  0  0  0
 16 25  1  0  0  0  0
 16 28  2  0  0  0  0
 17 30  2  0  0  0  0
 17 31  1  0  0  0  0
 18 32  1  0  0  0  0
 19 34  1  0  0  0  0
 20 26  2  0  0  0  0
 20 38  1  0  0  0  0
 21 32  1  0  0  0  0
 21 33  2  0  0  0  0
 21 39  1  0  0  0  0
 22 24  2  0  0  0  0
 22 44  1  0  0  0  0
 23 25  2  0  0  0  0
 23 45  1  0  0  0  0
 24 53  1  0  0  0  0
 25 46  1  0  0  0  0
 26 56  1  0  0  0  0
 27 81  1  0  0  0  0
 28 82  1  0  0  0  0
 29 31  2  0  0  0  0
 29 81  1  0  0  0  0
 30 83  1  0  0  0  0
 31 84  1  0  0  0  0
 32 66  2  0  0  0  0
 33 67  1  0  0  0  0
 33 70  1  0  0  0  0
 34 35  2  0  0  0  0
 35 40  1  0  0  0  0
 36 37  2  0  0  0  0
 36 38  1  0  0  0  0
 37 62  1  0  0  0  0
 38 75  2  0  0  0  0
 39 71  1  0  0  0  0
 39 76  2  0  0  0  0
 40 68  1  0  0  0  0
 40 77  2  0  0  0  0
 41 54  1  0  0  0  0
 41 72  1  0  0  0  0
 41 78  2  0  0  0  0
 42 63  1  0  0  0  0
 42 69  1  0  0  0  0
 42 79  2  0  0  0  0
 43 64  1  0  0  0  0
 43 73  1  0  0  0  0
 43 80  2  0  0  0  0
 44 47  1  0  0  0  0
 45 54  1  0  0  0  0
 46 69  1  0  0  0  0
 47 49  1  0  0  0  0
 48 50  1  0  0  0  0
 48 51  1  0  0  0  0
 49 53  1  0  0  0  0
 50 55  1  0  0  0  0
 51 68  1  0  0  0  0
 52 55  1  0  0  0  0
 52 68  1  0  0  0  0
 53 72  1  0  0  0  0
 54 69  1  0  0  0  0
 55 67  1  0  0  0  0
 57 64  1  0  0  0  0
 58 65  1  0  0  0  0
 59 65  1  0  0  0  0
 60 65  1  0  0  0  0
 61 74  1  0  0  0  0
 62 82  1  0  0  0  0
 63 65  1  0  0  0  0
 63 73  1  0  0  0  0
 64 74  1  0  0  0  0
 66 67  1  0  0  0  0
M  CHG  1  74   1
M  ISO  4  35 100  40 100  62 101  82 101
M  END
> <Batch ID>
0130

> <Smiles>
CNC(C)C(=O)NC(C(=O)N1Cc2cc([101O:1][101CH2:1]C=CC(=O)c3ccc(C=[100CH:0][100C:0](=O)N4CCCC(n5nc(-c6ccc(Oc7ccc(F)cc7F)cc6)c(C(N)=O)c5N)C4)cc3C)ccc2CC1C(=O)NC1CCCc2ccccc21)C(C)(C)C

> <Shape>
0.292

> <Color>
0.131

> <Negative vol penalty>
0.000

$$$$

  -OEChem-04052302223D

 83 91  0     1  0  0  0  0  0999 V2000
  -23.6199   -8.1590   21.4475 C   0  0  0  0  0  0  0  0  0  0  0  0
  -24.3827   -9.2329   20.9998 C   0  0  0  0  0  0  0  0  0  0  0  0
  -33.6436  -22.9679   18.4814 C   0  0  0  0  0  0  0  0  0  0  0  0
  -22.9389  -30.9083   22.3127 C   0  0  0  0  0  0  0  0  0  0  0  0
  -22.4319  -30.0135   24.4988 C   0  0  0  0  0  0  0  0  0  0  0  0
  -33.3069  -21.6379   18.7329 C   0  0  0  0  0  0  0  0  0  0  0  0
  -32.7387  -23.9856   18.7835 C   0  0  0  0  0  0  0  0  0  0  0  0
  -22.2604   -8.3304   21.7049 C   0  0  0  0  0  0  0  0  0  0  0  0
  -23.7861  -10.4786   20.8083 C   0  0  0  0  0  0  0  0  0  0  0  0
  -26.5662  -14.2730   22.6841 C   0  0  0  0  0  0  0  0  0  0  0  0
  -21.5836  -31.1618   22.1020 C   0  0  0  0  0  0  0  0  0  0  0  0
  -21.0765  -30.2671   24.2883 C   0  0  0  0  0  0  0  0  0  0  0  0
  -27.6633  -14.6908   21.9320 C   0  0  0  0  0  0  0  0  0  0  0  0
  -18.5062  -28.8438   22.6154 C   0  0  0  0  0  0  0  0  0  0  0  0
  -17.5985  -27.8419   22.9587 C   0  0  0  0  0  0  0  0  0  0  0  0
  -31.1603  -22.3431   19.5884 C   0  0  0  0  0  0  0  0  0  0  0  0
  -26.3715  -16.5456   21.0892 C   0  0  0  0  0  0  0  0  0  0  0  0
  -16.5349  -29.3423   24.5254 C   0  0  0  0  0  0  0  0  0  0  0  0
  -23.3631  -30.3341   23.5110 C   0  0  0  0  0  0  0  0  0  0  0  0
  -32.0652  -21.3255   19.2864 C   0  0  0  0  0  0  0  0  0  0  0  0
  -31.4971  -23.6732   19.3370 C   0  0  0  0  0  0  0  0  0  0  0  0
  -25.7112  -30.9385   24.3040 C   0  0  0  0  0  0  0  0  0  0  0  0
  -21.6489   -9.5813   21.5256 C   0  0  0  0  0  0  0  0  0  0  0  0
  -25.3581  -14.9834   22.6359 C   0  0  0  0  0  0  0  0  0  0  0  0
  -22.4169  -10.6666   21.0622 C   0  0  0  0  0  0  0  0  0  0  0  0
  -25.2614  -16.1362   21.8436 C   0  0  0  0  0  0  0  0  0  0  0  0
  -20.6524  -30.8413   23.0898 C   0  0  0  0  0  0  0  0  0  0  0  0
  -27.5651  -15.8256   21.1321 C   0  0  0  0  0  0  0  0  0  0  0  0
  -18.4283  -30.0949   23.2272 C   0  0  0  0  0  0  0  0  0  0  0  0
  -16.6128  -28.0912   23.9136 C   0  0  0  0  0  0  0  0  0  0  0  0
  -17.4427  -30.3442   24.1822 C   0  0  0  0  0  0  0  0  0  0  0  0
  -24.7629  -30.0714   23.7290 C   0  0  0  0  0  0  0  0  0  0  0  0
  -26.8847  -30.2252   24.2852 C   0  0  0  0  0  0  0  0  0  0  0  0
  -31.7104  -19.9201   19.5518 C   0  0  0  0  0  0  0  0  0  0  0  0
  -30.5541  -24.7350   19.6519 C   0  0  0  0  0  0  0  0  0  0  0  0
  -30.4586  -19.4679   19.7099 C   0  0  0  0  0  0  0  0  0  0  0  0
  -29.5176  -24.6327   20.5109 C   0  0  0  0  0  0  0  0  0  0  0  0
  -25.5459  -32.2698   24.8100 C   0  0  0  0  0  0  0  0  0  0  0  0
  -30.2061  -18.0237   19.9857 C   0  0  0  0  0  0  0  0  0  0  0  0
  -28.6518  -25.8082   20.7327 C   0  0  0  0  0  0  0  0  0  0  0  0
  -22.3896  -14.3012   21.7269 C   0  0  0  0  0  0  0  0  0  0  0  0
  -21.7636  -17.2551   22.9121 C   0  0  0  0  0  0  0  0  0  0  0  0
  -22.9286  -20.3596   23.7195 C   0  0  0  0  0  0  0  0  0  0  0  0
  -20.1662   -9.7064   21.7717 C   0  0  0  0  0  0  0  0  0  0  0  0
  -24.1922  -14.5350   23.4738 C   0  0  0  0  0  0  0  0  0  0  0  0
  -23.9932  -16.9456   21.7726 C   0  0  0  0  0  0  0  0  0  0  0  0
  -19.6901  -11.1509   21.9018 C   0  0  0  0  0  0  0  0  0  0  0  0
  -28.5685  -25.7634   24.3964 C   0  0  0  0  0  0  0  0  0  0  0  0
  -20.2800  -12.0099   20.7878 C   0  0  0  0  0  0  0  0  0  0  0  0
  -27.6221  -26.9262   24.6828 C   0  0  0  0  0  0  0  0  0  0  0  0
  -28.1899  -25.0201   23.1163 C   0  0  0  0  0  0  0  0  0  0  0  0
  -27.1347  -27.0702   22.2086 C   0  0  0  0  0  0  0  0  0  0  0  0
  -21.8112  -12.0395   20.8661 C   0  0  1  0  0  0  0  0  0  0  0  0
  -22.8511  -15.0404   22.9509 C   0  0  1  0  0  0  0  0  0  0  0  0
  -27.5250  -27.8612   23.4669 C   0  0  1  0  0  0  0  0  0  0  0  0
  -22.1726  -22.5711   24.6332 C   0  0  0  0  0  0  0  0  0  0  0  0
  -20.4841  -17.9255   20.2244 C   0  0  0  0  0  0  0  0  0  0  0  0
  -20.6159  -20.3475   20.8446 C   0  0  0  0  0  0  0  0  0  0  0  0
  -19.2384  -18.7839   22.2158 C   0  0  0  0  0  0  0  0  0  0  0  0
  -24.7460  -20.1508   26.0459 C   0  0  0  0  0  0  0  0  0  0  0  0
  -28.7514  -17.6349   20.1446 C   0  0  0  0  0  0  0  0  0  1  0  0
  -21.7600  -18.6551   22.3471 C   0  0  1  0  0  0  0  0  0  0  0  0
  -22.7563  -21.2071   24.9671 C   0  0  2  0  0  0  0  0  0  0  0  0
  -20.5481  -18.9119   21.4076 C   0  0  0  0  0  0  0  0  0  0  0  0
  -25.2887  -28.8969   23.3708 N   0  0  0  0  0  0  0  0  0  0  0  0
  -26.5800  -29.0211   23.7216 N   0  0  0  0  0  0  0  0  0  0  0  0
  -28.0458  -25.9431   21.9805 N   0  0  0  0  0  0  0  0  0  0  0  0
  -22.8791  -16.4631   22.6054 N   0  0  0  0  0  0  0  0  0  0  0  0
  -28.1372  -30.5167   24.6958 N   0  0  0  0  0  0  0  0  0  0  0  0
  -24.2728  -32.8532   24.7527 N   0  0  0  0  0  0  0  0  0  0  0  0
  -22.2465  -12.9394   21.9126 N   0  0  0  0  0  0  0  0  0  0  0  0
  -21.8306  -19.5572   23.4915 N   0  0  0  0  0  0  0  0  0  0  0  0
  -24.0699  -21.4101   25.6409 N   0  3  0  0  0  0  0  0  0  0  0  0
  -26.5024  -32.9289   25.2836 O   0  0  0  0  0  0  0  0  0  0  0  0
  -31.1191  -17.2075   20.0767 O   0  0  0  0  0  0  0  0  0  0  0  0
  -28.5140  -26.5976   19.7965 O   0  0  0  0  0  0  0  0  0  0  0  0
  -22.1774  -14.9207   20.6911 O   0  0  0  0  0  0  0  0  0  0  0  0
  -20.8150  -16.8807   23.6061 O   0  0  0  0  0  0  0  0  0  0  0  0
  -23.9348  -20.4075   23.0154 O   0  0  0  0  0  0  0  0  0  0  0  0
  -19.3298  -31.0888   22.8848 O   0  0  0  0  0  0  0  0  0  0  0  0
  -28.6342  -16.2352   20.3965 O   0  0  0  0  0  0  0  0  0  1  0  0
  -15.7402  -27.1295   24.2420 F   0  0  0  0  0  0  0  0  0  0  0  0
  -17.3621  -31.5446   24.7725 F   0  0  0  0  0  0  0  0  0  0  0  0
  1  2  1  0  0  0  0
  1  8  2  0  0  0  0
  2  9  2  0  0  0  0
  3  6  2  0  0  0  0
  3  7  1  0  0  0  0
  4 11  2  0  0  0  0
  4 19  1  0  0  0  0
  5 12  1  0  0  0  0
  5 19  2  0  0  0  0
  6 20  1  0  0  0  0
  7 21  2  0  0  0  0
  8 23  1  0  0  0  0
  9 25  1  0  0  0  0
 10 13  2  0  0  0  0
 10 24  1  0  0  0  0
 11 27  1  0  0  0  0
 12 27  2  0  0  0  0
 13 28  1  0  0  0  0
 14 15  2  0  0  0  0
 14 29  1  0  0  0  0
 15 30  1  0  0  0  0
 16 20  2  0  0  0  0
 16 21  1  0  0  0  0
 17 26  1  0  0  0  0
 17 28  2  0  0  0  0
 18 30  2  0  0  0  0
 18 31  1  0  0  0  0
 19 32  1  0  0  0  0
 20 34  1  0  0  0  0
 21 35  1  0  0  0  0
 22 32  1  0  0  0  0
 22 33  2  0  0  0  0
 22 38  1  0  0  0  0
 23 25  2  0  0  0  0
 23 44  1  0  0  0  0
 24 26  2  0  0  0  0
 24 45  1  0  0  0  0
 25 53  1  0  0  0  0
 26 46  1  0  0  0  0
 27 80  1  0  0  0  0
 28 81  1  0  0  0  0
 29 31  2  0  0  0  0
 29 80  1  0  0  0  0
 30 82  1  0  0  0  0
 31 83  1  0  0  0  0
 32 65  2  0  0  0  0
 33 66  1  0  0  0  0
 33 69  1  0  0  0  0
 34 36  2  0  0  0  0
 35 37  2  0  0  0  0
 36 39  1  0  0  0  0
 37 40  1  0  0  0  0
 38 70  1  0  0  0  0
 38 74  2  0  0  0  0
 39 61  1  0  0  0  0
 39 75  2  0  0  0  0
 40 67  1  0  0  0  0
 40 76  2  0  0  0  0
 41 54  1  0  0  0  0
 41 71  1  0  0  0  0
 41 77  2  0  0  0  0
 42 62  1  0  0  0  0
 42 68  1  0  0  0  0
 42 78  2  0  0  0  0
 43 63  1  0  0  0  0
 43 72  1  0  0  0  0
 43 79  2  0  0  0  0
 44 47  1  0  0  0  0
 45 54  1  0  0  0  0
 46 68  1  0  0  0  0
 47 49  1  0  0  0  0
 48 50  1  0  0  0  0
 48 51  1  0  0  0  0
 49 53  1  0  0  0  0
 50 55  1  0  0  0  0
 51 67  1  0  0  0  0
 52 55  1  0  0  0  0
 52 67  1  0  0  0  0
 53 71  1  0  0  0  0
 54 68  1  0  0  0  0
 55 66  1  0  0  0  0
 56 63  1  0  0  0  0
 57 64  1  0  0  0  0
 58 64  1  0  0  0  0
 59 64  1  0  0  0  0
 60 73  1  0  0  0  0
 61 81  1  0  0  0  0
 62 64  1  0  0  0  0
 62 72  1  0  0  0  0
 63 73  1  0  0  0  0
 65 66  1  0  0  0  0
M  CHG  1  73   1
M  ISO  4  37 100  40 100  61 101  81 101
M  END
> <Batch ID>
0130

> <Smiles>
CNC(C)C(=O)NC(C(=O)N1Cc2cc([101O:1][101CH2:1]C(=O)C=Cc3cccc(C=[100CH:0][100C:0](=O)N4CCCC(n5nc(-c6ccc(Oc7ccc(F)cc7F)cc6)c(C(N)=O)c5N)C4)c3)ccc2CC1C(=O)NC1CCCc2ccccc21)C(C)(C)C

> <Shape>
0.207

> <Color>
0.102

> <Negative vol penalty>
0.000

$$$$

  -OEChem-04052302223D

 84 92  0     1  0  0  0  0  0999 V2000
  -27.0914  -38.3433   21.4673 C   0  0  0  0  0  0  0  0  0  0  0  0
  -27.5507  -37.0419   21.6429 C   0  0  0  0  0  0  0  0  0  0  0  0
  -24.1976   -9.3209   22.3083 C   0  0  0  0  0  0  0  0  0  0  0  0
  -24.2304   -8.9107   19.9276 C   0  0  0  0  0  0  0  0  0  0  0  0
  -29.4757  -20.7257   20.3576 C   0  0  0  0  0  0  0  0  0  0  0  0
  -25.8207  -38.6994   21.9170 C   0  0  0  0  0  0  0  0  0  0  0  0
  -26.7399  -36.0961   22.2694 C   0  0  0  0  0  0  0  0  0  0  0  0
  -26.7193  -31.6471   19.8504 C   0  0  0  0  0  0  0  0  0  0  0  0
  -29.7005  -22.0815   20.1191 C   0  0  0  0  0  0  0  0  0  0  0  0
  -23.1240   -8.4410   22.4452 C   0  0  0  0  0  0  0  0  0  0  0  0
  -23.1568   -8.0308   20.0645 C   0  0  0  0  0  0  0  0  0  0  0  0
  -27.8222  -30.8153   20.0380 C   0  0  0  0  0  0  0  0  0  0  0  0
  -22.6439   -5.0960   22.5602 C   0  0  0  0  0  0  0  0  0  0  0  0
  -22.6916   -4.1727   23.6047 C   0  0  0  0  0  0  0  0  0  0  0  0
  -26.5691  -29.5268   21.6470 C   0  0  0  0  0  0  0  0  0  0  0  0
  -30.7686  -22.2840   22.2767 C   0  0  0  0  0  0  0  0  0  0  0  0
  -20.6561   -5.1005   24.5176 C   0  0  0  0  0  0  0  0  0  0  0  0
  -24.7508   -9.5558   21.0495 C   0  0  0  0  0  0  0  0  0  0  0  0
  -29.8973  -20.1490   21.5557 C   0  0  0  0  0  0  0  0  0  0  0  0
  -27.2301  -10.1523   20.9800 C   0  0  0  0  0  0  0  0  0  0  0  0
  -24.9901  -37.7550   22.5407 C   0  0  0  0  0  0  0  0  0  0  0  0
  -25.5346  -31.4314   20.5689 C   0  0  0  0  0  0  0  0  0  0  0  0
  -25.4574  -36.4403   22.7291 C   0  0  0  0  0  0  0  0  0  0  0  0
  -25.4517  -30.3559   21.4648 C   0  0  0  0  0  0  0  0  0  0  0  0
  -30.3469  -22.8606   21.0786 C   0  0  0  0  0  0  0  0  0  0  0  0
  -30.5437  -20.9282   22.5152 C   0  0  0  0  0  0  0  0  0  0  0  0
  -22.6036   -7.7959   21.3233 C   0  0  0  0  0  0  0  0  0  0  0  0
  -27.7482  -29.7567   20.9386 C   0  0  0  0  0  0  0  0  0  0  0  0
  -21.6025   -6.0216   22.4945 C   0  0  0  0  0  0  0  0  0  0  0  0
  -21.6977   -4.1749   24.5834 C   0  0  0  0  0  0  0  0  0  0  0  0
  -20.6086   -6.0238   23.4731 C   0  0  0  0  0  0  0  0  0  0  0  0
  -25.8594  -10.4651   20.9075 C   0  0  0  0  0  0  0  0  0  0  0  0
  -27.8672  -11.3528   20.7811 C   0  0  0  0  0  0  0  0  0  0  0  0
  -29.6475  -18.7305   21.7750 C   0  0  0  0  0  0  0  0  0  0  0  0
  -28.4339  -18.1422   21.7748 C   0  0  0  0  0  0  0  0  0  0  0  0
  -27.8701   -8.8896   21.2068 C   0  0  0  0  0  0  0  0  0  0  0  0
  -28.3454  -16.6860   22.0033 C   0  0  0  0  0  0  0  0  0  0  0  0
  -23.8524  -33.1125   22.6779 C   0  0  0  0  0  0  0  0  0  0  0  0
  -21.7473  -30.6644   22.3650 C   0  0  0  0  0  0  0  0  0  0  0  0
  -21.2055  -27.3960   21.5463 C   0  0  0  0  0  0  0  0  0  0  0  0
  -23.6427  -38.1990   23.0525 C   0  0  0  0  0  0  0  0  0  0  0  0
  -24.3449  -32.3216   20.3353 C   0  0  0  0  0  0  0  0  0  0  0  0
  -24.1961  -30.0692   22.2457 C   0  0  0  0  0  0  0  0  0  0  0  0
  -22.7001  -37.0411   23.3705 C   0  0  0  0  0  0  0  0  0  0  0  0
  -26.1003  -15.8174   19.2397 C   0  0  0  0  0  0  0  0  0  0  0  0
  -23.4255  -35.9681   24.1763 C   0  0  0  0  0  0  0  0  0  0  0  0
  -25.9163  -14.3199   19.4705 C   0  0  0  0  0  0  0  0  0  0  0  0
  -26.2471  -16.5845   20.5530 C   0  0  0  0  0  0  0  0  0  0  0  0
  -27.1464  -14.5600   21.6635 C   0  0  0  0  0  0  0  0  0  0  0  0
  -24.5977  -35.3796   23.3818 C   0  0  1  0  0  0  0  0  0  0  0  0
  -23.3597  -32.3202   21.5001 C   0  0  1  0  0  0  0  0  0  0  0  0
  -27.0438  -13.7626   20.3539 C   0  0  1  0  0  0  0  0  0  0  0  0
  -29.8624  -20.1364   24.7945 C   0  0  0  0  0  0  0  0  0  0  0  0
  -19.3872  -25.6706   21.4263 C   0  0  0  0  0  0  0  0  0  0  0  0
  -21.8257  -30.3741   25.4014 C   0  0  0  0  0  0  0  0  0  0  0  0
  -20.7881  -28.1104   25.1420 C   0  0  0  0  0  0  0  0  0  0  0  0
  -19.5505  -30.1414   24.3896 C   0  0  0  0  0  0  0  0  0  0  0  0
  -21.5757  -27.0405   18.6316 C   0  0  0  0  0  0  0  0  0  0  0  0
  -30.5916  -24.3260   20.8205 C   0  0  0  0  0  0  0  0  0  0  0  0
  -31.0088  -20.3442   23.8104 C   0  0  0  0  0  0  0  0  0  0  0  0
  -29.4556  -25.2371   21.2986 C   0  0  0  0  0  0  0  0  0  0  0  0
  -29.6866  -26.7103   20.9594 C   0  0  0  0  0  0  0  0  0  0  0  0
  -28.5586  -27.5883   21.4840 C   0  0  0  0  0  0  0  0  0  1  0  0
  -21.5409  -29.3372   23.0541 C   0  0  1  0  0  0  0  0  0  0  0  0
  -20.1582  -26.7384   20.6659 C   0  0  2  0  0  0  0  0  0  0  0  0
  -20.9507  -29.4971   24.4837 C   0  0  0  0  0  0  0  0  0  0  0  0
  -25.6379  -11.7626   20.6804 N   0  0  0  0  0  0  0  0  0  0  0  0
  -26.8779  -12.2757   20.6086 N   0  0  0  0  0  0  0  0  0  0  0  0
  -27.2915  -15.9970   21.4056 N   0  0  0  0  0  0  0  0  0  0  0  0
  -23.0620  -30.9717   21.9871 N   0  0  0  0  0  0  0  0  0  0  0  0
  -29.1715  -11.6983   20.7388 N   0  0  0  0  0  0  0  0  0  0  0  0
  -27.0661   -7.7566   21.3917 N   0  0  0  0  0  0  0  0  0  0  0  0
  -24.1163  -34.4386   22.3932 N   0  0  0  0  0  0  0  0  0  0  0  0
  -20.7196  -28.5338   22.1550 N   0  0  0  0  0  0  0  0  0  0  0  0
  -20.8023  -26.1003   19.4831 N   0  3  0  0  0  0  0  0  0  0  0  0
  -29.1179   -8.7723   21.2608 O   0  0  0  0  0  0  0  0  0  0  0  0
  -29.2085  -16.1685   22.7146 O   0  0  0  0  0  0  0  0  0  0  0  0
  -23.9821  -32.5617   23.7649 O   0  0  0  0  0  0  0  0  0  0  0  0
  -20.7766  -31.3983   22.1630 O   0  0  0  0  0  0  0  0  0  0  0  0
  -22.3399  -26.9433   21.6835 O   0  0  0  0  0  0  0  0  0  0  0  0
  -21.5562   -6.9370   21.4565 O   0  0  0  0  0  0  0  0  0  0  0  0
  -28.8235  -28.9435   21.1241 O   0  0  0  0  0  0  0  0  0  1  0  0
  -21.7427   -3.2873   25.5854 F   0  0  0  0  0  0  0  0  0  0  0  0
  -19.6049   -6.9098   23.4146 F   0  0  0  0  0  0  0  0  0  0  0  0
  1  2  1  0  0  0  0
  1  6  2  0  0  0  0
  2  7  2  0  0  0  0
  3 10  2  0  0  0  0
  3 18  1  0  0  0  0
  4 11  1  0  0  0  0
  4 18  2  0  0  0  0
  5  9  2  0  0  0  0
  5 19  1  0  0  0  0
  6 21  1  0  0  0  0
  7 23  1  0  0  0  0
  8 12  2  0  0  0  0
  8 22  1  0  0  0  0
  9 25  1  0  0  0  0
 10 27  1  0  0  0  0
 11 27  2  0  0  0  0
 12 28  1  0  0  0  0
 13 14  2  0  0  0  0
 13 29  1  0  0  0  0
 14 30  1  0  0  0  0
 15 24  1  0  0  0  0
 15 28  2  0  0  0  0
 16 25  2  0  0  0  0
 16 26  1  0  0  0  0
 17 30  2  0  0  0  0
 17 31  1  0  0  0  0
 18 32  1  0  0  0  0
 19 26  2  0  0  0  0
 19 34  1  0  0  0  0
 20 32  1  0  0  0  0
 20 33  2  0  0  0  0
 20 36  1  0  0  0  0
 21 23  2  0  0  0  0
 21 41  1  0  0  0  0
 22 24  2  0  0  0  0
 22 42  1  0  0  0  0
 23 50  1  0  0  0  0
 24 43  1  0  0  0  0
 25 59  1  0  0  0  0
 26 60  1  0  0  0  0
 27 81  1  0  0  0  0
 28 82  1  0  0  0  0
 29 31  2  0  0  0  0
 29 81  1  0  0  0  0
 30 83  1  0  0  0  0
 31 84  1  0  0  0  0
 32 67  2  0  0  0  0
 33 68  1  0  0  0  0
 33 71  1  0  0  0  0
 34 35  2  0  0  0  0
 35 37  1  0  0  0  0
 36 72  1  0  0  0  0
 36 76  2  0  0  0  0
 37 69  1  0  0  0  0
 37 77  2  0  0  0  0
 38 51  1  0  0  0  0
 38 73  1  0  0  0  0
 38 78  2  0  0  0  0
 39 64  1  0  0  0  0
 39 70  1  0  0  0  0
 39 79  2  0  0  0  0
 40 65  1  0  0  0  0
 40 74  1  0  0  0  0
 40 80  2  0  0  0  0
 41 44  1  0  0  0  0
 42 51  1  0  0  0  0
 43 70  1  0  0  0  0
 44 46  1  0  0  0  0
 45 47  1  0  0  0  0
 45 48  1  0  0  0  0
 46 50  1  0  0  0  0
 47 52  1  0  0  0  0
 48 69  1  0  0  0  0
 49 52  1  0  0  0  0
 49 69  1  0  0  0  0
 50 73  1  0  0  0  0
 51 70  1  0  0  0  0
 52 68  1  0  0  0  0
 53 60  1  0  0  0  0
 54 65  1  0  0  0  0
 55 66  1  0  0  0  0
 56 66  1  0  0  0  0
 57 66  1  0  0  0  0
 58 75  1  0  0  0  0
 59 61  1  0  0  0  0
 61 62  1  0  0  0  0
 62 63  1  0  0  0  0
 63 82  1  0  0  0  0
 64 66  1  0  0  0  0
 64 74  1  0  0  0  0
 65 75  1  0  0  0  0
 67 68  1  0  0  0  0
M  CHG  1  75   1
M  ISO  4  35 100  37 100  63 101  82 101
M  END
> <Batch ID>
0130

> <Smiles>
CCc1cc(CCC[101CH2:1][101O:1]c2ccc3c(c2)CN(C(=O)C(NC(=O)C(C)NC)C(C)(C)C)C(C(=O)NC2CCCc4ccccc42)C3)ccc1C=[100CH:0][100C:0](=O)N1CCCC(n2nc(-c3ccc(Oc4ccc(F)cc4F)cc3)c(C(N)=O)c2N)C1

> <Shape>
0.304

> <Color>
0.095

> <Negative vol penalty>
0.000

$$$$

  -OEChem-04052302223D

 82 90  0     1  0  0  0  0  0999 V2000
  -30.4475  -34.8806   20.6173 C   0  0  0  0  0  0  0  0  0  0  0  0
  -30.2781  -33.5004   20.5747 C   0  0  0  0  0  0  0  0  0  0  0  0
  -31.6928  -20.9090   24.4528 C   0  0  0  0  0  0  0  0  0  0  0  0
  -24.5537   -9.2863   22.1671 C   0  0  0  0  0  0  0  0  0  0  0  0
  -23.7157   -9.5906   19.9216 C   0  0  0  0  0  0  0  0  0  0  0  0
  -31.1584  -19.6223   24.3855 C   0  0  0  0  0  0  0  0  0  0  0  0
  -29.6774  -35.6497   21.4888 C   0  0  0  0  0  0  0  0  0  0  0  0
  -29.3393  -32.8884   21.4045 C   0  0  0  0  0  0  0  0  0  0  0  0
  -26.5611  -29.4240   18.9706 C   0  0  0  0  0  0  0  0  0  0  0  0
  -31.4577  -21.8167   23.4201 C   0  0  0  0  0  0  0  0  0  0  0  0
  -23.3613   -8.6584   22.5270 C   0  0  0  0  0  0  0  0  0  0  0  0
  -22.5233   -8.9627   20.2815 C   0  0  0  0  0  0  0  0  0  0  0  0
  -27.1525  -28.1833   18.7367 C   0  0  0  0  0  0  0  0  0  0  0  0
  -21.9417   -5.6115   22.1619 C   0  0  0  0  0  0  0  0  0  0  0  0
  -22.0275   -4.4365   22.9086 C   0  0  0  0  0  0  0  0  0  0  0  0
  -30.1538  -20.1510   22.2528 C   0  0  0  0  0  0  0  0  0  0  0  0
  -25.9660  -27.2681   20.6272 C   0  0  0  0  0  0  0  0  0  0  0  0
  -20.7649   -5.4749   24.6876 C   0  0  0  0  0  0  0  0  0  0  0  0
  -24.7309   -9.7524   20.8644 C   0  0  0  0  0  0  0  0  0  0  0  0
  -30.3889  -19.2433   23.2856 C   0  0  0  0  0  0  0  0  0  0  0  0
  -27.1221   -9.7928   19.9766 C   0  0  0  0  0  0  0  0  0  0  0  0
  -28.7220  -35.0479   22.3227 C   0  0  0  0  0  0  0  0  0  0  0  0
  -25.6746  -29.5990   20.0430 C   0  0  0  0  0  0  0  0  0  0  0  0
  -28.5568  -33.6500   22.2889 C   0  0  0  0  0  0  0  0  0  0  0  0
  -25.3627  -28.5113   20.8710 C   0  0  0  0  0  0  0  0  0  0  0  0
  -30.6882  -21.4377   22.3201 C   0  0  0  0  0  0  0  0  0  0  0  0
  -22.3461   -8.4966   21.5843 C   0  0  0  0  0  0  0  0  0  0  0  0
  -26.8573  -27.1058   19.5668 C   0  0  0  0  0  0  0  0  0  0  0  0
  -21.2675   -6.7182   22.6780 C   0  0  0  0  0  0  0  0  0  0  0  0
  -21.4391   -4.3682   24.1715 C   0  0  0  0  0  0  0  0  0  0  0  0
  -20.6791   -6.6499   23.9408 C   0  0  0  0  0  0  0  0  0  0  0  0
  -25.9622  -10.4016   20.4921 C   0  0  0  0  0  0  0  0  0  0  0  0
  -28.0006  -10.8318   19.7886 C   0  0  0  0  0  0  0  0  0  0  0  0
  -29.8322  -17.9012   23.2150 C   0  0  0  0  0  0  0  0  0  0  0  0
  -28.7924  -17.5245   22.4409 C   0  0  0  0  0  0  0  0  0  0  0  0
  -27.3821   -8.4117   19.6928 C   0  0  0  0  0  0  0  0  0  0  0  0
  -28.3485  -16.1164   22.4727 C   0  0  0  0  0  0  0  0  0  0  0  0
  -25.6517  -31.3977   22.6637 C   0  0  0  0  0  0  0  0  0  0  0  0
  -22.6611  -30.1864   22.9980 C   0  0  0  0  0  0  0  0  0  0  0  0
  -20.4540  -27.6816   22.2900 C   0  0  0  0  0  0  0  0  0  0  0  0
  -27.9463  -35.9154   23.2821 C   0  0  0  0  0  0  0  0  0  0  0  0
  -25.0244  -30.9370   20.2657 C   0  0  0  0  0  0  0  0  0  0  0  0
  -24.4019  -28.6419   22.0235 C   0  0  0  0  0  0  0  0  0  0  0  0
  -26.7101  -35.2307   23.8593 C   0  0  0  0  0  0  0  0  0  0  0  0
  -28.1408  -15.5095   18.8643 C   0  0  0  0  0  0  0  0  0  0  0  0
  -27.0507  -33.8189   24.3258 C   0  0  0  0  0  0  0  0  0  0  0  0
  -27.6146  -14.0769   18.8373 C   0  0  0  0  0  0  0  0  0  0  0  0
  -27.5816  -16.3018   20.0450 C   0  0  0  0  0  0  0  0  0  0  0  0
  -27.2778  -14.2094   21.3371 C   0  0  0  0  0  0  0  0  0  0  0  0
  -27.5312  -32.9521   23.1557 C   0  0  1  0  0  0  0  0  0  0  0  0
  -24.5328  -31.1315   21.6968 C   0  0  1  0  0  0  0  0  0  0  0  0
  -27.8642  -13.3799   20.1841 C   0  0  1  0  0  0  0  0  0  0  0  0
  -18.0948  -26.9509   22.7346 C   0  0  0  0  0  0  0  0  0  0  0  0
  -23.4636  -29.3151   25.8099 C   0  0  0  0  0  0  0  0  0  0  0  0
  -21.4683  -27.8030   25.8354 C   0  0  0  0  0  0  0  0  0  0  0  0
  -21.1590  -30.2698   25.6314 C   0  0  0  0  0  0  0  0  0  0  0  0
  -19.7623  -27.7676   19.4137 C   0  0  0  0  0  0  0  0  0  0  0  0
  -30.4332  -22.4198   21.2046 C   0  0  0  0  0  0  0  0  0  0  0  0
  -29.1727  -23.2687   21.4031 C   0  0  0  0  0  0  0  0  0  0  0  0
  -28.8888  -24.2033   20.2263 C   0  0  0  0  0  0  0  0  0  0  0  0
  -27.6535  -25.0578   20.4764 C   0  0  0  0  0  0  0  0  0  1  0  0
  -22.0695  -28.9680   23.6646 C   0  0  1  0  0  0  0  0  0  0  0  0
  -19.0184  -27.7134   21.7975 C   0  0  2  0  0  0  0  0  0  0  0  0
  -22.0597  -29.0867   25.2149 C   0  0  0  0  0  0  0  0  0  0  0  0
  -26.0892  -11.7247   20.6235 N   0  0  0  0  0  0  0  0  0  0  0  0
  -27.3394  -11.9559   20.1878 N   0  0  0  0  0  0  0  0  0  0  0  0
  -27.7804  -15.5876   21.3150 N   0  0  0  0  0  0  0  0  0  0  0  0
  -23.7968  -29.9718   22.2042 N   0  0  0  0  0  0  0  0  0  0  0  0
  -29.2665  -10.8843   19.3225 N   0  0  0  0  0  0  0  0  0  0  0  0
  -26.3697   -7.4758   19.9446 N   0  0  0  0  0  0  0  0  0  0  0  0
  -26.4071  -32.5133   22.3568 N   0  0  0  0  0  0  0  0  0  0  0  0
  -20.7502  -28.7783   23.0715 N   0  0  0  0  0  0  0  0  0  0  0  0
  -18.9221  -27.1015   20.4420 N   0  3  0  0  0  0  0  0  0  0  0  0
  -28.4855   -8.0171   19.2452 O   0  0  0  0  0  0  0  0  0  0  0  0
  -28.5037  -15.4949   23.5255 O   0  0  0  0  0  0  0  0  0  0  0  0
  -25.8165  -30.6473   23.6184 O   0  0  0  0  0  0  0  0  0  0  0  0
  -22.1308  -31.2869   23.1693 O   0  0  0  0  0  0  0  0  0  0  0  0
  -21.2334  -26.7728   22.0125 O   0  0  0  0  0  0  0  0  0  0  0  0
  -21.1826   -7.8838   21.9351 O   0  0  0  0  0  0  0  0  0  0  0  0
  -27.4336  -25.8939   19.3411 O   0  0  0  0  0  0  0  0  0  1  0  0
  -21.5202   -3.2393   24.8878 F   0  0  0  0  0  0  0  0  0  0  0  0
  -20.0292   -7.7095   24.4415 F   0  0  0  0  0  0  0  0  0  0  0  0
  1  2  1  0  0  0  0
  1  7  2  0  0  0  0
  2  8  2  0  0  0  0
  3  6  1  0  0  0  0
  3 10  2  0  0  0  0
  4 11  2  0  0  0  0
  4 19  1  0  0  0  0
  5 12  1  0  0  0  0
  5 19  2  0  0  0  0
  6 20  2  0  0  0  0
  7 22  1  0  0  0  0
  8 24  1  0  0  0  0
  9 13  2  0  0  0  0
  9 23  1  0  0  0  0
 10 26  1  0  0  0  0
 11 27  1  0  0  0  0
 12 27  2  0  0  0  0
 13 28  1  0  0  0  0
 14 15  2  0  0  0  0
 14 29  1  0  0  0  0
 15 30  1  0  0  0  0
 16 20  1  0  0  0  0
 16 26  2  0  0  0  0
 17 25  1  0  0  0  0
 17 28  2  0  0  0  0
 18 30  2  0  0  0  0
 18 31  1  0  0  0  0
 19 32  1  0  0  0  0
 20 34  1  0  0  0  0
 21 32  1  0  0  0  0
 21 33  2  0  0  0  0
 21 36  1  0  0  0  0
 22 24  2  0  0  0  0
 22 41  1  0  0  0  0
 23 25  2  0  0  0  0
 23 42  1  0  0  0  0
 24 50  1  0  0  0  0
 25 43  1  0  0  0  0
 26 58  1  0  0  0  0
 27 79  1  0  0  0  0
 28 80  1  0  0  0  0
 29 31  2  0  0  0  0
 29 79  1  0  0  0  0
 30 81  1  0  0  0  0
 31 82  1  0  0  0  0
 32 65  2  0  0  0  0
 33 66  1  0  0  0  0
 33 69  1  0  0  0  0
 34 35  2  0  0  0  0
 35 37  1  0  0  0  0
 36 70  1  0  0  0  0
 36 74  2  0  0  0  0
 37 67  1  0  0  0  0
 37 75  2  0  0  0  0
 38 51  1  0  0  0  0
 38 71  1  0  0  0  0
 38 76  2  0  0  0  0
 39 62  1  0  0  0  0
 39 68  1  0  0  0  0
 39 77  2  0  0  0  0
 40 63  1  0  0  0  0
 40 72  1  0  0  0  0
 40 78  2  0  0  0  0
 41 44  1  0  0  0  0
 42 51  1  0  0  0  0
 43 68  1  0  0  0  0
 44 46  1  0  0  0  0
 45 47  1  0  0  0  0
 45 48  1  0  0  0  0
 46 50  1  0  0  0  0
 47 52  1  0  0  0  0
 48 67  1  0  0  0  0
 49 52  1  0  0  0  0
 49 67  1  0  0  0  0
 50 71  1  0  0  0  0
 51 68  1  0  0  0  0
 52 66  1  0  0  0  0
 53 63  1  0  0  0  0
 54 64  1  0  0  0  0
 55 64  1  0  0  0  0
 56 64  1  0  0  0  0
 57 73  1  0  0  0  0
 58 59  1  0  0  0  0
 59 60  1  0  0  0  0
 60 61  1  0  0  0  0
 61 80  1  0  0  0  0
 62 64  1  0  0  0  0
 62 72  1  0  0  0  0
 63 73  1  0  0  0  0
 65 66  1  0  0  0  0
M  CHG  1  73   1
M  ISO  4  35 100  37 100  61 101  80 101
M  END
> <Batch ID>
0130

> <Smiles>
CNC(C)C(=O)NC(C(=O)N1Cc2cc([101O:1][101CH2:1]CCCc3cccc(C=[100CH:0][100C:0](=O)N4CCCC(n5nc(-c6ccc(Oc7ccc(F)cc7F)cc6)c(C(N)=O)c5N)C4)c3)ccc2CC1C(=O)NC1CCCc2ccccc21)C(C)(C)C

> <Shape>
0.281

> <Color>
0.105

> <Negative vol penalty>
0.000

$$$$

  -OEChem-04052302223D

 87 95  0     1  0  0  0  0  0999 V2000
  -17.5246  -26.1702   22.4485 C   0  0  0  0  0  0  0  0  0  0  0  0
  -18.5542  -26.5068   21.5755 C   0  0  0  0  0  0  0  0  0  0  0  0
  -26.1912  -12.7585   21.1478 C   0  0  0  0  0  0  0  0  0  0  0  0
  -26.3953  -12.9084   18.7451 C   0  0  0  0  0  0  0  0  0  0  0  0
  -17.5042  -26.7002   23.7379 C   0  0  0  0  0  0  0  0  0  0  0  0
  -19.5636  -27.3745   21.9912 C   0  0  0  0  0  0  0  0  0  0  0  0
  -24.1790  -25.7575   20.6766 C   0  0  0  0  0  0  0  0  0  0  0  0
  -25.0101  -12.0310   21.0021 C   0  0  0  0  0  0  0  0  0  0  0  0
  -25.2142  -12.1808   18.5994 C   0  0  0  0  0  0  0  0  0  0  0  0
  -24.5681  -25.9511   19.3518 C   0  0  0  0  0  0  0  0  0  0  0  0
  -24.1162   -8.8516   20.2773 C   0  0  0  0  0  0  0  0  0  0  0  0
  -23.9531   -7.7150   21.0692 C   0  0  0  0  0  0  0  0  0  0  0  0
  -25.8406  -27.8901   20.0153 C   0  0  0  0  0  0  0  0  0  0  0  0
  -28.6824  -21.5998   13.8803 C   0  0  0  0  0  0  0  0  0  0  0  0
  -29.2525  -19.6053   15.1188 C   0  0  0  0  0  0  0  0  0  0  0  0
  -28.9327  -21.6990   16.2812 C   0  0  0  0  0  0  0  0  0  0  0  0
  -21.9702   -8.6841   22.0519 C   0  0  0  0  0  0  0  0  0  0  0  0
  -26.8838  -13.1973   20.0193 C   0  0  0  0  0  0  0  0  0  0  0  0
  -29.4130  -13.4384   20.2484 C   0  0  0  0  0  0  0  0  0  0  0  0
  -18.5190  -27.5673   24.1728 C   0  0  0  0  0  0  0  0  0  0  0  0
  -24.6097  -26.6366   21.6806 C   0  0  0  0  0  0  0  0  0  0  0  0
  -19.5560  -27.9177   23.2872 C   0  0  0  0  0  0  0  0  0  0  0  0
  -25.4576  -27.7040   21.3523 C   0  0  0  0  0  0  0  0  0  0  0  0
  -28.9791  -20.2371   13.9056 C   0  0  0  0  0  0  0  0  0  0  0  0
  -28.6593  -22.3308   15.0680 C   0  0  0  0  0  0  0  0  0  0  0  0
  -29.2294  -20.3363   16.3066 C   0  0  0  0  0  0  0  0  0  0  0  0
  -24.5216  -11.7421   19.7279 C   0  0  0  0  0  0  0  0  0  0  0  0
  -25.3967  -27.0192   19.0205 C   0  0  0  0  0  0  0  0  0  0  0  0
  -23.2063   -9.9046   20.3728 C   0  0  0  0  0  0  0  0  0  0  0  0
  -22.8801   -7.6312   21.9565 C   0  0  0  0  0  0  0  0  0  0  0  0
  -22.1333   -9.8208   21.2600 C   0  0  0  0  0  0  0  0  0  0  0  0
  -28.1036  -13.9494   20.1692 C   0  0  0  0  0  0  0  0  0  0  0  0
  -30.2078  -14.5503   20.3844 C   0  0  0  0  0  0  0  0  0  0  0  0
  -27.5817  -27.3606   16.1915 C   0  0  0  0  0  0  0  0  0  0  0  0
  -28.7412  -26.6982   16.0531 C   0  0  0  0  0  0  0  0  0  0  0  0
  -29.8700  -12.0802   20.2029 C   0  0  0  0  0  0  0  0  0  0  0  0
  -23.1606  -28.6163   23.7017 C   0  0  0  0  0  0  0  0  0  0  0  0
  -26.1569  -28.9698   24.8932 C   0  0  0  0  0  0  0  0  0  0  0  0
  -29.5239  -28.7819   24.3692 C   0  0  0  0  0  0  0  0  0  0  0  0
  -29.5257  -20.2734   18.8075 C   0  0  0  0  0  0  0  0  0  0  0  0
  -18.4289  -28.1523   25.5599 C   0  0  0  0  0  0  0  0  0  0  0  0
  -24.2028  -26.3985   23.1089 C   0  0  0  0  0  0  0  0  0  0  0  0
  -25.9641  -28.6645   22.3962 C   0  0  0  0  0  0  0  0  0  0  0  0
  -19.7374  -28.7693   26.0470 C   0  0  0  0  0  0  0  0  0  0  0  0
  -30.1270  -19.0255   22.0875 C   0  0  0  0  0  0  0  0  0  0  0  0
  -20.3470  -29.6528   24.9633 C   0  0  0  0  0  0  0  0  0  0  0  0
  -29.8013  -17.5345   21.9735 C   0  0  0  0  0  0  0  0  0  0  0  0
  -29.1867  -19.8780   21.2373 C   0  0  0  0  0  0  0  0  0  0  0  0
  -28.7666  -17.9888   19.7130 C   0  0  0  0  0  0  0  0  0  0  0  0
  -20.6822  -28.8361   23.7094 C   0  0  1  0  0  0  0  0  0  0  0  0
  -24.2835  -27.6549   23.9706 C   0  0  1  0  0  0  0  0  0  0  0  0
  -29.7284  -17.0846   20.5012 C   0  0  2  0  0  0  0  0  0  0  0  0
  -30.3853  -19.4473   11.9859 C   0  0  0  0  0  0  0  0  0  0  0  0
  -31.7210  -29.1688   25.5184 C   0  0  0  0  0  0  0  0  0  0  0  0
  -30.7465  -26.8740   14.6224 C   0  0  0  0  0  0  0  0  0  0  0  0
  -28.5579  -26.5077   13.4932 C   0  0  0  0  0  0  0  0  0  0  0  0
  -25.8026  -31.9810   24.5514 C   0  0  0  0  0  0  0  0  0  0  0  0
  -28.2819  -32.2300   24.7950 C   0  0  0  0  0  0  0  0  0  0  0  0
  -26.9330  -31.2980   26.6751 C   0  0  0  0  0  0  0  0  0  0  0  0
  -30.3130  -25.9454   24.0680 C   0  0  0  0  0  0  0  0  0  0  0  0
  -29.0040  -19.4557   12.6356 C   0  0  0  0  0  0  0  0  0  0  0  0
  -28.3381  -23.8052   15.0404 C   0  0  0  0  0  0  0  0  0  0  0  0
  -27.0481  -27.8221   17.5093 C   0  0  0  0  0  0  0  0  0  1  0  0
  -29.6087  -24.6524   14.8730 C   0  0  0  0  0  0  0  0  0  0  0  0
  -27.3183  -29.8916   24.6097 C   0  0  1  0  0  0  0  0  0  0  0  0
  -30.6373  -28.1542   25.1882 C   0  0  2  0  0  0  0  0  0  0  0  0
  -29.3712  -26.1863   14.7634 C   0  0  0  0  0  0  0  0  0  0  0  0
  -27.0730  -31.3334   25.1376 C   0  0  0  0  0  0  0  0  0  0  0  0
  -28.0645  -15.2821   20.2485 N   0  0  0  0  0  0  0  0  0  0  0  0
  -29.3592  -15.6180   20.3790 N   0  0  0  0  0  0  0  0  0  0  0  0
  -25.5332  -28.3932   23.7776 N   0  0  0  0  0  0  0  0  0  0  0  0
  -29.1721  -19.3960   19.8544 N   0  0  0  0  0  0  0  0  0  0  0  0
  -31.5428  -14.7091   20.5070 N   0  0  0  0  0  0  0  0  0  0  0  0
  -28.9199  -11.0600   20.0593 N   0  0  0  0  0  0  0  0  0  0  0  0
  -29.5070  -19.6945   17.5390 N   0  0  0  0  0  0  0  0  0  0  0  0
  -21.9023  -28.0835   23.9077 N   0  0  0  0  0  0  0  0  0  0  0  0
  -28.4997  -29.2435   25.1687 N   0  0  0  0  0  0  0  0  0  0  0  0
  -31.2609  -27.0280   24.4374 N   0  3  0  0  0  0  0  0  0  0  0  0
  -31.0836  -11.7792   20.3037 O   0  0  0  0  0  0  0  0  0  0  0  0
  -23.4168  -29.7575   23.3359 O   0  0  0  0  0  0  0  0  0  0  0  0
  -25.8201  -28.7630   26.0617 O   0  0  0  0  0  0  0  0  0  0  0  0
  -29.5609  -28.8586   23.1431 O   0  0  0  0  0  0  0  0  0  0  0  0
  -29.8496  -21.4441   19.0234 O   0  0  0  0  0  0  0  0  0  0  0  0
  -23.3692  -11.0320   19.5854 O   0  0  0  0  0  0  0  0  0  0  0  0
  -25.7774  -27.2108   17.7282 O   0  0  0  0  0  0  0  0  0  1  0  0
  -22.7227   -6.5390   22.7157 F   0  0  0  0  0  0  0  0  0  0  0  0
  -21.2553  -10.8287   21.3553 F   0  0  0  0  0  0  0  0  0  0  0  0
  1  2  1  0  0  0  0
  1  5  2  0  0  0  0
  2  6  2  0  0  0  0
  3  8  2  0  0  0  0
  3 18  1  0  0  0  0
  4  9  1  0  0  0  0
  4 18  2  0  0  0  0
  5 20  1  0  0  0  0
  6 22  1  0  0  0  0
  7 10  2  0  0  0  0
  7 21  1  0  0  0  0
  8 27  1  0  0  0  0
  9 27  2  0  0  0  0
 10 28  1  0  0  0  0
 11 12  2  0  0  0  0
 11 29  1  0  0  0  0
 12 30  1  0  0  0  0
 13 23  1  0  0  0  0
 13 28  2  0  0  0  0
 14 24  1  0  0  0  0
 14 25  2  0  0  0  0
 15 24  2  0  0  0  0
 15 26  1  0  0  0  0
 16 25  1  0  0  0  0
 16 26  2  0  0  0  0
 17 30  2  0  0  0  0
 17 31  1  0  0  0  0
 18 32  1  0  0  0  0
 19 32  1  0  0  0  0
 19 33  2  0  0  0  0
 19 36  1  0  0  0  0
 20 22  2  0  0  0  0
 20 41  1  0  0  0  0
 21 23  2  0  0  0  0
 21 42  1  0  0  0  0
 22 50  1  0  0  0  0
 23 43  1  0  0  0  0
 24 61  1  0  0  0  0
 25 62  1  0  0  0  0
 26 75  1  0  0  0  0
 27 84  1  0  0  0  0
 28 85  1  0  0  0  0
 29 31  2  0  0  0  0
 29 84  1  0  0  0  0
 30 86  1  0  0  0  0
 31 87  1  0  0  0  0
 32 69  2  0  0  0  0
 33 70  1  0  0  0  0
 33 73  1  0  0  0  0
 34 35  2  0  0  0  0
 34 63  1  0  0  0  0
 35 67  1  0  0  0  0
 36 74  1  0  0  0  0
 36 79  2  0  0  0  0
 37 51  1  0  0  0  0
 37 76  1  0  0  0  0
 37 80  2  0  0  0  0
 38 65  1  0  0  0  0
 38 71  1  0  0  0  0
 38 81  2  0  0  0  0
 39 66  1  0  0  0  0
 39 77  1  0  0  0  0
 39 82  2  0  0  0  0
 40 72  1  0  0  0  0
 40 75  1  0  0  0  0
 40 83  2  0  0  0  0
 41 44  1  0  0  0  0
 42 51  1  0  0  0  0
 43 71  1  0  0  0  0
 44 46  1  0  0  0  0
 45 47  1  0  0  0  0
 45 48  1  0  0  0  0
 46 50  1  0  0  0  0
 47 52  1  0  0  0  0
 48 72  1  0  0  0  0
 49 52  1  0  0  0  0
 49 72  1  0  0  0  0
 50 76  1  0  0  0  0
 51 71  1  0  0  0  0
 52 70  1  0  0  0  0
 53 61  1  0  0  0  0
 54 66  1  0  0  0  0
 55 67  1  0  0  0  0
 56 67  1  0  0  0  0
 57 68  1  0  0  0  0
 58 68  1  0  0  0  0
 59 68  1  0  0  0  0
 60 78  1  0  0  0  0
 62 64  1  0  0  0  0
 63 85  1  0  0  0  0
 64 67  1  0  0  0  0
 65 68  1  0  0  0  0
 65 77  1  0  0  0  0
 66 78  1  0  0  0  0
 69 70  1  0  0  0  0
M  CHG  1  78   1
M  ISO  4  40 100  63 101  75 100  85 101
M  END
> <Batch ID>
0130

> <Smiles>
CCc1cc(CCC(C)(C)C=C[101CH2:1][101O:1]c2ccc3c(c2)CN(C(=O)C(NC(=O)C(C)NC)C(C)(C)C)C(C(=O)NC2CCCc4ccccc42)C3)cc([100NH:0][100C:0](=O)N2CCCC(n3nc(-c4ccc(Oc5ccc(F)cc5F)cc4)c(C(N)=O)c3N)C2)c1

> <Shape>
0.267

> <Color>
0.071

> <Negative vol penalty>
0.000

$$$$

  -OEChem-04052302223D

 83 91  0     1  0  0  0  0  0999 V2000
  -28.6275  -35.8889   21.7805 C   0  0  0  0  0  0  0  0  0  0  0  0
  -28.8091  -34.5101   21.7454 C   0  0  0  0  0  0  0  0  0  0  0  0
  -23.4708   -6.9138   23.4801 C   0  0  0  0  0  0  0  0  0  0  0  0
  -21.1608   -7.4378   23.0042 C   0  0  0  0  0  0  0  0  0  0  0  0
  -27.6654  -19.8552   20.2292 C   0  0  0  0  0  0  0  0  0  0  0  0
  -28.9901  -19.4139   18.2576 C   0  0  0  0  0  0  0  0  0  0  0  0
  -27.3225  -18.5051   20.3011 C   0  0  0  0  0  0  0  0  0  0  0  0
  -28.6473  -18.0638   18.3294 C   0  0  0  0  0  0  0  0  0  0  0  0
  -27.4920  -36.4262   22.3853 C   0  0  0  0  0  0  0  0  0  0  0  0
  -27.8556  -33.6677   22.3161 C   0  0  0  0  0  0  0  0  0  0  0  0
  -26.7389  -29.7118   19.3583 C   0  0  0  0  0  0  0  0  0  0  0  0
  -23.0626   -5.9713   24.4239 C   0  0  0  0  0  0  0  0  0  0  0  0
  -20.7526   -6.4952   23.9479 C   0  0  0  0  0  0  0  0  0  0  0  0
  -27.6488  -28.6557   19.3371 C   0  0  0  0  0  0  0  0  0  0  0  0
  -21.8748   -2.8056   24.4300 C   0  0  0  0  0  0  0  0  0  0  0  0
  -22.5067   -1.5622   24.4196 C   0  0  0  0  0  0  0  0  0  0  0  0
  -26.2516  -27.4291   20.8743 C   0  0  0  0  0  0  0  0  0  0  0  0
  -23.2559   -1.9239   26.6878 C   0  0  0  0  0  0  0  0  0  0  0  0
  -22.5199   -7.6471   22.7703 C   0  0  0  0  0  0  0  0  0  0  0  0
  -28.4991  -20.3097   19.2074 C   0  0  0  0  0  0  0  0  0  0  0  0
  -27.8135  -17.6094   19.3512 C   0  0  0  0  0  0  0  0  0  0  0  0
  -23.1744   -8.4057   20.4243 C   0  0  0  0  0  0  0  0  0  0  0  0
  -26.5194  -35.5896   22.9552 C   0  0  0  0  0  0  0  0  0  0  0  0
  -25.5820  -29.6389   20.1474 C   0  0  0  0  0  0  0  0  0  0  0  0
  -26.7067  -34.1943   22.9303 C   0  0  0  0  0  0  0  0  0  0  0  0
  -25.3274  -28.4846   20.9017 C   0  0  0  0  0  0  0  0  0  0  0  0
  -21.7036   -5.7620   24.6577 C   0  0  0  0  0  0  0  0  0  0  0  0
  -27.4067  -27.5153   20.0974 C   0  0  0  0  0  0  0  0  0  0  0  0
  -21.9335   -3.6083   25.5693 C   0  0  0  0  0  0  0  0  0  0  0  0
  -23.1973   -1.1213   25.5485 C   0  0  0  0  0  0  0  0  0  0  0  0
  -22.6240   -3.1674   26.6982 C   0  0  0  0  0  0  0  0  0  0  0  0
  -22.9409   -8.6213   21.7958 C   0  0  0  0  0  0  0  0  0  0  0  0
  -23.5516   -9.6355   19.9428 C   0  0  0  0  0  0  0  0  0  0  0  0
  -28.8606  -21.7362   19.1310 C   0  0  0  0  0  0  0  0  0  0  0  0
  -27.4564  -16.2017   19.4263 C   0  0  0  0  0  0  0  0  0  0  0  0
  -28.1771  -22.7272   19.7202 C   0  0  0  0  0  0  0  0  0  0  0  0
  -26.9983  -15.5672   20.5267 C   0  0  0  0  0  0  0  0  0  0  0  0
  -23.0603   -7.2016   19.6545 C   0  0  0  0  0  0  0  0  0  0  0  0
  -28.6220  -24.1435   19.5731 C   0  0  0  0  0  0  0  0  0  0  0  0
  -26.6684  -14.1304   20.4406 C   0  0  0  0  0  0  0  0  0  0  0  0
  -24.4298  -31.3033   22.5981 C   0  0  0  0  0  0  0  0  0  0  0  0
  -21.8364  -29.4034   22.1655 C   0  0  0  0  0  0  0  0  0  0  0  0
  -20.5615  -26.4654   20.9867 C   0  0  0  0  0  0  0  0  0  0  0  0
  -25.3317  -36.2185   23.6395 C   0  0  0  0  0  0  0  0  0  0  0  0
  -24.5971  -30.7757   20.1385 C   0  0  0  0  0  0  0  0  0  0  0  0
  -24.0902  -28.3484   21.7498 C   0  0  0  0  0  0  0  0  0  0  0  0
  -24.1856  -35.2418   23.8903 C   0  0  0  0  0  0  0  0  0  0  0  0
  -23.3819  -14.2089   22.0607 C   0  0  0  0  0  0  0  0  0  0  0  0
  -24.7141  -33.9394   24.4828 C   0  0  0  0  0  0  0  0  0  0  0  0
  -23.0197  -12.7262   22.0623 C   0  0  0  0  0  0  0  0  0  0  0  0
  -24.8829  -14.4311   22.2400 C   0  0  0  0  0  0  0  0  0  0  0  0
  -25.3550  -12.2089   21.2505 C   0  0  0  0  0  0  0  0  0  0  0  0
  -25.6827  -33.2468   23.5167 C   0  0  1  0  0  0  0  0  0  0  0  0
  -23.7080  -30.8056   21.3779 C   0  0  1  0  0  0  0  0  0  0  0  0
  -23.8555  -11.9606   21.0243 C   0  0  1  0  0  0  0  0  0  0  0  0
  -18.4137  -25.1796   20.8113 C   0  0  0  0  0  0  0  0  0  0  0  0
  -22.0382  -28.6680   25.1199 C   0  0  0  0  0  0  0  0  0  0  0  0
  -20.5284  -26.7228   24.6672 C   0  0  0  0  0  0  0  0  0  0  0  0
  -19.7077  -29.0492   24.2966 C   0  0  0  0  0  0  0  0  0  0  0  0
  -20.6671  -26.4669   18.0290 C   0  0  0  0  0  0  0  0  0  0  0  0
  -27.7687  -25.1723   20.2846 C   0  0  0  0  0  0  0  0  0  1  0  0
  -21.3950  -28.0601   22.6945 C   0  0  1  0  0  0  0  0  0  0  0  0
  -19.3460  -26.1675   20.1275 C   0  0  2  0  0  0  0  0  0  0  0  0
  -20.9417  -28.1281   24.1802 C   0  0  0  0  0  0  0  0  0  0  0  0
  -23.1523   -9.8883   22.1619 N   0  0  0  0  0  0  0  0  0  0  0  0
  -23.5227  -10.4799   21.0135 N   0  0  0  0  0  0  0  0  0  0  0  0
  -25.6628  -13.6432   21.2738 N   0  0  0  0  0  0  0  0  0  0  0  0
  -23.1605  -29.4894   21.7127 N   0  0  0  0  0  0  0  0  0  0  0  0
  -23.9021  -10.0661   18.7123 N   0  0  0  0  0  0  0  0  0  0  0  0
  -22.6604   -6.0271   20.3064 N   0  0  0  0  0  0  0  0  0  0  0  0
  -24.9520  -32.5755   22.4632 N   0  0  0  0  0  0  0  0  0  0  0  0
  -20.3676  -27.5780   21.7777 N   0  0  0  0  0  0  0  0  0  0  0  0
  -19.7653  -25.5899   18.8193 N   0  3  0  0  0  0  0  0  0  0  0  0
  -23.3217   -7.1645   18.4282 O   0  0  0  0  0  0  0  0  0  0  0  0
  -29.6144  -24.4509   18.9184 O   0  0  0  0  0  0  0  0  0  0  0  0
  -27.3075  -13.4472   19.6385 O   0  0  0  0  0  0  0  0  0  0  0  0
  -24.5059  -30.5867   23.5893 O   0  0  0  0  0  0  0  0  0  0  0  0
  -21.0337  -30.3399   22.1480 O   0  0  0  0  0  0  0  0  0  0  0  0
  -21.5797  -25.7776   20.9615 O   0  0  0  0  0  0  0  0  0  0  0  0
  -21.3049   -4.8421   25.5784 O   0  0  0  0  0  0  0  0  0  0  0  0
  -28.2935  -26.4833   20.0791 O   0  0  0  0  0  0  0  0  0  1  0  0
  -23.8028    0.0735   25.5389 F   0  0  0  0  0  0  0  0  0  0  0  0
  -22.6828   -3.9336   27.7961 F   0  0  0  0  0  0  0  0  0  0  0  0
  1  2  1  0  0  0  0
  1  9  2  0  0  0  0
  2 10  2  0  0  0  0
  3 12  2  0  0  0  0
  3 19  1  0  0  0  0
  4 13  1  0  0  0  0
  4 19  2  0  0  0  0
  5  7  2  0  0  0  0
  5 20  1  0  0  0  0
  6  8  1  0  0  0  0
  6 20  2  0  0  0  0
  7 21  1  0  0  0  0
  8 21  2  0  0  0  0
  9 23  1  0  0  0  0
 10 25  1  0  0  0  0
 11 14  2  0  0  0  0
 11 24  1  0  0  0  0
 12 27  1  0  0  0  0
 13 27  2  0  0  0  0
 14 28  1  0  0  0  0
 15 16  2  0  0  0  0
 15 29  1  0  0  0  0
 16 30  1  0  0  0  0
 17 26  1  0  0  0  0
 17 28  2  0  0  0  0
 18 30  2  0  0  0  0
 18 31  1  0  0  0  0
 19 32  1  0  0  0  0
 20 34  1  0  0  0  0
 21 35  1  0  0  0  0
 22 32  1  0  0  0  0
 22 33  2  0  0  0  0
 22 38  1  0  0  0  0
 23 25  2  0  0  0  0
 23 44  1  0  0  0  0
 24 26  2  0  0  0  0
 24 45  1  0  0  0  0
 25 53  1  0  0  0  0
 26 46  1  0  0  0  0
 27 80  1  0  0  0  0
 28 81  1  0  0  0  0
 29 31  2  0  0  0  0
 29 80  1  0  0  0  0
 30 82  1  0  0  0  0
 31 83  1  0  0  0  0
 32 65  2  0  0  0  0
 33 66  1  0  0  0  0
 33 69  1  0  0  0  0
 34 36  2  0  0  0  0
 35 37  2  0  0  0  0
 36 39  1  0  0  0  0
 37 40  1  0  0  0  0
 38 70  1  0  0  0  0
 38 74  2  0  0  0  0
 39 61  1  0  0  0  0
 39 75  2  0  0  0  0
 40 67  1  0  0  0  0
 40 76  2  0  0  0  0
 41 54  1  0  0  0  0
 41 71  1  0  0  0  0
 41 77  2  0  0  0  0
 42 62  1  0  0  0  0
 42 68  1  0  0  0  0
 42 78  2  0  0  0  0
 43 63  1  0  0  0  0
 43 72  1  0  0  0  0
 43 79  2  0  0  0  0
 44 47  1  0  0  0  0
 45 54  1  0  0  0  0
 46 68  1  0  0  0  0
 47 49  1  0  0  0  0
 48 50  1  0  0  0  0
 48 51  1  0  0  0  0
 49 53  1  0  0  0  0
 50 55  1  0  0  0  0
 51 67  1  0  0  0  0
 52 55  1  0  0  0  0
 52 67  1  0  0  0  0
 53 71  1  0  0  0  0
 54 68  1  0  0  0  0
 55 66  1  0  0  0  0
 56 63  1  0  0  0  0
 57 64  1  0  0  0  0
 58 64  1  0  0  0  0
 59 64  1  0  0  0  0
 60 73  1  0  0  0  0
 61 81  1  0  0  0  0
 62 64  1  0  0  0  0
 62 72  1  0  0  0  0
 63 73  1  0  0  0  0
 65 66  1  0  0  0  0
M  CHG  1  73   1
M  ISO  4  37 100  40 100  61 101  81 101
M  END
> <Batch ID>
0130

> <Smiles>
CNC(C)C(=O)NC(C(=O)N1Cc2cc([101O:1][101CH2:1]C(=O)C=Cc3ccc(C=[100CH:0][100C:0](=O)N4CCCC(n5nc(-c6ccc(Oc7ccc(F)cc7F)cc6)c(C(N)=O)c5N)C4)cc3)ccc2CC1C(=O)NC1CCCc2ccccc21)C(C)(C)C

> <Shape>
0.335

> <Color>
0.074

> <Negative vol penalty>
0.000

$$$$

  -OEChem-04052302223D

 84 92  0     1  0  0  0  0  0999 V2000
  -16.3527  -26.3668   22.3523 C   0  0  0  0  0  0  0  0  0  0  0  0
  -17.5802  -26.1316   21.7413 C   0  0  0  0  0  0  0  0  0  0  0  0
  -22.3914  -10.2133   20.3741 C   0  0  0  0  0  0  0  0  0  0  0  0
  -24.3517   -9.2201   21.3780 C   0  0  0  0  0  0  0  0  0  0  0  0
  -16.1514  -27.5379   23.0817 C   0  0  0  0  0  0  0  0  0  0  0  0
  -18.6068  -27.0680   21.8584 C   0  0  0  0  0  0  0  0  0  0  0  0
  -23.0777  -24.9291   22.8984 C   0  0  0  0  0  0  0  0  0  0  0  0
  -21.6949   -9.0179   20.5515 C   0  0  0  0  0  0  0  0  0  0  0  0
  -23.6552   -8.0246   21.5554 C   0  0  0  0  0  0  0  0  0  0  0  0
  -23.7571  -24.3273   21.8402 C   0  0  0  0  0  0  0  0  0  0  0  0
  -21.3695   -6.7710   23.7059 C   0  0  0  0  0  0  0  0  0  0  0  0
  -21.4895   -6.1296   24.9386 C   0  0  0  0  0  0  0  0  0  0  0  0
  -25.1568  -26.2812   21.6355 C   0  0  0  0  0  0  0  0  0  0  0  0
  -22.4034   -4.1832   23.8370 C   0  0  0  0  0  0  0  0  0  0  0  0
  -30.5990  -19.5006   18.4736 C   0  0  0  0  0  0  0  0  0  0  0  0
  -23.7198  -10.3144   20.7873 C   0  0  0  0  0  0  0  0  0  0  0  0
  -24.5240  -12.6261   21.5062 C   0  0  0  0  0  0  0  0  0  0  0  0
  -17.1792  -28.4846   23.2158 C   0  0  0  0  0  0  0  0  0  0  0  0
  -23.4261  -26.2181   23.3267 C   0  0  0  0  0  0  0  0  0  0  0  0
  -18.4186  -28.2535   22.5891 C   0  0  0  0  0  0  0  0  0  0  0  0
  -24.4820  -26.8962   22.7010 C   0  0  0  0  0  0  0  0  0  0  0  0
  -29.9429  -18.3280   20.2543 C   0  0  0  0  0  0  0  0  0  0  0  0
  -22.3267   -7.9236   21.1421 C   0  0  0  0  0  0  0  0  0  0  0  0
  -24.7950  -25.0044   21.2066 C   0  0  0  0  0  0  0  0  0  0  0  0
  -21.7664   -6.1185   22.5386 C   0  0  0  0  0  0  0  0  0  0  0  0
  -29.8671  -19.5980   19.6341 C   0  0  0  0  0  0  0  0  0  0  0  0
  -22.0064   -4.8357   25.0042 C   0  0  0  0  0  0  0  0  0  0  0  0
  -22.2833   -4.8247   22.6042 C   0  0  0  0  0  0  0  0  0  0  0  0
  -24.4400  -11.5488   20.6039 C   0  0  0  0  0  0  0  0  0  0  0  0
  -30.7155  -17.5451   19.4284 C   0  0  0  0  0  0  0  0  0  0  0  0
  -25.3184  -13.5472   20.8682 C   0  0  0  0  0  0  0  0  0  0  0  0
  -27.5429  -23.6429   19.3396 C   0  0  0  0  0  0  0  0  0  0  0  0
  -28.5853  -23.0031   19.8896 C   0  0  0  0  0  0  0  0  0  0  0  0
  -23.9366  -12.7805   22.8049 C   0  0  0  0  0  0  0  0  0  0  0  0
  -21.9246  -29.0160   23.4721 C   0  0  0  0  0  0  0  0  0  0  0  0
  -24.6283  -29.9463   25.0041 C   0  0  0  0  0  0  0  0  0  0  0  0
  -27.9576  -29.4486   25.5652 C   0  0  0  0  0  0  0  0  0  0  0  0
  -29.8488  -14.8184   17.8674 C   0  0  0  0  0  0  0  0  0  0  0  0
  -16.8991  -29.7576   23.9746 C   0  0  0  0  0  0  0  0  0  0  0  0
  -22.7011  -26.8428   24.4871 C   0  0  0  0  0  0  0  0  0  0  0  0
  -24.9083  -28.2737   23.1361 C   0  0  0  0  0  0  0  0  0  0  0  0
  -18.1602  -30.5248   24.3637 C   0  0  0  0  0  0  0  0  0  0  0  0
  -26.9646  -13.7260   16.0886 C   0  0  0  0  0  0  0  0  0  0  0  0
  -19.1124  -30.6241   23.1761 C   0  0  0  0  0  0  0  0  0  0  0  0
  -26.0610  -13.1458   17.1779 C   0  0  0  0  0  0  0  0  0  0  0  0
  -28.4388  -13.4410   16.3671 C   0  0  0  0  0  0  0  0  0  0  0  0
  -28.0068  -13.2838   18.7884 C   0  0  0  0  0  0  0  0  0  0  0  0
  -19.5648  -29.2337   22.7140 C   0  0  1  0  0  0  0  0  0  0  0  0
  -22.8009  -28.3650   24.5046 C   0  0  1  0  0  0  0  0  0  0  0  0
  -26.5145  -13.5940   18.5803 C   0  0  2  0  0  0  0  0  0  0  0  0
  -30.0723  -18.4516   22.7552 C   0  0  0  0  0  0  0  0  0  0  0  0
  -29.9036  -30.3928   26.8376 C   0  0  0  0  0  0  0  0  0  0  0  0
  -24.8346  -32.2289   22.9899 C   0  0  0  0  0  0  0  0  0  0  0  0
  -27.2178  -32.5396   23.6912 C   0  0  0  0  0  0  0  0  0  0  0  0
  -25.3800  -32.8645   25.3463 C   0  0  0  0  0  0  0  0  0  0  0  0
  -28.3314  -26.9369   27.0854 C   0  0  0  0  0  0  0  0  0  0  0  0
  -29.3192  -17.9246   21.5286 C   0  0  0  0  0  0  0  0  0  0  0  0
  -31.1689  -16.1477   19.4952 C   0  0  0  0  0  0  0  0  0  0  0  0
  -26.8285  -24.7799   19.9941 C   0  0  0  0  0  0  0  0  0  1  0  0
  -29.3073  -21.8738   19.2303 C   0  0  0  0  0  0  0  0  0  0  0  0
  -25.9544  -30.5263   24.5751 C   0  0  1  0  0  0  0  0  0  0  0  0
  -28.7642  -29.3856   26.8496 C   0  0  2  0  0  0  0  0  0  0  0  0
  -25.8376  -32.0147   24.1409 C   0  0  0  0  0  0  0  0  0  0  0  0
  -25.1261  -11.7642   19.4784 N   0  0  0  0  0  0  0  0  0  0  0  0
  -25.6488  -12.9875   19.6691 N   0  0  0  0  0  0  0  0  0  0  0  0
  -24.1645  -28.8447   24.2711 N   0  0  0  0  0  0  0  0  0  0  0  0
  -28.8050  -13.8915   17.7121 N   0  0  0  0  0  0  0  0  0  0  0  0
  -25.7595  -14.7732   21.2214 N   0  0  0  0  0  0  0  0  0  0  0  0
  -23.1485  -11.7373   23.3100 N   0  0  0  0  0  0  0  0  0  0  0  0
  -20.5826  -28.7126   23.6010 N   0  0  0  0  0  0  0  0  0  0  0  0
  -26.8772  -30.2973   25.6817 N   0  0  0  0  0  0  0  0  0  0  0  0
  -30.1273  -15.1972   19.1750 N   0  0  0  0  0  0  0  0  0  0  0  0
  -29.3424  -28.0242   27.0320 N   0  3  0  0  0  0  0  0  0  0  0  0
  -24.0920  -13.8196   23.4901 O   0  0  0  0  0  0  0  0  0  0  0  0
  -22.4285  -29.7411   22.6224 O   0  0  0  0  0  0  0  0  0  0  0  0
  -24.0295  -30.4476   25.9590 O   0  0  0  0  0  0  0  0  0  0  0  0
  -28.2582  -28.8116   24.5580 O   0  0  0  0  0  0  0  0  0  0  0  0
  -30.4820  -15.2787   16.9113 O   0  0  0  0  0  0  0  0  0  0  0  0
  -31.1194  -18.2524   18.3407 O   0  0  0  0  0  0  0  0  0  0  0  0
  -21.6473   -6.7570   21.3155 O   0  0  0  0  0  0  0  0  0  0  0  0
  -25.4594  -24.4195   20.1730 O   0  0  0  0  0  0  0  0  0  1  0  0
  -29.2134  -20.7249   20.0607 O   0  0  0  0  0  0  0  0  0  0  0  0
  -22.1230   -4.2205   26.1883 F   0  0  0  0  0  0  0  0  0  0  0  0
  -22.6674   -4.1932   21.4863 F   0  0  0  0  0  0  0  0  0  0  0  0
  1  2  1  0  0  0  0
  1  5  2  0  0  0  0
  2  6  2  0  0  0  0
  3  8  2  0  0  0  0
  3 16  1  0  0  0  0
  4  9  1  0  0  0  0
  4 16  2  0  0  0  0
  5 18  1  0  0  0  0
  6 20  1  0  0  0  0
  7 10  2  0  0  0  0
  7 19  1  0  0  0  0
  8 23  1  0  0  0  0
  9 23  2  0  0  0  0
 10 24  1  0  0  0  0
 11 12  2  0  0  0  0
 11 25  1  0  0  0  0
 12 27  1  0  0  0  0
 13 21  1  0  0  0  0
 13 24  2  0  0  0  0
 14 27  2  0  0  0  0
 14 28  1  0  0  0  0
 15 26  2  0  0  0  0
 15 79  1  0  0  0  0
 16 29  1  0  0  0  0
 17 29  1  0  0  0  0
 17 31  2  0  0  0  0
 17 34  1  0  0  0  0
 18 20  2  0  0  0  0
 18 39  1  0  0  0  0
 19 21  2  0  0  0  0
 19 40  1  0  0  0  0
 20 48  1  0  0  0  0
 21 41  1  0  0  0  0
 22 26  1  0  0  0  0
 22 30  2  0  0  0  0
 22 57  1  0  0  0  0
 23 80  1  0  0  0  0
 24 81  1  0  0  0  0
 25 28  2  0  0  0  0
 25 80  1  0  0  0  0
 26 82  1  0  0  0  0
 27 83  1  0  0  0  0
 28 84  1  0  0  0  0
 29 64  2  0  0  0  0
 30 58  1  0  0  0  0
 30 79  1  0  0  0  0
 31 65  1  0  0  0  0
 31 68  1  0  0  0  0
 32 33  2  0  0  0  0
 32 59  1  0  0  0  0
 33 60  1  0  0  0  0
 34 69  1  0  0  0  0
 34 74  2  0  0  0  0
 35 49  1  0  0  0  0
 35 70  1  0  0  0  0
 35 75  2  0  0  0  0
 36 61  1  0  0  0  0
 36 66  1  0  0  0  0
 36 76  2  0  0  0  0
 37 62  1  0  0  0  0
 37 71  1  0  0  0  0
 37 77  2  0  0  0  0
 38 67  1  0  0  0  0
 38 72  1  0  0  0  0
 38 78  2  0  0  0  0
 39 42  1  0  0  0  0
 40 49  1  0  0  0  0
 41 66  1  0  0  0  0
 42 44  1  0  0  0  0
 43 45  1  0  0  0  0
 43 46  1  0  0  0  0
 44 48  1  0  0  0  0
 45 50  1  0  0  0  0
 46 67  1  0  0  0  0
 47 50  1  0  0  0  0
 47 67  1  0  0  0  0
 48 70  1  0  0  0  0
 49 66  1  0  0  0  0
 50 65  1  0  0  0  0
 51 57  1  0  0  0  0
 52 62  1  0  0  0  0
 53 63  1  0  0  0  0
 54 63  1  0  0  0  0
 55 63  1  0  0  0  0
 56 73  1  0  0  0  0
 58 72  1  0  0  0  0
 59 81  1  0  0  0  0
 60 82  1  0  0  0  0
 61 63  1  0  0  0  0
 61 71  1  0  0  0  0
 62 73  1  0  0  0  0
 64 65  1  0  0  0  0
M  CHG  1  73   1
M  ISO  4  38 100  59 101  72 100  81 101
M  END
> <Batch ID>
0130

> <Smiles>
CCc1c(OCC=C[101CH2:1][101O:1]c2ccc3c(c2)CN(C(=O)C(NC(=O)C(C)NC)C(C)(C)C)C(C(=O)NC2CCCc4ccccc42)C3)coc1C[100NH:0][100C:0](=O)N1CCCC(n2nc(-c3ccc(Oc4ccc(F)cc4F)cc3)c(C(N)=O)c2N)C1

> <Shape>
0.324

> <Color>
0.129

> <Negative vol penalty>
0.000

$$$$

  -OEChem-04052302223D

 84 92  0     1  0  0  0  0  0999 V2000
  -28.0341  -30.2907   27.9774 C   0  0  0  0  0  0  0  0  0  0  0  0
  -27.9794  -29.4094   26.9024 C   0  0  0  0  0  0  0  0  0  0  0  0
  -24.7268   -8.7393   21.5716 C   0  0  0  0  0  0  0  0  0  0  0  0
  -22.9819  -10.2263   20.8091 C   0  0  0  0  0  0  0  0  0  0  0  0
  -26.9099  -31.0409   28.3201 C   0  0  0  0  0  0  0  0  0  0  0  0
  -26.8002  -29.2770   26.1700 C   0  0  0  0  0  0  0  0  0  0  0  0
  -27.6108  -29.2475   21.1713 C   0  0  0  0  0  0  0  0  0  0  0  0
  -23.8285   -8.1369   22.4524 C   0  0  0  0  0  0  0  0  0  0  0  0
  -22.0836   -9.6238   21.6898 C   0  0  0  0  0  0  0  0  0  0  0  0
  -28.0840  -28.0623   20.6099 C   0  0  0  0  0  0  0  0  0  0  0  0
  -21.3350   -5.8585   22.2957 C   0  0  0  0  0  0  0  0  0  0  0  0
  -21.3264   -4.4652   22.3605 C   0  0  0  0  0  0  0  0  0  0  0  0
  -25.8494  -27.5242   19.8775 C   0  0  0  0  0  0  0  0  0  0  0  0
  -24.5181  -17.9876   18.9212 C   0  0  0  0  0  0  0  0  0  0  0  0
  -26.3805  -19.0387   20.0455 C   0  0  0  0  0  0  0  0  0  0  0  0
  -21.8931   -4.5709   24.7068 C   0  0  0  0  0  0  0  0  0  0  0  0
  -24.3035   -9.7841   20.7500 C   0  0  0  0  0  0  0  0  0  0  0  0
  -25.4957  -10.0351   18.5087 C   0  0  0  0  0  0  0  0  0  0  0  0
  -25.7193  -30.9248   27.5856 C   0  0  0  0  0  0  0  0  0  0  0  0
  -26.2492  -29.5753   21.0993 C   0  0  0  0  0  0  0  0  0  0  0  0
  -25.6587  -30.0254   26.5040 C   0  0  0  0  0  0  0  0  0  0  0  0
  -25.3619  -28.7154   20.4365 C   0  0  0  0  0  0  0  0  0  0  0  0
  -23.7862  -19.1701   19.0281 C   0  0  0  0  0  0  0  0  0  0  0  0
  -24.3514  -20.2870   19.6436 C   0  0  0  0  0  0  0  0  0  0  0  0
  -25.8153  -17.9218   19.4299 C   0  0  0  0  0  0  0  0  0  0  0  0
  -22.5069   -8.5791   22.5115 C   0  0  0  0  0  0  0  0  0  0  0  0
  -27.2028  -27.1990   19.9655 C   0  0  0  0  0  0  0  0  0  0  0  0
  -21.6227   -6.6081   23.4364 C   0  0  0  0  0  0  0  0  0  0  0  0
  -25.6485  -20.2212   20.1524 C   0  0  0  0  0  0  0  0  0  0  0  0
  -21.6054   -3.8214   23.5661 C   0  0  0  0  0  0  0  0  0  0  0  0
  -21.9017   -5.9642   24.6419 C   0  0  0  0  0  0  0  0  0  0  0  0
  -25.2311  -10.4072   19.8404 C   0  0  0  0  0  0  0  0  0  0  0  0
  -26.4449  -10.9323   18.0837 C   0  0  0  0  0  0  0  0  0  0  0  0
  -24.9337   -8.9735   17.7259 C   0  0  0  0  0  0  0  0  0  0  0  0
  -23.9419  -30.0554   23.2322 C   0  0  0  0  0  0  0  0  0  0  0  0
  -22.2300  -30.9038   20.6108 C   0  0  0  0  0  0  0  0  0  0  0  0
  -21.7945  -30.6688   17.2341 C   0  0  0  0  0  0  0  0  0  0  0  0
  -27.8576  -16.4872   19.7723 C   0  0  0  0  0  0  0  0  0  0  0  0
  -24.5158  -31.7217   28.0230 C   0  0  0  0  0  0  0  0  0  0  0  0
  -25.7592  -30.8704   21.6866 C   0  0  0  0  0  0  0  0  0  0  0  0
  -23.8943  -29.0309   20.3142 C   0  0  0  0  0  0  0  0  0  0  0  0
  -23.4190  -31.7993   26.9641 C   0  0  0  0  0  0  0  0  0  0  0  0
  -30.0214  -13.6601   19.7273 C   0  0  0  0  0  0  0  0  0  0  0  0
  -23.1546  -30.4207   26.3673 C   0  0  0  0  0  0  0  0  0  0  0  0
  -29.0629  -12.4715   19.6238 C   0  0  0  0  0  0  0  0  0  0  0  0
  -29.4521  -14.7730   20.6053 C   0  0  0  0  0  0  0  0  0  0  0  0
  -27.1482  -14.0411   20.1309 C   0  0  0  0  0  0  0  0  0  0  0  0
  -24.4053  -29.8722   25.6700 C   0  0  1  0  0  0  0  0  0  0  0  0
  -24.2669  -30.8561   22.0031 C   0  0  1  0  0  0  0  0  0  0  0  0
  -27.6500  -12.9219   19.2039 C   0  0  2  0  0  0  0  0  0  0  0  0
  -22.3991  -19.2151   18.4756 C   0  0  0  0  0  0  0  0  0  0  0  0
  -23.5721  -21.5580   19.7591 C   0  0  0  0  0  0  0  0  0  0  0  0
  -20.2865  -31.4431   15.3838 C   0  0  0  0  0  0  0  0  0  0  0  0
  -20.1175  -28.8859   21.4914 C   0  0  0  0  0  0  0  0  0  0  0  0
  -19.1434  -29.0055   19.1882 C   0  0  0  0  0  0  0  0  0  0  0  0
  -19.2005  -31.0448   20.6238 C   0  0  0  0  0  0  0  0  0  0  0  0
  -24.0087  -32.0713   15.8595 C   0  0  0  0  0  0  0  0  0  0  0  0
  -28.7489  -23.9253   19.8321 C   0  0  0  0  0  0  0  0  0  0  0  0
  -27.4806  -23.3163   20.4199 C   0  0  0  0  0  0  0  0  0  0  0  0
  -28.7948  -25.4337   20.0368 C   0  0  0  0  0  0  0  0  0  1  0  0
  -27.4135  -21.8150   20.1779 C   0  0  0  0  0  0  0  0  0  0  0  0
  -21.3525  -30.1721   19.6241 C   0  0  1  0  0  0  0  0  0  0  0  0
  -21.5547  -31.7279   16.1733 C   0  0  2  0  0  0  0  0  0  0  0  0
  -19.9807  -29.7699   20.2357 C   0  0  0  0  0  0  0  0  0  0  0  0
  -25.9539  -11.4587   20.2353 N   0  0  0  0  0  0  0  0  0  0  0  0
  -26.6821  -11.7549   19.1453 N   0  0  0  0  0  0  0  0  0  0  0  0
  -23.4625  -30.3061   20.9101 N   0  0  0  0  0  0  0  0  0  0  0  0
  -28.1140  -15.1509   20.1455 N   0  0  0  0  0  0  0  0  0  0  0  0
  -27.0914  -11.0897   16.9091 N   0  0  0  0  0  0  0  0  0  0  0  0
  -23.9703   -8.1450   18.3174 N   0  0  0  0  0  0  0  0  0  0  0  0
  -26.5590  -16.7207   19.3208 N   0  0  0  0  0  0  0  0  0  0  0  0
  -24.5780  -30.4978   24.3764 N   0  0  0  0  0  0  0  0  0  0  0  0
  -21.2540  -31.0318   18.4495 N   0  0  0  0  0  0  0  0  0  0  0  0
  -22.7001  -31.7761   15.2212 N   0  3  0  0  0  0  0  0  0  0  0  0
  -25.2877   -8.7554   16.5424 O   0  0  0  0  0  0  0  0  0  0  0  0
  -23.1699  -29.1073   23.1490 O   0  0  0  0  0  0  0  0  0  0  0  0
  -21.8396  -31.9701   21.0925 O   0  0  0  0  0  0  0  0  0  0  0  0
  -22.3976  -29.6224   17.0063 O   0  0  0  0  0  0  0  0  0  0  0  0
  -28.7337  -17.3544   19.8219 O   0  0  0  0  0  0  0  0  0  0  0  0
  -21.6300   -7.9913   23.3706 O   0  0  0  0  0  0  0  0  0  0  0  0
  -27.6619  -26.0412   19.4173 O   0  0  0  0  0  0  0  0  0  1  0  0
  -26.2206  -21.3084   20.7605 O   0  0  0  0  0  0  0  0  0  0  0  0
  -21.5956   -2.4834   23.6285 F   0  0  0  0  0  0  0  0  0  0  0  0
  -22.1776   -6.6790   25.7414 F   0  0  0  0  0  0  0  0  0  0  0  0
  1  2  1  0  0  0  0
  1  5  2  0  0  0  0
  2  6  2  0  0  0  0
  3  8  2  0  0  0  0
  3 17  1  0  0  0  0
  4  9  1  0  0  0  0
  4 17  2  0  0  0  0
  5 19  1  0  0  0  0
  6 21  1  0  0  0  0
  7 10  2  0  0  0  0
  7 20  1  0  0  0  0
  8 26  1  0  0  0  0
  9 26  2  0  0  0  0
 10 27  1  0  0  0  0
 11 12  2  0  0  0  0
 11 28  1  0  0  0  0
 12 30  1  0  0  0  0
 13 22  1  0  0  0  0
 13 27  2  0  0  0  0
 14 23  2  0  0  0  0
 14 25  1  0  0  0  0
 15 25  2  0  0  0  0
 15 29  1  0  0  0  0
 16 30  2  0  0  0  0
 16 31  1  0  0  0  0
 17 32  1  0  0  0  0
 18 32  1  0  0  0  0
 18 33  2  0  0  0  0
 18 34  1  0  0  0  0
 19 21  2  0  0  0  0
 19 39  1  0  0  0  0
 20 22  2  0  0  0  0
 20 40  1  0  0  0  0
 21 48  1  0  0  0  0
 22 41  1  0  0  0  0
 23 24  1  0  0  0  0
 23 51  1  0  0  0  0
 24 29  2  0  0  0  0
 24 52  1  0  0  0  0
 25 71  1  0  0  0  0
 26 80  1  0  0  0  0
 27 81  1  0  0  0  0
 28 31  2  0  0  0  0
 28 80  1  0  0  0  0
 29 82  1  0  0  0  0
 30 83  1  0  0  0  0
 31 84  1  0  0  0  0
 32 65  2  0  0  0  0
 33 66  1  0  0  0  0
 33 69  1  0  0  0  0
 34 70  1  0  0  0  0
 34 75  2  0  0  0  0
 35 49  1  0  0  0  0
 35 72  1  0  0  0  0
 35 76  2  0  0  0  0
 36 62  1  0  0  0  0
 36 67  1  0  0  0  0
 36 77  2  0  0  0  0
 37 63  1  0  0  0  0
 37 73  1  0  0  0  0
 37 78  2  0  0  0  0
 38 68  1  0  0  0  0
 38 71  1  0  0  0  0
 38 79  2  0  0  0  0
 39 42  1  0  0  0  0
 40 49  1  0  0  0  0
 41 67  1  0  0  0  0
 42 44  1  0  0  0  0
 43 45  1  0  0  0  0
 43 46  1  0  0  0  0
 44 48  1  0  0  0  0
 45 50  1  0  0  0  0
 46 68  1  0  0  0  0
 47 50  1  0  0  0  0
 47 68  1  0  0  0  0
 48 72  1  0  0  0  0
 49 67  1  0  0  0  0
 50 66  1  0  0  0  0
 53 63  1  0  0  0  0
 54 64  1  0  0  0  0
 55 64  1  0  0  0  0
 56 64  1  0  0  0  0
 57 74  1  0  0  0  0
 58 59  1  0  0  0  0
 58 60  1  0  0  0  0
 59 61  1  0  0  0  0
 60 81  1  0  0  0  0
 61 82  1  0  0  0  0
 62 64  1  0  0  0  0
 62 73  1  0  0  0  0
 63 74  1  0  0  0  0
 65 66  1  0  0  0  0
M  CHG  1  74   1
M  ISO  4  38 100  60 101  71 100  81 101
M  END
> <Batch ID>
0130

> <Smiles>
CNC(C)C(=O)NC(C(=O)N1Cc2cc([101O:1][101CH2:1]CCCOc3cc([100NH:0][100C:0](=O)N4CCCC(n5nc(-c6ccc(Oc7ccc(F)cc7F)cc6)c(C(N)=O)c5N)C4)cc(C)c3C)ccc2CC1C(=O)NC1CCCc2ccccc21)C(C)(C)C

> <Shape>
0.257

> <Color>
0.111

> <Negative vol penalty>
0.000

$$$$

  -OEChem-04052302223D

 83 91  0     1  0  0  0  0  0999 V2000
  -25.1821  -36.3651   18.0095 C   0  0  0  0  0  0  0  0  0  0  0  0
  -25.6967  -35.1772   17.5003 C   0  0  0  0  0  0  0  0  0  0  0  0
  -23.0839   -9.8096   19.9373 C   0  0  0  0  0  0  0  0  0  0  0  0
  -23.7995   -9.8674   22.2442 C   0  0  0  0  0  0  0  0  0  0  0  0
  -25.1184  -36.5616   19.3884 C   0  0  0  0  0  0  0  0  0  0  0  0
  -26.1491  -34.1853   18.3698 C   0  0  0  0  0  0  0  0  0  0  0  0
  -25.7751  -28.1268   17.5573 C   0  0  0  0  0  0  0  0  0  0  0  0
  -22.3284   -8.6670   20.2002 C   0  0  0  0  0  0  0  0  0  0  0  0
  -23.0439   -8.7248   22.5072 C   0  0  0  0  0  0  0  0  0  0  0  0
  -26.6952  -27.1827   17.1035 C   0  0  0  0  0  0  0  0  0  0  0  0
  -19.7999   -7.9598   23.0658 C   0  0  0  0  0  0  0  0  0  0  0  0
  -19.0203   -7.9523   24.2224 C   0  0  0  0  0  0  0  0  0  0  0  0
  -31.0253  -19.4397   19.1719 C   0  0  0  0  0  0  0  0  0  0  0  0
  -31.5621  -18.3853   19.9656 C   0  0  0  0  0  0  0  0  0  0  0  0
  -27.2734  -26.6578   19.3859 C   0  0  0  0  0  0  0  0  0  0  0  0
  -20.2355   -6.0261   25.0289 C   0  0  0  0  0  0  0  0  0  0  0  0
  -23.8195  -10.4098   20.9592 C   0  0  0  0  0  0  0  0  0  0  0  0
  -24.1789  -12.9294   20.7855 C   0  0  0  0  0  0  0  0  0  0  0  0
  -25.5613  -35.5677   20.2754 C   0  0  0  0  0  0  0  0  0  0  0  0
  -25.6048  -28.3516   18.9310 C   0  0  0  0  0  0  0  0  0  0  0  0
  -26.0926  -34.3692   19.7619 C   0  0  0  0  0  0  0  0  0  0  0  0
  -26.3487  -27.6035   19.8546 C   0  0  0  0  0  0  0  0  0  0  0  0
  -22.3083   -8.1246   21.4852 C   0  0  0  0  0  0  0  0  0  0  0  0
  -27.4465  -26.4501   18.0177 C   0  0  0  0  0  0  0  0  0  0  0  0
  -20.7973   -7.0005   22.8907 C   0  0  0  0  0  0  0  0  0  0  0  0
  -19.2381   -6.9854   25.2040 C   0  0  0  0  0  0  0  0  0  0  0  0
  -21.0151   -6.0337   23.8723 C   0  0  0  0  0  0  0  0  0  0  0  0
  -24.6006  -11.5898   20.6881 C   0  0  0  0  0  0  0  0  0  0  0  0
  -29.7231  -19.7326   19.5128 C   0  0  0  0  0  0  0  0  0  0  0  0
  -30.6498  -17.9125   20.8832 C   0  0  0  0  0  0  0  0  0  0  0  0
  -25.2824  -13.6638   20.4257 C   0  0  0  0  0  0  0  0  0  0  0  0
  -28.8275  -20.7493   18.9333 C   0  0  0  0  0  0  0  0  0  0  0  0
  -29.1711  -21.5967   17.9532 C   0  0  0  0  0  0  0  0  0  0  0  0
  -22.9038  -13.4622   21.1672 C   0  0  0  0  0  0  0  0  0  0  0  0
  -28.1902  -22.5995   17.4408 C   0  0  0  0  0  0  0  0  0  0  0  0
  -26.0082  -30.8431   20.8631 C   0  0  0  0  0  0  0  0  0  0  0  0
  -24.6818  -28.8589   23.0599 C   0  0  0  0  0  0  0  0  0  0  0  0
  -24.0294  -25.6603   24.0550 C   0  0  0  0  0  0  0  0  0  0  0  0
  -30.7676  -14.6563   20.6961 C   0  0  0  0  0  0  0  0  0  0  0  0
  -25.5162  -35.8448   21.7572 C   0  0  0  0  0  0  0  0  0  0  0  0
  -24.5891  -29.3546   19.4049 C   0  0  0  0  0  0  0  0  0  0  0  0
  -26.1888  -27.7926   21.3403 C   0  0  0  0  0  0  0  0  0  0  0  0
  -25.6696  -34.5921   22.6160 C   0  0  0  0  0  0  0  0  0  0  0  0
  -29.6617  -12.2215   18.3453 C   0  0  0  0  0  0  0  0  0  0  0  0
  -26.8250  -33.7351   22.1086 C   0  0  0  0  0  0  0  0  0  0  0  0
  -28.2145  -11.9464   18.7572 C   0  0  0  0  0  0  0  0  0  0  0  0
  -30.5569  -12.4660   19.5582 C   0  0  0  0  0  0  0  0  0  0  0  0
  -28.6332  -13.2408   20.8897 C   0  0  0  0  0  0  0  0  0  0  0  0
  -26.5702  -33.2595   20.6732 C   0  0  1  0  0  0  0  0  0  0  0  0
  -24.8675  -29.8663   20.8149 C   0  0  1  0  0  0  0  0  0  0  0  0
  -27.6809  -13.0435   19.6979 C   0  0  2  0  0  0  0  0  0  0  0  0
  -22.9615  -24.3543   25.9128 C   0  0  0  0  0  0  0  0  0  0  0  0
  -27.1008  -29.4117   24.8356 C   0  0  0  0  0  0  0  0  0  0  0  0
  -26.4694  -27.4095   26.1998 C   0  0  0  0  0  0  0  0  0  0  0  0
  -24.9118  -29.3518   26.0436 C   0  0  0  0  0  0  0  0  0  0  0  0
  -22.0496  -24.4468   22.2201 C   0  0  0  0  0  0  0  0  0  0  0  0
  -30.8227  -16.8355   21.8822 C   0  0  0  0  0  0  0  0  0  0  0  0
  -28.7029  -23.5017   16.3287 C   0  0  0  0  0  0  0  0  0  0  0  0
  -28.0577  -24.8799   16.3393 C   0  0  0  0  0  0  0  0  0  1  0  0
  -25.2131  -27.8404   24.0394 C   0  0  1  0  0  0  0  0  0  0  0  0
  -22.7558  -24.9997   24.5512 C   0  0  2  0  0  0  0  0  0  0  0  0
  -25.9284  -28.5009   25.2517 C   0  0  0  0  0  0  0  0  0  0  0  0
  -25.8727  -11.4768   20.2968 N   0  0  0  0  0  0  0  0  0  0  0  0
  -26.2598  -12.7548   20.1452 N   0  0  0  0  0  0  0  0  0  0  0  0
  -25.1876  -28.7894   21.7541 N   0  0  0  0  0  0  0  0  0  0  0  0
  -29.9956  -13.5186   20.4085 N   0  0  0  0  0  0  0  0  0  0  0  0
  -25.5023  -14.9919   20.3250 N   0  0  0  0  0  0  0  0  0  0  0  0
  -21.8800  -12.5671   21.5065 N   0  0  0  0  0  0  0  0  0  0  0  0
  -25.6318  -32.1579   20.6649 N   0  0  0  0  0  0  0  0  0  0  0  0
  -24.0817  -26.9938   24.4019 N   0  0  0  0  0  0  0  0  0  0  0  0
  -30.1580  -15.6084   21.5039 N   0  0  0  0  0  0  0  0  0  0  0  0
  -22.3116  -23.9471   23.5944 N   0  3  0  0  0  0  0  0  0  0  0  0
  -22.6739  -14.6952   21.1905 O   0  0  0  0  0  0  0  0  0  0  0  0
  -27.0514  -22.6788   17.8933 O   0  0  0  0  0  0  0  0  0  0  0  0
  -27.1454  -30.4345   21.0667 O   0  0  0  0  0  0  0  0  0  0  0  0
  -23.8435  -29.6812   23.4377 O   0  0  0  0  0  0  0  0  0  0  0  0
  -24.8932  -25.0532   23.4259 O   0  0  0  0  0  0  0  0  0  0  0  0
  -31.9131  -14.8144   20.2605 O   0  0  0  0  0  0  0  0  0  0  0  0
  -21.5710   -7.0098   21.7422 O   0  0  0  0  0  0  0  0  0  0  0  0
  -28.3457  -25.5285   17.5774 O   0  0  0  0  0  0  0  0  0  1  0  0
  -18.4904   -6.9793   26.3153 F   0  0  0  0  0  0  0  0  0  0  0  0
  -21.9726   -5.1102   23.7102 F   0  0  0  0  0  0  0  0  0  0  0  0
  -29.1531  -18.7385   20.7853 S   0  0  0  0  0  0  0  0  0  0  0  0
  1  2  1  0  0  0  0
  1  5  2  0  0  0  0
  2  6  2  0  0  0  0
  3  8  2  0  0  0  0
  3 17  1  0  0  0  0
  4  9  1  0  0  0  0
  4 17  2  0  0  0  0
  5 19  1  0  0  0  0
  6 21  1  0  0  0  0
  7 10  2  0  0  0  0
  7 20  1  0  0  0  0
  8 23  1  0  0  0  0
  9 23  2  0  0  0  0
 10 24  1  0  0  0  0
 11 12  2  0  0  0  0
 11 25  1  0  0  0  0
 12 26  1  0  0  0  0
 13 14  1  0  0  0  0
 13 29  2  0  0  0  0
 14 30  2  0  0  0  0
 15 22  1  0  0  0  0
 15 24  2  0  0  0  0
 16 26  2  0  0  0  0
 16 27  1  0  0  0  0
 17 28  1  0  0  0  0
 18 28  1  0  0  0  0
 18 31  2  0  0  0  0
 18 34  1  0  0  0  0
 19 21  2  0  0  0  0
 19 40  1  0  0  0  0
 20 22  2  0  0  0  0
 20 41  1  0  0  0  0
 21 49  1  0  0  0  0
 22 42  1  0  0  0  0
 23 79  1  0  0  0  0
 24 80  1  0  0  0  0
 25 27  2  0  0  0  0
 25 79  1  0  0  0  0
 26 81  1  0  0  0  0
 27 82  1  0  0  0  0
 28 63  2  0  0  0  0
 29 32  1  0  0  0  0
 29 83  1  0  0  0  0
 30 57  1  0  0  0  0
 30 83  1  0  0  0  0
 31 64  1  0  0  0  0
 31 67  1  0  0  0  0
 32 33  2  0  0  0  0
 33 35  1  0  0  0  0
 34 68  1  0  0  0  0
 34 73  2  0  0  0  0
 35 58  1  0  0  0  0
 35 74  2  0  0  0  0
 36 50  1  0  0  0  0
 36 69  1  0  0  0  0
 36 75  2  0  0  0  0
 37 60  1  0  0  0  0
 37 65  1  0  0  0  0
 37 76  2  0  0  0  0
 38 61  1  0  0  0  0
 38 70  1  0  0  0  0
 38 77  2  0  0  0  0
 39 66  1  0  0  0  0
 39 71  1  0  0  0  0
 39 78  2  0  0  0  0
 40 43  1  0  0  0  0
 41 50  1  0  0  0  0
 42 65  1  0  0  0  0
 43 45  1  0  0  0  0
 44 46  1  0  0  0  0
 44 47  1  0  0  0  0
 45 49  1  0  0  0  0
 46 51  1  0  0  0  0
 47 66  1  0  0  0  0
 48 51  1  0  0  0  0
 48 66  1  0  0  0  0
 49 69  1  0  0  0  0
 50 65  1  0  0  0  0
 51 64  1  0  0  0  0
 52 61  1  0  0  0  0
 53 62  1  0  0  0  0
 54 62  1  0  0  0  0
 55 62  1  0  0  0  0
 56 72  1  0  0  0  0
 57 71  1  0  0  0  0
 58 59  1  0  0  0  0
 59 80  1  0  0  0  0
 60 62  1  0  0  0  0
 60 70  1  0  0  0  0
 61 72  1  0  0  0  0
 63 64  1  0  0  0  0
M  CHG  1  72   1
M  ISO  4  39 100  59 101  71 100  80 101
M  END
> <Batch ID>
0130

> <Smiles>
CNC(C)C(=O)NC(C(=O)N1Cc2cc([101O:1][101CH2:1]CC(=O)C=Cc3ccc(C[100NH:0][100C:0](=O)N4CCCC(n5nc(-c6ccc(Oc7ccc(F)cc7F)cc6)c(C(N)=O)c5N)C4)s3)ccc2CC1C(=O)NC1CCCc2ccccc21)C(C)(C)C

> <Shape>
0.292

> <Color>
0.222

> <Negative vol penalty>
0.000

$$$$

  -OEChem-04052302223D

 85 93  0     1  0  0  0  0  0999 V2000
  -26.9071  -28.7828   28.7278 C   0  0  0  0  0  0  0  0  0  0  0  0
  -27.1341  -28.1901   27.4898 C   0  0  0  0  0  0  0  0  0  0  0  0
  -32.6934  -20.8110   22.4078 C   0  0  0  0  0  0  0  0  0  0  0  0
  -24.4882   -9.1620   22.0116 C   0  0  0  0  0  0  0  0  0  0  0  0
  -23.0176   -9.9442   20.2615 C   0  0  0  0  0  0  0  0  0  0  0  0
  -32.2383  -19.5034   22.2382 C   0  0  0  0  0  0  0  0  0  0  0  0
  -25.6646  -29.3484   29.0112 C   0  0  0  0  0  0  0  0  0  0  0  0
  -26.1184  -28.1618   26.5349 C   0  0  0  0  0  0  0  0  0  0  0  0
  -27.7630  -29.4128   21.9115 C   0  0  0  0  0  0  0  0  0  0  0  0
  -32.2232  -21.8266   21.5752 C   0  0  0  0  0  0  0  0  0  0  0  0
  -23.4744   -8.3339   22.4934 C   0  0  0  0  0  0  0  0  0  0  0  0
  -22.0038   -9.1161   20.7433 C   0  0  0  0  0  0  0  0  0  0  0  0
  -28.4536  -28.4361   21.1955 C   0  0  0  0  0  0  0  0  0  0  0  0
  -22.1047   -5.3483   21.6914 C   0  0  0  0  0  0  0  0  0  0  0  0
  -22.4426   -4.0368   22.0248 C   0  0  0  0  0  0  0  0  0  0  0  0
  -26.4497  -27.9439   19.9459 C   0  0  0  0  0  0  0  0  0  0  0  0
  -21.7280   -4.4308   24.2989 C   0  0  0  0  0  0  0  0  0  0  0  0
  -24.2597   -9.9672   20.8957 C   0  0  0  0  0  0  0  0  0  0  0  0
  -31.3133  -19.2114   21.2358 C   0  0  0  0  0  0  0  0  0  0  0  0
  -26.2814  -10.5018   19.4346 C   0  0  0  0  0  0  0  0  0  0  0  0
  -24.6363  -29.3355   28.0558 C   0  0  0  0  0  0  0  0  0  0  0  0
  -26.4054  -29.6553   21.6573 C   0  0  0  0  0  0  0  0  0  0  0  0
  -24.8606  -28.7265   26.8063 C   0  0  0  0  0  0  0  0  0  0  0  0
  -25.7448  -28.9260   20.6584 C   0  0  0  0  0  0  0  0  0  0  0  0
  -30.8432  -20.2270   20.4032 C   0  0  0  0  0  0  0  0  0  0  0  0
  -22.2322   -8.3109   21.8593 C   0  0  0  0  0  0  0  0  0  0  0  0
  -27.7962  -27.6994   20.2145 C   0  0  0  0  0  0  0  0  0  0  0  0
  -31.2982  -21.5346   20.5729 C   0  0  0  0  0  0  0  0  0  0  0  0
  -21.5785   -6.2012   22.6617 C   0  0  0  0  0  0  0  0  0  0  0  0
  -22.2542   -3.5779   23.3285 C   0  0  0  0  0  0  0  0  0  0  0  0
  -21.3902   -5.7424   23.9655 C   0  0  0  0  0  0  0  0  0  0  0  0
  -25.3064  -10.8232   20.3979 C   0  0  0  0  0  0  0  0  0  0  0  0
  -27.0333  -11.6447   19.3125 C   0  0  0  0  0  0  0  0  0  0  0  0
  -30.8607  -17.8346   21.0842 C   0  0  0  0  0  0  0  0  0  0  0  0
  -30.2089  -17.1193   22.0234 C   0  0  0  0  0  0  0  0  0  0  0  0
  -26.4888   -9.2794   18.7146 C   0  0  0  0  0  0  0  0  0  0  0  0
  -29.8056  -15.7329   21.7138 C   0  0  0  0  0  0  0  0  0  0  0  0
  -23.7309  -29.4409   23.3615 C   0  0  0  0  0  0  0  0  0  0  0  0
  -29.6928  -24.6631   19.6764 C   0  0  0  0  0  0  0  0  0  0  0  0
  -22.4046  -30.7879   20.7255 C   0  0  0  0  0  0  0  0  0  0  0  0
  -22.5769  -31.3586   17.3652 C   0  0  0  0  0  0  0  0  0  0  0  0
  -23.2948  -29.9175   28.4252 C   0  0  0  0  0  0  0  0  0  0  0  0
  -25.6816  -30.7309   22.4199 C   0  0  0  0  0  0  0  0  0  0  0  0
  -24.2933  -29.1618   20.3330 C   0  0  0  0  0  0  0  0  0  0  0  0
  -22.3917  -30.1779   27.2223 C   0  0  0  0  0  0  0  0  0  0  0  0
  -26.2506  -16.3169   21.0412 C   0  0  0  0  0  0  0  0  0  0  0  0
  -22.3876  -28.9729   26.2871 C   0  0  0  0  0  0  0  0  0  0  0  0
  -25.7633  -14.8940   20.7810 C   0  0  0  0  0  0  0  0  0  0  0  0
  -27.3597  -16.3584   22.0912 C   0  0  0  0  0  0  0  0  0  0  0  0
  -28.0244  -14.0414   21.5165 C   0  0  0  0  0  0  0  0  0  0  0  0
  -23.7917  -28.6979   25.7354 C   0  0  1  0  0  0  0  0  0  0  0  0
  -24.1683  -30.5386   22.4333 C   0  0  1  0  0  0  0  0  0  0  0  0
  -26.9409  -13.9712   20.4291 C   0  0  1  0  0  0  0  0  0  0  0  0
  -28.4406  -20.3674   19.6999 C   0  0  0  0  0  0  0  0  0  0  0  0
  -21.3277  -32.4587   15.4873 C   0  0  0  0  0  0  0  0  0  0  0  0
  -20.4117  -28.4776   20.7010 C   0  0  0  0  0  0  0  0  0  0  0  0
  -19.8349  -29.0917   18.3434 C   0  0  0  0  0  0  0  0  0  0  0  0
  -19.4201  -30.7161   20.1906 C   0  0  0  0  0  0  0  0  0  0  0  0
  -24.8218  -33.2016   16.7970 C   0  0  0  0  0  0  0  0  0  0  0  0
  -29.8514  -19.9314   19.3215 C   0  0  0  0  0  0  0  0  0  0  0  0
  -29.5398  -26.0823   20.1839 C   0  0  0  0  0  0  0  0  0  1  0  0
  -30.7907  -23.8447   20.3244 C   0  0  0  0  0  0  0  0  0  0  0  0
  -21.7941  -30.2626   19.4486 C   0  0  1  0  0  0  0  0  0  0  0  0
  -22.4039  -32.6265   16.5486 C   0  0  2  0  0  0  0  0  0  0  0  0
  -20.3921  -29.6310   19.6781 C   0  0  0  0  0  0  0  0  0  0  0  0
  -25.4256  -12.0724   20.8553 N   0  0  0  0  0  0  0  0  0  0  0  0
  -26.4845  -12.5460   20.1766 N   0  0  0  0  0  0  0  0  0  0  0  0
  -28.4473  -15.4246   21.7626 N   0  0  0  0  0  0  0  0  0  0  0  0
  -23.6273  -30.2199   21.1104 N   0  0  0  0  0  0  0  0  0  0  0  0
  -28.1037  -11.9566   18.5514 N   0  0  0  0  0  0  0  0  0  0  0  0
  -25.6247   -8.2039   18.9610 N   0  0  0  0  0  0  0  0  0  0  0  0
  -24.1105  -29.6315   24.6765 N   0  0  0  0  0  0  0  0  0  0  0  0
  -21.8011  -31.3752   18.5050 N   0  0  0  0  0  0  0  0  0  0  0  0
  -23.6816  -32.9839   15.8699 N   0  3  0  0  0  0  0  0  0  0  0  0
  -27.4232   -9.1396   17.8894 O   0  0  0  0  0  0  0  0  0  0  0  0
  -30.6980  -14.9299   21.4351 O   0  0  0  0  0  0  0  0  0  0  0  0
  -23.0948  -28.4921   22.9179 O   0  0  0  0  0  0  0  0  0  0  0  0
  -28.9707  -24.2041   18.7926 O   0  0  0  0  0  0  0  0  0  0  0  0
  -21.8217  -31.6748   21.3543 O   0  0  0  0  0  0  0  0  0  0  0  0
  -23.3227  -30.4431   17.0241 O   0  0  0  0  0  0  0  0  0  0  0  0
  -21.2428   -7.5028   22.3290 O   0  0  0  0  0  0  0  0  0  0  0  0
  -28.4678  -26.7450   19.5145 O   0  0  0  0  0  0  0  0  0  1  0  0
  -30.8461  -22.5500   19.7637 O   0  0  0  0  0  0  0  0  0  0  0  0
  -22.5773   -2.3179   23.6482 F   0  0  0  0  0  0  0  0  0  0  0  0
  -20.8839   -6.5567   24.9017 F   0  0  0  0  0  0  0  0  0  0  0  0
  1  2  1  0  0  0  0
  1  7  2  0  0  0  0
  2  8  2  0  0  0  0
  3  6  1  0  0  0  0
  3 10  2  0  0  0  0
  4 11  2  0  0  0  0
  4 18  1  0  0  0  0
  5 12  1  0  0  0  0
  5 18  2  0  0  0  0
  6 19  2  0  0  0  0
  7 21  1  0  0  0  0
  8 23  1  0  0  0  0
  9 13  2  0  0  0  0
  9 22  1  0  0  0  0
 10 28  1  0  0  0  0
 11 26  1  0  0  0  0
 12 26  2  0  0  0  0
 13 27  1  0  0  0  0
 14 15  2  0  0  0  0
 14 29  1  0  0  0  0
 15 30  1  0  0  0  0
 16 24  1  0  0  0  0
 16 27  2  0  0  0  0
 17 30  2  0  0  0  0
 17 31  1  0  0  0  0
 18 32  1  0  0  0  0
 19 25  1  0  0  0  0
 19 34  1  0  0  0  0
 20 32  1  0  0  0  0
 20 33  2  0  0  0  0
 20 36  1  0  0  0  0
 21 23  2  0  0  0  0
 21 42  1  0  0  0  0
 22 24  2  0  0  0  0
 22 43  1  0  0  0  0
 23 51  1  0  0  0  0
 24 44  1  0  0  0  0
 25 28  2  0  0  0  0
 25 60  1  0  0  0  0
 26 81  1  0  0  0  0
 27 82  1  0  0  0  0
 28 83  1  0  0  0  0
 29 31  2  0  0  0  0
 29 81  1  0  0  0  0
 30 84  1  0  0  0  0
 31 85  1  0  0  0  0
 32 66  2  0  0  0  0
 33 67  1  0  0  0  0
 33 70  1  0  0  0  0
 34 35  2  0  0  0  0
 35 37  1  0  0  0  0
 36 71  1  0  0  0  0
 36 75  2  0  0  0  0
 37 68  1  0  0  0  0
 37 76  2  0  0  0  0
 38 52  1  0  0  0  0
 38 72  1  0  0  0  0
 38 77  2  0  0  0  0
 39 61  1  0  0  0  0
 39 62  1  0  0  0  0
 39 78  2  0  0  0  0
 40 63  1  0  0  0  0
 40 69  1  0  0  0  0
 40 79  2  0  0  0  0
 41 64  1  0  0  0  0
 41 73  1  0  0  0  0
 41 80  2  0  0  0  0
 42 45  1  0  0  0  0
 43 52  1  0  0  0  0
 44 69  1  0  0  0  0
 45 47  1  0  0  0  0
 46 48  1  0  0  0  0
 46 49  1  0  0  0  0
 47 51  1  0  0  0  0
 48 53  1  0  0  0  0
 49 68  1  0  0  0  0
 50 53  1  0  0  0  0
 50 68  1  0  0  0  0
 51 72  1  0  0  0  0
 52 69  1  0  0  0  0
 53 67  1  0  0  0  0
 54 60  1  0  0  0  0
 55 64  1  0  0  0  0
 56 65  1  0  0  0  0
 57 65  1  0  0  0  0
 58 65  1  0  0  0  0
 59 74  1  0  0  0  0
 61 82  1  0  0  0  0
 62 83  1  0  0  0  0
 63 65  1  0  0  0  0
 63 73  1  0  0  0  0
 64 74  1  0  0  0  0
 66 67  1  0  0  0  0
M  CHG  1  74   1
M  ISO  4  35 100  37 100  61 101  82 101
M  END
> <Batch ID>
0130

> <Smiles>
CCc1c(C=[100CH:0][100C:0](=O)N2CCCC(n3nc(-c4ccc(Oc5ccc(F)cc5F)cc4)c(C(N)=O)c3N)C2)cccc1OCC(=O)[101CH2:1][101O:1]c1ccc2c(c1)CN(C(=O)C(NC(=O)C(C)NC)C(C)(C)C)C(C(=O)NC1CCCc3ccccc31)C2

> <Shape>
0.285

> <Color>
0.101

> <Negative vol penalty>
0.000

$$$$

  -OEChem-04052302223D

 86 94  0     1  0  0  0  0  0999 V2000
  -28.2415  -24.1027   17.5008 C   0  0  0  0  0  0  0  0  0  0  0  0
  -27.0296  -24.3824   18.1240 C   0  0  0  0  0  0  0  0  0  0  0  0
  -30.2947  -13.3746   19.3028 C   0  0  0  0  0  0  0  0  0  0  0  0
  -27.8860  -13.4557   19.1341 C   0  0  0  0  0  0  0  0  0  0  0  0
  -29.4268  -24.6232   18.0185 C   0  0  0  0  0  0  0  0  0  0  0  0
  -27.0024  -25.1821   19.2660 C   0  0  0  0  0  0  0  0  0  0  0  0
  -23.3103  -28.6453   19.1250 C   0  0  0  0  0  0  0  0  0  0  0  0
  -23.5433  -22.3109   22.3402 C   0  0  0  0  0  0  0  0  0  0  0  0
  -24.7883  -22.0024   21.7923 C   0  0  0  0  0  0  0  0  0  0  0  0
  -30.2117  -12.1074   19.8797 C   0  0  0  0  0  0  0  0  0  0  0  0
  -27.8029  -12.1885   19.7110 C   0  0  0  0  0  0  0  0  0  0  0  0
  -22.0169  -28.2090   19.4085 C   0  0  0  0  0  0  0  0  0  0  0  0
  -26.9371   -9.1273   21.4687 C   0  0  0  0  0  0  0  0  0  0  0  0
  -25.9832   -8.9308   22.4672 C   0  0  0  0  0  0  0  0  0  0  0  0
  -22.2274  -29.0636   21.6546 C   0  0  0  0  0  0  0  0  0  0  0  0
  -22.5020  -20.6814   20.8919 C   0  0  0  0  0  0  0  0  0  0  0  0
  -27.0321  -10.6462   23.8067 C   0  0  0  0  0  0  0  0  0  0  0  0
  -29.1319  -14.0488   18.9300 C   0  0  0  0  0  0  0  0  0  0  0  0
  -29.3231  -15.6636   16.9645 C   0  0  0  0  0  0  0  0  0  0  0  0
  -29.4131  -25.4376   19.1618 C   0  0  0  0  0  0  0  0  0  0  0  0
  -24.0773  -29.2854   20.1091 C   0  0  0  0  0  0  0  0  0  0  0  0
  -28.1888  -25.7130   19.8002 C   0  0  0  0  0  0  0  0  0  0  0  0
  -23.5294  -29.5094   21.3802 C   0  0  0  0  0  0  0  0  0  0  0  0
  -22.4001  -21.6504   21.8901 C   0  0  0  0  0  0  0  0  0  0  0  0
  -23.7470  -20.3729   20.3439 C   0  0  0  0  0  0  0  0  0  0  0  0
  -24.8902  -21.0334   20.7941 C   0  0  0  0  0  0  0  0  0  0  0  0
  -28.9658  -11.5143   20.0838 C   0  0  0  0  0  0  0  0  0  0  0  0
  -21.4763  -28.4155   20.6743 C   0  0  0  0  0  0  0  0  0  0  0  0
  -27.9385  -10.0832   21.6391 C   0  0  0  0  0  0  0  0  0  0  0  0
  -26.0307   -9.6903   23.6362 C   0  0  0  0  0  0  0  0  0  0  0  0
  -27.9860  -10.8427   22.8081 C   0  0  0  0  0  0  0  0  0  0  0  0
  -29.2170  -15.3581   18.3346 C   0  0  0  0  0  0  0  0  0  0  0  0
  -29.3715  -17.0356   16.9213 C   0  0  0  0  0  0  0  0  0  0  0  0
  -19.9599  -24.2292   22.3197 C   0  0  0  0  0  0  0  0  0  0  0  0
  -20.3613  -23.0918   21.7367 C   0  0  0  0  0  0  0  0  0  0  0  0
  -29.3733  -14.7857   15.8320 C   0  0  0  0  0  0  0  0  0  0  0  0
  -19.2724  -25.2923   21.5316 C   0  0  0  0  0  0  0  0  0  0  0  0
  -26.8234  -28.6501   21.5785 C   0  0  0  0  0  0  0  0  0  0  0  0
  -26.3741  -31.5989   22.8533 C   0  0  0  0  0  0  0  0  0  0  0  0
  -24.1987  -34.0881   23.7008 C   0  0  0  0  0  0  0  0  0  0  0  0
  -27.3866  -21.3079   20.5973 C   0  0  0  0  0  0  0  0  0  0  0  0
  -30.7249  -25.9387   19.7119 C   0  0  0  0  0  0  0  0  0  0  0  0
  -25.4612  -29.7740   19.7793 C   0  0  0  0  0  0  0  0  0  0  0  0
  -24.3040  -30.2097   22.4656 C   0  0  0  0  0  0  0  0  0  0  0  0
  -30.5696  -27.0847   20.7083 C   0  0  0  0  0  0  0  0  0  0  0  0
  -30.7442  -20.8178   19.5184 C   0  0  0  0  0  0  0  0  0  0  0  0
  -29.4727  -26.7677   21.7198 C   0  0  0  0  0  0  0  0  0  0  0  0
  -30.7417  -19.3920   18.9622 C   0  0  0  0  0  0  0  0  0  0  0  0
  -29.8413  -20.9500   20.7436 C   0  0  0  0  0  0  0  0  0  0  0  0
  -28.4622  -19.0496   19.9982 C   0  0  0  0  0  0  0  0  0  0  0  0
  -28.1156  -26.5967   21.0265 C   0  0  1  0  0  0  0  0  0  0  0  0
  -26.3405  -29.9555   21.0127 C   0  0  1  0  0  0  0  0  0  0  0  0
  -29.3067  -18.8823   18.7245 C   0  0  2  0  0  0  0  0  0  0  0  0
  -23.9907  -19.9433   17.8857 C   0  0  0  0  0  0  0  0  0  0  0  0
  -24.1225  -36.3612   24.7613 C   0  0  0  0  0  0  0  0  0  0  0  0
  -26.7131  -30.3240   25.6046 C   0  0  0  0  0  0  0  0  0  0  0  0
  -25.7042  -32.3845   26.6068 C   0  0  0  0  0  0  0  0  0  0  0  0
  -27.8442  -32.5380   25.3343 C   0  0  0  0  0  0  0  0  0  0  0  0
  -23.1196  -35.3278   21.2395 C   0  0  0  0  0  0  0  0  0  0  0  0
  -21.0536  -21.9858   22.4810 C   0  0  0  0  0  0  0  0  0  0  0  0
  -23.8261  -19.3327   19.2738 C   0  0  0  0  0  0  0  0  0  0  0  0
  -18.8714  -26.5301   22.3191 C   0  0  0  0  0  0  0  0  0  0  0  0
  -19.9395  -27.6141   22.3028 C   0  0  0  0  0  0  0  0  0  1  0  0
  -25.6840  -32.1382   24.0829 C   0  0  1  0  0  0  0  0  0  0  0  0
  -24.2380  -35.5861   23.4579 C   0  0  2  0  0  0  0  0  0  0  0  0
  -26.4722  -31.8312   25.3875 C   0  0  0  0  0  0  0  0  0  0  0  0
  -29.1992  -16.4483   19.1061 N   0  0  0  0  0  0  0  0  0  0  0  0
  -29.2948  -17.4522   18.2177 N   0  0  0  0  0  0  0  0  0  0  0  0
  -25.6551  -30.6631   22.0962 N   0  0  0  0  0  0  0  0  0  0  0  0
  -28.4974  -20.4518   20.4427 N   0  0  0  0  0  0  0  0  0  0  0  0
  -29.4718  -17.9141   15.9013 N   0  0  0  0  0  0  0  0  0  0  0  0
  -29.3118  -13.4034   16.0550 N   0  0  0  0  0  0  0  0  0  0  0  0
  -26.1639  -20.7343   20.2501 N   0  0  0  0  0  0  0  0  0  0  0  0
  -27.5548  -27.8872   20.6882 N   0  0  0  0  0  0  0  0  0  0  0  0
  -25.4649  -33.5595   23.8376 N   0  0  0  0  0  0  0  0  0  0  0  0
  -23.1163  -35.9959   22.5664 N   0  3  0  0  0  0  0  0  0  0  0  0
  -29.4863  -15.2138   14.6583 O   0  0  0  0  0  0  0  0  0  0  0  0
  -19.0524  -25.1641   20.3304 O   0  0  0  0  0  0  0  0  0  0  0  0
  -26.5538  -28.3573   22.7375 O   0  0  0  0  0  0  0  0  0  0  0  0
  -27.5064  -31.9986   22.5710 O   0  0  0  0  0  0  0  0  0  0  0  0
  -23.1496  -33.4512   23.7664 O   0  0  0  0  0  0  0  0  0  0  0  0
  -27.5140  -22.4733   20.9815 O   0  0  0  0  0  0  0  0  0  0  0  0
  -28.8844  -10.2777   20.6465 O   0  0  0  0  0  0  0  0  0  0  0  0
  -20.2143  -27.9900   20.9539 O   0  0  0  0  0  0  0  0  0  1  0  0
  -25.1137   -9.5025   24.5944 F   0  0  0  0  0  0  0  0  0  0  0  0
  -28.9450  -11.7634   22.9771 F   0  0  0  0  0  0  0  0  0  0  0  0
  1  2  1  0  0  0  0
  1  5  2  0  0  0  0
  2  6  2  0  0  0  0
  3 10  2  0  0  0  0
  3 18  1  0  0  0  0
  4 11  1  0  0  0  0
  4 18  2  0  0  0  0
  5 20  1  0  0  0  0
  6 22  1  0  0  0  0
  7 12  2  0  0  0  0
  7 21  1  0  0  0  0
  8  9  2  0  0  0  0
  8 24  1  0  0  0  0
  9 26  1  0  0  0  0
 10 27  1  0  0  0  0
 11 27  2  0  0  0  0
 12 28  1  0  0  0  0
 13 14  2  0  0  0  0
 13 29  1  0  0  0  0
 14 30  1  0  0  0  0
 15 23  1  0  0  0  0
 15 28  2  0  0  0  0
 16 24  2  0  0  0  0
 16 25  1  0  0  0  0
 17 30  2  0  0  0  0
 17 31  1  0  0  0  0
 18 32  1  0  0  0  0
 19 32  1  0  0  0  0
 19 33  2  0  0  0  0
 19 36  1  0  0  0  0
 20 22  2  0  0  0  0
 20 42  1  0  0  0  0
 21 23  2  0  0  0  0
 21 43  1  0  0  0  0
 22 51  1  0  0  0  0
 23 44  1  0  0  0  0
 24 60  1  0  0  0  0
 25 26  2  0  0  0  0
 25 61  1  0  0  0  0
 26 73  1  0  0  0  0
 27 83  1  0  0  0  0
 28 84  1  0  0  0  0
 29 31  2  0  0  0  0
 29 83  1  0  0  0  0
 30 85  1  0  0  0  0
 31 86  1  0  0  0  0
 32 67  2  0  0  0  0
 33 68  1  0  0  0  0
 33 71  1  0  0  0  0
 34 35  2  0  0  0  0
 34 37  1  0  0  0  0
 35 60  1  0  0  0  0
 36 72  1  0  0  0  0
 36 77  2  0  0  0  0
 37 62  1  0  0  0  0
 37 78  2  0  0  0  0
 38 52  1  0  0  0  0
 38 74  1  0  0  0  0
 38 79  2  0  0  0  0
 39 64  1  0  0  0  0
 39 69  1  0  0  0  0
 39 80  2  0  0  0  0
 40 65  1  0  0  0  0
 40 75  1  0  0  0  0
 40 81  2  0  0  0  0
 41 70  1  0  0  0  0
 41 73  1  0  0  0  0
 41 82  2  0  0  0  0
 42 45  1  0  0  0  0
 43 52  1  0  0  0  0
 44 69  1  0  0  0  0
 45 47  1  0  0  0  0
 46 48  1  0  0  0  0
 46 49  1  0  0  0  0
 47 51  1  0  0  0  0
 48 53  1  0  0  0  0
 49 70  1  0  0  0  0
 50 53  1  0  0  0  0
 50 70  1  0  0  0  0
 51 74  1  0  0  0  0
 52 69  1  0  0  0  0
 53 68  1  0  0  0  0
 54 61  1  0  0  0  0
 55 65  1  0  0  0  0
 56 66  1  0  0  0  0
 57 66  1  0  0  0  0
 58 66  1  0  0  0  0
 59 76  1  0  0  0  0
 62 63  1  0  0  0  0
 63 84  1  0  0  0  0
 64 66  1  0  0  0  0
 64 75  1  0  0  0  0
 65 76  1  0  0  0  0
 67 68  1  0  0  0  0
M  CHG  1  76   1
M  ISO  4  41 100  63 101  73 100  84 101
M  END
> <Batch ID>
0130

> <Smiles>
CCc1cc(CC=CC(=O)C[101CH2:1][101O:1]c2ccc3c(c2)CN(C(=O)C(NC(=O)C(C)NC)C(C)(C)C)C(C(=O)NC2CCCc4ccccc42)C3)ccc1[100NH:0][100C:0](=O)N1CCCC(n2nc(-c3ccc(Oc4ccc(F)cc4F)cc3)c(C(N)=O)c2N)C1

> <Shape>
0.298

> <Color>
0.070

> <Negative vol penalty>
0.000

$$$$

  -OEChem-04052302223D

 88 96  0     1  0  0  0  0  0999 V2000
  -19.1280  -32.9073   23.2830 C   0  0  0  0  0  0  0  0  0  0  0  0
  -20.2930  -32.1534   23.1830 C   0  0  0  0  0  0  0  0  0  0  0  0
  -24.3110  -12.3914   22.2671 C   0  0  0  0  0  0  0  0  0  0  0  0
  -22.8140  -12.6874   20.3940 C   0  0  0  0  0  0  0  0  0  0  0  0
  -17.8966  -32.2695   23.4266 C   0  0  0  0  0  0  0  0  0  0  0  0
  -20.2272  -30.7612   23.2277 C   0  0  0  0  0  0  0  0  0  0  0  0
  -23.0994  -28.5658   19.6814 C   0  0  0  0  0  0  0  0  0  0  0  0
  -23.3021  -11.7322   22.9693 C   0  0  0  0  0  0  0  0  0  0  0  0
  -21.8051  -12.0282   21.0962 C   0  0  0  0  0  0  0  0  0  0  0  0
  -24.4710  -28.5016   19.9229 C   0  0  0  0  0  0  0  0  0  0  0  0
  -21.2319   -9.6535   25.1159 C   0  0  0  0  0  0  0  0  0  0  0  0
  -21.5703   -8.4788   25.7876 C   0  0  0  0  0  0  0  0  0  0  0  0
  -33.0153  -21.8572   18.7622 C   0  0  0  0  0  0  0  0  0  0  0  0
  -30.8667  -22.7799   19.3695 C   0  0  0  0  0  0  0  0  0  0  0  0
  -24.2336  -26.2061   20.6256 C   0  0  0  0  0  0  0  0  0  0  0  0
  -22.2455   -7.4770   23.6953 C   0  0  0  0  0  0  0  0  0  0  0  0
  -24.0670  -12.8691   20.9794 C   0  0  0  0  0  0  0  0  0  0  0  0
  -31.6888  -21.6741   19.1524 C   0  0  0  0  0  0  0  0  0  0  0  0
  -32.6978  -24.2519   18.8061 C   0  0  0  0  0  0  0  0  0  0  0  0
  -26.0655  -12.9737   19.3975 C   0  0  0  0  0  0  0  0  0  0  0  0
  -17.8146  -30.8686   23.4634 C   0  0  0  0  0  0  0  0  0  0  0  0
  -22.2815  -27.4522   19.9210 C   0  0  0  0  0  0  0  0  0  0  0  0
  -18.9936  -30.1042   23.3733 C   0  0  0  0  0  0  0  0  0  0  0  0
  -22.8523  -26.2580   20.3840 C   0  0  0  0  0  0  0  0  0  0  0  0
  -33.5199  -23.1461   18.5891 C   0  0  0  0  0  0  0  0  0  0  0  0
  -22.0491  -11.5506   22.3838 C   0  0  0  0  0  0  0  0  0  0  0  0
  -25.0379  -27.3225   20.3978 C   0  0  0  0  0  0  0  0  0  0  0  0
  -21.4002   -9.7399   23.7339 C   0  0  0  0  0  0  0  0  0  0  0  0
  -31.3712  -24.0688   19.1964 C   0  0  0  0  0  0  0  0  0  0  0  0
  -22.0771   -7.3905   25.0773 C   0  0  0  0  0  0  0  0  0  0  0  0
  -21.9070   -8.6517   23.0236 C   0  0  0  0  0  0  0  0  0  0  0  0
  -25.1086  -13.5507   20.2538 C   0  0  0  0  0  0  0  0  0  0  0  0
  -26.8201  -14.0351   18.9611 C   0  0  0  0  0  0  0  0  0  0  0  0
  -31.1626  -20.3304   19.3332 C   0  0  0  0  0  0  0  0  0  0  0  0
  -30.0654  -20.0088   20.0513 C   0  0  0  0  0  0  0  0  0  0  0  0
  -33.2194  -25.6026   18.6274 C   0  0  0  0  0  0  0  0  0  0  0  0
  -26.2553  -11.6010   19.0295 C   0  0  0  0  0  0  0  0  0  0  0  0
  -29.6509  -18.5937   20.1320 C   0  0  0  0  0  0  0  0  0  0  0  0
  -19.8297  -26.8432   21.8502 C   0  0  0  0  0  0  0  0  0  0  0  0
  -28.4435  -26.1500   20.0334 C   0  0  0  0  0  0  0  0  0  0  0  0
  -19.7367  -24.0466   20.2093 C   0  0  0  0  0  0  0  0  0  0  0  0
  -21.3960  -21.7399   18.3191 C   0  0  0  0  0  0  0  0  0  0  0  0
  -16.4658  -30.2254   23.6675 C   0  0  0  0  0  0  0  0  0  0  0  0
  -20.8078  -27.5294   19.6302 C   0  0  0  0  0  0  0  0  0  0  0  0
  -22.0211  -25.0280   20.6379 C   0  0  0  0  0  0  0  0  0  0  0  0
  -16.4434  -28.7369   23.3296 C   0  0  0  0  0  0  0  0  0  0  0  0
  -26.0874  -19.0067   19.3819 C   0  0  0  0  0  0  0  0  0  0  0  0
  -17.6458  -28.0309   23.9482 C   0  0  0  0  0  0  0  0  0  0  0  0
  -25.5896  -17.5705   19.5213 C   0  0  0  0  0  0  0  0  0  0  0  0
  -27.2146  -19.3191   20.3650 C   0  0  0  0  0  0  0  0  0  0  0  0
  -27.8592  -16.9272   20.4242 C   0  0  0  0  0  0  0  0  0  0  0  0
  -18.9606  -28.5913   23.3927 C   0  0  1  0  0  0  0  0  0  0  0  0
  -19.9922  -26.4937   20.3979 C   0  0  1  0  0  0  0  0  0  0  0  0
  -26.7570  -16.5768   19.4124 C   0  0  1  0  0  0  0  0  0  0  0  0
  -34.9444  -23.3119   18.1700 C   0  0  0  0  0  0  0  0  0  0  0  0
  -34.3450  -27.5625   19.8078 C   0  0  0  0  0  0  0  0  0  0  0  0
  -21.0657  -19.5410   17.1559 C   0  0  0  0  0  0  0  0  0  0  0  0
  -19.8506  -22.6095   22.8986 C   0  0  0  0  0  0  0  0  0  0  0  0
  -20.4710  -20.5155   21.6746 C   0  0  0  0  0  0  0  0  0  0  0  0
  -18.2678  -21.6033   21.2443 C   0  0  0  0  0  0  0  0  0  0  0  0
  -22.0305  -22.9108   15.6762 C   0  0  0  0  0  0  0  0  0  0  0  0
  -33.2058  -26.5553   19.8284 C   0  0  0  0  0  0  0  0  0  0  0  0
  -27.0033  -25.9855   20.4737 C   0  0  0  0  0  0  0  0  0  1  0  0
  -29.2162  -24.8664   19.8092 C   0  0  0  0  0  0  0  0  0  0  0  0
  -20.3777  -22.6896   20.3724 C   0  0  1  0  0  0  0  0  0  0  0  0
  -21.0297  -21.0548   17.0149 C   0  0  2  0  0  0  0  0  0  0  0  0
  -19.7574  -21.8781   21.5446 C   0  0  0  0  0  0  0  0  0  0  0  0
  -25.2411  -14.8757   20.3567 N   0  0  0  0  0  0  0  0  0  0  0  0
  -26.2902  -15.1402   19.5594 N   0  0  0  0  0  0  0  0  0  0  0  0
  -28.2923  -18.3218   20.2828 N   0  0  0  0  0  0  0  0  0  0  0  0
  -20.5840  -25.1554   20.3444 N   0  0  0  0  0  0  0  0  0  0  0  0
  -27.8787  -14.1215   18.1278 N   0  0  0  0  0  0  0  0  0  0  0  0
  -25.3909  -10.6389   19.5693 N   0  0  0  0  0  0  0  0  0  0  0  0
  -19.2170  -28.0620   22.0704 N   0  0  0  0  0  0  0  0  0  0  0  0
  -20.2795  -22.0330   19.0733 N   0  0  0  0  0  0  0  0  0  0  0  0
  -21.9809  -21.4493   15.9377 N   0  3  0  0  0  0  0  0  0  0  0  0
  -33.6710  -26.0101   17.5465 O   0  0  0  0  0  0  0  0  0  0  0  0
  -27.1748  -11.2363   18.2581 O   0  0  0  0  0  0  0  0  0  0  0  0
  -30.5349  -17.7376   20.0658 O   0  0  0  0  0  0  0  0  0  0  0  0
  -20.2293  -26.0641   22.7074 O   0  0  0  0  0  0  0  0  0  0  0  0
  -28.9538  -27.2571   19.8689 O   0  0  0  0  0  0  0  0  0  0  0  0
  -18.5300  -24.1198   19.9639 O   0  0  0  0  0  0  0  0  0  0  0  0
  -22.5568  -21.9868   18.6387 O   0  0  0  0  0  0  0  0  0  0  0  0
  -21.0645  -10.9071   23.0687 O   0  0  0  0  0  0  0  0  0  0  0  0
  -26.3763  -27.2573   20.6349 O   0  0  0  0  0  0  0  0  0  1  0  0
  -30.5437  -25.1444   19.4162 O   0  0  0  0  0  0  0  0  0  0  0  0
  -22.4035   -6.2631   25.7226 F   0  0  0  0  0  0  0  0  0  0  0  0
  -22.0720   -8.7292   21.6960 F   0  0  0  0  0  0  0  0  0  0  0  0
  1  2  1  0  0  0  0
  1  5  2  0  0  0  0
  2  6  2  0  0  0  0
  3  8  2  0  0  0  0
  3 17  1  0  0  0  0
  4  9  1  0  0  0  0
  4 17  2  0  0  0  0
  5 21  1  0  0  0  0
  6 23  1  0  0  0  0
  7 10  2  0  0  0  0
  7 22  1  0  0  0  0
  8 26  1  0  0  0  0
  9 26  2  0  0  0  0
 10 27  1  0  0  0  0
 11 12  2  0  0  0  0
 11 28  1  0  0  0  0
 12 30  1  0  0  0  0
 13 18  1  0  0  0  0
 13 25  2  0  0  0  0
 14 18  2  0  0  0  0
 14 29  1  0  0  0  0
 15 24  1  0  0  0  0
 15 27  2  0  0  0  0
 16 30  2  0  0  0  0
 16 31  1  0  0  0  0
 17 32  1  0  0  0  0
 18 34  1  0  0  0  0
 19 25  1  0  0  0  0
 19 29  2  0  0  0  0
 19 36  1  0  0  0  0
 20 32  1  0  0  0  0
 20 33  2  0  0  0  0
 20 37  1  0  0  0  0
 21 23  2  0  0  0  0
 21 43  1  0  0  0  0
 22 24  2  0  0  0  0
 22 44  1  0  0  0  0
 23 52  1  0  0  0  0
 24 45  1  0  0  0  0
 25 55  1  0  0  0  0
 26 84  1  0  0  0  0
 27 85  1  0  0  0  0
 28 31  2  0  0  0  0
 28 84  1  0  0  0  0
 29 86  1  0  0  0  0
 30 87  1  0  0  0  0
 31 88  1  0  0  0  0
 32 68  2  0  0  0  0
 33 69  1  0  0  0  0
 33 72  1  0  0  0  0
 34 35  2  0  0  0  0
 35 38  1  0  0  0  0
 36 62  1  0  0  0  0
 36 77  2  0  0  0  0
 37 73  1  0  0  0  0
 37 78  2  0  0  0  0
 38 70  1  0  0  0  0
 38 79  2  0  0  0  0
 39 53  1  0  0  0  0
 39 74  1  0  0  0  0
 39 80  2  0  0  0  0
 40 63  1  0  0  0  0
 40 64  1  0  0  0  0
 40 81  2  0  0  0  0
 41 65  1  0  0  0  0
 41 71  1  0  0  0  0
 41 82  2  0  0  0  0
 42 66  1  0  0  0  0
 42 75  1  0  0  0  0
 42 83  2  0  0  0  0
 43 46  1  0  0  0  0
 44 53  1  0  0  0  0
 45 71  1  0  0  0  0
 46 48  1  0  0  0  0
 47 49  1  0  0  0  0
 47 50  1  0  0  0  0
 48 52  1  0  0  0  0
 49 54  1  0  0  0  0
 50 70  1  0  0  0  0
 51 54  1  0  0  0  0
 51 70  1  0  0  0  0
 52 74  1  0  0  0  0
 53 71  1  0  0  0  0
 54 69  1  0  0  0  0
 56 62  1  0  0  0  0
 57 66  1  0  0  0  0
 58 67  1  0  0  0  0
 59 67  1  0  0  0  0
 60 67  1  0  0  0  0
 61 76  1  0  0  0  0
 63 85  1  0  0  0  0
 64 86  1  0  0  0  0
 65 67  1  0  0  0  0
 65 75  1  0  0  0  0
 66 76  1  0  0  0  0
 68 69  1  0  0  0  0
M  CHG  1  76   1
M  ISO  4  35 100  38 100  63 101  85 101
M  END
> <Batch ID>
0130

> <Smiles>
CCC(=O)c1c(C)cc(C=[100CH:0][100C:0](=O)N2CCCC(n3nc(-c4ccc(Oc5ccc(F)cc5F)cc4)c(C(N)=O)c3N)C2)cc1OCC(=O)[101CH2:1][101O:1]c1ccc2c(c1)CN(C(=O)C(NC(=O)C(C)NC)C(C)(C)C)C(C(=O)NC1CCCc3ccccc31)C2

> <Shape>
0.227

> <Color>
0.082

> <Negative vol penalty>
0.000

$$$$

  -OEChem-04052302223D

 85 93  0     1  0  0  0  0  0999 V2000
  -31.4161  -22.1126   18.0367 C   0  0  0  0  0  0  0  0  0  0  0  0
  -30.1511  -22.4419   17.5606 C   0  0  0  0  0  0  0  0  0  0  0  0
  -26.0892  -13.9086   21.3769 C   0  0  0  0  0  0  0  0  0  0  0  0
  -25.6569  -14.4868   19.0713 C   0  0  0  0  0  0  0  0  0  0  0  0
  -31.7640  -22.4122   19.3532 C   0  0  0  0  0  0  0  0  0  0  0  0
  -29.2328  -23.0701   18.4012 C   0  0  0  0  0  0  0  0  0  0  0  0
  -23.8701  -27.8174   18.2560 C   0  0  0  0  0  0  0  0  0  0  0  0
  -25.7796  -12.5769   21.1010 C   0  0  0  0  0  0  0  0  0  0  0  0
  -25.3473  -13.1550   18.7953 C   0  0  0  0  0  0  0  0  0  0  0  0
  -22.5424  -27.9551   18.6585 C   0  0  0  0  0  0  0  0  0  0  0  0
  -24.7544   -9.0880   21.0838 C   0  0  0  0  0  0  0  0  0  0  0  0
  -23.9308   -8.4121   21.9839 C   0  0  0  0  0  0  0  0  0  0  0  0
  -21.9174  -23.7309   27.8192 C   0  0  0  0  0  0  0  0  0  0  0  0
  -21.1921  -24.2877   25.5830 C   0  0  0  0  0  0  0  0  0  0  0  0
  -23.2813  -28.4955   20.8903 C   0  0  0  0  0  0  0  0  0  0  0  0
  -20.5507  -25.6877   27.4446 C   0  0  0  0  0  0  0  0  0  0  0  0
  -22.1742  -10.0225   21.5857 C   0  0  0  0  0  0  0  0  0  0  0  0
  -26.0278  -14.8636   20.3621 C   0  0  0  0  0  0  0  0  0  0  0  0
  -21.8894  -23.4498   26.4532 C   0  0  0  0  0  0  0  0  0  0  0  0
  -27.6109  -16.8538   20.5634 C   0  0  0  0  0  0  0  0  0  0  0  0
  -30.8528  -23.0530   20.2074 C   0  0  0  0  0  0  0  0  0  0  0  0
  -24.9148  -28.0073   19.1719 C   0  0  0  0  0  0  0  0  0  0  0  0
  -29.5683  -23.3773   19.7307 C   0  0  0  0  0  0  0  0  0  0  0  0
  -24.6215  -28.3621   20.4964 C   0  0  0  0  0  0  0  0  0  0  0  0
  -21.2481  -24.8498   28.3149 C   0  0  0  0  0  0  0  0  0  0  0  0
  -20.5227  -25.4066   26.0786 C   0  0  0  0  0  0  0  0  0  0  0  0
  -25.4087  -12.2001   19.8102 C   0  0  0  0  0  0  0  0  0  0  0  0
  -22.2477  -28.2914   19.9765 C   0  0  0  0  0  0  0  0  0  0  0  0
  -24.2881  -10.2311   20.4346 C   0  0  0  0  0  0  0  0  0  0  0  0
  -22.6407   -8.8793   22.2349 C   0  0  0  0  0  0  0  0  0  0  0  0
  -22.9980  -10.6984   20.6856 C   0  0  0  0  0  0  0  0  0  0  0  0
  -26.3470  -16.2396   20.6466 C   0  0  0  0  0  0  0  0  0  0  0  0
  -27.3842  -18.1574   20.9320 C   0  0  0  0  0  0  0  0  0  0  0  0
  -22.5868  -22.2829   25.9359 C   0  0  0  0  0  0  0  0  0  0  0  0
  -22.3418  -21.6861   24.7500 C   0  0  0  0  0  0  0  0  0  0  0  0
  -28.8768  -16.2960   20.1866 C   0  0  0  0  0  0  0  0  0  0  0  0
  -23.1454  -20.5102   24.3599 C   0  0  0  0  0  0  0  0  0  0  0  0
  -27.2322  -26.1738   20.3431 C   0  0  0  0  0  0  0  0  0  0  0  0
  -28.1970  -28.9471   21.7218 C   0  0  0  0  0  0  0  0  0  0  0  0
  -19.6819  -26.1260   23.8163 C   0  0  0  0  0  0  0  0  0  0  0  0
  -27.3771  -32.0658   22.8389 C   0  0  0  0  0  0  0  0  0  0  0  0
  -31.2579  -23.3140   21.6366 C   0  0  0  0  0  0  0  0  0  0  0  0
  -26.3425  -27.8812   18.7155 C   0  0  0  0  0  0  0  0  0  0  0  0
  -25.7072  -28.5968   21.5135 C   0  0  0  0  0  0  0  0  0  0  0  0
  -30.3572  -24.3182   22.3512 C   0  0  0  0  0  0  0  0  0  0  0  0
  -24.0026  -21.5219   20.9432 C   0  0  0  0  0  0  0  0  0  0  0  0
  -28.8886  -23.9926   22.0982 C   0  0  0  0  0  0  0  0  0  0  0  0
  -24.7824  -20.3010   20.4623 C   0  0  0  0  0  0  0  0  0  0  0  0
  -22.8751  -21.1394   21.9007 C   0  0  0  0  0  0  0  0  0  0  0  0
  -24.1115  -19.1029   22.5824 C   0  0  0  0  0  0  0  0  0  0  0  0
  -28.5532  -24.0816   20.6046 C   0  0  1  0  0  0  0  0  0  0  0  0
  -27.3118  -27.5937   19.8579 C   0  0  1  0  0  0  0  0  0  0  0  0
  -25.2805  -19.4690   21.6547 C   0  0  1  0  0  0  0  0  0  0  0  0
  -21.2772  -25.1506   29.7754 C   0  0  0  0  0  0  0  0  0  0  0  0
  -28.3701  -34.0838   23.9518 C   0  0  0  0  0  0  0  0  0  0  0  0
  -28.1790  -27.4780   24.3960 C   0  0  0  0  0  0  0  0  0  0  0  0
  -28.2370  -29.7042   25.5401 C   0  0  0  0  0  0  0  0  0  0  0  0
  -30.1245  -29.0137   24.0625 C   0  0  0  0  0  0  0  0  0  0  0  0
  -26.7378  -33.7993   20.5268 C   0  0  0  0  0  0  0  0  0  0  0  0
  -18.8350  -27.2584   23.2523 C   0  0  0  0  0  0  0  0  0  0  0  0
  -19.2180  -27.6221   21.8219 C   0  0  0  0  0  0  0  0  0  0  0  0
  -20.6540  -28.1180   21.7332 C   0  0  0  0  0  0  0  0  0  1  0  0
  -27.9077  -29.6497   23.0262 C   0  0  1  0  0  0  0  0  0  0  0  0
  -28.0353  -33.4171   22.6266 C   0  0  2  0  0  0  0  0  0  0  0  0
  -28.5913  -28.9552   24.2378 C   0  0  0  0  0  0  0  0  0  0  0  0
  -25.3883  -17.0835   21.0375 N   0  0  0  0  0  0  0  0  0  0  0  0
  -26.0502  -18.2413   21.2033 N   0  0  0  0  0  0  0  0  0  0  0  0
  -23.3659  -20.2954   23.0005 N   0  0  0  0  0  0  0  0  0  0  0  0
  -27.0871  -28.4554   21.0202 N   0  0  0  0  0  0  0  0  0  0  0  0
  -28.1977  -19.2285   21.0473 N   0  0  0  0  0  0  0  0  0  0  0  0
  -28.9319  -14.9399   19.8370 N   0  0  0  0  0  0  0  0  0  0  0  0
  -19.8143  -26.2562   25.1960 N   0  0  0  0  0  0  0  0  0  0  0  0
  -28.4090  -25.4637   20.2004 N   0  0  0  0  0  0  0  0  0  0  0  0
  -28.3004  -31.0418   22.8359 N   0  0  0  0  0  0  0  0  0  0  0  0
  -27.1295  -34.3202   21.8618 N   0  3  0  0  0  0  0  0  0  0  0  0
  -29.9310  -16.9758   20.1766 O   0  0  0  0  0  0  0  0  0  0  0  0
  -23.5690  -19.7860   25.2626 O   0  0  0  0  0  0  0  0  0  0  0  0
  -26.1814  -25.7541   20.8135 O   0  0  0  0  0  0  0  0  0  0  0  0
  -29.3642  -28.8447   21.3359 O   0  0  0  0  0  0  0  0  0  0  0  0
  -20.1553  -25.2488   23.1018 O   0  0  0  0  0  0  0  0  0  0  0  0
  -26.1654  -31.9324   22.9956 O   0  0  0  0  0  0  0  0  0  0  0  0
  -25.1068  -10.9006   19.5406 O   0  0  0  0  0  0  0  0  0  0  0  0
  -20.9526  -28.4258   20.3721 O   0  0  0  0  0  0  0  0  0  1  0  0
  -21.8493   -8.2293   23.0982 F   0  0  0  0  0  0  0  0  0  0  0  0
  -22.5440  -11.7953   20.0640 F   0  0  0  0  0  0  0  0  0  0  0  0
  1  2  1  0  0  0  0
  1  5  2  0  0  0  0
  2  6  2  0  0  0  0
  3  8  2  0  0  0  0
  3 18  1  0  0  0  0
  4  9  1  0  0  0  0
  4 18  2  0  0  0  0
  5 21  1  0  0  0  0
  6 23  1  0  0  0  0
  7 10  2  0  0  0  0
  7 22  1  0  0  0  0
  8 27  1  0  0  0  0
  9 27  2  0  0  0  0
 10 28  1  0  0  0  0
 11 12  2  0  0  0  0
 11 29  1  0  0  0  0
 12 30  1  0  0  0  0
 13 19  2  0  0  0  0
 13 25  1  0  0  0  0
 14 19  1  0  0  0  0
 14 26  2  0  0  0  0
 15 24  1  0  0  0  0
 15 28  2  0  0  0  0
 16 25  2  0  0  0  0
 16 26  1  0  0  0  0
 17 30  2  0  0  0  0
 17 31  1  0  0  0  0
 18 32  1  0  0  0  0
 19 34  1  0  0  0  0
 20 32  1  0  0  0  0
 20 33  2  0  0  0  0
 20 36  1  0  0  0  0
 21 23  2  0  0  0  0
 21 42  1  0  0  0  0
 22 24  2  0  0  0  0
 22 43  1  0  0  0  0
 23 51  1  0  0  0  0
 24 44  1  0  0  0  0
 25 54  1  0  0  0  0
 26 72  1  0  0  0  0
 27 82  1  0  0  0  0
 28 83  1  0  0  0  0
 29 31  2  0  0  0  0
 29 82  1  0  0  0  0
 30 84  1  0  0  0  0
 31 85  1  0  0  0  0
 32 66  2  0  0  0  0
 33 67  1  0  0  0  0
 33 70  1  0  0  0  0
 34 35  2  0  0  0  0
 35 37  1  0  0  0  0
 36 71  1  0  0  0  0
 36 76  2  0  0  0  0
 37 68  1  0  0  0  0
 37 77  2  0  0  0  0
 38 52  1  0  0  0  0
 38 73  1  0  0  0  0
 38 78  2  0  0  0  0
 39 63  1  0  0  0  0
 39 69  1  0  0  0  0
 39 79  2  0  0  0  0
 40 60  1  0  0  0  0
 40 72  1  0  0  0  0
 40 80  2  0  0  0  0
 41 64  1  0  0  0  0
 41 74  1  0  0  0  0
 41 81  2  0  0  0  0
 42 45  1  0  0  0  0
 43 52  1  0  0  0  0
 44 69  1  0  0  0  0
 45 47  1  0  0  0  0
 46 48  1  0  0  0  0
 46 49  1  0  0  0  0
 47 51  1  0  0  0  0
 48 53  1  0  0  0  0
 49 68  1  0  0  0  0
 50 53  1  0  0  0  0
 50 68  1  0  0  0  0
 51 73  1  0  0  0  0
 52 69  1  0  0  0  0
 53 67  1  0  0  0  0
 55 64  1  0  0  0  0
 56 65  1  0  0  0  0
 57 65  1  0  0  0  0
 58 65  1  0  0  0  0
 59 75  1  0  0  0  0
 60 61  1  0  0  0  0
 61 62  1  0  0  0  0
 62 83  1  0  0  0  0
 63 65  1  0  0  0  0
 63 74  1  0  0  0  0
 64 75  1  0  0  0  0
 66 67  1  0  0  0  0
M  CHG  1  75   1
M  ISO  4  35 100  37 100  62 101  83 101
M  END
> <Batch ID>
0130

> <Smiles>
CNC(C)C(=O)NC(C(=O)N1Cc2cc([101O:1][101CH2:1]CCC(=O)Nc3cc(C)cc(C=[100CH:0][100C:0](=O)N4CCCC(n5nc(-c6ccc(Oc7ccc(F)cc7F)cc6)c(C(N)=O)c5N)C4)c3)ccc2CC1C(=O)NC1CCCc2ccccc21)C(C)(C)C

> <Shape>
0.225

> <Color>
0.051

> <Negative vol penalty>
0.000

$$$$

  -OEChem-04052302223D

 83 91  0     1  0  0  0  0  0999 V2000
  -36.9886  -32.2162   27.3658 C   0  0  0  0  0  0  0  0  0  0  0  0
  -36.7949  -30.8923   26.9849 C   0  0  0  0  0  0  0  0  0  0  0  0
  -23.0240   -9.9118   19.9157 C   0  0  0  0  0  0  0  0  0  0  0  0
  -23.8232   -9.8230   22.1939 C   0  0  0  0  0  0  0  0  0  0  0  0
  -35.9011  -33.0856   27.4389 C   0  0  0  0  0  0  0  0  0  0  0  0
  -35.5133  -30.4367   26.6779 C   0  0  0  0  0  0  0  0  0  0  0  0
  -34.0012  -26.2704   22.4515 C   0  0  0  0  0  0  0  0  0  0  0  0
  -30.6655  -18.0798   24.1752 C   0  0  0  0  0  0  0  0  0  0  0  0
  -30.0435  -17.2417   23.2499 C   0  0  0  0  0  0  0  0  0  0  0  0
  -22.2598   -8.7665   20.1391 C   0  0  0  0  0  0  0  0  0  0  0  0
  -23.0590   -8.6777   22.4174 C   0  0  0  0  0  0  0  0  0  0  0  0
  -33.7177  -24.9081   22.5368 C   0  0  0  0  0  0  0  0  0  0  0  0
  -19.8253   -7.9273   23.0500 C   0  0  0  0  0  0  0  0  0  0  0  0
  -19.0879   -7.8626   24.2322 C   0  0  0  0  0  0  0  0  0  0  0  0
  -31.3598  -25.4104   22.6227 C   0  0  0  0  0  0  0  0  0  0  0  0
  -32.1980  -16.3670   22.5939 C   0  0  0  0  0  0  0  0  0  0  0  0
  -20.2998   -5.8751   24.8792 C   0  0  0  0  0  0  0  0  0  0  0  0
  -23.8057  -10.4400   20.9431 C   0  0  0  0  0  0  0  0  0  0  0  0
  -24.1998  -12.9601   20.9039 C   0  0  0  0  0  0  0  0  0  0  0  0
  -34.6068  -32.6429   27.1233 C   0  0  0  0  0  0  0  0  0  0  0  0
  -32.9650  -27.2152   22.4622 C   0  0  0  0  0  0  0  0  0  0  0  0
  -34.4072  -31.3006   26.7481 C   0  0  0  0  0  0  0  0  0  0  0  0
  -31.6327  -26.7840   22.5349 C   0  0  0  0  0  0  0  0  0  0  0  0
  -32.0538  -18.0617   24.3098 C   0  0  0  0  0  0  0  0  0  0  0  0
  -32.8200  -17.2052   23.5192 C   0  0  0  0  0  0  0  0  0  0  0  0
  -30.8097  -16.3852   22.4593 C   0  0  0  0  0  0  0  0  0  0  0  0
  -22.2773   -8.1495   21.3900 C   0  0  0  0  0  0  0  0  0  0  0  0
  -32.3969  -24.4780   22.6253 C   0  0  0  0  0  0  0  0  0  0  0  0
  -20.7998   -6.9659   22.7823 C   0  0  0  0  0  0  0  0  0  0  0  0
  -19.3252   -6.8365   25.1469 C   0  0  0  0  0  0  0  0  0  0  0  0
  -21.0371   -5.9398   23.6969 C   0  0  0  0  0  0  0  0  0  0  0  0
  -24.5958  -11.6228   20.7127 C   0  0  0  0  0  0  0  0  0  0  0  0
  -25.3015  -13.6987   20.5470 C   0  0  0  0  0  0  0  0  0  0  0  0
  -22.9482  -13.4876   21.3630 C   0  0  0  0  0  0  0  0  0  0  0  0
  -32.1299  -29.6070   24.3820 C   0  0  0  0  0  0  0  0  0  0  0  0
  -29.9236  -30.1742   22.0727 C   0  0  0  0  0  0  0  0  0  0  0  0
  -28.0549  -28.9571   19.4894 C   0  0  0  0  0  0  0  0  0  0  0  0
  -30.7912  -14.6228   20.6594 C   0  0  0  0  0  0  0  0  0  0  0  0
  -33.4557  -33.6073   27.2625 C   0  0  0  0  0  0  0  0  0  0  0  0
  -33.2862  -28.6797   22.3426 C   0  0  0  0  0  0  0  0  0  0  0  0
  -30.4830  -27.7569   22.5297 C   0  0  0  0  0  0  0  0  0  0  0  0
  -32.1832  -33.1426   26.5588 C   0  0  0  0  0  0  0  0  0  0  0  0
  -29.5843  -12.3167   18.2299 C   0  0  0  0  0  0  0  0  0  0  0  0
  -31.9001  -31.6784   26.8797 C   0  0  0  0  0  0  0  0  0  0  0  0
  -28.1463  -12.0406   18.6749 C   0  0  0  0  0  0  0  0  0  0  0  0
  -30.5247  -12.4843   19.4220 C   0  0  0  0  0  0  0  0  0  0  0  0
  -28.6579  -13.2001   20.8614 C   0  0  0  0  0  0  0  0  0  0  0  0
  -33.0357  -30.7753   26.3834 C   0  0  1  0  0  0  0  0  0  0  0  0
  -32.1784  -29.5803   22.8805 C   0  0  1  0  0  0  0  0  0  0  0  0
  -27.6614  -13.0884   19.6960 C   0  0  2  0  0  0  0  0  0  0  0  0
  -34.7897  -15.9499   24.4307 C   0  0  0  0  0  0  0  0  0  0  0  0
  -26.3144  -29.6499   17.8197 C   0  0  0  0  0  0  0  0  0  0  0  0
  -27.7974  -30.0947   24.2597 C   0  0  0  0  0  0  0  0  0  0  0  0
  -26.0658  -29.8366   22.4699 C   0  0  0  0  0  0  0  0  0  0  0  0
  -27.4728  -31.8947   22.5541 C   0  0  0  0  0  0  0  0  0  0  0  0
  -29.8295  -28.3296   17.2055 C   0  0  0  0  0  0  0  0  0  0  0  0
  -32.7034  -18.9775   25.3164 C   0  0  0  0  0  0  0  0  0  0  0  0
  -34.3075  -17.1671   23.6474 C   0  0  0  0  0  0  0  0  0  0  0  0
  -33.3736  -20.2068   24.6928 C   0  0  0  0  0  0  0  0  0  0  0  0
  -32.3848  -21.1315   23.9815 C   0  0  0  0  0  0  0  0  0  0  0  0
  -33.0911  -22.3190   23.3415 C   0  0  0  0  0  0  0  0  0  1  0  0
  -28.5106  -29.7135   21.8077 C   0  0  1  0  0  0  0  0  0  0  0  0
  -27.8023  -29.4898   18.0905 C   0  0  2  0  0  0  0  0  0  0  0  0
  -27.4832  -30.3664   22.7749 C   0  0  0  0  0  0  0  0  0  0  0  0
  -25.8509  -11.5150   20.2687 N   0  0  0  0  0  0  0  0  0  0  0  0
  -26.2531  -12.7941   20.1778 N   0  0  0  0  0  0  0  0  0  0  0  0
  -30.8486  -29.1786   22.4174 N   0  0  0  0  0  0  0  0  0  0  0  0
  -30.0033  -13.4955   20.3443 N   0  0  0  0  0  0  0  0  0  0  0  0
  -25.5393  -15.0272   20.5161 N   0  0  0  0  0  0  0  0  0  0  0  0
  -21.9229  -12.5886   21.6869 N   0  0  0  0  0  0  0  0  0  0  0  0
  -30.1781  -15.5322   21.5206 N   0  0  0  0  0  0  0  0  0  0  0  0
  -32.9338  -30.5747   24.9538 N   0  0  0  0  0  0  0  0  0  0  0  0
  -28.2534  -29.9769   20.3961 N   0  0  0  0  0  0  0  0  0  0  0  0
  -28.3680  -28.5601   17.0723 N   0  3  0  0  0  0  0  0  0  0  0  0
  -22.7396  -14.7201   21.4669 O   0  0  0  0  0  0  0  0  0  0  0  0
  -31.4149  -28.8097   24.9777 O   0  0  0  0  0  0  0  0  0  0  0  0
  -30.1981  -31.3725   21.9705 O   0  0  0  0  0  0  0  0  0  0  0  0
  -28.0707  -27.7566   19.7523 O   0  0  0  0  0  0  0  0  0  0  0  0
  -31.9154  -14.7840   20.1776 O   0  0  0  0  0  0  0  0  0  0  0  0
  -21.5316   -7.0320   21.6085 O   0  0  0  0  0  0  0  0  0  0  0  0
  -32.1174  -23.1488   22.7093 O   0  0  0  0  0  0  0  0  0  1  0  0
  -18.6181   -6.7753   26.2828 F   0  0  0  0  0  0  0  0  0  0  0  0
  -21.9728   -5.0140   23.4458 F   0  0  0  0  0  0  0  0  0  0  0  0
  1  2  1  0  0  0  0
  1  5  2  0  0  0  0
  2  6  2  0  0  0  0
  3 10  2  0  0  0  0
  3 18  1  0  0  0  0
  4 11  1  0  0  0  0
  4 18  2  0  0  0  0
  5 20  1  0  0  0  0
  6 22  1  0  0  0  0
  7 12  2  0  0  0  0
  7 21  1  0  0  0  0
  8  9  2  0  0  0  0
  8 24  1  0  0  0  0
  9 26  1  0  0  0  0
 10 27  1  0  0  0  0
 11 27  2  0  0  0  0
 12 28  1  0  0  0  0
 13 14  2  0  0  0  0
 13 29  1  0  0  0  0
 14 30  1  0  0  0  0
 15 23  1  0  0  0  0
 15 28  2  0  0  0  0
 16 25  1  0  0  0  0
 16 26  2  0  0  0  0
 17 30  2  0  0  0  0
 17 31  1  0  0  0  0
 18 32  1  0  0  0  0
 19 32  1  0  0  0  0
 19 33  2  0  0  0  0
 19 34  1  0  0  0  0
 20 22  2  0  0  0  0
 20 39  1  0  0  0  0
 21 23  2  0  0  0  0
 21 40  1  0  0  0  0
 22 48  1  0  0  0  0
 23 41  1  0  0  0  0
 24 25  2  0  0  0  0
 24 57  1  0  0  0  0
 25 58  1  0  0  0  0
 26 71  1  0  0  0  0
 27 80  1  0  0  0  0
 28 81  1  0  0  0  0
 29 31  2  0  0  0  0
 29 80  1  0  0  0  0
 30 82  1  0  0  0  0
 31 83  1  0  0  0  0
 32 65  2  0  0  0  0
 33 66  1  0  0  0  0
 33 69  1  0  0  0  0
 34 70  1  0  0  0  0
 34 75  2  0  0  0  0
 35 49  1  0  0  0  0
 35 72  1  0  0  0  0
 35 76  2  0  0  0  0
 36 62  1  0  0  0  0
 36 67  1  0  0  0  0
 36 77  2  0  0  0  0
 37 63  1  0  0  0  0
 37 73  1  0  0  0  0
 37 78  2  0  0  0  0
 38 68  1  0  0  0  0
 38 71  1  0  0  0  0
 38 79  2  0  0  0  0
 39 42  1  0  0  0  0
 40 49  1  0  0  0  0
 41 67  1  0  0  0  0
 42 44  1  0  0  0  0
 43 45  1  0  0  0  0
 43 46  1  0  0  0  0
 44 48  1  0  0  0  0
 45 50  1  0  0  0  0
 46 68  1  0  0  0  0
 47 50  1  0  0  0  0
 47 68  1  0  0  0  0
 48 72  1  0  0  0  0
 49 67  1  0  0  0  0
 50 66  1  0  0  0  0
 51 58  1  0  0  0  0
 52 63  1  0  0  0  0
 53 64  1  0  0  0  0
 54 64  1  0  0  0  0
 55 64  1  0  0  0  0
 56 74  1  0  0  0  0
 57 59  1  0  0  0  0
 59 60  1  0  0  0  0
 60 61  1  0  0  0  0
 61 81  1  0  0  0  0
 62 64  1  0  0  0  0
 62 73  1  0  0  0  0
 63 74  1  0  0  0  0
 65 66  1  0  0  0  0
M  CHG  1  74   1
M  ISO  4  38 100  61 101  71 100  81 101
M  END
> <Batch ID>
0130

> <Smiles>
CCc1cc([100NH:0][100C:0](=O)N2CCCC(n3nc(-c4ccc(Oc5ccc(F)cc5F)cc4)c(C(N)=O)c3N)C2)ccc1CCC[101CH2:1][101O:1]c1ccc2c(c1)CN(C(=O)C(NC(=O)C(C)NC)C(C)(C)C)C(C(=O)NC1CCCc3ccccc31)C2

> <Shape>
0.207

> <Color>
0.201

> <Negative vol penalty>
0.000

$$$$

  -OEChem-04052302223D

 83 92  0     1  0  0  0  0  0999 V2000
  -18.0342  -30.4204   22.1409 C   0  0  0  0  0  0  0  0  0  0  0  0
  -19.3489  -30.3642   21.6896 C   0  0  0  0  0  0  0  0  0  0  0  0
  -26.3804  -13.1678   21.0581 C   0  0  0  0  0  0  0  0  0  0  0  0
  -26.6018  -13.1468   18.6523 C   0  0  0  0  0  0  0  0  0  0  0  0
  -17.5300  -29.3988   22.9447 C   0  0  0  0  0  0  0  0  0  0  0  0
  -20.1606  -29.2868   22.0427 C   0  0  0  0  0  0  0  0  0  0  0  0
  -24.5153  -26.6797   18.6154 C   0  0  0  0  0  0  0  0  0  0  0  0
  -25.1609  -12.4991   20.9517 C   0  0  0  0  0  0  0  0  0  0  0  0
  -25.3823  -12.4781   18.5460 C   0  0  0  0  0  0  0  0  0  0  0  0
  -25.9015  -26.8263   18.5891 C   0  0  0  0  0  0  0  0  0  0  0  0
  -24.0930   -9.3334   20.4311 C   0  0  0  0  0  0  0  0  0  0  0  0
  -23.8635   -8.2625   21.2949 C   0  0  0  0  0  0  0  0  0  0  0  0
  -31.6022  -24.1767   24.2854 C   0  0  0  0  0  0  0  0  0  0  0  0
  -31.8372  -25.5240   23.9211 C   0  0  0  0  0  0  0  0  0  0  0  0
  -26.1267  -24.8969   20.0193 C   0  0  0  0  0  0  0  0  0  0  0  0
  -21.9342   -9.4035   22.1967 C   0  0  0  0  0  0  0  0  0  0  0  0
  -27.1008  -13.4917   19.9084 C   0  0  0  0  0  0  0  0  0  0  0  0
  -29.6387  -13.6063   20.1400 C   0  0  0  0  0  0  0  0  0  0  0  0
  -18.3330  -28.3035   23.2999 C   0  0  0  0  0  0  0  0  0  0  0  0
  -23.9228  -25.6453   19.3540 C   0  0  0  0  0  0  0  0  0  0  0  0
  -19.6672  -28.2502   22.8531 C   0  0  0  0  0  0  0  0  0  0  0  0
  -24.7329  -24.7377   20.0513 C   0  0  0  0  0  0  0  0  0  0  0  0
  -24.6619  -12.1542   19.6957 C   0  0  0  0  0  0  0  0  0  0  0  0
  -26.7073  -25.9366   19.2934 C   0  0  0  0  0  0  0  0  0  0  0  0
  -23.2432  -10.4394   20.4502 C   0  0  0  0  0  0  0  0  0  0  0  0
  -22.7841   -8.2975   22.1776 C   0  0  0  0  0  0  0  0  0  0  0  0
  -22.1638  -10.4744   21.3330 C   0  0  0  0  0  0  0  0  0  0  0  0
  -28.3603  -14.1830   20.0176 C   0  0  0  0  0  0  0  0  0  0  0  0
  -30.9783  -23.5928   23.2075 C   0  0  0  0  0  0  0  0  0  0  0  0
  -31.3403  -25.6674   22.6465 C   0  0  0  0  0  0  0  0  0  0  0  0
  -30.4940  -14.6788   20.2086 C   0  0  0  0  0  0  0  0  0  0  0  0
  -30.5428  -22.2526   23.0916 C   0  0  0  0  0  0  0  0  0  0  0  0
  -29.9392  -21.6739   22.0014 C   0  0  0  0  0  0  0  0  0  0  0  0
  -30.0190  -12.2247   20.1875 C   0  0  0  0  0  0  0  0  0  0  0  0
  -29.5490  -20.2500   22.0310 C   0  0  0  0  0  0  0  0  0  0  0  0
  -21.9221  -25.5113   21.8204 C   0  0  0  0  0  0  0  0  0  0  0  0
  -21.9992  -22.3265   21.2094 C   0  0  0  0  0  0  0  0  0  0  0  0
  -23.6738  -19.6740   19.8653 C   0  0  0  0  0  0  0  0  0  0  0  0
  -17.7584  -27.2468   24.2097 C   0  0  0  0  0  0  0  0  0  0  0  0
  -22.4273  -25.4847   19.3505 C   0  0  0  0  0  0  0  0  0  0  0  0
  -24.1472  -23.5981   20.8430 C   0  0  0  0  0  0  0  0  0  0  0  0
  -18.5693  -25.9536   24.2296 C   0  0  0  0  0  0  0  0  0  0  0  0
  -30.9472  -19.2153   18.8051 C   0  0  0  0  0  0  0  0  0  0  0  0
  -20.0565  -26.2583   24.3784 C   0  0  0  0  0  0  0  0  0  0  0  0
  -32.0147  -26.5138   20.3867 C   0  0  0  0  0  0  0  0  0  0  0  0
  -30.9445  -26.5216   19.2998 C   0  0  0  0  0  0  0  0  0  0  0  0
  -30.5090  -17.7542   18.7503 C   0  0  0  0  0  0  0  0  0  0  0  0
  -29.8209  -27.1278   21.3092 C   0  0  0  0  0  0  0  0  0  0  0  0
  -29.9158  -20.0954   19.5096 C   0  0  0  0  0  0  0  0  0  0  0  0
  -29.1126  -18.1500   20.8175 C   0  0  0  0  0  0  0  0  0  0  0  0
  -20.5713  -27.0856   23.1943 C   0  0  1  0  0  0  0  0  0  0  0  0
  -31.2743  -26.8100   21.7078 C   0  0  1  0  0  0  0  0  0  0  0  0
  -21.9075  -24.7036   20.5534 C   0  0  1  0  0  0  0  0  0  0  0  0
  -29.9032  -27.5010   19.8304 C   0  0  2  0  0  0  0  0  0  0  0  0
  -30.1570  -17.2384   20.1546 C   0  0  1  0  0  0  0  0  0  0  0  0
  -23.5032  -17.1899   19.5533 C   0  0  0  0  0  0  0  0  0  0  0  0
  -22.7466  -21.9097   24.1382 C   0  0  0  0  0  0  0  0  0  0  0  0
  -23.4787  -19.5892   23.5488 C   0  0  0  0  0  0  0  0  0  0  0  0
  -21.0964  -20.2603   23.2378 C   0  0  0  0  0  0  0  0  0  0  0  0
  -23.7044  -19.9255   16.9166 C   0  0  0  0  0  0  0  0  0  0  0  0
  -28.5729  -27.4007   19.1151 C   0  0  0  0  0  0  0  0  0  1  0  0
  -22.8558  -21.1706   21.6668 C   0  0  1  0  0  0  0  0  0  0  0  0
  -23.2169  -18.5549   18.9470 C   0  0  2  0  0  0  0  0  0  0  0  0
  -22.5556  -20.7550   23.1346 C   0  0  0  0  0  0  0  0  0  0  0  0
  -28.3956  -15.5181   20.0087 N   0  0  0  0  0  0  0  0  0  0  0  0
  -29.7066  -15.7894   20.1265 N   0  0  0  0  0  0  0  0  0  0  0  0
  -29.5519  -19.5499   20.8259 N   0  0  0  0  0  0  0  0  0  0  0  0
  -22.6795  -23.4869   20.8138 N   0  0  0  0  0  0  0  0  0  0  0  0
  -31.8353  -14.7708   20.3305 N   0  0  0  0  0  0  0  0  0  0  0  0
  -29.0137  -11.2517   20.1043 N   0  0  0  0  0  0  0  0  0  0  0  0
  -20.7687  -26.2412   22.0356 N   0  0  0  0  0  0  0  0  0  0  0  0
  -22.6570  -20.1042   20.6913 N   0  0  0  0  0  0  0  0  0  0  0  0
  -23.9180  -18.6427   17.6348 N   0  3  0  0  0  0  0  0  0  0  0  0
  -31.2134  -11.8639   20.3170 O   0  0  0  0  0  0  0  0  0  0  0  0
  -29.2392  -19.7679   23.1220 O   0  0  0  0  0  0  0  0  0  0  0  0
  -22.9064  -25.4739   22.5494 O   0  0  0  0  0  0  0  0  0  0  0  0
  -20.7720  -22.2018   21.1966 O   0  0  0  0  0  0  0  0  0  0  0  0
  -24.8193  -20.1193   19.8538 O   0  0  0  0  0  0  0  0  0  0  0  0
  -30.8150  -24.4947   22.2043 O   0  0  0  0  0  0  0  0  0  0  0  0
  -23.4720  -11.5015   19.5915 O   0  0  0  0  0  0  0  0  0  0  0  0
  -28.0606  -26.0779   19.2699 O   0  0  0  0  0  0  0  0  0  1  0  0
  -22.5628   -7.2684   23.0060 F   0  0  0  0  0  0  0  0  0  0  0  0
  -21.3433  -11.5337   21.3551 F   0  0  0  0  0  0  0  0  0  0  0  0
  1  2  1  0  0  0  0
  1  5  2  0  0  0  0
  2  6  2  0  0  0  0
  3  8  2  0  0  0  0
  3 17  1  0  0  0  0
  4  9  1  0  0  0  0
  4 17  2  0  0  0  0
  5 19  1  0  0  0  0
  6 21  1  0  0  0  0
  7 10  2  0  0  0  0
  7 20  1  0  0  0  0
  8 23  1  0  0  0  0
  9 23  2  0  0  0  0
 10 24  1  0  0  0  0
 11 12  2  0  0  0  0
 11 25  1  0  0  0  0
 12 26  1  0  0  0  0
 13 14  1  0  0  0  0
 13 29  2  0  0  0  0
 14 30  2  0  0  0  0
 15 22  1  0  0  0  0
 15 24  2  0  0  0  0
 16 26  2  0  0  0  0
 16 27  1  0  0  0  0
 17 28  1  0  0  0  0
 18 28  1  0  0  0  0
 18 31  2  0  0  0  0
 18 34  1  0  0  0  0
 19 21  2  0  0  0  0
 19 39  1  0  0  0  0
 20 22  2  0  0  0  0
 20 40  1  0  0  0  0
 21 51  1  0  0  0  0
 22 41  1  0  0  0  0
 23 80  1  0  0  0  0
 24 81  1  0  0  0  0
 25 27  2  0  0  0  0
 25 80  1  0  0  0  0
 26 82  1  0  0  0  0
 27 83  1  0  0  0  0
 28 65  2  0  0  0  0
 29 32  1  0  0  0  0
 29 79  1  0  0  0  0
 30 52  1  0  0  0  0
 30 79  1  0  0  0  0
 31 66  1  0  0  0  0
 31 69  1  0  0  0  0
 32 33  2  0  0  0  0
 33 35  1  0  0  0  0
 34 70  1  0  0  0  0
 34 74  2  0  0  0  0
 35 67  1  0  0  0  0
 35 75  2  0  0  0  0
 36 53  1  0  0  0  0
 36 71  1  0  0  0  0
 36 76  2  0  0  0  0
 37 62  1  0  0  0  0
 37 68  1  0  0  0  0
 37 77  2  0  0  0  0
 38 63  1  0  0  0  0
 38 72  1  0  0  0  0
 38 78  2  0  0  0  0
 39 42  1  0  0  0  0
 40 53  1  0  0  0  0
 41 68  1  0  0  0  0
 42 44  1  0  0  0  0
 43 47  1  0  0  0  0
 43 49  1  0  0  0  0
 44 51  1  0  0  0  0
 45 46  1  0  0  0  0
 45 52  1  0  0  0  0
 46 54  1  0  0  0  0
 47 55  1  0  0  0  0
 48 52  1  0  0  0  0
 48 54  1  0  0  0  0
 49 67  1  0  0  0  0
 50 55  1  0  0  0  0
 50 67  1  0  0  0  0
 51 71  1  0  0  0  0
 53 68  1  0  0  0  0
 54 61  1  0  0  0  0
 55 66  1  0  0  0  0
 56 63  1  0  0  0  0
 57 64  1  0  0  0  0
 58 64  1  0  0  0  0
 59 64  1  0  0  0  0
 60 73  1  0  0  0  0
 61 81  1  0  0  0  0
 62 64  1  0  0  0  0
 62 72  1  0  0  0  0
 63 73  1  0  0  0  0
 65 66  1  0  0  0  0
M  CHG  1  73   1
M  ISO  4  33 100  35 100  61 101  81 101
M  END
> <Batch ID>
0130

> <Smiles>
CNC(C)C(=O)NC(C(=O)N1Cc2cc([101O:1][101CH2:1]C3CCC(c4ccc(C=[100CH:0][100C:0](=O)N5CCCC(n6nc(-c7ccc(Oc8ccc(F)cc8F)cc7)c(C(N)=O)c6N)C5)o4)C3)ccc2CC1C(=O)NC1CCCc2ccccc21)C(C)(C)C

> <Shape>
0.233

> <Color>
0.056

> <Negative vol penalty>
0.000

$$$$

  -OEChem-04052302223D

 82 90  0     1  0  0  0  0  0999 V2000
  -27.0907  -37.3261   23.3876 C   0  0  0  0  0  0  0  0  0  0  0  0
  -27.6762  -36.2128   22.7933 C   0  0  0  0  0  0  0  0  0  0  0  0
  -26.1236  -22.3498   15.1894 C   0  0  0  0  0  0  0  0  0  0  0  0
  -22.5468  -10.4635   21.6365 C   0  0  0  0  0  0  0  0  0  0  0  0
  -24.4653   -9.2916   20.7516 C   0  0  0  0  0  0  0  0  0  0  0  0
  -25.8890  -21.2747   16.0466 C   0  0  0  0  0  0  0  0  0  0  0  0
  -26.0673  -37.1599   24.3197 C   0  0  0  0  0  0  0  0  0  0  0  0
  -27.2393  -34.9325   23.1316 C   0  0  0  0  0  0  0  0  0  0  0  0
  -26.8965  -30.0625   19.4342 C   0  0  0  0  0  0  0  0  0  0  0  0
  -26.4946  -23.5893   15.7106 C   0  0  0  0  0  0  0  0  0  0  0  0
  -21.8301   -9.2673   21.6668 C   0  0  0  0  0  0  0  0  0  0  0  0
  -23.7486   -8.0954   20.7820 C   0  0  0  0  0  0  0  0  0  0  0  0
  -27.7438  -28.9730   19.2371 C   0  0  0  0  0  0  0  0  0  0  0  0
  -22.8434   -5.7936   23.0848 C   0  0  0  0  0  0  0  0  0  0  0  0
  -23.4886   -4.6660   23.5926 C   0  0  0  0  0  0  0  0  0  0  0  0
  -26.3960  -22.6788   17.9463 C   0  0  0  0  0  0  0  0  0  0  0  0
  -26.4174  -27.6710   20.7749 C   0  0  0  0  0  0  0  0  0  0  0  0
  -23.1901   -3.5416   21.4751 C   0  0  0  0  0  0  0  0  0  0  0  0
  -23.8645  -10.4757   21.1789 C   0  0  0  0  0  0  0  0  0  0  0  0
  -26.0251  -21.4393   17.4251 C   0  0  0  0  0  0  0  0  0  0  0  0
  -25.4066  -12.2487   22.1718 C   0  0  0  0  0  0  0  0  0  0  0  0
  -25.6110  -35.8774   24.6625 C   0  0  0  0  0  0  0  0  0  0  0  0
  -25.8078  -29.9677   20.3130 C   0  0  0  0  0  0  0  0  0  0  0  0
  -26.2097  -34.7490   24.0702 C   0  0  0  0  0  0  0  0  0  0  0  0
  -25.5563  -28.7600   20.9794 C   0  0  0  0  0  0  0  0  0  0  0  0
  -26.6307  -23.7538   17.0891 C   0  0  0  0  0  0  0  0  0  0  0  0
  -22.4309   -8.0833   21.2396 C   0  0  0  0  0  0  0  0  0  0  0  0
  -27.5060  -27.7779   19.9097 C   0  0  0  0  0  0  0  0  0  0  0  0
  -22.3715   -5.7952   21.7722 C   0  0  0  0  0  0  0  0  0  0  0  0
  -23.6620   -3.5401   22.7878 C   0  0  0  0  0  0  0  0  0  0  0  0
  -22.5449   -4.6693   20.9674 C   0  0  0  0  0  0  0  0  0  0  0  0
  -24.6052  -11.7112   21.1468 C   0  0  0  0  0  0  0  0  0  0  0  0
  -25.8863  -13.4256   21.6510 C   0  0  0  0  0  0  0  0  0  0  0  0
  -25.7795  -20.3183   18.3192 C   0  0  0  0  0  0  0  0  0  0  0  0
  -25.0680  -19.2130   18.0120 C   0  0  0  0  0  0  0  0  0  0  0  0
  -25.6919  -11.7305   23.4778 C   0  0  0  0  0  0  0  0  0  0  0  0
  -24.9159  -18.1531   19.0289 C   0  0  0  0  0  0  0  0  0  0  0  0
  -24.9562  -31.4431   22.9965 C   0  0  0  0  0  0  0  0  0  0  0  0
  -22.2380  -29.7122   22.6256 C   0  0  0  0  0  0  0  0  0  0  0  0
  -20.7136  -26.9598   21.3038 C   0  0  0  0  0  0  0  0  0  0  0  0
  -24.5344  -35.7459   25.7105 C   0  0  0  0  0  0  0  0  0  0  0  0
  -24.8877  -31.1437   20.4942 C   0  0  0  0  0  0  0  0  0  0  0  0
  -24.3893  -28.6003   21.9181 C   0  0  0  0  0  0  0  0  0  0  0  0
  -23.8734  -34.3702   25.7354 C   0  0  0  0  0  0  0  0  0  0  0  0
  -25.7645  -15.2544   16.9530 C   0  0  0  0  0  0  0  0  0  0  0  0
  -24.9288  -33.2699   25.6880 C   0  0  0  0  0  0  0  0  0  0  0  0
  -25.5544  -14.1122   17.9435 C   0  0  0  0  0  0  0  0  0  0  0  0
  -24.7768  -16.3977   17.1808 C   0  0  0  0  0  0  0  0  0  0  0  0
  -24.5680  -15.7742   19.5699 C   0  0  0  0  0  0  0  0  0  0  0  0
  -25.7463  -33.3450   24.3928 C   0  0  1  0  0  0  0  0  0  0  0  0
  -24.1088  -31.0965   21.8051 C   0  0  1  0  0  0  0  0  0  0  0  0
  -25.5816  -14.6335   19.3891 C   0  0  1  0  0  0  0  0  0  0  0  0
  -18.4931  -25.7950   21.2041 C   0  0  0  0  0  0  0  0  0  0  0  0
  -30.4735  -26.6704   18.6373 C   0  0  0  0  0  0  0  0  0  0  0  0
  -22.6480  -28.6921   25.4719 C   0  0  0  0  0  0  0  0  0  0  0  0
  -21.0038  -26.8690   24.9809 C   0  0  0  0  0  0  0  0  0  0  0  0
  -20.2802  -29.2547   24.8963 C   0  0  0  0  0  0  0  0  0  0  0  0
  -20.5700  -27.2365   18.3607 C   0  0  0  0  0  0  0  0  0  0  0  0
  -27.0329  -25.0936   17.6519 C   0  0  0  0  0  0  0  0  0  0  0  0
  -28.5513  -25.2758   17.7921 C   0  0  0  0  0  0  0  0  0  0  0  0
  -21.7716  -28.3463   23.0681 C   0  0  1  0  0  0  0  0  0  0  0  0
  -19.4160  -26.8000   20.5324 C   0  0  2  0  0  0  0  0  0  0  0  0
  -28.9639  -26.6007   18.4451 C   0  0  1  0  0  0  0  0  0  1  0  0
  -21.4491  -28.2938   24.5882 C   0  0  0  0  0  0  0  0  0  0  0  0
  -24.5749  -12.4833   20.0573 N   0  0  0  0  0  0  0  0  0  0  0  0
  -25.3632  -13.5181   20.3948 N   0  0  0  0  0  0  0  0  0  0  0  0
  -24.7791  -16.8395   18.5835 N   0  0  0  0  0  0  0  0  0  0  0  0
  -23.5221  -29.7806   22.0668 N   0  0  0  0  0  0  0  0  0  0  0  0
  -26.7003  -14.3802   22.1497 N   0  0  0  0  0  0  0  0  0  0  0  0
  -25.1169  -10.5083   23.8519 N   0  0  0  0  0  0  0  0  0  0  0  0
  -24.9929  -32.7936   23.2870 N   0  0  0  0  0  0  0  0  0  0  0  0
  -20.6465  -28.0001   22.2062 N   0  0  0  0  0  0  0  0  0  0  0  0
  -19.6924  -26.3303   19.1454 N   0  3  0  0  0  0  0  0  0  0  0  0
  -26.4215  -12.3415   24.2951 O   0  0  0  0  0  0  0  0  0  0  0  0
  -24.9144  -18.4966   20.2124 O   0  0  0  0  0  0  0  0  0  0  0  0
  -25.5328  -30.5513   23.6079 O   0  0  0  0  0  0  0  0  0  0  0  0
  -21.4877  -30.6816   22.7640 O   0  0  0  0  0  0  0  0  0  0  0  0
  -21.6880  -26.2320   21.1264 O   0  0  0  0  0  0  0  0  0  0  0  0
  -21.7319   -6.9158   21.2693 O   0  0  0  0  0  0  0  0  0  0  0  0
  -28.3318  -26.7131   19.7196 O   0  0  0  0  0  0  0  0  0  1  0  0
  -24.2829   -2.4579   23.2751 F   0  0  0  0  0  0  0  0  0  0  0  0
  -22.0947   -4.6653   19.7051 F   0  0  0  0  0  0  0  0  0  0  0  0
  1  2  1  0  0  0  0
  1  7  2  0  0  0  0
  2  8  2  0  0  0  0
  3  6  1  0  0  0  0
  3 10  2  0  0  0  0
  4 11  2  0  0  0  0
  4 19  1  0  0  0  0
  5 12  1  0  0  0  0
  5 19  2  0  0  0  0
  6 20  2  0  0  0  0
  7 22  1  0  0  0  0
  8 24  1  0  0  0  0
  9 13  2  0  0  0  0
  9 23  1  0  0  0  0
 10 26  1  0  0  0  0
 11 27  1  0  0  0  0
 12 27  2  0  0  0  0
 13 28  1  0  0  0  0
 14 15  2  0  0  0  0
 14 29  1  0  0  0  0
 15 30  1  0  0  0  0
 16 20  1  0  0  0  0
 16 26  2  0  0  0  0
 17 25  1  0  0  0  0
 17 28  2  0  0  0  0
 18 30  2  0  0  0  0
 18 31  1  0  0  0  0
 19 32  1  0  0  0  0
 20 34  1  0  0  0  0
 21 32  1  0  0  0  0
 21 33  2  0  0  0  0
 21 36  1  0  0  0  0
 22 24  2  0  0  0  0
 22 41  1  0  0  0  0
 23 25  2  0  0  0  0
 23 42  1  0  0  0  0
 24 50  1  0  0  0  0
 25 43  1  0  0  0  0
 26 59  1  0  0  0  0
 27 79  1  0  0  0  0
 28 80  1  0  0  0  0
 29 31  2  0  0  0  0
 29 79  1  0  0  0  0
 30 81  1  0  0  0  0
 31 82  1  0  0  0  0
 32 65  2  0  0  0  0
 33 66  1  0  0  0  0
 33 69  1  0  0  0  0
 34 35  2  0  0  0  0
 35 37  1  0  0  0  0
 36 70  1  0  0  0  0
 36 74  2  0  0  0  0
 37 67  1  0  0  0  0
 37 75  2  0  0  0  0
 38 51  1  0  0  0  0
 38 71  1  0  0  0  0
 38 76  2  0  0  0  0
 39 61  1  0  0  0  0
 39 68  1  0  0  0  0
 39 77  2  0  0  0  0
 40 62  1  0  0  0  0
 40 72  1  0  0  0  0
 40 78  2  0  0  0  0
 41 44  1  0  0  0  0
 42 51  1  0  0  0  0
 43 68  1  0  0  0  0
 44 46  1  0  0  0  0
 45 47  1  0  0  0  0
 45 48  1  0  0  0  0
 46 50  1  0  0  0  0
 47 52  1  0  0  0  0
 48 67  1  0  0  0  0
 49 52  1  0  0  0  0
 49 67  1  0  0  0  0
 50 71  1  0  0  0  0
 51 68  1  0  0  0  0
 52 66  1  0  0  0  0
 53 62  1  0  0  0  0
 54 63  1  0  0  0  0
 55 64  1  0  0  0  0
 56 64  1  0  0  0  0
 57 64  1  0  0  0  0
 58 73  1  0  0  0  0
 59 60  1  0  0  0  0
 60 63  1  0  0  0  0
 61 64  1  0  0  0  0
 61 72  1  0  0  0  0
 62 73  1  0  0  0  0
 63 80  1  0  0  0  0
 65 66  1  0  0  0  0
M  CHG  1  73   1
M  ISO  4  35 100  37 100  63 101  80 101
M  END
> <Batch ID>
0130

> <Smiles>
CNC(C)C(=O)NC(C(=O)N1Cc2cc([101O:1][101CH:1](C)CCc3cccc(C=[100CH:0][100C:0](=O)N4CCCC(n5nc(-c6ccc(Oc7ccc(F)cc7F)cc6)c(C(N)=O)c5N)C4)c3)ccc2CC1C(=O)NC1CCCc2ccccc21)C(C)(C)C

> <Shape>
0.267

> <Color>
0.112

> <Negative vol penalty>
0.000

$$$$

  -OEChem-04052302223D

 84 92  0     1  0  0  0  0  0999 V2000
  -17.8994  -22.2715   19.0238 C   0  0  0  0  0  0  0  0  0  0  0  0
  -19.0328  -22.7062   18.3440 C   0  0  0  0  0  0  0  0  0  0  0  0
  -26.4584  -13.6983   21.9087 C   0  0  0  0  0  0  0  0  0  0  0  0
  -26.1917  -12.7416   19.7063 C   0  0  0  0  0  0  0  0  0  0  0  0
  -17.2914  -23.1012   19.9649 C   0  0  0  0  0  0  0  0  0  0  0  0
  -19.5581  -23.9714   18.6043 C   0  0  0  0  0  0  0  0  0  0  0  0
  -24.5980  -23.9190   19.0951 C   0  0  0  0  0  0  0  0  0  0  0  0
  -25.2656  -13.0991   22.3135 C   0  0  0  0  0  0  0  0  0  0  0  0
  -24.9989  -12.1423   20.1111 C   0  0  0  0  0  0  0  0  0  0  0  0
  -25.3512  -23.8553   17.9236 C   0  0  0  0  0  0  0  0  0  0  0  0
  -22.0682  -10.0647   20.6702 C   0  0  0  0  0  0  0  0  0  0  0  0
  -21.8583   -8.7320   20.3160 C   0  0  0  0  0  0  0  0  0  0  0  0
  -31.4783  -24.9068   19.7787 C   0  0  0  0  0  0  0  0  0  0  0  0
  -31.0047  -24.1657   17.5285 C   0  0  0  0  0  0  0  0  0  0  0  0
  -25.7341  -26.2338   18.0474 C   0  0  0  0  0  0  0  0  0  0  0  0
  -31.8400  -26.3997   17.9140 C   0  0  0  0  0  0  0  0  0  0  0  0
  -23.8430   -8.0949   21.5375 C   0  0  0  0  0  0  0  0  0  0  0  0
  -26.9214  -13.5196   20.6051 C   0  0  0  0  0  0  0  0  0  0  0  0
  -31.0420  -23.9151   18.9002 C   0  0  0  0  0  0  0  0  0  0  0  0
  -29.4487  -13.5938   20.2658 C   0  0  0  0  0  0  0  0  0  0  0  0
  -17.8151  -24.3734   20.2438 C   0  0  0  0  0  0  0  0  0  0  0  0
  -24.3978  -25.1445   19.7467 C   0  0  0  0  0  0  0  0  0  0  0  0
  -18.9556  -24.8194   19.5491 C   0  0  0  0  0  0  0  0  0  0  0  0
  -24.9801  -26.3100   19.2284 C   0  0  0  0  0  0  0  0  0  0  0  0
  -31.8773  -26.1491   19.2856 C   0  0  0  0  0  0  0  0  0  0  0  0
  -31.4038  -25.4080   17.0354 C   0  0  0  0  0  0  0  0  0  0  0  0
  -24.5359  -12.3211   21.4147 C   0  0  0  0  0  0  0  0  0  0  0  0
  -25.9169  -25.0132   17.3979 C   0  0  0  0  0  0  0  0  0  0  0  0
  -23.1656  -10.4125   21.4580 C   0  0  0  0  0  0  0  0  0  0  0  0
  -22.7457   -7.7471   20.7497 C   0  0  0  0  0  0  0  0  0  0  0  0
  -24.0529   -9.4276   21.8917 C   0  0  0  0  0  0  0  0  0  0  0  0
  -28.1532  -14.1388   20.1862 C   0  0  0  0  0  0  0  0  0  0  0  0
  -30.2637  -14.5679   19.7431 C   0  0  0  0  0  0  0  0  0  0  0  0
  -30.6257  -22.6199   19.4150 C   0  0  0  0  0  0  0  0  0  0  0  0
  -29.8463  -21.7315   18.7624 C   0  0  0  0  0  0  0  0  0  0  0  0
  -29.8770  -12.3208   20.7675 C   0  0  0  0  0  0  0  0  0  0  0  0
  -29.5181  -20.4492   19.4172 C   0  0  0  0  0  0  0  0  0  0  0  0
  -21.8577  -26.9187   20.4567 C   0  0  0  0  0  0  0  0  0  0  0  0
  -28.8415  -25.3345   15.2894 C   0  0  0  0  0  0  0  0  0  0  0  0
  -24.0403  -28.7077   22.0562 C   0  0  0  0  0  0  0  0  0  0  0  0
  -27.2955  -29.6670   22.4170 C   0  0  0  0  0  0  0  0  0  0  0  0
  -17.0956  -25.2533   21.2352 C   0  0  0  0  0  0  0  0  0  0  0  0
  -23.6051  -25.1922   21.0241 C   0  0  0  0  0  0  0  0  0  0  0  0
  -24.8119  -27.6471   19.9009 C   0  0  0  0  0  0  0  0  0  0  0  0
  -17.9337  -26.4318   21.7241 C   0  0  0  0  0  0  0  0  0  0  0  0
  -30.2725  -18.1863   16.6348 C   0  0  0  0  0  0  0  0  0  0  0  0
  -18.6128  -27.1278   20.5488 C   0  0  0  0  0  0  0  0  0  0  0  0
  -29.8816  -16.8395   17.2373 C   0  0  0  0  0  0  0  0  0  0  0  0
  -29.3750  -19.3179   17.1334 C   0  0  0  0  0  0  0  0  0  0  0  0
  -28.9173  -18.0672   19.2231 C   0  0  0  0  0  0  0  0  0  0  0  0
  -19.5697  -26.1754   19.8217 C   0  0  1  0  0  0  0  0  0  0  0  0
  -23.0365  -26.5759   21.3231 C   0  0  1  0  0  0  0  0  0  0  0  0
  -29.8370  -16.9220   18.7714 C   0  0  1  0  0  0  0  0  0  0  0  0
  -32.3435  -27.2097   20.2248 C   0  0  0  0  0  0  0  0  0  0  0  0
  -28.7659  -31.1704   23.7863 C   0  0  0  0  0  0  0  0  0  0  0  0
  -23.0156  -31.1236   20.4995 C   0  0  0  0  0  0  0  0  0  0  0  0
  -25.0894  -32.3519   21.1768 C   0  0  0  0  0  0  0  0  0  0  0  0
  -23.4852  -31.5625   22.9163 C   0  0  0  0  0  0  0  0  0  0  0  0
  -28.8845  -27.3844   23.4288 C   0  0  0  0  0  0  0  0  0  0  0  0
  -31.3633  -25.6793   15.5506 C   0  0  0  0  0  0  0  0  0  0  0  0
  -30.0304  -26.2598   15.0741 C   0  0  0  0  0  0  0  0  0  0  0  0
  -27.7010  -25.9098   16.1060 C   0  0  0  0  0  0  0  0  0  1  0  0
  -24.9284  -29.8768   21.7049 C   0  0  1  0  0  0  0  0  0  0  0  0
  -28.1846  -29.7725   23.6429 C   0  0  2  0  0  0  0  0  0  0  0  0
  -24.1314  -31.2040   21.5604 C   0  0  0  0  0  0  0  0  0  0  0  0
  -28.1411  -15.3642   19.6548 N   0  0  0  0  0  0  0  0  0  0  0  0
  -29.4390  -15.5972   19.3959 N   0  0  0  0  0  0  0  0  0  0  0  0
  -29.3020  -19.3396   18.6021 N   0  0  0  0  0  0  0  0  0  0  0  0
  -24.0229  -27.6431   21.1439 N   0  0  0  0  0  0  0  0  0  0  0  0
  -31.5983  -14.6358   19.5512 N   0  0  0  0  0  0  0  0  0  0  0  0
  -28.9088  -11.4398   21.2682 N   0  0  0  0  0  0  0  0  0  0  0  0
  -20.8029  -26.0328   20.5656 N   0  0  0  0  0  0  0  0  0  0  0  0
  -25.9738  -29.9153   22.7217 N   0  0  0  0  0  0  0  0  0  0  0  0
  -29.3117  -28.8020   23.5504 N   0  3  0  0  0  0  0  0  0  0  0  0
  -31.0845  -11.9813   20.7866 O   0  0  0  0  0  0  0  0  0  0  0  0
  -29.4506  -20.4401   20.6477 O   0  0  0  0  0  0  0  0  0  0  0  0
  -21.9014  -27.9142   19.7433 O   0  0  0  0  0  0  0  0  0  0  0  0
  -28.7847  -24.2049   14.8063 O   0  0  0  0  0  0  0  0  0  0  0  0
  -23.3916  -28.7347   23.1050 O   0  0  0  0  0  0  0  0  0  0  0  0
  -27.7305  -29.3955   21.3001 O   0  0  0  0  0  0  0  0  0  0  0  0
  -23.3721  -11.7360   21.8094 O   0  0  0  0  0  0  0  0  0  0  0  0
  -26.6520  -24.9538   16.2542 O   0  0  0  0  0  0  0  0  0  1  0  0
  -22.5431   -6.4671   20.4108 F   0  0  0  0  0  0  0  0  0  0  0  0
  -25.1083   -9.7555   22.6497 F   0  0  0  0  0  0  0  0  0  0  0  0
  1  2  1  0  0  0  0
  1  5  2  0  0  0  0
  2  6  2  0  0  0  0
  3  8  2  0  0  0  0
  3 18  1  0  0  0  0
  4  9  1  0  0  0  0
  4 18  2  0  0  0  0
  5 21  1  0  0  0  0
  6 23  1  0  0  0  0
  7 10  2  0  0  0  0
  7 22  1  0  0  0  0
  8 27  1  0  0  0  0
  9 27  2  0  0  0  0
 10 28  1  0  0  0  0
 11 12  2  0  0  0  0
 11 29  1  0  0  0  0
 12 30  1  0  0  0  0
 13 19  2  0  0  0  0
 13 25  1  0  0  0  0
 14 19  1  0  0  0  0
 14 26  2  0  0  0  0
 15 24  1  0  0  0  0
 15 28  2  0  0  0  0
 16 25  2  0  0  0  0
 16 26  1  0  0  0  0
 17 30  2  0  0  0  0
 17 31  1  0  0  0  0
 18 32  1  0  0  0  0
 19 34  1  0  0  0  0
 20 32  1  0  0  0  0
 20 33  2  0  0  0  0
 20 36  1  0  0  0  0
 21 23  2  0  0  0  0
 21 42  1  0  0  0  0
 22 24  2  0  0  0  0
 22 43  1  0  0  0  0
 23 51  1  0  0  0  0
 24 44  1  0  0  0  0
 25 54  1  0  0  0  0
 26 60  1  0  0  0  0
 27 81  1  0  0  0  0
 28 82  1  0  0  0  0
 29 31  2  0  0  0  0
 29 81  1  0  0  0  0
 30 83  1  0  0  0  0
 31 84  1  0  0  0  0
 32 66  2  0  0  0  0
 33 67  1  0  0  0  0
 33 70  1  0  0  0  0
 34 35  2  0  0  0  0
 35 37  1  0  0  0  0
 36 71  1  0  0  0  0
 36 75  2  0  0  0  0
 37 68  1  0  0  0  0
 37 76  2  0  0  0  0
 38 52  1  0  0  0  0
 38 72  1  0  0  0  0
 38 77  2  0  0  0  0
 39 61  1  0  0  0  0
 39 62  1  0  0  0  0
 39 78  2  0  0  0  0
 40 63  1  0  0  0  0
 40 69  1  0  0  0  0
 40 79  2  0  0  0  0
 41 64  1  0  0  0  0
 41 73  1  0  0  0  0
 41 80  2  0  0  0  0
 42 45  1  0  0  0  0
 43 52  1  0  0  0  0
 44 69  1  0  0  0  0
 45 47  1  0  0  0  0
 46 48  1  0  0  0  0
 46 49  1  0  0  0  0
 47 51  1  0  0  0  0
 48 53  1  0  0  0  0
 49 68  1  0  0  0  0
 50 53  1  0  0  0  0
 50 68  1  0  0  0  0
 51 72  1  0  0  0  0
 52 69  1  0  0  0  0
 53 67  1  0  0  0  0
 55 64  1  0  0  0  0
 56 65  1  0  0  0  0
 57 65  1  0  0  0  0
 58 65  1  0  0  0  0
 59 74  1  0  0  0  0
 60 61  1  0  0  0  0
 62 82  1  0  0  0  0
 63 65  1  0  0  0  0
 63 73  1  0  0  0  0
 64 74  1  0  0  0  0
 66 67  1  0  0  0  0
M  CHG  1  74   1
M  ISO  4  35 100  37 100  62 101  82 101
M  END
> <Batch ID>
0130

> <Smiles>
CNC(C)C(=O)NC(C(=O)N1Cc2cc([101O:1][101CH2:1]C(=O)CCc3cc(C)cc(C=[100CH:0][100C:0](=O)N4CCCC(n5nc(-c6ccc(Oc7ccc(F)cc7F)cc6)c(C(N)=O)c5N)C4)c3)ccc2CC1C(=O)NC1CCCc2ccccc21)C(C)(C)C

> <Shape>
0.266

> <Color>
0.078

> <Negative vol penalty>
0.000

$$$$

  -OEChem-04052302223D

 87 95  0     1  0  0  0  0  0999 V2000
  -24.2856  -29.4603   19.9767 C   0  0  0  0  0  0  0  0  0  0  0  0
  -24.7042  -28.6418   21.0209 C   0  0  0  0  0  0  0  0  0  0  0  0
  -32.5665  -18.2999   22.1268 C   0  0  0  0  0  0  0  0  0  0  0  0
  -23.1085   -9.8461   21.0515 C   0  0  0  0  0  0  0  0  0  0  0  0
  -23.8150  -10.5939   23.2376 C   0  0  0  0  0  0  0  0  0  0  0  0
  -24.2339  -30.8423   20.1534 C   0  0  0  0  0  0  0  0  0  0  0  0
  -25.0724  -29.2051   22.2422 C   0  0  0  0  0  0  0  0  0  0  0  0
  -23.1261  -26.7119   26.1970 C   0  0  0  0  0  0  0  0  0  0  0  0
  -31.7634  -19.3592   22.5494 C   0  0  0  0  0  0  0  0  0  0  0  0
  -31.9857  -17.1743   21.5424 C   0  0  0  0  0  0  0  0  0  0  0  0
  -22.3675   -8.8221   21.6413 C   0  0  0  0  0  0  0  0  0  0  0  0
  -23.0739   -9.5698   23.8273 C   0  0  0  0  0  0  0  0  0  0  0  0
  -23.7482  -25.5204   26.5673 C   0  0  0  0  0  0  0  0  0  0  0  0
  -19.3923   -8.4870   23.2125 C   0  0  0  0  0  0  0  0  0  0  0  0
  -18.0974   -8.2700   22.7416 C   0  0  0  0  0  0  0  0  0  0  0  0
  -24.9031  -26.6808   28.3390 C   0  0  0  0  0  0  0  0  0  0  0  0
  -18.7017   -6.0152   22.1188 C   0  0  0  0  0  0  0  0  0  0  0  0
  -23.8323  -10.7320   21.8497 C   0  0  0  0  0  0  0  0  0  0  0  0
  -24.1585  -13.0921   20.9380 C   0  0  0  0  0  0  0  0  0  0  0  0
  -24.5925  -31.4221   21.3805 C   0  0  0  0  0  0  0  0  0  0  0  0
  -23.3967  -27.9011   26.8893 C   0  0  0  0  0  0  0  0  0  0  0  0
  -25.0268  -30.5963   22.4350 C   0  0  0  0  0  0  0  0  0  0  0  0
  -24.2812  -27.8856   27.9771 C   0  0  0  0  0  0  0  0  0  0  0  0
  -30.3795  -19.2928   22.3878 C   0  0  0  0  0  0  0  0  0  0  0  0
  -29.7987  -18.1672   21.8035 C   0  0  0  0  0  0  0  0  0  0  0  0
  -30.6018  -17.1080   21.3808 C   0  0  0  0  0  0  0  0  0  0  0  0
  -22.3501   -8.6839   23.0291 C   0  0  0  0  0  0  0  0  0  0  0  0
  -24.6390  -25.5053   27.6365 C   0  0  0  0  0  0  0  0  0  0  0  0
  -20.3420   -7.4682   23.1364 C   0  0  0  0  0  0  0  0  0  0  0  0
  -17.7520   -7.0341   22.1948 C   0  0  0  0  0  0  0  0  0  0  0  0
  -19.9967   -6.2323   22.5896 C   0  0  0  0  0  0  0  0  0  0  0  0
  -24.5985  -11.7896   21.2411 C   0  0  0  0  0  0  0  0  0  0  0  0
  -25.2533  -13.7024   20.3764 C   0  0  0  0  0  0  0  0  0  0  0  0
  -22.8749  -13.6962   21.1456 C   0  0  0  0  0  0  0  0  0  0  0  0
  -24.6547  -30.7141   26.1093 C   0  0  0  0  0  0  0  0  0  0  0  0
  -28.5566  -21.6901   24.8602 C   0  0  0  0  0  0  0  0  0  0  0  0
  -23.7995  -31.4977   29.1387 C   0  0  0  0  0  0  0  0  0  0  0  0
  -23.0796  -30.4550   32.3075 C   0  0  0  0  0  0  0  0  0  0  0  0
  -30.7062  -14.8272   20.3162 C   0  0  0  0  0  0  0  0  0  0  0  0
  -24.5656  -32.9246   21.5090 C   0  0  0  0  0  0  0  0  0  0  0  0
  -22.6971  -29.1727   26.4943 C   0  0  0  0  0  0  0  0  0  0  0  0
  -24.5902  -29.1311   28.7657 C   0  0  0  0  0  0  0  0  0  0  0  0
  -24.6147  -33.4133   22.9543 C   0  0  0  0  0  0  0  0  0  0  0  0
  -29.6646  -11.7692   18.8192 C   0  0  0  0  0  0  0  0  0  0  0  0
  -25.6987  -32.6732   23.7315 C   0  0  0  0  0  0  0  0  0  0  0  0
  -28.2175  -11.6091   19.2909 C   0  0  0  0  0  0  0  0  0  0  0  0
  -30.5499  -12.3818   19.9030 C   0  0  0  0  0  0  0  0  0  0  0  0
  -28.6062  -13.4811   20.9436 C   0  0  0  0  0  0  0  0  0  0  0  0
  -25.4106  -31.1679   23.7827 C   0  0  1  0  0  0  0  0  0  0  0  0
  -23.4390  -30.4274   26.9446 C   0  0  1  0  0  0  0  0  0  0  0  0
  -27.6622  -12.9279   19.8635 C   0  0  2  0  0  0  0  0  0  0  0  0
  -27.8875  -18.3709   20.1933 C   0  0  0  0  0  0  0  0  0  0  0  0
  -22.4533  -31.3299   34.5746 C   0  0  0  0  0  0  0  0  0  0  0  0
  -26.6827  -32.3891   29.5886 C   0  0  0  0  0  0  0  0  0  0  0  0
  -26.2389  -32.3438   32.0521 C   0  0  0  0  0  0  0  0  0  0  0  0
  -24.9562  -33.9001   30.5840 C   0  0  0  0  0  0  0  0  0  0  0  0
  -20.5137  -28.9802   32.2957 C   0  0  0  0  0  0  0  0  0  0  0  0
  -29.5336  -20.4537   22.8542 C   0  0  0  0  0  0  0  0  0  0  0  0
  -28.3134  -18.1007   21.6320 C   0  0  0  0  0  0  0  0  0  0  0  0
  -29.3647  -20.4963   24.3745 C   0  0  0  0  0  0  0  0  0  0  0  0
  -28.3981  -21.8424   26.3620 C   0  0  0  0  0  0  0  0  0  0  0  0
  -27.5492  -23.0589   26.7235 C   0  0  0  0  0  0  0  0  0  0  0  0
  -27.3656  -23.2102   28.2339 C   0  0  0  0  0  0  0  0  0  0  0  0
  -26.5466  -24.4458   28.5823 C   0  0  0  0  0  0  0  0  0  1  0  0
  -24.4657  -31.4216   30.4912 C   0  0  1  0  0  0  0  0  0  0  0  0
  -21.9372  -30.7993   33.2461 C   0  0  2  0  0  0  0  0  0  0  0  0
  -25.5817  -32.4904   30.6631 C   0  0  0  0  0  0  0  0  0  0  0  0
  -25.8734  -11.5837   20.9001 N   0  0  0  0  0  0  0  0  0  0  0  0
  -26.2438  -12.7648   20.3769 N   0  0  0  0  0  0  0  0  0  0  0  0
  -23.8860  -30.3507   28.3369 N   0  0  0  0  0  0  0  0  0  0  0  0
  -29.9632  -13.6303   20.3950 N   0  0  0  0  0  0  0  0  0  0  0  0
  -25.4556  -14.9441   19.8870 N   0  0  0  0  0  0  0  0  0  0  0  0
  -21.8621  -12.9274   21.7351 N   0  0  0  0  0  0  0  0  0  0  0  0
  -30.0333  -15.9553   20.7842 N   0  0  0  0  0  0  0  0  0  0  0  0
  -24.3862  -30.8824   24.7643 N   0  0  0  0  0  0  0  0  0  0  0  0
  -23.3957  -31.5109   31.4789 N   0  0  0  0  0  0  0  0  0  0  0  0
  -21.1048  -29.5924   33.5134 N   0  3  0  0  0  0  0  0  0  0  0  0
  -22.6284  -14.8775   20.8031 O   0  0  0  0  0  0  0  0  0  0  0  0
  -25.7546  -30.7792   26.6457 O   0  0  0  0  0  0  0  0  0  0  0  0
  -28.0877  -22.5253   24.0868 O   0  0  0  0  0  0  0  0  0  0  0  0
  -23.2175  -32.5341   28.8087 O   0  0  0  0  0  0  0  0  0  0  0  0
  -23.6383  -29.3603   32.3117 O   0  0  0  0  0  0  0  0  0  0  0  0
  -31.8445  -14.8543   19.8415 O   0  0  0  0  0  0  0  0  0  0  0  0
  -21.6269   -7.6849   23.6050 O   0  0  0  0  0  0  0  0  0  0  0  0
  -25.2480  -24.3438   27.9996 O   0  0  0  0  0  0  0  0  0  1  0  0
  -16.5081   -6.8253   21.7442 F   0  0  0  0  0  0  0  0  0  0  0  0
  -20.9044   -5.2493   22.5149 F   0  0  0  0  0  0  0  0  0  0  0  0
  1  2  1  0  0  0  0
  1  6  2  0  0  0  0
  2  7  2  0  0  0  0
  3  9  1  0  0  0  0
  3 10  2  0  0  0  0
  4 11  2  0  0  0  0
  4 18  1  0  0  0  0
  5 12  1  0  0  0  0
  5 18  2  0  0  0  0
  6 20  1  0  0  0  0
  7 22  1  0  0  0  0
  8 13  2  0  0  0  0
  8 21  1  0  0  0  0
  9 24  2  0  0  0  0
 10 26  1  0  0  0  0
 11 27  1  0  0  0  0
 12 27  2  0  0  0  0
 13 28  1  0  0  0  0
 14 15  2  0  0  0  0
 14 29  1  0  0  0  0
 15 30  1  0  0  0  0
 16 23  1  0  0  0  0
 16 28  2  0  0  0  0
 17 30  2  0  0  0  0
 17 31  1  0  0  0  0
 18 32  1  0  0  0  0
 19 32  1  0  0  0  0
 19 33  2  0  0  0  0
 19 34  1  0  0  0  0
 20 22  2  0  0  0  0
 20 40  1  0  0  0  0
 21 23  2  0  0  0  0
 21 41  1  0  0  0  0
 22 49  1  0  0  0  0
 23 42  1  0  0  0  0
 24 25  1  0  0  0  0
 24 58  1  0  0  0  0
 25 26  2  0  0  0  0
 25 59  1  0  0  0  0
 26 74  1  0  0  0  0
 27 84  1  0  0  0  0
 28 85  1  0  0  0  0
 29 31  2  0  0  0  0
 29 84  1  0  0  0  0
 30 86  1  0  0  0  0
 31 87  1  0  0  0  0
 32 68  2  0  0  0  0
 33 69  1  0  0  0  0
 33 72  1  0  0  0  0
 34 73  1  0  0  0  0
 34 78  2  0  0  0  0
 35 50  1  0  0  0  0
 35 75  1  0  0  0  0
 35 79  2  0  0  0  0
 36 60  1  0  0  0  0
 36 61  1  0  0  0  0
 36 80  2  0  0  0  0
 37 65  1  0  0  0  0
 37 70  1  0  0  0  0
 37 81  2  0  0  0  0
 38 66  1  0  0  0  0
 38 76  1  0  0  0  0
 38 82  2  0  0  0  0
 39 71  1  0  0  0  0
 39 74  1  0  0  0  0
 39 83  2  0  0  0  0
 40 43  1  0  0  0  0
 41 50  1  0  0  0  0
 42 70  1  0  0  0  0
 43 45  1  0  0  0  0
 44 46  1  0  0  0  0
 44 47  1  0  0  0  0
 45 49  1  0  0  0  0
 46 51  1  0  0  0  0
 47 71  1  0  0  0  0
 48 51  1  0  0  0  0
 48 71  1  0  0  0  0
 49 75  1  0  0  0  0
 50 70  1  0  0  0  0
 51 69  1  0  0  0  0
 52 59  1  0  0  0  0
 53 66  1  0  0  0  0
 54 67  1  0  0  0  0
 55 67  1  0  0  0  0
 56 67  1  0  0  0  0
 57 77  1  0  0  0  0
 58 60  1  0  0  0  0
 61 62  1  0  0  0  0
 62 63  1  0  0  0  0
 63 64  1  0  0  0  0
 64 85  1  0  0  0  0
 65 67  1  0  0  0  0
 65 76  1  0  0  0  0
 66 77  1  0  0  0  0
 68 69  1  0  0  0  0
M  CHG  1  77   1
M  ISO  4  39 100  64 101  74 100  85 101
M  END
> <Batch ID>
0130

> <Smiles>
CCc1c(CCC(=O)CCC[101CH2:1][101O:1]c2ccc3c(c2)CN(C(=O)C(NC(=O)C(C)NC)C(C)(C)C)C(C(=O)NC2CCCc4ccccc42)C3)cccc1[100NH:0][100C:0](=O)N1CCCC(n2nc(-c3ccc(Oc4ccc(F)cc4F)cc3)c(C(N)=O)c2N)C1

> <Shape>
0.225

> <Color>
0.166

> <Negative vol penalty>
0.000

$$$$

  -OEChem-04052302223D

 86 94  0     1  0  0  0  0  0999 V2000
  -28.7884  -33.2693   23.4081 C   0  0  0  0  0  0  0  0  0  0  0  0
  -28.7501  -31.9650   22.9257 C   0  0  0  0  0  0  0  0  0  0  0  0
  -23.8002   -9.3981   21.9828 C   0  0  0  0  0  0  0  0  0  0  0  0
  -23.3565  -11.5794   22.9219 C   0  0  0  0  0  0  0  0  0  0  0  0
  -27.7138  -33.7723   24.1403 C   0  0  0  0  0  0  0  0  0  0  0  0
  -27.6376  -31.1625   23.1762 C   0  0  0  0  0  0  0  0  0  0  0  0
  -26.1125  -28.6197   19.0709 C   0  0  0  0  0  0  0  0  0  0  0  0
  -23.1486   -8.8009   23.0618 C   0  0  0  0  0  0  0  0  0  0  0  0
  -22.7048  -10.9823   24.0009 C   0  0  0  0  0  0  0  0  0  0  0  0
  -26.8419  -27.4854   18.7171 C   0  0  0  0  0  0  0  0  0  0  0  0
  -19.9633   -8.2277   24.0409 C   0  0  0  0  0  0  0  0  0  0  0  0
  -19.0640   -7.1977   23.7657 C   0  0  0  0  0  0  0  0  0  0  0  0
  -25.1644  -26.0922   19.7488 C   0  0  0  0  0  0  0  0  0  0  0  0
  -30.3772  -17.6824   20.0245 C   0  0  0  0  0  0  0  0  0  0  0  0
  -28.5126  -19.3038   21.3194 C   0  0  0  0  0  0  0  0  0  0  0  0
  -20.3841   -5.6858   25.1106 C   0  0  0  0  0  0  0  0  0  0  0  0
  -23.9042  -10.7873   21.9128 C   0  0  0  0  0  0  0  0  0  0  0  0
  -24.0049  -11.8133   19.5794 C   0  0  0  0  0  0  0  0  0  0  0  0
  -26.5834  -32.9788   24.3917 C   0  0  0  0  0  0  0  0  0  0  0  0
  -24.9070  -28.4990   19.7771 C   0  0  0  0  0  0  0  0  0  0  0  0
  -26.5474  -31.6550   23.9136 C   0  0  0  0  0  0  0  0  0  0  0  0
  -24.4203  -27.2264   20.1081 C   0  0  0  0  0  0  0  0  0  0  0  0
  -30.4032  -19.0640   19.8345 C   0  0  0  0  0  0  0  0  0  0  0  0
  -28.4866  -17.9222   21.5094 C   0  0  0  0  0  0  0  0  0  0  0  0
  -29.4189  -17.1115   20.8620 C   0  0  0  0  0  0  0  0  0  0  0  0
  -22.6008   -9.5930   24.0709 C   0  0  0  0  0  0  0  0  0  0  0  0
  -26.3694  -26.2216   19.0586 C   0  0  0  0  0  0  0  0  0  0  0  0
  -21.0731   -7.9868   24.8509 C   0  0  0  0  0  0  0  0  0  0  0  0
  -29.4710  -19.8747   20.4820 C   0  0  0  0  0  0  0  0  0  0  0  0
  -19.2743   -5.9267   24.3006 C   0  0  0  0  0  0  0  0  0  0  0  0
  -21.2834   -6.7159   25.3858 C   0  0  0  0  0  0  0  0  0  0  0  0
  -24.5777  -11.4047   20.7987 C   0  0  0  0  0  0  0  0  0  0  0  0
  -25.0550  -12.3356   18.8646 C   0  0  0  0  0  0  0  0  0  0  0  0
  -22.6451  -11.7284   19.1329 C   0  0  0  0  0  0  0  0  0  0  0  0
  -23.8678  -29.4630   22.6222 C   0  0  0  0  0  0  0  0  0  0  0  0
  -28.2425  -23.1577   19.5435 C   0  0  0  0  0  0  0  0  0  0  0  0
  -21.0412  -28.2811   21.5564 C   0  0  0  0  0  0  0  0  0  0  0  0
  -19.3995  -26.1434   19.4631 C   0  0  0  0  0  0  0  0  0  0  0  0
  -30.2703  -14.7741   20.4644 C   0  0  0  0  0  0  0  0  0  0  0  0
  -25.4665  -33.5508   25.2283 C   0  0  0  0  0  0  0  0  0  0  0  0
  -24.1186  -29.7310   20.1279 C   0  0  0  0  0  0  0  0  0  0  0  0
  -23.1216  -27.0418   20.8481 C   0  0  0  0  0  0  0  0  0  0  0  0
  -24.1650  -32.7592   25.1299 C   0  0  0  0  0  0  0  0  0  0  0  0
  -29.8007  -11.9443   18.3552 C   0  0  0  0  0  0  0  0  0  0  0  0
  -24.4371  -31.2648   25.2701 C   0  0  0  0  0  0  0  0  0  0  0  0
  -28.3540  -11.5257   18.6269 C   0  0  0  0  0  0  0  0  0  0  0  0
  -30.4928  -12.4473   19.6207 C   0  0  0  0  0  0  0  0  0  0  0  0
  -28.3308  -13.0912   20.6108 C   0  0  0  0  0  0  0  0  0  0  0  0
  -25.3476  -30.7618   24.1434 C   0  0  1  0  0  0  0  0  0  0  0  0
  -23.1621  -29.5156   21.2967 C   0  0  1  0  0  0  0  0  0  0  0  0
  -27.5722  -12.6383   19.3525 C   0  0  2  0  0  0  0  0  0  0  0  0
  -31.4353  -19.6572   18.9332 C   0  0  0  0  0  0  0  0  0  0  0  0
  -25.2661  -16.0614   22.5444 C   0  0  0  0  0  0  0  0  0  0  0  0
  -17.0916  -25.3738   18.8475 C   0  0  0  0  0  0  0  0  0  0  0  0
  -20.9186  -26.6144   24.1092 C   0  0  0  0  0  0  0  0  0  0  0  0
  -19.1533  -25.2093   23.0241 C   0  0  0  0  0  0  0  0  0  0  0  0
  -18.7411  -27.6366   23.4252 C   0  0  0  0  0  0  0  0  0  0  0  0
  -19.7082  -27.0745   16.6709 C   0  0  0  0  0  0  0  0  0  0  0  0
  -27.4490  -17.3374   22.4120 C   0  0  0  0  0  0  0  0  0  0  0  0
  -26.9698  -23.9790   19.5744 C   0  0  0  0  0  0  0  0  0  1  0  0
  -28.2453  -21.9113   20.4044 C   0  0  0  0  0  0  0  0  0  0  0  0
  -26.3039  -16.6851   21.6247 C   0  0  0  0  0  0  0  0  0  0  0  0
  -20.3561  -26.9370   21.6101 C   0  0  1  0  0  0  0  0  0  0  0  0
  -18.2143  -26.3517   18.5377 C   0  0  2  0  0  0  0  0  0  0  0  0
  -19.8178  -26.6025   23.0299 C   0  0  0  0  0  0  0  0  0  0  0  0
  -25.8900  -11.6464   20.8585 N   0  0  0  0  0  0  0  0  0  0  0  0
  -26.1504  -12.2125   19.6678 N   0  0  0  0  0  0  0  0  0  0  0  0
  -22.3903  -28.2772   21.1745 N   0  0  0  0  0  0  0  0  0  0  0  0
  -29.6970  -13.5025   20.2517 N   0  0  0  0  0  0  0  0  0  0  0  0
  -25.1390  -12.8834   17.6336 N   0  0  0  0  0  0  0  0  0  0  0  0
  -21.6934  -11.1637   19.9930 N   0  0  0  0  0  0  0  0  0  0  0  0
  -29.4083  -15.7060   21.0416 N   0  0  0  0  0  0  0  0  0  0  0  0
  -24.5940  -30.6007   22.9184 N   0  0  0  0  0  0  0  0  0  0  0  0
  -19.3309  -26.9596   20.5724 N   0  0  0  0  0  0  0  0  0  0  0  0
  -18.6258  -26.1605   17.1181 N   0  3  0  0  0  0  0  0  0  0  0  0
  -22.2876  -12.1262   17.9981 O   0  0  0  0  0  0  0  0  0  0  0  0
  -23.7602  -28.4648   23.3248 O   0  0  0  0  0  0  0  0  0  0  0  0
  -29.2134  -23.4833   18.8619 O   0  0  0  0  0  0  0  0  0  0  0  0
  -20.4010  -29.2978   21.8358 O   0  0  0  0  0  0  0  0  0  0  0  0
  -20.2945  -25.3347   19.2276 O   0  0  0  0  0  0  0  0  0  0  0  0
  -31.4313  -15.0263   20.1321 O   0  0  0  0  0  0  0  0  0  0  0  0
  -21.9646   -9.0107   25.1239 O   0  0  0  0  0  0  0  0  0  0  0  0
  -27.0797  -25.1129   18.7150 O   0  0  0  0  0  0  0  0  0  1  0  0
  -29.4825  -21.2380   20.3051 O   0  0  0  0  0  0  0  0  0  0  0  0
  -18.4097   -4.9380   24.0375 F   0  0  0  0  0  0  0  0  0  0  0  0
  -22.3471   -6.4787   26.1656 F   0  0  0  0  0  0  0  0  0  0  0  0
  1  2  1  0  0  0  0
  1  5  2  0  0  0  0
  2  6  2  0  0  0  0
  3  8  2  0  0  0  0
  3 17  1  0  0  0  0
  4  9  1  0  0  0  0
  4 17  2  0  0  0  0
  5 19  1  0  0  0  0
  6 21  1  0  0  0  0
  7 10  2  0  0  0  0
  7 20  1  0  0  0  0
  8 26  1  0  0  0  0
  9 26  2  0  0  0  0
 10 27  1  0  0  0  0
 11 12  2  0  0  0  0
 11 28  1  0  0  0  0
 12 30  1  0  0  0  0
 13 22  1  0  0  0  0
 13 27  2  0  0  0  0
 14 23  2  0  0  0  0
 14 25  1  0  0  0  0
 15 24  1  0  0  0  0
 15 29  2  0  0  0  0
 16 30  2  0  0  0  0
 16 31  1  0  0  0  0
 17 32  1  0  0  0  0
 18 32  1  0  0  0  0
 18 33  2  0  0  0  0
 18 34  1  0  0  0  0
 19 21  2  0  0  0  0
 19 40  1  0  0  0  0
 20 22  2  0  0  0  0
 20 41  1  0  0  0  0
 21 49  1  0  0  0  0
 22 42  1  0  0  0  0
 23 29  1  0  0  0  0
 23 52  1  0  0  0  0
 24 25  2  0  0  0  0
 24 59  1  0  0  0  0
 25 72  1  0  0  0  0
 26 82  1  0  0  0  0
 27 83  1  0  0  0  0
 28 31  2  0  0  0  0
 28 82  1  0  0  0  0
 29 84  1  0  0  0  0
 30 85  1  0  0  0  0
 31 86  1  0  0  0  0
 32 66  2  0  0  0  0
 33 67  1  0  0  0  0
 33 70  1  0  0  0  0
 34 71  1  0  0  0  0
 34 76  2  0  0  0  0
 35 50  1  0  0  0  0
 35 73  1  0  0  0  0
 35 77  2  0  0  0  0
 36 60  1  0  0  0  0
 36 61  1  0  0  0  0
 36 78  2  0  0  0  0
 37 63  1  0  0  0  0
 37 68  1  0  0  0  0
 37 79  2  0  0  0  0
 38 64  1  0  0  0  0
 38 74  1  0  0  0  0
 38 80  2  0  0  0  0
 39 69  1  0  0  0  0
 39 72  1  0  0  0  0
 39 81  2  0  0  0  0
 40 43  1  0  0  0  0
 41 50  1  0  0  0  0
 42 68  1  0  0  0  0
 43 45  1  0  0  0  0
 44 46  1  0  0  0  0
 44 47  1  0  0  0  0
 45 49  1  0  0  0  0
 46 51  1  0  0  0  0
 47 69  1  0  0  0  0
 48 51  1  0  0  0  0
 48 69  1  0  0  0  0
 49 73  1  0  0  0  0
 50 68  1  0  0  0  0
 51 67  1  0  0  0  0
 53 62  1  0  0  0  0
 54 64  1  0  0  0  0
 55 65  1  0  0  0  0
 56 65  1  0  0  0  0
 57 65  1  0  0  0  0
 58 75  1  0  0  0  0
 59 62  1  0  0  0  0
 60 83  1  0  0  0  0
 61 84  1  0  0  0  0
 63 65  1  0  0  0  0
 63 74  1  0  0  0  0
 64 75  1  0  0  0  0
 66 67  1  0  0  0  0
M  CHG  1  75   1
M  ISO  4  39 100  60 101  72 100  83 101
M  END
> <Batch ID>
0130

> <Smiles>
CCCc1cc(OCC(=O)[101CH2:1][101O:1]c2ccc3c(c2)CN(C(=O)C(NC(=O)C(C)NC)C(C)(C)C)C(C(=O)NC2CCCc4ccccc42)C3)c(C)cc1[100NH:0][100C:0](=O)N1CCCC(n2nc(-c3ccc(Oc4ccc(F)cc4F)cc3)c(C(N)=O)c2N)C1

> <Shape>
0.329

> <Color>
0.101

> <Negative vol penalty>
0.000

$$$$

  -OEChem-04052302223D

 85 93  0     1  0  0  0  0  0999 V2000
  -26.2989  -18.7585   18.7098 C   0  0  0  0  0  0  0  0  0  0  0  0
  -25.4953  -19.7662   19.2335 C   0  0  0  0  0  0  0  0  0  0  0  0
  -17.6821  -30.5762   23.7688 C   0  0  0  0  0  0  0  0  0  0  0  0
  -24.0384  -15.0719   21.6965 C   0  0  0  0  0  0  0  0  0  0  0  0
  -26.0158  -16.4027   21.3017 C   0  0  0  0  0  0  0  0  0  0  0  0
  -27.6697  -18.7585   18.9644 C   0  0  0  0  0  0  0  0  0  0  0  0
  -26.0620  -20.7739   20.0131 C   0  0  0  0  0  0  0  0  0  0  0  0
  -24.3506  -26.6495   20.2472 C   0  0  0  0  0  0  0  0  0  0  0  0
  -17.0731  -29.8356   22.7558 C   0  0  0  0  0  0  0  0  0  0  0  0
  -18.7088  -30.0110   24.5251 C   0  0  0  0  0  0  0  0  0  0  0  0
  -24.5287  -14.0884   20.8374 C   0  0  0  0  0  0  0  0  0  0  0  0
  -26.5062  -15.4192   20.4426 C   0  0  0  0  0  0  0  0  0  0  0  0
  -23.5499  -27.3583   21.1418 C   0  0  0  0  0  0  0  0  0  0  0  0
  -28.4446  -13.0965   18.4263 C   0  0  0  0  0  0  0  0  0  0  0  0
  -29.7843  -12.7306   18.5558 C   0  0  0  0  0  0  0  0  0  0  0  0
  -25.5228  -28.0744   22.3309 C   0  0  0  0  0  0  0  0  0  0  0  0
  -29.3779  -12.0504   20.8382 C   0  0  0  0  0  0  0  0  0  0  0  0
  -24.7819  -16.2291   21.9286 C   0  0  0  0  0  0  0  0  0  0  0  0
  -23.9590  -17.1027   24.1796 C   0  0  0  0  0  0  0  0  0  0  0  0
  -28.2549  -19.7720   19.7395 C   0  0  0  0  0  0  0  0  0  0  0  0
  -25.7451  -26.6389   20.3945 C   0  0  0  0  0  0  0  0  0  0  0  0
  -27.4417  -20.7867   20.2795 C   0  0  0  0  0  0  0  0  0  0  0  0
  -26.3391  -27.3667   21.4353 C   0  0  0  0  0  0  0  0  0  0  0  0
  -17.4907  -28.5297   22.4991 C   0  0  0  0  0  0  0  0  0  0  0  0
  -19.1265  -28.7051   24.2685 C   0  0  0  0  0  0  0  0  0  0  0  0
  -18.5174  -27.9645   23.2555 C   0  0  0  0  0  0  0  0  0  0  0  0
  -25.7626  -14.2621   20.2105 C   0  0  0  0  0  0  0  0  0  0  0  0
  -24.1358  -28.0685   22.1855 C   0  0  0  0  0  0  0  0  0  0  0  0
  -27.5715  -12.9395   19.5028 C   0  0  0  0  0  0  0  0  0  0  0  0
  -30.2510  -12.2075   19.7617 C   0  0  0  0  0  0  0  0  0  0  0  0
  -28.0382  -12.4164   20.7087 C   0  0  0  0  0  0  0  0  0  0  0  0
  -24.2757  -17.2456   22.8154 C   0  0  0  0  0  0  0  0  0  0  0  0
  -23.5223  -18.3472   24.5630 C   0  0  0  0  0  0  0  0  0  0  0  0
  -20.7889  -24.1627   21.2219 C   0  0  0  0  0  0  0  0  0  0  0  0
  -19.7890  -24.6860   21.9389 C   0  0  0  0  0  0  0  0  0  0  0  0
  -24.0514  -15.9482   25.0248 C   0  0  0  0  0  0  0  0  0  0  0  0
  -21.0821  -22.7238   21.3781 C   0  0  0  0  0  0  0  0  0  0  0  0
  -19.4625  -26.1379   21.8091 C   0  0  0  0  0  0  0  0  0  0  0  0
  -27.9267  -24.3908   20.9335 C   0  0  0  0  0  0  0  0  0  0  0  0
  -30.0009  -26.8403   20.4645 C   0  0  0  0  0  0  0  0  0  0  0  0
  -30.5666  -30.2057   20.5040 C   0  0  0  0  0  0  0  0  0  0  0  0
  -29.7339  -19.7036   20.0269 C   0  0  0  0  0  0  0  0  0  0  0  0
  -26.5965  -25.8912   19.4053 C   0  0  0  0  0  0  0  0  0  0  0  0
  -27.8328  -27.4040   21.6251 C   0  0  0  0  0  0  0  0  0  0  0  0
  -30.3138  -21.0148   20.5511 C   0  0  0  0  0  0  0  0  0  0  0  0
  -24.0257  -22.9805   23.5463 C   0  0  0  0  0  0  0  0  0  0  0  0
  -29.4234  -21.5921   21.6469 C   0  0  0  0  0  0  0  0  0  0  0  0
  -24.4170  -21.5118   23.6853 C   0  0  0  0  0  0  0  0  0  0  0  0
  -23.4428  -23.2889   22.1680 C   0  0  0  0  0  0  0  0  0  0  0  0
  -22.6889  -20.9400   21.9341 C   0  0  0  0  0  0  0  0  0  0  0  0
  -28.0231  -21.9108   21.1092 C   0  0  1  0  0  0  0  0  0  0  0  0
  -27.9731  -25.5299   19.9546 C   0  0  1  0  0  0  0  0  0  0  0  0
  -23.2342  -20.5973   23.3293 C   0  0  1  0  0  0  0  0  0  0  0  0
  -16.8188  -27.7615   21.4073 C   0  0  0  0  0  0  0  0  0  0  0  0
  -32.3709  -31.9047   20.1103 C   0  0  0  0  0  0  0  0  0  0  0  0
  -31.2544  -26.1288   23.1538 C   0  0  0  0  0  0  0  0  0  0  0  0
  -32.3702  -28.3700   23.1481 C   0  0  0  0  0  0  0  0  0  0  0  0
  -32.8959  -26.7124   21.3596 C   0  0  0  0  0  0  0  0  0  0  0  0
  -29.0468  -31.4816   18.3082 C   0  0  0  0  0  0  0  0  0  0  0  0
  -20.2390  -28.1227   25.1031 C   0  0  0  0  0  0  0  0  0  0  0  0
  -21.6291  -28.6356   24.7208 C   0  0  0  0  0  0  0  0  0  0  0  0
  -22.0459  -28.2523   23.3056 C   0  0  0  0  0  0  0  0  0  1  0  0
  -30.6510  -27.8753   21.3506 C   0  0  1  0  0  0  0  0  0  0  0  0
  -31.2184  -31.1295   19.4910 C   0  0  2  0  0  0  0  0  0  0  0  0
  -31.7646  -27.2696   22.2509 C   0  0  0  0  0  0  0  0  0  0  0  0
  -24.0585  -18.4832   22.3626 N   0  0  0  0  0  0  0  0  0  0  0  0
  -23.6006  -19.1293   23.4484 N   0  0  0  0  0  0  0  0  0  0  0  0
  -22.3520  -22.3639   21.8257 N   0  0  0  0  0  0  0  0  0  0  0  0
  -28.6222  -26.6520   20.6357 N   0  0  0  0  0  0  0  0  0  0  0  0
  -23.0828  -18.8378   25.7413 N   0  0  0  0  0  0  0  0  0  0  0  0
  -25.2478  -15.7224   25.7191 N   0  0  0  0  0  0  0  0  0  0  0  0
  -18.9362  -26.6544   22.9984 N   0  0  0  0  0  0  0  0  0  0  0  0
  -28.0414  -23.1432   20.3507 N   0  0  0  0  0  0  0  0  0  0  0  0
  -31.1114  -28.9396   20.4653 N   0  0  0  0  0  0  0  0  0  0  0  0
  -30.2234  -32.1066   18.9656 N   0  3  0  0  0  0  0  0  0  0  0  0
  -23.1069  -15.1318   25.1475 O   0  0  0  0  0  0  0  0  0  0  0  0
  -20.1847  -21.9270   21.0978 O   0  0  0  0  0  0  0  0  0  0  0  0
  -19.6568  -26.7421   20.7609 O   0  0  0  0  0  0  0  0  0  0  0  0
  -27.7980  -24.6266   22.1291 O   0  0  0  0  0  0  0  0  0  0  0  0
  -30.6898  -26.2269   19.6455 O   0  0  0  0  0  0  0  0  0  0  0  0
  -29.6668  -30.5717   21.2570 O   0  0  0  0  0  0  0  0  0  0  0  0
  -26.2415  -13.3025   19.3724 O   0  0  0  0  0  0  0  0  0  0  0  0
  -23.3566  -28.7607   23.0605 O   0  0  0  0  0  0  0  0  0  1  0  0
  -31.5372  -11.8547   19.8854 F   0  0  0  0  0  0  0  0  0  0  0  0
  -27.2039  -12.2621   21.7460 F   0  0  0  0  0  0  0  0  0  0  0  0
  1  2  1  0  0  0  0
  1  6  2  0  0  0  0
  2  7  2  0  0  0  0
  3  9  1  0  0  0  0
  3 10  2  0  0  0  0
  4 11  2  0  0  0  0
  4 18  1  0  0  0  0
  5 12  1  0  0  0  0
  5 18  2  0  0  0  0
  6 20  1  0  0  0  0
  7 22  1  0  0  0  0
  8 13  2  0  0  0  0
  8 21  1  0  0  0  0
  9 24  2  0  0  0  0
 10 25  1  0  0  0  0
 11 27  1  0  0  0  0
 12 27  2  0  0  0  0
 13 28  1  0  0  0  0
 14 15  2  0  0  0  0
 14 29  1  0  0  0  0
 15 30  1  0  0  0  0
 16 23  1  0  0  0  0
 16 28  2  0  0  0  0
 17 30  2  0  0  0  0
 17 31  1  0  0  0  0
 18 32  1  0  0  0  0
 19 32  1  0  0  0  0
 19 33  2  0  0  0  0
 19 36  1  0  0  0  0
 20 22  2  0  0  0  0
 20 42  1  0  0  0  0
 21 23  2  0  0  0  0
 21 43  1  0  0  0  0
 22 51  1  0  0  0  0
 23 44  1  0  0  0  0
 24 26  1  0  0  0  0
 24 54  1  0  0  0  0
 25 26  2  0  0  0  0
 25 60  1  0  0  0  0
 26 72  1  0  0  0  0
 27 82  1  0  0  0  0
 28 83  1  0  0  0  0
 29 31  2  0  0  0  0
 29 82  1  0  0  0  0
 30 84  1  0  0  0  0
 31 85  1  0  0  0  0
 32 66  2  0  0  0  0
 33 67  1  0  0  0  0
 33 70  1  0  0  0  0
 34 35  2  0  0  0  0
 34 37  1  0  0  0  0
 35 38  1  0  0  0  0
 36 71  1  0  0  0  0
 36 76  2  0  0  0  0
 37 68  1  0  0  0  0
 37 77  2  0  0  0  0
 38 72  1  0  0  0  0
 38 78  2  0  0  0  0
 39 52  1  0  0  0  0
 39 73  1  0  0  0  0
 39 79  2  0  0  0  0
 40 63  1  0  0  0  0
 40 69  1  0  0  0  0
 40 80  2  0  0  0  0
 41 64  1  0  0  0  0
 41 74  1  0  0  0  0
 41 81  2  0  0  0  0
 42 45  1  0  0  0  0
 43 52  1  0  0  0  0
 44 69  1  0  0  0  0
 45 47  1  0  0  0  0
 46 48  1  0  0  0  0
 46 49  1  0  0  0  0
 47 51  1  0  0  0  0
 48 53  1  0  0  0  0
 49 68  1  0  0  0  0
 50 53  1  0  0  0  0
 50 68  1  0  0  0  0
 51 73  1  0  0  0  0
 52 69  1  0  0  0  0
 53 67  1  0  0  0  0
 55 64  1  0  0  0  0
 56 65  1  0  0  0  0
 57 65  1  0  0  0  0
 58 65  1  0  0  0  0
 59 75  1  0  0  0  0
 60 61  1  0  0  0  0
 61 62  1  0  0  0  0
 62 83  1  0  0  0  0
 63 65  1  0  0  0  0
 63 74  1  0  0  0  0
 64 75  1  0  0  0  0
 66 67  1  0  0  0  0
M  CHG  1  75   1
M  ISO  4  34 100  37 100  62 101  83 101
M  END
> <Batch ID>
0130

> <Smiles>
CNC(C)C(=O)NC(C(=O)N1Cc2cc([101O:1][101CH2:1]CCc3cccc(C)c3NC(=O)C=[100CH:0][100C:0](=O)N3CCCC(n4nc(-c5ccc(Oc6ccc(F)cc6F)cc5)c(C(N)=O)c4N)C3)ccc2CC1C(=O)NC1CCCc2ccccc21)C(C)(C)C

> <Shape>
0.234

> <Color>
0.064

> <Negative vol penalty>
0.000

$$$$

  -OEChem-04052302223D

 84 92  0     1  0  0  0  0  0999 V2000
  -28.3437  -36.3557   22.8231 C   0  0  0  0  0  0  0  0  0  0  0  0
  -28.6168  -34.9953   22.7229 C   0  0  0  0  0  0  0  0  0  0  0  0
  -24.0476   -9.7938   22.2611 C   0  0  0  0  0  0  0  0  0  0  0  0
  -24.6320  -11.4297   23.9403 C   0  0  0  0  0  0  0  0  0  0  0  0
  -30.7039  -20.1463   19.0051 C   0  0  0  0  0  0  0  0  0  0  0  0
  -27.0902  -36.7837   23.2582 C   0  0  0  0  0  0  0  0  0  0  0  0
  -27.6368  -34.0620   23.0589 C   0  0  0  0  0  0  0  0  0  0  0  0
  -27.2925  -30.3050   19.6808 C   0  0  0  0  0  0  0  0  0  0  0  0
  -30.4426  -18.7787   18.9216 C   0  0  0  0  0  0  0  0  0  0  0  0
  -23.6689   -8.9005   23.2632 C   0  0  0  0  0  0  0  0  0  0  0  0
  -24.2533  -10.5363   24.9424 C   0  0  0  0  0  0  0  0  0  0  0  0
  -28.2588  -29.3020   19.7433 C   0  0  0  0  0  0  0  0  0  0  0  0
  -21.0123   -8.4213   25.2993 C   0  0  0  0  0  0  0  0  0  0  0  0
  -19.8105   -7.7330   25.1338 C   0  0  0  0  0  0  0  0  0  0  0  0
  -28.3414  -20.5821   19.2613 C   0  0  0  0  0  0  0  0  0  0  0  0
  -26.7037  -27.8857   20.9246 C   0  0  0  0  0  0  0  0  0  0  0  0
  -21.0035   -5.6332   25.2034 C   0  0  0  0  0  0  0  0  0  0  0  0
  -24.5292  -11.0584   22.5997 C   0  0  0  0  0  0  0  0  0  0  0  0
  -29.6533  -21.0480   19.1750 C   0  0  0  0  0  0  0  0  0  0  0  0
  -24.1071  -12.9329   20.9217 C   0  0  0  0  0  0  0  0  0  0  0  0
  -26.0911  -35.8552   23.5904 C   0  0  0  0  0  0  0  0  0  0  0  0
  -26.0260  -30.1096   20.2502 C   0  0  0  0  0  0  0  0  0  0  0  0
  -26.3691  -34.4779   23.5001 C   0  0  0  0  0  0  0  0  0  0  0  0
  -25.7222  -28.8869   20.8657 C   0  0  0  0  0  0  0  0  0  0  0  0
  -28.0800  -19.2145   19.1777 C   0  0  0  0  0  0  0  0  0  0  0  0
  -29.1306  -18.3128   19.0079 C   0  0  0  0  0  0  0  0  0  0  0  0
  -23.7717   -9.2717   24.6038 C   0  0  0  0  0  0  0  0  0  0  0  0
  -27.9655  -28.0932   20.3678 C   0  0  0  0  0  0  0  0  0  0  0  0
  -22.2098   -7.7156   25.4168 C   0  0  0  0  0  0  0  0  0  0  0  0
  -19.8060   -6.3389   25.0859 C   0  0  0  0  0  0  0  0  0  0  0  0
  -22.2053   -6.3216   25.3689 C   0  0  0  0  0  0  0  0  0  0  0  0
  -24.9211  -11.9815   21.5650 C   0  0  0  0  0  0  0  0  0  0  0  0
  -24.9450  -13.5530   20.0272 C   0  0  0  0  0  0  0  0  0  0  0  0
  -29.9301  -22.4927   19.2632 C   0  0  0  0  0  0  0  0  0  0  0  0
  -29.0946  -23.3967   19.7933 C   0  0  0  0  0  0  0  0  0  0  0  0
  -22.7179  -13.2298   21.1153 C   0  0  0  0  0  0  0  0  0  0  0  0
  -29.4660  -24.8412   19.8258 C   0  0  0  0  0  0  0  0  0  0  0  0
  -24.3716  -31.5102   22.5752 C   0  0  0  0  0  0  0  0  0  0  0  0
  -22.0162  -29.5210   21.5666 C   0  0  0  0  0  0  0  0  0  0  0  0
  -21.1503  -26.6260   19.9804 C   0  0  0  0  0  0  0  0  0  0  0  0
  -29.8280  -15.9055   18.7525 C   0  0  0  0  0  0  0  0  0  0  0  0
  -24.7668  -36.3654   24.1011 C   0  0  0  0  0  0  0  0  0  0  0  0
  -24.9857  -31.1915   20.1509 C   0  0  0  0  0  0  0  0  0  0  0  0
  -24.3708  -28.6197   21.4746 C   0  0  0  0  0  0  0  0  0  0  0  0
  -23.6600  -35.3143   24.0798 C   0  0  0  0  0  0  0  0  0  0  0  0
  -29.6299  -12.3576   18.5289 C   0  0  0  0  0  0  0  0  0  0  0  0
  -24.1633  -33.9972   24.6617 C   0  0  0  0  0  0  0  0  0  0  0  0
  -28.3202  -12.0217   19.2460 C   0  0  0  0  0  0  0  0  0  0  0  0
  -30.3611  -13.5198   19.1985 C   0  0  0  0  0  0  0  0  0  0  0  0
  -28.2458  -14.3965   20.1072 C   0  0  0  0  0  0  0  0  0  0  0  0
  -25.3238  -33.4351   23.8317 C   0  0  1  0  0  0  0  0  0  0  0  0
  -23.8999  -31.0761   21.2163 C   0  0  1  0  0  0  0  0  0  0  0  0
  -27.4415  -13.2745   19.4306 C   0  0  2  0  0  0  0  0  0  0  0  0
  -26.0879  -18.3682   17.9121 C   0  0  0  0  0  0  0  0  0  0  0  0
  -19.1501  -25.2502   19.3451 C   0  0  0  0  0  0  0  0  0  0  0  0
  -21.7627  -28.5615   24.4519 C   0  0  0  0  0  0  0  0  0  0  0  0
  -20.4792  -26.5844   23.6083 C   0  0  0  0  0  0  0  0  0  0  0  0
  -19.5852  -28.8879   23.2660 C   0  0  0  0  0  0  0  0  0  0  0  0
  -21.7538  -26.8709   17.0934 C   0  0  0  0  0  0  0  0  0  0  0  0
  -26.6652  -18.7432   19.2733 C   0  0  0  0  0  0  0  0  0  0  0  0
  -28.4405  -25.7643   20.4493 C   0  0  0  0  0  0  0  0  0  1  0  0
  -21.5790  -28.1187   21.9150 C   0  0  1  0  0  0  0  0  0  0  0  0
  -20.1191  -26.3364   18.9047 C   0  0  2  0  0  0  0  0  0  0  0  0
  -20.8777  -28.0436   23.3006 C   0  0  0  0  0  0  0  0  0  0  0  0
  -26.1795  -11.9923   21.1172 N   0  0  0  0  0  0  0  0  0  0  0  0
  -26.1624  -12.9581   20.1829 N   0  0  0  0  0  0  0  0  0  0  0  0
  -23.3895  -29.7109   21.3574 N   0  0  0  0  0  0  0  0  0  0  0  0
  -29.4681  -14.6724   19.3361 N   0  0  0  0  0  0  0  0  0  0  0  0
  -24.7518  -14.5435   19.1306 N   0  0  0  0  0  0  0  0  0  0  0  0
  -22.0057  -12.4978   22.0752 N   0  0  0  0  0  0  0  0  0  0  0  0
  -28.8859  -16.9198   18.9209 N   0  0  0  0  0  0  0  0  0  0  0  0
  -24.8263  -32.8142   22.6228 N   0  0  0  0  0  0  0  0  0  0  0  0
  -20.7544  -27.6599   20.8023 N   0  0  0  0  0  0  0  0  0  0  0  0
  -20.7897  -25.8881   17.6516 N   0  3  0  0  0  0  0  0  0  0  0  0
  -22.1216  -14.1067   20.4452 O   0  0  0  0  0  0  0  0  0  0  0  0
  -30.5330  -25.2507   19.3764 O   0  0  0  0  0  0  0  0  0  0  0  0
  -24.3251  -30.7210   23.5115 O   0  0  0  0  0  0  0  0  0  0  0  0
  -21.1695  -30.4135   21.4762 O   0  0  0  0  0  0  0  0  0  0  0  0
  -22.2002  -25.9955   20.0837 O   0  0  0  0  0  0  0  0  0  0  0  0
  -30.8809  -16.0436   18.1245 O   0  0  0  0  0  0  0  0  0  0  0  0
  -23.4020   -8.4004   25.5818 O   0  0  0  0  0  0  0  0  0  0  0  0
  -28.9071  -27.1128   20.4308 O   0  0  0  0  0  0  0  0  0  1  0  0
  -18.6516   -5.6780   24.9285 F   0  0  0  0  0  0  0  0  0  0  0  0
  -23.3524   -5.6381   25.4824 F   0  0  0  0  0  0  0  0  0  0  0  0
  1  2  1  0  0  0  0
  1  6  2  0  0  0  0
  2  7  2  0  0  0  0
  3 10  2  0  0  0  0
  3 18  1  0  0  0  0
  4 11  1  0  0  0  0
  4 18  2  0  0  0  0
  5  9  2  0  0  0  0
  5 19  1  0  0  0  0
  6 21  1  0  0  0  0
  7 23  1  0  0  0  0
  8 12  2  0  0  0  0
  8 22  1  0  0  0  0
  9 26  1  0  0  0  0
 10 27  1  0  0  0  0
 11 27  2  0  0  0  0
 12 28  1  0  0  0  0
 13 14  2  0  0  0  0
 13 29  1  0  0  0  0
 14 30  1  0  0  0  0
 15 19  2  0  0  0  0
 15 25  1  0  0  0  0
 16 24  1  0  0  0  0
 16 28  2  0  0  0  0
 17 30  2  0  0  0  0
 17 31  1  0  0  0  0
 18 32  1  0  0  0  0
 19 34  1  0  0  0  0
 20 32  1  0  0  0  0
 20 33  2  0  0  0  0
 20 36  1  0  0  0  0
 21 23  2  0  0  0  0
 21 42  1  0  0  0  0
 22 24  2  0  0  0  0
 22 43  1  0  0  0  0
 23 51  1  0  0  0  0
 24 44  1  0  0  0  0
 25 26  2  0  0  0  0
 25 60  1  0  0  0  0
 26 71  1  0  0  0  0
 27 81  1  0  0  0  0
 28 82  1  0  0  0  0
 29 31  2  0  0  0  0
 29 81  1  0  0  0  0
 30 83  1  0  0  0  0
 31 84  1  0  0  0  0
 32 65  2  0  0  0  0
 33 66  1  0  0  0  0
 33 69  1  0  0  0  0
 34 35  2  0  0  0  0
 35 37  1  0  0  0  0
 36 70  1  0  0  0  0
 36 75  2  0  0  0  0
 37 61  1  0  0  0  0
 37 76  2  0  0  0  0
 38 52  1  0  0  0  0
 38 72  1  0  0  0  0
 38 77  2  0  0  0  0
 39 62  1  0  0  0  0
 39 67  1  0  0  0  0
 39 78  2  0  0  0  0
 40 63  1  0  0  0  0
 40 73  1  0  0  0  0
 40 79  2  0  0  0  0
 41 68  1  0  0  0  0
 41 71  1  0  0  0  0
 41 80  2  0  0  0  0
 42 45  1  0  0  0  0
 43 52  1  0  0  0  0
 44 67  1  0  0  0  0
 45 47  1  0  0  0  0
 46 48  1  0  0  0  0
 46 49  1  0  0  0  0
 47 51  1  0  0  0  0
 48 53  1  0  0  0  0
 49 68  1  0  0  0  0
 50 53  1  0  0  0  0
 50 68  1  0  0  0  0
 51 72  1  0  0  0  0
 52 67  1  0  0  0  0
 53 66  1  0  0  0  0
 54 60  1  0  0  0  0
 55 63  1  0  0  0  0
 56 64  1  0  0  0  0
 57 64  1  0  0  0  0
 58 64  1  0  0  0  0
 59 74  1  0  0  0  0
 61 82  1  0  0  0  0
 62 64  1  0  0  0  0
 62 73  1  0  0  0  0
 63 74  1  0  0  0  0
 65 66  1  0  0  0  0
M  CHG  1  74   1
M  ISO  4  41 100  61 101  71 100  82 101
M  END
> <Batch ID>
0130

> <Smiles>
CCc1cc(C=CC(=O)[101CH2:1][101O:1]c2ccc3c(c2)CN(C(=O)C(NC(=O)C(C)NC)C(C)(C)C)C(C(=O)NC2CCCc4ccccc42)C3)ccc1[100NH:0][100C:0](=O)N1CCCC(n2nc(-c3ccc(Oc4ccc(F)cc4F)cc3)c(C(N)=O)c2N)C1

> <Shape>
0.348

> <Color>
0.138

> <Negative vol penalty>
0.000

$$$$

  -OEChem-04052302223D

 84 92  0     1  0  0  0  0  0999 V2000
  -18.1164  -26.9672   23.6444 C   0  0  0  0  0  0  0  0  0  0  0  0
  -19.4372  -27.0066   24.0794 C   0  0  0  0  0  0  0  0  0  0  0  0
  -26.7344  -12.5769   21.8917 C   0  0  0  0  0  0  0  0  0  0  0  0
  -25.9239  -14.3113   20.4180 C   0  0  0  0  0  0  0  0  0  0  0  0
  -17.8344  -26.9093   22.2802 C   0  0  0  0  0  0  0  0  0  0  0  0
  -20.4769  -26.9872   23.1504 C   0  0  0  0  0  0  0  0  0  0  0  0
  -25.8622  -29.8700   23.5911 C   0  0  0  0  0  0  0  0  0  0  0  0
  -25.4536  -12.0277   21.9499 C   0  0  0  0  0  0  0  0  0  0  0  0
  -24.6430  -13.7621   20.4761 C   0  0  0  0  0  0  0  0  0  0  0  0
  -27.1278  -29.4382   23.9854 C   0  0  0  0  0  0  0  0  0  0  0  0
  -23.4873  -10.0813   20.0061 C   0  0  0  0  0  0  0  0  0  0  0  0
  -23.3684   -8.6980   19.8727 C   0  0  0  0  0  0  0  0  0  0  0  0
  -27.7172  -29.0751   21.6746 C   0  0  0  0  0  0  0  0  0  0  0  0
  -29.5058  -22.6835   23.0378 C   0  0  0  0  0  0  0  0  0  0  0  0
  -28.2362  -24.1905   21.6399 C   0  0  0  0  0  0  0  0  0  0  0  0
  -28.6991  -21.9429   20.8842 C   0  0  0  0  0  0  0  0  0  0  0  0
  -22.3549   -8.5738   22.0623 C   0  0  0  0  0  0  0  0  0  0  0  0
  -26.9696  -13.7188   21.1258 C   0  0  0  0  0  0  0  0  0  0  0  0
  -29.3092  -13.9779   20.1425 C   0  0  0  0  0  0  0  0  0  0  0  0
  -18.8710  -26.8989   21.3336 C   0  0  0  0  0  0  0  0  0  0  0  0
  -25.5103  -29.8974   22.2340 C   0  0  0  0  0  0  0  0  0  0  0  0
  -20.2086  -26.9278   21.7723 C   0  0  0  0  0  0  0  0  0  0  0  0
  -26.4474  -29.5102   21.2655 C   0  0  0  0  0  0  0  0  0  0  0  0
  -28.9284  -23.9350   22.8237 C   0  0  0  0  0  0  0  0  0  0  0  0
  -29.3912  -21.6874   22.0680 C   0  0  0  0  0  0  0  0  0  0  0  0
  -24.4079  -12.6203   21.2420 C   0  0  0  0  0  0  0  0  0  0  0  0
  -28.0546  -29.0379   23.0273 C   0  0  0  0  0  0  0  0  0  0  0  0
  -23.0400  -10.7109   21.1677 C   0  0  0  0  0  0  0  0  0  0  0  0
  -22.8022   -7.9442   20.9007 C   0  0  0  0  0  0  0  0  0  0  0  0
  -28.1216  -23.1944   20.6701 C   0  0  0  0  0  0  0  0  0  0  0  0
  -22.4738   -9.9572   22.1958 C   0  0  0  0  0  0  0  0  0  0  0  0
  -28.2924  -14.2869   21.0657 C   0  0  0  0  0  0  0  0  0  0  0  0
  -30.3611  -14.7816   20.5084 C   0  0  0  0  0  0  0  0  0  0  0  0
  -29.3033  -13.0475   19.0515 C   0  0  0  0  0  0  0  0  0  0  0  0
  -23.3102  -28.4458   20.4574 C   0  0  0  0  0  0  0  0  0  0  0  0
  -24.4337  -30.4234   18.1447 C   0  0  0  0  0  0  0  0  0  0  0  0
  -27.0072  -32.3239   16.9565 C   0  0  0  0  0  0  0  0  0  0  0  0
  -30.6983  -19.9980   23.4035 C   0  0  0  0  0  0  0  0  0  0  0  0
  -18.5179  -26.7880   19.8715 C   0  0  0  0  0  0  0  0  0  0  0  0
  -24.1502  -30.3912   21.8233 C   0  0  0  0  0  0  0  0  0  0  0  0
  -26.1260  -29.5402   19.7943 C   0  0  0  0  0  0  0  0  0  0  0  0
  -19.6700  -27.1492   18.9375 C   0  0  0  0  0  0  0  0  0  0  0  0
  -32.2699  -16.9413   24.3329 C   0  0  0  0  0  0  0  0  0  0  0  0
  -20.9578  -26.4684   19.3904 C   0  0  0  0  0  0  0  0  0  0  0  0
  -31.5249  -15.8863   23.5120 C   0  0  0  0  0  0  0  0  0  0  0  0
  -31.3360  -18.0517   24.8108 C   0  0  0  0  0  0  0  0  0  0  0  0
  -29.7952  -17.6359   22.9340 C   0  0  0  0  0  0  0  0  0  0  0  0
  -21.3634  -26.9333   20.7943 C   0  0  1  0  0  0  0  0  0  0  0  0
  -23.7231  -29.8904   20.4470 C   0  0  1  0  0  0  0  0  0  0  0  0
  -30.7066  -16.5307   22.3759 C   0  0  2  0  0  0  0  0  0  0  0  0
  -27.6424  -33.7926   15.0234 C   0  0  0  0  0  0  0  0  0  0  0  0
  -24.8419  -27.9512   16.4037 C   0  0  0  0  0  0  0  0  0  0  0  0
  -26.3182  -29.3252   14.9202 C   0  0  0  0  0  0  0  0  0  0  0  0
  -23.9154  -29.9358   15.1965 C   0  0  0  0  0  0  0  0  0  0  0  0
  -31.8842  -27.7132   24.4145 C   0  0  0  0  0  0  0  0  0  0  0  0
  -30.6398  -26.3735   26.1304 C   0  0  0  0  0  0  0  0  0  0  0  0
  -27.3850  -34.6737   18.7158 C   0  0  0  0  0  0  0  0  0  0  0  0
  -29.0516  -25.0133   23.8732 C   0  0  0  0  0  0  0  0  0  0  0  0
  -30.3078  -25.8675   23.6522 C   0  0  0  0  0  0  0  0  0  0  0  0
  -29.3955  -27.9855   24.6857 C   0  0  0  0  0  0  0  0  0  1  0  0
  -25.5243  -30.3406   17.1042 C   0  0  1  0  0  0  0  0  0  0  0  0
  -27.0474  -33.7442   16.4221 C   0  0  2  0  0  0  0  0  0  0  0  0
  -25.1556  -29.3857   15.9339 C   0  0  0  0  0  0  0  0  0  0  0  0
  -30.5673  -26.9734   24.7149 C   0  0  0  0  0  0  0  0  0  0  0  0
  -28.6648  -15.2145   21.9517 N   0  0  0  0  0  0  0  0  0  0  0  0
  -29.9274  -15.4951   21.5869 N   0  0  0  0  0  0  0  0  0  0  0  0
  -24.7809  -30.0249   19.4433 N   0  0  0  0  0  0  0  0  0  0  0  0
  -30.5972  -18.6181   23.6802 N   0  0  0  0  0  0  0  0  0  0  0  0
  -31.6055  -14.9405   20.0098 N   0  0  0  0  0  0  0  0  0  0  0  0
  -28.1402  -12.3022   18.8153 N   0  0  0  0  0  0  0  0  0  0  0  0
  -29.9779  -20.4160   22.2851 N   0  0  0  0  0  0  0  0  0  0  0  0
  -21.9717  -28.2452   20.7361 N   0  0  0  0  0  0  0  0  0  0  0  0
  -25.8000  -31.7126   16.6917 N   0  0  0  0  0  0  0  0  0  0  0  0
  -27.8705  -34.6099   17.3132 N   0  3  0  0  0  0  0  0  0  0  0  0
  -30.3056  -12.8702   18.3184 O   0  0  0  0  0  0  0  0  0  0  0  0
  -24.1439  -27.5774   20.2281 O   0  0  0  0  0  0  0  0  0  0  0  0
  -23.3169  -30.8337   17.8188 O   0  0  0  0  0  0  0  0  0  0  0  0
  -27.9536  -31.8072   17.5464 O   0  0  0  0  0  0  0  0  0  0  0  0
  -31.3960  -20.7482   24.0907 O   0  0  0  0  0  0  0  0  0  0  0  0
  -23.1580  -12.0845   21.2984 O   0  0  0  0  0  0  0  0  0  0  0  0
  -29.2904  -28.6153   23.4095 O   0  0  0  0  0  0  0  0  0  1  0  0
  -22.6867   -6.6160   20.7718 F   0  0  0  0  0  0  0  0  0  0  0  0
  -27.4569  -23.4398   19.5334 F   0  0  0  0  0  0  0  0  0  0  0  0
  -22.0412  -10.5566   23.3135 F   0  0  0  0  0  0  0  0  0  0  0  0
  1  2  1  0  0  0  0
  1  5  2  0  0  0  0
  2  6  2  0  0  0  0
  3  8  2  0  0  0  0
  3 18  1  0  0  0  0
  4  9  1  0  0  0  0
  4 18  2  0  0  0  0
  5 20  1  0  0  0  0
  6 22  1  0  0  0  0
  7 10  2  0  0  0  0
  7 21  1  0  0  0  0
  8 26  1  0  0  0  0
  9 26  2  0  0  0  0
 10 27  1  0  0  0  0
 11 12  2  0  0  0  0
 11 28  1  0  0  0  0
 12 29  1  0  0  0  0
 13 23  1  0  0  0  0
 13 27  2  0  0  0  0
 14 24  2  0  0  0  0
 14 25  1  0  0  0  0
 15 24  1  0  0  0  0
 15 30  2  0  0  0  0
 16 25  2  0  0  0  0
 16 30  1  0  0  0  0
 17 29  2  0  0  0  0
 17 31  1  0  0  0  0
 18 32  1  0  0  0  0
 19 32  1  0  0  0  0
 19 33  2  0  0  0  0
 19 34  1  0  0  0  0
 20 22  2  0  0  0  0
 20 39  1  0  0  0  0
 21 23  2  0  0  0  0
 21 40  1  0  0  0  0
 22 48  1  0  0  0  0
 23 41  1  0  0  0  0
 24 58  1  0  0  0  0
 25 71  1  0  0  0  0
 26 80  1  0  0  0  0
 27 81  1  0  0  0  0
 28 31  2  0  0  0  0
 28 80  1  0  0  0  0
 29 82  1  0  0  0  0
 30 83  1  0  0  0  0
 31 84  1  0  0  0  0
 32 65  2  0  0  0  0
 33 66  1  0  0  0  0
 33 69  1  0  0  0  0
 34 70  1  0  0  0  0
 34 75  2  0  0  0  0
 35 49  1  0  0  0  0
 35 72  1  0  0  0  0
 35 76  2  0  0  0  0
 36 61  1  0  0  0  0
 36 67  1  0  0  0  0
 36 77  2  0  0  0  0
 37 62  1  0  0  0  0
 37 73  1  0  0  0  0
 37 78  2  0  0  0  0
 38 68  1  0  0  0  0
 38 71  1  0  0  0  0
 38 79  2  0  0  0  0
 39 42  1  0  0  0  0
 40 49  1  0  0  0  0
 41 67  1  0  0  0  0
 42 44  1  0  0  0  0
 43 45  1  0  0  0  0
 43 46  1  0  0  0  0
 44 48  1  0  0  0  0
 45 50  1  0  0  0  0
 46 68  1  0  0  0  0
 47 50  1  0  0  0  0
 47 68  1  0  0  0  0
 48 72  1  0  0  0  0
 49 67  1  0  0  0  0
 50 66  1  0  0  0  0
 51 62  1  0  0  0  0
 52 63  1  0  0  0  0
 53 63  1  0  0  0  0
 54 63  1  0  0  0  0
 55 64  1  0  0  0  0
 56 64  1  0  0  0  0
 57 74  1  0  0  0  0
 58 59  1  0  0  0  0
 59 64  1  0  0  0  0
 60 64  1  0  0  0  0
 60 81  1  0  0  0  0
 61 63  1  0  0  0  0
 61 73  1  0  0  0  0
 62 74  1  0  0  0  0
 65 66  1  0  0  0  0
M  CHG  1  74   1
M  ISO  4  38 100  60 101  71 100  81 101
M  END
> <Batch ID>
0130

> <Smiles>
CNC(C)C(=O)NC(C(=O)N1Cc2cc([101O:1][101CH2:1]C(C)(C)CCc3cc(F)cc([100NH:0][100C:0](=O)N4CCCC(n5nc(-c6ccc(Oc7ccc(F)cc7F)cc6)c(C(N)=O)c5N)C4)c3)ccc2CC1C(=O)NC1CCCc2ccccc21)C(C)(C)C

> <Shape>
0.252

> <Color>
0.072

> <Negative vol penalty>
0.000

$$$$

  -OEChem-04052302223D

 85 93  0     1  0  0  0  0  0999 V2000
  -29.8622  -28.5799   26.5294 C   0  0  0  0  0  0  0  0  0  0  0  0
  -29.4037  -27.9767   25.3626 C   0  0  0  0  0  0  0  0  0  0  0  0
  -24.6185   -8.9699   21.3360 C   0  0  0  0  0  0  0  0  0  0  0  0
  -23.1735  -10.5526   20.2206 C   0  0  0  0  0  0  0  0  0  0  0  0
  -28.9635  -29.2215   27.3807 C   0  0  0  0  0  0  0  0  0  0  0  0
  -28.0460  -28.0138   25.0470 C   0  0  0  0  0  0  0  0  0  0  0  0
  -27.2120  -29.1689   20.1875 C   0  0  0  0  0  0  0  0  0  0  0  0
  -23.5006   -8.2911   21.8210 C   0  0  0  0  0  0  0  0  0  0  0  0
  -22.0556   -9.8738   20.7055 C   0  0  0  0  0  0  0  0  0  0  0  0
  -27.3945  -28.1523   19.2510 C   0  0  0  0  0  0  0  0  0  0  0  0
  -21.2294   -6.0765   20.6504 C   0  0  0  0  0  0  0  0  0  0  0  0
  -21.2286   -4.6844   20.5643 C   0  0  0  0  0  0  0  0  0  0  0  0
  -25.0105  -27.7890   19.1898 C   0  0  0  0  0  0  0  0  0  0  0  0
  -29.0747  -18.0489   14.8917 C   0  0  0  0  0  0  0  0  0  0  0  0
  -29.3770  -18.7658   17.5707 C   0  0  0  0  0  0  0  0  0  0  0  0
  -21.0249   -4.5359   22.9672 C   0  0  0  0  0  0  0  0  0  0  0  0
  -24.4549  -10.1007   20.5358 C   0  0  0  0  0  0  0  0  0  0  0  0
  -26.2873  -10.5684   18.8238 C   0  0  0  0  0  0  0  0  0  0  0  0
  -27.5955  -29.2749   27.0705 C   0  0  0  0  0  0  0  0  0  0  0  0
  -25.9261  -29.4964   20.6411 C   0  0  0  0  0  0  0  0  0  0  0  0
  -27.1280  -28.6556   25.8956 C   0  0  0  0  0  0  0  0  0  0  0  0
  -24.8142  -28.8118   20.1302 C   0  0  0  0  0  0  0  0  0  0  0  0
  -29.3096  -19.3802   15.2351 C   0  0  0  0  0  0  0  0  0  0  0  0
  -28.9909  -17.0760   15.8878 C   0  0  0  0  0  0  0  0  0  0  0  0
  -29.4608  -19.7387   16.5746 C   0  0  0  0  0  0  0  0  0  0  0  0
  -29.1420  -17.4345   17.2273 C   0  0  0  0  0  0  0  0  0  0  0  0
  -22.2192   -8.7430   21.5057 C   0  0  0  0  0  0  0  0  0  0  0  0
  -26.2940  -27.4602   18.7542 C   0  0  0  0  0  0  0  0  0  0  0  0
  -21.1280   -6.6985   21.8949 C   0  0  0  0  0  0  0  0  0  0  0  0
  -21.1263   -3.9140   21.7227 C   0  0  0  0  0  0  0  0  0  0  0  0
  -21.0257   -5.9282   23.0532 C   0  0  0  0  0  0  0  0  0  0  0  0
  -25.6093  -10.8027   20.0350 C   0  0  0  0  0  0  0  0  0  0  0  0
  -27.3040  -11.4919   18.8152 C   0  0  0  0  0  0  0  0  0  0  0  0
  -26.0219   -9.6025   17.7980 C   0  0  0  0  0  0  0  0  0  0  0  0
  -24.4623  -29.4462   23.4621 C   0  0  0  0  0  0  0  0  0  0  0  0
  -22.0680  -30.8789   21.8077 C   0  0  0  0  0  0  0  0  0  0  0  0
  -20.5604  -31.4444   18.7987 C   0  0  0  0  0  0  0  0  0  0  0  0
  -29.1900  -16.6676   19.6264 C   0  0  0  0  0  0  0  0  0  0  0  0
  -26.6555  -29.9389   28.0452 C   0  0  0  0  0  0  0  0  0  0  0  0
  -25.7438  -30.6136   21.6316 C   0  0  0  0  0  0  0  0  0  0  0  0
  -23.4111  -29.1386   20.5696 C   0  0  0  0  0  0  0  0  0  0  0  0
  -25.2863  -30.2577   27.4501 C   0  0  0  0  0  0  0  0  0  0  0  0
  -29.0163  -14.5397   22.4759 C   0  0  0  0  0  0  0  0  0  0  0  0
  -24.7467  -29.0571   26.6792 C   0  0  0  0  0  0  0  0  0  0  0  0
  -28.1702  -13.3585   21.9952 C   0  0  0  0  0  0  0  0  0  0  0  0
  -28.5325  -15.8621   21.8834 C   0  0  0  0  0  0  0  0  0  0  0  0
  -27.5654  -14.6983   19.9394 C   0  0  0  0  0  0  0  0  0  0  0  0
  -25.6661  -28.6960   25.5063 C   0  0  1  0  0  0  0  0  0  0  0  0
  -24.4340  -30.5162   22.4076 C   0  0  1  0  0  0  0  0  0  0  0  0
  -28.0549  -13.3364   20.4584 C   0  0  2  0  0  0  0  0  0  0  0  0
  -28.7386  -15.6576   15.4910 C   0  0  0  0  0  0  0  0  0  0  0  0
  -30.7322  -20.3608   13.4182 C   0  0  0  0  0  0  0  0  0  0  0  0
  -18.5998  -32.6243   17.7686 C   0  0  0  0  0  0  0  0  0  0  0  0
  -20.2086  -28.6978   22.8543 C   0  0  0  0  0  0  0  0  0  0  0  0
  -18.5606  -29.3515   21.0865 C   0  0  0  0  0  0  0  0  0  0  0  0
  -19.2199  -30.9949   22.8436 C   0  0  0  0  0  0  0  0  0  0  0  0
  -22.3138  -33.1445   17.1272 C   0  0  0  0  0  0  0  0  0  0  0  0
  -29.3950  -20.4045   14.1515 C   0  0  0  0  0  0  0  0  0  0  0  0
  -29.7151  -21.1716   16.9700 C   0  0  0  0  0  0  0  0  0  0  0  0
  -28.4580  -22.0487   16.9631 C   0  0  0  0  0  0  0  0  0  0  0  0
  -28.7229  -23.4798   17.4411 C   0  0  0  0  0  0  0  0  0  0  0  0
  -27.4513  -24.3249   17.3888 C   0  0  0  0  0  0  0  0  0  0  0  0
  -27.6941  -25.7373   17.9015 C   0  0  0  0  0  0  0  0  0  1  0  0
  -20.8709  -30.3954   21.0252 C   0  0  1  0  0  0  0  0  0  0  0  0
  -20.0708  -32.7223   18.1417 C   0  0  2  0  0  0  0  0  0  0  0  0
  -19.7415  -29.8522   21.9454 C   0  0  0  0  0  0  0  0  0  0  0  0
  -26.1497  -11.7969   20.7445 N   0  0  0  0  0  0  0  0  0  0  0  0
  -27.1782  -12.1955   19.9768 N   0  0  0  0  0  0  0  0  0  0  0  0
  -23.2852  -30.2347   21.5444 N   0  0  0  0  0  0  0  0  0  0  0  0
  -28.4520  -15.7677   20.4241 N   0  0  0  0  0  0  0  0  0  0  0  0
  -28.2844  -11.7625   17.9275 N   0  0  0  0  0  0  0  0  0  0  0  0
  -24.9378   -8.7301   17.9661 N   0  0  0  0  0  0  0  0  0  0  0  0
  -29.0604  -16.4608   18.2535 N   0  0  0  0  0  0  0  0  0  0  0  0
  -25.4608  -29.6100   24.4032 N   0  0  0  0  0  0  0  0  0  0  0  0
  -20.4642  -31.5072   20.1727 N   0  0  0  0  0  0  0  0  0  0  0  0
  -20.8522  -33.0005   16.9036 N   0  3  0  0  0  0  0  0  0  0  0  0
  -26.7350   -9.5046   16.7707 O   0  0  0  0  0  0  0  0  0  0  0  0
  -23.6382  -28.5400   23.4256 O   0  0  0  0  0  0  0  0  0  0  0  0
  -21.9296  -31.7992   22.6174 O   0  0  0  0  0  0  0  0  0  0  0  0
  -20.9822  -30.4848   18.1569 O   0  0  0  0  0  0  0  0  0  0  0  0
  -29.9072  -17.5389   20.1249 O   0  0  0  0  0  0  0  0  0  0  0  0
  -21.1282   -8.0807   21.9786 O   0  0  0  0  0  0  0  0  0  0  0  0
  -26.4693  -26.4671   17.8405 O   0  0  0  0  0  0  0  0  0  1  0  0
  -21.1240   -2.5772   21.6398 F   0  0  0  0  0  0  0  0  0  0  0  0
  -20.9268   -6.5199   24.2515 F   0  0  0  0  0  0  0  0  0  0  0  0
  1  2  1  0  0  0  0
  1  5  2  0  0  0  0
  2  6  2  0  0  0  0
  3  8  2  0  0  0  0
  3 17  1  0  0  0  0
  4  9  1  0  0  0  0
  4 17  2  0  0  0  0
  5 19  1  0  0  0  0
  6 21  1  0  0  0  0
  7 10  2  0  0  0  0
  7 20  1  0  0  0  0
  8 27  1  0  0  0  0
  9 27  2  0  0  0  0
 10 28  1  0  0  0  0
 11 12  2  0  0  0  0
 11 29  1  0  0  0  0
 12 30  1  0  0  0  0
 13 22  1  0  0  0  0
 13 28  2  0  0  0  0
 14 23  1  0  0  0  0
 14 24  2  0  0  0  0
 15 25  1  0  0  0  0
 15 26  2  0  0  0  0
 16 30  2  0  0  0  0
 16 31  1  0  0  0  0
 17 32  1  0  0  0  0
 18 32  1  0  0  0  0
 18 33  2  0  0  0  0
 18 34  1  0  0  0  0
 19 21  2  0  0  0  0
 19 39  1  0  0  0  0
 20 22  2  0  0  0  0
 20 40  1  0  0  0  0
 21 48  1  0  0  0  0
 22 41  1  0  0  0  0
 23 25  2  0  0  0  0
 23 58  1  0  0  0  0
 24 26  1  0  0  0  0
 24 51  1  0  0  0  0
 25 59  1  0  0  0  0
 26 73  1  0  0  0  0
 27 82  1  0  0  0  0
 28 83  1  0  0  0  0
 29 31  2  0  0  0  0
 29 82  1  0  0  0  0
 30 84  1  0  0  0  0
 31 85  1  0  0  0  0
 32 67  2  0  0  0  0
 33 68  1  0  0  0  0
 33 71  1  0  0  0  0
 34 72  1  0  0  0  0
 34 77  2  0  0  0  0
 35 49  1  0  0  0  0
 35 74  1  0  0  0  0
 35 78  2  0  0  0  0
 36 64  1  0  0  0  0
 36 69  1  0  0  0  0
 36 79  2  0  0  0  0
 37 65  1  0  0  0  0
 37 75  1  0  0  0  0
 37 80  2  0  0  0  0
 38 70  1  0  0  0  0
 38 73  1  0  0  0  0
 38 81  2  0  0  0  0
 39 42  1  0  0  0  0
 40 49  1  0  0  0  0
 41 69  1  0  0  0  0
 42 44  1  0  0  0  0
 43 45  1  0  0  0  0
 43 46  1  0  0  0  0
 44 48  1  0  0  0  0
 45 50  1  0  0  0  0
 46 70  1  0  0  0  0
 47 50  1  0  0  0  0
 47 70  1  0  0  0  0
 48 74  1  0  0  0  0
 49 69  1  0  0  0  0
 50 68  1  0  0  0  0
 52 58  1  0  0  0  0
 53 65  1  0  0  0  0
 54 66  1  0  0  0  0
 55 66  1  0  0  0  0
 56 66  1  0  0  0  0
 57 76  1  0  0  0  0
 59 60  1  0  0  0  0
 60 61  1  0  0  0  0
 61 62  1  0  0  0  0
 62 63  1  0  0  0  0
 63 83  1  0  0  0  0
 64 66  1  0  0  0  0
 64 75  1  0  0  0  0
 65 76  1  0  0  0  0
 67 68  1  0  0  0  0
M  CHG  1  76   1
M  ISO  4  38 100  63 101  73 100  83 101
M  END
> <Batch ID>
0130

> <Smiles>
CCc1cc(C)c([100NH:0][100C:0](=O)N2CCCC(n3nc(-c4ccc(Oc5ccc(F)cc5F)cc4)c(C(N)=O)c3N)C2)cc1CCCC[101CH2:1][101O:1]c1ccc2c(c1)CN(C(=O)C(NC(=O)C(C)NC)C(C)(C)C)C(C(=O)NC1CCCc3ccccc31)C2

> <Shape>
0.237

> <Color>
0.105

> <Negative vol penalty>
0.000

$$$$

  -OEChem-04052302223D

 83 91  0     1  0  0  0  0  0999 V2000
  -27.3164  -34.1886   25.0003 C   0  0  0  0  0  0  0  0  0  0  0  0
  -27.6160  -32.9206   24.5126 C   0  0  0  0  0  0  0  0  0  0  0  0
  -24.8067   -8.9857   21.4906 C   0  0  0  0  0  0  0  0  0  0  0  0
  -23.1426  -10.6787   21.0418 C   0  0  0  0  0  0  0  0  0  0  0  0
  -26.0122  -34.4957   25.3857 C   0  0  0  0  0  0  0  0  0  0  0  0
  -26.6117  -31.9586   24.4112 C   0  0  0  0  0  0  0  0  0  0  0  0
  -26.7513  -29.4613   20.0078 C   0  0  0  0  0  0  0  0  0  0  0  0
  -24.6036  -19.6451   19.9181 C   0  0  0  0  0  0  0  0  0  0  0  0
  -25.2075  -18.4196   19.6372 C   0  0  0  0  0  0  0  0  0  0  0  0
  -23.9473   -8.3847   22.4103 C   0  0  0  0  0  0  0  0  0  0  0  0
  -22.2831  -10.0777   21.9614 C   0  0  0  0  0  0  0  0  0  0  0  0
  -27.7131  -28.4610   19.8733 C   0  0  0  0  0  0  0  0  0  0  0  0
  -21.2474   -6.3505   22.3360 C   0  0  0  0  0  0  0  0  0  0  0  0
  -21.1143   -4.9629   22.2880 C   0  0  0  0  0  0  0  0  0  0  0  0
  -27.2619  -19.2022   20.6393 C   0  0  0  0  0  0  0  0  0  0  0  0
  -26.0350  -26.7928   20.3425 C   0  0  0  0  0  0  0  0  0  0  0  0
  -21.9176   -4.8072   24.5612 C   0  0  0  0  0  0  0  0  0  0  0  0
  -24.4044  -10.1327   20.8064 C   0  0  0  0  0  0  0  0  0  0  0  0
  -26.6580  -20.4278   20.9202 C   0  0  0  0  0  0  0  0  0  0  0  0
  -25.3874  -10.4830   18.4786 C   0  0  0  0  0  0  0  0  0  0  0  0
  -24.9894  -33.5400   25.2799 C   0  0  0  0  0  0  0  0  0  0  0  0
  -25.4241  -29.1351   20.3219 C   0  0  0  0  0  0  0  0  0  0  0  0
  -25.2929  -32.2528   24.7968 C   0  0  0  0  0  0  0  0  0  0  0  0
  -25.0577  -27.7907   20.4779 C   0  0  0  0  0  0  0  0  0  0  0  0
  -25.3289  -20.6493   20.5596 C   0  0  0  0  0  0  0  0  0  0  0  0
  -26.5366  -18.1981   19.9978 C   0  0  0  0  0  0  0  0  0  0  0  0
  -22.6855   -8.9307   22.6457 C   0  0  0  0  0  0  0  0  0  0  0  0
  -27.3556  -27.1267   20.0435 C   0  0  0  0  0  0  0  0  0  0  0  0
  -21.7156   -6.9666   23.4965 C   0  0  0  0  0  0  0  0  0  0  0  0
  -21.4493   -4.1912   23.4006 C   0  0  0  0  0  0  0  0  0  0  0  0
  -22.0507   -6.1949   24.6092 C   0  0  0  0  0  0  0  0  0  0  0  0
  -25.2919  -10.7543   19.8567 C   0  0  0  0  0  0  0  0  0  0  0  0
  -26.3700  -11.3309   18.0290 C   0  0  0  0  0  0  0  0  0  0  0  0
  -27.4506  -21.4675   21.5977 C   0  0  0  0  0  0  0  0  0  0  0  0
  -28.5694  -22.0279   21.1120 C   0  0  0  0  0  0  0  0  0  0  0  0
  -24.6534   -9.5483   17.6766 C   0  0  0  0  0  0  0  0  0  0  0  0
  -23.4667  -29.7850   22.7406 C   0  0  0  0  0  0  0  0  0  0  0  0
  -21.2849  -28.2829   20.8682 C   0  0  0  0  0  0  0  0  0  0  0  0
  -20.6655  -26.0578   18.3558 C   0  0  0  0  0  0  0  0  0  0  0  0
  -28.4588  -16.5697   20.0028 C   0  0  0  0  0  0  0  0  0  0  0  0
  -23.6043  -33.9035   25.7533 C   0  0  0  0  0  0  0  0  0  0  0  0
  -24.3929  -30.2240   20.4372 C   0  0  0  0  0  0  0  0  0  0  0  0
  -23.6421  -27.3863   20.7958 C   0  0  0  0  0  0  0  0  0  0  0  0
  -22.5219  -32.9454   25.2627 C   0  0  0  0  0  0  0  0  0  0  0  0
  -30.3321  -13.5843   19.4979 C   0  0  0  0  0  0  0  0  0  0  0  0
  -22.9612  -31.4979   25.4595 C   0  0  0  0  0  0  0  0  0  0  0  0
  -29.2606  -12.4959   19.4011 C   0  0  0  0  0  0  0  0  0  0  0  0
  -29.9596  -14.6577   20.5191 C   0  0  0  0  0  0  0  0  0  0  0  0
  -27.5614  -14.1705   20.2352 C   0  0  0  0  0  0  0  0  0  0  0  0
  -24.2257  -31.1900   24.6486 C   0  0  1  0  0  0  0  0  0  0  0  0
  -23.1798  -29.8128   21.2659 C   0  0  1  0  0  0  0  0  0  0  0  0
  -27.8617  -13.1011   19.1722 C   0  0  2  0  0  0  0  0  0  0  0  0
  -24.6496  -21.9502   20.8447 C   0  0  0  0  0  0  0  0  0  0  0  0
  -18.7805  -25.0104   17.0723 C   0  0  0  0  0  0  0  0  0  0  0  0
  -20.6715  -26.4755   23.2487 C   0  0  0  0  0  0  0  0  0  0  0  0
  -19.5312  -24.9013   21.6708 C   0  0  0  0  0  0  0  0  0  0  0  0
  -18.6621  -27.2216   21.9603 C   0  0  0  0  0  0  0  0  0  0  0  0
  -21.6345  -27.1771   15.7931 C   0  0  0  0  0  0  0  0  0  0  0  0
  -29.3438  -23.0909   21.8386 C   0  0  0  0  0  0  0  0  0  0  0  0
  -29.4693  -24.3585   20.9954 C   0  0  0  0  0  0  0  0  0  0  0  0
  -28.1068  -24.9642   20.6876 C   0  0  0  0  0  0  0  0  0  1  0  0
  -20.8228  -26.8557   20.6995 C   0  0  1  0  0  0  0  0  0  0  0  0
  -19.7855  -26.1506   17.1223 C   0  0  2  0  0  0  0  0  0  0  0  0
  -19.9491  -26.3710   21.8908 C   0  0  0  0  0  0  0  0  0  0  0  0
  -26.1459  -11.7004   20.2563 N   0  0  0  0  0  0  0  0  0  0  0  0
  -26.7873  -12.0309   19.1226 N   0  0  0  0  0  0  0  0  0  0  0  0
  -22.6714  -28.4879   20.9048 N   0  0  0  0  0  0  0  0  0  0  0  0
  -28.6241  -15.1882   20.2368 N   0  0  0  0  0  0  0  0  0  0  0  0
  -26.9091  -11.5383   16.8089 N   0  0  0  0  0  0  0  0  0  0  0  0
  -23.6795   -8.7548   18.2982 N   0  0  0  0  0  0  0  0  0  0  0  0
  -27.1497  -16.9529   19.7128 N   0  0  0  0  0  0  0  0  0  0  0  0
  -23.8961  -30.9943   23.2531 N   0  0  0  0  0  0  0  0  0  0  0  0
  -20.1545  -26.7934   19.4042 N   0  0  0  0  0  0  0  0  0  0  0  0
  -20.6178  -26.0979   15.8871 N   0  3  0  0  0  0  0  0  0  0  0  0
  -24.8665   -9.4089   16.4483 O   0  0  0  0  0  0  0  0  0  0  0  0
  -23.3086  -28.7439   23.3673 O   0  0  0  0  0  0  0  0  0  0  0  0
  -20.4467  -29.1835   20.9568 O   0  0  0  0  0  0  0  0  0  0  0  0
  -21.7005  -25.3958   18.3874 O   0  0  0  0  0  0  0  0  0  0  0  0
  -29.4132  -17.3511   20.0290 O   0  0  0  0  0  0  0  0  0  0  0  0
  -21.8465   -8.3444   23.5429 O   0  0  0  0  0  0  0  0  0  0  0  0
  -28.2926  -26.1484   19.9135 O   0  0  0  0  0  0  0  0  0  1  0  0
  -21.3200   -2.8588   23.3549 F   0  0  0  0  0  0  0  0  0  0  0  0
  -22.5000   -6.7812   25.7273 F   0  0  0  0  0  0  0  0  0  0  0  0
  1  2  1  0  0  0  0
  1  5  2  0  0  0  0
  2  6  2  0  0  0  0
  3 10  2  0  0  0  0
  3 18  1  0  0  0  0
  4 11  1  0  0  0  0
  4 18  2  0  0  0  0
  5 21  1  0  0  0  0
  6 23  1  0  0  0  0
  7 12  2  0  0  0  0
  7 22  1  0  0  0  0
  8  9  2  0  0  0  0
  8 25  1  0  0  0  0
  9 26  1  0  0  0  0
 10 27  1  0  0  0  0
 11 27  2  0  0  0  0
 12 28  1  0  0  0  0
 13 14  2  0  0  0  0
 13 29  1  0  0  0  0
 14 30  1  0  0  0  0
 15 19  1  0  0  0  0
 15 26  2  0  0  0  0
 16 24  1  0  0  0  0
 16 28  2  0  0  0  0
 17 30  2  0  0  0  0
 17 31  1  0  0  0  0
 18 32  1  0  0  0  0
 19 25  2  0  0  0  0
 19 34  1  0  0  0  0
 20 32  1  0  0  0  0
 20 33  2  0  0  0  0
 20 36  1  0  0  0  0
 21 23  2  0  0  0  0
 21 41  1  0  0  0  0
 22 24  2  0  0  0  0
 22 42  1  0  0  0  0
 23 50  1  0  0  0  0
 24 43  1  0  0  0  0
 25 53  1  0  0  0  0
 26 71  1  0  0  0  0
 27 80  1  0  0  0  0
 28 81  1  0  0  0  0
 29 31  2  0  0  0  0
 29 80  1  0  0  0  0
 30 82  1  0  0  0  0
 31 83  1  0  0  0  0
 32 65  2  0  0  0  0
 33 66  1  0  0  0  0
 33 69  1  0  0  0  0
 34 35  2  0  0  0  0
 35 59  1  0  0  0  0
 36 70  1  0  0  0  0
 36 75  2  0  0  0  0
 37 51  1  0  0  0  0
 37 72  1  0  0  0  0
 37 76  2  0  0  0  0
 38 62  1  0  0  0  0
 38 67  1  0  0  0  0
 38 77  2  0  0  0  0
 39 63  1  0  0  0  0
 39 73  1  0  0  0  0
 39 78  2  0  0  0  0
 40 68  1  0  0  0  0
 40 71  1  0  0  0  0
 40 79  2  0  0  0  0
 41 44  1  0  0  0  0
 42 51  1  0  0  0  0
 43 67  1  0  0  0  0
 44 46  1  0  0  0  0
 45 47  1  0  0  0  0
 45 48  1  0  0  0  0
 46 50  1  0  0  0  0
 47 52  1  0  0  0  0
 48 68  1  0  0  0  0
 49 52  1  0  0  0  0
 49 68  1  0  0  0  0
 50 72  1  0  0  0  0
 51 67  1  0  0  0  0
 52 66  1  0  0  0  0
 54 63  1  0  0  0  0
 55 64  1  0  0  0  0
 56 64  1  0  0  0  0
 57 64  1  0  0  0  0
 58 74  1  0  0  0  0
 59 60  1  0  0  0  0
 60 61  1  0  0  0  0
 61 81  1  0  0  0  0
 62 64  1  0  0  0  0
 62 73  1  0  0  0  0
 63 74  1  0  0  0  0
 65 66  1  0  0  0  0
M  CHG  1  74   1
M  ISO  4  40 100  61 101  71 100  81 101
M  END
> <Batch ID>
0130

> <Smiles>
CNC(C)C(=O)NC(C(=O)N1Cc2cc([101O:1][101CH2:1]CCC=Cc3cc([100NH:0][100C:0](=O)N4CCCC(n5nc(-c6ccc(Oc7ccc(F)cc7F)cc6)c(C(N)=O)c5N)C4)ccc3C)ccc2CC1C(=O)NC1CCCc2ccccc21)C(C)(C)C

> <Shape>
0.308

> <Color>
0.116

> <Negative vol penalty>
0.000

$$$$

  -OEChem-04052302223D

 81 89  0     1  0  0  0  0  0999 V2000
  -30.8050  -33.6612   28.3117 C   0  0  0  0  0  0  0  0  0  0  0  0
  -31.0115  -32.7378   27.2919 C   0  0  0  0  0  0  0  0  0  0  0  0
  -24.9679   -8.5475   22.2952 C   0  0  0  0  0  0  0  0  0  0  0  0
  -25.0153   -7.9262   19.9609 C   0  0  0  0  0  0  0  0  0  0  0  0
  -29.5554  -33.7551   28.9230 C   0  0  0  0  0  0  0  0  0  0  0  0
  -29.9687  -31.9070   26.8834 C   0  0  0  0  0  0  0  0  0  0  0  0
  -28.8689  -29.9017   21.2023 C   0  0  0  0  0  0  0  0  0  0  0  0
  -23.7086   -7.9620   22.4255 C   0  0  0  0  0  0  0  0  0  0  0  0
  -23.7560   -7.3406   20.0912 C   0  0  0  0  0  0  0  0  0  0  0  0
  -29.1600  -28.6995   20.5592 C   0  0  0  0  0  0  0  0  0  0  0  0
  -22.4318   -4.8495   22.7643 C   0  0  0  0  0  0  0  0  0  0  0  0
  -22.2053   -4.0401   23.8774 C   0  0  0  0  0  0  0  0  0  0  0  0
  -29.7068  -19.6926   20.1912 C   0  0  0  0  0  0  0  0  0  0  0  0
  -29.6527  -21.1078   20.0351 C   0  0  0  0  0  0  0  0  0  0  0  0
  -26.9461  -27.8933   21.0770 C   0  0  0  0  0  0  0  0  0  0  0  0
  -20.4119   -5.5011   24.5748 C   0  0  0  0  0  0  0  0  0  0  0  0
  -25.6212   -8.5297   21.0629 C   0  0  0  0  0  0  0  0  0  0  0  0
  -28.1716   -8.5154   21.1176 C   0  0  0  0  0  0  0  0  0  0  0  0
  -28.4941  -32.9318   28.5152 C   0  0  0  0  0  0  0  0  0  0  0  0
  -27.6158  -30.1050   21.7981 C   0  0  0  0  0  0  0  0  0  0  0  0
  -28.7042  -31.9891   27.4907 C   0  0  0  0  0  0  0  0  0  0  0  0
  -26.6407  -29.1000   21.7249 C   0  0  0  0  0  0  0  0  0  0  0  0
  -23.1027   -7.3585   21.3235 C   0  0  0  0  0  0  0  0  0  0  0  0
  -28.1996  -27.6940   20.4990 C   0  0  0  0  0  0  0  0  0  0  0  0
  -21.6484   -5.9847   22.5564 C   0  0  0  0  0  0  0  0  0  0  0  0
  -21.1953   -4.3658   24.7827 C   0  0  0  0  0  0  0  0  0  0  0  0
  -20.6384   -6.3105   23.4616 C   0  0  0  0  0  0  0  0  0  0  0  0
  -26.9218   -9.1348   20.9276 C   0  0  0  0  0  0  0  0  0  0  0  0
  -28.5729  -19.1949   20.7947 C   0  0  0  0  0  0  0  0  0  0  0  0
  -29.0880   -9.5084   20.8711 C   0  0  0  0  0  0  0  0  0  0  0  0
  -28.4793  -21.6379   20.5251 C   0  0  0  0  0  0  0  0  0  0  0  0
  -28.2616  -17.8563   21.1155 C   0  0  0  0  0  0  0  0  0  0  0  0
  -29.0528  -16.7507   20.9059 C   0  0  0  0  0  0  0  0  0  0  0  0
  -28.4769   -7.1633   21.4842 C   0  0  0  0  0  0  0  0  0  0  0  0
  -28.5871  -15.4084   21.3085 C   0  0  0  0  0  0  0  0  0  0  0  0
  -26.6031  -30.6520   24.7610 C   0  0  0  0  0  0  0  0  0  0  0  0
  -23.7343  -31.0280   23.2946 C   0  0  0  0  0  0  0  0  0  0  0  0
  -28.6693  -24.1137   20.1150 C   0  0  0  0  0  0  0  0  0  0  0  0
  -21.7412  -30.3448   20.6098 C   0  0  0  0  0  0  0  0  0  0  0  0
  -27.1745  -33.0371   29.2380 C   0  0  0  0  0  0  0  0  0  0  0  0
  -27.3082  -31.4177   22.4648 C   0  0  0  0  0  0  0  0  0  0  0  0
  -25.2732  -29.2763   22.3310 C   0  0  0  0  0  0  0  0  0  0  0  0
  -26.0169  -32.3793   28.4913 C   0  0  0  0  0  0  0  0  0  0  0  0
  -29.6915  -13.5229   18.3662 C   0  0  0  0  0  0  0  0  0  0  0  0
  -26.4216  -30.9964   27.9907 C   0  0  0  0  0  0  0  0  0  0  0  0
  -29.1699  -12.1275   18.6989 C   0  0  0  0  0  0  0  0  0  0  0  0
  -28.7637  -14.6193   18.8872 C   0  0  0  0  0  0  0  0  0  0  0  0
  -27.9490  -13.1131   20.6783 C   0  0  0  0  0  0  0  0  0  0  0  0
  -27.5909  -31.0876   27.0028 C   0  0  1  0  0  0  0  0  0  0  0  0
  -26.1773  -31.3197   23.4841 C   0  0  1  0  0  0  0  0  0  0  0  0
  -28.8910  -11.9953   20.2045 C   0  0  1  0  0  0  0  0  0  0  0  0
  -19.4345  -30.7590   19.7128 C   0  0  0  0  0  0  0  0  0  0  0  0
  -22.6092  -28.9667   25.2427 C   0  0  0  0  0  0  0  0  0  0  0  0
  -20.6286  -28.7218   23.7310 C   0  0  0  0  0  0  0  0  0  0  0  0
  -21.1086  -30.9197   24.8087 C   0  0  0  0  0  0  0  0  0  0  0  0
  -22.7944  -31.7451   18.2247 C   0  0  0  0  0  0  0  0  0  0  0  0
  -27.8236  -25.3499   20.3584 C   0  0  0  0  0  0  0  0  0  1  0  0
  -22.5925  -30.1109   22.9283 C   0  0  1  0  0  0  0  0  0  0  0  0
  -20.8761  -31.2421   19.7433 C   0  0  2  0  0  0  0  0  0  0  0  0
  -21.7611  -29.6754   24.1678 C   0  0  0  0  0  0  0  0  0  0  0  0
  -27.0307  -10.4217   20.5867 N   0  0  0  0  0  0  0  0  0  0  0  0
  -28.3598  -10.6190   20.5608 N   0  0  0  0  0  0  0  0  0  0  0  0
  -28.4650  -14.4378   20.3157 N   0  0  0  0  0  0  0  0  0  0  0  0
  -25.0227  -30.5751   22.9774 N   0  0  0  0  0  0  0  0  0  0  0  0
  -30.4376   -9.5311   20.8917 N   0  0  0  0  0  0  0  0  0  0  0  0
  -27.4156   -6.2738   21.7001 N   0  0  0  0  0  0  0  0  0  0  0  0
  -28.0165  -22.9743   20.5730 N   0  0  0  0  0  0  0  0  0  0  0  0
  -27.1222  -31.5192   25.7034 N   0  0  0  0  0  0  0  0  0  0  0  0
  -21.8203  -30.8087   21.9059 N   0  0  0  0  0  0  0  0  0  0  0  0
  -21.3930  -31.2671   18.3457 N   0  3  0  0  0  0  0  0  0  0  0  0
  -29.6556   -6.7604   21.6323 O   0  0  0  0  0  0  0  0  0  0  0  0
  -28.3297  -15.2296   22.5003 O   0  0  0  0  0  0  0  0  0  0  0  0
  -26.4693  -29.4400   24.8829 O   0  0  0  0  0  0  0  0  0  0  0  0
  -23.4914  -32.1097   23.8355 O   0  0  0  0  0  0  0  0  0  0  0  0
  -29.7714  -24.1842   19.5811 O   0  0  0  0  0  0  0  0  0  0  0  0
  -22.2888  -29.3316   20.1809 O   0  0  0  0  0  0  0  0  0  0  0  0
  -21.8740   -6.7869   21.4503 O   0  0  0  0  0  0  0  0  0  0  0  0
  -28.4813  -26.5193   19.8724 O   0  0  0  0  0  0  0  0  0  1  0  0
  -20.9769   -3.5876   25.8508 F   0  0  0  0  0  0  0  0  0  0  0  0
  -19.8818   -7.3992   23.2666 F   0  0  0  0  0  0  0  0  0  0  0  0
  -27.4494  -20.4315   21.1702 S   0  0  0  0  0  0  0  0  0  0  0  0
  1  2  1  0  0  0  0
  1  5  2  0  0  0  0
  2  6  2  0  0  0  0
  3  8  2  0  0  0  0
  3 17  1  0  0  0  0
  4  9  1  0  0  0  0
  4 17  2  0  0  0  0
  5 19  1  0  0  0  0
  6 21  1  0  0  0  0
  7 10  2  0  0  0  0
  7 20  1  0  0  0  0
  8 23  1  0  0  0  0
  9 23  2  0  0  0  0
 10 24  1  0  0  0  0
 11 12  2  0  0  0  0
 11 25  1  0  0  0  0
 12 26  1  0  0  0  0
 13 14  1  0  0  0  0
 13 29  2  0  0  0  0
 14 31  2  0  0  0  0
 15 22  1  0  0  0  0
 15 24  2  0  0  0  0
 16 26  2  0  0  0  0
 16 27  1  0  0  0  0
 17 28  1  0  0  0  0
 18 28  1  0  0  0  0
 18 30  2  0  0  0  0
 18 34  1  0  0  0  0
 19 21  2  0  0  0  0
 19 40  1  0  0  0  0
 20 22  2  0  0  0  0
 20 41  1  0  0  0  0
 21 49  1  0  0  0  0
 22 42  1  0  0  0  0
 23 77  1  0  0  0  0
 24 78  1  0  0  0  0
 25 27  2  0  0  0  0
 25 77  1  0  0  0  0
 26 79  1  0  0  0  0
 27 80  1  0  0  0  0
 28 61  2  0  0  0  0
 29 32  1  0  0  0  0
 29 81  1  0  0  0  0
 30 62  1  0  0  0  0
 30 65  1  0  0  0  0
 31 67  1  0  0  0  0
 31 81  1  0  0  0  0
 32 33  2  0  0  0  0
 33 35  1  0  0  0  0
 34 66  1  0  0  0  0
 34 71  2  0  0  0  0
 35 63  1  0  0  0  0
 35 72  2  0  0  0  0
 36 50  1  0  0  0  0
 36 68  1  0  0  0  0
 36 73  2  0  0  0  0
 37 58  1  0  0  0  0
 37 64  1  0  0  0  0
 37 74  2  0  0  0  0
 38 57  1  0  0  0  0
 38 67  1  0  0  0  0
 38 75  2  0  0  0  0
 39 59  1  0  0  0  0
 39 69  1  0  0  0  0
 39 76  2  0  0  0  0
 40 43  1  0  0  0  0
 41 50  1  0  0  0  0
 42 64  1  0  0  0  0
 43 45  1  0  0  0  0
 44 46  1  0  0  0  0
 44 47  1  0  0  0  0
 45 49  1  0  0  0  0
 46 51  1  0  0  0  0
 47 63  1  0  0  0  0
 48 51  1  0  0  0  0
 48 63  1  0  0  0  0
 49 68  1  0  0  0  0
 50 64  1  0  0  0  0
 51 62  1  0  0  0  0
 52 59  1  0  0  0  0
 53 60  1  0  0  0  0
 54 60  1  0  0  0  0
 55 60  1  0  0  0  0
 56 70  1  0  0  0  0
 57 78  1  0  0  0  0
 58 60  1  0  0  0  0
 58 69  1  0  0  0  0
 59 70  1  0  0  0  0
 61 62  1  0  0  0  0
M  CHG  1  70   1
M  ISO  4  33 100  35 100  57 101  78 101
M  END
> <Batch ID>
0130

> <Smiles>
CNC(C)C(=O)NC(C(=O)N1Cc2cc([101O:1][101CH2:1]C(=O)Nc3ccc(C=[100CH:0][100C:0](=O)N4CCCC(n5nc(-c6ccc(Oc7ccc(F)cc7F)cc6)c(C(N)=O)c5N)C4)s3)ccc2CC1C(=O)NC1CCCc2ccccc21)C(C)(C)C

> <Shape>
0.277

> <Color>
0.098

> <Negative vol penalty>
0.000

$$$$

  -OEChem-04052302223D

 84 92  0     1  0  0  0  0  0999 V2000
  -34.1150  -28.9206   22.7546 C   0  0  0  0  0  0  0  0  0  0  0  0
  -33.5664  -28.9729   21.4772 C   0  0  0  0  0  0  0  0  0  0  0  0
  -28.0355  -12.5890   22.6482 C   0  0  0  0  0  0  0  0  0  0  0  0
  -26.9103  -13.0417   20.5588 C   0  0  0  0  0  0  0  0  0  0  0  0
  -26.7179  -21.3750   18.0316 C   0  0  0  0  0  0  0  0  0  0  0  0
  -33.5204  -28.1281   23.7355 C   0  0  0  0  0  0  0  0  0  0  0  0
  -32.4234  -28.2317   21.1797 C   0  0  0  0  0  0  0  0  0  0  0  0
  -26.5130  -28.4656   17.1388 C   0  0  0  0  0  0  0  0  0  0  0  0
  -27.4122  -11.3429   22.7139 C   0  0  0  0  0  0  0  0  0  0  0  0
  -26.2869  -11.7956   20.6244 C   0  0  0  0  0  0  0  0  0  0  0  0
  -26.1965  -21.8313   16.8211 C   0  0  0  0  0  0  0  0  0  0  0  0
  -25.8142  -27.6991   16.2072 C   0  0  0  0  0  0  0  0  0  0  0  0
  -24.1216   -8.8835   20.4222 C   0  0  0  0  0  0  0  0  0  0  0  0
  -22.7586   -8.8243   20.1321 C   0  0  0  0  0  0  0  0  0  0  0  0
  -24.8270  -26.4269   18.0034 C   0  0  0  0  0  0  0  0  0  0  0  0
  -28.0726  -23.3344   16.5796 C   0  0  0  0  0  0  0  0  0  0  0  0
  -22.3044  -10.3420   21.9562 C   0  0  0  0  0  0  0  0  0  0  0  0
  -27.7845  -13.4384   21.5707 C   0  0  0  0  0  0  0  0  0  0  0  0
  -27.9166  -21.8984   18.5163 C   0  0  0  0  0  0  0  0  0  0  0  0
  -29.6645  -15.0277   20.9016 C   0  0  0  0  0  0  0  0  0  0  0  0
  -32.3639  -27.3843   23.4526 C   0  0  0  0  0  0  0  0  0  0  0  0
  -26.3822  -28.2109   18.5116 C   0  0  0  0  0  0  0  0  0  0  0  0
  -31.8135  -27.4274   22.1574 C   0  0  0  0  0  0  0  0  0  0  0  0
  -25.5232  -27.1933   18.9505 C   0  0  0  0  0  0  0  0  0  0  0  0
  -28.5940  -22.8781   17.7902 C   0  0  0  0  0  0  0  0  0  0  0  0
  -26.5379  -10.9462   21.7020 C   0  0  0  0  0  0  0  0  0  0  0  0
  -24.9732  -26.6777   16.6393 C   0  0  0  0  0  0  0  0  0  0  0  0
  -26.8739  -22.8110   16.0950 C   0  0  0  0  0  0  0  0  0  0  0  0
  -24.5761   -9.6719   21.4794 C   0  0  0  0  0  0  0  0  0  0  0  0
  -21.8500   -9.5536   20.8991 C   0  0  0  0  0  0  0  0  0  0  0  0
  -23.6675  -10.4012   22.2464 C   0  0  0  0  0  0  0  0  0  0  0  0
  -28.4277  -14.7260   21.5025 C   0  0  0  0  0  0  0  0  0  0  0  0
  -29.8256  -16.3763   21.1061 C   0  0  0  0  0  0  0  0  0  0  0  0
  -28.4377  -21.4043   19.7836 C   0  0  0  0  0  0  0  0  0  0  0  0
  -30.5853  -14.1660   20.2195 C   0  0  0  0  0  0  0  0  0  0  0  0
  -27.6610  -21.5339   21.0378 C   0  0  0  0  0  0  0  0  0  0  0  0
  -28.3685  -27.3157   20.8261 C   0  0  0  0  0  0  0  0  0  0  0  0
  -25.7806  -27.8307   22.7129 C   0  0  0  0  0  0  0  0  0  0  0  0
  -22.3845  -28.0349   22.9801 C   0  0  0  0  0  0  0  0  0  0  0  0
  -31.7840  -26.5052   24.5321 C   0  0  0  0  0  0  0  0  0  0  0  0
  -27.1223  -29.0642   19.5049 C   0  0  0  0  0  0  0  0  0  0  0  0
  -25.3324  -26.8929   20.4139 C   0  0  0  0  0  0  0  0  0  0  0  0
  -30.3586  -26.0429   24.2409 C   0  0  0  0  0  0  0  0  0  0  0  0
  -27.2717  -19.6025   24.0336 C   0  0  0  0  0  0  0  0  0  0  0  0
  -30.2431  -25.5406   22.8052 C   0  0  0  0  0  0  0  0  0  0  0  0
  -27.6018  -18.1802   23.5821 C   0  0  0  0  0  0  0  0  0  0  0  0
  -26.5739  -20.3908   22.9300 C   0  0  0  0  0  0  0  0  0  0  0  0
  -27.6693  -19.0082   21.1873 C   0  0  0  0  0  0  0  0  0  0  0  0
  -30.5600  -26.6571   21.8030 C   0  0  1  0  0  0  0  0  0  0  0  0
  -27.3099  -28.3816   20.8562 C   0  0  1  0  0  0  0  0  0  0  0  0
  -28.3998  -18.1898   22.2662 C   0  0  2  0  0  0  0  0  0  0  0  0
  -31.0899  -22.8853   17.5516 C   0  0  0  0  0  0  0  0  0  0  0  0
  -20.5608  -28.4319   24.6575 C   0  0  0  0  0  0  0  0  0  0  0  0
  -26.1604  -25.0019   23.7916 C   0  0  0  0  0  0  0  0  0  0  0  0
  -23.8324  -25.1128   24.7060 C   0  0  0  0  0  0  0  0  0  0  0  0
  -25.5683  -26.7075   25.5221 C   0  0  0  0  0  0  0  0  0  0  0  0
  -21.4307  -30.4420   21.5465 C   0  0  0  0  0  0  0  0  0  0  0  0
  -29.8800  -23.4546   18.2859 C   0  0  0  0  0  0  0  0  0  0  0  0
  -24.4960  -24.3910   13.8831 C   0  0  0  0  0  0  0  0  0  0  0  0
  -24.8980  -25.7417   14.4542 C   0  0  0  0  0  0  0  0  0  1  0  0
  -24.9458  -23.2413   14.7709 C   0  0  0  0  0  0  0  0  0  0  0  0
  -24.6237  -26.9886   23.1939 C   0  0  1  0  0  0  0  0  0  0  0  0
  -21.4858  -29.0697   23.6328 C   0  0  2  0  0  0  0  0  0  0  0  0
  -25.0511  -25.9568   24.2757 C   0  0  0  0  0  0  0  0  0  0  0  0
  -27.8446  -15.7967   22.0480 N   0  0  0  0  0  0  0  0  0  0  0  0
  -29.5997  -20.8232   19.9003 N   0  0  0  0  0  0  0  0  0  0  0  0
  -28.7189  -16.7844   21.7907 N   0  0  0  0  0  0  0  0  0  0  0  0
  -27.3396  -20.3494   21.6858 N   0  0  0  0  0  0  0  0  0  0  0  0
  -26.0826  -27.7508   21.3460 N   0  0  0  0  0  0  0  0  0  0  0  0
  -30.8047  -17.2410   20.7653 N   0  0  0  0  0  0  0  0  0  0  0  0
  -30.2644  -12.8071   20.0987 N   0  0  0  0  0  0  0  0  0  0  0  0
  -29.4328  -27.5555   21.6741 N   0  0  0  0  0  0  0  0  0  0  0  0
  -23.5935  -27.9233   23.6336 N   0  0  0  0  0  0  0  0  0  0  0  0
  -20.6496  -29.7517   22.6049 N   0  3  0  0  0  0  0  0  0  0  0  0
  -31.6685  -14.5855   19.7459 O   0  0  0  0  0  0  0  0  0  0  0  0
  -27.3835  -22.6788   21.3704 O   0  0  0  0  0  0  0  0  0  0  0  0
  -28.2292  -26.3466   20.0891 O   0  0  0  0  0  0  0  0  0  0  0  0
  -26.3893  -28.5388   23.5189 O   0  0  0  0  0  0  0  0  0  0  0  0
  -22.0462  -27.3874   21.9917 O   0  0  0  0  0  0  0  0  0  0  0  0
  -25.9297   -9.7302   21.7657 O   0  0  0  0  0  0  0  0  0  0  0  0
  -24.2905  -25.9276   15.7320 O   0  0  0  0  0  0  0  0  0  1  0  0
  -26.3603  -23.2617   14.9068 O   0  0  0  0  0  0  0  0  0  0  0  0
  -20.5412   -9.4979   20.6194 F   0  0  0  0  0  0  0  0  0  0  0  0
  -24.0982  -11.1613   23.2625 F   0  0  0  0  0  0  0  0  0  0  0  0
  1  2  1  0  0  0  0
  1  6  2  0  0  0  0
  2  7  2  0  0  0  0
  3  9  2  0  0  0  0
  3 18  1  0  0  0  0
  4 10  1  0  0  0  0
  4 18  2  0  0  0  0
  5 11  2  0  0  0  0
  5 19  1  0  0  0  0
  6 21  1  0  0  0  0
  7 23  1  0  0  0  0
  8 12  2  0  0  0  0
  8 22  1  0  0  0  0
  9 26  1  0  0  0  0
 10 26  2  0  0  0  0
 11 28  1  0  0  0  0
 12 27  1  0  0  0  0
 13 14  2  0  0  0  0
 13 29  1  0  0  0  0
 14 30  1  0  0  0  0
 15 24  1  0  0  0  0
 15 27  2  0  0  0  0
 16 25  1  0  0  0  0
 16 28  2  0  0  0  0
 17 30  2  0  0  0  0
 17 31  1  0  0  0  0
 18 32  1  0  0  0  0
 19 25  2  0  0  0  0
 19 34  1  0  0  0  0
 20 32  1  0  0  0  0
 20 33  2  0  0  0  0
 20 35  1  0  0  0  0
 21 23  2  0  0  0  0
 21 40  1  0  0  0  0
 22 24  2  0  0  0  0
 22 41  1  0  0  0  0
 23 49  1  0  0  0  0
 24 42  1  0  0  0  0
 25 58  1  0  0  0  0
 26 80  1  0  0  0  0
 27 81  1  0  0  0  0
 28 82  1  0  0  0  0
 29 31  2  0  0  0  0
 29 80  1  0  0  0  0
 30 83  1  0  0  0  0
 31 84  1  0  0  0  0
 32 65  2  0  0  0  0
 33 67  1  0  0  0  0
 33 70  1  0  0  0  0
 34 36  1  0  0  0  0
 34 66  2  0  0  0  0
 35 71  1  0  0  0  0
 35 75  2  0  0  0  0
 36 68  1  0  0  0  0
 36 76  2  0  0  0  0
 37 50  1  0  0  0  0
 37 72  1  0  0  0  0
 37 77  2  0  0  0  0
 38 62  1  0  0  0  0
 38 69  1  0  0  0  0
 38 78  2  0  0  0  0
 39 63  1  0  0  0  0
 39 73  1  0  0  0  0
 39 79  2  0  0  0  0
 40 43  1  0  0  0  0
 41 50  1  0  0  0  0
 42 69  1  0  0  0  0
 43 45  1  0  0  0  0
 44 46  1  0  0  0  0
 44 47  1  0  0  0  0
 45 49  1  0  0  0  0
 46 51  1  0  0  0  0
 47 68  1  0  0  0  0
 48 51  1  0  0  0  0
 48 68  1  0  0  0  0
 49 72  1  0  0  0  0
 50 69  1  0  0  0  0
 51 67  1  0  0  0  0
 52 58  1  0  0  0  0
 53 63  1  0  0  0  0
 54 64  1  0  0  0  0
 55 64  1  0  0  0  0
 56 64  1  0  0  0  0
 57 74  1  0  0  0  0
 59 60  1  0  0  0  0
 59 61  1  0  0  0  0
 60 81  1  0  0  0  0
 61 82  1  0  0  0  0
 62 64  1  0  0  0  0
 62 73  1  0  0  0  0
 63 74  1  0  0  0  0
 65 67  1  0  0  0  0
M  CHG  1  74   1
M  ISO  4  34 100  36 100  60 101  81 101
M  END
> <Batch ID>
0130

> <Smiles>
CCc1cc(OCC[101CH2:1][101O:1]c2ccc3c(c2)CN(C(=O)C(NC(=O)C(C)NC)C(C)(C)C)C(C(=O)NC2CCCc4ccccc42)C3)ccc1[100C:0](=N)[100C:0](=O)N1CCCC(n2nc(-c3ccc(Oc4ccc(F)cc4F)cc3)c(C(N)=O)c2N)C1

> <Shape>
0.212

> <Color>
0.096

> <Negative vol penalty>
0.000

$$$$

  -OEChem-04052302223D

 86 94  0     1  0  0  0  0  0999 V2000
  -34.7417  -32.4882   18.6677 C   0  0  0  0  0  0  0  0  0  0  0  0
  -33.4607  -32.6933   19.1700 C   0  0  0  0  0  0  0  0  0  0  0  0
  -27.6561  -13.2074   18.6918 C   0  0  0  0  0  0  0  0  0  0  0  0
  -28.0849  -13.3429   21.0656 C   0  0  0  0  0  0  0  0  0  0  0  0
  -34.9712  -31.4728   17.7402 C   0  0  0  0  0  0  0  0  0  0  0  0
  -32.4082  -31.8838   18.7443 C   0  0  0  0  0  0  0  0  0  0  0  0
  -26.2941  -28.9821   21.0926 C   0  0  0  0  0  0  0  0  0  0  0  0
  -28.9459  -12.7174   18.4868 C   0  0  0  0  0  0  0  0  0  0  0  0
  -29.3746  -12.8529   20.8606 C   0  0  0  0  0  0  0  0  0  0  0  0
  -24.9465  -28.8841   20.7486 C   0  0  0  0  0  0  0  0  0  0  0  0
  -32.9017  -11.9779   20.9225 C   0  0  0  0  0  0  0  0  0  0  0  0
  -33.9502  -12.6140   21.5870 C   0  0  0  0  0  0  0  0  0  0  0  0
  -17.2362  -21.5178   18.5562 C   0  0  0  0  0  0  0  0  0  0  0  0
  -19.2959  -22.6528   19.1096 C   0  0  0  0  0  0  0  0  0  0  0  0
  -25.4763  -27.1098   19.2025 C   0  0  0  0  0  0  0  0  0  0  0  0
  -33.4045  -14.6838   20.4666 C   0  0  0  0  0  0  0  0  0  0  0  0
  -27.2256  -13.5202   19.9812 C   0  0  0  0  0  0  0  0  0  0  0  0
  -18.6058  -21.4764   18.8169 C   0  0  0  0  0  0  0  0  0  0  0  0
  -24.7292  -13.2773   20.4468 C   0  0  0  0  0  0  0  0  0  0  0  0
  -33.9228  -30.6442   17.3102 C   0  0  0  0  0  0  0  0  0  0  0  0
  -27.2460  -28.1506   20.4850 C   0  0  0  0  0  0  0  0  0  0  0  0
  -32.6236  -30.8572   17.8092 C   0  0  0  0  0  0  0  0  0  0  0  0
  -26.8349  -27.1974   19.5424 C   0  0  0  0  0  0  0  0  0  0  0  0
  -16.5566  -22.7355   18.5881 C   0  0  0  0  0  0  0  0  0  0  0  0
  -17.2467  -23.9119   18.8807 C   0  0  0  0  0  0  0  0  0  0  0  0
  -29.8051  -12.5401   19.5712 C   0  0  0  0  0  0  0  0  0  0  0  0
  -24.5378  -27.9499   19.8014 C   0  0  0  0  0  0  0  0  0  0  0  0
  -32.1047  -12.6946   20.0299 C   0  0  0  0  0  0  0  0  0  0  0  0
  -18.6163  -23.8705   19.1415 C   0  0  0  0  0  0  0  0  0  0  0  0
  -34.2016  -13.9670   21.3591 C   0  0  0  0  0  0  0  0  0  0  0  0
  -32.3561  -14.0476   19.8020 C   0  0  0  0  0  0  0  0  0  0  0  0
  -25.8936  -14.0269   20.1935 C   0  0  0  0  0  0  0  0  0  0  0  0
  -23.7362  -14.2177   20.5733 C   0  0  0  0  0  0  0  0  0  0  0  0
  -19.3151  -20.2070   18.7829 C   0  0  0  0  0  0  0  0  0  0  0  0
  -20.6489  -20.0588   18.6356 C   0  0  0  0  0  0  0  0  0  0  0  0
  -24.5604  -11.8578   20.5579 C   0  0  0  0  0  0  0  0  0  0  0  0
  -21.2227  -18.6981   18.6309 C   0  0  0  0  0  0  0  0  0  0  0  0
  -29.7995  -28.6291   18.6536 C   0  0  0  0  0  0  0  0  0  0  0  0
  -21.2909  -26.3949   19.4209 C   0  0  0  0  0  0  0  0  0  0  0  0
  -30.1896  -25.4316   19.0361 C   0  0  0  0  0  0  0  0  0  0  0  0
  -28.7754  -22.4015   19.7181 C   0  0  0  0  0  0  0  0  0  0  0  0
  -34.2103  -29.5901   16.2705 C   0  0  0  0  0  0  0  0  0  0  0  0
  -28.6921  -28.2505   20.8866 C   0  0  0  0  0  0  0  0  0  0  0  0
  -27.8146  -26.2675   18.8759 C   0  0  0  0  0  0  0  0  0  0  0  0
  -33.1134  -28.5350   16.1534 C   0  0  0  0  0  0  0  0  0  0  0  0
  -23.9713  -19.2375   20.9944 C   0  0  0  0  0  0  0  0  0  0  0  0
  -31.7396  -29.1961   16.1048 C   0  0  0  0  0  0  0  0  0  0  0  0
  -24.6479  -17.8694   20.9751 C   0  0  0  0  0  0  0  0  0  0  0  0
  -23.3886  -19.6064   19.6309 C   0  0  0  0  0  0  0  0  0  0  0  0
  -23.1374  -17.2078   19.0617 C   0  0  0  0  0  0  0  0  0  0  0  0
  -31.4607  -29.9840   17.3905 C   0  0  1  0  0  0  0  0  0  0  0  0
  -29.6452  -27.7045   19.8279 C   0  0  1  0  0  0  0  0  0  0  0  0
  -23.6897  -16.7958   20.4352 C   0  0  1  0  0  0  0  0  0  0  0  0
  -15.0899  -22.7536   18.3055 C   0  0  0  0  0  0  0  0  0  0  0  0
  -16.2330  -25.7568   17.5186 C   0  0  0  0  0  0  0  0  0  0  0  0
  -29.3404  -19.9649   19.9213 C   0  0  0  0  0  0  0  0  0  0  0  0
  -30.3155  -25.2097   15.9955 C   0  0  0  0  0  0  0  0  0  0  0  0
  -29.9228  -22.7481   16.2285 C   0  0  0  0  0  0  0  0  0  0  0  0
  -31.9675  -23.7820   17.2150 C   0  0  0  0  0  0  0  0  0  0  0  0
  -27.9401  -22.3254   22.5563 C   0  0  0  0  0  0  0  0  0  0  0  0
  -16.5233  -25.2202   18.9162 C   0  0  0  0  0  0  0  0  0  0  0  0
  -22.7507  -26.5694   19.0555 C   0  0  0  0  0  0  0  0  0  1  0  0
  -20.6735  -25.0606   19.0555 C   0  0  0  0  0  0  0  0  0  0  0  0
  -29.7212  -24.2015   18.2969 C   0  0  1  0  0  0  0  0  0  0  0  0
  -29.1900  -21.2856   20.6601 C   0  0  2  0  0  0  0  0  0  0  0  0
  -30.4633  -24.0040   16.9449 C   0  0  0  0  0  0  0  0  0  0  0  0
  -25.6631  -15.3421   20.1606 N   0  0  0  0  0  0  0  0  0  0  0  0
  -24.3425  -15.4263   20.3948 N   0  0  0  0  0  0  0  0  0  0  0  0
  -22.5221  -18.5389   19.1092 N   0  0  0  0  0  0  0  0  0  0  0  0
  -29.2181  -26.4082   19.2975 N   0  0  0  0  0  0  0  0  0  0  0  0
  -22.4123  -14.1204   20.8187 N   0  0  0  0  0  0  0  0  0  0  0  0
  -25.6854  -11.0369   20.4008 N   0  0  0  0  0  0  0  0  0  0  0  0
  -31.0896  -29.0860   18.4630 N   0  0  0  0  0  0  0  0  0  0  0  0
  -29.8664  -23.0866   19.2266 N   0  0  0  0  0  0  0  0  0  0  0  0
  -28.1722  -21.1098   21.7344 N   0  3  0  0  0  0  0  0  0  0  0  0
  -23.4421  -11.3321   20.7733 O   0  0  0  0  0  0  0  0  0  0  0  0
  -20.5171  -17.7850   18.1985 O   0  0  0  0  0  0  0  0  0  0  0  0
  -28.8209  -28.9062   17.9701 O   0  0  0  0  0  0  0  0  0  0  0  0
  -20.6468  -27.2818   19.9792 O   0  0  0  0  0  0  0  0  0  0  0  0
  -31.3723  -25.5195   19.3755 O   0  0  0  0  0  0  0  0  0  0  0  0
  -27.6015  -22.6390   19.4427 O   0  0  0  0  0  0  0  0  0  0  0  0
  -31.0637  -12.0618   19.3715 O   0  0  0  0  0  0  0  0  0  0  0  0
  -23.2232  -27.8527   19.4634 O   0  0  0  0  0  0  0  0  0  1  0  0
  -19.3131  -25.0197   19.4314 O   0  0  0  0  0  0  0  0  0  0  0  0
  -35.2075  -14.5781   21.9985 F   0  0  0  0  0  0  0  0  0  0  0  0
  -31.5930  -14.7417   18.9466 F   0  0  0  0  0  0  0  0  0  0  0  0
  1  2  1  0  0  0  0
  1  5  2  0  0  0  0
  2  6  2  0  0  0  0
  3  8  2  0  0  0  0
  3 17  1  0  0  0  0
  4  9  1  0  0  0  0
  4 17  2  0  0  0  0
  5 20  1  0  0  0  0
  6 22  1  0  0  0  0
  7 10  2  0  0  0  0
  7 21  1  0  0  0  0
  8 26  1  0  0  0  0
  9 26  2  0  0  0  0
 10 27  1  0  0  0  0
 11 12  2  0  0  0  0
 11 28  1  0  0  0  0
 12 30  1  0  0  0  0
 13 18  1  0  0  0  0
 13 24  2  0  0  0  0
 14 18  2  0  0  0  0
 14 29  1  0  0  0  0
 15 23  1  0  0  0  0
 15 27  2  0  0  0  0
 16 30  2  0  0  0  0
 16 31  1  0  0  0  0
 17 32  1  0  0  0  0
 18 34  1  0  0  0  0
 19 32  1  0  0  0  0
 19 33  2  0  0  0  0
 19 36  1  0  0  0  0
 20 22  2  0  0  0  0
 20 42  1  0  0  0  0
 21 23  2  0  0  0  0
 21 43  1  0  0  0  0
 22 51  1  0  0  0  0
 23 44  1  0  0  0  0
 24 25  1  0  0  0  0
 24 54  1  0  0  0  0
 25 29  2  0  0  0  0
 25 61  1  0  0  0  0
 26 82  1  0  0  0  0
 27 83  1  0  0  0  0
 28 31  2  0  0  0  0
 28 82  1  0  0  0  0
 29 84  1  0  0  0  0
 30 85  1  0  0  0  0
 31 86  1  0  0  0  0
 32 67  2  0  0  0  0
 33 68  1  0  0  0  0
 33 71  1  0  0  0  0
 34 35  2  0  0  0  0
 35 37  1  0  0  0  0
 36 72  1  0  0  0  0
 36 76  2  0  0  0  0
 37 69  1  0  0  0  0
 37 77  2  0  0  0  0
 38 52  1  0  0  0  0
 38 73  1  0  0  0  0
 38 78  2  0  0  0  0
 39 62  1  0  0  0  0
 39 63  1  0  0  0  0
 39 79  2  0  0  0  0
 40 64  1  0  0  0  0
 40 70  1  0  0  0  0
 40 80  2  0  0  0  0
 41 65  1  0  0  0  0
 41 74  1  0  0  0  0
 41 81  2  0  0  0  0
 42 45  1  0  0  0  0
 43 52  1  0  0  0  0
 44 70  1  0  0  0  0
 45 47  1  0  0  0  0
 46 48  1  0  0  0  0
 46 49  1  0  0  0  0
 47 51  1  0  0  0  0
 48 53  1  0  0  0  0
 49 69  1  0  0  0  0
 50 53  1  0  0  0  0
 50 69  1  0  0  0  0
 51 73  1  0  0  0  0
 52 70  1  0  0  0  0
 53 68  1  0  0  0  0
 55 61  1  0  0  0  0
 56 65  1  0  0  0  0
 57 66  1  0  0  0  0
 58 66  1  0  0  0  0
 59 66  1  0  0  0  0
 60 75  1  0  0  0  0
 62 83  1  0  0  0  0
 63 84  1  0  0  0  0
 64 66  1  0  0  0  0
 64 74  1  0  0  0  0
 65 75  1  0  0  0  0
 67 68  1  0  0  0  0
M  CHG  1  75   1
M  ISO  4  35 100  37 100  62 101  83 101
M  END
> <Batch ID>
0130

> <Smiles>
CCc1c(C)cc(C=[100CH:0][100C:0](=O)N2CCCC(n3nc(-c4ccc(Oc5ccc(F)cc5F)cc4)c(C(N)=O)c3N)C2)cc1OCC(=O)[101CH2:1][101O:1]c1ccc2c(c1)CN(C(=O)C(NC(=O)C(C)NC)C(C)(C)C)C(C(=O)NC1CCCc3ccccc31)C2

> <Shape>
0.222

> <Color>
0.079

> <Negative vol penalty>
0.000

$$$$

  -OEChem-04052302223D

 85 93  0     1  0  0  0  0  0999 V2000
  -16.7358  -29.9262   23.2132 C   0  0  0  0  0  0  0  0  0  0  0  0
  -17.8301  -30.3831   22.4857 C   0  0  0  0  0  0  0  0  0  0  0  0
  -32.2430  -23.4310   24.2113 C   0  0  0  0  0  0  0  0  0  0  0  0
  -26.5317  -13.0602   20.6019 C   0  0  0  0  0  0  0  0  0  0  0  0
  -24.8660  -14.7991   20.4050 C   0  0  0  0  0  0  0  0  0  0  0  0
  -32.1836  -24.0865   22.9815 C   0  0  0  0  0  0  0  0  0  0  0  0
  -16.9074  -28.9371   24.1808 C   0  0  0  0  0  0  0  0  0  0  0  0
  -19.0968  -29.8520   22.7262 C   0  0  0  0  0  0  0  0  0  0  0  0
  -25.2138  -28.2575   19.3563 C   0  0  0  0  0  0  0  0  0  0  0  0
  -31.2825  -22.4738   24.5385 C   0  0  0  0  0  0  0  0  0  0  0  0
  -25.5703  -12.1027   20.2789 C   0  0  0  0  0  0  0  0  0  0  0  0
  -23.9046  -13.8415   20.0820 C   0  0  0  0  0  0  0  0  0  0  0  0
  -26.5867  -28.4802   19.4534 C   0  0  0  0  0  0  0  0  0  0  0  0
  -23.4721   -9.1626   19.8581 C   0  0  0  0  0  0  0  0  0  0  0  0
  -23.4322   -7.9975   20.6240 C   0  0  0  0  0  0  0  0  0  0  0  0
  -26.7501  -26.7193   21.0941 C   0  0  0  0  0  0  0  0  0  0  0  0
  -23.0064   -9.3140   22.6045 C   0  0  0  0  0  0  0  0  0  0  0  0
  -26.1796  -14.4085   20.6650 C   0  0  0  0  0  0  0  0  0  0  0  0
  -31.1638  -23.7850   22.0790 C   0  0  0  0  0  0  0  0  0  0  0  0
  -28.0080  -16.0982   20.1085 C   0  0  0  0  0  0  0  0  0  0  0  0
  -18.1752  -28.3868   24.4266 C   0  0  0  0  0  0  0  0  0  0  0  0
  -24.5960  -27.2697   20.1368 C   0  0  0  0  0  0  0  0  0  0  0  0
  -19.2856  -28.8556   23.6989 C   0  0  0  0  0  0  0  0  0  0  0  0
  -25.3697  -26.4843   21.0032 C   0  0  0  0  0  0  0  0  0  0  0  0
  -30.2033  -22.8278   22.4062 C   0  0  0  0  0  0  0  0  0  0  0  0
  -30.2627  -22.1723   23.6360 C   0  0  0  0  0  0  0  0  0  0  0  0
  -24.2567  -12.4933   20.0190 C   0  0  0  0  0  0  0  0  0  0  0  0
  -27.3546  -27.7130   20.3245 C   0  0  0  0  0  0  0  0  0  0  0  0
  -23.2792  -10.4035   20.4654 C   0  0  0  0  0  0  0  0  0  0  0  0
  -23.1993   -8.0732   21.9972 C   0  0  0  0  0  0  0  0  0  0  0  0
  -23.0463  -10.4792   21.8386 C   0  0  0  0  0  0  0  0  0  0  0  0
  -27.1722  -15.3981   20.9991 C   0  0  0  0  0  0  0  0  0  0  0  0
  -28.7629  -16.9138   20.9155 C   0  0  0  0  0  0  0  0  0  0  0  0
  -31.1319  -24.4970   20.7892 C   0  0  0  0  0  0  0  0  0  0  0  0
  -31.0001  -25.8242   20.6554 C   0  0  0  0  0  0  0  0  0  0  0  0
  -28.0942  -16.0184   18.6796 C   0  0  0  0  0  0  0  0  0  0  0  0
  -30.9692  -26.4492   19.2994 C   0  0  0  0  0  0  0  0  0  0  0  0
  -22.3551  -27.2679   22.3910 C   0  0  0  0  0  0  0  0  0  0  0  0
  -22.6453  -24.0477   22.1295 C   0  0  0  0  0  0  0  0  0  0  0  0
  -24.5747  -21.3748   21.2461 C   0  0  0  0  0  0  0  0  0  0  0  0
  -29.2303  -20.4673   25.1766 C   0  0  0  0  0  0  0  0  0  0  0  0
  -18.3193  -27.3533   25.5156 C   0  0  0  0  0  0  0  0  0  0  0  0
  -23.1184  -27.0239   20.0007 C   0  0  0  0  0  0  0  0  0  0  0  0
  -24.7579  -25.3977   21.8479 C   0  0  0  0  0  0  0  0  0  0  0  0
  -19.6314  -26.5761   25.4480 C   0  0  0  0  0  0  0  0  0  0  0  0
  -29.2903  -16.9922   25.9492 C   0  0  0  0  0  0  0  0  0  0  0  0
  -20.8053  -27.5276   25.2393 C   0  0  0  0  0  0  0  0  0  0  0  0
  -28.8134  -16.3252   24.6569 C   0  0  0  0  0  0  0  0  0  0  0  0
  -28.5612  -18.3089   26.2104 C   0  0  0  0  0  0  0  0  0  0  0  0
  -28.1140  -18.5995   23.8052 C   0  0  0  0  0  0  0  0  0  0  0  0
  -20.6714  -28.2865   23.9136 C   0  0  1  0  0  0  0  0  0  0  0  0
  -22.5118  -26.3382   21.2211 C   0  0  1  0  0  0  0  0  0  0  0  0
  -28.8659  -17.3022   23.4659 C   0  0  2  0  0  0  0  0  0  0  0  0
  -29.3526  -21.1808   20.7180 C   0  0  0  0  0  0  0  0  0  0  0  0
  -25.1665  -18.9785   20.7940 C   0  0  0  0  0  0  0  0  0  0  0  0
  -23.0986  -23.9690   25.1458 C   0  0  0  0  0  0  0  0  0  0  0  0
  -23.9967  -21.6472   24.8801 C   0  0  0  0  0  0  0  0  0  0  0  0
  -21.6316  -22.1459   24.2635 C   0  0  0  0  0  0  0  0  0  0  0  0
  -23.6379  -21.5511   18.4443 C   0  0  0  0  0  0  0  0  0  0  0  0
  -29.1048  -22.4987   21.4417 C   0  0  0  0  0  0  0  0  0  0  0  0
  -30.8157  -27.9624   19.2837 C   0  0  0  0  0  0  0  0  0  0  0  0
  -29.3614  -28.4098   19.2554 C   0  0  0  0  0  0  0  0  0  1  0  0
  -23.5021  -22.9943   22.7893 C   0  0  1  0  0  0  0  0  0  0  0  0
  -24.2700  -20.1452   20.4097 C   0  0  2  0  0  0  0  0  0  0  0  0
  -23.0688  -22.7108   24.2553 C   0  0  0  0  0  0  0  0  0  0  0  0
  -27.3767  -15.7390   22.2742 N   0  0  0  0  0  0  0  0  0  0  0  0
  -28.3497  -16.6623   22.1907 N   0  0  0  0  0  0  0  0  0  0  0  0
  -23.3083  -25.1999   21.6839 N   0  0  0  0  0  0  0  0  0  0  0  0
  -28.6570  -19.1853   25.0409 N   0  0  0  0  0  0  0  0  0  0  0  0
  -29.7332  -17.8145   20.6516 N   0  0  0  0  0  0  0  0  0  0  0  0
  -27.2454  -15.1282   18.0077 N   0  0  0  0  0  0  0  0  0  0  0  0
  -29.2973  -21.1975   23.9905 N   0  0  0  0  0  0  0  0  0  0  0  0
  -21.0473  -27.4365   22.8044 N   0  0  0  0  0  0  0  0  0  0  0  0
  -23.4574  -21.8262   21.9164 N   0  0  0  0  0  0  0  0  0  0  0  0
  -24.4751  -20.4390   18.9631 N   0  3  0  0  0  0  0  0  0  0  0  0
  -28.9115  -16.7038   18.0195 O   0  0  0  0  0  0  0  0  0  0  0  0
  -31.0635  -25.7771   18.2760 O   0  0  0  0  0  0  0  0  0  0  0  0
  -23.3472  -27.7922   22.8833 O   0  0  0  0  0  0  0  0  0  0  0  0
  -21.4335  -23.8521   22.0072 O   0  0  0  0  0  0  0  0  0  0  0  0
  -25.6928  -21.8818   21.3024 O   0  0  0  0  0  0  0  0  0  0  0  0
  -29.6570  -20.8761   26.2596 O   0  0  0  0  0  0  0  0  0  0  0  0
  -23.3184  -11.5592   19.7036 O   0  0  0  0  0  0  0  0  0  0  0  0
  -28.6947  -27.9287   20.4217 O   0  0  0  0  0  0  0  0  0  1  0  0
  -23.1594   -6.9542   22.7323 F   0  0  0  0  0  0  0  0  0  0  0  0
  -22.8592  -11.6683   22.4275 F   0  0  0  0  0  0  0  0  0  0  0  0
  1  2  1  0  0  0  0
  1  7  2  0  0  0  0
  2  8  2  0  0  0  0
  3  6  1  0  0  0  0
  3 10  2  0  0  0  0
  4 11  2  0  0  0  0
  4 18  1  0  0  0  0
  5 12  1  0  0  0  0
  5 18  2  0  0  0  0
  6 19  2  0  0  0  0
  7 21  1  0  0  0  0
  8 23  1  0  0  0  0
  9 13  2  0  0  0  0
  9 22  1  0  0  0  0
 10 26  1  0  0  0  0
 11 27  1  0  0  0  0
 12 27  2  0  0  0  0
 13 28  1  0  0  0  0
 14 15  2  0  0  0  0
 14 29  1  0  0  0  0
 15 30  1  0  0  0  0
 16 24  1  0  0  0  0
 16 28  2  0  0  0  0
 17 30  2  0  0  0  0
 17 31  1  0  0  0  0
 18 32  1  0  0  0  0
 19 25  1  0  0  0  0
 19 34  1  0  0  0  0
 20 32  1  0  0  0  0
 20 33  2  0  0  0  0
 20 36  1  0  0  0  0
 21 23  2  0  0  0  0
 21 42  1  0  0  0  0
 22 24  2  0  0  0  0
 22 43  1  0  0  0  0
 23 51  1  0  0  0  0
 24 44  1  0  0  0  0
 25 26  2  0  0  0  0
 25 60  1  0  0  0  0
 26 72  1  0  0  0  0
 27 82  1  0  0  0  0
 28 83  1  0  0  0  0
 29 31  2  0  0  0  0
 29 82  1  0  0  0  0
 30 84  1  0  0  0  0
 31 85  1  0  0  0  0
 32 66  2  0  0  0  0
 33 67  1  0  0  0  0
 33 70  1  0  0  0  0
 34 35  2  0  0  0  0
 35 37  1  0  0  0  0
 36 71  1  0  0  0  0
 36 76  2  0  0  0  0
 37 61  1  0  0  0  0
 37 77  2  0  0  0  0
 38 52  1  0  0  0  0
 38 73  1  0  0  0  0
 38 78  2  0  0  0  0
 39 63  1  0  0  0  0
 39 68  1  0  0  0  0
 39 79  2  0  0  0  0
 40 64  1  0  0  0  0
 40 74  1  0  0  0  0
 40 80  2  0  0  0  0
 41 69  1  0  0  0  0
 41 72  1  0  0  0  0
 41 81  2  0  0  0  0
 42 45  1  0  0  0  0
 43 52  1  0  0  0  0
 44 68  1  0  0  0  0
 45 47  1  0  0  0  0
 46 48  1  0  0  0  0
 46 49  1  0  0  0  0
 47 51  1  0  0  0  0
 48 53  1  0  0  0  0
 49 69  1  0  0  0  0
 50 53  1  0  0  0  0
 50 69  1  0  0  0  0
 51 73  1  0  0  0  0
 52 68  1  0  0  0  0
 53 67  1  0  0  0  0
 54 60  1  0  0  0  0
 55 64  1  0  0  0  0
 56 65  1  0  0  0  0
 57 65  1  0  0  0  0
 58 65  1  0  0  0  0
 59 75  1  0  0  0  0
 61 62  1  0  0  0  0
 62 83  1  0  0  0  0
 63 65  1  0  0  0  0
 63 74  1  0  0  0  0
 64 75  1  0  0  0  0
 66 67  1  0  0  0  0
M  CHG  1  75   1
M  ISO  4  41 100  62 101  72 100  83 101
M  END
> <Batch ID>
0130

> <Smiles>
CCc1c(C=CC(=O)C[101CH2:1][101O:1]c2ccc3c(c2)CN(C(=O)C(NC(=O)C(C)NC)C(C)(C)C)C(C(=O)NC2CCCc4ccccc42)C3)cccc1[100NH:0][100C:0](=O)N1CCCC(n2nc(-c3ccc(Oc4ccc(F)cc4F)cc3)c(C(N)=O)c2N)C1

> <Shape>
0.210

> <Color>
0.079

> <Negative vol penalty>
0.000

$$$$

  -OEChem-04052302223D

 87 95  0     1  0  0  0  0  0999 V2000
  -15.6483  -21.5747   27.1967 C   0  0  0  0  0  0  0  0  0  0  0  0
  -17.0302  -21.5433   27.3544 C   0  0  0  0  0  0  0  0  0  0  0  0
  -29.6747  -20.0511   20.2079 C   0  0  0  0  0  0  0  0  0  0  0  0
  -23.1703   -9.7134   19.8789 C   0  0  0  0  0  0  0  0  0  0  0  0
  -23.9482   -9.7024   22.1662 C   0  0  0  0  0  0  0  0  0  0  0  0
  -30.1000  -18.7555   20.5010 C   0  0  0  0  0  0  0  0  0  0  0  0
  -15.0901  -22.1715   26.0670 C   0  0  0  0  0  0  0  0  0  0  0  0
  -17.8548  -22.1078   26.3818 C   0  0  0  0  0  0  0  0  0  0  0  0
  -23.1847  -24.9836   27.2914 C   0  0  0  0  0  0  0  0  0  0  0  0
  -29.5210  -20.9836   21.2338 C   0  0  0  0  0  0  0  0  0  0  0  0
  -22.4882   -8.5179   20.1051 C   0  0  0  0  0  0  0  0  0  0  0  0
  -23.2661   -8.5069   22.3925 C   0  0  0  0  0  0  0  0  0  0  0  0
  -24.5089  -24.5609   27.1838 C   0  0  0  0  0  0  0  0  0  0  0  0
  -20.0880   -7.5305   22.9979 C   0  0  0  0  0  0  0  0  0  0  0  0
  -19.3440   -7.4230   24.1728 C   0  0  0  0  0  0  0  0  0  0  0  0
  -24.6099  -25.4659   24.9500 C   0  0  0  0  0  0  0  0  0  0  0  0
  -20.6886   -5.5339   24.8514 C   0  0  0  0  0  0  0  0  0  0  0  0
  -23.9003  -10.3057   20.9094 C   0  0  0  0  0  0  0  0  0  0  0  0
  -30.3716  -18.3923   21.8201 C   0  0  0  0  0  0  0  0  0  0  0  0
  -24.1121  -12.8472   20.8505 C   0  0  0  0  0  0  0  0  0  0  0  0
  -15.9079  -22.7521   25.0848 C   0  0  0  0  0  0  0  0  0  0  0  0
  -22.5587  -25.6421   26.2233 C   0  0  0  0  0  0  0  0  0  0  0  0
  -17.3070  -22.7117   25.2372 C   0  0  0  0  0  0  0  0  0  0  0  0
  -23.2785  -25.8983   25.0475 C   0  0  0  0  0  0  0  0  0  0  0  0
  -30.2179  -19.3247   22.8461 C   0  0  0  0  0  0  0  0  0  0  0  0
  -22.5361   -7.9147   21.3619 C   0  0  0  0  0  0  0  0  0  0  0  0
  -25.2209  -24.7994   26.0119 C   0  0  0  0  0  0  0  0  0  0  0  0
  -29.7926  -20.6204   22.5529 C   0  0  0  0  0  0  0  0  0  0  0  0
  -21.1323   -6.6397   22.7496 C   0  0  0  0  0  0  0  0  0  0  0  0
  -19.6443   -6.4247   25.0996 C   0  0  0  0  0  0  0  0  0  0  0  0
  -21.4326   -5.6414   23.6764 C   0  0  0  0  0  0  0  0  0  0  0  0
  -24.6055  -11.5403   20.6762 C   0  0  0  0  0  0  0  0  0  0  0  0
  -25.1615  -13.6603   20.4983 C   0  0  0  0  0  0  0  0  0  0  0  0
  -31.9480  -20.2795   25.8291 C   0  0  0  0  0  0  0  0  0  0  0  0
  -31.8195  -19.4856   24.7600 C   0  0  0  0  0  0  0  0  0  0  0  0
  -30.8145  -17.0320   22.0957 C   0  0  0  0  0  0  0  0  0  0  0  0
  -22.8206  -13.2868   21.2913 C   0  0  0  0  0  0  0  0  0  0  0  0
  -20.0529  -25.0261   24.3672 C   0  0  0  0  0  0  0  0  0  0  0  0
  -28.0601  -22.9860   24.6773 C   0  0  0  0  0  0  0  0  0  0  0  0
  -30.6127  -14.8857   20.7680 C   0  0  0  0  0  0  0  0  0  0  0  0
  -20.6522  -28.0059   23.2341 C   0  0  0  0  0  0  0  0  0  0  0  0
  -22.9039  -30.5257   22.7575 C   0  0  0  0  0  0  0  0  0  0  0  0
  -15.2604  -23.3438   23.8579 C   0  0  0  0  0  0  0  0  0  0  0  0
  -21.1381  -26.1154   26.3651 C   0  0  0  0  0  0  0  0  0  0  0  0
  -22.6587  -26.6193   23.8794 C   0  0  0  0  0  0  0  0  0  0  0  0
  -16.1901  -24.2509   23.0560 C   0  0  0  0  0  0  0  0  0  0  0  0
  -29.5453  -12.5949   18.2277 C   0  0  0  0  0  0  0  0  0  0  0  0
  -17.5506  -23.5876   22.8668 C   0  0  0  0  0  0  0  0  0  0  0  0
  -28.1364  -12.2006   18.6689 C   0  0  0  0  0  0  0  0  0  0  0  0
  -30.4644  -12.8146   19.4253 C   0  0  0  0  0  0  0  0  0  0  0  0
  -28.5380  -13.4162   20.8566 C   0  0  0  0  0  0  0  0  0  0  0  0
  -18.2338  -23.3353   24.2162 C   0  0  1  0  0  0  0  0  0  0  0  0
  -20.4400  -26.3207   25.0243 C   0  0  1  0  0  0  0  0  0  0  0  0
  -27.5691  -13.2146   19.6781 C   0  0  2  0  0  0  0  0  0  0  0  0
  -23.1093  -32.8231   21.7689 C   0  0  0  0  0  0  0  0  0  0  0  0
  -20.7155  -26.7930   20.4350 C   0  0  0  0  0  0  0  0  0  0  0  0
  -21.8380  -28.8816   19.6311 C   0  0  0  0  0  0  0  0  0  0  0  0
  -19.5386  -28.9941   20.5918 C   0  0  0  0  0  0  0  0  0  0  0  0
  -23.6144  -31.7141   25.3732 C   0  0  0  0  0  0  0  0  0  0  0  0
  -30.5061  -18.9437   24.2636 C   0  0  0  0  0  0  0  0  0  0  0  0
  -29.9428  -15.8227   21.7413 C   0  0  0  0  0  0  0  0  0  0  0  0
  -26.9788  -24.0442   24.5994 C   0  0  0  0  0  0  0  0  0  1  0  0
  -28.6517  -22.5474   23.3535 C   0  0  0  0  0  0  0  0  0  0  0  0
  -21.5041  -28.5772   22.1265 C   0  0  1  0  0  0  0  0  0  0  0  0
  -22.8179  -32.0174   23.0254 C   0  0  2  0  0  0  0  0  0  0  0  0
  -20.9104  -28.2962   20.7172 C   0  0  0  0  0  0  0  0  0  0  0  0
  -25.8701  -11.5196   20.2466 N   0  0  0  0  0  0  0  0  0  0  0  0
  -31.9797  -16.7903   22.6497 N   0  0  0  0  0  0  0  0  0  0  0  0
  -26.1800  -12.8236   20.1479 N   0  0  0  0  0  0  0  0  0  0  0  0
  -21.2652  -27.0567   24.0643 N   0  0  0  0  0  0  0  0  0  0  0  0
  -29.8800  -13.7669   20.3712 N   0  0  0  0  0  0  0  0  0  0  0  0
  -25.3032  -15.0021   20.4573 N   0  0  0  0  0  0  0  0  0  0  0  0
  -21.8591  -12.3191   21.6129 N   0  0  0  0  0  0  0  0  0  0  0  0
  -18.8034  -24.5618   24.7315 N   0  0  0  0  0  0  0  0  0  0  0  0
  -21.6743  -29.9936   22.4316 N   0  0  0  0  0  0  0  0  0  0  0  0
  -23.7991  -32.4126   24.0752 N   0  3  0  0  0  0  0  0  0  0  0  0
  -22.5224  -14.5020   21.3813 O   0  0  0  0  0  0  0  0  0  0  0  0
  -20.8297  -24.4889   23.5863 O   0  0  0  0  0  0  0  0  0  0  0  0
  -28.4340  -22.5120   25.7491 O   0  0  0  0  0  0  0  0  0  0  0  0
  -31.7521  -15.1436   20.3711 O   0  0  0  0  0  0  0  0  0  0  0  0
  -19.4880  -28.3929   23.3625 O   0  0  0  0  0  0  0  0  0  0  0  0
  -23.9572  -29.8962   22.8265 O   0  0  0  0  0  0  0  0  0  0  0  0
  -21.8705   -6.7482   21.5830 O   0  0  0  0  0  0  0  0  0  0  0  0
  -26.5133  -24.3873   25.9039 O   0  0  0  0  0  0  0  0  0  1  0  0
  -29.6351  -21.5534   23.5503 O   0  0  0  0  0  0  0  0  0  0  0  0
  -18.9307   -6.3225   26.2285 F   0  0  0  0  0  0  0  0  0  0  0  0
  -22.4354   -4.7834   23.4440 F   0  0  0  0  0  0  0  0  0  0  0  0
  1  2  1  0  0  0  0
  1  7  2  0  0  0  0
  2  8  2  0  0  0  0
  3  6  2  0  0  0  0
  3 10  1  0  0  0  0
  4 11  2  0  0  0  0
  4 18  1  0  0  0  0
  5 12  1  0  0  0  0
  5 18  2  0  0  0  0
  6 19  1  0  0  0  0
  7 21  1  0  0  0  0
  8 23  1  0  0  0  0
  9 13  2  0  0  0  0
  9 22  1  0  0  0  0
 10 28  2  0  0  0  0
 11 26  1  0  0  0  0
 12 26  2  0  0  0  0
 13 27  1  0  0  0  0
 14 15  2  0  0  0  0
 14 29  1  0  0  0  0
 15 30  1  0  0  0  0
 16 24  1  0  0  0  0
 16 27  2  0  0  0  0
 17 30  2  0  0  0  0
 17 31  1  0  0  0  0
 18 32  1  0  0  0  0
 19 25  2  0  0  0  0
 19 36  1  0  0  0  0
 20 32  1  0  0  0  0
 20 33  2  0  0  0  0
 20 37  1  0  0  0  0
 21 23  2  0  0  0  0
 21 43  1  0  0  0  0
 22 24  2  0  0  0  0
 22 44  1  0  0  0  0
 23 52  1  0  0  0  0
 24 45  1  0  0  0  0
 25 28  1  0  0  0  0
 25 60  1  0  0  0  0
 26 83  1  0  0  0  0
 27 84  1  0  0  0  0
 28 85  1  0  0  0  0
 29 31  2  0  0  0  0
 29 83  1  0  0  0  0
 30 86  1  0  0  0  0
 31 87  1  0  0  0  0
 32 67  2  0  0  0  0
 33 69  1  0  0  0  0
 33 72  1  0  0  0  0
 34 35  2  0  0  0  0
 35 60  1  0  0  0  0
 36 61  1  0  0  0  0
 36 68  2  0  0  0  0
 37 73  1  0  0  0  0
 37 77  2  0  0  0  0
 38 53  1  0  0  0  0
 38 74  1  0  0  0  0
 38 78  2  0  0  0  0
 39 62  1  0  0  0  0
 39 63  1  0  0  0  0
 39 79  2  0  0  0  0
 40 61  1  0  0  0  0
 40 71  1  0  0  0  0
 40 80  2  0  0  0  0
 41 64  1  0  0  0  0
 41 70  1  0  0  0  0
 41 81  2  0  0  0  0
 42 65  1  0  0  0  0
 42 75  1  0  0  0  0
 42 82  2  0  0  0  0
 43 46  1  0  0  0  0
 44 53  1  0  0  0  0
 45 70  1  0  0  0  0
 46 48  1  0  0  0  0
 47 49  1  0  0  0  0
 47 50  1  0  0  0  0
 48 52  1  0  0  0  0
 49 54  1  0  0  0  0
 50 71  1  0  0  0  0
 51 54  1  0  0  0  0
 51 71  1  0  0  0  0
 52 74  1  0  0  0  0
 53 70  1  0  0  0  0
 54 69  1  0  0  0  0
 55 65  1  0  0  0  0
 56 66  1  0  0  0  0
 57 66  1  0  0  0  0
 58 66  1  0  0  0  0
 59 76  1  0  0  0  0
 62 84  1  0  0  0  0
 63 85  1  0  0  0  0
 64 66  1  0  0  0  0
 64 75  1  0  0  0  0
 65 76  1  0  0  0  0
 67 69  1  0  0  0  0
M  CHG  1  76   1
M  ISO  4  40 100  61 100  62 101  84 101
M  END
> <Batch ID>
0130

> <Smiles>
C=CCc1c(OCC(=O)[101CH2:1][101O:1]c2ccc3c(c2)CN(C(=O)C(NC(=O)C(C)NC)C(C)(C)C)C(C(=O)NC2CCCc4ccccc42)C3)cccc1C(=N)[100CH2:0][100C:0](=O)N1CCCC(n2nc(-c3ccc(Oc4ccc(F)cc4F)cc3)c(C(N)=O)c2N)C1

> <Shape>
0.266

> <Color>
0.192

> <Negative vol penalty>
0.000

$$$$

  -OEChem-04052302223D

 84 92  0     1  0  0  0  0  0999 V2000
  -28.4328  -36.3895   22.8606 C   0  0  0  0  0  0  0  0  0  0  0  0
  -28.7289  -35.2191   22.1694 C   0  0  0  0  0  0  0  0  0  0  0  0
  -23.0044  -10.6814   21.8385 C   0  0  0  0  0  0  0  0  0  0  0  0
  -24.7213   -9.0173   21.4922 C   0  0  0  0  0  0  0  0  0  0  0  0
  -30.1112  -19.8394   16.8492 C   0  0  0  0  0  0  0  0  0  0  0  0
  -30.7951  -20.7433   16.0363 C   0  0  0  0  0  0  0  0  0  0  0  0
  -27.6025  -36.3457   23.9799 C   0  0  0  0  0  0  0  0  0  0  0  0
  -28.1958  -34.0039   22.5978 C   0  0  0  0  0  0  0  0  0  0  0  0
  -26.4553  -29.3029   19.0797 C   0  0  0  0  0  0  0  0  0  0  0  0
  -22.0256   -9.6930   21.7357 C   0  0  0  0  0  0  0  0  0  0  0  0
  -23.7425   -8.0288   21.3895 C   0  0  0  0  0  0  0  0  0  0  0  0
  -27.0878  -28.1121   18.7251 C   0  0  0  0  0  0  0  0  0  0  0  0
  -21.7931   -6.2291   23.4827 C   0  0  0  0  0  0  0  0  0  0  0  0
  -22.0045   -5.0357   24.1731 C   0  0  0  0  0  0  0  0  0  0  0  0
  -30.5053  -21.2616   18.7621 C   0  0  0  0  0  0  0  0  0  0  0  0
  -25.9276  -26.9724   20.5067 C   0  0  0  0  0  0  0  0  0  0  0  0
  -21.9274   -3.8163   22.0888 C   0  0  0  0  0  0  0  0  0  0  0  0
  -24.3522  -10.3436   21.7166 C   0  0  0  0  0  0  0  0  0  0  0  0
  -29.9663  -20.0986   18.2121 C   0  0  0  0  0  0  0  0  0  0  0  0
  -31.3341  -21.9064   16.5862 C   0  0  0  0  0  0  0  0  0  0  0  0
  -26.0178  -11.7953   22.9918 C   0  0  0  0  0  0  0  0  0  0  0  0
  -27.0512  -35.1308   24.4164 C   0  0  0  0  0  0  0  0  0  0  0  0
  -25.5610  -29.3398   20.1591 C   0  0  0  0  0  0  0  0  0  0  0  0
  -27.3585  -33.9436   23.7247 C   0  0  0  0  0  0  0  0  0  0  0  0
  -25.2831  -28.1643   20.8713 C   0  0  0  0  0  0  0  0  0  0  0  0
  -31.1892  -22.1655   17.9492 C   0  0  0  0  0  0  0  0  0  0  0  0
  -22.3946   -8.3667   21.5113 C   0  0  0  0  0  0  0  0  0  0  0  0
  -26.8262  -26.9472   19.4404 C   0  0  0  0  0  0  0  0  0  0  0  0
  -21.6488   -6.2162   22.0953 C   0  0  0  0  0  0  0  0  0  0  0  0
  -22.0717   -3.8293   23.4762 C   0  0  0  0  0  0  0  0  0  0  0  0
  -21.7160   -5.0098   21.3984 C   0  0  0  0  0  0  0  0  0  0  0  0
  -25.3638  -11.3643   21.8220 C   0  0  0  0  0  0  0  0  0  0  0  0
  -26.8806  -12.7738   22.5620 C   0  0  0  0  0  0  0  0  0  0  0  0
  -29.2527  -19.1554   19.0588 C   0  0  0  0  0  0  0  0  0  0  0  0
  -32.0430  -22.8334   15.7143 C   0  0  0  0  0  0  0  0  0  0  0  0
  -28.3784  -18.2216   18.6272 C   0  0  0  0  0  0  0  0  0  0  0  0
  -25.8596  -11.3510   24.3457 C   0  0  0  0  0  0  0  0  0  0  0  0
  -27.7398  -17.3273   19.6136 C   0  0  0  0  0  0  0  0  0  0  0  0
  -25.4726  -30.8626   22.9478 C   0  0  0  0  0  0  0  0  0  0  0  0
  -22.5227  -29.5271   23.1410 C   0  0  0  0  0  0  0  0  0  0  0  0
  -20.4009  -27.0363   22.1712 C   0  0  0  0  0  0  0  0  0  0  0  0
  -26.1972  -35.1263   25.6595 C   0  0  0  0  0  0  0  0  0  0  0  0
  -24.8665  -30.6264   20.5121 C   0  0  0  0  0  0  0  0  0  0  0  0
  -24.3157  -28.1464   22.0256 C   0  0  0  0  0  0  0  0  0  0  0  0
  -25.3711  -33.8535   25.8264 C   0  0  0  0  0  0  0  0  0  0  0  0
  -28.2924  -14.1276   17.9139 C   0  0  0  0  0  0  0  0  0  0  0  0
  -26.2339  -32.6205   25.5769 C   0  0  0  0  0  0  0  0  0  0  0  0
  -27.5848  -13.1646   18.8635 C   0  0  0  0  0  0  0  0  0  0  0  0
  -27.5946  -15.4855   17.8520 C   0  0  0  0  0  0  0  0  0  0  0  0
  -26.6979  -15.1566   20.1385 C   0  0  0  0  0  0  0  0  0  0  0  0
  -26.7795  -32.6097   24.1438 C   0  0  1  0  0  0  0  0  0  0  0  0
  -24.3654  -30.6593   21.9526 C   0  0  1  0  0  0  0  0  0  0  0  0
  -27.4100  -13.7996   20.2522 C   0  0  1  0  0  0  0  0  0  0  0  0
  -18.0660  -26.1880   22.5262 C   0  0  0  0  0  0  0  0  0  0  0  0
  -23.3466  -28.4026   25.8552 C   0  0  0  0  0  0  0  0  0  0  0  0
  -21.4022  -26.8315   25.7165 C   0  0  0  0  0  0  0  0  0  0  0  0
  -21.0123  -29.2950   25.7607 C   0  0  0  0  0  0  0  0  0  0  0  0
  -19.7137  -27.3901   19.3143 C   0  0  0  0  0  0  0  0  0  0  0  0
  -31.7616  -23.4156   18.5686 C   0  0  0  0  0  0  0  0  0  0  0  0
  -30.9467  -24.6804   18.2765 C   0  0  0  0  0  0  0  0  0  0  0  0
  -29.5334  -24.6297   18.8588 C   0  0  0  0  0  0  0  0  0  0  0  0
  -28.7419  -25.8843   18.5151 C   0  0  0  0  0  0  0  0  0  1  0  0
  -21.9699  -28.2289   23.6779 C   0  0  1  0  0  0  0  0  0  0  0  0
  -18.9663  -27.0710   21.6762 C   0  0  2  0  0  0  0  0  0  0  0  0
  -21.9525  -28.1899   25.2321 C   0  0  0  0  0  0  0  0  0  0  0  0
  -25.7757  -12.0156   20.7311 N   0  0  0  0  0  0  0  0  0  0  0  0
  -32.2026  -22.6354   14.4408 N   0  0  0  0  0  0  0  0  0  0  0  0
  -26.6979  -12.8659   21.2136 N   0  0  0  0  0  0  0  0  0  0  0  0
  -27.3864  -16.0454   19.1959 N   0  0  0  0  0  0  0  0  0  0  0  0
  -23.6667  -29.4309   22.3361 N   0  0  0  0  0  0  0  0  0  0  0  0
  -27.7702  -13.5557   23.2098 N   0  0  0  0  0  0  0  0  0  0  0  0
  -24.9294  -10.3370   24.6118 N   0  0  0  0  0  0  0  0  0  0  0  0
  -25.7522  -32.1891   23.2152 N   0  0  0  0  0  0  0  0  0  0  0  0
  -20.6590  -28.0574   23.0611 N   0  0  0  0  0  0  0  0  0  0  0  0
  -18.8935  -26.5965   20.2653 N   0  3  0  0  0  0  0  0  0  0  0  0
  -26.5117  -11.8501   25.2940 O   0  0  0  0  0  0  0  0  0  0  0  0
  -27.5536  -17.7721   20.7477 O   0  0  0  0  0  0  0  0  0  0  0  0
  -26.0307  -29.8880   23.4381 O   0  0  0  0  0  0  0  0  0  0  0  0
  -21.9561  -30.5868   23.4195 O   0  0  0  0  0  0  0  0  0  0  0  0
  -21.2105  -26.1860   21.8078 O   0  0  0  0  0  0  0  0  0  0  0  0
  -21.4398   -7.4019   21.4113 O   0  0  0  0  0  0  0  0  0  0  0  0
  -27.4428  -25.7837   19.0969 O   0  0  0  0  0  0  0  0  0  1  0  0
  -22.2762   -2.6835   24.1391 F   0  0  0  0  0  0  0  0  0  0  0  0
  -21.5793   -4.9911   20.0654 F   0  0  0  0  0  0  0  0  0  0  0  0
  1  2  1  0  0  0  0
  1  7  2  0  0  0  0
  2  8  2  0  0  0  0
  3 10  2  0  0  0  0
  3 18  1  0  0  0  0
  4 11  1  0  0  0  0
  4 18  2  0  0  0  0
  5  6  2  0  0  0  0
  5 19  1  0  0  0  0
  6 20  1  0  0  0  0
  7 22  1  0  0  0  0
  8 24  1  0  0  0  0
  9 12  2  0  0  0  0
  9 23  1  0  0  0  0
 10 27  1  0  0  0  0
 11 27  2  0  0  0  0
 12 28  1  0  0  0  0
 13 14  2  0  0  0  0
 13 29  1  0  0  0  0
 14 30  1  0  0  0  0
 15 19  2  0  0  0  0
 15 26  1  0  0  0  0
 16 25  1  0  0  0  0
 16 28  2  0  0  0  0
 17 30  2  0  0  0  0
 17 31  1  0  0  0  0
 18 32  1  0  0  0  0
 19 34  1  0  0  0  0
 20 26  2  0  0  0  0
 20 35  1  0  0  0  0
 21 32  1  0  0  0  0
 21 33  2  0  0  0  0
 21 37  1  0  0  0  0
 22 24  2  0  0  0  0
 22 42  1  0  0  0  0
 23 25  2  0  0  0  0
 23 43  1  0  0  0  0
 24 51  1  0  0  0  0
 25 44  1  0  0  0  0
 26 59  1  0  0  0  0
 27 81  1  0  0  0  0
 28 82  1  0  0  0  0
 29 31  2  0  0  0  0
 29 81  1  0  0  0  0
 30 83  1  0  0  0  0
 31 84  1  0  0  0  0
 32 66  2  0  0  0  0
 33 68  1  0  0  0  0
 33 71  1  0  0  0  0
 34 36  2  0  0  0  0
 35 67  2  0  0  0  0
 36 38  1  0  0  0  0
 37 72  1  0  0  0  0
 37 76  2  0  0  0  0
 38 69  1  0  0  0  0
 38 77  2  0  0  0  0
 39 52  1  0  0  0  0
 39 73  1  0  0  0  0
 39 78  2  0  0  0  0
 40 63  1  0  0  0  0
 40 70  1  0  0  0  0
 40 79  2  0  0  0  0
 41 64  1  0  0  0  0
 41 74  1  0  0  0  0
 41 80  2  0  0  0  0
 42 45  1  0  0  0  0
 43 52  1  0  0  0  0
 44 70  1  0  0  0  0
 45 47  1  0  0  0  0
 46 48  1  0  0  0  0
 46 49  1  0  0  0  0
 47 51  1  0  0  0  0
 48 53  1  0  0  0  0
 49 69  1  0  0  0  0
 50 53  1  0  0  0  0
 50 69  1  0  0  0  0
 51 73  1  0  0  0  0
 52 70  1  0  0  0  0
 53 68  1  0  0  0  0
 54 64  1  0  0  0  0
 55 65  1  0  0  0  0
 56 65  1  0  0  0  0
 57 65  1  0  0  0  0
 58 75  1  0  0  0  0
 59 60  1  0  0  0  0
 60 61  1  0  0  0  0
 61 62  1  0  0  0  0
 62 82  1  0  0  0  0
 63 65  1  0  0  0  0
 63 74  1  0  0  0  0
 64 75  1  0  0  0  0
 66 68  1  0  0  0  0
M  CHG  1  75   1
M  ISO  4  36 100  38 100  62 101  82 101
M  END
> <Batch ID>
0130

> <Smiles>
CNC(C)C(=O)NC(C(=O)N1Cc2cc([101O:1][101CH2:1]CCCc3cc(C=[100CH:0][100C:0](=O)N4CCCC(n5nc(-c6ccc(Oc7ccc(F)cc7F)cc6)c(C(N)=O)c5N)C4)ccc3C=N)ccc2CC1C(=O)NC1CCCc2ccccc21)C(C)(C)C

> <Shape>
0.325

> <Color>
0.090

> <Negative vol penalty>
0.000

$$$$

  -OEChem-04052302223D

 86 94  0     1  0  0  0  0  0999 V2000
  -25.3303  -10.9180   21.1128 C   0  0  0  0  0  0  0  0  0  0  0  0
  -24.8412  -11.8875   21.9825 C   0  0  0  0  0  0  0  0  0  0  0  0
  -22.3057  -29.2878   19.6114 C   0  0  0  0  0  0  0  0  0  0  0  0
  -22.4235  -28.0634   21.6908 C   0  0  0  0  0  0  0  0  0  0  0  0
  -26.0545  -11.2977   19.9835 C   0  0  0  0  0  0  0  0  0  0  0  0
  -25.0770  -13.2373   21.7239 C   0  0  0  0  0  0  0  0  0  0  0  0
  -22.0560  -19.6842   22.5160 C   0  0  0  0  0  0  0  0  0  0  0  0
  -28.0601  -19.5992   22.8434 C   0  0  0  0  0  0  0  0  0  0  0  0
  -20.9186  -29.3654   19.7356 C   0  0  0  0  0  0  0  0  0  0  0  0
  -21.0364  -28.1410   21.8151 C   0  0  0  0  0  0  0  0  0  0  0  0
  -22.3384  -20.9506   23.0261 C   0  0  0  0  0  0  0  0  0  0  0  0
  -27.7213  -20.7910   23.4840 C   0  0  0  0  0  0  0  0  0  0  0  0
  -18.7479  -30.4340   22.7770 C   0  0  0  0  0  0  0  0  0  0  0  0
  -18.2289  -30.7798   24.0246 C   0  0  0  0  0  0  0  0  0  0  0  0
  -23.5342  -21.4927   21.0024 C   0  0  0  0  0  0  0  0  0  0  0  0
  -28.4532  -20.8134   20.7921 C   0  0  0  0  0  0  0  0  0  0  0  0
  -17.0416  -28.6776   24.1134 C   0  0  0  0  0  0  0  0  0  0  0  0
  -23.0582  -28.6367   20.5889 C   0  0  0  0  0  0  0  0  0  0  0  0
  -25.4413  -29.4733   20.9476 C   0  0  0  0  0  0  0  0  0  0  0  0
  -26.2911  -12.6533   19.7059 C   0  0  0  0  0  0  0  0  0  0  0  0
  -22.5207  -19.3080   21.2475 C   0  0  0  0  0  0  0  0  0  0  0  0
  -25.8062  -13.6354   20.5906 C   0  0  0  0  0  0  0  0  0  0  0  0
  -23.2542  -20.2218   20.4774 C   0  0  0  0  0  0  0  0  0  0  0  0
  -28.4261  -19.6104   21.4975 C   0  0  0  0  0  0  0  0  0  0  0  0
  -28.1143  -22.0053   21.4326 C   0  0  0  0  0  0  0  0  0  0  0  0
  -20.2839  -28.7920   20.8374 C   0  0  0  0  0  0  0  0  0  0  0  0
  -23.0800  -21.8540   22.2706 C   0  0  0  0  0  0  0  0  0  0  0  0
  -27.7483  -21.9941   22.7786 C   0  0  0  0  0  0  0  0  0  0  0  0
  -18.4137  -29.2100   22.1975 C   0  0  0  0  0  0  0  0  0  0  0  0
  -17.3757  -29.9016   24.6929 C   0  0  0  0  0  0  0  0  0  0  0  0
  -17.5606  -28.3318   22.8657 C   0  0  0  0  0  0  0  0  0  0  0  0
  -24.4911  -28.5557   20.4608 C   0  0  0  0  0  0  0  0  0  0  0  0
  -26.6522  -28.9465   20.5698 C   0  0  0  0  0  0  0  0  0  0  0  0
  -24.3791  -24.3651   24.4868 C   0  0  0  0  0  0  0  0  0  0  0  0
  -25.2468  -30.6928   21.6761 C   0  0  0  0  0  0  0  0  0  0  0  0
  -25.7190  -24.3450   24.6321 C   0  0  0  0  0  0  0  0  0  0  0  0
  -24.4785  -17.0557   20.1529 C   0  0  0  0  0  0  0  0  0  0  0  0
  -23.5080  -18.1645   17.2631 C   0  0  0  0  0  0  0  0  0  0  0  0
  -22.2261  -20.7424   15.4306 C   0  0  0  0  0  0  0  0  0  0  0  0
  -28.4884  -23.3901   19.3617 C   0  0  0  0  0  0  0  0  0  0  0  0
  -27.1197  -13.0131   18.4981 C   0  0  0  0  0  0  0  0  0  0  0  0
  -22.1849  -17.9477   20.7005 C   0  0  0  0  0  0  0  0  0  0  0  0
  -23.7589  -19.8741   19.1016 C   0  0  0  0  0  0  0  0  0  0  0  0
  -27.0049  -14.4812   18.0961 C   0  0  0  0  0  0  0  0  0  0  0  0
  -28.6535  -26.2068   17.1900 C   0  0  0  0  0  0  0  0  0  0  0  0
  -27.1404  -15.3819   19.3196 C   0  0  0  0  0  0  0  0  0  0  0  0
  -27.6959  -27.2146   17.8299 C   0  0  0  0  0  0  0  0  0  0  0  0
  -28.1427  -24.7735   17.3266 C   0  0  0  0  0  0  0  0  0  0  0  0
  -26.8473  -25.3704   19.3353 C   0  0  0  0  0  0  0  0  0  0  0  0
  -26.0201  -15.1109   20.3310 C   0  0  1  0  0  0  0  0  0  0  0  0
  -23.1465  -17.4887   19.6087 C   0  0  1  0  0  0  0  0  0  0  0  0
  -27.3510  -26.8219   19.2799 C   0  0  2  0  0  0  0  0  0  0  0  0
  -30.2793  -18.0249   20.9155 C   0  0  0  0  0  0  0  0  0  0  0  0
  -27.0274  -26.2716   23.6765 C   0  0  0  0  0  0  0  0  0  0  0  0
  -21.5805  -21.3628   13.0863 C   0  0  0  0  0  0  0  0  0  0  0  0
  -26.4537  -18.5061   16.5448 C   0  0  0  0  0  0  0  0  0  0  0  0
  -25.7480  -19.9743   14.6436 C   0  0  0  0  0  0  0  0  0  0  0  0
  -25.0314  -17.5857   14.7053 C   0  0  0  0  0  0  0  0  0  0  0  0
  -19.4032  -21.1852   16.2015 C   0  0  0  0  0  0  0  0  0  0  0  0
  -28.7882  -18.3357   20.8134 C   0  0  0  0  0  0  0  0  0  0  0  0
  -23.4781  -23.2101   24.1833 C   0  0  0  0  0  0  0  0  0  1  0  0
  -26.5567  -25.5661   24.9402 C   0  0  0  0  0  0  0  0  0  0  0  0
  -26.4730  -23.0456   24.4884 C   0  0  0  0  0  0  0  0  0  0  0  0
  -23.9877  -19.2348   16.3126 C   0  0  1  0  0  0  0  0  0  0  0  0
  -21.1013  -20.7928   14.4123 C   0  0  2  0  0  0  0  0  0  0  0  0
  -25.2975  -18.8314   15.5783 C   0  0  0  0  0  0  0  0  0  0  0  0
  -25.0502  -27.5243   19.8224 N   0  0  0  0  0  0  0  0  0  0  0  0
  -26.3648  -27.7906   19.9053 N   0  0  0  0  0  0  0  0  0  0  0  0
  -23.4100  -18.5297   18.6132 N   0  0  0  0  0  0  0  0  0  0  0  0
  -27.8408  -24.4713   18.7274 N   0  0  0  0  0  0  0  0  0  0  0  0
  -27.9241  -29.3640   20.7444 N   0  0  0  0  0  0  0  0  0  0  0  0
  -23.9369  -31.0869   21.9815 N   0  0  0  0  0  0  0  0  0  0  0  0
  -28.1461  -23.2194   20.7027 N   0  0  0  0  0  0  0  0  0  0  0  0
  -24.7872  -15.7331   19.8984 N   0  0  0  0  0  0  0  0  0  0  0  0
  -22.8680  -19.5221   15.4227 N   0  0  0  0  0  0  0  0  0  0  0  0
  -19.9859  -21.6441   14.9143 N   0  3  0  0  0  0  0  0  0  0  0  0
  -26.2053  -31.4200   22.0310 O   0  0  0  0  0  0  0  0  0  0  0  0
  -25.1752  -17.8623   20.7576 O   0  0  0  0  0  0  0  0  0  0  0  0
  -23.2237  -17.0479   16.8228 O   0  0  0  0  0  0  0  0  0  0  0  0
  -22.5094  -21.6920   16.1576 O   0  0  0  0  0  0  0  0  0  0  0  0
  -29.3082  -22.6855   18.7671 O   0  0  0  0  0  0  0  0  0  0  0  0
  -18.9304  -28.8678   20.9591 O   0  0  0  0  0  0  0  0  0  0  0  0
  -23.3575  -23.0906   22.7664 O   0  0  0  0  0  0  0  0  0  1  0  0
  -27.4116  -23.1539   23.4264 O   0  0  0  0  0  0  0  0  0  0  0  0
  -16.8786  -30.2332   25.8917 F   0  0  0  0  0  0  0  0  0  0  0  0
  -17.2369  -27.1539   22.3146 F   0  0  0  0  0  0  0  0  0  0  0  0
  1  2  1  0  0  0  0
  1  5  2  0  0  0  0
  2  6  2  0  0  0  0
  3  9  2  0  0  0  0
  3 18  1  0  0  0  0
  4 10  1  0  0  0  0
  4 18  2  0  0  0  0
  5 20  1  0  0  0  0
  6 22  1  0  0  0  0
  7 11  2  0  0  0  0
  7 21  1  0  0  0  0
  8 12  2  0  0  0  0
  8 24  1  0  0  0  0
  9 26  1  0  0  0  0
 10 26  2  0  0  0  0
 11 27  1  0  0  0  0
 12 28  1  0  0  0  0
 13 14  2  0  0  0  0
 13 29  1  0  0  0  0
 14 30  1  0  0  0  0
 15 23  1  0  0  0  0
 15 27  2  0  0  0  0
 16 24  2  0  0  0  0
 16 25  1  0  0  0  0
 17 30  2  0  0  0  0
 17 31  1  0  0  0  0
 18 32  1  0  0  0  0
 19 32  1  0  0  0  0
 19 33  2  0  0  0  0
 19 35  1  0  0  0  0
 20 22  2  0  0  0  0
 20 41  1  0  0  0  0
 21 23  2  0  0  0  0
 21 42  1  0  0  0  0
 22 50  1  0  0  0  0
 23 43  1  0  0  0  0
 24 60  1  0  0  0  0
 25 28  2  0  0  0  0
 25 73  1  0  0  0  0
 26 82  1  0  0  0  0
 27 83  1  0  0  0  0
 28 84  1  0  0  0  0
 29 31  2  0  0  0  0
 29 82  1  0  0  0  0
 30 85  1  0  0  0  0
 31 86  1  0  0  0  0
 32 67  2  0  0  0  0
 33 68  1  0  0  0  0
 33 71  1  0  0  0  0
 34 36  2  0  0  0  0
 34 61  1  0  0  0  0
 35 72  1  0  0  0  0
 35 77  2  0  0  0  0
 36 62  1  0  0  0  0
 36 63  1  0  0  0  0
 37 51  1  0  0  0  0
 37 74  1  0  0  0  0
 37 78  2  0  0  0  0
 38 64  1  0  0  0  0
 38 69  1  0  0  0  0
 38 79  2  0  0  0  0
 39 65  1  0  0  0  0
 39 75  1  0  0  0  0
 39 80  2  0  0  0  0
 40 70  1  0  0  0  0
 40 73  1  0  0  0  0
 40 81  2  0  0  0  0
 41 44  1  0  0  0  0
 42 51  1  0  0  0  0
 43 69  1  0  0  0  0
 44 46  1  0  0  0  0
 45 47  1  0  0  0  0
 45 48  1  0  0  0  0
 46 50  1  0  0  0  0
 47 52  1  0  0  0  0
 48 70  1  0  0  0  0
 49 52  1  0  0  0  0
 49 70  1  0  0  0  0
 50 74  1  0  0  0  0
 51 69  1  0  0  0  0
 52 68  1  0  0  0  0
 53 60  1  0  0  0  0
 54 62  1  0  0  0  0
 55 65  1  0  0  0  0
 56 66  1  0  0  0  0
 57 66  1  0  0  0  0
 58 66  1  0  0  0  0
 59 76  1  0  0  0  0
 61 83  1  0  0  0  0
 63 84  1  0  0  0  0
 64 66  1  0  0  0  0
 64 75  1  0  0  0  0
 65 76  1  0  0  0  0
 67 68  1  0  0  0  0
M  CHG  1  76   1
M  ISO  4  40 100  61 101  73 100  83 101
M  END
> <Batch ID>
0130

> <Smiles>
CCC(=C[101CH2:1][101O:1]c1ccc2c(c1)CN(C(=O)C(NC(=O)C(C)NC)C(C)(C)C)C(C(=O)NC1CCCc3ccccc31)C2)COc1ccc(CC)cc1[100NH:0][100C:0](=O)N1CCCC(n2nc(-c3ccc(Oc4ccc(F)cc4F)cc3)c(C(N)=O)c2N)C1

> <Shape>
0.208

> <Color>
0.070

> <Negative vol penalty>
0.000

$$$$

  -OEChem-04052302223D

 82 90  0     1  0  0  0  0  0999 V2000
  -38.0057  -20.1560   38.0938 C   0  0  0  0  0  0  0  0  0  0  0  0
  -37.2083  -20.0569   36.9581 C   0  0  0  0  0  0  0  0  0  0  0  0
  -23.0752   -9.8686   19.9407 C   0  0  0  0  0  0  0  0  0  0  0  0
  -23.8351   -9.8742   22.2341 C   0  0  0  0  0  0  0  0  0  0  0  0
  -39.1854  -19.4182   38.1824 C   0  0  0  0  0  0  0  0  0  0  0  0
  -37.5908  -19.2207   35.9098 C   0  0  0  0  0  0  0  0  0  0  0  0
  -33.9005  -15.9799   32.2514 C   0  0  0  0  0  0  0  0  0  0  0  0
  -32.6519  -17.4914   23.4570 C   0  0  0  0  0  0  0  0  0  0  0  0
  -32.0646  -16.6063   22.5530 C   0  0  0  0  0  0  0  0  0  0  0  0
  -22.3310   -8.7156   20.1901 C   0  0  0  0  0  0  0  0  0  0  0  0
  -23.0908   -8.7212   22.4835 C   0  0  0  0  0  0  0  0  0  0  0  0
  -33.4074  -16.2165   30.9689 C   0  0  0  0  0  0  0  0  0  0  0  0
  -19.8624   -7.9243   23.0856 C   0  0  0  0  0  0  0  0  0  0  0  0
  -19.1054   -7.8840   24.2565 C   0  0  0  0  0  0  0  0  0  0  0  0
  -35.1936  -14.8854   30.0432 C   0  0  0  0  0  0  0  0  0  0  0  0
  -29.8804  -17.4557   23.1403 C   0  0  0  0  0  0  0  0  0  0  0  0
  -20.3461   -5.9458   24.9921 C   0  0  0  0  0  0  0  0  0  0  0  0
  -23.8274  -10.4479   20.9627 C   0  0  0  0  0  0  0  0  0  0  0  0
  -24.1701  -12.9730   20.8439 C   0  0  0  0  0  0  0  0  0  0  0  0
  -39.5776  -18.5652   37.1387 C   0  0  0  0  0  0  0  0  0  0  0  0
  -35.0520  -15.2019   32.4389 C   0  0  0  0  0  0  0  0  0  0  0  0
  -38.7776  -18.4719   35.9839 C   0  0  0  0  0  0  0  0  0  0  0  0
  -35.6977  -14.6383   31.3292 C   0  0  0  0  0  0  0  0  0  0  0  0
  -31.8535  -18.3587   24.2027 C   0  0  0  0  0  0  0  0  0  0  0  0
  -30.4677  -18.3409   24.0443 C   0  0  0  0  0  0  0  0  0  0  0  0
  -30.6789  -16.5884   22.3947 C   0  0  0  0  0  0  0  0  0  0  0  0
  -22.3387   -8.1419   21.4615 C   0  0  0  0  0  0  0  0  0  0  0  0
  -34.0557  -15.6716   29.8644 C   0  0  0  0  0  0  0  0  0  0  0  0
  -20.8612   -6.9752   22.8679 C   0  0  0  0  0  0  0  0  0  0  0  0
  -19.3473   -6.8949   25.2097 C   0  0  0  0  0  0  0  0  0  0  0  0
  -21.1031   -5.9860   23.8211 C   0  0  0  0  0  0  0  0  0  0  0  0
  -24.5969  -11.6386   20.7055 C   0  0  0  0  0  0  0  0  0  0  0  0
  -25.2625  -13.7223   20.4809 C   0  0  0  0  0  0  0  0  0  0  0  0
  -22.8998  -13.4891   21.2630 C   0  0  0  0  0  0  0  0  0  0  0  0
  -37.9417  -15.7288   33.6538 C   0  0  0  0  0  0  0  0  0  0  0  0
  -38.2876  -12.5356   33.1999 C   0  0  0  0  0  0  0  0  0  0  0  0
  -37.3231   -9.7270   31.5181 C   0  0  0  0  0  0  0  0  0  0  0  0
  -30.7290  -14.7659   20.6562 C   0  0  0  0  0  0  0  0  0  0  0  0
  -40.8853  -17.8237   37.2599 C   0  0  0  0  0  0  0  0  0  0  0  0
  -35.5557  -14.9339   33.8306 C   0  0  0  0  0  0  0  0  0  0  0  0
  -36.9258  -13.7792   31.4781 C   0  0  0  0  0  0  0  0  0  0  0  0
  -41.0287  -16.6751   36.2646 C   0  0  0  0  0  0  0  0  0  0  0  0
  -29.6138  -12.3536   18.2868 C   0  0  0  0  0  0  0  0  0  0  0  0
  -40.6175  -17.1258   34.8665 C   0  0  0  0  0  0  0  0  0  0  0  0
  -28.1741  -12.0623   18.7162 C   0  0  0  0  0  0  0  0  0  0  0  0
  -30.5290  -12.5815   19.4886 C   0  0  0  0  0  0  0  0  0  0  0  0
  -28.6223  -13.3060   20.8701 C   0  0  0  0  0  0  0  0  0  0  0  0
  -39.1461  -17.5568   34.8364 C   0  0  1  0  0  0  0  0  0  0  0  0
  -37.0323  -14.5521   33.8685 C   0  0  1  0  0  0  0  0  0  0  0  0
  -27.6494  -13.1336   19.6922 C   0  0  2  0  0  0  0  0  0  0  0  0
  -29.5932  -19.2617   24.8304 C   0  0  0  0  0  0  0  0  0  0  0  0
  -37.8131   -7.2724   31.3389 C   0  0  0  0  0  0  0  0  0  0  0  0
  -40.8325  -13.1601   31.6367 C   0  0  0  0  0  0  0  0  0  0  0  0
  -40.7458  -10.8385   30.7035 C   0  0  0  0  0  0  0  0  0  0  0  0
  -41.0026  -11.1845   33.1606 C   0  0  0  0  0  0  0  0  0  0  0  0
  -34.5687   -9.0005   32.3205 C   0  0  0  0  0  0  0  0  0  0  0  0
  -32.5113  -19.3060   25.1742 C   0  0  0  0  0  0  0  0  0  0  0  0
  -32.3827  -18.8774   26.6402 C   0  0  0  0  0  0  0  0  0  0  0  0
  -33.0781  -17.5484   26.9386 C   0  0  0  0  0  0  0  0  0  0  0  0
  -32.8954  -17.1362   28.3930 C   0  0  0  0  0  0  0  0  0  1  0  0
  -38.7736  -11.6631   32.0678 C   0  0  1  0  0  0  0  0  0  0  0  0
  -36.9560   -8.3371   32.0057 C   0  0  2  0  0  0  0  0  0  0  0  0
  -40.3166  -11.7293   31.8889 C   0  0  0  0  0  0  0  0  0  0  0  0
  -25.8617  -11.5426   20.2872 N   0  0  0  0  0  0  0  0  0  0  0  0
  -26.2391  -12.8261   20.1595 N   0  0  0  0  0  0  0  0  0  0  0  0
  -37.3833  -13.5513   32.8588 N   0  0  0  0  0  0  0  0  0  0  0  0
  -29.9704  -13.6121   20.3664 N   0  0  0  0  0  0  0  0  0  0  0  0
  -25.4734  -15.0537   20.4086 N   0  0  0  0  0  0  0  0  0  0  0  0
  -21.8875  -12.5801   21.5998 N   0  0  0  0  0  0  0  0  0  0  0  0
  -30.0820  -15.6908   21.4750 N   0  0  0  0  0  0  0  0  0  0  0  0
  -38.2802  -16.3974   34.8147 N   0  0  0  0  0  0  0  0  0  0  0  0
  -38.2599  -10.3240   32.3350 N   0  0  0  0  0  0  0  0  0  0  0  0
  -35.5257   -8.0443   31.7068 N   0  3  0  0  0  0  0  0  0  0  0  0
  -22.6639  -14.7197   21.3209 O   0  0  0  0  0  0  0  0  0  0  0  0
  -38.3102  -16.0084   32.5190 O   0  0  0  0  0  0  0  0  0  0  0  0
  -38.6899  -12.3192   34.3457 O   0  0  0  0  0  0  0  0  0  0  0  0
  -36.8311  -10.2311   30.5109 O   0  0  0  0  0  0  0  0  0  0  0  0
  -31.8582  -14.9345   20.1887 O   0  0  0  0  0  0  0  0  0  0  0  0
  -21.6124   -7.0170   21.7053 O   0  0  0  0  0  0  0  0  0  0  0  0
  -33.5769  -15.9016   28.6114 O   0  0  0  0  0  0  0  0  0  1  0  0
  -18.6213   -6.8573   26.3348 F   0  0  0  0  0  0  0  0  0  0  0  0
  -22.0621   -5.0723   23.6181 F   0  0  0  0  0  0  0  0  0  0  0  0
  1  2  1  0  0  0  0
  1  5  2  0  0  0  0
  2  6  2  0  0  0  0
  3 10  2  0  0  0  0
  3 18  1  0  0  0  0
  4 11  1  0  0  0  0
  4 18  2  0  0  0  0
  5 20  1  0  0  0  0
  6 22  1  0  0  0  0
  7 12  2  0  0  0  0
  7 21  1  0  0  0  0
  8  9  2  0  0  0  0
  8 24  1  0  0  0  0
  9 26  1  0  0  0  0
 10 27  1  0  0  0  0
 11 27  2  0  0  0  0
 12 28  1  0  0  0  0
 13 14  2  0  0  0  0
 13 29  1  0  0  0  0
 14 30  1  0  0  0  0
 15 23  1  0  0  0  0
 15 28  2  0  0  0  0
 16 25  1  0  0  0  0
 16 26  2  0  0  0  0
 17 30  2  0  0  0  0
 17 31  1  0  0  0  0
 18 32  1  0  0  0  0
 19 32  1  0  0  0  0
 19 33  2  0  0  0  0
 19 34  1  0  0  0  0
 20 22  2  0  0  0  0
 20 39  1  0  0  0  0
 21 23  2  0  0  0  0
 21 40  1  0  0  0  0
 22 48  1  0  0  0  0
 23 41  1  0  0  0  0
 24 25  2  0  0  0  0
 24 57  1  0  0  0  0
 25 51  1  0  0  0  0
 26 70  1  0  0  0  0
 27 79  1  0  0  0  0
 28 80  1  0  0  0  0
 29 31  2  0  0  0  0
 29 79  1  0  0  0  0
 30 81  1  0  0  0  0
 31 82  1  0  0  0  0
 32 64  2  0  0  0  0
 33 65  1  0  0  0  0
 33 68  1  0  0  0  0
 34 69  1  0  0  0  0
 34 74  2  0  0  0  0
 35 49  1  0  0  0  0
 35 71  1  0  0  0  0
 35 75  2  0  0  0  0
 36 61  1  0  0  0  0
 36 66  1  0  0  0  0
 36 76  2  0  0  0  0
 37 62  1  0  0  0  0
 37 72  1  0  0  0  0
 37 77  2  0  0  0  0
 38 67  1  0  0  0  0
 38 70  1  0  0  0  0
 38 78  2  0  0  0  0
 39 42  1  0  0  0  0
 40 49  1  0  0  0  0
 41 66  1  0  0  0  0
 42 44  1  0  0  0  0
 43 45  1  0  0  0  0
 43 46  1  0  0  0  0
 44 48  1  0  0  0  0
 45 50  1  0  0  0  0
 46 67  1  0  0  0  0
 47 50  1  0  0  0  0
 47 67  1  0  0  0  0
 48 71  1  0  0  0  0
 49 66  1  0  0  0  0
 50 65  1  0  0  0  0
 52 62  1  0  0  0  0
 53 63  1  0  0  0  0
 54 63  1  0  0  0  0
 55 63  1  0  0  0  0
 56 73  1  0  0  0  0
 57 58  1  0  0  0  0
 58 59  1  0  0  0  0
 59 60  1  0  0  0  0
 60 80  1  0  0  0  0
 61 63  1  0  0  0  0
 61 72  1  0  0  0  0
 62 73  1  0  0  0  0
 64 65  1  0  0  0  0
M  CHG  1  73   1
M  ISO  4  38 100  60 101  70 100  80 101
M  END
> <Batch ID>
0130

> <Smiles>
CNC(C)C(=O)NC(C(=O)N1Cc2cc([101O:1][101CH2:1]CCCc3ccc([100NH:0][100C:0](=O)N4CCCC(n5nc(-c6ccc(Oc7ccc(F)cc7F)cc6)c(C(N)=O)c5N)C4)cc3C)ccc2CC1C(=O)NC1CCCc2ccccc21)C(C)(C)C

> <Shape>
0.167

> <Color>
0.200

> <Negative vol penalty>
0.000

$$$$

  -OEChem-04052302223D

 82 90  0     1  0  0  0  0  0999 V2000
  -31.7625  -18.8066   23.3128 C   0  0  0  0  0  0  0  0  0  0  0  0
  -30.5475  -19.4621   23.4845 C   0  0  0  0  0  0  0  0  0  0  0  0
  -29.6129  -28.3351   21.2763 C   0  0  0  0  0  0  0  0  0  0  0  0
  -27.6533  -27.6458   20.0427 C   0  0  0  0  0  0  0  0  0  0  0  0
  -31.8487  -17.7155   22.4492 C   0  0  0  0  0  0  0  0  0  0  0  0
  -29.4181  -19.0274   22.7917 C   0  0  0  0  0  0  0  0  0  0  0  0
  -23.6272  -19.0890   24.7835 C   0  0  0  0  0  0  0  0  0  0  0  0
  -30.2912  -27.1996   20.8334 C   0  0  0  0  0  0  0  0  0  0  0  0
  -28.3316  -26.5102   19.5998 C   0  0  0  0  0  0  0  0  0  0  0  0
  -22.5706  -19.9729   24.5685 C   0  0  0  0  0  0  0  0  0  0  0  0
  -29.1771  -23.4759   20.8282 C   0  0  0  0  0  0  0  0  0  0  0  0
  -28.5005  -22.2571   20.8760 C   0  0  0  0  0  0  0  0  0  0  0  0
  -20.0039  -27.3250   23.5207 C   0  0  0  0  0  0  0  0  0  0  0  0
  -21.7541  -18.5560   22.7952 C   0  0  0  0  0  0  0  0  0  0  0  0
  -28.7498  -22.0249   18.4841 C   0  0  0  0  0  0  0  0  0  0  0  0
  -19.0840  -27.4933   21.3928 C   0  0  0  0  0  0  0  0  0  0  0  0
  -28.2939  -28.5582   20.8810 C   0  0  0  0  0  0  0  0  0  0  0  0
  -19.4980  -26.6308   22.3839 C   0  0  0  0  0  0  0  0  0  0  0  0
  -27.5435  -30.9905   20.7121 C   0  0  0  0  0  0  0  0  0  0  0  0
  -30.7176  -17.2612   21.7528 C   0  0  0  0  0  0  0  0  0  0  0  0
  -23.7614  -17.9356   23.9974 C   0  0  0  0  0  0  0  0  0  0  0  0
  -29.4895  -17.9300   21.9169 C   0  0  0  0  0  0  0  0  0  0  0  0
  -22.8117  -17.6578   23.0039 C   0  0  0  0  0  0  0  0  0  0  0  0
  -29.6505  -26.2872   19.9952 C   0  0  0  0  0  0  0  0  0  0  0  0
  -21.6355  -19.7080   23.5723 C   0  0  0  0  0  0  0  0  0  0  0  0
  -29.6399  -23.9693   19.6083 C   0  0  0  0  0  0  0  0  0  0  0  0
  -28.2868  -21.5316   19.7040 C   0  0  0  0  0  0  0  0  0  0  0  0
  -29.4263  -23.2438   18.4363 C   0  0  0  0  0  0  0  0  0  0  0  0
  -27.5926  -29.7307   21.3386 C   0  0  0  0  0  0  0  0  0  0  0  0
  -19.9575  -28.6919   23.3550 C   0  0  0  0  0  0  0  0  0  0  0  0
  -26.7544  -31.7538   21.5375 C   0  0  0  0  0  0  0  0  0  0  0  0
  -19.4159  -25.1652   22.2541 C   0  0  0  0  0  0  0  0  0  0  0  0
  -20.1288  -24.2954   22.9832 C   0  0  0  0  0  0  0  0  0  0  0  0
  -28.1563  -31.4312   19.4932 C   0  0  0  0  0  0  0  0  0  0  0  0
  -19.9789  -22.8270   22.7670 C   0  0  0  0  0  0  0  0  0  0  0  0
  -25.9598  -16.8392   21.9803 C   0  0  0  0  0  0  0  0  0  0  0  0
  -24.0767  -14.1979   21.9754 C   0  0  0  0  0  0  0  0  0  0  0  0
  -20.9823  -12.8450   22.4666 C   0  0  0  0  0  0  0  0  0  0  0  0
  -22.4674  -30.3876   25.4879 C   0  0  0  0  0  0  0  0  0  0  0  0
  -30.8705  -16.1070   20.7941 C   0  0  0  0  0  0  0  0  0  0  0  0
  -24.8917  -16.9784   24.2597 C   0  0  0  0  0  0  0  0  0  0  0  0
  -22.8995  -16.4229   22.1461 C   0  0  0  0  0  0  0  0  0  0  0  0
  -29.5423  -15.4763   20.3835 C   0  0  0  0  0  0  0  0  0  0  0  0
  -25.4652  -32.2004   26.1232 C   0  0  0  0  0  0  0  0  0  0  0  0
  -28.5319  -16.5559   20.0089 C   0  0  0  0  0  0  0  0  0  0  0  0
  -26.3459  -31.8867   24.9125 C   0  0  0  0  0  0  0  0  0  0  0  0
  -24.6270  -30.9936   26.5392 C   0  0  0  0  0  0  0  0  0  0  0  0
  -24.6968  -30.0872   24.2485 C   0  0  0  0  0  0  0  0  0  0  0  0
  -28.2365  -17.4729   21.2020 C   0  0  1  0  0  0  0  0  0  0  0  0
  -25.2202  -16.0980   23.0579 C   0  0  1  0  0  0  0  0  0  0  0  0
  -25.5193  -31.2906   23.7572 C   0  0  2  0  0  0  0  0  0  0  0  0
  -19.7439  -10.6656   22.3486 C   0  0  0  0  0  0  0  0  0  0  0  0
  -24.0156  -14.4002   18.9315 C   0  0  0  0  0  0  0  0  0  0  0  0
  -22.0568  -12.8409   18.9368 C   0  0  0  0  0  0  0  0  0  0  0  0
  -24.2612  -12.0745   19.8178 C   0  0  0  0  0  0  0  0  0  0  0  0
  -20.3199  -12.9323   25.3497 C   0  0  0  0  0  0  0  0  0  0  0  0
  -20.3860  -29.7484   24.2970 C   0  0  0  0  0  0  0  0  0  0  0  0
  -20.8371  -21.9468   23.6510 C   0  0  0  0  0  0  0  0  0  1  0  0
  -22.8971  -13.7274   21.1592 C   0  0  1  0  0  0  0  0  0  0  0  0
  -20.5304  -11.6173   23.2366 C   0  0  2  0  0  0  0  0  0  0  0  0
  -23.3068  -13.2851   19.7260 C   0  0  0  0  0  0  0  0  0  0  0  0
  -26.8907  -29.6919   22.4743 N   0  0  0  0  0  0  0  0  0  0  0  0
  -26.3932  -30.9368   22.5681 N   0  0  0  0  0  0  0  0  0  0  0  0
  -24.0262  -15.5209   22.4368 N   0  0  0  0  0  0  0  0  0  0  0  0
  -23.8663  -30.4773   25.3987 N   0  0  0  0  0  0  0  0  0  0  0  0
  -26.3413  -33.0375   21.4749 N   0  0  0  0  0  0  0  0  0  0  0  0
  -28.9346  -30.5183   18.7685 N   0  0  0  0  0  0  0  0  0  0  0  0
  -27.3337  -16.8229   22.1276 N   0  0  0  0  0  0  0  0  0  0  0  0
  -22.2481  -12.6830   21.9442 N   0  0  0  0  0  0  0  0  0  0  0  0
  -21.8232  -29.8937   24.3601 N   0  0  0  0  0  0  0  0  0  0  0  0
  -19.6646  -12.0144   24.3827 N   0  3  0  0  0  0  0  0  0  0  0  0
  -28.0313  -32.6047   19.0679 O   0  0  0  0  0  0  0  0  0  0  0  0
  -19.2100  -22.3663   21.9276 O   0  0  0  0  0  0  0  0  0  0  0  0
  -25.3307  -17.3841   21.0808 O   0  0  0  0  0  0  0  0  0  0  0  0
  -25.0053  -13.4180   22.2015 O   0  0  0  0  0  0  0  0  0  0  0  0
  -20.2810  -13.8461   22.3379 O   0  0  0  0  0  0  0  0  0  0  0  0
  -21.8386  -30.7278   26.4958 O   0  0  0  0  0  0  0  0  0  0  0  0
  -30.3121  -25.1791   19.5626 O   0  0  0  0  0  0  0  0  0  0  0  0
  -20.6037  -20.5694   23.3599 O   0  0  0  0  0  0  0  0  0  1  0  0
  -27.6385  -20.3604   19.7503 F   0  0  0  0  0  0  0  0  0  0  0  0
  -29.8697  -23.7121   17.2616 F   0  0  0  0  0  0  0  0  0  0  0  0
  -19.3058  -29.1329   21.8341 S   0  0  0  0  0  0  0  0  0  0  0  0
  1  2  1  0  0  0  0
  1  5  2  0  0  0  0
  2  6  2  0  0  0  0
  3  8  2  0  0  0  0
  3 17  1  0  0  0  0
  4  9  1  0  0  0  0
  4 17  2  0  0  0  0
  5 20  1  0  0  0  0
  6 22  1  0  0  0  0
  7 10  2  0  0  0  0
  7 21  1  0  0  0  0
  8 24  1  0  0  0  0
  9 24  2  0  0  0  0
 10 25  1  0  0  0  0
 11 12  2  0  0  0  0
 11 26  1  0  0  0  0
 12 27  1  0  0  0  0
 13 18  1  0  0  0  0
 13 30  2  0  0  0  0
 14 23  1  0  0  0  0
 14 25  2  0  0  0  0
 15 27  2  0  0  0  0
 15 28  1  0  0  0  0
 16 18  2  0  0  0  0
 16 82  1  0  0  0  0
 17 29  1  0  0  0  0
 18 32  1  0  0  0  0
 19 29  1  0  0  0  0
 19 31  2  0  0  0  0
 19 34  1  0  0  0  0
 20 22  2  0  0  0  0
 20 40  1  0  0  0  0
 21 23  2  0  0  0  0
 21 41  1  0  0  0  0
 22 49  1  0  0  0  0
 23 42  1  0  0  0  0
 24 78  1  0  0  0  0
 25 79  1  0  0  0  0
 26 28  2  0  0  0  0
 26 78  1  0  0  0  0
 27 80  1  0  0  0  0
 28 81  1  0  0  0  0
 29 62  2  0  0  0  0
 30 57  1  0  0  0  0
 30 82  1  0  0  0  0
 31 63  1  0  0  0  0
 31 66  1  0  0  0  0
 32 33  2  0  0  0  0
 33 35  1  0  0  0  0
 34 67  1  0  0  0  0
 34 72  2  0  0  0  0
 35 58  1  0  0  0  0
 35 73  2  0  0  0  0
 36 50  1  0  0  0  0
 36 68  1  0  0  0  0
 36 74  2  0  0  0  0
 37 59  1  0  0  0  0
 37 64  1  0  0  0  0
 37 75  2  0  0  0  0
 38 60  1  0  0  0  0
 38 69  1  0  0  0  0
 38 76  2  0  0  0  0
 39 65  1  0  0  0  0
 39 70  1  0  0  0  0
 39 77  2  0  0  0  0
 40 43  1  0  0  0  0
 41 50  1  0  0  0  0
 42 64  1  0  0  0  0
 43 45  1  0  0  0  0
 44 46  1  0  0  0  0
 44 47  1  0  0  0  0
 45 49  1  0  0  0  0
 46 51  1  0  0  0  0
 47 65  1  0  0  0  0
 48 51  1  0  0  0  0
 48 65  1  0  0  0  0
 49 68  1  0  0  0  0
 50 64  1  0  0  0  0
 51 63  1  0  0  0  0
 52 60  1  0  0  0  0
 53 61  1  0  0  0  0
 54 61  1  0  0  0  0
 55 61  1  0  0  0  0
 56 71  1  0  0  0  0
 57 70  1  0  0  0  0
 58 79  1  0  0  0  0
 59 61  1  0  0  0  0
 59 69  1  0  0  0  0
 60 71  1  0  0  0  0
 62 63  1  0  0  0  0
M  CHG  1  71   1
M  ISO  4  39 100  58 101  70 100  79 101
M  END
> <Batch ID>
0130

> <Smiles>
CNC(C)C(=O)NC(C(=O)N1Cc2cc([101O:1][101CH2:1]C(=O)C=Cc3csc(C[100NH:0][100C:0](=O)N4CCCC(n5nc(-c6ccc(Oc7ccc(F)cc7F)cc6)c(C(N)=O)c5N)C4)c3)ccc2CC1C(=O)NC1CCCc2ccccc21)C(C)(C)C

> <Shape>
0.252

> <Color>
0.051

> <Negative vol penalty>
0.000

$$$$

  -OEChem-04052302223D

 83 91  0     1  0  0  0  0  0999 V2000
  -26.6851  -33.9419   26.2420 C   0  0  0  0  0  0  0  0  0  0  0  0
  -27.1066  -32.7735   25.6155 C   0  0  0  0  0  0  0  0  0  0  0  0
  -31.3588  -20.0701   15.5509 C   0  0  0  0  0  0  0  0  0  0  0  0
  -25.3165  -14.8803   21.2286 C   0  0  0  0  0  0  0  0  0  0  0  0
  -27.3252  -14.4362   19.9618 C   0  0  0  0  0  0  0  0  0  0  0  0
  -31.4569  -21.2415   16.3016 C   0  0  0  0  0  0  0  0  0  0  0  0
  -30.1158  -19.6431   15.0837 C   0  0  0  0  0  0  0  0  0  0  0  0
  -25.3286  -34.1484   26.4897 C   0  0  0  0  0  0  0  0  0  0  0  0
  -26.1719  -31.8103   25.2374 C   0  0  0  0  0  0  0  0  0  0  0  0
  -26.9988  -30.0275   20.5702 C   0  0  0  0  0  0  0  0  0  0  0  0
  -25.0760  -13.5099   21.3276 C   0  0  0  0  0  0  0  0  0  0  0  0
  -27.0847  -13.0658   20.0608 C   0  0  0  0  0  0  0  0  0  0  0  0
  -28.0176  -29.0879   20.4188 C   0  0  0  0  0  0  0  0  0  0  0  0
  -23.8340  -11.0516   19.3684 C   0  0  0  0  0  0  0  0  0  0  0  0
  -22.5348  -10.6035   19.1301 C   0  0  0  0  0  0  0  0  0  0  0  0
  -29.0688  -21.5589   16.1182 C   0  0  0  0  0  0  0  0  0  0  0  0
  -26.3766  -27.3198   20.4036 C   0  0  0  0  0  0  0  0  0  0  0  0
  -22.4396   -9.6910   21.3651 C   0  0  0  0  0  0  0  0  0  0  0  0
  -26.4411  -15.3435   20.5457 C   0  0  0  0  0  0  0  0  0  0  0  0
  -30.3119  -21.9860   16.5853 C   0  0  0  0  0  0  0  0  0  0  0  0
  -28.9708  -20.3875   15.3674 C   0  0  0  0  0  0  0  0  0  0  0  0
  -27.4292  -17.5593   21.3340 C   0  0  0  0  0  0  0  0  0  0  0  0
  -24.3759  -33.1916   26.1058 C   0  0  0  0  0  0  0  0  0  0  0  0
  -25.6598  -29.6188   20.6505 C   0  0  0  0  0  0  0  0  0  0  0  0
  -24.8015  -32.0035   25.4814 C   0  0  0  0  0  0  0  0  0  0  0  0
  -25.3424  -28.2564   20.5534 C   0  0  0  0  0  0  0  0  0  0  0  0
  -25.9601  -12.6027   20.7437 C   0  0  0  0  0  0  0  0  0  0  0  0
  -27.7068  -27.7336   20.3383 C   0  0  0  0  0  0  0  0  0  0  0  0
  -24.4361  -10.8193   20.6050 C   0  0  0  0  0  0  0  0  0  0  0  0
  -21.8375   -9.9233   20.1284 C   0  0  0  0  0  0  0  0  0  0  0  0
  -23.7389  -10.1390   21.6034 C   0  0  0  0  0  0  0  0  0  0  0  0
  -26.6899  -16.7590   20.4426 C   0  0  0  0  0  0  0  0  0  0  0  0
  -27.3685  -18.8207   20.7941 C   0  0  0  0  0  0  0  0  0  0  0  0
  -30.4168  -23.2235   17.3784 C   0  0  0  0  0  0  0  0  0  0  0  0
  -29.3956  -23.8009   18.0267 C   0  0  0  0  0  0  0  0  0  0  0  0
  -27.6753  -19.9410   14.8798 C   0  0  0  0  0  0  0  0  0  0  0  0
  -28.1100  -17.1950   22.5421 C   0  0  0  0  0  0  0  0  0  0  0  0
  -29.6051  -25.0619   18.7959 C   0  0  0  0  0  0  0  0  0  0  0  0
  -26.4395  -20.7067   15.1623 C   0  0  0  0  0  0  0  0  0  0  0  0
  -23.3780  -29.8313   22.8531 C   0  0  0  0  0  0  0  0  0  0  0  0
  -21.5313  -28.5743   20.5011 C   0  0  0  0  0  0  0  0  0  0  0  0
  -21.3498  -26.7468   17.6246 C   0  0  0  0  0  0  0  0  0  0  0  0
  -22.9253  -33.4379   26.4372 C   0  0  0  0  0  0  0  0  0  0  0  0
  -24.5704  -30.6469   20.7870 C   0  0  0  0  0  0  0  0  0  0  0  0
  -23.9192  -27.7675   20.6139 C   0  0  0  0  0  0  0  0  0  0  0  0
  -21.9632  -32.5363   25.6680 C   0  0  0  0  0  0  0  0  0  0  0  0
  -24.5954  -21.6223   18.0979 C   0  0  0  0  0  0  0  0  0  0  0  0
  -22.4436  -31.0890   25.7040 C   0  0  0  0  0  0  0  0  0  0  0  0
  -24.9619  -20.5286   19.1005 C   0  0  0  0  0  0  0  0  0  0  0  0
  -24.5308  -21.0766   16.6751 C   0  0  0  0  0  0  0  0  0  0  0  0
  -26.1544  -19.2891   17.2385 C   0  0  0  0  0  0  0  0  0  0  0  0
  -23.8156  -30.9463   25.0340 C   0  0  1  0  0  0  0  0  0  0  0  0
  -23.2823  -30.0781   21.3741 C   0  0  1  0  0  0  0  0  0  0  0  0
  -26.2565  -19.8084   18.6833 C   0  0  2  0  0  0  0  0  0  0  0  0
  -19.6992  -25.8564   15.9573 C   0  0  0  0  0  0  0  0  0  0  0  0
  -20.7056  -26.4044   22.4809 C   0  0  0  0  0  0  0  0  0  0  0  0
  -19.8561  -25.0606   20.5468 C   0  0  0  0  0  0  0  0  0  0  0  0
  -18.8447  -27.2825   21.0595 C   0  0  0  0  0  0  0  0  0  0  0  0
  -22.5848  -28.2754   15.4117 C   0  0  0  0  0  0  0  0  0  0  0  0
  -28.3764  -25.6173   19.4847 C   0  0  0  0  0  0  0  0  0  1  0  0
  -21.1650  -27.1776   20.0607 C   0  0  1  0  0  0  0  0  0  0  0  0
  -20.6325  -27.0036   16.3116 C   0  0  2  0  0  0  0  0  0  0  0  0
  -20.1699  -26.4900   21.0378 C   0  0  0  0  0  0  0  0  0  0  0  0
  -26.1956  -17.4537   19.4145 N   0  0  0  0  0  0  0  0  0  0  0  0
  -27.5113  -18.8568   14.1709 N   0  0  0  0  0  0  0  0  0  0  0  0
  -26.6252  -18.7039   19.6565 N   0  0  0  0  0  0  0  0  0  0  0  0
  -25.7602  -20.3683   16.3243 N   0  0  0  0  0  0  0  0  0  0  0  0
  -22.8899  -28.8108   20.7542 N   0  0  0  0  0  0  0  0  0  0  0  0
  -27.8790  -20.0074   21.1861 N   0  0  0  0  0  0  0  0  0  0  0  0
  -28.0719  -15.8555   22.9527 N   0  0  0  0  0  0  0  0  0  0  0  0
  -23.6783  -30.9589   23.5934 N   0  0  0  0  0  0  0  0  0  0  0  0
  -20.6729  -27.2968   18.6925 N   0  0  0  0  0  0  0  0  0  0  0  0
  -21.6184  -27.1660   15.2059 N   0  3  0  0  0  0  0  0  0  0  0  0
  -28.7199  -18.0356   23.2457 O   0  0  0  0  0  0  0  0  0  0  0  0
  -30.7020  -25.6099   18.8640 O   0  0  0  0  0  0  0  0  0  0  0  0
  -26.1477  -21.5608   14.3355 O   0  0  0  0  0  0  0  0  0  0  0  0
  -23.1916  -28.7019   23.2905 O   0  0  0  0  0  0  0  0  0  0  0  0
  -20.6457  -29.4261   20.6093 O   0  0  0  0  0  0  0  0  0  0  0  0
  -22.4033  -26.1177   17.6962 O   0  0  0  0  0  0  0  0  0  0  0  0
  -25.7258  -11.2654   20.8403 O   0  0  0  0  0  0  0  0  0  0  0  0
  -28.6994  -26.8143   20.1912 O   0  0  0  0  0  0  0  0  0  1  0  0
  -20.5893   -9.4944   19.9000 F   0  0  0  0  0  0  0  0  0  0  0  0
  -24.3116   -9.9139   22.7938 F   0  0  0  0  0  0  0  0  0  0  0  0
  1  2  1  0  0  0  0
  1  8  2  0  0  0  0
  2  9  2  0  0  0  0
  3  6  2  0  0  0  0
  3  7  1  0  0  0  0
  4 11  2  0  0  0  0
  4 19  1  0  0  0  0
  5 12  1  0  0  0  0
  5 19  2  0  0  0  0
  6 20  1  0  0  0  0
  7 21  2  0  0  0  0
  8 23  1  0  0  0  0
  9 25  1  0  0  0  0
 10 13  2  0  0  0  0
 10 24  1  0  0  0  0
 11 27  1  0  0  0  0
 12 27  2  0  0  0  0
 13 28  1  0  0  0  0
 14 15  2  0  0  0  0
 14 29  1  0  0  0  0
 15 30  1  0  0  0  0
 16 20  2  0  0  0  0
 16 21  1  0  0  0  0
 17 26  1  0  0  0  0
 17 28  2  0  0  0  0
 18 30  2  0  0  0  0
 18 31  1  0  0  0  0
 19 32  1  0  0  0  0
 20 34  1  0  0  0  0
 21 36  1  0  0  0  0
 22 32  1  0  0  0  0
 22 33  2  0  0  0  0
 22 37  1  0  0  0  0
 23 25  2  0  0  0  0
 23 43  1  0  0  0  0
 24 26  2  0  0  0  0
 24 44  1  0  0  0  0
 25 52  1  0  0  0  0
 26 45  1  0  0  0  0
 27 80  1  0  0  0  0
 28 81  1  0  0  0  0
 29 31  2  0  0  0  0
 29 80  1  0  0  0  0
 30 82  1  0  0  0  0
 31 83  1  0  0  0  0
 32 64  2  0  0  0  0
 33 66  1  0  0  0  0
 33 69  1  0  0  0  0
 34 35  2  0  0  0  0
 35 38  1  0  0  0  0
 36 39  1  0  0  0  0
 36 65  2  0  0  0  0
 37 70  1  0  0  0  0
 37 74  2  0  0  0  0
 38 60  1  0  0  0  0
 38 75  2  0  0  0  0
 39 67  1  0  0  0  0
 39 76  2  0  0  0  0
 40 53  1  0  0  0  0
 40 71  1  0  0  0  0
 40 77  2  0  0  0  0
 41 61  1  0  0  0  0
 41 68  1  0  0  0  0
 41 78  2  0  0  0  0
 42 62  1  0  0  0  0
 42 72  1  0  0  0  0
 42 79  2  0  0  0  0
 43 46  1  0  0  0  0
 44 53  1  0  0  0  0
 45 68  1  0  0  0  0
 46 48  1  0  0  0  0
 47 49  1  0  0  0  0
 47 50  1  0  0  0  0
 48 52  1  0  0  0  0
 49 54  1  0  0  0  0
 50 67  1  0  0  0  0
 51 54  1  0  0  0  0
 51 67  1  0  0  0  0
 52 71  1  0  0  0  0
 53 68  1  0  0  0  0
 54 66  1  0  0  0  0
 55 62  1  0  0  0  0
 56 63  1  0  0  0  0
 57 63  1  0  0  0  0
 58 63  1  0  0  0  0
 59 73  1  0  0  0  0
 60 81  1  0  0  0  0
 61 63  1  0  0  0  0
 61 72  1  0  0  0  0
 62 73  1  0  0  0  0
 64 66  1  0  0  0  0
M  CHG  1  73   1
M  ISO  4  36 100  39 100  60 101  81 101
M  END
> <Batch ID>
0130

> <Smiles>
CNC(C)C(=O)NC(C(=O)N1Cc2cc([101O:1][101CH2:1]C(=O)C=Cc3cccc([100C:0](=N)[100C:0](=O)N4CCCC(n5nc(-c6ccc(Oc7ccc(F)cc7F)cc6)c(C(N)=O)c5N)C4)c3)ccc2CC1C(=O)NC1CCCc2ccccc21)C(C)(C)C

> <Shape>
0.254

> <Color>
0.083

> <Negative vol penalty>
0.000

$$$$

  -OEChem-04052302223D

 88 96  0     1  0  0  0  0  0999 V2000
  -25.7337  -38.3560   20.1305 C   0  0  0  0  0  0  0  0  0  0  0  0
  -26.1728  -37.2722   19.3769 C   0  0  0  0  0  0  0  0  0  0  0  0
  -25.3790   -7.9278   21.6158 C   0  0  0  0  0  0  0  0  0  0  0  0
  -24.1201   -9.8604   20.8968 C   0  0  0  0  0  0  0  0  0  0  0  0
  -25.5721  -38.2252   21.5092 C   0  0  0  0  0  0  0  0  0  0  0  0
  -26.4517  -36.0572   20.0017 C   0  0  0  0  0  0  0  0  0  0  0  0
  -26.1909  -28.9932   18.8408 C   0  0  0  0  0  0  0  0  0  0  0  0
  -24.3681   -7.6062   22.5215 C   0  0  0  0  0  0  0  0  0  0  0  0
  -23.1091   -9.5388   21.8024 C   0  0  0  0  0  0  0  0  0  0  0  0
  -27.0006  -27.8601   18.9074 C   0  0  0  0  0  0  0  0  0  0  0  0
  -21.3186   -6.1481   22.4361 C   0  0  0  0  0  0  0  0  0  0  0  0
  -20.9087   -4.8166   22.5042 C   0  0  0  0  0  0  0  0  0  0  0  0
  -26.6093  -27.7276   21.2841 C   0  0  0  0  0  0  0  0  0  0  0  0
  -30.3024  -17.2493   18.8440 C   0  0  0  0  0  0  0  0  0  0  0  0
  -27.7877  -18.1693   18.0613 C   0  0  0  0  0  0  0  0  0  0  0  0
  -21.5427   -4.7405   24.8343 C   0  0  0  0  0  0  0  0  0  0  0  0
  -25.2551   -9.0549   20.8035 C   0  0  0  0  0  0  0  0  0  0  0  0
  -26.4100   -8.9627   18.5308 C   0  0  0  0  0  0  0  0  0  0  0  0
  -25.8399  -37.0052   22.1498 C   0  0  0  0  0  0  0  0  0  0  0  0
  -25.5922  -29.5092   19.9991 C   0  0  0  0  0  0  0  0  0  0  0  0
  -26.2948  -35.9104   21.3904 C   0  0  0  0  0  0  0  0  0  0  0  0
  -25.7905  -28.8658   21.2291 C   0  0  0  0  0  0  0  0  0  0  0  0
  -30.1425  -18.5699   18.4245 C   0  0  0  0  0  0  0  0  0  0  0  0
  -28.8851  -19.0299   18.0332 C   0  0  0  0  0  0  0  0  0  0  0  0
  -29.2050  -16.3886   18.8721 C   0  0  0  0  0  0  0  0  0  0  0  0
  -23.2332   -8.4117   22.6147 C   0  0  0  0  0  0  0  0  0  0  0  0
  -27.2122  -27.2288   20.1296 C   0  0  0  0  0  0  0  0  0  0  0  0
  -21.8406   -6.7758   23.5671 C   0  0  0  0  0  0  0  0  0  0  0  0
  -27.9477  -16.8487   18.4808 C   0  0  0  0  0  0  0  0  0  0  0  0
  -21.0207   -4.1128   23.7032 C   0  0  0  0  0  0  0  0  0  0  0  0
  -21.9526   -6.0720   24.7662 C   0  0  0  0  0  0  0  0  0  0  0  0
  -26.2993   -9.3880   19.8682 C   0  0  0  0  0  0  0  0  0  0  0  0
  -27.5668   -9.5491   18.0787 C   0  0  0  0  0  0  0  0  0  0  0  0
  -25.5445   -8.1137   17.7655 C   0  0  0  0  0  0  0  0  0  0  0  0
  -25.7772  -32.2571   21.5862 C   0  0  0  0  0  0  0  0  0  0  0  0
  -28.3232  -23.8469   19.4327 C   0  0  0  0  0  0  0  0  0  0  0  0
  -23.3832  -30.9535   23.3446 C   0  0  0  0  0  0  0  0  0  0  0  0
  -21.7859  -28.1390   24.4280 C   0  0  0  0  0  0  0  0  0  0  0  0
  -30.5708  -14.4477   19.7171 C   0  0  0  0  0  0  0  0  0  0  0  0
  -25.6959  -36.9256   23.6490 C   0  0  0  0  0  0  0  0  0  0  0  0
  -24.7000  -30.7166   19.9061 C   0  0  0  0  0  0  0  0  0  0  0  0
  -25.1541  -29.3681   22.4984 C   0  0  0  0  0  0  0  0  0  0  0  0
  -25.6540  -35.4957   24.1819 C   0  0  0  0  0  0  0  0  0  0  0  0
  -31.8215  -11.1156   19.6206 C   0  0  0  0  0  0  0  0  0  0  0  0
  -26.7603  -34.6576   23.5490 C   0  0  0  0  0  0  0  0  0  0  0  0
  -30.5576  -10.2559   19.5453 C   0  0  0  0  0  0  0  0  0  0  0  0
  -31.6220  -12.3407   20.5111 C   0  0  0  0  0  0  0  0  0  0  0  0
  -29.1932  -12.3097   20.0997 C   0  0  0  0  0  0  0  0  0  0  0  0
  -26.5839  -34.5689   22.0284 C   0  0  1  0  0  0  0  0  0  0  0  0
  -24.5558  -31.4566   21.2324 C   0  0  1  0  0  0  0  0  0  0  0  0
  -29.3251  -11.0984   19.1622 C   0  0  2  0  0  0  0  0  0  0  0  0
  -31.3318  -19.4728   18.4005 C   0  0  0  0  0  0  0  0  0  0  0  0
  -25.4450  -13.5408   18.0712 C   0  0  0  0  0  0  0  0  0  0  0  0
  -19.8859  -27.3900   25.8862 C   0  0  0  0  0  0  0  0  0  0  0  0
  -25.0700  -31.5122   25.8251 C   0  0  0  0  0  0  0  0  0  0  0  0
  -23.6028  -29.9293   27.0939 C   0  0  0  0  0  0  0  0  0  0  0  0
  -22.6309  -31.9964   26.0914 C   0  0  0  0  0  0  0  0  0  0  0  0
  -20.3870  -26.8670   22.1510 C   0  0  0  0  0  0  0  0  0  0  0  0
  -28.6871  -20.4523   17.5754 C   0  0  0  0  0  0  0  0  0  0  0  0
  -28.4094  -22.8584   18.2816 C   0  0  0  0  0  0  0  0  0  0  0  0
  -28.0491  -25.2861   19.0427 C   0  0  0  0  0  0  0  0  0  1  0  0
  -25.0125  -14.8769   17.4946 C   0  0  0  0  0  0  0  0  0  0  0  0
  -28.6516  -21.4267   18.7542 C   0  0  0  0  0  0  0  0  0  0  0  0
  -26.1970  -15.8013   17.2585 C   0  0  0  0  0  0  0  0  0  0  0  0
  -23.3130  -30.0881   24.5796 C   0  0  1  0  0  0  0  0  0  0  0  0
  -20.3136  -27.7724   24.4778 C   0  0  2  0  0  0  0  0  0  0  0  0
  -23.6679  -30.8729   25.8741 C   0  0  0  0  0  0  0  0  0  0  0  0
  -27.3056  -10.1830   20.2414 N   0  0  0  0  0  0  0  0  0  0  0  0
  -28.0597  -10.2619   19.1318 N   0  0  0  0  0  0  0  0  0  0  0  0
  -24.2953  -30.5556   22.3569 N   0  0  0  0  0  0  0  0  0  0  0  0
  -30.4390  -13.0923   20.0862 N   0  0  0  0  0  0  0  0  0  0  0  0
  -28.2004   -9.5193   16.8870 N   0  0  0  0  0  0  0  0  0  0  0  0
  -24.3982   -7.5963   18.3842 N   0  0  0  0  0  0  0  0  0  0  0  0
  -29.3842  -15.0497   19.2997 N   0  0  0  0  0  0  0  0  0  0  0  0
  -25.5476  -33.6154   21.6945 N   0  0  0  0  0  0  0  0  0  0  0  0
  -21.9802  -29.4948   24.5870 N   0  0  0  0  0  0  0  0  0  0  0  0
  -20.0356  -26.6210   23.5733 N   0  3  0  0  0  0  0  0  0  0  0  0
  -25.7892   -7.8091   16.5735 O   0  0  0  0  0  0  0  0  0  0  0  0
  -26.8482  -31.6846   21.7502 O   0  0  0  0  0  0  0  0  0  0  0  0
  -28.4674  -23.5099   20.6068 O   0  0  0  0  0  0  0  0  0  0  0  0
  -22.6506  -31.9419   23.2563 O   0  0  0  0  0  0  0  0  0  0  0  0
  -22.6748  -27.3055   24.2680 O   0  0  0  0  0  0  0  0  0  0  0  0
  -31.6614  -15.0239   19.7415 O   0  0  0  0  0  0  0  0  0  0  0  0
  -22.2464   -8.0980   23.4982 O   0  0  0  0  0  0  0  0  0  0  0  0
  -28.0026  -26.1231   20.1975 O   0  0  0  0  0  0  0  0  0  1  0  0
  -26.8635  -16.0227   18.4994 O   0  0  0  0  0  0  0  0  0  0  0  0
  -20.6256   -2.8346   23.7688 F   0  0  0  0  0  0  0  0  0  0  0  0
  -22.4522   -6.6701   25.8564 F   0  0  0  0  0  0  0  0  0  0  0  0
  1  2  1  0  0  0  0
  1  5  2  0  0  0  0
  2  6  2  0  0  0  0
  3  8  2  0  0  0  0
  3 17  1  0  0  0  0
  4  9  1  0  0  0  0
  4 17  2  0  0  0  0
  5 19  1  0  0  0  0
  6 21  1  0  0  0  0
  7 10  2  0  0  0  0
  7 20  1  0  0  0  0
  8 26  1  0  0  0  0
  9 26  2  0  0  0  0
 10 27  1  0  0  0  0
 11 12  2  0  0  0  0
 11 28  1  0  0  0  0
 12 30  1  0  0  0  0
 13 22  1  0  0  0  0
 13 27  2  0  0  0  0
 14 23  2  0  0  0  0
 14 25  1  0  0  0  0
 15 24  2  0  0  0  0
 15 29  1  0  0  0  0
 16 30  2  0  0  0  0
 16 31  1  0  0  0  0
 17 32  1  0  0  0  0
 18 32  1  0  0  0  0
 18 33  2  0  0  0  0
 18 34  1  0  0  0  0
 19 21  2  0  0  0  0
 19 40  1  0  0  0  0
 20 22  2  0  0  0  0
 20 41  1  0  0  0  0
 21 49  1  0  0  0  0
 22 42  1  0  0  0  0
 23 24  1  0  0  0  0
 23 52  1  0  0  0  0
 24 59  1  0  0  0  0
 25 29  2  0  0  0  0
 25 74  1  0  0  0  0
 26 84  1  0  0  0  0
 27 85  1  0  0  0  0
 28 31  2  0  0  0  0
 28 84  1  0  0  0  0
 29 86  1  0  0  0  0
 30 87  1  0  0  0  0
 31 88  1  0  0  0  0
 32 68  2  0  0  0  0
 33 69  1  0  0  0  0
 33 72  1  0  0  0  0
 34 73  1  0  0  0  0
 34 78  2  0  0  0  0
 35 50  1  0  0  0  0
 35 75  1  0  0  0  0
 35 79  2  0  0  0  0
 36 60  1  0  0  0  0
 36 61  1  0  0  0  0
 36 80  2  0  0  0  0
 37 65  1  0  0  0  0
 37 70  1  0  0  0  0
 37 81  2  0  0  0  0
 38 66  1  0  0  0  0
 38 76  1  0  0  0  0
 38 82  2  0  0  0  0
 39 71  1  0  0  0  0
 39 74  1  0  0  0  0
 39 83  2  0  0  0  0
 40 43  1  0  0  0  0
 41 50  1  0  0  0  0
 42 70  1  0  0  0  0
 43 45  1  0  0  0  0
 44 46  1  0  0  0  0
 44 47  1  0  0  0  0
 45 49  1  0  0  0  0
 46 51  1  0  0  0  0
 47 71  1  0  0  0  0
 48 51  1  0  0  0  0
 48 71  1  0  0  0  0
 49 75  1  0  0  0  0
 50 70  1  0  0  0  0
 51 69  1  0  0  0  0
 53 62  1  0  0  0  0
 54 66  1  0  0  0  0
 55 67  1  0  0  0  0
 56 67  1  0  0  0  0
 57 67  1  0  0  0  0
 58 77  1  0  0  0  0
 59 63  1  0  0  0  0
 60 63  1  0  0  0  0
 61 85  1  0  0  0  0
 62 64  1  0  0  0  0
 64 86  1  0  0  0  0
 65 67  1  0  0  0  0
 65 76  1  0  0  0  0
 66 77  1  0  0  0  0
 68 69  1  0  0  0  0
M  CHG  1  77   1
M  ISO  4  39 100  61 101  74 100  85 101
M  END
> <Batch ID>
0130

> <Smiles>
CCCOc1cc(CCCC(=O)[101CH2:1][101O:1]c2ccc3c(c2)CN(C(=O)C(NC(=O)C(C)NC)C(C)(C)C)C(C(=O)NC2CCCc4ccccc42)C3)c(C)cc1[100NH:0][100C:0](=O)N1CCCC(n2nc(-c3ccc(Oc4ccc(F)cc4F)cc3)c(C(N)=O)c2N)C1

> <Shape>
0.276

> <Color>
0.089

> <Negative vol penalty>
0.000

$$$$

  -OEChem-04052302223D

 81 89  0     1  0  0  0  0  0999 V2000
  -29.8101  -21.8789   23.2568 C   0  0  0  0  0  0  0  0  0  0  0  0
  -29.3473  -22.6218   22.1755 C   0  0  0  0  0  0  0  0  0  0  0  0
  -26.1247  -12.8213   19.7977 C   0  0  0  0  0  0  0  0  0  0  0  0
  -24.8936  -14.4732   21.0598 C   0  0  0  0  0  0  0  0  0  0  0  0
  -28.9302  -21.5043   24.2714 C   0  0  0  0  0  0  0  0  0  0  0  0
  -28.0039  -22.9897   22.1077 C   0  0  0  0  0  0  0  0  0  0  0  0
  -27.3807  -27.8270   20.7451 C   0  0  0  0  0  0  0  0  0  0  0  0
  -25.5790  -11.8103   20.5885 C   0  0  0  0  0  0  0  0  0  0  0  0
  -24.3478  -13.4621   21.8507 C   0  0  0  0  0  0  0  0  0  0  0  0
  -27.5249  -28.1311   19.3921 C   0  0  0  0  0  0  0  0  0  0  0  0
  -24.2307   -8.7636   22.0429 C   0  0  0  0  0  0  0  0  0  0  0  0
  -23.7542   -7.6221   21.3985 C   0  0  0  0  0  0  0  0  0  0  0  0
  -29.0497  -24.8648   16.6534 C   0  0  0  0  0  0  0  0  0  0  0  0
  -29.6272  -23.7805   17.3751 C   0  0  0  0  0  0  0  0  0  0  0  0
  -25.1253  -28.1378   19.1442 C   0  0  0  0  0  0  0  0  0  0  0  0
  -22.1820   -8.9767   20.1614 C   0  0  0  0  0  0  0  0  0  0  0  0
  -25.7821  -14.1528   20.0333 C   0  0  0  0  0  0  0  0  0  0  0  0
  -25.8190  -15.7195   18.0204 C   0  0  0  0  0  0  0  0  0  0  0  0
  -27.5775  -21.8760   24.2208 C   0  0  0  0  0  0  0  0  0  0  0  0
  -26.1059  -27.6651   21.3064 C   0  0  0  0  0  0  0  0  0  0  0  0
  -27.1049  -22.6185   23.1219 C   0  0  0  0  0  0  0  0  0  0  0  0
  -24.9677  -27.8343   20.5051 C   0  0  0  0  0  0  0  0  0  0  0  0
  -24.6905  -12.1306   21.6150 C   0  0  0  0  0  0  0  0  0  0  0  0
  -26.3972  -28.2836   18.5908 C   0  0  0  0  0  0  0  0  0  0  0  0
  -23.6829  -10.0118   21.7467 C   0  0  0  0  0  0  0  0  0  0  0  0
  -22.7299   -7.7286   20.4577 C   0  0  0  0  0  0  0  0  0  0  0  0
  -22.6586  -10.1183   20.8059 C   0  0  0  0  0  0  0  0  0  0  0  0
  -26.3459  -15.1977   19.2170 C   0  0  0  0  0  0  0  0  0  0  0  0
  -27.7436  -24.6114   16.2963 C   0  0  0  0  0  0  0  0  0  0  0  0
  -26.7204  -16.6834   17.6398 C   0  0  0  0  0  0  0  0  0  0  0  0
  -28.7403  -22.7396   17.5424 C   0  0  0  0  0  0  0  0  0  0  0  0
  -24.6216  -15.3648   17.3160 C   0  0  0  0  0  0  0  0  0  0  0  0
  -26.7935  -25.4803   15.5410 C   0  0  0  0  0  0  0  0  0  0  0  0
  -24.5635  -25.2699   22.7162 C   0  0  0  0  0  0  0  0  0  0  0  0
  -22.3115  -27.5447   23.2418 C   0  0  0  0  0  0  0  0  0  0  0  0
  -20.8281  -30.2600   21.3860 C   0  0  0  0  0  0  0  0  0  0  0  0
  -30.0289  -21.0005   18.8313 C   0  0  0  0  0  0  0  0  0  0  0  0
  -26.6544  -21.4074   25.3176 C   0  0  0  0  0  0  0  0  0  0  0  0
  -25.9668  -27.3635   22.7734 C   0  0  0  0  0  0  0  0  0  0  0  0
  -23.5763  -27.6908   21.0637 C   0  0  0  0  0  0  0  0  0  0  0  0
  -25.3253  -22.1572   25.3568 C   0  0  0  0  0  0  0  0  0  0  0  0
  -31.3485  -17.7420   19.3952 C   0  0  0  0  0  0  0  0  0  0  0  0
  -24.7327  -22.2670   23.9555 C   0  0  0  0  0  0  0  0  0  0  0  0
  -30.1213  -16.8325   19.3007 C   0  0  0  0  0  0  0  0  0  0  0  0
  -31.0151  -19.0775   20.0579 C   0  0  0  0  0  0  0  0  0  0  0  0
  -28.6575  -18.8916   19.3674 C   0  0  0  0  0  0  0  0  0  0  0  0
  -25.6600  -23.0578   23.0248 C   0  0  1  0  0  0  0  0  0  0  0  0
  -24.6323  -26.7139   23.1259 C   0  0  1  0  0  0  0  0  0  0  0  0
  -28.9295  -17.5602   18.6483 C   0  0  2  0  0  0  0  0  0  0  0  0
  -19.7812  -32.3982   22.1794 C   0  0  0  0  0  0  0  0  0  0  0  0
  -19.6961  -25.9801   23.0945 C   0  0  0  0  0  0  0  0  0  0  0  0
  -18.5847  -28.0539   22.2388 C   0  0  0  0  0  0  0  0  0  0  0  0
  -19.6034  -28.0359   24.5158 C   0  0  0  0  0  0  0  0  0  0  0  0
  -22.6292  -31.9008   19.7060 C   0  0  0  0  0  0  0  0  0  0  0  0
  -27.2690  -26.8469   15.0714 C   0  0  0  0  0  0  0  0  0  0  0  0
  -26.1327  -27.8659   15.0147 C   0  0  0  0  0  0  0  0  0  0  0  0
  -25.5202  -28.1019   16.3877 C   0  0  0  0  0  0  0  0  0  1  0  0
  -21.1087  -28.0534   22.4846 C   0  0  1  0  0  0  0  0  0  0  0  0
  -21.0371  -31.7445   21.6242 C   0  0  2  0  0  0  0  0  0  0  0  0
  -19.7708  -27.5199   23.0699 C   0  0  0  0  0  0  0  0  0  0  0  0
  -27.4933  -15.7816   19.5730 N   0  0  0  0  0  0  0  0  0  0  0  0
  -27.6947  -16.6802   18.5942 N   0  0  0  0  0  0  0  0  0  0  0  0
  -23.4925  -27.3894   22.5023 N   0  0  0  0  0  0  0  0  0  0  0  0
  -29.8794  -19.7111   19.3844 N   0  0  0  0  0  0  0  0  0  0  0  0
  -26.7668  -17.5248   16.5852 N   0  0  0  0  0  0  0  0  0  0  0  0
  -23.8093  -14.3532   17.8462 N   0  0  0  0  0  0  0  0  0  0  0  0
  -28.8917  -21.4872   18.1876 N   0  0  0  0  0  0  0  0  0  0  0  0
  -25.5436  -24.4772   23.2823 N   0  0  0  0  0  0  0  0  0  0  0  0
  -21.2183  -29.5082   22.4740 N   0  0  0  0  0  0  0  0  0  0  0  0
  -21.3985  -32.4278   20.3500 N   0  3  0  0  0  0  0  0  0  0  0  0
  -24.2906  -15.9168   16.2393 O   0  0  0  0  0  0  0  0  0  0  0  0
  -25.6559  -25.0726   15.3173 O   0  0  0  0  0  0  0  0  0  0  0  0
  -23.6852  -24.9019   21.9449 O   0  0  0  0  0  0  0  0  0  0  0  0
  -22.2089  -27.3011   24.4467 O   0  0  0  0  0  0  0  0  0  0  0  0
  -20.3615  -29.8123   20.3408 O   0  0  0  0  0  0  0  0  0  0  0  0
  -31.0962  -21.6156   18.8984 O   0  0  0  0  0  0  0  0  0  0  0  0
  -24.1576  -11.1443   22.3868 O   0  0  0  0  0  0  0  0  0  0  0  0
  -26.5350  -28.5798   17.2698 O   0  0  0  0  0  0  0  0  0  1  0  0
  -22.2734   -6.6325   19.8378 F   0  0  0  0  0  0  0  0  0  0  0  0
  -22.1291  -11.3148   20.5163 F   0  0  0  0  0  0  0  0  0  0  0  0
  -27.2186  -23.0715   16.8307 S   0  0  0  0  0  0  0  0  0  0  0  0
  1  2  1  0  0  0  0
  1  5  2  0  0  0  0
  2  6  2  0  0  0  0
  3  8  2  0  0  0  0
  3 17  1  0  0  0  0
  4  9  1  0  0  0  0
  4 17  2  0  0  0  0
  5 19  1  0  0  0  0
  6 21  1  0  0  0  0
  7 10  2  0  0  0  0
  7 20  1  0  0  0  0
  8 23  1  0  0  0  0
  9 23  2  0  0  0  0
 10 24  1  0  0  0  0
 11 12  2  0  0  0  0
 11 25  1  0  0  0  0
 12 26  1  0  0  0  0
 13 14  1  0  0  0  0
 13 29  2  0  0  0  0
 14 31  2  0  0  0  0
 15 22  1  0  0  0  0
 15 24  2  0  0  0  0
 16 26  2  0  0  0  0
 16 27  1  0  0  0  0
 17 28  1  0  0  0  0
 18 28  1  0  0  0  0
 18 30  2  0  0  0  0
 18 32  1  0  0  0  0
 19 21  2  0  0  0  0
 19 38  1  0  0  0  0
 20 22  2  0  0  0  0
 20 39  1  0  0  0  0
 21 47  1  0  0  0  0
 22 40  1  0  0  0  0
 23 77  1  0  0  0  0
 24 78  1  0  0  0  0
 25 27  2  0  0  0  0
 25 77  1  0  0  0  0
 26 79  1  0  0  0  0
 27 80  1  0  0  0  0
 28 61  2  0  0  0  0
 29 33  1  0  0  0  0
 29 81  1  0  0  0  0
 30 62  1  0  0  0  0
 30 65  1  0  0  0  0
 31 67  1  0  0  0  0
 31 81  1  0  0  0  0
 32 66  1  0  0  0  0
 32 71  2  0  0  0  0
 33 55  1  0  0  0  0
 33 72  2  0  0  0  0
 34 48  1  0  0  0  0
 34 68  1  0  0  0  0
 34 73  2  0  0  0  0
 35 58  1  0  0  0  0
 35 63  1  0  0  0  0
 35 74  2  0  0  0  0
 36 59  1  0  0  0  0
 36 69  1  0  0  0  0
 36 75  2  0  0  0  0
 37 64  1  0  0  0  0
 37 67  1  0  0  0  0
 37 76  2  0  0  0  0
 38 41  1  0  0  0  0
 39 48  1  0  0  0  0
 40 63  1  0  0  0  0
 41 43  1  0  0  0  0
 42 44  1  0  0  0  0
 42 45  1  0  0  0  0
 43 47  1  0  0  0  0
 44 49  1  0  0  0  0
 45 64  1  0  0  0  0
 46 49  1  0  0  0  0
 46 64  1  0  0  0  0
 47 68  1  0  0  0  0
 48 63  1  0  0  0  0
 49 62  1  0  0  0  0
 50 59  1  0  0  0  0
 51 60  1  0  0  0  0
 52 60  1  0  0  0  0
 53 60  1  0  0  0  0
 54 70  1  0  0  0  0
 55 56  1  0  0  0  0
 56 57  1  0  0  0  0
 57 78  1  0  0  0  0
 58 60  1  0  0  0  0
 58 69  1  0  0  0  0
 59 70  1  0  0  0  0
 61 62  1  0  0  0  0
M  CHG  1  70   1
M  ISO  4  37 100  57 101  67 100  78 101
M  END
> <Batch ID>
0130

> <Smiles>
CNC(C)C(=O)NC(C(=O)N1Cc2cc([101O:1][101CH2:1]CCC(=O)c3ccc([100NH:0][100C:0](=O)N4CCCC(n5nc(-c6ccc(Oc7ccc(F)cc7F)cc6)c(C(N)=O)c5N)C4)s3)ccc2CC1C(=O)NC1CCCc2ccccc21)C(C)(C)C

> <Shape>
0.200

> <Color>
0.067

> <Negative vol penalty>
0.000

$$$$

  -OEChem-04052302223D

 83 91  0     1  0  0  0  0  0999 V2000
  -29.9197  -34.4319   23.1187 C   0  0  0  0  0  0  0  0  0  0  0  0
  -29.7422  -33.0606   22.9653 C   0  0  0  0  0  0  0  0  0  0  0  0
  -24.7846   -8.9375   21.3176 C   0  0  0  0  0  0  0  0  0  0  0  0
  -23.2624  -10.2980   20.0256 C   0  0  0  0  0  0  0  0  0  0  0  0
  -28.7809  -19.4522   14.9089 C   0  0  0  0  0  0  0  0  0  0  0  0
  -28.8598  -35.2265   23.5535 C   0  0  0  0  0  0  0  0  0  0  0  0
  -28.5049  -32.4830   23.2477 C   0  0  0  0  0  0  0  0  0  0  0  0
  -27.0592  -29.1604   19.7100 C   0  0  0  0  0  0  0  0  0  0  0  0
  -28.7068  -18.0873   14.6314 C   0  0  0  0  0  0  0  0  0  0  0  0
  -23.7125   -8.1705   21.7732 C   0  0  0  0  0  0  0  0  0  0  0  0
  -22.1902   -9.5309   20.4812 C   0  0  0  0  0  0  0  0  0  0  0  0
  -27.6485  -27.8973   19.7441 C   0  0  0  0  0  0  0  0  0  0  0  0
  -21.2698   -8.4348   24.0944 C   0  0  0  0  0  0  0  0  0  0  0  0
  -21.2259   -8.1266   25.4540 C   0  0  0  0  0  0  0  0  0  0  0  0
  -28.7548  -18.9723   17.2766 C   0  0  0  0  0  0  0  0  0  0  0  0
  -25.6885  -27.0191   20.8425 C   0  0  0  0  0  0  0  0  0  0  0  0
  -21.2913   -5.7708   24.9221 C   0  0  0  0  0  0  0  0  0  0  0  0
  -24.5596  -10.0014   20.4439 C   0  0  0  0  0  0  0  0  0  0  0  0
  -28.8050  -19.8948   16.2315 C   0  0  0  0  0  0  0  0  0  0  0  0
  -26.4440  -10.5704   18.8212 C   0  0  0  0  0  0  0  0  0  0  0  0
  -27.6061  -34.6597   23.8322 C   0  0  0  0  0  0  0  0  0  0  0  0
  -25.7824  -29.3650   20.2527 C   0  0  0  0  0  0  0  0  0  0  0  0
  -27.4276  -33.2706   23.6880 C   0  0  0  0  0  0  0  0  0  0  0  0
  -25.0842  -28.2852   20.8118 C   0  0  0  0  0  0  0  0  0  0  0  0
  -28.6566  -17.1648   15.6765 C   0  0  0  0  0  0  0  0  0  0  0  0
  -28.6807  -17.6073   16.9991 C   0  0  0  0  0  0  0  0  0  0  0  0
  -22.4152   -8.4671   21.3549 C   0  0  0  0  0  0  0  0  0  0  0  0
  -26.9644  -26.8270   20.3129 C   0  0  0  0  0  0  0  0  0  0  0  0
  -21.3244   -7.4110   23.1486 C   0  0  0  0  0  0  0  0  0  0  0  0
  -21.2367   -6.7946   25.8679 C   0  0  0  0  0  0  0  0  0  0  0  0
  -21.3352   -6.0790   23.5625 C   0  0  0  0  0  0  0  0  0  0  0  0
  -25.6667  -10.7945   19.9733 C   0  0  0  0  0  0  0  0  0  0  0  0
  -27.3592  -11.5946   18.8199 C   0  0  0  0  0  0  0  0  0  0  0  0
  -28.8838  -21.3360   16.5228 C   0  0  0  0  0  0  0  0  0  0  0  0
  -29.2885  -21.8701   17.6858 C   0  0  0  0  0  0  0  0  0  0  0  0
  -26.3474   -9.5296   17.8399 C   0  0  0  0  0  0  0  0  0  0  0  0
  -24.6057  -31.1423   22.6107 C   0  0  0  0  0  0  0  0  0  0  0  0
  -21.7629  -30.0580   21.4859 C   0  0  0  0  0  0  0  0  0  0  0  0
  -20.0532  -27.6561   19.7672 C   0  0  0  0  0  0  0  0  0  0  0  0
  -28.6477  -16.9761   19.4377 C   0  0  0  0  0  0  0  0  0  0  0  0
  -26.5037  -35.5522   24.3449 C   0  0  0  0  0  0  0  0  0  0  0  0
  -25.1497  -30.7278   20.1841 C   0  0  0  0  0  0  0  0  0  0  0  0
  -23.7028  -28.4478   21.3896 C   0  0  0  0  0  0  0  0  0  0  0  0
  -25.1182  -34.9168   24.2637 C   0  0  0  0  0  0  0  0  0  0  0  0
  -28.5042  -14.9935   22.3917 C   0  0  0  0  0  0  0  0  0  0  0  0
  -25.1540  -33.4880   24.7968 C   0  0  0  0  0  0  0  0  0  0  0  0
  -27.8171  -13.7059   21.9311 C   0  0  0  0  0  0  0  0  0  0  0  0
  -27.9280  -16.2245   21.6943 C   0  0  0  0  0  0  0  0  0  0  0  0
  -27.2160  -14.8649   19.7672 C   0  0  0  0  0  0  0  0  0  0  0  0
  -26.0933  -32.6106   23.9605 C   0  0  1  0  0  0  0  0  0  0  0  0
  -24.0562  -30.9321   21.2281 C   0  0  1  0  0  0  0  0  0  0  0  0
  -27.8068  -13.5915   20.3941 C   0  0  2  0  0  0  0  0  0  0  0  0
  -28.5763  -15.7089   15.3497 C   0  0  0  0  0  0  0  0  0  0  0  0
  -17.7342  -27.0239   19.0461 C   0  0  0  0  0  0  0  0  0  0  0  0
  -21.1356  -29.1310   24.3244 C   0  0  0  0  0  0  0  0  0  0  0  0
  -19.3066  -27.7059   23.3802 C   0  0  0  0  0  0  0  0  0  0  0  0
  -19.2126  -30.1853   23.1224 C   0  0  0  0  0  0  0  0  0  0  0  0
  -20.7813  -27.7943   16.9019 C   0  0  0  0  0  0  0  0  0  0  0  0
  -29.3569  -23.3501   17.9361 C   0  0  0  0  0  0  0  0  0  0  0  0
  -28.4141  -23.7651   19.0641 C   0  0  0  0  0  0  0  0  0  0  0  0
  -28.4466  -25.2693   19.2969 C   0  0  0  0  0  0  0  0  0  1  0  0
  -20.8877  -28.8610   21.7687 C   0  0  1  0  0  0  0  0  0  0  0  0
  -19.0132  -27.7534   18.6657 C   0  0  2  0  0  0  0  0  0  0  0  0
  -20.1624  -28.9678   23.1399 C   0  0  0  0  0  0  0  0  0  0  0  0
  -26.0544  -11.8760   20.6545 N   0  0  0  0  0  0  0  0  0  0  0  0
  -27.0853  -12.3406   19.9283 N   0  0  0  0  0  0  0  0  0  0  0  0
  -23.1293  -29.8011   21.3045 N   0  0  0  0  0  0  0  0  0  0  0  0
  -27.9544  -16.0461   20.2409 N   0  0  0  0  0  0  0  0  0  0  0  0
  -28.3634  -11.9208   17.9787 N   0  0  0  0  0  0  0  0  0  0  0  0
  -25.3495   -8.5574   17.9931 N   0  0  0  0  0  0  0  0  0  0  0  0
  -28.6312  -16.6854   18.0740 N   0  0  0  0  0  0  0  0  0  0  0  0
  -25.4551  -32.2268   22.7196 N   0  0  0  0  0  0  0  0  0  0  0  0
  -19.9897  -28.7328   20.6261 N   0  0  0  0  0  0  0  0  0  0  0  0
  -19.5371  -27.1569   17.4045 N   0  3  0  0  0  0  0  0  0  0  0  0
  -27.1333   -9.4543   16.8651 O   0  0  0  0  0  0  0  0  0  0  0  0
  -24.2819  -30.3781   23.5122 O   0  0  0  0  0  0  0  0  0  0  0  0
  -21.2520  -31.1789   21.4211 O   0  0  0  0  0  0  0  0  0  0  0  0
  -20.8405  -26.7168   19.8588 O   0  0  0  0  0  0  0  0  0  0  0  0
  -29.2373  -17.9433   19.9266 O   0  0  0  0  0  0  0  0  0  0  0  0
  -21.3688   -7.7186   21.7991 O   0  0  0  0  0  0  0  0  0  0  0  0
  -27.5375  -25.5933   20.3480 O   0  0  0  0  0  0  0  0  0  1  0  0
  -21.1960   -6.4988   27.1737 F   0  0  0  0  0  0  0  0  0  0  0  0
  -21.3888   -5.0912   22.6585 F   0  0  0  0  0  0  0  0  0  0  0  0
  1  2  1  0  0  0  0
  1  6  2  0  0  0  0
  2  7  2  0  0  0  0
  3 10  2  0  0  0  0
  3 18  1  0  0  0  0
  4 11  1  0  0  0  0
  4 18  2  0  0  0  0
  5  9  2  0  0  0  0
  5 19  1  0  0  0  0
  6 21  1  0  0  0  0
  7 23  1  0  0  0  0
  8 12  2  0  0  0  0
  8 22  1  0  0  0  0
  9 25  1  0  0  0  0
 10 27  1  0  0  0  0
 11 27  2  0  0  0  0
 12 28  1  0  0  0  0
 13 14  2  0  0  0  0
 13 29  1  0  0  0  0
 14 30  1  0  0  0  0
 15 19  2  0  0  0  0
 15 26  1  0  0  0  0
 16 24  1  0  0  0  0
 16 28  2  0  0  0  0
 17 30  2  0  0  0  0
 17 31  1  0  0  0  0
 18 32  1  0  0  0  0
 19 34  1  0  0  0  0
 20 32  1  0  0  0  0
 20 33  2  0  0  0  0
 20 36  1  0  0  0  0
 21 23  2  0  0  0  0
 21 41  1  0  0  0  0
 22 24  2  0  0  0  0
 22 42  1  0  0  0  0
 23 50  1  0  0  0  0
 24 43  1  0  0  0  0
 25 26  2  0  0  0  0
 25 53  1  0  0  0  0
 26 71  1  0  0  0  0
 27 80  1  0  0  0  0
 28 81  1  0  0  0  0
 29 31  2  0  0  0  0
 29 80  1  0  0  0  0
 30 82  1  0  0  0  0
 31 83  1  0  0  0  0
 32 65  2  0  0  0  0
 33 66  1  0  0  0  0
 33 69  1  0  0  0  0
 34 35  2  0  0  0  0
 35 59  1  0  0  0  0
 36 70  1  0  0  0  0
 36 75  2  0  0  0  0
 37 51  1  0  0  0  0
 37 72  1  0  0  0  0
 37 76  2  0  0  0  0
 38 62  1  0  0  0  0
 38 67  1  0  0  0  0
 38 77  2  0  0  0  0
 39 63  1  0  0  0  0
 39 73  1  0  0  0  0
 39 78  2  0  0  0  0
 40 68  1  0  0  0  0
 40 71  1  0  0  0  0
 40 79  2  0  0  0  0
 41 44  1  0  0  0  0
 42 51  1  0  0  0  0
 43 67  1  0  0  0  0
 44 46  1  0  0  0  0
 45 47  1  0  0  0  0
 45 48  1  0  0  0  0
 46 50  1  0  0  0  0
 47 52  1  0  0  0  0
 48 68  1  0  0  0  0
 49 52  1  0  0  0  0
 49 68  1  0  0  0  0
 50 72  1  0  0  0  0
 51 67  1  0  0  0  0
 52 66  1  0  0  0  0
 54 63  1  0  0  0  0
 55 64  1  0  0  0  0
 56 64  1  0  0  0  0
 57 64  1  0  0  0  0
 58 74  1  0  0  0  0
 59 60  1  0  0  0  0
 60 61  1  0  0  0  0
 61 81  1  0  0  0  0
 62 64  1  0  0  0  0
 62 73  1  0  0  0  0
 63 74  1  0  0  0  0
 65 66  1  0  0  0  0
M  CHG  1  74   1
M  ISO  4  40 100  61 101  71 100  81 101
M  END
> <Batch ID>
0130

> <Smiles>
CNC(C)C(=O)NC(C(=O)N1Cc2cc([101O:1][101CH2:1]CCC=Cc3ccc(C)c([100NH:0][100C:0](=O)N4CCCC(n5nc(-c6ccc(Oc7ccc(F)cc7F)cc6)c(C(N)=O)c5N)C4)c3)ccc2CC1C(=O)NC1CCCc2ccccc21)C(C)(C)C

> <Shape>
0.301

> <Color>
0.085

> <Negative vol penalty>
0.000

$$$$

  -OEChem-04052302223D

 84 92  0     1  0  0  0  0  0999 V2000
  -34.1521  -17.5069   23.4580 C   0  0  0  0  0  0  0  0  0  0  0  0
  -21.4071  -27.9500   16.8745 C   0  0  0  0  0  0  0  0  0  0  0  0
  -22.5086  -27.5207   17.6078 C   0  0  0  0  0  0  0  0  0  0  0  0
  -23.0386   -9.9143   20.0416 C   0  0  0  0  0  0  0  0  0  0  0  0
  -23.7755  -10.0193   22.3401 C   0  0  0  0  0  0  0  0  0  0  0  0
  -20.4849  -28.8227   17.4505 C   0  0  0  0  0  0  0  0  0  0  0  0
  -22.6891  -27.9648   18.9173 C   0  0  0  0  0  0  0  0  0  0  0  0
  -23.9921  -24.2259   22.0745 C   0  0  0  0  0  0  0  0  0  0  0  0
  -22.2684   -8.7903   20.3398 C   0  0  0  0  0  0  0  0  0  0  0  0
  -23.0052   -8.8953   22.6383 C   0  0  0  0  0  0  0  0  0  0  0  0
  -25.3193  -23.8000   22.0437 C   0  0  0  0  0  0  0  0  0  0  0  0
  -19.7553   -8.1941   23.2438 C   0  0  0  0  0  0  0  0  0  0  0  0
  -18.9860   -8.2275   24.4068 C   0  0  0  0  0  0  0  0  0  0  0  0
  -32.1379  -16.5928   22.4144 C   0  0  0  0  0  0  0  0  0  0  0  0
  -31.9461  -18.4259   23.9763 C   0  0  0  0  0  0  0  0  0  0  0  0
  -25.7826  -25.1213   24.0081 C   0  0  0  0  0  0  0  0  0  0  0  0
  -29.9657  -17.5124   22.9367 C   0  0  0  0  0  0  0  0  0  0  0  0
  -20.1792   -6.3040   25.2514 C   0  0  0  0  0  0  0  0  0  0  0  0
  -32.7341  -17.5083   23.2815 C   0  0  0  0  0  0  0  0  0  0  0  0
  -23.7922  -10.5288   21.0417 C   0  0  0  0  0  0  0  0  0  0  0  0
  -24.1879  -13.0374   20.8013 C   0  0  0  0  0  0  0  0  0  0  0  0
  -20.6490  -29.2701   18.7709 C   0  0  0  0  0  0  0  0  0  0  0  0
  -23.5521  -25.1128   23.0676 C   0  0  0  0  0  0  0  0  0  0  0  0
  -21.7689  -28.8454   19.5110 C   0  0  0  0  0  0  0  0  0  0  0  0
  -24.4487  -25.5549   24.0508 C   0  0  0  0  0  0  0  0  0  0  0  0
  -30.7537  -16.5948   22.2420 C   0  0  0  0  0  0  0  0  0  0  0  0
  -22.2517   -8.2808   21.6382 C   0  0  0  0  0  0  0  0  0  0  0  0
  -26.2155  -24.2500   23.0089 C   0  0  0  0  0  0  0  0  0  0  0  0
  -20.7365   -7.2155   23.0845 C   0  0  0  0  0  0  0  0  0  0  0  0
  -30.5619  -18.4280   23.8039 C   0  0  0  0  0  0  0  0  0  0  0  0
  -19.1980   -7.2825   25.4106 C   0  0  0  0  0  0  0  0  0  0  0  0
  -20.9485   -6.2705   24.0883 C   0  0  0  0  0  0  0  0  0  0  0  0
  -24.5885  -11.6896   20.7342 C   0  0  0  0  0  0  0  0  0  0  0  0
  -25.2990  -13.7456   20.4136 C   0  0  0  0  0  0  0  0  0  0  0  0
  -29.2597  -22.7087   24.1259 C   0  0  0  0  0  0  0  0  0  0  0  0
  -29.3117  -21.6141   24.8989 C   0  0  0  0  0  0  0  0  0  0  0  0
  -22.9243  -13.5991   21.1803 C   0  0  0  0  0  0  0  0  0  0  0  0
  -22.3420  -28.0521   23.0740 C   0  0  0  0  0  0  0  0  0  0  0  0
  -21.9703  -27.4723   26.2439 C   0  0  0  0  0  0  0  0  0  0  0  0
  -22.9566  -25.7256   29.0048 C   0  0  0  0  0  0  0  0  0  0  0  0
  -30.7838  -14.6872   20.5969 C   0  0  0  0  0  0  0  0  0  0  0  0
  -19.6509  -30.2503   19.3346 C   0  0  0  0  0  0  0  0  0  0  0  0
  -22.1108  -25.5418   23.1028 C   0  0  0  0  0  0  0  0  0  0  0  0
  -24.0215  -26.4916   25.1502 C   0  0  0  0  0  0  0  0  0  0  0  0
  -19.7149  -30.3786   20.8543 C   0  0  0  0  0  0  0  0  0  0  0  0
  -29.6430  -12.1823   18.3382 C   0  0  0  0  0  0  0  0  0  0  0  0
  -21.1611  -30.5224   21.3176 C   0  0  0  0  0  0  0  0  0  0  0  0
  -28.1934  -11.9417   18.7657 C   0  0  0  0  0  0  0  0  0  0  0  0
  -30.5506  -12.4516   19.5372 C   0  0  0  0  0  0  0  0  0  0  0  0
  -28.6455  -13.2822   20.8600 C   0  0  0  0  0  0  0  0  0  0  0  0
  -21.9860  -29.2854   20.9425 C   0  0  1  0  0  0  0  0  0  0  0  0
  -21.8951  -26.8501   23.8571 C   0  0  1  0  0  0  0  0  0  0  0  0
  -27.6811  -13.0707   19.6815 C   0  0  2  0  0  0  0  0  0  0  0  0
  -22.4939  -25.4974   31.4607 C   0  0  0  0  0  0  0  0  0  0  0  0
  -23.4910  -30.0650   26.7688 C   0  0  0  0  0  0  0  0  0  0  0  0
  -23.8235  -29.3097   29.1325 C   0  0  0  0  0  0  0  0  0  0  0  0
  -21.5181  -29.6925   28.2599 C   0  0  0  0  0  0  0  0  0  0  0  0
  -22.1584  -22.8911   28.7092 C   0  0  0  0  0  0  0  0  0  0  0  0
  -28.1928  -23.7488   24.2316 C   0  0  0  0  0  0  0  0  0  1  0  0
  -30.3849  -20.5797   24.8014 C   0  0  0  0  0  0  0  0  0  0  0  0
  -22.8213  -27.6734   27.4745 C   0  0  1  0  0  0  0  0  0  0  0  0
  -22.1618  -24.9876   30.0670 C   0  0  2  0  0  0  0  0  0  0  0  0
  -22.9223  -29.1691   27.8872 C   0  0  0  0  0  0  0  0  0  0  0  0
  -35.3037  -17.5058   23.6013 N   0  0  0  0  0  0  0  0  0  0  0  0
  -25.8553  -11.5474   20.3351 N   0  0  0  0  0  0  0  0  0  0  0  0
  -26.2601  -12.8152   20.1479 N   0  0  0  0  0  0  0  0  0  0  0  0
  -22.6036  -26.8875   25.1381 N   0  0  0  0  0  0  0  0  0  0  0  0
  -30.0046  -13.5358   20.3565 N   0  0  0  0  0  0  0  0  0  0  0  0
  -25.5379  -15.0673   20.2775 N   0  0  0  0  0  0  0  0  0  0  0  0
  -21.8903  -12.7285   21.5507 N   0  0  0  0  0  0  0  0  0  0  0  0
  -30.1477  -15.6645   21.3616 N   0  0  0  0  0  0  0  0  0  0  0  0
  -21.7080  -28.1968   21.8548 N   0  0  0  0  0  0  0  0  0  0  0  0
  -22.2607  -26.8058   28.5047 N   0  0  0  0  0  0  0  0  0  0  0  0
  -22.4603  -23.5284   30.0168 N   0  3  0  0  0  0  0  0  0  0  0  0
  -22.7132  -14.8356   21.1744 O   0  0  0  0  0  0  0  0  0  0  0  0
  -23.1976  -28.7941   23.5420 O   0  0  0  0  0  0  0  0  0  0  0  0
  -20.7855  -27.8148   26.2654 O   0  0  0  0  0  0  0  0  0  0  0  0
  -24.0837  -25.3807   28.6566 O   0  0  0  0  0  0  0  0  0  0  0  0
  -31.9208  -14.8095   20.1340 O   0  0  0  0  0  0  0  0  0  0  0  0
  -21.5000   -7.1842   21.9296 O   0  0  0  0  0  0  0  0  0  0  0  0
  -27.5116  -23.8363   22.9807 O   0  0  0  0  0  0  0  0  0  1  0  0
  -29.7873  -19.3298   24.4867 O   0  0  0  0  0  0  0  0  0  0  0  0
  -18.4602   -7.3157   26.5281 F   0  0  0  0  0  0  0  0  0  0  0  0
  -21.8905   -5.3288   23.9415 F   0  0  0  0  0  0  0  0  0  0  0  0
  1 19  1  0  0  0  0
  1 64  3  0  0  0  0
  2  3  1  0  0  0  0
  2  6  2  0  0  0  0
  3  7  2  0  0  0  0
  4  9  2  0  0  0  0
  4 20  1  0  0  0  0
  5 10  1  0  0  0  0
  5 20  2  0  0  0  0
  6 22  1  0  0  0  0
  7 24  1  0  0  0  0
  8 11  2  0  0  0  0
  8 23  1  0  0  0  0
  9 27  1  0  0  0  0
 10 27  2  0  0  0  0
 11 28  1  0  0  0  0
 12 13  2  0  0  0  0
 12 29  1  0  0  0  0
 13 31  1  0  0  0  0
 14 19  1  0  0  0  0
 14 26  2  0  0  0  0
 15 19  2  0  0  0  0
 15 30  1  0  0  0  0
 16 25  1  0  0  0  0
 16 28  2  0  0  0  0
 17 26  1  0  0  0  0
 17 30  2  0  0  0  0
 18 31  2  0  0  0  0
 18 32  1  0  0  0  0
 20 33  1  0  0  0  0
 21 33  1  0  0  0  0
 21 34  2  0  0  0  0
 21 37  1  0  0  0  0
 22 24  2  0  0  0  0
 22 42  1  0  0  0  0
 23 25  2  0  0  0  0
 23 43  1  0  0  0  0
 24 51  1  0  0  0  0
 25 44  1  0  0  0  0
 26 71  1  0  0  0  0
 27 80  1  0  0  0  0
 28 81  1  0  0  0  0
 29 32  2  0  0  0  0
 29 80  1  0  0  0  0
 30 82  1  0  0  0  0
 31 83  1  0  0  0  0
 32 84  1  0  0  0  0
 33 65  2  0  0  0  0
 34 66  1  0  0  0  0
 34 69  1  0  0  0  0
 35 36  2  0  0  0  0
 35 59  1  0  0  0  0
 36 60  1  0  0  0  0
 37 70  1  0  0  0  0
 37 75  2  0  0  0  0
 38 52  1  0  0  0  0
 38 72  1  0  0  0  0
 38 76  2  0  0  0  0
 39 61  1  0  0  0  0
 39 67  1  0  0  0  0
 39 77  2  0  0  0  0
 40 62  1  0  0  0  0
 40 73  1  0  0  0  0
 40 78  2  0  0  0  0
 41 68  1  0  0  0  0
 41 71  1  0  0  0  0
 41 79  2  0  0  0  0
 42 45  1  0  0  0  0
 43 52  1  0  0  0  0
 44 67  1  0  0  0  0
 45 47  1  0  0  0  0
 46 48  1  0  0  0  0
 46 49  1  0  0  0  0
 47 51  1  0  0  0  0
 48 53  1  0  0  0  0
 49 68  1  0  0  0  0
 50 53  1  0  0  0  0
 50 68  1  0  0  0  0
 51 72  1  0  0  0  0
 52 67  1  0  0  0  0
 53 66  1  0  0  0  0
 54 62  1  0  0  0  0
 55 63  1  0  0  0  0
 56 63  1  0  0  0  0
 57 63  1  0  0  0  0
 58 74  1  0  0  0  0
 59 81  1  0  0  0  0
 60 82  1  0  0  0  0
 61 63  1  0  0  0  0
 61 73  1  0  0  0  0
 62 74  1  0  0  0  0
 65 66  1  0  0  0  0
M  CHG  1  74   1
M  ISO  4  41 100  59 101  71 100  81 101
M  END
> <Batch ID>
0130

> <Smiles>
CNC(C)C(=O)NC(C(=O)N1Cc2cc([101O:1][101CH2:1]C=CCOc3cc(C#N)cc([100NH:0][100C:0](=O)N4CCCC(n5nc(-c6ccc(Oc7ccc(F)cc7F)cc6)c(C(N)=O)c5N)C4)c3)ccc2CC1C(=O)NC1CCCc2ccccc21)C(C)(C)C

> <Shape>
0.203

> <Color>
0.215

> <Negative vol penalty>
0.000

$$$$

  -OEChem-04052302223D

 84 92  0     1  0  0  0  0  0999 V2000
  -24.1464   -8.1908   24.4217 C   0  0  0  0  0  0  0  0  0  0  0  0
  -25.0235   -9.2536   24.2305 C   0  0  0  0  0  0  0  0  0  0  0  0
  -32.0542  -17.2362   16.9482 C   0  0  0  0  0  0  0  0  0  0  0  0
  -22.0027  -26.2971   20.0453 C   0  0  0  0  0  0  0  0  0  0  0  0
  -22.5304  -26.7207   22.3646 C   0  0  0  0  0  0  0  0  0  0  0  0
  -31.1173  -18.2681   17.0043 C   0  0  0  0  0  0  0  0  0  0  0  0
  -32.2485  -16.4097   18.0549 C   0  0  0  0  0  0  0  0  0  0  0  0
  -23.1414   -7.9413   23.4881 C   0  0  0  0  0  0  0  0  0  0  0  0
  -24.8968  -10.0668   23.1049 C   0  0  0  0  0  0  0  0  0  0  0  0
  -25.2756  -14.9932   24.2149 C   0  0  0  0  0  0  0  0  0  0  0  0
  -20.6478  -26.4829   20.3196 C   0  0  0  0  0  0  0  0  0  0  0  0
  -21.1755  -26.9065   22.6389 C   0  0  0  0  0  0  0  0  0  0  0  0
  -26.5562  -15.5011   24.4288 C   0  0  0  0  0  0  0  0  0  0  0  0
  -17.8895  -27.8478   23.8778 C   0  0  0  0  0  0  0  0  0  0  0  0
  -17.5312  -28.9382   24.6704 C   0  0  0  0  0  0  0  0  0  0  0  0
  -30.5692  -17.6469   19.2739 C   0  0  0  0  0  0  0  0  0  0  0  0
  -26.5744  -16.3842   22.1840 C   0  0  0  0  0  0  0  0  0  0  0  0
  -18.5090  -30.4385   23.0486 C   0  0  0  0  0  0  0  0  0  0  0  0
  -22.9440  -26.4159   21.0678 C   0  0  0  0  0  0  0  0  0  0  0  0
  -30.3748  -18.4735   18.1671 C   0  0  0  0  0  0  0  0  0  0  0  0
  -31.5060  -16.6150   19.2177 C   0  0  0  0  0  0  0  0  0  0  0  0
  -25.2747  -27.2045   20.3943 C   0  0  0  0  0  0  0  0  0  0  0  0
  -22.9963   -8.7577   22.3554 C   0  0  0  0  0  0  0  0  0  0  0  0
  -24.6380  -15.1679   22.9782 C   0  0  0  0  0  0  0  0  0  0  0  0
  -23.8898   -9.8272   22.1546 C   0  0  0  0  0  0  0  0  0  0  0  0
  -25.2846  -15.8798   21.9578 C   0  0  0  0  0  0  0  0  0  0  0  0
  -20.2342  -26.7876   21.6164 C   0  0  0  0  0  0  0  0  0  0  0  0
  -27.2070  -16.1942   23.4123 C   0  0  0  0  0  0  0  0  0  0  0  0
  -18.5577  -28.0528   22.6706 C   0  0  0  0  0  0  0  0  0  0  0  0
  -17.8409  -30.2335   24.2558 C   0  0  0  0  0  0  0  0  0  0  0  0
  -18.8674  -29.3481   22.2560 C   0  0  0  0  0  0  0  0  0  0  0  0
  -24.3437  -26.2235   20.7851 C   0  0  0  0  0  0  0  0  0  0  0  0
  -26.4563  -26.5190   20.2516 C   0  0  0  0  0  0  0  0  0  0  0  0
  -29.3979  -19.5497   18.2244 C   0  0  0  0  0  0  0  0  0  0  0  0
  -28.3718  -19.6303   19.0979 C   0  0  0  0  0  0  0  0  0  0  0  0
  -31.4759  -16.3414   21.7377 C   0  0  0  0  0  0  0  0  0  0  0  0
  -31.0243  -15.5998   22.7582 C   0  0  0  0  0  0  0  0  0  0  0  0
  -31.7147  -15.7318   20.3987 C   0  0  0  0  0  0  0  0  0  0  0  0
  -25.0882  -28.6098   20.1797 C   0  0  0  0  0  0  0  0  0  0  0  0
  -27.4674  -20.7961   19.0357 C   0  0  0  0  0  0  0  0  0  0  0  0
  -23.5591  -13.2141   20.7150 C   0  0  0  0  0  0  0  0  0  0  0  0
  -22.4140  -15.9644   19.4318 C   0  0  0  0  0  0  0  0  0  0  0  0
  -22.6589  -19.4620   18.5805 C   0  0  0  0  0  0  0  0  0  0  0  0
  -21.9243   -8.4201   21.3497 C   0  0  0  0  0  0  0  0  0  0  0  0
  -23.2458  -14.6371   22.7724 C   0  0  0  0  0  0  0  0  0  0  0  0
  -24.6354  -16.1121   20.6188 C   0  0  0  0  0  0  0  0  0  0  0  0
  -21.6234   -9.5562   20.3756 C   0  0  0  0  0  0  0  0  0  0  0  0
  -28.7971  -22.6930   21.8756 C   0  0  0  0  0  0  0  0  0  0  0  0
  -22.9188  -10.1496   19.8310 C   0  0  0  0  0  0  0  0  0  0  0  0
  -27.8465  -23.8869   21.9022 C   0  0  0  0  0  0  0  0  0  0  0  0
  -28.0931  -21.4113   21.4328 C   0  0  0  0  0  0  0  0  0  0  0  0
  -26.4351  -22.7350   20.1525 C   0  0  0  0  0  0  0  0  0  0  0  0
  -23.7690  -10.7468   20.9589 C   0  0  1  0  0  0  0  0  0  0  0  0
  -22.8971  -14.4286   21.3019 C   0  0  1  0  0  0  0  0  0  0  0  0
  -27.1332  -24.0450   20.5500 C   0  0  1  0  0  0  0  0  0  0  0  0
  -20.9984  -20.9961   17.4913 C   0  0  0  0  0  0  0  0  0  0  0  0
  -23.8469  -15.2077   16.8464 C   0  0  0  0  0  0  0  0  0  0  0  0
  -23.5738  -17.5766   16.0836 C   0  0  0  0  0  0  0  0  0  0  0  0
  -21.5612  -16.1715   16.5286 C   0  0  0  0  0  0  0  0  0  0  0  0
  -22.8061  -21.3968   20.8151 C   0  0  0  0  0  0  0  0  0  0  0  0
  -30.7547  -16.1576   24.1281 C   0  0  0  0  0  0  0  0  0  0  0  0
  -29.2952  -15.9818   24.5305 C   0  0  0  0  0  0  0  0  0  1  0  0
  -22.9487  -17.0005   18.4728 C   0  0  1  0  0  0  0  0  0  0  0  0
  -21.6023  -20.5283   18.8063 C   0  0  2  0  0  0  0  0  0  0  0  0
  -22.9959  -16.4832   17.0073 C   0  0  0  0  0  0  0  0  0  0  0  0
  -24.8870  -25.0074   20.8841 N   0  0  0  0  0  0  0  0  0  0  0  0
  -32.1357  -14.5196   20.2240 N   0  0  0  0  0  0  0  0  0  0  0  0
  -26.1722  -25.2196   20.5534 N   0  0  0  0  0  0  0  0  0  0  0  0
  -27.3698  -21.6043   20.1669 N   0  0  0  0  0  0  0  0  0  0  0  0
  -23.2761  -15.5682   20.4641 N   0  0  0  0  0  0  0  0  0  0  0  0
  -27.7002  -26.9069   19.8984 N   0  0  0  0  0  0  0  0  0  0  0  0
  -23.8096  -29.1510   20.3710 N   0  0  0  0  0  0  0  0  0  0  0  0
  -23.2434  -12.0339   21.3608 N   0  0  0  0  0  0  0  0  0  0  0  0
  -22.1278  -18.1920   18.6597 N   0  0  0  0  0  0  0  0  0  0  0  0
  -22.1963  -21.7080   19.4967 N   0  3  0  0  0  0  0  0  0  0  0  0
  -26.0239  -29.3603   19.8127 O   0  0  0  0  0  0  0  0  0  0  0  0
  -26.8490  -20.9806   17.9858 O   0  0  0  0  0  0  0  0  0  0  0  0
  -24.3002  -13.3382   19.7470 O   0  0  0  0  0  0  0  0  0  0  0  0
  -21.2709  -15.5282   19.2750 O   0  0  0  0  0  0  0  0  0  0  0  0
  -23.8367  -19.7290   18.3527 O   0  0  0  0  0  0  0  0  0  0  0  0
  -18.9121  -26.9692   21.8844 O   0  0  0  0  0  0  0  0  0  0  0  0
  -28.4573  -16.6904   23.6182 O   0  0  0  0  0  0  0  0  0  1  0  0
  -17.4953  -31.2806   25.0163 F   0  0  0  0  0  0  0  0  0  0  0  0
  -19.5081  -29.5513   21.0967 F   0  0  0  0  0  0  0  0  0  0  0  0
  1  2  1  0  0  0  0
  1  8  2  0  0  0  0
  2  9  2  0  0  0  0
  3  6  1  0  0  0  0
  3  7  2  0  0  0  0
  4 11  2  0  0  0  0
  4 19  1  0  0  0  0
  5 12  1  0  0  0  0
  5 19  2  0  0  0  0
  6 20  2  0  0  0  0
  7 21  1  0  0  0  0
  8 23  1  0  0  0  0
  9 25  1  0  0  0  0
 10 13  2  0  0  0  0
 10 24  1  0  0  0  0
 11 27  1  0  0  0  0
 12 27  2  0  0  0  0
 13 28  1  0  0  0  0
 14 15  2  0  0  0  0
 14 29  1  0  0  0  0
 15 30  1  0  0  0  0
 16 20  1  0  0  0  0
 16 21  2  0  0  0  0
 17 26  1  0  0  0  0
 17 28  2  0  0  0  0
 18 30  2  0  0  0  0
 18 31  1  0  0  0  0
 19 32  1  0  0  0  0
 20 34  1  0  0  0  0
 21 38  1  0  0  0  0
 22 32  1  0  0  0  0
 22 33  2  0  0  0  0
 22 39  1  0  0  0  0
 23 25  2  0  0  0  0
 23 44  1  0  0  0  0
 24 26  2  0  0  0  0
 24 45  1  0  0  0  0
 25 53  1  0  0  0  0
 26 46  1  0  0  0  0
 27 81  1  0  0  0  0
 28 82  1  0  0  0  0
 29 31  2  0  0  0  0
 29 81  1  0  0  0  0
 30 83  1  0  0  0  0
 31 84  1  0  0  0  0
 32 66  2  0  0  0  0
 33 68  1  0  0  0  0
 33 71  1  0  0  0  0
 34 35  2  0  0  0  0
 35 40  1  0  0  0  0
 36 37  2  0  0  0  0
 36 38  1  0  0  0  0
 37 61  1  0  0  0  0
 38 67  2  0  0  0  0
 39 72  1  0  0  0  0
 39 76  2  0  0  0  0
 40 69  1  0  0  0  0
 40 77  2  0  0  0  0
 41 54  1  0  0  0  0
 41 73  1  0  0  0  0
 41 78  2  0  0  0  0
 42 63  1  0  0  0  0
 42 70  1  0  0  0  0
 42 79  2  0  0  0  0
 43 64  1  0  0  0  0
 43 74  1  0  0  0  0
 43 80  2  0  0  0  0
 44 47  1  0  0  0  0
 45 54  1  0  0  0  0
 46 70  1  0  0  0  0
 47 49  1  0  0  0  0
 48 50  1  0  0  0  0
 48 51  1  0  0  0  0
 49 53  1  0  0  0  0
 50 55  1  0  0  0  0
 51 69  1  0  0  0  0
 52 55  1  0  0  0  0
 52 69  1  0  0  0  0
 53 73  1  0  0  0  0
 54 70  1  0  0  0  0
 55 68  1  0  0  0  0
 56 64  1  0  0  0  0
 57 65  1  0  0  0  0
 58 65  1  0  0  0  0
 59 65  1  0  0  0  0
 60 75  1  0  0  0  0
 61 62  1  0  0  0  0
 62 82  1  0  0  0  0
 63 65  1  0  0  0  0
 63 74  1  0  0  0  0
 64 75  1  0  0  0  0
 66 68  1  0  0  0  0
M  CHG  1  75   1
M  ISO  4  35 100  40 100  62 101  82 101
M  END
> <Batch ID>
0130

> <Smiles>
CNC(C)C(=O)NC(C(=O)N1Cc2cc([101O:1][101CH2:1]CC=CC(=N)c3cccc(C=[100CH:0][100C:0](=O)N4CCCC(n5nc(-c6ccc(Oc7ccc(F)cc7F)cc6)c(C(N)=O)c5N)C4)c3)ccc2CC1C(=O)NC1CCCc2ccccc21)C(C)(C)C

> <Shape>
0.219

> <Color>
0.062

> <Negative vol penalty>
0.000

$$$$

  -OEChem-04052302223D

 83 91  0     1  0  0  0  0  0999 V2000
  -28.9073  -36.7687   22.7869 C   0  0  0  0  0  0  0  0  0  0  0  0
  -29.1844  -35.5574   22.1614 C   0  0  0  0  0  0  0  0  0  0  0  0
  -31.6354  -20.9199   24.4579 C   0  0  0  0  0  0  0  0  0  0  0  0
  -24.5718   -9.2510   22.1733 C   0  0  0  0  0  0  0  0  0  0  0  0
  -23.7598   -9.5351   19.9156 C   0  0  0  0  0  0  0  0  0  0  0  0
  -31.1071  -19.6305   24.3939 C   0  0  0  0  0  0  0  0  0  0  0  0
  -28.0038  -36.8134   23.8479 C   0  0  0  0  0  0  0  0  0  0  0  0
  -28.5589  -34.3898   22.5972 C   0  0  0  0  0  0  0  0  0  0  0  0
  -26.8019  -29.6461   19.1453 C   0  0  0  0  0  0  0  0  0  0  0  0
  -31.4091  -21.8189   23.4157 C   0  0  0  0  0  0  0  0  0  0  0  0
  -23.3777   -8.6209   22.5235 C   0  0  0  0  0  0  0  0  0  0  0  0
  -22.5657   -8.9049   20.2658 C   0  0  0  0  0  0  0  0  0  0  0  0
  -27.3908  -28.4108   18.8790 C   0  0  0  0  0  0  0  0  0  0  0  0
  -21.9750   -5.5654   22.1640 C   0  0  0  0  0  0  0  0  0  0  0  0
  -22.0565   -4.3964   22.9205 C   0  0  0  0  0  0  0  0  0  0  0  0
  -30.1263  -20.1392   22.2453 C   0  0  0  0  0  0  0  0  0  0  0  0
  -26.0552  -27.4059   20.6185 C   0  0  0  0  0  0  0  0  0  0  0  0
  -20.7683   -5.4427   24.6763 C   0  0  0  0  0  0  0  0  0  0  0  0
  -24.7629   -9.7082   20.8693 C   0  0  0  0  0  0  0  0  0  0  0  0
  -30.3526  -19.2402   23.2875 C   0  0  0  0  0  0  0  0  0  0  0  0
  -27.1644   -9.7519   20.0102 C   0  0  0  0  0  0  0  0  0  0  0  0
  -27.3596  -35.6474   24.2906 C   0  0  0  0  0  0  0  0  0  0  0  0
  -25.8415  -29.7730   20.1592 C   0  0  0  0  0  0  0  0  0  0  0  0
  -27.6469  -34.4187   23.6659 C   0  0  0  0  0  0  0  0  0  0  0  0
  -25.4537  -28.6434   20.8939 C   0  0  0  0  0  0  0  0  0  0  0  0
  -30.6546  -21.4286   22.3094 C   0  0  0  0  0  0  0  0  0  0  0  0
  -22.3747   -8.4478   21.5698 C   0  0  0  0  0  0  0  0  0  0  0  0
  -27.0196  -27.2910   19.6176 C   0  0  0  0  0  0  0  0  0  0  0  0
  -21.2902   -6.6732   22.6637 C   0  0  0  0  0  0  0  0  0  0  0  0
  -21.4532   -4.3350   24.1767 C   0  0  0  0  0  0  0  0  0  0  0  0
  -20.6868   -6.6118   23.9198 C   0  0  0  0  0  0  0  0  0  0  0  0
  -25.9959  -10.3597   20.5071 C   0  0  0  0  0  0  0  0  0  0  0  0
  -28.0409  -10.7930   19.8251 C   0  0  0  0  0  0  0  0  0  0  0  0
  -29.8022  -17.8953   23.2203 C   0  0  0  0  0  0  0  0  0  0  0  0
  -28.7734  -17.5085   22.4365 C   0  0  0  0  0  0  0  0  0  0  0  0
  -27.4335   -8.3697   19.7400 C   0  0  0  0  0  0  0  0  0  0  0  0
  -28.3349  -16.0989   22.4735 C   0  0  0  0  0  0  0  0  0  0  0  0
  -25.6518  -31.4104   22.8770 C   0  0  0  0  0  0  0  0  0  0  0  0
  -28.9144  -24.2666   20.2663 C   0  0  0  0  0  0  0  0  0  0  0  0
  -22.6275  -30.2382   22.9181 C   0  0  0  0  0  0  0  0  0  0  0  0
  -20.4422  -27.8232   21.8989 C   0  0  0  0  0  0  0  0  0  0  0  0
  -26.4263  -35.7376   25.4719 C   0  0  0  0  0  0  0  0  0  0  0  0
  -25.1962  -31.1072   20.4161 C   0  0  0  0  0  0  0  0  0  0  0  0
  -24.4126  -28.7225   21.9794 C   0  0  0  0  0  0  0  0  0  0  0  0
  -25.5231  -34.5170   25.6291 C   0  0  0  0  0  0  0  0  0  0  0  0
  -28.1733  -15.4643   18.8675 C   0  0  0  0  0  0  0  0  0  0  0  0
  -26.3322  -33.2320   25.4849 C   0  0  0  0  0  0  0  0  0  0  0  0
  -27.6533  -14.0294   18.8449 C   0  0  0  0  0  0  0  0  0  0  0  0
  -27.5966  -16.2630   20.0354 C   0  0  0  0  0  0  0  0  0  0  0  0
  -27.2857  -14.1790   21.3394 C   0  0  0  0  0  0  0  0  0  0  0  0
  -26.9698  -33.1347   24.0937 C   0  0  1  0  0  0  0  0  0  0  0  0
  -24.6034  -31.2244   21.8169 C   0  0  1  0  0  0  0  0  0  0  0  0
  -27.8894  -13.3434   20.1998 C   0  0  1  0  0  0  0  0  0  0  0  0
  -18.0463  -27.1119   22.1253 C   0  0  0  0  0  0  0  0  0  0  0  0
  -23.2079  -29.1838   25.7219 C   0  0  0  0  0  0  0  0  0  0  0  0
  -21.1944  -27.7111   25.5094 C   0  0  0  0  0  0  0  0  0  0  0  0
  -20.9369  -30.1912   25.4356 C   0  0  0  0  0  0  0  0  0  0  0  0
  -19.9655  -28.0956   18.9908 C   0  0  0  0  0  0  0  0  0  0  0  0
  -30.4088  -22.4025   21.1820 C   0  0  0  0  0  0  0  0  0  0  0  0
  -29.1429  -23.2414   21.3675 C   0  0  0  0  0  0  0  0  0  0  0  0
  -27.7168  -25.1770   20.4548 C   0  0  0  0  0  0  0  0  0  1  0  0
  -21.9707  -28.9933   23.4638 C   0  0  1  0  0  0  0  0  0  0  0  0
  -19.0474  -27.9119   21.3064 C   0  0  2  0  0  0  0  0  0  0  0  0
  -21.8485  -29.0184   25.0136 C   0  0  0  0  0  0  0  0  0  0  0  0
  -26.1160  -11.6842   20.6301 N   0  0  0  0  0  0  0  0  0  0  0  0
  -27.3704  -11.9173   20.2078 N   0  0  0  0  0  0  0  0  0  0  0  0
  -27.7830  -15.5591   21.3131 N   0  0  0  0  0  0  0  0  0  0  0  0
  -23.8152  -30.0503   22.1972 N   0  0  0  0  0  0  0  0  0  0  0  0
  -29.3121  -10.8473   19.3739 N   0  0  0  0  0  0  0  0  0  0  0  0
  -26.4219   -7.4315   19.9865 N   0  0  0  0  0  0  0  0  0  0  0  0
  -25.9849  -32.7305   23.1134 N   0  0  0  0  0  0  0  0  0  0  0  0
  -20.6960  -28.8649   22.7659 N   0  0  0  0  0  0  0  0  0  0  0  0
  -19.0423  -27.3848   19.9124 N   0  3  0  0  0  0  0  0  0  0  0  0
  -28.5438   -7.9764   19.3086 O   0  0  0  0  0  0  0  0  0  0  0  0
  -28.4798  -15.4859   23.5327 O   0  0  0  0  0  0  0  0  0  0  0  0
  -26.1226  -30.4290   23.4400 O   0  0  0  0  0  0  0  0  0  0  0  0
  -29.6672  -24.3808   19.3004 O   0  0  0  0  0  0  0  0  0  0  0  0
  -22.1021  -31.3363   23.1179 O   0  0  0  0  0  0  0  0  0  0  0  0
  -21.2267  -26.9181   21.6233 O   0  0  0  0  0  0  0  0  0  0  0  0
  -21.2094   -7.8328   21.9111 O   0  0  0  0  0  0  0  0  0  0  0  0
  -27.5933  -26.0842   19.3602 O   0  0  0  0  0  0  0  0  0  1  0  0
  -21.5302   -3.2118   24.9024 F   0  0  0  0  0  0  0  0  0  0  0  0
  -20.0265   -7.6724   24.4046 F   0  0  0  0  0  0  0  0  0  0  0  0
  1  2  1  0  0  0  0
  1  7  2  0  0  0  0
  2  8  2  0  0  0  0
  3  6  1  0  0  0  0
  3 10  2  0  0  0  0
  4 11  2  0  0  0  0
  4 19  1  0  0  0  0
  5 12  1  0  0  0  0
  5 19  2  0  0  0  0
  6 20  2  0  0  0  0
  7 22  1  0  0  0  0
  8 24  1  0  0  0  0
  9 13  2  0  0  0  0
  9 23  1  0  0  0  0
 10 26  1  0  0  0  0
 11 27  1  0  0  0  0
 12 27  2  0  0  0  0
 13 28  1  0  0  0  0
 14 15  2  0  0  0  0
 14 29  1  0  0  0  0
 15 30  1  0  0  0  0
 16 20  1  0  0  0  0
 16 26  2  0  0  0  0
 17 25  1  0  0  0  0
 17 28  2  0  0  0  0
 18 30  2  0  0  0  0
 18 31  1  0  0  0  0
 19 32  1  0  0  0  0
 20 34  1  0  0  0  0
 21 32  1  0  0  0  0
 21 33  2  0  0  0  0
 21 36  1  0  0  0  0
 22 24  2  0  0  0  0
 22 42  1  0  0  0  0
 23 25  2  0  0  0  0
 23 43  1  0  0  0  0
 24 51  1  0  0  0  0
 25 44  1  0  0  0  0
 26 59  1  0  0  0  0
 27 80  1  0  0  0  0
 28 81  1  0  0  0  0
 29 31  2  0  0  0  0
 29 80  1  0  0  0  0
 30 82  1  0  0  0  0
 31 83  1  0  0  0  0
 32 65  2  0  0  0  0
 33 66  1  0  0  0  0
 33 69  1  0  0  0  0
 34 35  2  0  0  0  0
 35 37  1  0  0  0  0
 36 70  1  0  0  0  0
 36 74  2  0  0  0  0
 37 67  1  0  0  0  0
 37 75  2  0  0  0  0
 38 52  1  0  0  0  0
 38 71  1  0  0  0  0
 38 76  2  0  0  0  0
 39 60  1  0  0  0  0
 39 61  1  0  0  0  0
 39 77  2  0  0  0  0
 40 62  1  0  0  0  0
 40 68  1  0  0  0  0
 40 78  2  0  0  0  0
 41 63  1  0  0  0  0
 41 72  1  0  0  0  0
 41 79  2  0  0  0  0
 42 45  1  0  0  0  0
 43 52  1  0  0  0  0
 44 68  1  0  0  0  0
 45 47  1  0  0  0  0
 46 48  1  0  0  0  0
 46 49  1  0  0  0  0
 47 51  1  0  0  0  0
 48 53  1  0  0  0  0
 49 67  1  0  0  0  0
 50 53  1  0  0  0  0
 50 67  1  0  0  0  0
 51 71  1  0  0  0  0
 52 68  1  0  0  0  0
 53 66  1  0  0  0  0
 54 63  1  0  0  0  0
 55 64  1  0  0  0  0
 56 64  1  0  0  0  0
 57 64  1  0  0  0  0
 58 73  1  0  0  0  0
 59 60  1  0  0  0  0
 61 81  1  0  0  0  0
 62 64  1  0  0  0  0
 62 72  1  0  0  0  0
 63 73  1  0  0  0  0
 65 66  1  0  0  0  0
M  CHG  1  73   1
M  ISO  4  35 100  37 100  61 101  81 101
M  END
> <Batch ID>
0130

> <Smiles>
CNC(C)C(=O)NC(C(=O)N1Cc2cc([101O:1][101CH2:1]C(=O)CCc3cccc(C=[100CH:0][100C:0](=O)N4CCCC(n5nc(-c6ccc(Oc7ccc(F)cc7F)cc6)c(C(N)=O)c5N)C4)c3)ccc2CC1C(=O)NC1CCCc2ccccc21)C(C)(C)C

> <Shape>
0.307

> <Color>
0.113

> <Negative vol penalty>
0.000

$$$$

  -OEChem-04052302223D

 87 95  0     1  0  0  0  0  0999 V2000
  -27.7972  -32.7235   27.5009 C   0  0  0  0  0  0  0  0  0  0  0  0
  -27.9549  -31.6529   26.6266 C   0  0  0  0  0  0  0  0  0  0  0  0
  -24.2959   -8.9745   21.4398 C   0  0  0  0  0  0  0  0  0  0  0  0
  -24.8336  -10.2624   23.4119 C   0  0  0  0  0  0  0  0  0  0  0  0
  -26.5249  -33.2356   27.7518 C   0  0  0  0  0  0  0  0  0  0  0  0
  -26.8401  -31.0930   26.0036 C   0  0  0  0  0  0  0  0  0  0  0  0
  -27.5998  -30.2297   21.0718 C   0  0  0  0  0  0  0  0  0  0  0  0
  -23.9856   -7.8762   22.2417 C   0  0  0  0  0  0  0  0  0  0  0  0
  -24.5233   -9.1641   24.2138 C   0  0  0  0  0  0  0  0  0  0  0  0
  -28.3473  -29.1035   20.7303 C   0  0  0  0  0  0  0  0  0  0  0  0
  -22.7061   -4.8462   23.7900 C   0  0  0  0  0  0  0  0  0  0  0  0
  -21.5395   -4.1394   23.4986 C   0  0  0  0  0  0  0  0  0  0  0  0
  -26.3101  -27.9051   20.2479 C   0  0  0  0  0  0  0  0  0  0  0  0
  -30.1486  -18.7866   19.9406 C   0  0  0  0  0  0  0  0  0  0  0  0
  -27.9658  -20.3656   20.6652 C   0  0  0  0  0  0  0  0  0  0  0  0
  -20.2350   -6.1381   23.8734 C   0  0  0  0  0  0  0  0  0  0  0  0
  -24.7199  -10.1676   22.0249 C   0  0  0  0  0  0  0  0  0  0  0  0
  -24.1655  -12.3194   20.7719 C   0  0  0  0  0  0  0  0  0  0  0  0
  -25.3950  -32.6879   27.1241 C   0  0  0  0  0  0  0  0  0  0  0  0
  -26.1990  -30.1986   21.0143 C   0  0  0  0  0  0  0  0  0  0  0  0
  -25.5513  -31.5973   26.2474 C   0  0  0  0  0  0  0  0  0  0  0  0
  -25.5472  -29.0330   20.5868 C   0  0  0  0  0  0  0  0  0  0  0  0
  -30.3414  -20.1208   20.2989 C   0  0  0  0  0  0  0  0  0  0  0  0
  -27.7731  -19.0314   20.3068 C   0  0  0  0  0  0  0  0  0  0  0  0
  -28.8645  -18.2419   19.9444 C   0  0  0  0  0  0  0  0  0  0  0  0
  -24.0993   -7.9710   23.6287 C   0  0  0  0  0  0  0  0  0  0  0  0
  -27.7024  -27.9401   20.3211 C   0  0  0  0  0  0  0  0  0  0  0  0
  -22.6372   -6.1990   24.1232 C   0  0  0  0  0  0  0  0  0  0  0  0
  -29.2500  -20.9103   20.6613 C   0  0  0  0  0  0  0  0  0  0  0  0
  -20.3039   -4.7853   23.5402 C   0  0  0  0  0  0  0  0  0  0  0  0
  -21.4017   -6.8449   24.1648 C   0  0  0  0  0  0  0  0  0  0  0  0
  -25.0411  -11.3024   21.1971 C   0  0  0  0  0  0  0  0  0  0  0  0
  -24.9505  -13.1537   20.0141 C   0  0  0  0  0  0  0  0  0  0  0  0
  -22.7676  -12.4945   21.0382 C   0  0  0  0  0  0  0  0  0  0  0  0
  -23.8587  -30.5389   23.1382 C   0  0  0  0  0  0  0  0  0  0  0  0
  -28.8748  -24.5162   20.5041 C   0  0  0  0  0  0  0  0  0  0  0  0
  -21.9731  -30.3920   20.5028 C   0  0  0  0  0  0  0  0  0  0  0  0
  -21.5868  -29.3687   17.2701 C   0  0  0  0  0  0  0  0  0  0  0  0
  -29.6776  -15.9791   19.1929 C   0  0  0  0  0  0  0  0  0  0  0  0
  -24.0350  -33.2447   27.4631 C   0  0  0  0  0  0  0  0  0  0  0  0
  -25.4082  -31.4303   21.3604 C   0  0  0  0  0  0  0  0  0  0  0  0
  -24.0463  -28.9544   20.4885 C   0  0  0  0  0  0  0  0  0  0  0  0
  -22.9460  -32.8365   26.4743 C   0  0  0  0  0  0  0  0  0  0  0  0
  -29.6555  -12.5461   18.2489 C   0  0  0  0  0  0  0  0  0  0  0  0
  -23.0263  -31.3422   26.1785 C   0  0  0  0  0  0  0  0  0  0  0  0
  -28.3810  -12.0002   18.8968 C   0  0  0  0  0  0  0  0  0  0  0  0
  -30.3414  -13.5852   19.1341 C   0  0  0  0  0  0  0  0  0  0  0  0
  -28.2050  -14.1415   20.2274 C   0  0  0  0  0  0  0  0  0  0  0  0
  -24.3691  -30.9789   25.5333 C   0  0  1  0  0  0  0  0  0  0  0  0
  -23.9677  -31.1233   21.7582 C   0  0  1  0  0  0  0  0  0  0  0  0
  -27.4440  -13.1391   19.3444 C   0  0  2  0  0  0  0  0  0  0  0  0
  -26.3867  -18.4739   20.3197 C   0  0  0  0  0  0  0  0  0  0  0  0
  -33.6542  -22.9568   17.7880 C   0  0  0  0  0  0  0  0  0  0  0  0
  -19.9221  -29.3593   15.3923 C   0  0  0  0  0  0  0  0  0  0  0  0
  -20.4302  -28.1517   21.8849 C   0  0  0  0  0  0  0  0  0  0  0  0
  -19.4415  -27.5564   19.6632 C   0  0  0  0  0  0  0  0  0  0  0  0
  -19.0027  -29.8003   20.6607 C   0  0  0  0  0  0  0  0  0  0  0  0
  -23.3769  -30.9479   15.5207 C   0  0  0  0  0  0  0  0  0  0  0  0
  -31.7229  -20.6871   20.2874 C   0  0  0  0  0  0  0  0  0  0  0  0
  -27.8232  -25.5673   20.2138 C   0  0  0  0  0  0  0  0  0  1  0  0
  -28.3572  -23.1129   20.7447 C   0  0  0  0  0  0  0  0  0  0  0  0
  -33.4013  -22.1161   19.0293 C   0  0  0  0  0  0  0  0  0  0  0  0
  -31.9733  -21.5712   19.0557 C   0  0  0  0  0  0  0  0  0  0  0  0
  -21.2969  -29.2837   19.7324 C   0  0  1  0  0  0  0  0  0  0  0  0
  -21.0858  -30.0970   16.0360 C   0  0  2  0  0  0  0  0  0  0  0  0
  -20.0711  -28.6986   20.4889 C   0  0  0  0  0  0  0  0  0  0  0  0
  -26.2869  -11.4729   20.7467 N   0  0  0  0  0  0  0  0  0  0  0  0
  -26.1998  -12.6067   20.0305 N   0  0  0  0  0  0  0  0  0  0  0  0
  -23.3169  -30.1830   20.8436 N   0  0  0  0  0  0  0  0  0  0  0  0
  -29.3942  -14.6350   19.5154 N   0  0  0  0  0  0  0  0  0  0  0  0
  -24.6870  -14.2943   19.3418 N   0  0  0  0  0  0  0  0  0  0  0  0
  -22.1153  -11.5443   21.8357 N   0  0  0  0  0  0  0  0  0  0  0  0
  -28.6891  -16.8848   19.5765 N   0  0  0  0  0  0  0  0  0  0  0  0
  -24.3734  -31.3472   24.1337 N   0  0  0  0  0  0  0  0  0  0  0  0
  -20.9814  -29.8335   18.4184 N   0  0  0  0  0  0  0  0  0  0  0  0
  -22.1776  -30.2219   15.0293 N   0  3  0  0  0  0  0  0  0  0  0  0
  -22.1126  -13.4559   20.5690 O   0  0  0  0  0  0  0  0  0  0  0  0
  -23.3442  -29.4369   23.2887 O   0  0  0  0  0  0  0  0  0  0  0  0
  -30.0744  -24.7857   20.5425 O   0  0  0  0  0  0  0  0  0  0  0  0
  -21.3345  -31.4089   20.7853 O   0  0  0  0  0  0  0  0  0  0  0  0
  -22.4281  -28.4741   17.2200 O   0  0  0  0  0  0  0  0  0  0  0  0
  -30.7078  -16.2995   18.5946 O   0  0  0  0  0  0  0  0  0  0  0  0
  -23.7965   -6.8995   24.4115 O   0  0  0  0  0  0  0  0  0  0  0  0
  -28.4296  -26.8392   19.9878 O   0  0  0  0  0  0  0  0  0  1  0  0
  -29.4226  -22.2271   21.0167 O   0  0  0  0  0  0  0  0  0  0  0  0
  -19.1838   -4.1068   23.2588 F   0  0  0  0  0  0  0  0  0  0  0  0
  -21.3293   -8.1446   24.4831 F   0  0  0  0  0  0  0  0  0  0  0  0
  1  2  1  0  0  0  0
  1  5  2  0  0  0  0
  2  6  2  0  0  0  0
  3  8  2  0  0  0  0
  3 17  1  0  0  0  0
  4  9  1  0  0  0  0
  4 17  2  0  0  0  0
  5 19  1  0  0  0  0
  6 21  1  0  0  0  0
  7 10  2  0  0  0  0
  7 20  1  0  0  0  0
  8 26  1  0  0  0  0
  9 26  2  0  0  0  0
 10 27  1  0  0  0  0
 11 12  2  0  0  0  0
 11 28  1  0  0  0  0
 12 30  1  0  0  0  0
 13 22  1  0  0  0  0
 13 27  2  0  0  0  0
 14 23  1  0  0  0  0
 14 25  2  0  0  0  0
 15 24  2  0  0  0  0
 15 29  1  0  0  0  0
 16 30  2  0  0  0  0
 16 31  1  0  0  0  0
 17 32  1  0  0  0  0
 18 32  1  0  0  0  0
 18 33  2  0  0  0  0
 18 34  1  0  0  0  0
 19 21  2  0  0  0  0
 19 40  1  0  0  0  0
 20 22  2  0  0  0  0
 20 41  1  0  0  0  0
 21 49  1  0  0  0  0
 22 42  1  0  0  0  0
 23 29  2  0  0  0  0
 23 59  1  0  0  0  0
 24 25  1  0  0  0  0
 24 52  1  0  0  0  0
 25 73  1  0  0  0  0
 26 83  1  0  0  0  0
 27 84  1  0  0  0  0
 28 31  2  0  0  0  0
 28 83  1  0  0  0  0
 29 85  1  0  0  0  0
 30 86  1  0  0  0  0
 31 87  1  0  0  0  0
 32 67  2  0  0  0  0
 33 68  1  0  0  0  0
 33 71  1  0  0  0  0
 34 72  1  0  0  0  0
 34 77  2  0  0  0  0
 35 50  1  0  0  0  0
 35 74  1  0  0  0  0
 35 78  2  0  0  0  0
 36 60  1  0  0  0  0
 36 61  1  0  0  0  0
 36 79  2  0  0  0  0
 37 64  1  0  0  0  0
 37 69  1  0  0  0  0
 37 80  2  0  0  0  0
 38 65  1  0  0  0  0
 38 75  1  0  0  0  0
 38 81  2  0  0  0  0
 39 70  1  0  0  0  0
 39 73  1  0  0  0  0
 39 82  2  0  0  0  0
 40 43  1  0  0  0  0
 41 50  1  0  0  0  0
 42 69  1  0  0  0  0
 43 45  1  0  0  0  0
 44 46  1  0  0  0  0
 44 47  1  0  0  0  0
 45 49  1  0  0  0  0
 46 51  1  0  0  0  0
 47 70  1  0  0  0  0
 48 51  1  0  0  0  0
 48 70  1  0  0  0  0
 49 74  1  0  0  0  0
 50 69  1  0  0  0  0
 51 68  1  0  0  0  0
 53 62  1  0  0  0  0
 54 65  1  0  0  0  0
 55 66  1  0  0  0  0
 56 66  1  0  0  0  0
 57 66  1  0  0  0  0
 58 76  1  0  0  0  0
 59 63  1  0  0  0  0
 60 84  1  0  0  0  0
 61 85  1  0  0  0  0
 62 63  1  0  0  0  0
 64 66  1  0  0  0  0
 64 75  1  0  0  0  0
 65 76  1  0  0  0  0
 67 68  1  0  0  0  0
M  CHG  1  76   1
M  ISO  4  39 100  60 101  73 100  84 101
M  END
> <Batch ID>
0130

> <Smiles>
CCCCc1cc([100NH:0][100C:0](=O)N2CCCC(n3nc(-c4ccc(Oc5ccc(F)cc5F)cc4)c(C(N)=O)c3N)C2)c(C)cc1OCC(=O)[101CH2:1][101O:1]c1ccc2c(c1)CN(C(=O)C(NC(=O)C(C)NC)C(C)(C)C)C(C(=O)NC1CCCc3ccccc31)C2

> <Shape>
0.339

> <Color>
0.134

> <Negative vol penalty>
0.000

$$$$

  -OEChem-04052302223D

 85 94  0     1  0  0  0  0  0999 V2000
  -28.1772  -34.2368   25.7551 C   0  0  0  0  0  0  0  0  0  0  0  0
  -28.3223  -32.9859   25.1640 C   0  0  0  0  0  0  0  0  0  0  0  0
  -23.9780   -9.5007   22.3301 C   0  0  0  0  0  0  0  0  0  0  0  0
  -23.6953   -9.3588   19.9349 C   0  0  0  0  0  0  0  0  0  0  0  0
  -30.0893  -21.2814   21.6089 C   0  0  0  0  0  0  0  0  0  0  0  0
  -26.9089  -34.6981   26.1055 C   0  0  0  0  0  0  0  0  0  0  0  0
  -27.1993  -32.1949   24.9238 C   0  0  0  0  0  0  0  0  0  0  0  0
  -27.2497  -30.0977   20.3147 C   0  0  0  0  0  0  0  0  0  0  0  0
  -22.9842   -8.5377   22.5045 C   0  0  0  0  0  0  0  0  0  0  0  0
  -22.7015   -8.3957   20.1093 C   0  0  0  0  0  0  0  0  0  0  0  0
  -30.2222  -22.6677   21.5317 C   0  0  0  0  0  0  0  0  0  0  0  0
  -28.0656  -28.9821   20.1317 C   0  0  0  0  0  0  0  0  0  0  0  0
  -22.7082   -5.1749   22.2843 C   0  0  0  0  0  0  0  0  0  0  0  0
  -22.9536   -4.1478   23.1956 C   0  0  0  0  0  0  0  0  0  0  0  0
  -27.8740  -21.5454   22.5361 C   0  0  0  0  0  0  0  0  0  0  0  0
  -26.1416  -27.5450   20.3598 C   0  0  0  0  0  0  0  0  0  0  0  0
  -21.0206   -4.8235   24.4778 C   0  0  0  0  0  0  0  0  0  0  0  0
  -24.3335   -9.9114   21.0453 C   0  0  0  0  0  0  0  0  0  0  0  0
  -28.9151  -20.7202   22.1111 C   0  0  0  0  0  0  0  0  0  0  0  0
  -26.7417  -10.6851   20.7144 C   0  0  0  0  0  0  0  0  0  0  0  0
  -25.7689  -33.9165   25.8607 C   0  0  0  0  0  0  0  0  0  0  0  0
  -25.8730  -29.9445   20.5329 C   0  0  0  0  0  0  0  0  0  0  0  0
  -25.9148  -32.6456   25.2725 C   0  0  0  0  0  0  0  0  0  0  0  0
  -28.0069  -22.9318   22.4589 C   0  0  0  0  0  0  0  0  0  0  0  0
  -25.3100  -28.6603   20.5427 C   0  0  0  0  0  0  0  0  0  0  0  0
  -22.3459   -7.9851   21.3941 C   0  0  0  0  0  0  0  0  0  0  0  0
  -27.5121  -27.7054   20.1571 C   0  0  0  0  0  0  0  0  0  0  0  0
  -29.1810  -23.4930   21.9567 C   0  0  0  0  0  0  0  0  0  0  0  0
  -21.6190   -6.0264   22.4699 C   0  0  0  0  0  0  0  0  0  0  0  0
  -22.1098   -3.9720   24.2923 C   0  0  0  0  0  0  0  0  0  0  0  0
  -20.7753   -5.8507   23.5666 C   0  0  0  0  0  0  0  0  0  0  0  0
  -25.3597  -10.9066   20.8646 C   0  0  0  0  0  0  0  0  0  0  0  0
  -27.2779  -11.9420   20.5758 C   0  0  0  0  0  0  0  0  0  0  0  0
  -28.7769  -19.2745   22.1916 C   0  0  0  0  0  0  0  0  0  0  0  0
  -27.6091  -18.6034   22.2847 C   0  0  0  0  0  0  0  0  0  0  0  0
  -27.4753   -9.4532   20.7012 C   0  0  0  0  0  0  0  0  0  0  0  0
  -27.6333  -17.1283   22.3482 C   0  0  0  0  0  0  0  0  0  0  0  0
  -23.8844  -30.6626   22.9064 C   0  0  0  0  0  0  0  0  0  0  0  0
  -21.6291  -29.6674   20.7980 C   0  0  0  0  0  0  0  0  0  0  0  0
  -20.8532  -27.7854   18.0588 C   0  0  0  0  0  0  0  0  0  0  0  0
  -24.4235  -34.4375   26.3001 C   0  0  0  0  0  0  0  0  0  0  0  0
  -25.0023  -31.1593   20.7019 C   0  0  0  0  0  0  0  0  0  0  0  0
  -23.8345  -28.4429   20.7530 C   0  0  0  0  0  0  0  0  0  0  0  0
  -23.2475  -33.6958   25.6697 C   0  0  0  0  0  0  0  0  0  0  0  0
  -25.8477  -24.9476   24.5148 C   0  0  0  0  0  0  0  0  0  0  0  0
  -25.0699  -16.4137   19.8282 C   0  0  0  0  0  0  0  0  0  0  0  0
  -26.0156  -23.4449   24.2199 C   0  0  0  0  0  0  0  0  0  0  0  0
  -27.1460  -25.1697   23.7152 C   0  0  0  0  0  0  0  0  0  0  0  0
  -23.4633  -32.1879   25.7487 C   0  0  0  0  0  0  0  0  0  0  0  0
  -25.0023  -14.8906   19.9018 C   0  0  0  0  0  0  0  0  0  0  0  0
  -25.3594  -17.0397   21.1917 C   0  0  0  0  0  0  0  0  0  0  0  0
  -26.5158  -14.9736   21.9224 C   0  0  0  0  0  0  0  0  0  0  0  0
  -26.8155  -23.8547   22.9464 C   0  0  0  0  0  0  0  0  0  0  0  0
  -24.7182  -31.7688   24.9733 C   0  0  1  0  0  0  0  0  0  0  0  0
  -23.6948  -30.8608   21.4291 C   0  0  1  0  0  0  0  0  0  0  0  0
  -26.2722  -14.3202   20.5530 C   0  0  1  0  0  0  0  0  0  0  0  0
  -18.9200  -27.1432   16.5934 C   0  0  0  0  0  0  0  0  0  0  0  0
  -20.6207  -27.7698   22.9641 C   0  0  0  0  0  0  0  0  0  0  0  0
  -19.3660  -26.5244   21.1912 C   0  0  0  0  0  0  0  0  0  0  0  0
  -18.8203  -28.9133   21.6582 C   0  0  0  0  0  0  0  0  0  0  0  0
  -22.1260  -28.9686   15.6632 C   0  0  0  0  0  0  0  0  0  0  0  0
  -29.6611  -26.7199   20.4151 C   0  0  0  0  0  0  0  0  0  1  0  0
  -30.1552  -25.3481   20.8318 C   0  0  0  0  0  0  0  0  0  0  0  0
  -20.9795  -28.3441   20.4726 C   0  0  1  0  0  0  0  0  0  0  0  0
  -20.0723  -28.1141   16.7992 C   0  0  2  0  0  0  0  0  0  0  0  0
  -19.9748  -27.8916   21.5695 C   0  0  0  0  0  0  0  0  0  0  0  0
  -25.0379  -12.2023   20.8253 N   0  0  0  0  0  0  0  0  0  0  0  0
  -26.2254  -12.8063   20.6489 N   0  0  0  0  0  0  0  0  0  0  0  0
  -26.5445  -16.4369   21.8201 N   0  0  0  0  0  0  0  0  0  0  0  0
  -23.0258  -29.6618   20.9199 N   0  0  0  0  0  0  0  0  0  0  0  0
  -28.5422  -12.3811   20.3998 N   0  0  0  0  0  0  0  0  0  0  0  0
  -26.7685   -8.2530   20.8565 N   0  0  0  0  0  0  0  0  0  0  0  0
  -24.4497  -31.7461   23.5514 N   0  0  0  0  0  0  0  0  0  0  0  0
  -20.3893  -28.4941   19.1469 N   0  0  0  0  0  0  0  0  0  0  0  0
  -20.9622  -28.0471   15.6057 N   0  3  0  0  0  0  0  0  0  0  0  0
  -28.7226   -9.4189   20.5725 O   0  0  0  0  0  0  0  0  0  0  0  0
  -28.6154  -16.5976   22.8702 O   0  0  0  0  0  0  0  0  0  0  0  0
  -23.5418  -29.6056   23.4231 O   0  0  0  0  0  0  0  0  0  0  0  0
  -20.9238  -30.6706   20.9318 O   0  0  0  0  0  0  0  0  0  0  0  0
  -21.7795  -26.9779   18.0766 O   0  0  0  0  0  0  0  0  0  0  0  0
  -21.3763   -7.0452   21.5639 O   0  0  0  0  0  0  0  0  0  0  0  0
  -28.3063  -26.6147   19.9794 O   0  0  0  0  0  0  0  0  0  1  0  0
  -29.3258  -24.8530   21.8760 O   0  0  0  0  0  0  0  0  0  0  0  0
  -22.3447   -2.9847   25.1665 F   0  0  0  0  0  0  0  0  0  0  0  0
  -19.7267   -6.6648   23.7494 F   0  0  0  0  0  0  0  0  0  0  0  0
  1  2  1  0  0  0  0
  1  6  2  0  0  0  0
  2  7  2  0  0  0  0
  3  9  2  0  0  0  0
  3 18  1  0  0  0  0
  4 10  1  0  0  0  0
  4 18  2  0  0  0  0
  5 11  2  0  0  0  0
  5 19  1  0  0  0  0
  6 21  1  0  0  0  0
  7 23  1  0  0  0  0
  8 12  2  0  0  0  0
  8 22  1  0  0  0  0
  9 26  1  0  0  0  0
 10 26  2  0  0  0  0
 11 28  1  0  0  0  0
 12 27  1  0  0  0  0
 13 14  2  0  0  0  0
 13 29  1  0  0  0  0
 14 30  1  0  0  0  0
 15 19  2  0  0  0  0
 15 24  1  0  0  0  0
 16 25  1  0  0  0  0
 16 27  2  0  0  0  0
 17 30  2  0  0  0  0
 17 31  1  0  0  0  0
 18 32  1  0  0  0  0
 19 34  1  0  0  0  0
 20 32  1  0  0  0  0
 20 33  2  0  0  0  0
 20 36  1  0  0  0  0
 21 23  2  0  0  0  0
 21 41  1  0  0  0  0
 22 25  2  0  0  0  0
 22 42  1  0  0  0  0
 23 54  1  0  0  0  0
 24 28  2  0  0  0  0
 24 53  1  0  0  0  0
 25 43  1  0  0  0  0
 26 81  1  0  0  0  0
 27 82  1  0  0  0  0
 28 83  1  0  0  0  0
 29 31  2  0  0  0  0
 29 81  1  0  0  0  0
 30 84  1  0  0  0  0
 31 85  1  0  0  0  0
 32 67  2  0  0  0  0
 33 68  1  0  0  0  0
 33 71  1  0  0  0  0
 34 35  2  0  0  0  0
 35 37  1  0  0  0  0
 36 72  1  0  0  0  0
 36 76  2  0  0  0  0
 37 69  1  0  0  0  0
 37 77  2  0  0  0  0
 38 55  1  0  0  0  0
 38 73  1  0  0  0  0
 38 78  2  0  0  0  0
 39 64  1  0  0  0  0
 39 70  1  0  0  0  0
 39 79  2  0  0  0  0
 40 65  1  0  0  0  0
 40 74  1  0  0  0  0
 40 80  2  0  0  0  0
 41 44  1  0  0  0  0
 42 55  1  0  0  0  0
 43 70  1  0  0  0  0
 44 49  1  0  0  0  0
 45 47  1  0  0  0  0
 45 48  1  0  0  0  0
 46 50  1  0  0  0  0
 46 51  1  0  0  0  0
 47 53  1  0  0  0  0
 48 53  1  0  0  0  0
 49 54  1  0  0  0  0
 50 56  1  0  0  0  0
 51 69  1  0  0  0  0
 52 56  1  0  0  0  0
 52 69  1  0  0  0  0
 54 73  1  0  0  0  0
 55 70  1  0  0  0  0
 56 68  1  0  0  0  0
 57 65  1  0  0  0  0
 58 66  1  0  0  0  0
 59 66  1  0  0  0  0
 60 66  1  0  0  0  0
 61 75  1  0  0  0  0
 62 63  1  0  0  0  0
 62 82  1  0  0  0  0
 63 83  1  0  0  0  0
 64 66  1  0  0  0  0
 64 74  1  0  0  0  0
 65 75  1  0  0  0  0
 67 68  1  0  0  0  0
M  CHG  1  75   1
M  ISO  4  35 100  37 100  62 101  82 101
M  END
> <Batch ID>
0130

> <Smiles>
CNC(C)C(=O)NC(C(=O)N1Cc2cc([101O:1][101CH2:1]COc3ccc(C=[100CH:0][100C:0](=O)N4CCCC(n5nc(-c6ccc(Oc7ccc(F)cc7F)cc6)c(C(N)=O)c5N)C4)cc3C3CCC3)ccc2CC1C(=O)NC1CCCc2ccccc21)C(C)(C)C

> <Shape>
0.306

> <Color>
0.121

> <Negative vol penalty>
0.000

$$$$

  -OEChem-04052302223D

 83 91  0     1  0  0  0  0  0999 V2000
  -21.3867  -12.4798   19.8757 C   0  0  0  0  0  0  0  0  0  0  0  0
  -21.4726  -13.7918   20.3303 C   0  0  0  0  0  0  0  0  0  0  0  0
  -24.0957  -24.4446   17.4821 C   0  0  0  0  0  0  0  0  0  0  0  0
  -24.8925  -25.9274   15.7491 C   0  0  0  0  0  0  0  0  0  0  0  0
  -20.7674  -27.2631   25.6409 C   0  0  0  0  0  0  0  0  0  0  0  0
  -22.5171  -11.6637   19.8876 C   0  0  0  0  0  0  0  0  0  0  0  0
  -22.6888  -14.2882   20.7980 C   0  0  0  0  0  0  0  0  0  0  0  0
  -23.7096  -18.9190   19.0208 C   0  0  0  0  0  0  0  0  0  0  0  0
  -20.3869  -26.0093   26.1191 C   0  0  0  0  0  0  0  0  0  0  0  0
  -23.3572  -23.7349   16.5353 C   0  0  0  0  0  0  0  0  0  0  0  0
  -24.1540  -25.2177   14.8023 C   0  0  0  0  0  0  0  0  0  0  0  0
  -23.0498  -19.9909   19.6203 C   0  0  0  0  0  0  0  0  0  0  0  0
  -23.9385  -21.3889   14.1708 C   0  0  0  0  0  0  0  0  0  0  0  0
  -23.9915  -19.9959   14.2186 C   0  0  0  0  0  0  0  0  0  0  0  0
  -22.5444  -26.2374   24.3653 C   0  0  0  0  0  0  0  0  0  0  0  0
  -25.0195  -20.4625   20.9308 C   0  0  0  0  0  0  0  0  0  0  0  0
  -21.6017  -19.9168   14.5643 C   0  0  0  0  0  0  0  0  0  0  0  0
  -24.8634  -25.5410   17.0890 C   0  0  0  0  0  0  0  0  0  0  0  0
  -21.8462  -27.3772   24.7640 C   0  0  0  0  0  0  0  0  0  0  0  0
  -26.9532  -26.0306   18.4676 C   0  0  0  0  0  0  0  0  0  0  0  0
  -23.7500  -12.1534   20.3467 C   0  0  0  0  0  0  0  0  0  0  0  0
  -25.0279  -18.6036   19.3802 C   0  0  0  0  0  0  0  0  0  0  0  0
  -23.8365  -13.4775   20.8173 C   0  0  0  0  0  0  0  0  0  0  0  0
  -25.6947  -19.3878   20.3324 C   0  0  0  0  0  0  0  0  0  0  0  0
  -21.0851  -24.8695   25.7204 C   0  0  0  0  0  0  0  0  0  0  0  0
  -22.1639  -24.9835   24.8435 C   0  0  0  0  0  0  0  0  0  0  0  0
  -23.3863  -24.1214   15.1954 C   0  0  0  0  0  0  0  0  0  0  0  0
  -23.7037  -20.7611   20.5776 C   0  0  0  0  0  0  0  0  0  0  0  0
  -22.7171  -22.0459   14.3198 C   0  0  0  0  0  0  0  0  0  0  0  0
  -22.8231  -19.2598   14.4154 C   0  0  0  0  0  0  0  0  0  0  0  0
  -21.5487  -21.3099   14.5165 C   0  0  0  0  0  0  0  0  0  0  0  0
  -25.6260  -26.2748   18.0667 C   0  0  0  0  0  0  0  0  0  0  0  0
  -27.2103  -26.9957   19.4104 C   0  0  0  0  0  0  0  0  0  0  0  0
  -22.2473  -28.7019   24.2581 C   0  0  0  0  0  0  0  0  0  0  0  0
  -27.8716  -25.0215   18.0271 C   0  0  0  0  0  0  0  0  0  0  0  0
  -26.4538  -16.0826   20.6896 C   0  0  0  0  0  0  0  0  0  0  0  0
  -29.1510  -17.7723   20.0633 C   0  0  0  0  0  0  0  0  0  0  0  0
  -30.6039  -20.8108   19.5123 C   0  0  0  0  0  0  0  0  0  0  0  0
  -23.5636  -30.1199   23.0138 C   0  0  0  0  0  0  0  0  0  0  0  0
  -24.9334  -11.2191   20.3847 C   0  0  0  0  0  0  0  0  0  0  0  0
  -25.7348  -17.4607   18.7047 C   0  0  0  0  0  0  0  0  0  0  0  0
  -27.1168  -19.1032   20.7386 C   0  0  0  0  0  0  0  0  0  0  0  0
  -26.2710  -11.9368   20.5461 C   0  0  0  0  0  0  0  0  0  0  0  0
  -25.9740  -31.4341   20.6755 C   0  0  0  0  0  0  0  0  0  0  0  0
  -26.1841  -12.9862   21.6497 C   0  0  0  0  0  0  0  0  0  0  0  0
  -26.2519  -30.2437   19.7577 C   0  0  0  0  0  0  0  0  0  0  0  0
  -24.5203  -31.4574   21.1378 C   0  0  0  0  0  0  0  0  0  0  0  0
  -24.3532  -28.9968   20.8802 C   0  0  0  0  0  0  0  0  0  0  0  0
  -25.1437  -14.0600   21.3092 C   0  0  1  0  0  0  0  0  0  0  0  0
  -26.9019  -16.9138   19.5209 C   0  0  1  0  0  0  0  0  0  0  0  0
  -25.8187  -28.9229   20.4187 C   0  0  1  0  0  0  0  0  0  0  0  0
  -21.1136  -23.3096   27.6831 C   0  0  0  0  0  0  0  0  0  0  0  0
  -32.4057  -22.4604   18.9382 C   0  0  0  0  0  0  0  0  0  0  0  0
  -29.8994  -17.4273   23.0011 C   0  0  0  0  0  0  0  0  0  0  0  0
  -31.5778  -19.2632   22.7170 C   0  0  0  0  0  0  0  0  0  0  0  0
  -31.8022  -17.1560   21.4010 C   0  0  0  0  0  0  0  0  0  0  0  0
  -29.9999  -20.6398   16.6201 C   0  0  0  0  0  0  0  0  0  0  0  0
  -20.6588  -23.5376   26.2448 C   0  0  0  0  0  0  0  0  0  0  0  0
  -22.9324  -23.7654   24.3972 C   0  0  0  0  0  0  0  0  0  0  0  0
  -22.5973  -23.3128   22.9744 C   0  0  0  0  0  0  0  0  0  0  0  0
  -23.4400  -22.1340   22.5015 C   0  0  0  0  0  0  0  0  0  1  0  0
  -29.9698  -18.7955   20.8127 C   0  0  1  0  0  0  0  0  0  0  0  0
  -31.5765  -21.2839   18.4471 C   0  0  2  0  0  0  0  0  0  0  0  0
  -30.7849  -18.1649   21.9769 C   0  0  0  0  0  0  0  0  0  0  0  0
  -25.0781  -27.3136   18.7029 N   0  0  0  0  0  0  0  0  0  0  0  0
  -23.2432  -28.8473   23.4466 N   0  0  0  0  0  0  0  0  0  0  0  0
  -26.0659  -27.7306   19.5132 N   0  0  0  0  0  0  0  0  0  0  0  0
  -27.7631  -17.9712   20.0543 N   0  0  0  0  0  0  0  0  0  0  0  0
  -24.1359  -30.1753   21.7297 N   0  0  0  0  0  0  0  0  0  0  0  0
  -28.3013  -27.2789   20.1534 N   0  0  0  0  0  0  0  0  0  0  0  0
  -27.4451  -24.1097   17.0519 N   0  0  0  0  0  0  0  0  0  0  0  0
  -25.6788  -14.9930   20.3408 N   0  0  0  0  0  0  0  0  0  0  0  0
  -30.7850  -19.4774   19.8133 N   0  0  0  0  0  0  0  0  0  0  0  0
  -30.8388  -21.7071   17.2233 N   0  3  0  0  0  0  0  0  0  0  0  0
  -29.0305  -24.9209   18.4966 O   0  0  0  0  0  0  0  0  0  0  0  0
  -26.7878  -16.4049   21.8238 O   0  0  0  0  0  0  0  0  0  0  0  0
  -29.7224  -16.8351   19.5004 O   0  0  0  0  0  0  0  0  0  0  0  0
  -29.7696  -21.5510   20.0286 O   0  0  0  0  0  0  0  0  0  0  0  0
  -23.3687  -31.1411   23.6774 O   0  0  0  0  0  0  0  0  0  0  0  0
  -22.6660  -23.4289   14.2712 O   0  0  0  0  0  0  0  0  0  0  0  0
  -23.0618  -21.8074   21.1649 O   0  0  0  0  0  0  0  0  0  1  0  0
  -22.8740  -17.9221   14.4598 F   0  0  0  0  0  0  0  0  0  0  0  0
  -20.3722  -21.9354   14.6591 F   0  0  0  0  0  0  0  0  0  0  0  0
  1  2  1  0  0  0  0
  1  6  2  0  0  0  0
  2  7  2  0  0  0  0
  3 10  2  0  0  0  0
  3 18  1  0  0  0  0
  4 11  1  0  0  0  0
  4 18  2  0  0  0  0
  5  9  2  0  0  0  0
  5 19  1  0  0  0  0
  6 21  1  0  0  0  0
  7 23  1  0  0  0  0
  8 12  2  0  0  0  0
  8 22  1  0  0  0  0
  9 25  1  0  0  0  0
 10 27  1  0  0  0  0
 11 27  2  0  0  0  0
 12 28  1  0  0  0  0
 13 14  2  0  0  0  0
 13 29  1  0  0  0  0
 14 30  1  0  0  0  0
 15 19  2  0  0  0  0
 15 26  1  0  0  0  0
 16 24  1  0  0  0  0
 16 28  2  0  0  0  0
 17 30  2  0  0  0  0
 17 31  1  0  0  0  0
 18 32  1  0  0  0  0
 19 34  1  0  0  0  0
 20 32  1  0  0  0  0
 20 33  2  0  0  0  0
 20 35  1  0  0  0  0
 21 23  2  0  0  0  0
 21 40  1  0  0  0  0
 22 24  2  0  0  0  0
 22 41  1  0  0  0  0
 23 49  1  0  0  0  0
 24 42  1  0  0  0  0
 25 26  2  0  0  0  0
 25 58  1  0  0  0  0
 26 59  1  0  0  0  0
 27 80  1  0  0  0  0
 28 81  1  0  0  0  0
 29 31  2  0  0  0  0
 29 80  1  0  0  0  0
 30 82  1  0  0  0  0
 31 83  1  0  0  0  0
 32 65  2  0  0  0  0
 33 67  1  0  0  0  0
 33 70  1  0  0  0  0
 34 66  2  0  0  0  0
 35 71  1  0  0  0  0
 35 75  2  0  0  0  0
 36 50  1  0  0  0  0
 36 72  1  0  0  0  0
 36 76  2  0  0  0  0
 37 62  1  0  0  0  0
 37 68  1  0  0  0  0
 37 77  2  0  0  0  0
 38 63  1  0  0  0  0
 38 73  1  0  0  0  0
 38 78  2  0  0  0  0
 39 66  1  0  0  0  0
 39 69  1  0  0  0  0
 39 79  2  0  0  0  0
 40 43  1  0  0  0  0
 41 50  1  0  0  0  0
 42 68  1  0  0  0  0
 43 45  1  0  0  0  0
 44 46  1  0  0  0  0
 44 47  1  0  0  0  0
 45 49  1  0  0  0  0
 46 51  1  0  0  0  0
 47 69  1  0  0  0  0
 48 51  1  0  0  0  0
 48 69  1  0  0  0  0
 49 72  1  0  0  0  0
 50 68  1  0  0  0  0
 51 67  1  0  0  0  0
 52 58  1  0  0  0  0
 53 63  1  0  0  0  0
 54 64  1  0  0  0  0
 55 64  1  0  0  0  0
 56 64  1  0  0  0  0
 57 74  1  0  0  0  0
 59 60  1  0  0  0  0
 60 61  1  0  0  0  0
 61 81  1  0  0  0  0
 62 64  1  0  0  0  0
 62 73  1  0  0  0  0
 63 74  1  0  0  0  0
 65 67  1  0  0  0  0
M  CHG  1  74   1
M  ISO  4  39 100  61 101  66 100  81 101
M  END
> <Batch ID>
0130

> <Smiles>
CCc1ccc(C=[100N:0][100C:0](=O)N2CCCC(n3nc(-c4ccc(Oc5ccc(F)cc5F)cc4)c(C(N)=O)c3N)C2)cc1CC[101CH2:1][101O:1]c1ccc2c(c1)CN(C(=O)C(NC(=O)C(C)NC)C(C)(C)C)C(C(=O)NC1CCCc3ccccc31)C2

> <Shape>
0.179

> <Color>
0.103

> <Negative vol penalty>
0.000

$$$$

  -OEChem-04052302223D

 84 92  0     1  0  0  0  0  0999 V2000
  -25.8135  -37.8605   22.4342 C   0  0  0  0  0  0  0  0  0  0  0  0
  -26.4715  -36.9614   21.6010 C   0  0  0  0  0  0  0  0  0  0  0  0
  -23.8017  -12.4140   24.0750 C   0  0  0  0  0  0  0  0  0  0  0  0
  -23.7682  -14.8125   23.7870 C   0  0  0  0  0  0  0  0  0  0  0  0
  -32.6386  -18.9977   20.4350 C   0  0  0  0  0  0  0  0  0  0  0  0
  -30.4506  -20.0140   20.3050 C   0  0  0  0  0  0  0  0  0  0  0  0
  -25.2149  -37.4097   23.6099 C   0  0  0  0  0  0  0  0  0  0  0  0
  -26.5322  -35.6111   21.9437 C   0  0  0  0  0  0  0  0  0  0  0  0
  -26.6534  -29.0961   18.9679 C   0  0  0  0  0  0  0  0  0  0  0  0
  -32.0638  -17.7383   20.2651 C   0  0  0  0  0  0  0  0  0  0  0  0
  -29.8757  -18.7545   20.1351 C   0  0  0  0  0  0  0  0  0  0  0  0
  -23.1923  -12.5551   25.3216 C   0  0  0  0  0  0  0  0  0  0  0  0
  -23.1586  -14.9536   25.0337 C   0  0  0  0  0  0  0  0  0  0  0  0
  -27.3969  -27.9168   18.9872 C   0  0  0  0  0  0  0  0  0  0  0  0
  -24.0922  -14.9064   28.2829 C   0  0  0  0  0  0  0  0  0  0  0  0
  -24.5834  -15.8942   29.1364 C   0  0  0  0  0  0  0  0  0  0  0  0
  -26.2584  -27.2391   21.0030 C   0  0  0  0  0  0  0  0  0  0  0  0
  -22.4148  -16.9589   29.1524 C   0  0  0  0  0  0  0  0  0  0  0  0
  -24.0897  -13.5427   23.3077 C   0  0  0  0  0  0  0  0  0  0  0  0
  -31.8321  -20.1356   20.4550 C   0  0  0  0  0  0  0  0  0  0  0  0
  -24.0826  -13.2394   20.7748 C   0  0  0  0  0  0  0  0  0  0  0  0
  -25.2600  -36.0516   23.9624 C   0  0  0  0  0  0  0  0  0  0  0  0
  -25.7130  -29.3611   19.9737 C   0  0  0  0  0  0  0  0  0  0  0  0
  -25.9348  -35.1420   23.1259 C   0  0  0  0  0  0  0  0  0  0  0  0
  -25.5024  -28.4212   20.9928 C   0  0  0  0  0  0  0  0  0  0  0  0
  -30.6823  -17.6166   20.1151 C   0  0  0  0  0  0  0  0  0  0  0  0
  -22.8707  -13.8249   25.8010 C   0  0  0  0  0  0  0  0  0  0  0  0
  -27.2015  -26.9894   20.0064 C   0  0  0  0  0  0  0  0  0  0  0  0
  -22.7622  -14.9448   27.8641 C   0  0  0  0  0  0  0  0  0  0  0  0
  -23.7448  -16.9204   29.5711 C   0  0  0  0  0  0  0  0  0  0  0  0
  -21.9235  -15.9711   28.2989 C   0  0  0  0  0  0  0  0  0  0  0  0
  -24.7198  -13.3976   22.0200 C   0  0  0  0  0  0  0  0  0  0  0  0
  -25.1128  -13.1462   19.8712 C   0  0  0  0  0  0  0  0  0  0  0  0
  -32.4459  -21.4806   20.6366 C   0  0  0  0  0  0  0  0  0  0  0  0
  -22.6844  -13.1819   20.4627 C   0  0  0  0  0  0  0  0  0  0  0  0
  -25.3779  -31.6098   22.1952 C   0  0  0  0  0  0  0  0  0  0  0  0
  -22.5428  -30.1226   22.7174 C   0  0  0  0  0  0  0  0  0  0  0  0
  -20.6781  -27.2743   22.4788 C   0  0  0  0  0  0  0  0  0  0  0  0
  -30.7570  -15.1078   19.8992 C   0  0  0  0  0  0  0  0  0  0  0  0
  -24.6390  -35.6192   25.2670 C   0  0  0  0  0  0  0  0  0  0  0  0
  -24.9000  -30.6256   19.9238 C   0  0  0  0  0  0  0  0  0  0  0  0
  -24.4905  -28.6489   22.0848 C   0  0  0  0  0  0  0  0  0  0  0  0
  -24.4257  -34.1112   25.3698 C   0  0  0  0  0  0  0  0  0  0  0  0
  -29.6765  -11.7356   19.5279 C   0  0  0  0  0  0  0  0  0  0  0  0
  -25.6763  -33.3632   24.9189 C   0  0  0  0  0  0  0  0  0  0  0  0
  -28.2229  -11.7660   20.0058 C   0  0  0  0  0  0  0  0  0  0  0  0
  -30.5627  -12.6715   20.3479 C   0  0  0  0  0  0  0  0  0  0  0  0
  -28.6292  -14.0863   20.9211 C   0  0  0  0  0  0  0  0  0  0  0  0
  -26.0008  -33.6655   23.4510 C   0  0  1  0  0  0  0  0  0  0  0  0
  -24.3356  -31.0271   21.2831 C   0  0  1  0  0  0  0  0  0  0  0  0
  -27.6852  -13.2083   20.0834 C   0  0  2  0  0  0  0  0  0  0  0  0
  -33.7217  -21.5729   21.4494 C   0  0  0  0  0  0  0  0  0  0  0  0
  -18.4080  -26.3545   23.0247 C   0  0  0  0  0  0  0  0  0  0  0  0
  -23.3378  -29.9106   25.6556 C   0  0  0  0  0  0  0  0  0  0  0  0
  -21.5376  -28.1951   25.9468 C   0  0  0  0  0  0  0  0  0  0  0  0
  -20.9441  -30.5198   25.2639 C   0  0  0  0  0  0  0  0  0  0  0  0
  -20.0890  -26.7231   19.6314 C   0  0  0  0  0  0  0  0  0  0  0  0
  -31.5420  -24.8703   19.6280 C   0  0  0  0  0  0  0  0  0  0  0  0
  -30.1138  -24.8615   20.1740 C   0  0  0  0  0  0  0  0  0  0  0  0
  -32.4277  -23.8244   20.2957 C   0  0  0  0  0  0  0  0  0  0  0  0
  -29.2368  -25.8847   19.4651 C   0  0  0  0  0  0  0  0  0  1  0  0
  -22.0762  -28.9899   23.5996 C   0  0  1  0  0  0  0  0  0  0  0  0
  -19.2684  -27.0329   21.9701 C   0  0  2  0  0  0  0  0  0  0  0  0
  -21.9945  -29.4002   25.0971 C   0  0  0  0  0  0  0  0  0  0  0  0
  -26.0518  -13.4048   21.9204 N   0  0  0  0  0  0  0  0  0  0  0  0
  -31.8550  -22.4913   20.1025 N   0  0  0  0  0  0  0  0  0  0  0  0
  -26.2599  -13.2499   20.6018 N   0  0  0  0  0  0  0  0  0  0  0  0
  -23.7247  -29.9032   21.9958 N   0  0  0  0  0  0  0  0  0  0  0  0
  -29.9932  -14.0205   20.3735 N   0  0  0  0  0  0  0  0  0  0  0  0
  -25.1404  -12.9864   18.5310 N   0  0  0  0  0  0  0  0  0  0  0  0
  -21.7607  -13.2941   21.5108 N   0  0  0  0  0  0  0  0  0  0  0  0
  -30.0994  -16.3368   19.9424 N   0  0  0  0  0  0  0  0  0  0  0  0
  -25.1270  -32.9144   22.5752 N   0  0  0  0  0  0  0  0  0  0  0  0
  -20.8120  -28.5281   23.0367 N   0  0  0  0  0  0  0  0  0  0  0  0
  -19.2964  -26.1664   20.7579 N   0  3  0  0  0  0  0  0  0  0  0  0
  -22.2668  -13.0190   19.2911 O   0  0  0  0  0  0  0  0  0  0  0  0
  -26.3378  -30.9258   22.5305 O   0  0  0  0  0  0  0  0  0  0  0  0
  -21.8790  -31.1610   22.6647 O   0  0  0  0  0  0  0  0  0  0  0  0
  -21.5702  -26.4332   22.3935 O   0  0  0  0  0  0  0  0  0  0  0  0
  -31.8997  -14.9556   19.4598 O   0  0  0  0  0  0  0  0  0  0  0  0
  -22.2757  -13.9629   27.0174 O   0  0  0  0  0  0  0  0  0  0  0  0
  -27.9264  -25.8379   20.0280 O   0  0  0  0  0  0  0  0  0  1  0  0
  -24.2163  -17.8681   30.3920 F   0  0  0  0  0  0  0  0  0  0  0  0
  -20.6445  -16.0127   27.9009 F   0  0  0  0  0  0  0  0  0  0  0  0
  1  2  1  0  0  0  0
  1  7  2  0  0  0  0
  2  8  2  0  0  0  0
  3 12  2  0  0  0  0
  3 19  1  0  0  0  0
  4 13  1  0  0  0  0
  4 19  2  0  0  0  0
  5 10  2  0  0  0  0
  5 20  1  0  0  0  0
  6 11  1  0  0  0  0
  6 20  2  0  0  0  0
  7 22  1  0  0  0  0
  8 24  1  0  0  0  0
  9 14  2  0  0  0  0
  9 23  1  0  0  0  0
 10 26  1  0  0  0  0
 11 26  2  0  0  0  0
 12 27  1  0  0  0  0
 13 27  2  0  0  0  0
 14 28  1  0  0  0  0
 15 16  2  0  0  0  0
 15 29  1  0  0  0  0
 16 30  1  0  0  0  0
 17 25  1  0  0  0  0
 17 28  2  0  0  0  0
 18 30  2  0  0  0  0
 18 31  1  0  0  0  0
 19 32  1  0  0  0  0
 20 34  1  0  0  0  0
 21 32  1  0  0  0  0
 21 33  2  0  0  0  0
 21 35  1  0  0  0  0
 22 24  2  0  0  0  0
 22 40  1  0  0  0  0
 23 25  2  0  0  0  0
 23 41  1  0  0  0  0
 24 49  1  0  0  0  0
 25 42  1  0  0  0  0
 26 72  1  0  0  0  0
 27 81  1  0  0  0  0
 28 82  1  0  0  0  0
 29 31  2  0  0  0  0
 29 81  1  0  0  0  0
 30 83  1  0  0  0  0
 31 84  1  0  0  0  0
 32 65  2  0  0  0  0
 33 67  1  0  0  0  0
 33 70  1  0  0  0  0
 34 52  1  0  0  0  0
 34 66  2  0  0  0  0
 35 71  1  0  0  0  0
 35 76  2  0  0  0  0
 36 50  1  0  0  0  0
 36 73  1  0  0  0  0
 36 77  2  0  0  0  0
 37 62  1  0  0  0  0
 37 68  1  0  0  0  0
 37 78  2  0  0  0  0
 38 63  1  0  0  0  0
 38 74  1  0  0  0  0
 38 79  2  0  0  0  0
 39 69  1  0  0  0  0
 39 72  1  0  0  0  0
 39 80  2  0  0  0  0
 40 43  1  0  0  0  0
 41 50  1  0  0  0  0
 42 68  1  0  0  0  0
 43 45  1  0  0  0  0
 44 46  1  0  0  0  0
 44 47  1  0  0  0  0
 45 49  1  0  0  0  0
 46 51  1  0  0  0  0
 47 69  1  0  0  0  0
 48 51  1  0  0  0  0
 48 69  1  0  0  0  0
 49 73  1  0  0  0  0
 50 68  1  0  0  0  0
 51 67  1  0  0  0  0
 53 63  1  0  0  0  0
 54 64  1  0  0  0  0
 55 64  1  0  0  0  0
 56 64  1  0  0  0  0
 57 75  1  0  0  0  0
 58 59  1  0  0  0  0
 58 60  1  0  0  0  0
 59 61  1  0  0  0  0
 60 66  1  0  0  0  0
 61 82  1  0  0  0  0
 62 64  1  0  0  0  0
 62 74  1  0  0  0  0
 63 75  1  0  0  0  0
 65 67  1  0  0  0  0
M  CHG  1  75   1
M  ISO  4  39 100  61 101  72 100  82 101
M  END
> <Batch ID>
0130

> <Smiles>
CNC(C)C(=O)NC(C(=O)N1Cc2cc([101O:1][101CH2:1]CCCN=C(C)c3ccc([100NH:0][100C:0](=O)N4CCCC(n5nc(-c6ccc(Oc7ccc(F)cc7F)cc6)c(C(N)=O)c5N)C4)cc3)ccc2CC1C(=O)NC1CCCc2ccccc21)C(C)(C)C

> <Shape>
0.289

> <Color>
0.094

> <Negative vol penalty>
0.000

$$$$

  -OEChem-04052302223D

 85 93  0     1  0  0  0  0  0999 V2000
  -16.9176  -24.5954   22.5690 C   0  0  0  0  0  0  0  0  0  0  0  0
  -17.6065  -24.3233   21.3914 C   0  0  0  0  0  0  0  0  0  0  0  0
  -24.7443  -13.6620   21.6009 C   0  0  0  0  0  0  0  0  0  0  0  0
  -26.6654  -13.3237   20.1754 C   0  0  0  0  0  0  0  0  0  0  0  0
  -17.2685  -25.7025   23.3405 C   0  0  0  0  0  0  0  0  0  0  0  0
  -18.6460  -25.1587   20.9840 C   0  0  0  0  0  0  0  0  0  0  0  0
  -23.7687  -23.5055   18.0632 C   0  0  0  0  0  0  0  0  0  0  0  0
  -24.1332  -12.5386   21.0439 C   0  0  0  0  0  0  0  0  0  0  0  0
  -26.0543  -12.2003   19.6185 C   0  0  0  0  0  0  0  0  0  0  0  0
  -24.1347  -23.5410   16.7184 C   0  0  0  0  0  0  0  0  0  0  0  0
  -24.3382   -9.1783   21.3583 C   0  0  0  0  0  0  0  0  0  0  0  0
  -23.7278   -8.2743   22.2277 C   0  0  0  0  0  0  0  0  0  0  0  0
  -29.5053  -21.6075   16.5533 C   0  0  0  0  0  0  0  0  0  0  0  0
  -25.2402  -25.6542   17.0814 C   0  0  0  0  0  0  0  0  0  0  0  0
  -21.6102   -8.6434   21.1247 C   0  0  0  0  0  0  0  0  0  0  0  0
  -31.1366  -20.8114   15.0165 C   0  0  0  0  0  0  0  0  0  0  0  0
  -30.7287  -19.6026   16.9272 C   0  0  0  0  0  0  0  0  0  0  0  0
  -26.0104  -14.0546   21.1666 C   0  0  0  0  0  0  0  0  0  0  0  0
  -30.1972  -21.7707   15.3583 C   0  0  0  0  0  0  0  0  0  0  0  0
  -27.4851  -15.2540   22.8679 C   0  0  0  0  0  0  0  0  0  0  0  0
  -18.3191  -26.5464   22.9474 C   0  0  0  0  0  0  0  0  0  0  0  0
  -24.1269  -24.5511   18.9262 C   0  0  0  0  0  0  0  0  0  0  0  0
  -19.0104  -26.2788   21.7504 C   0  0  0  0  0  0  0  0  0  0  0  0
  -24.8797  -25.6283   18.4372 C   0  0  0  0  0  0  0  0  0  0  0  0
  -29.7703  -20.5054   17.3586 C   0  0  0  0  0  0  0  0  0  0  0  0
  -24.7882  -11.8078   20.0527 C   0  0  0  0  0  0  0  0  0  0  0  0
  -24.8681  -24.6169   16.2266 C   0  0  0  0  0  0  0  0  0  0  0  0
  -23.5847   -9.8148   20.3721 C   0  0  0  0  0  0  0  0  0  0  0  0
  -22.3638   -8.0069   22.1109 C   0  0  0  0  0  0  0  0  0  0  0  0
  -22.2207   -9.5474   20.2553 C   0  0  0  0  0  0  0  0  0  0  0  0
  -26.6419  -15.2152   21.7412 C   0  0  0  0  0  0  0  0  0  0  0  0
  -27.8187  -16.5797   23.0015 C   0  0  0  0  0  0  0  0  0  0  0  0
  -28.5591  -23.1037   13.9441 C   0  0  0  0  0  0  0  0  0  0  0  0
  -28.2733  -24.1345   13.1366 C   0  0  0  0  0  0  0  0  0  0  0  0
  -29.9375  -22.9347   14.4770 C   0  0  0  0  0  0  0  0  0  0  0  0
  -27.9272  -14.1872   23.7176 C   0  0  0  0  0  0  0  0  0  0  0  0
  -22.5225  -26.6692   20.6707 C   0  0  0  0  0  0  0  0  0  0  0  0
  -25.4824  -27.4376   21.7526 C   0  0  0  0  0  0  0  0  0  0  0  0
  -28.8512  -27.4597   21.2068 C   0  0  0  0  0  0  0  0  0  0  0  0
  -28.0983  -21.1285   19.1370 C   0  0  0  0  0  0  0  0  0  0  0  0
  -18.6310  -27.7580   23.7898 C   0  0  0  0  0  0  0  0  0  0  0  0
  -23.7473  -24.4848   20.3802 C   0  0  0  0  0  0  0  0  0  0  0  0
  -25.3066  -26.7661   19.3270 C   0  0  0  0  0  0  0  0  0  0  0  0
  -19.9904  -28.3804   23.4817 C   0  0  0  0  0  0  0  0  0  0  0  0
  -26.1374  -20.9732   22.1047 C   0  0  0  0  0  0  0  0  0  0  0  0
  -20.1854  -28.5182   21.9751 C   0  0  0  0  0  0  0  0  0  0  0  0
  -26.1260  -19.4833   22.4542 C   0  0  0  0  0  0  0  0  0  0  0  0
  -26.0875  -21.2020   20.5951 C   0  0  0  0  0  0  0  0  0  0  0  0
  -27.1011  -18.9965   20.1740 C   0  0  0  0  0  0  0  0  0  0  0  0
  -20.1601  -27.1475   21.2880 C   0  0  1  0  0  0  0  0  0  0  0  0
  -23.7242  -25.8530   21.0546 C   0  0  1  0  0  0  0  0  0  0  0  0
  -27.2156  -18.7148   21.6811 C   0  0  2  0  0  0  0  0  0  0  0  0
  -31.0118  -28.1882   22.2549 C   0  0  0  0  0  0  0  0  0  0  0  0
  -27.0284  -26.9150   12.4930 C   0  0  0  0  0  0  0  0  0  0  0  0
  -24.8719  -30.3296   20.9952 C   0  0  0  0  0  0  0  0  0  0  0  0
  -27.3219  -30.8172   21.1618 C   0  0  0  0  0  0  0  0  0  0  0  0
  -26.0646  -30.0518   23.1757 C   0  0  0  0  0  0  0  0  0  0  0  0
  -29.8776  -24.6853   21.2962 C   0  0  0  0  0  0  0  0  0  0  0  0
  -26.9081  -24.3665   12.5492 C   0  0  0  0  0  0  0  0  0  0  0  0
  -25.9771  -25.7866   14.4780 C   0  0  0  0  0  0  0  0  0  1  0  0
  -26.5600  -28.4039   21.3235 C   0  0  1  0  0  0  0  0  0  0  0  0
  -30.0171  -27.0499   22.0884 C   0  0  2  0  0  0  0  0  0  0  0  0
  -26.2384  -25.6942   12.9689 C   0  0  1  0  0  0  0  0  0  0  0  0
  -26.1951  -29.8803   21.6466 C   0  0  0  0  0  0  0  0  0  0  0  0
  -31.4213  -19.7276   15.7729 N   0  0  0  0  0  0  0  0  0  0  0  0
  -26.4516  -16.4204   21.1978 N   0  0  0  0  0  0  0  0  0  0  0  0
  -27.1798  -17.2290   21.9865 N   0  0  0  0  0  0  0  0  0  0  0  0
  -24.9058  -26.6585   20.7395 N   0  0  0  0  0  0  0  0  0  0  0  0
  -27.1511  -20.4465   19.9297 N   0  0  0  0  0  0  0  0  0  0  0  0
  -28.5933  -17.2415   23.8872 N   0  0  0  0  0  0  0  0  0  0  0  0
  -27.4896  -12.8853   23.4381 N   0  0  0  0  0  0  0  0  0  0  0  0
  -29.0813  -20.3102   18.5812 N   0  0  0  0  0  0  0  0  0  0  0  0
  -21.4208  -26.4630   21.4790 N   0  0  0  0  0  0  0  0  0  0  0  0
  -27.7946  -27.9428   21.9494 N   0  0  0  0  0  0  0  0  0  0  0  0
  -30.7314  -25.8848   21.4941 N   0  3  0  0  0  0  0  0  0  0  0  0
  -30.8522  -23.7005   14.1940 O   0  0  0  0  0  0  0  0  0  0  0  0
  -28.6745  -14.3849   24.7055 O   0  0  0  0  0  0  0  0  0  0  0  0
  -22.5902  -27.4308   19.7131 O   0  0  0  0  0  0  0  0  0  0  0  0
  -25.1691  -27.3713   22.9438 O   0  0  0  0  0  0  0  0  0  0  0  0
  -28.8767  -27.3645   19.9818 O   0  0  0  0  0  0  0  0  0  0  0  0
  -28.0576  -22.3522   18.9860 O   0  0  0  0  0  0  0  0  0  0  0  0
  -24.1923  -10.7114   19.5092 O   0  0  0  0  0  0  0  0  0  0  0  0
  -25.2261  -24.6544   14.9143 O   0  0  0  0  0  0  0  0  0  1  0  0
  -21.7781   -7.1377   22.9449 F   0  0  0  0  0  0  0  0  0  0  0  0
  -21.4917  -10.1550   19.3091 F   0  0  0  0  0  0  0  0  0  0  0  0
  1  2  1  0  0  0  0
  1  5  2  0  0  0  0
  2  6  2  0  0  0  0
  3  8  2  0  0  0  0
  3 18  1  0  0  0  0
  4  9  1  0  0  0  0
  4 18  2  0  0  0  0
  5 21  1  0  0  0  0
  6 23  1  0  0  0  0
  7 10  2  0  0  0  0
  7 22  1  0  0  0  0
  8 26  1  0  0  0  0
  9 26  2  0  0  0  0
 10 27  1  0  0  0  0
 11 12  2  0  0  0  0
 11 28  1  0  0  0  0
 12 29  1  0  0  0  0
 13 19  2  0  0  0  0
 13 25  1  0  0  0  0
 14 24  1  0  0  0  0
 14 27  2  0  0  0  0
 15 29  2  0  0  0  0
 15 30  1  0  0  0  0
 16 19  1  0  0  0  0
 16 65  2  0  0  0  0
 17 25  2  0  0  0  0
 17 65  1  0  0  0  0
 18 31  1  0  0  0  0
 19 35  1  0  0  0  0
 20 31  1  0  0  0  0
 20 32  2  0  0  0  0
 20 36  1  0  0  0  0
 21 23  2  0  0  0  0
 21 41  1  0  0  0  0
 22 24  2  0  0  0  0
 22 42  1  0  0  0  0
 23 50  1  0  0  0  0
 24 43  1  0  0  0  0
 25 72  1  0  0  0  0
 26 82  1  0  0  0  0
 27 83  1  0  0  0  0
 28 30  2  0  0  0  0
 28 82  1  0  0  0  0
 29 84  1  0  0  0  0
 30 85  1  0  0  0  0
 31 66  2  0  0  0  0
 32 67  1  0  0  0  0
 32 70  1  0  0  0  0
 33 34  2  0  0  0  0
 33 35  1  0  0  0  0
 34 59  1  0  0  0  0
 35 76  2  0  0  0  0
 36 71  1  0  0  0  0
 36 77  2  0  0  0  0
 37 51  1  0  0  0  0
 37 73  1  0  0  0  0
 37 78  2  0  0  0  0
 38 61  1  0  0  0  0
 38 68  1  0  0  0  0
 38 79  2  0  0  0  0
 39 62  1  0  0  0  0
 39 74  1  0  0  0  0
 39 80  2  0  0  0  0
 40 69  1  0  0  0  0
 40 72  1  0  0  0  0
 40 81  2  0  0  0  0
 41 44  1  0  0  0  0
 42 51  1  0  0  0  0
 43 68  1  0  0  0  0
 44 46  1  0  0  0  0
 45 47  1  0  0  0  0
 45 48  1  0  0  0  0
 46 50  1  0  0  0  0
 47 52  1  0  0  0  0
 48 69  1  0  0  0  0
 49 52  1  0  0  0  0
 49 69  1  0  0  0  0
 50 73  1  0  0  0  0
 51 68  1  0  0  0  0
 52 67  1  0  0  0  0
 53 62  1  0  0  0  0
 54 63  1  0  0  0  0
 55 64  1  0  0  0  0
 56 64  1  0  0  0  0
 57 64  1  0  0  0  0
 58 75  1  0  0  0  0
 59 63  1  0  0  0  0
 60 63  1  0  0  0  0
 60 83  1  0  0  0  0
 61 64  1  0  0  0  0
 61 74  1  0  0  0  0
 62 75  1  0  0  0  0
 66 67  1  0  0  0  0
M  CHG  1  75   1
M  ISO  4  40 100  60 101  72 100  83 101
M  END
> <Batch ID>
0130

> <Smiles>
CNC(C)C(=O)NC(C(=O)N1Cc2cc([101O:1][101CH2:1]C(C)CC=CC(=O)c3cncc([100NH:0][100C:0](=O)N4CCCC(n5nc(-c6ccc(Oc7ccc(F)cc7F)cc6)c(C(N)=O)c5N)C4)c3)ccc2CC1C(=O)NC1CCCc2ccccc21)C(C)(C)C

> <Shape>
0.212

> <Color>
0.067

> <Negative vol penalty>
0.000

$$$$

  -OEChem-04052302223D

 84 93  0     1  0  0  0  0  0999 V2000
  -33.4041  -36.0565   21.3853 C   0  0  0  0  0  0  0  0  0  0  0  0
  -33.0947  -34.7002   21.3902 C   0  0  0  0  0  0  0  0  0  0  0  0
  -24.3675   -9.1674   22.1104 C   0  0  0  0  0  0  0  0  0  0  0  0
  -23.7906   -9.0114   19.7695 C   0  0  0  0  0  0  0  0  0  0  0  0
  -29.6413  -20.5358   20.6132 C   0  0  0  0  0  0  0  0  0  0  0  0
  -31.9661  -20.0688   21.0760 C   0  0  0  0  0  0  0  0  0  0  0  0
  -32.7668  -36.9189   22.2764 C   0  0  0  0  0  0  0  0  0  0  0  0
  -32.1487  -34.2052   22.2872 C   0  0  0  0  0  0  0  0  0  0  0  0
  -28.9005  -30.9895   20.1070 C   0  0  0  0  0  0  0  0  0  0  0  0
  -29.9419  -21.8903   20.4699 C   0  0  0  0  0  0  0  0  0  0  0  0
  -32.2667  -21.4233   20.9326 C   0  0  0  0  0  0  0  0  0  0  0  0
  -23.2849   -8.3488   22.4319 C   0  0  0  0  0  0  0  0  0  0  0  0
  -22.7079   -8.1927   20.0909 C   0  0  0  0  0  0  0  0  0  0  0  0
  -29.3498  -29.6902   19.8751 C   0  0  0  0  0  0  0  0  0  0  0  0
  -22.5528   -5.0483   22.3698 C   0  0  0  0  0  0  0  0  0  0  0  0
  -22.7683   -4.0181   23.2851 C   0  0  0  0  0  0  0  0  0  0  0  0
  -28.1886  -28.9421   21.8528 C   0  0  0  0  0  0  0  0  0  0  0  0
  -21.1023   -4.9725   24.7517 C   0  0  0  0  0  0  0  0  0  0  0  0
  -24.6204   -9.4987   20.7793 C   0  0  0  0  0  0  0  0  0  0  0  0
  -30.6534  -19.6250   20.9164 C   0  0  0  0  0  0  0  0  0  0  0  0
  -27.0530   -9.9386   20.1495 C   0  0  0  0  0  0  0  0  0  0  0  0
  -31.8055  -36.4359   23.1782 C   0  0  0  0  0  0  0  0  0  0  0  0
  -28.0995  -31.2774   21.2215 C   0  0  0  0  0  0  0  0  0  0  0  0
  -31.4990  -35.0617   23.1921 C   0  0  0  0  0  0  0  0  0  0  0  0
  -27.7283  -30.2454   22.0952 C   0  0  0  0  0  0  0  0  0  0  0  0
  -31.2546  -22.3341   20.6295 C   0  0  0  0  0  0  0  0  0  0  0  0
  -22.4551   -7.8614   21.4221 C   0  0  0  0  0  0  0  0  0  0  0  0
  -28.9962  -28.6668   20.7496 C   0  0  0  0  0  0  0  0  0  0  0  0
  -21.6121   -6.0407   22.6455 C   0  0  0  0  0  0  0  0  0  0  0  0
  -22.0431   -3.9802   24.4760 C   0  0  0  0  0  0  0  0  0  0  0  0
  -20.8868   -6.0028   23.8364 C   0  0  0  0  0  0  0  0  0  0  0  0
  -25.7383  -10.3448   20.4467 C   0  0  0  0  0  0  0  0  0  0  0  0
  -27.7271  -11.1099   19.9044 C   0  0  0  0  0  0  0  0  0  0  0  0
  -31.3237  -25.9739   20.2848 C   0  0  0  0  0  0  0  0  0  0  0  0
  -30.3399  -18.2127   21.0658 C   0  0  0  0  0  0  0  0  0  0  0  0
  -30.7825  -27.1783   20.4963 C   0  0  0  0  0  0  0  0  0  1  0  0
  -29.1141  -17.7046   21.3154 C   0  0  0  0  0  0  0  0  0  0  0  0
  -27.6146   -8.6203   20.0994 C   0  0  0  0  0  0  0  0  0  0  0  0
  -28.9547  -16.2410   21.4307 C   0  0  0  0  0  0  0  0  0  0  0  0
  -28.4089  -33.1258   23.7888 C   0  0  0  0  0  0  0  0  0  0  0  0
  -25.3361  -32.2330   24.3211 C   0  0  0  0  0  0  0  0  0  0  0  0
  -22.8513  -29.9513   23.8056 C   0  0  0  0  0  0  0  0  0  0  0  0
  -31.1777  -37.3987   24.1547 C   0  0  0  0  0  0  0  0  0  0  0  0
  -27.6010  -32.6791   21.4428 C   0  0  0  0  0  0  0  0  0  0  0  0
  -26.8537  -30.4983   23.2949 C   0  0  0  0  0  0  0  0  0  0  0  0
  -32.7909  -25.6850   20.2442 C   0  0  0  0  0  0  0  0  0  0  0  0
  -30.5532  -24.6928   20.1714 C   0  0  0  0  0  0  0  0  0  0  0  0
  -29.9144  -36.8562   24.8180 C   0  0  0  0  0  0  0  0  0  0  0  0
  -26.0434  -15.8174   19.2452 C   0  0  0  0  0  0  0  0  0  0  0  0
  -30.1377  -35.4276   25.3037 C   0  0  0  0  0  0  0  0  0  0  0  0
  -25.7886  -14.3188   19.3827 C   0  0  0  0  0  0  0  0  0  0  0  0
  -32.8687  -24.2494   20.7561 C   0  0  0  0  0  0  0  0  0  0  0  0
  -26.5689  -16.4294   20.5428 C   0  0  0  0  0  0  0  0  0  0  0  0
  -27.5261  -14.2448   21.2145 C   0  0  0  0  0  0  0  0  0  0  0  0
  -30.4604  -34.4910   24.1332 C   0  0  1  0  0  0  0  0  0  0  0  0
  -27.2150  -32.9540   22.8929 C   0  0  1  0  0  0  0  0  0  0  0  0
  -27.0415  -13.5994   19.9068 C   0  0  1  0  0  0  0  0  0  0  0  0
  -20.4603  -29.4745   24.3999 C   0  0  0  0  0  0  0  0  0  0  0  0
  -26.2080  -31.3462   27.1074 C   0  0  0  0  0  0  0  0  0  0  0  0
  -24.0758  -30.0461   27.2848 C   0  0  0  0  0  0  0  0  0  0  0  0
  -24.0046  -32.5266   27.0302 C   0  0  0  0  0  0  0  0  0  0  0  0
  -22.0067  -30.0445   20.9706 C   0  0  0  0  0  0  0  0  0  0  0  0
  -24.6646  -31.0961   25.0528 C   0  0  1  0  0  0  0  0  0  0  0  0
  -21.4001  -30.1184   23.3925 C   0  0  2  0  0  0  0  0  0  0  0  0
  -24.7563  -31.2490   26.5974 C   0  0  0  0  0  0  0  0  0  0  0  0
  -25.5843  -11.6706   20.3958 N   0  0  0  0  0  0  0  0  0  0  0  0
  -26.8110  -12.1076   20.0638 N   0  0  0  0  0  0  0  0  0  0  0  0
  -31.5524  -23.6752   20.4876 N   0  0  3  0  0  0  0  0  0  0  0  0
  -27.7314  -15.6887   21.0552 N   0  0  0  0  0  0  0  0  0  0  0  0
  -26.3967  -31.8866   23.4720 N   0  0  0  0  0  0  0  0  0  0  0  0
  -29.0083  -11.3734   19.5703 N   0  0  0  0  0  0  0  0  0  0  0  0
  -26.7816   -7.5282   20.3782 N   0  0  0  0  0  0  0  0  0  0  0  0
  -29.2536  -34.1517   23.4100 N   0  0  0  0  0  0  0  0  0  0  0  0
  -23.3008  -31.0289   24.5390 N   0  0  0  0  0  0  0  0  0  0  0  0
  -21.1647  -29.4900   22.0618 N   0  3  0  0  0  0  0  0  0  0  0  0
  -28.8233   -8.4180   19.8318 O   0  0  0  0  0  0  0  0  0  0  0  0
  -29.9143  -15.5964   21.8577 O   0  0  0  0  0  0  0  0  0  0  0  0
  -28.5524  -32.3836   24.7533 O   0  0  0  0  0  0  0  0  0  0  0  0
  -24.9299  -33.3853   24.4911 O   0  0  0  0  0  0  0  0  0  0  0  0
  -23.5181  -28.9619   23.5106 O   0  0  0  0  0  0  0  0  0  0  0  0
  -21.3987   -7.0624   21.7354 O   0  0  0  0  0  0  0  0  0  0  0  0
  -29.4339  -27.3979   20.5259 O   0  0  0  0  0  0  0  0  0  1  0  0
  -22.2490   -2.9899   25.3542 F   0  0  0  0  0  0  0  0  0  0  0  0
  -19.9809   -6.9527   24.1061 F   0  0  0  0  0  0  0  0  0  0  0  0
  1  2  1  0  0  0  0
  1  7  2  0  0  0  0
  2  8  2  0  0  0  0
  3 12  2  0  0  0  0
  3 19  1  0  0  0  0
  4 13  1  0  0  0  0
  4 19  2  0  0  0  0
  5 10  2  0  0  0  0
  5 20  1  0  0  0  0
  6 11  1  0  0  0  0
  6 20  2  0  0  0  0
  7 22  1  0  0  0  0
  8 24  1  0  0  0  0
  9 14  2  0  0  0  0
  9 23  1  0  0  0  0
 10 26  1  0  0  0  0
 11 26  2  0  0  0  0
 12 27  1  0  0  0  0
 13 27  2  0  0  0  0
 14 28  1  0  0  0  0
 15 16  2  0  0  0  0
 15 29  1  0  0  0  0
 16 30  1  0  0  0  0
 17 25  1  0  0  0  0
 17 28  2  0  0  0  0
 18 30  2  0  0  0  0
 18 31  1  0  0  0  0
 19 32  1  0  0  0  0
 20 35  1  0  0  0  0
 21 32  1  0  0  0  0
 21 33  2  0  0  0  0
 21 38  1  0  0  0  0
 22 24  2  0  0  0  0
 22 43  1  0  0  0  0
 23 25  2  0  0  0  0
 23 44  1  0  0  0  0
 24 55  1  0  0  0  0
 25 45  1  0  0  0  0
 26 68  1  0  0  0  0
 27 81  1  0  0  0  0
 28 82  1  0  0  0  0
 29 31  2  0  0  0  0
 29 81  1  0  0  0  0
 30 83  1  0  0  0  0
 31 84  1  0  0  0  0
 32 66  2  0  0  0  0
 33 67  1  0  0  0  0
 33 71  1  0  0  0  0
 34 36  2  0  0  0  0
 34 46  1  0  0  0  0
 34 47  1  0  0  0  0
 35 37  2  0  0  0  0
 36 82  1  0  0  0  0
 37 39  1  0  0  0  0
 38 72  1  0  0  0  0
 38 76  2  0  0  0  0
 39 69  1  0  0  0  0
 39 77  2  0  0  0  0
 40 56  1  0  0  0  0
 40 73  1  0  0  0  0
 40 78  2  0  0  0  0
 41 63  1  0  0  0  0
 41 70  1  0  0  0  0
 41 79  2  0  0  0  0
 42 64  1  0  0  0  0
 42 74  1  0  0  0  0
 42 80  2  0  0  0  0
 43 48  1  0  0  0  0
 44 56  1  0  0  0  0
 45 70  1  0  0  0  0
 46 52  1  0  0  0  0
 47 68  1  0  0  0  0
 48 50  1  0  0  0  0
 49 51  1  0  0  0  0
 49 53  1  0  0  0  0
 50 55  1  0  0  0  0
 51 57  1  0  0  0  0
 52 68  1  0  0  0  0
 53 69  1  0  0  0  0
 54 57  1  0  0  0  0
 54 69  1  0  0  0  0
 55 73  1  0  0  0  0
 56 70  1  0  0  0  0
 57 67  1  0  0  0  0
 58 64  1  0  0  0  0
 59 65  1  0  0  0  0
 60 65  1  0  0  0  0
 61 65  1  0  0  0  0
 62 75  1  0  0  0  0
 63 65  1  0  0  0  0
 63 74  1  0  0  0  0
 64 75  1  0  0  0  0
 66 67  1  0  0  0  0
M  CHG  1  75   1
M  ISO  4  36 101  37 100  39 100  82 101
M  END
> <Batch ID>
0130

> <Smiles>
CNC(C)C(=O)NC(C(=O)N1Cc2cc([101O:1][101CH:1]=C3CCN(c4ccc(C=[100CH:0][100C:0](=O)N5CCCC(n6nc(-c7ccc(Oc8ccc(F)cc8F)cc7)c(C(N)=O)c6N)C5)cc4)C3)ccc2CC1C(=O)NC1CCCc2ccccc21)C(C)(C)C

> <Shape>
0.280

> <Color>
0.107

> <Negative vol penalty>
0.000

$$$$

  -OEChem-04052302223D

 84 92  0     1  0  0  0  0  0999 V2000
  -30.8153  -26.2857   17.2795 C   0  0  0  0  0  0  0  0  0  0  0  0
  -29.4370  -26.1399   17.3994 C   0  0  0  0  0  0  0  0  0  0  0  0
  -28.8185  -16.9484   18.7773 C   0  0  0  0  0  0  0  0  0  0  0  0
  -26.6025  -17.6116   18.0797 C   0  0  0  0  0  0  0  0  0  0  0  0
  -31.5524  -26.8250   18.3330 C   0  0  0  0  0  0  0  0  0  0  0  0
  -28.7951  -26.5323   18.5734 C   0  0  0  0  0  0  0  0  0  0  0  0
  -23.1984  -28.9684   19.0716 C   0  0  0  0  0  0  0  0  0  0  0  0
  -21.6808  -24.0323   24.5685 C   0  0  0  0  0  0  0  0  0  0  0  0
  -23.0282  -23.8133   24.2822 C   0  0  0  0  0  0  0  0  0  0  0  0
  -28.5169  -15.6209   18.4734 C   0  0  0  0  0  0  0  0  0  0  0  0
  -26.3009  -16.2841   17.7758 C   0  0  0  0  0  0  0  0  0  0  0  0
  -21.9601  -28.4154   19.3953 C   0  0  0  0  0  0  0  0  0  0  0  0
  -28.4525  -12.1077   17.5415 C   0  0  0  0  0  0  0  0  0  0  0  0
  -29.4060  -11.3704   16.8396 C   0  0  0  0  0  0  0  0  0  0  0  0
  -22.2626  -29.0964   21.6896 C   0  0  0  0  0  0  0  0  0  0  0  0
  -21.1317  -23.6989   22.2394 C   0  0  0  0  0  0  0  0  0  0  0  0
  -29.2738  -12.9418   15.0093 C   0  0  0  0  0  0  0  0  0  0  0  0
  -27.8612  -17.9438   18.5805 C   0  0  0  0  0  0  0  0  0  0  0  0
  -28.7311  -20.2789   18.0342 C   0  0  0  0  0  0  0  0  0  0  0  0
  -30.9179  -27.2331   19.5168 C   0  0  0  0  0  0  0  0  0  0  0  0
  -23.9842  -29.5809   20.0584 C   0  0  0  0  0  0  0  0  0  0  0  0
  -29.5245  -27.0762   19.6443 C   0  0  0  0  0  0  0  0  0  0  0  0
  -23.5093  -29.6586   21.3754 C   0  0  0  0  0  0  0  0  0  0  0  0
  -20.7325  -23.9751   23.5471 C   0  0  0  0  0  0  0  0  0  0  0  0
  -22.4792  -23.4799   21.9531 C   0  0  0  0  0  0  0  0  0  0  0  0
  -23.4275  -23.5371   22.9745 C   0  0  0  0  0  0  0  0  0  0  0  0
  -27.2581  -15.2887   17.9726 C   0  0  0  0  0  0  0  0  0  0  0  0
  -21.4933  -28.4768   20.7050 C   0  0  0  0  0  0  0  0  0  0  0  0
  -27.9096  -13.2621   16.9773 C   0  0  0  0  0  0  0  0  0  0  0  0
  -29.8167  -11.7874   15.5735 C   0  0  0  0  0  0  0  0  0  0  0  0
  -28.3203  -13.6791   15.7112 C   0  0  0  0  0  0  0  0  0  0  0  0
  -28.1720  -19.3152   18.8947 C   0  0  0  0  0  0  0  0  0  0  0  0
  -28.8270  -21.4123   18.8040 C   0  0  0  0  0  0  0  0  0  0  0  0
  -29.1281  -20.1601   16.6616 C   0  0  0  0  0  0  0  0  0  0  0  0
  -26.8604  -29.0329   21.2956 C   0  0  0  0  0  0  0  0  0  0  0  0
  -19.1249  -26.2970   22.3776 C   0  0  0  0  0  0  0  0  0  0  0  0
  -26.2965  -31.8258   22.8461 C   0  0  0  0  0  0  0  0  0  0  0  0
  -24.0172  -34.0689   24.0380 C   0  0  0  0  0  0  0  0  0  0  0  0
  -25.8559  -23.3424   23.6157 C   0  0  0  0  0  0  0  0  0  0  0  0
  -31.7628  -27.7667   20.6465 C   0  0  0  0  0  0  0  0  0  0  0  0
  -25.3057  -30.1962   19.6876 C   0  0  0  0  0  0  0  0  0  0  0  0
  -24.3054  -30.3232   22.4676 C   0  0  0  0  0  0  0  0  0  0  0  0
  -30.9578  -28.5047   21.7131 C   0  0  0  0  0  0  0  0  0  0  0  0
  -29.3673  -22.8164   23.3505 C   0  0  0  0  0  0  0  0  0  0  0  0
  -29.7186  -27.7023   22.0971 C   0  0  0  0  0  0  0  0  0  0  0  0
  -29.5107  -21.9516   22.0960 C   0  0  0  0  0  0  0  0  0  0  0  0
  -28.1154  -22.4556   24.1481 C   0  0  0  0  0  0  0  0  0  0  0  0
  -27.0090  -21.5941   22.1225 C   0  0  0  0  0  0  0  0  0  0  0  0
  -28.7888  -27.5131   20.8924 C   0  0  1  0  0  0  0  0  0  0  0  0
  -26.2517  -30.3409   20.8757 C   0  0  1  0  0  0  0  0  0  0  0  0
  -28.2210  -21.9647   21.2522 C   0  0  2  0  0  0  0  0  0  0  0  0
  -23.5069  -24.3993   19.8591 C   0  0  0  0  0  0  0  0  0  0  0  0
  -23.8566  -36.2355   25.2939 C   0  0  0  0  0  0  0  0  0  0  0  0
  -26.9074  -30.3585   25.4506 C   0  0  0  0  0  0  0  0  0  0  0  0
  -25.8291  -32.2494   26.6875 C   0  0  0  0  0  0  0  0  0  0  0  0
  -27.8627  -32.6651   25.3039 C   0  0  0  0  0  0  0  0  0  0  0  0
  -22.6916  -35.4225   21.7643 C   0  0  0  0  0  0  0  0  0  0  0  0
  -19.2742  -24.2147   23.8568 C   0  0  0  0  0  0  0  0  0  0  0  0
  -22.8787  -23.1891   20.5427 C   0  0  0  0  0  0  0  0  0  0  0  0
  -18.8616  -25.6836   23.7452 C   0  0  0  0  0  0  0  0  0  0  0  0
  -20.1288  -27.4329   22.3495 C   0  0  0  0  0  0  0  0  0  1  0  0
  -25.6556  -32.2099   24.1579 C   0  0  1  0  0  0  0  0  0  0  0  0
  -23.9369  -35.5805   23.9237 C   0  0  2  0  0  0  0  0  0  0  0  0
  -26.5493  -31.8565   25.3800 C   0  0  0  0  0  0  0  0  0  0  0  0
  -27.9299  -19.7945   20.1177 N   0  0  0  0  0  0  0  0  0  0  0  0
  -28.3389  -21.0718   20.0312 N   0  0  0  0  0  0  0  0  0  0  0  0
  -25.5941  -30.9044   22.0564 N   0  0  0  0  0  0  0  0  0  0  0  0
  -26.9328  -22.4929   23.2849 N   0  0  0  0  0  0  0  0  0  0  0  0
  -29.2805  -22.6570   18.5442 N   0  0  0  0  0  0  0  0  0  0  0  0
  -28.9604  -18.9243   16.0221 N   0  0  0  0  0  0  0  0  0  0  0  0
  -24.8009  -23.3176   22.7041 N   0  0  0  0  0  0  0  0  0  0  0  0
  -28.0366  -28.7234   20.6396 N   0  0  0  0  0  0  0  0  0  0  0  0
  -25.3231  -33.6263   24.0505 N   0  0  0  0  0  0  0  0  0  0  0  0
  -22.7320  -35.9776   23.1417 N   0  3  0  0  0  0  0  0  0  0  0  0
  -29.6322  -21.1169   16.0260 O   0  0  0  0  0  0  0  0  0  0  0  0
  -26.3050  -28.3555   22.1525 O   0  0  0  0  0  0  0  0  0  0  0  0
  -18.5902  -25.8818   21.3508 O   0  0  0  0  0  0  0  0  0  0  0  0
  -27.3769  -32.3304   22.5303 O   0  0  0  0  0  0  0  0  0  0  0  0
  -23.0213  -33.3526   24.1126 O   0  0  0  0  0  0  0  0  0  0  0  0
  -25.8803  -24.0607   24.6184 O   0  0  0  0  0  0  0  0  0  0  0  0
  -26.9636  -13.9935   17.6757 O   0  0  0  0  0  0  0  0  0  0  0  0
  -20.2853  -27.9374   21.0238 O   0  0  0  0  0  0  0  0  0  1  0  0
  -30.7336  -11.0801   14.9002 F   0  0  0  0  0  0  0  0  0  0  0  0
  -27.8031  -14.7880   15.1645 F   0  0  0  0  0  0  0  0  0  0  0  0
  1  2  1  0  0  0  0
  1  5  2  0  0  0  0
  2  6  2  0  0  0  0
  3 10  2  0  0  0  0
  3 18  1  0  0  0  0
  4 11  1  0  0  0  0
  4 18  2  0  0  0  0
  5 20  1  0  0  0  0
  6 22  1  0  0  0  0
  7 12  2  0  0  0  0
  7 21  1  0  0  0  0
  8  9  2  0  0  0  0
  8 24  1  0  0  0  0
  9 26  1  0  0  0  0
 10 27  1  0  0  0  0
 11 27  2  0  0  0  0
 12 28  1  0  0  0  0
 13 14  2  0  0  0  0
 13 29  1  0  0  0  0
 14 30  1  0  0  0  0
 15 23  1  0  0  0  0
 15 28  2  0  0  0  0
 16 24  2  0  0  0  0
 16 25  1  0  0  0  0
 17 30  2  0  0  0  0
 17 31  1  0  0  0  0
 18 32  1  0  0  0  0
 19 32  1  0  0  0  0
 19 33  2  0  0  0  0
 19 34  1  0  0  0  0
 20 22  2  0  0  0  0
 20 40  1  0  0  0  0
 21 23  2  0  0  0  0
 21 41  1  0  0  0  0
 22 49  1  0  0  0  0
 23 42  1  0  0  0  0
 24 58  1  0  0  0  0
 25 26  2  0  0  0  0
 25 59  1  0  0  0  0
 26 71  1  0  0  0  0
 27 81  1  0  0  0  0
 28 82  1  0  0  0  0
 29 31  2  0  0  0  0
 29 81  1  0  0  0  0
 30 83  1  0  0  0  0
 31 84  1  0  0  0  0
 32 65  2  0  0  0  0
 33 66  1  0  0  0  0
 33 69  1  0  0  0  0
 34 70  1  0  0  0  0
 34 75  2  0  0  0  0
 35 50  1  0  0  0  0
 35 72  1  0  0  0  0
 35 76  2  0  0  0  0
 36 60  1  0  0  0  0
 36 61  1  0  0  0  0
 36 77  2  0  0  0  0
 37 62  1  0  0  0  0
 37 67  1  0  0  0  0
 37 78  2  0  0  0  0
 38 63  1  0  0  0  0
 38 73  1  0  0  0  0
 38 79  2  0  0  0  0
 39 68  1  0  0  0  0
 39 71  1  0  0  0  0
 39 80  2  0  0  0  0
 40 43  1  0  0  0  0
 41 50  1  0  0  0  0
 42 67  1  0  0  0  0
 43 45  1  0  0  0  0
 44 46  1  0  0  0  0
 44 47  1  0  0  0  0
 45 49  1  0  0  0  0
 46 51  1  0  0  0  0
 47 68  1  0  0  0  0
 48 51  1  0  0  0  0
 48 68  1  0  0  0  0
 49 72  1  0  0  0  0
 50 67  1  0  0  0  0
 51 66  1  0  0  0  0
 52 59  1  0  0  0  0
 53 63  1  0  0  0  0
 54 64  1  0  0  0  0
 55 64  1  0  0  0  0
 56 64  1  0  0  0  0
 57 74  1  0  0  0  0
 58 60  1  0  0  0  0
 61 82  1  0  0  0  0
 62 64  1  0  0  0  0
 62 73  1  0  0  0  0
 63 74  1  0  0  0  0
 65 66  1  0  0  0  0
M  CHG  1  74   1
M  ISO  4  39 100  61 101  71 100  82 101
M  END
> <Batch ID>
0130

> <Smiles>
CCc1cc(CCC(=O)[101CH2:1][101O:1]c2ccc3c(c2)CN(C(=O)C(NC(=O)C(C)NC)C(C)(C)C)C(C(=O)NC2CCCc4ccccc42)C3)ccc1[100NH:0][100C:0](=O)N1CCCC(n2nc(-c3ccc(Oc4ccc(F)cc4F)cc3)c(C(N)=O)c2N)C1

> <Shape>
0.264

> <Color>
0.069

> <Negative vol penalty>
0.000

$$$$

  -OEChem-04052302223D

 82 90  0     1  0  0  0  0  0999 V2000
  -28.2799  -20.6079   16.1817 C   0  0  0  0  0  0  0  0  0  0  0  0
  -28.4736  -19.2929   16.5892 C   0  0  0  0  0  0  0  0  0  0  0  0
  -24.2677  -28.2977   22.0140 C   0  0  0  0  0  0  0  0  0  0  0  0
  -25.8491  -28.6856   23.7989 C   0  0  0  0  0  0  0  0  0  0  0  0
  -27.3016  -21.3870   16.7957 C   0  0  0  0  0  0  0  0  0  0  0  0
  -27.6810  -18.7528   17.6026 C   0  0  0  0  0  0  0  0  0  0  0  0
  -28.1865  -13.9444   18.5124 C   0  0  0  0  0  0  0  0  0  0  0  0
  -23.6346  -29.5041   22.3127 C   0  0  0  0  0  0  0  0  0  0  0  0
  -25.2160  -29.8921   24.0975 C   0  0  0  0  0  0  0  0  0  0  0  0
  -29.3128  -13.4097   19.1362 C   0  0  0  0  0  0  0  0  0  0  0  0
  -25.1500  -33.0395   22.8686 C   0  0  0  0  0  0  0  0  0  0  0  0
  -25.9570  -34.1548   23.0933 C   0  0  0  0  0  0  0  0  0  0  0  0
  -30.6131  -18.3088   20.8768 C   0  0  0  0  0  0  0  0  0  0  0  0
  -30.2446  -19.4504   21.6279 C   0  0  0  0  0  0  0  0  0  0  0  0
  -28.0644  -13.1901   21.1886 C   0  0  0  0  0  0  0  0  0  0  0  0
  -25.0468  -34.3645   25.3215 C   0  0  0  0  0  0  0  0  0  0  0  0
  -25.3749  -27.8884   22.7571 C   0  0  0  0  0  0  0  0  0  0  0  0
  -27.0934  -26.4397   21.5506 C   0  0  0  0  0  0  0  0  0  0  0  0
  -26.5055  -20.8593   17.8257 C   0  0  0  0  0  0  0  0  0  0  0  0
  -26.9918  -14.1164   19.2261 C   0  0  0  0  0  0  0  0  0  0  0  0
  -26.6723  -19.5156   18.2183 C   0  0  0  0  0  0  0  0  0  0  0  0
  -26.9236  -13.7249   20.5708 C   0  0  0  0  0  0  0  0  0  0  0  0
  -24.1088  -30.3014   23.3544 C   0  0  0  0  0  0  0  0  0  0  0  0
  -29.2528  -13.0351   20.4753 C   0  0  0  0  0  0  0  0  0  0  0  0
  -24.2913  -32.5867   23.8703 C   0  0  0  0  0  0  0  0  0  0  0  0
  -25.9054  -34.8173   24.3197 C   0  0  0  0  0  0  0  0  0  0  0  0
  -24.2398  -33.2492   25.0968 C   0  0  0  0  0  0  0  0  0  0  0  0
  -26.0290  -26.6419   22.4495 C   0  0  0  0  0  0  0  0  0  0  0  0
  -31.1522  -17.4179   21.7755 C   0  0  0  0  0  0  0  0  0  0  0  0
  -30.5845  -19.1756   22.9321 C   0  0  0  0  0  0  0  0  0  0  0  0
  -27.3487  -25.0918   21.6185 C   0  0  0  0  0  0  0  0  0  0  0  0
  -31.6865  -16.0757   21.4907 C   0  0  0  0  0  0  0  0  0  0  0  0
  -32.1817  -15.2288   22.4068 C   0  0  0  0  0  0  0  0  0  0  0  0
  -27.7892  -27.3856   20.7279 C   0  0  0  0  0  0  0  0  0  0  0  0
  -25.1969  -16.6146   20.0267 C   0  0  0  0  0  0  0  0  0  0  0  0
  -23.1883  -14.3219   21.1364 C   0  0  0  0  0  0  0  0  0  0  0  0
  -22.7838  -11.1357   22.2902 C   0  0  0  0  0  0  0  0  0  0  0  0
  -28.0634  -20.4171   24.5819 C   0  0  0  0  0  0  0  0  0  0  0  0
  -25.4560  -21.7444   18.4504 C   0  0  0  0  0  0  0  0  0  0  0  0
  -25.7779  -14.6698   18.5314 C   0  0  0  0  0  0  0  0  0  0  0  0
  -25.6589  -13.8700   21.3758 C   0  0  0  0  0  0  0  0  0  0  0  0
  -24.9743  -21.2313   19.8036 C   0  0  0  0  0  0  0  0  0  0  0  0
  -24.7218  -21.3482   23.7799 C   0  0  0  0  0  0  0  0  0  0  0  0
  -24.6121  -19.7572   19.7015 C   0  0  0  0  0  0  0  0  0  0  0  0
  -24.8512  -22.7930   23.2943 C   0  0  0  0  0  0  0  0  0  0  0  0
  -25.6917  -21.0471   24.9203 C   0  0  0  0  0  0  0  0  0  0  0  0
  -27.2326  -22.8082   24.1471 C   0  0  0  0  0  0  0  0  0  0  0  0
  -25.8428  -18.9162   19.3395 C   0  0  1  0  0  0  0  0  0  0  0  0
  -24.7633  -15.2779   19.4948 C   0  0  1  0  0  0  0  0  0  0  0  0
  -26.3136  -23.1434   22.9599 C   0  0  2  0  0  0  0  0  0  0  0  0
  -21.0313   -9.5614   23.1549 C   0  0  0  0  0  0  0  0  0  0  0  0
  -23.1977  -15.7858   23.8135 C   0  0  0  0  0  0  0  0  0  0  0  0
  -22.2477  -13.7224   24.8661 C   0  0  0  0  0  0  0  0  0  0  0  0
  -20.9593  -14.9268   23.1021 C   0  0  0  0  0  0  0  0  0  0  0  0
  -23.2422   -9.2253   20.0768 C   0  0  0  0  0  0  0  0  0  0  0  0
  -30.4654  -19.9362   24.1839 C   0  0  0  0  0  0  0  0  0  0  0  0
  -32.7129  -13.8644   22.0693 C   0  0  0  0  0  0  0  0  0  0  0  0
  -31.9694  -12.7746   22.8394 C   0  0  0  0  0  0  0  0  0  0  0  0
  -30.4884  -12.7505   22.4873 C   0  0  0  0  0  0  0  0  0  1  0  0
  -23.0110  -13.6008   22.4508 C   0  0  1  0  0  0  0  0  0  0  0  0
  -21.7837  -10.0526   21.9280 C   0  0  2  0  0  0  0  0  0  0  0  0
  -22.3785  -14.5079   23.5438 C   0  0  0  0  0  0  0  0  0  0  0  0
  -25.6350  -25.5129   23.0446 N   0  0  0  0  0  0  0  0  0  0  0  0
  -26.4562  -24.5882   22.5185 N   0  0  0  0  0  0  0  0  0  0  0  0
  -24.5008  -14.4220   20.6536 N   0  0  0  0  0  0  0  0  0  0  0  0
  -27.0611  -21.4002   24.5382 N   0  0  0  0  0  0  0  0  0  0  0  0
  -28.2472  -24.3001   20.9954 N   0  0  0  0  0  0  0  0  0  0  0  0
  -27.3991  -28.7307   20.7802 N   0  0  0  0  0  0  0  0  0  0  0  0
  -25.4212  -17.5638   19.0479 N   0  0  0  0  0  0  0  0  0  0  0  0
  -22.2423  -12.3966   22.1553 N   0  0  0  0  0  0  0  0  0  0  0  0
  -29.3320  -20.8340   24.1977 N   0  0  0  0  0  0  0  0  0  0  0  0
  -22.4806   -8.8906   21.3075 N   0  3  0  0  0  0  0  0  0  0  0  0
  -28.7181  -27.0453   19.9567 O   0  0  0  0  0  0  0  0  0  0  0  0
  -25.3175  -16.7736   21.2358 O   0  0  0  0  0  0  0  0  0  0  0  0
  -22.1979  -14.7733   20.5559 O   0  0  0  0  0  0  0  0  0  0  0  0
  -23.9294  -10.8878   22.6597 O   0  0  0  0  0  0  0  0  0  0  0  0
  -27.8429  -19.2527   24.9318 O   0  0  0  0  0  0  0  0  0  0  0  0
  -31.1383  -17.9386   23.0306 O   0  0  0  0  0  0  0  0  0  0  0  0
  -23.4914  -31.4788   23.6460 O   0  0  0  0  0  0  0  0  0  0  0  0
  -30.3509  -12.5136   21.0868 O   0  0  0  0  0  0  0  0  0  1  0  0
  -26.6815  -35.8874   24.5359 F   0  0  0  0  0  0  0  0  0  0  0  0
  -23.4177  -32.8182   26.0633 F   0  0  0  0  0  0  0  0  0  0  0  0
  1  2  1  0  0  0  0
  1  5  2  0  0  0  0
  2  6  2  0  0  0  0
  3  8  2  0  0  0  0
  3 17  1  0  0  0  0
  4  9  1  0  0  0  0
  4 17  2  0  0  0  0
  5 19  1  0  0  0  0
  6 21  1  0  0  0  0
  7 10  2  0  0  0  0
  7 20  1  0  0  0  0
  8 23  1  0  0  0  0
  9 23  2  0  0  0  0
 10 24  1  0  0  0  0
 11 12  2  0  0  0  0
 11 25  1  0  0  0  0
 12 26  1  0  0  0  0
 13 14  1  0  0  0  0
 13 29  2  0  0  0  0
 14 30  2  0  0  0  0
 15 22  1  0  0  0  0
 15 24  2  0  0  0  0
 16 26  2  0  0  0  0
 16 27  1  0  0  0  0
 17 28  1  0  0  0  0
 18 28  1  0  0  0  0
 18 31  2  0  0  0  0
 18 34  1  0  0  0  0
 19 21  2  0  0  0  0
 19 39  1  0  0  0  0
 20 22  2  0  0  0  0
 20 40  1  0  0  0  0
 21 48  1  0  0  0  0
 22 41  1  0  0  0  0
 23 79  1  0  0  0  0
 24 80  1  0  0  0  0
 25 27  2  0  0  0  0
 25 79  1  0  0  0  0
 26 81  1  0  0  0  0
 27 82  1  0  0  0  0
 28 63  2  0  0  0  0
 29 32  1  0  0  0  0
 29 78  1  0  0  0  0
 30 56  1  0  0  0  0
 30 78  1  0  0  0  0
 31 64  1  0  0  0  0
 31 67  1  0  0  0  0
 32 33  2  0  0  0  0
 33 57  1  0  0  0  0
 34 68  1  0  0  0  0
 34 73  2  0  0  0  0
 35 49  1  0  0  0  0
 35 69  1  0  0  0  0
 35 74  2  0  0  0  0
 36 60  1  0  0  0  0
 36 65  1  0  0  0  0
 36 75  2  0  0  0  0
 37 61  1  0  0  0  0
 37 70  1  0  0  0  0
 37 76  2  0  0  0  0
 38 66  1  0  0  0  0
 38 71  1  0  0  0  0
 38 77  2  0  0  0  0
 39 42  1  0  0  0  0
 40 49  1  0  0  0  0
 41 65  1  0  0  0  0
 42 44  1  0  0  0  0
 43 45  1  0  0  0  0
 43 46  1  0  0  0  0
 44 48  1  0  0  0  0
 45 50  1  0  0  0  0
 46 66  1  0  0  0  0
 47 50  1  0  0  0  0
 47 66  1  0  0  0  0
 48 69  1  0  0  0  0
 49 65  1  0  0  0  0
 50 64  1  0  0  0  0
 51 61  1  0  0  0  0
 52 62  1  0  0  0  0
 53 62  1  0  0  0  0
 54 62  1  0  0  0  0
 55 72  1  0  0  0  0
 56 71  1  0  0  0  0
 57 58  1  0  0  0  0
 58 59  1  0  0  0  0
 59 80  1  0  0  0  0
 60 62  1  0  0  0  0
 60 70  1  0  0  0  0
 61 72  1  0  0  0  0
 63 64  1  0  0  0  0
M  CHG  1  72   1
M  ISO  4  38 100  59 101  71 100  80 101
M  END
> <Batch ID>
0130

> <Smiles>
CNC(C)C(=O)NC(C(=O)N1Cc2cc([101O:1][101CH2:1]CCC=Cc3ccc(C[100NH:0][100C:0](=O)N4CCCC(n5nc(-c6ccc(Oc7ccc(F)cc7F)cc6)c(C(N)=O)c5N)C4)o3)ccc2CC1C(=O)NC1CCCc2ccccc21)C(C)(C)C

> <Shape>
0.206

> <Color>
0.067

> <Negative vol penalty>
0.000

$$$$

  -OEChem-04052302223D

 86 94  0     1  0  0  0  0  0999 V2000
  -29.4975  -36.0020   18.4132 C   0  0  0  0  0  0  0  0  0  0  0  0
  -29.4219  -34.6288   18.2037 C   0  0  0  0  0  0  0  0  0  0  0  0
  -24.6788   -9.2565   21.8578 C   0  0  0  0  0  0  0  0  0  0  0  0
  -23.2415   -9.8399   20.0055 C   0  0  0  0  0  0  0  0  0  0  0  0
  -29.2078  -36.5313   19.6701 C   0  0  0  0  0  0  0  0  0  0  0  0
  -29.0577  -33.7838   19.2515 C   0  0  0  0  0  0  0  0  0  0  0  0
  -25.7853  -28.6227   18.8515 C   0  0  0  0  0  0  0  0  0  0  0  0
  -23.6279   -8.5592   22.4536 C   0  0  0  0  0  0  0  0  0  0  0  0
  -22.1906   -9.1425   20.6013 C   0  0  0  0  0  0  0  0  0  0  0  0
  -26.1543  -27.2789   18.8104 C   0  0  0  0  0  0  0  0  0  0  0  0
  -22.1128   -5.5572   22.0995 C   0  0  0  0  0  0  0  0  0  0  0  0
  -22.3882   -4.2950   22.6254 C   0  0  0  0  0  0  0  0  0  0  0  0
  -31.7170  -19.5982   19.5770 C   0  0  0  0  0  0  0  0  0  0  0  0
  -33.5445  -21.1159   20.0172 C   0  0  0  0  0  0  0  0  0  0  0  0
  -25.7881  -27.1118   21.1888 C   0  0  0  0  0  0  0  0  0  0  0  0
  -21.7016   -5.0568   24.8130 C   0  0  0  0  0  0  0  0  0  0  0  0
  -24.4855   -9.8969   20.6337 C   0  0  0  0  0  0  0  0  0  0  0  0
  -32.2465  -20.8885   19.5598 C   0  0  0  0  0  0  0  0  0  0  0  0
  -32.4854  -18.5353   20.0518 C   0  0  0  0  0  0  0  0  0  0  0  0
  -26.5254  -10.1101   19.1168 C   0  0  0  0  0  0  0  0  0  0  0  0
  -28.8305  -35.6933   20.7313 C   0  0  0  0  0  0  0  0  0  0  0  0
  -25.4248  -29.2250   20.0654 C   0  0  0  0  0  0  0  0  0  0  0  0
  -28.7640  -34.3023   20.5242 C   0  0  0  0  0  0  0  0  0  0  0  0
  -25.4124  -28.4628   21.2423 C   0  0  0  0  0  0  0  0  0  0  0  0
  -34.3129  -20.0530   20.4920 C   0  0  0  0  0  0  0  0  0  0  0  0
  -33.7834  -18.7627   20.5093 C   0  0  0  0  0  0  0  0  0  0  0  0
  -22.3839   -8.5022   21.8254 C   0  0  0  0  0  0  0  0  0  0  0  0
  -26.1586  -26.5240   19.9796 C   0  0  0  0  0  0  0  0  0  0  0  0
  -21.6319   -6.5693   22.9303 C   0  0  0  0  0  0  0  0  0  0  0  0
  -22.1825   -4.0448   23.9822 C   0  0  0  0  0  0  0  0  0  0  0  0
  -21.4263   -6.3190   24.2870 C   0  0  0  0  0  0  0  0  0  0  0  0
  -25.5705  -10.6179   20.0180 C   0  0  0  0  0  0  0  0  0  0  0  0
  -27.3312  -11.1845   18.8289 C   0  0  0  0  0  0  0  0  0  0  0  0
  -31.4362  -22.0113   19.0589 C   0  0  0  0  0  0  0  0  0  0  0  0
  -31.9022  -17.1998   20.0560 C   0  0  0  0  0  0  0  0  0  0  0  0
  -30.7770  -16.8417   20.7073 C   0  0  0  0  0  0  0  0  0  0  0  0
  -30.0981  -22.0142   18.9535 C   0  0  0  0  0  0  0  0  0  0  0  0
  -26.6711   -8.7857   18.5873 C   0  0  0  0  0  0  0  0  0  0  0  0
  -30.3062  -15.4457   20.6058 C   0  0  0  0  0  0  0  0  0  0  0  0
  -26.5796  -31.6155   21.8135 C   0  0  0  0  0  0  0  0  0  0  0  0
  -23.9176  -31.0861   23.5900 C   0  0  0  0  0  0  0  0  0  0  0  0
  -21.4672  -28.9191   24.5626 C   0  0  0  0  0  0  0  0  0  0  0  0
  -28.5728  -36.3071   22.0846 C   0  0  0  0  0  0  0  0  0  0  0  0
  -25.0034  -30.6688   20.0886 C   0  0  0  0  0  0  0  0  0  0  0  0
  -25.0141  -29.0568   22.5678 C   0  0  0  0  0  0  0  0  0  0  0  0
  -27.8309  -35.3790   23.0430 C   0  0  0  0  0  0  0  0  0  0  0  0
  -26.7811  -16.0941   19.8407 C   0  0  0  0  0  0  0  0  0  0  0  0
  -28.4508  -33.9854   23.0236 C   0  0  0  0  0  0  0  0  0  0  0  0
  -26.2248  -14.6736   19.7932 C   0  0  0  0  0  0  0  0  0  0  0  0
  -27.8947  -16.2377   20.8770 C   0  0  0  0  0  0  0  0  0  0  0  0
  -28.4446  -13.8317   20.6557 C   0  0  0  0  0  0  0  0  0  0  0  0
  -28.3486  -33.3555   21.6293 C   0  0  1  0  0  0  0  0  0  0  0  0
  -25.1501  -31.3120   21.4641 C   0  0  1  0  0  0  0  0  0  0  0  0
  -27.3552  -13.6530   19.5868 C   0  0  1  0  0  0  0  0  0  0  0  0
  -34.6180  -17.6299   21.0216 C   0  0  0  0  0  0  0  0  0  0  0  0
  -35.7878  -20.3369   22.4996 C   0  0  0  0  0  0  0  0  0  0  0  0
  -19.4544  -28.7617   26.0531 C   0  0  0  0  0  0  0  0  0  0  0  0
  -25.7419  -30.8445   26.0239 C   0  0  0  0  0  0  0  0  0  0  0  0
  -23.8430  -29.7719   27.2536 C   0  0  0  0  0  0  0  0  0  0  0  0
  -23.6264  -32.1158   26.4279 C   0  0  0  0  0  0  0  0  0  0  0  0
  -19.6704  -28.3788   22.2738 C   0  0  0  0  0  0  0  0  0  0  0  0
  -35.6998  -20.3249   20.9767 C   0  0  0  0  0  0  0  0  0  0  0  0
  -29.3121  -23.1873   18.4399 C   0  0  0  0  0  0  0  0  0  0  0  0
  -28.2901  -23.6631   19.4706 C   0  0  0  0  0  0  0  0  0  0  0  0
  -27.4609  -24.8256   18.9425 C   0  0  0  0  0  0  0  0  0  1  0  0
  -23.5768  -30.2079   24.7697 C   0  0  1  0  0  0  0  0  0  0  0  0
  -19.9602  -29.0779   24.6541 C   0  0  2  0  0  0  0  0  0  0  0  0
  -24.2064  -30.7240   26.0943 C   0  0  0  0  0  0  0  0  0  0  0  0
  -25.7516  -11.9140   20.2850 N   0  0  0  0  0  0  0  0  0  0  0  0
  -26.8296  -12.2297   19.5473 N   0  0  0  0  0  0  0  0  0  0  0  0
  -28.9347  -15.2140   20.6949 N   0  0  0  0  0  0  0  0  0  0  0  0
  -24.6163  -30.4740   22.5398 N   0  0  0  0  0  0  0  0  0  0  0  0
  -28.4127  -11.3277   18.0338 N   0  0  0  0  0  0  0  0  0  0  0  0
  -25.7569   -7.8018   18.9878 N   0  0  0  0  0  0  0  0  0  0  0  0
  -27.0089  -32.8605   21.3952 N   0  0  0  0  0  0  0  0  0  0  0  0
  -22.1215  -30.1097   24.7984 N   0  0  0  0  0  0  0  0  0  0  0  0
  -19.2836  -28.1630   23.6918 N   0  3  0  0  0  0  0  0  0  0  0  0
  -27.5947   -8.4798   17.7955 O   0  0  0  0  0  0  0  0  0  0  0  0
  -31.1577  -14.5681   20.4529 O   0  0  0  0  0  0  0  0  0  0  0  0
  -27.2435  -30.7823   22.4191 O   0  0  0  0  0  0  0  0  0  0  0  0
  -23.5704  -32.2697   23.5969 O   0  0  0  0  0  0  0  0  0  0  0  0
  -22.0098  -27.8454   24.3110 O   0  0  0  0  0  0  0  0  0  0  0  0
  -21.3583   -7.8216   22.4064 O   0  0  0  0  0  0  0  0  0  0  0  0
  -26.5190  -25.2122   19.9424 O   0  0  0  0  0  0  0  0  0  1  0  0
  -22.4455   -2.8322   24.4868 F   0  0  0  0  0  0  0  0  0  0  0  0
  -20.9633   -7.2870   25.0899 F   0  0  0  0  0  0  0  0  0  0  0  0
  1  2  1  0  0  0  0
  1  5  2  0  0  0  0
  2  6  2  0  0  0  0
  3  8  2  0  0  0  0
  3 17  1  0  0  0  0
  4  9  1  0  0  0  0
  4 17  2  0  0  0  0
  5 21  1  0  0  0  0
  6 23  1  0  0  0  0
  7 10  2  0  0  0  0
  7 22  1  0  0  0  0
  8 27  1  0  0  0  0
  9 27  2  0  0  0  0
 10 28  1  0  0  0  0
 11 12  2  0  0  0  0
 11 29  1  0  0  0  0
 12 30  1  0  0  0  0
 13 18  1  0  0  0  0
 13 19  2  0  0  0  0
 14 18  2  0  0  0  0
 14 25  1  0  0  0  0
 15 24  1  0  0  0  0
 15 28  2  0  0  0  0
 16 30  2  0  0  0  0
 16 31  1  0  0  0  0
 17 32  1  0  0  0  0
 18 34  1  0  0  0  0
 19 26  1  0  0  0  0
 19 35  1  0  0  0  0
 20 32  1  0  0  0  0
 20 33  2  0  0  0  0
 20 38  1  0  0  0  0
 21 23  2  0  0  0  0
 21 43  1  0  0  0  0
 22 24  2  0  0  0  0
 22 44  1  0  0  0  0
 23 52  1  0  0  0  0
 24 45  1  0  0  0  0
 25 26  2  0  0  0  0
 25 62  1  0  0  0  0
 26 55  1  0  0  0  0
 27 83  1  0  0  0  0
 28 84  1  0  0  0  0
 29 31  2  0  0  0  0
 29 83  1  0  0  0  0
 30 85  1  0  0  0  0
 31 86  1  0  0  0  0
 32 69  2  0  0  0  0
 33 70  1  0  0  0  0
 33 73  1  0  0  0  0
 34 37  2  0  0  0  0
 35 36  2  0  0  0  0
 36 39  1  0  0  0  0
 37 63  1  0  0  0  0
 38 74  1  0  0  0  0
 38 78  2  0  0  0  0
 39 71  1  0  0  0  0
 39 79  2  0  0  0  0
 40 53  1  0  0  0  0
 40 75  1  0  0  0  0
 40 80  2  0  0  0  0
 41 66  1  0  0  0  0
 41 72  1  0  0  0  0
 41 81  2  0  0  0  0
 42 67  1  0  0  0  0
 42 76  1  0  0  0  0
 42 82  2  0  0  0  0
 43 46  1  0  0  0  0
 44 53  1  0  0  0  0
 45 72  1  0  0  0  0
 46 48  1  0  0  0  0
 47 49  1  0  0  0  0
 47 50  1  0  0  0  0
 48 52  1  0  0  0  0
 49 54  1  0  0  0  0
 50 71  1  0  0  0  0
 51 54  1  0  0  0  0
 51 71  1  0  0  0  0
 52 75  1  0  0  0  0
 53 72  1  0  0  0  0
 54 70  1  0  0  0  0
 56 62  1  0  0  0  0
 57 67  1  0  0  0  0
 58 68  1  0  0  0  0
 59 68  1  0  0  0  0
 60 68  1  0  0  0  0
 61 77  1  0  0  0  0
 63 64  1  0  0  0  0
 64 65  1  0  0  0  0
 65 84  1  0  0  0  0
 66 68  1  0  0  0  0
 66 76  1  0  0  0  0
 67 77  1  0  0  0  0
 69 70  1  0  0  0  0
M  CHG  1  77   1
M  ISO  4  36 100  39 100  65 101  84 101
M  END
> <Batch ID>
0130

> <Smiles>
CCc1cc(C=CCC[101CH2:1][101O:1]c2ccc3c(c2)CN(C(=O)C(NC(=O)C(C)NC)C(C)(C)C)C(C(=O)NC2CCCc4ccccc42)C3)cc(C=[100CH:0][100C:0](=O)N2CCCC(n3nc(-c4ccc(Oc5ccc(F)cc5F)cc4)c(C(N)=O)c3N)C2)c1C

> <Shape>
0.273

> <Color>
0.123

> <Negative vol penalty>
0.000

$$$$

  -OEChem-04052302223D

 84 92  0     1  0  0  0  0  0999 V2000
  -27.9012  -36.3174   22.3796 C   0  0  0  0  0  0  0  0  0  0  0  0
  -28.2103  -34.9623   22.3187 C   0  0  0  0  0  0  0  0  0  0  0  0
  -26.1556  -12.7440   21.4775 C   0  0  0  0  0  0  0  0  0  0  0  0
  -25.8538  -13.1679   19.1182 C   0  0  0  0  0  0  0  0  0  0  0  0
  -26.6507  -36.7259   22.8413 C   0  0  0  0  0  0  0  0  0  0  0  0
  -27.2693  -34.0150   22.7207 C   0  0  0  0  0  0  0  0  0  0  0  0
  -26.9235  -30.1288   19.4923 C   0  0  0  0  0  0  0  0  0  0  0  0
  -24.9760  -11.9998   21.4947 C   0  0  0  0  0  0  0  0  0  0  0  0
  -24.6742  -12.4237   19.1354 C   0  0  0  0  0  0  0  0  0  0  0  0
  -27.9201  -29.1561   19.5577 C   0  0  0  0  0  0  0  0  0  0  0  0
  -23.9768   -8.8943   20.6058 C   0  0  0  0  0  0  0  0  0  0  0  0
  -23.9914   -7.6717   21.2770 C   0  0  0  0  0  0  0  0  0  0  0  0
  -31.2961  -23.7024   23.6311 C   0  0  0  0  0  0  0  0  0  0  0  0
  -26.4465  -27.7413   20.8407 C   0  0  0  0  0  0  0  0  0  0  0  0
  -30.6777  -24.9074   26.0700 C   0  0  0  0  0  0  0  0  0  0  0  0
  -22.2487   -8.4609   22.7525 C   0  0  0  0  0  0  0  0  0  0  0  0
  -26.5945  -13.3281   20.2893 C   0  0  0  0  0  0  0  0  0  0  0  0
  -30.5947  -22.9894   24.6033 C   0  0  0  0  0  0  0  0  0  0  0  0
  -29.1139  -13.6231   20.0191 C   0  0  0  0  0  0  0  0  0  0  0  0
  -25.6905  -35.7828   23.2401 C   0  0  0  0  0  0  0  0  0  0  0  0
  -25.6826  -29.9193   20.1109 C   0  0  0  0  0  0  0  0  0  0  0  0
  -26.0053  -34.4114   23.1895 C   0  0  0  0  0  0  0  0  0  0  0  0
  -25.4349  -28.7119   20.7794 C   0  0  0  0  0  0  0  0  0  0  0  0
  -31.6885  -25.0179   23.8784 C   0  0  0  0  0  0  0  0  0  0  0  0
  -30.2854  -23.5919   25.8227 C   0  0  0  0  0  0  0  0  0  0  0  0
  -31.3792  -25.6205   25.0978 C   0  0  0  0  0  0  0  0  0  0  0  0
  -24.2353  -11.8396   20.3237 C   0  0  0  0  0  0  0  0  0  0  0  0
  -27.6827  -27.9633   20.2344 C   0  0  0  0  0  0  0  0  0  0  0  0
  -23.0982   -9.9003   21.0080 C   0  0  0  0  0  0  0  0  0  0  0  0
  -23.1273   -7.4550   22.3504 C   0  0  0  0  0  0  0  0  0  0  0  0
  -22.2341   -9.6836   22.0813 C   0  0  0  0  0  0  0  0  0  0  0  0
  -27.8126  -14.0974   20.2710 C   0  0  0  0  0  0  0  0  0  0  0  0
  -29.9105  -14.7378   20.1166 C   0  0  0  0  0  0  0  0  0  0  0  0
  -30.1986  -21.6170   24.3155 C   0  0  0  0  0  0  0  0  0  0  0  0
  -29.4146  -21.2297   23.2888 C   0  0  0  0  0  0  0  0  0  0  0  0
  -31.5841  -26.7651   22.0924 C   0  0  0  0  0  0  0  0  0  0  0  0
  -30.8553  -26.4705   21.0056 C   0  0  0  0  0  0  0  0  0  0  0  0
  -29.5625  -12.2939   19.7234 C   0  0  0  0  0  0  0  0  0  0  0  0
  -29.1100  -19.7942   23.1240 C   0  0  0  0  0  0  0  0  0  0  0  0
  -24.0656  -31.3573   22.4391 C   0  0  0  0  0  0  0  0  0  0  0  0
  -21.7370  -29.2677   21.5824 C   0  0  0  0  0  0  0  0  0  0  0  0
  -20.9040  -26.2937   20.1306 C   0  0  0  0  0  0  0  0  0  0  0  0
  -24.3694  -36.2742   23.7768 C   0  0  0  0  0  0  0  0  0  0  0  0
  -24.6087  -30.9674   20.0083 C   0  0  0  0  0  0  0  0  0  0  0  0
  -24.1126  -28.4296   21.4429 C   0  0  0  0  0  0  0  0  0  0  0  0
  -23.2935  -35.1927   23.8305 C   0  0  0  0  0  0  0  0  0  0  0  0
  -29.8285  -19.4729   19.5446 C   0  0  0  0  0  0  0  0  0  0  0  0
  -23.8537  -33.9122   24.4416 C   0  0  0  0  0  0  0  0  0  0  0  0
  -29.4607  -18.0116   19.3013 C   0  0  0  0  0  0  0  0  0  0  0  0
  -28.9316  -20.1204   20.5986 C   0  0  0  0  0  0  0  0  0  0  0  0
  -28.5253  -17.9114   21.6454 C   0  0  0  0  0  0  0  0  0  0  0  0
  -25.0022  -33.3527   23.5933 C   0  0  1  0  0  0  0  0  0  0  0  0
  -23.5623  -30.8608   21.1133 C   0  0  1  0  0  0  0  0  0  0  0  0
  -29.4454  -17.2269   20.6227 C   0  0  1  0  0  0  0  0  0  0  0  0
  -29.5350  -22.8580   26.8874 C   0  0  0  0  0  0  0  0  0  0  0  0
  -31.7891  -27.0276   25.3851 C   0  0  0  0  0  0  0  0  0  0  0  0
  -18.9248  -24.8404   19.6128 C   0  0  0  0  0  0  0  0  0  0  0  0
  -21.6064  -28.4078   24.5070 C   0  0  0  0  0  0  0  0  0  0  0  0
  -20.3539  -26.3661   23.7783 C   0  0  0  0  0  0  0  0  0  0  0  0
  -19.3826  -28.6298   23.3846 C   0  0  0  0  0  0  0  0  0  0  0  0
  -21.4050  -26.4496   17.2180 C   0  0  0  0  0  0  0  0  0  0  0  0
  -32.4461  -25.7691   22.8124 C   0  0  0  0  0  0  0  0  0  0  0  0
  -30.0075  -27.4640   20.2811 C   0  0  0  0  0  0  0  0  0  1  0  0
  -21.3524  -27.8675   21.9951 C   0  0  1  0  0  0  0  0  0  0  0  0
  -19.8469  -25.9363   19.1014 C   0  0  2  0  0  0  0  0  0  0  0  0
  -20.6995  -27.8236   23.4055 C   0  0  0  0  0  0  0  0  0  0  0  0
  -27.7800  -15.4110   20.5106 N   0  0  0  0  0  0  0  0  0  0  0  0
  -29.0707  -15.7716   20.4099 N   0  0  0  0  0  0  0  0  0  0  0  0
  -28.8871  -19.3210   21.8322 N   0  0  0  0  0  0  0  0  0  0  0  0
  -23.0966  -29.4880   21.3202 N   0  0  0  0  0  0  0  0  0  0  0  0
  -31.2404  -14.9246   19.9793 N   0  0  0  0  0  0  0  0  0  0  0  0
  -28.6116  -11.2661   19.6611 N   0  0  0  0  0  0  0  0  0  0  0  0
  -24.4835  -32.6744   22.4249 N   0  0  0  0  0  0  0  0  0  0  0  0
  -20.5054  -27.3455   20.9281 N   0  0  0  0  0  0  0  0  0  0  0  0
  -20.4887  -25.4614   17.8431 N   0  3  0  0  0  0  0  0  0  0  0  0
  -30.7729  -12.0225   19.5365 O   0  0  0  0  0  0  0  0  0  0  0  0
  -29.0666  -19.1016   24.1424 O   0  0  0  0  0  0  0  0  0  0  0  0
  -24.0727  -30.6019   23.4040 O   0  0  0  0  0  0  0  0  0  0  0  0
  -20.8622  -30.1324   21.4890 O   0  0  0  0  0  0  0  0  0  0  0  0
  -21.9746  -25.6968   20.2207 O   0  0  0  0  0  0  0  0  0  0  0  0
  -23.0843  -11.1133   20.3401 O   0  0  0  0  0  0  0  0  0  0  0  0
  -28.6540  -27.0124   20.3004 O   0  0  0  0  0  0  0  0  0  1  0  0
  -23.1404   -6.2803   22.9939 F   0  0  0  0  0  0  0  0  0  0  0  0
  -21.3869  -10.6458   22.4715 F   0  0  0  0  0  0  0  0  0  0  0  0
  1  2  1  0  0  0  0
  1  5  2  0  0  0  0
  2  6  2  0  0  0  0
  3  8  2  0  0  0  0
  3 17  1  0  0  0  0
  4  9  1  0  0  0  0
  4 17  2  0  0  0  0
  5 20  1  0  0  0  0
  6 22  1  0  0  0  0
  7 10  2  0  0  0  0
  7 21  1  0  0  0  0
  8 27  1  0  0  0  0
  9 27  2  0  0  0  0
 10 28  1  0  0  0  0
 11 12  2  0  0  0  0
 11 29  1  0  0  0  0
 12 30  1  0  0  0  0
 13 18  2  0  0  0  0
 13 24  1  0  0  0  0
 14 23  1  0  0  0  0
 14 28  2  0  0  0  0
 15 25  2  0  0  0  0
 15 26  1  0  0  0  0
 16 30  2  0  0  0  0
 16 31  1  0  0  0  0
 17 32  1  0  0  0  0
 18 25  1  0  0  0  0
 18 34  1  0  0  0  0
 19 32  1  0  0  0  0
 19 33  2  0  0  0  0
 19 38  1  0  0  0  0
 20 22  2  0  0  0  0
 20 43  1  0  0  0  0
 21 23  2  0  0  0  0
 21 44  1  0  0  0  0
 22 52  1  0  0  0  0
 23 45  1  0  0  0  0
 24 26  2  0  0  0  0
 24 62  1  0  0  0  0
 25 55  1  0  0  0  0
 26 56  1  0  0  0  0
 27 81  1  0  0  0  0
 28 82  1  0  0  0  0
 29 31  2  0  0  0  0
 29 81  1  0  0  0  0
 30 83  1  0  0  0  0
 31 84  1  0  0  0  0
 32 67  2  0  0  0  0
 33 68  1  0  0  0  0
 33 71  1  0  0  0  0
 34 35  2  0  0  0  0
 35 39  1  0  0  0  0
 36 37  2  0  0  0  0
 36 62  1  0  0  0  0
 37 63  1  0  0  0  0
 38 72  1  0  0  0  0
 38 76  2  0  0  0  0
 39 69  1  0  0  0  0
 39 77  2  0  0  0  0
 40 53  1  0  0  0  0
 40 73  1  0  0  0  0
 40 78  2  0  0  0  0
 41 64  1  0  0  0  0
 41 70  1  0  0  0  0
 41 79  2  0  0  0  0
 42 65  1  0  0  0  0
 42 74  1  0  0  0  0
 42 80  2  0  0  0  0
 43 46  1  0  0  0  0
 44 53  1  0  0  0  0
 45 70  1  0  0  0  0
 46 48  1  0  0  0  0
 47 49  1  0  0  0  0
 47 50  1  0  0  0  0
 48 52  1  0  0  0  0
 49 54  1  0  0  0  0
 50 69  1  0  0  0  0
 51 54  1  0  0  0  0
 51 69  1  0  0  0  0
 52 73  1  0  0  0  0
 53 70  1  0  0  0  0
 54 68  1  0  0  0  0
 57 65  1  0  0  0  0
 58 66  1  0  0  0  0
 59 66  1  0  0  0  0
 60 66  1  0  0  0  0
 61 75  1  0  0  0  0
 63 82  1  0  0  0  0
 64 66  1  0  0  0  0
 64 74  1  0  0  0  0
 65 75  1  0  0  0  0
 67 68  1  0  0  0  0
M  CHG  1  75   1
M  ISO  4  35 100  39 100  63 101  82 101
M  END
> <Batch ID>
0130

> <Smiles>
CNC(C)C(=O)NC(C(=O)N1Cc2cc([101O:1][101CH2:1]C=CCc3cc(C=[100CH:0][100C:0](=O)N4CCCC(n5nc(-c6ccc(Oc7ccc(F)cc7F)cc6)c(C(N)=O)c5N)C4)c(C)cc3C)ccc2CC1C(=O)NC1CCCc2ccccc21)C(C)(C)C

> <Shape>
0.321

> <Color>
0.086

> <Negative vol penalty>
0.000

$$$$

  -OEChem-04052302223D

 86 94  0     1  0  0  0  0  0999 V2000
  -23.6936  -26.3131   13.4384 C   0  0  0  0  0  0  0  0  0  0  0  0
  -23.4420  -26.5372   14.7882 C   0  0  0  0  0  0  0  0  0  0  0  0
  -27.5266  -13.2984   22.5563 C   0  0  0  0  0  0  0  0  0  0  0  0
  -26.8831  -12.9584   20.2526 C   0  0  0  0  0  0  0  0  0  0  0  0
  -22.7136  -24.2044   22.4431 C   0  0  0  0  0  0  0  0  0  0  0  0
  -24.7133  -25.4428   13.0557 C   0  0  0  0  0  0  0  0  0  0  0  0
  -24.2093  -25.8901   15.7561 C   0  0  0  0  0  0  0  0  0  0  0  0
  -25.6651  -28.9990   19.4791 C   0  0  0  0  0  0  0  0  0  0  0  0
  -22.0708  -25.4423   22.4396 C   0  0  0  0  0  0  0  0  0  0  0  0
  -26.9834  -12.0581   22.8912 C   0  0  0  0  0  0  0  0  0  0  0  0
  -26.3398  -11.7181   20.5874 C   0  0  0  0  0  0  0  0  0  0  0  0
  -24.7176  -29.3149   20.4518 C   0  0  0  0  0  0  0  0  0  0  0  0
  -23.5123  -10.5415   22.0198 C   0  0  0  0  0  0  0  0  0  0  0  0
  -22.2565  -10.2233   21.5030 C   0  0  0  0  0  0  0  0  0  0  0  0
  -25.7011  -27.6829   21.9312 C   0  0  0  0  0  0  0  0  0  0  0  0
  -23.5818  -26.2320   24.1513 C   0  0  0  0  0  0  0  0  0  0  0  0
  -23.2038   -8.3032   20.3836 C   0  0  0  0  0  0  0  0  0  0  0  0
  -27.4765  -13.7486   21.2370 C   0  0  0  0  0  0  0  0  0  0  0  0
  -23.7906  -23.9803   23.3009 C   0  0  0  0  0  0  0  0  0  0  0  0
  -29.3573  -15.2979   20.4821 C   0  0  0  0  0  0  0  0  0  0  0  0
  -25.4999  -24.7921   14.0193 C   0  0  0  0  0  0  0  0  0  0  0  0
  -26.6326  -28.0133   19.7215 C   0  0  0  0  0  0  0  0  0  0  0  0
  -25.2397  -25.0092   15.3859 C   0  0  0  0  0  0  0  0  0  0  0  0
  -26.6613  -27.3582   20.9609 C   0  0  0  0  0  0  0  0  0  0  0  0
  -22.5049  -26.4561   23.2936 C   0  0  0  0  0  0  0  0  0  0  0  0
  -24.2247  -24.9941   24.1549 C   0  0  0  0  0  0  0  0  0  0  0  0
  -26.3900  -11.2680   21.9067 C   0  0  0  0  0  0  0  0  0  0  0  0
  -24.7337  -28.6548   21.6770 C   0  0  0  0  0  0  0  0  0  0  0  0
  -24.6140   -9.7407   21.7185 C   0  0  0  0  0  0  0  0  0  0  0  0
  -22.1022   -9.1041   20.6849 C   0  0  0  0  0  0  0  0  0  0  0  0
  -24.4597   -8.6215   20.9004 C   0  0  0  0  0  0  0  0  0  0  0  0
  -28.0370  -15.0300   20.8907 C   0  0  0  0  0  0  0  0  0  0  0  0
  -29.3834  -16.6552   20.2736 C   0  0  0  0  0  0  0  0  0  0  0  0
  -24.4408  -22.6766   23.2811 C   0  0  0  0  0  0  0  0  0  0  0  0
  -25.4952  -22.3417   22.5098 C   0  0  0  0  0  0  0  0  0  0  0  0
  -30.4613  -14.4001   20.3066 C   0  0  0  0  0  0  0  0  0  0  0  0
  -26.0505  -20.9771   22.6115 C   0  0  0  0  0  0  0  0  0  0  0  0
  -27.3625  -25.2145   18.4033 C   0  0  0  0  0  0  0  0  0  0  0  0
  -21.7437  -30.1234   22.3330 C   0  0  0  0  0  0  0  0  0  0  0  0
  -29.8734  -25.3450   20.4529 C   0  0  0  0  0  0  0  0  0  0  0  0
  -31.1847  -26.5754   23.3535 C   0  0  0  0  0  0  0  0  0  0  0  0
  -26.5601  -23.8238   13.5577 C   0  0  0  0  0  0  0  0  0  0  0  0
  -27.6642  -27.7031   18.6718 C   0  0  0  0  0  0  0  0  0  0  0  0
  -27.6917  -26.3065   21.2782 C   0  0  0  0  0  0  0  0  0  0  0  0
  -27.5725  -23.4662   14.6428 C   0  0  0  0  0  0  0  0  0  0  0  0
  -26.5871  -20.3198   19.0462 C   0  0  0  0  0  0  0  0  0  0  0  0
  -26.8595  -23.1376   15.9506 C   0  0  0  0  0  0  0  0  0  0  0  0
  -27.1000  -18.8828   19.0865 C   0  0  0  0  0  0  0  0  0  0  0  0
  -25.5527  -20.5885   20.1382 C   0  0  0  0  0  0  0  0  0  0  0  0
  -26.5439  -18.8089   21.5493 C   0  0  0  0  0  0  0  0  0  0  0  0
  -26.0667  -24.3450   16.4653 C   0  0  1  0  0  0  0  0  0  0  0  0
  -28.2851  -26.3191   18.8348 C   0  0  1  0  0  0  0  0  0  0  0  0
  -27.6204  -18.5297   20.4888 C   0  0  1  0  0  0  0  0  0  0  0  0
  -20.2896  -30.1647   21.9362 C   0  0  0  0  0  0  0  0  0  0  0  0
  -26.1569  -23.7228   27.2461 C   0  0  0  0  0  0  0  0  0  0  0  0
  -33.2442  -26.4730   24.7836 C   0  0  0  0  0  0  0  0  0  0  0  0
  -29.0366  -22.5876   21.4563 C   0  0  0  0  0  0  0  0  0  0  0  0
  -30.4895  -22.9534   23.4621 C   0  0  0  0  0  0  0  0  0  0  0  0
  -31.5036  -22.8942   21.1838 C   0  0  0  0  0  0  0  0  0  0  0  0
  -31.6784  -29.4780   23.0531 C   0  0  0  0  0  0  0  0  0  0  0  0
  -21.8102  -27.7971   23.2889 C   0  0  0  0  0  0  0  0  0  0  0  0
  -25.3750  -24.7894   25.0876 C   0  0  0  0  0  0  0  0  0  0  0  0
  -24.9779  -23.9581   26.3153 C   0  0  0  0  0  0  0  0  0  0  0  0
  -22.4376  -28.7673   22.2865 C   0  0  2  0  0  0  0  0  0  1  0  0
  -30.1191  -24.8943   21.8726 C   0  0  1  0  0  0  0  0  0  0  0  0
  -32.5289  -27.2097   23.6618 C   0  0  2  0  0  0  0  0  0  0  0  0
  -30.2665  -23.3508   21.9873 C   0  0  0  0  0  0  0  0  0  0  0  0
  -27.2793  -16.1289   20.9396 N   0  0  0  0  0  0  0  0  0  0  0  0
  -28.1263  -17.1005   20.5592 N   0  0  0  0  0  0  0  0  0  0  0  0
  -26.0518  -20.1884   21.4624 N   0  0  0  0  0  0  0  0  0  0  0  0
  -28.6753  -26.0340   20.2171 N   0  0  0  0  0  0  0  0  0  0  0  0
  -30.3589  -17.4994   19.8758 N   0  0  0  0  0  0  0  0  0  0  0  0
  -30.2615  -13.0370   20.5644 N   0  0  0  0  0  0  0  0  0  0  0  0
  -26.9541  -25.3049   17.0863 N   0  0  0  0  0  0  0  0  0  0  0  0
  -31.2801  -25.6421   22.3430 N   0  0  0  0  0  0  0  0  0  0  0  0
  -32.3489  -28.6309   24.0728 N   0  3  0  0  0  0  0  0  0  0  0  0
  -31.5959  -14.7973   19.9482 O   0  0  0  0  0  0  0  0  0  0  0  0
  -26.4755  -20.6167   23.7107 O   0  0  0  0  0  0  0  0  0  0  0  0
  -27.0459  -24.3438   19.2053 O   0  0  0  0  0  0  0  0  0  0  0  0
  -22.3304  -31.1489   22.6798 O   0  0  0  0  0  0  0  0  0  0  0  0
  -30.7169  -25.1011   19.5864 O   0  0  0  0  0  0  0  0  0  0  0  0
  -30.1538  -26.8750   23.9518 O   0  0  0  0  0  0  0  0  0  0  0  0
  -25.8600  -10.0575   22.2330 O   0  0  0  0  0  0  0  0  0  0  0  0
  -23.8096  -28.9608   22.6280 O   0  0  0  0  0  0  0  0  0  1  0  0
  -20.8958   -8.7978   20.1899 F   0  0  0  0  0  0  0  0  0  0  0  0
  -25.5140   -7.8477   20.6084 F   0  0  0  0  0  0  0  0  0  0  0  0
  1  2  1  0  0  0  0
  1  6  2  0  0  0  0
  2  7  2  0  0  0  0
  3 10  2  0  0  0  0
  3 18  1  0  0  0  0
  4 11  1  0  0  0  0
  4 18  2  0  0  0  0
  5  9  2  0  0  0  0
  5 19  1  0  0  0  0
  6 21  1  0  0  0  0
  7 23  1  0  0  0  0
  8 12  2  0  0  0  0
  8 22  1  0  0  0  0
  9 25  1  0  0  0  0
 10 27  1  0  0  0  0
 11 27  2  0  0  0  0
 12 28  1  0  0  0  0
 13 14  2  0  0  0  0
 13 29  1  0  0  0  0
 14 30  1  0  0  0  0
 15 24  1  0  0  0  0
 15 28  2  0  0  0  0
 16 25  2  0  0  0  0
 16 26  1  0  0  0  0
 17 30  2  0  0  0  0
 17 31  1  0  0  0  0
 18 32  1  0  0  0  0
 19 26  2  0  0  0  0
 19 34  1  0  0  0  0
 20 32  1  0  0  0  0
 20 33  2  0  0  0  0
 20 36  1  0  0  0  0
 21 23  2  0  0  0  0
 21 42  1  0  0  0  0
 22 24  2  0  0  0  0
 22 43  1  0  0  0  0
 23 51  1  0  0  0  0
 24 44  1  0  0  0  0
 25 61  1  0  0  0  0
 26 62  1  0  0  0  0
 27 83  1  0  0  0  0
 28 84  1  0  0  0  0
 29 31  2  0  0  0  0
 29 83  1  0  0  0  0
 30 85  1  0  0  0  0
 31 86  1  0  0  0  0
 32 68  2  0  0  0  0
 33 69  1  0  0  0  0
 33 72  1  0  0  0  0
 34 35  2  0  0  0  0
 35 37  1  0  0  0  0
 36 73  1  0  0  0  0
 36 77  2  0  0  0  0
 37 70  1  0  0  0  0
 37 78  2  0  0  0  0
 38 52  1  0  0  0  0
 38 74  1  0  0  0  0
 38 79  2  0  0  0  0
 39 54  1  0  0  0  0
 39 64  1  0  0  0  0
 39 80  2  0  0  0  0
 40 65  1  0  0  0  0
 40 71  1  0  0  0  0
 40 81  2  0  0  0  0
 41 66  1  0  0  0  0
 41 75  1  0  0  0  0
 41 82  2  0  0  0  0
 42 45  1  0  0  0  0
 43 52  1  0  0  0  0
 44 71  1  0  0  0  0
 45 47  1  0  0  0  0
 46 48  1  0  0  0  0
 46 49  1  0  0  0  0
 47 51  1  0  0  0  0
 48 53  1  0  0  0  0
 49 70  1  0  0  0  0
 50 53  1  0  0  0  0
 50 70  1  0  0  0  0
 51 74  1  0  0  0  0
 52 71  1  0  0  0  0
 53 69  1  0  0  0  0
 55 63  1  0  0  0  0
 56 66  1  0  0  0  0
 57 67  1  0  0  0  0
 58 67  1  0  0  0  0
 59 67  1  0  0  0  0
 60 76  1  0  0  0  0
 61 64  1  0  0  0  0
 62 63  1  0  0  0  0
 64 84  1  0  0  0  0
 65 67  1  0  0  0  0
 65 75  1  0  0  0  0
 66 76  1  0  0  0  0
 68 69  1  0  0  0  0
M  CHG  1  76   1
M  ISO  4  35 100  37 100  64 101  84 101
M  END
> <Batch ID>
0130

> <Smiles>
CCCc1cc(C[101CH:1](C(C)=O)[101O:1]c2ccc3c(c2)CN(C(=O)C(NC(=O)C(C)NC)C(C)(C)C)C(C(=O)NC2CCCc4ccccc42)C3)ccc1C=[100CH:0][100C:0](=O)N1CCCC(n2nc(-c3ccc(Oc4ccc(F)cc4F)cc3)c(C(N)=O)c2N)C1

> <Shape>
0.188

> <Color>
0.101

> <Negative vol penalty>
0.000

$$$$

  -OEChem-04052302223D

 83 91  0     1  0  0  0  0  0999 V2000
  -17.2577  -30.8884   20.3926 C   0  0  0  0  0  0  0  0  0  0  0  0
  -18.3768  -30.5438   19.6414 C   0  0  0  0  0  0  0  0  0  0  0  0
  -26.3250  -13.5673   21.9327 C   0  0  0  0  0  0  0  0  0  0  0  0
  -26.2262  -12.6309   19.7077 C   0  0  0  0  0  0  0  0  0  0  0  0
  -17.4101  -31.3272   21.7072 C   0  0  0  0  0  0  0  0  0  0  0  0
  -19.6491  -30.6389   20.2041 C   0  0  0  0  0  0  0  0  0  0  0  0
  -24.4305  -26.9638   19.1374 C   0  0  0  0  0  0  0  0  0  0  0  0
  -25.1471  -12.8990   22.2663 C   0  0  0  0  0  0  0  0  0  0  0  0
  -25.0482  -11.9625   20.0414 C   0  0  0  0  0  0  0  0  0  0  0  0
  -25.5421  -27.0886   18.3053 C   0  0  0  0  0  0  0  0  0  0  0  0
  -24.1615   -9.1770   21.7370 C   0  0  0  0  0  0  0  0  0  0  0  0
  -24.0468   -7.8400   21.3566 C   0  0  0  0  0  0  0  0  0  0  0  0
  -31.5401  -24.7535   19.9102 C   0  0  0  0  0  0  0  0  0  0  0  0
  -29.8117  -24.6341   18.2265 C   0  0  0  0  0  0  0  0  0  0  0  0
  -26.8321  -27.9255   20.1640 C   0  0  0  0  0  0  0  0  0  0  0  0
  -31.2107  -26.5975   18.3843 C   0  0  0  0  0  0  0  0  0  0  0  0
  -22.0965   -8.3825   20.0378 C   0  0  0  0  0  0  0  0  0  0  0  0
  -26.8646  -13.4333   20.6534 C   0  0  0  0  0  0  0  0  0  0  0  0
  -30.4976  -24.0593   19.2964 C   0  0  0  0  0  0  0  0  0  0  0  0
  -29.3984  -13.6480   20.4495 C   0  0  0  0  0  0  0  0  0  0  0  0
  -18.6842  -31.4186   22.2894 C   0  0  0  0  0  0  0  0  0  0  0  0
  -24.5084  -27.3299   20.4888 C   0  0  0  0  0  0  0  0  0  0  0  0
  -19.8188  -31.0807   21.5273 C   0  0  0  0  0  0  0  0  0  0  0  0
  -25.7207  -27.8020   21.0118 C   0  0  0  0  0  0  0  0  0  0  0  0
  -31.8967  -26.0227   19.4542 C   0  0  0  0  0  0  0  0  0  0  0  0
  -30.1682  -25.9032   17.7704 C   0  0  0  0  0  0  0  0  0  0  0  0
  -24.5087  -12.0965   21.3207 C   0  0  0  0  0  0  0  0  0  0  0  0
  -26.7423  -27.5722   18.8178 C   0  0  0  0  0  0  0  0  0  0  0  0
  -23.2437  -10.1168   21.2680 C   0  0  0  0  0  0  0  0  0  0  0  0
  -23.0143   -7.4427   20.5070 C   0  0  0  0  0  0  0  0  0  0  0  0
  -22.2112   -9.7196   20.4184 C   0  0  0  0  0  0  0  0  0  0  0  0
  -28.0811  -14.1239   20.3079 C   0  0  0  0  0  0  0  0  0  0  0  0
  -30.1855  -14.6721   19.9826 C   0  0  0  0  0  0  0  0  0  0  0  0
  -30.1342  -26.1297   14.2239 C   0  0  0  0  0  0  0  0  0  0  0  0
  -30.1261  -22.7360   19.7725 C   0  0  0  0  0  0  0  0  0  0  0  0
  -29.4312  -21.8171   19.0687 C   0  0  0  0  0  0  0  0  0  0  0  0
  -29.5558  -25.6968   15.3504 C   0  0  0  0  0  0  0  0  0  0  0  0
  -29.8684  -12.3924   20.9576 C   0  0  0  0  0  0  0  0  0  0  0  0
  -29.1395  -20.5093   19.6895 C   0  0  0  0  0  0  0  0  0  0  0  0
  -23.0610  -29.4927   22.3140 C   0  0  0  0  0  0  0  0  0  0  0  0
  -24.6971  -28.0110   24.6910 C   0  0  0  0  0  0  0  0  0  0  0  0
  -27.3727  -26.1045   25.6147 C   0  0  0  0  0  0  0  0  0  0  0  0
  -18.8025  -31.9434   23.6984 C   0  0  0  0  0  0  0  0  0  0  0  0
  -23.3078  -27.1642   21.3796 C   0  0  0  0  0  0  0  0  0  0  0  0
  -25.8622  -28.1895   22.4603 C   0  0  0  0  0  0  0  0  0  0  0  0
  -20.1568  -31.6588   24.3426 C   0  0  0  0  0  0  0  0  0  0  0  0
  -30.1601  -18.3323   16.9235 C   0  0  0  0  0  0  0  0  0  0  0  0
  -21.2888  -32.0036   23.3801 C   0  0  0  0  0  0  0  0  0  0  0  0
  -29.8120  -16.9575   17.4881 C   0  0  0  0  0  0  0  0  0  0  0  0
  -29.1776  -19.4064   17.3877 C   0  0  0  0  0  0  0  0  0  0  0  0
  -28.6799  -18.1017   19.4348 C   0  0  0  0  0  0  0  0  0  0  0  0
  -21.2136  -31.1469   22.1105 C   0  0  1  0  0  0  0  0  0  0  0  0
  -23.3566  -28.0515   22.6196 C   0  0  1  0  0  0  0  0  0  0  0  0
  -29.6828  -17.0143   19.0185 C   0  0  1  0  0  0  0  0  0  0  0  0
  -33.0111  -26.7653   20.1106 C   0  0  0  0  0  0  0  0  0  0  0  0
  -28.4644  -25.0881   27.6328 C   0  0  0  0  0  0  0  0  0  0  0  0
  -25.7868  -30.7502   25.4782 C   0  0  0  0  0  0  0  0  0  0  0  0
  -27.5467  -29.5856   26.8254 C   0  0  0  0  0  0  0  0  0  0  0  0
  -25.1380  -29.2927   27.4042 C   0  0  0  0  0  0  0  0  0  0  0  0
  -27.0325  -23.3602   24.5602 C   0  0  0  0  0  0  0  0  0  0  0  0
  -27.9354  -26.7778   16.9200 C   0  0  0  0  0  0  0  0  0  1  0  0
  -29.4192  -26.5308   16.6024 C   0  0  1  0  0  0  0  0  0  0  0  0
  -26.0562  -28.1870   25.3242 C   0  0  1  0  0  0  0  0  0  0  0  0
  -27.4758  -24.8737   26.4972 C   0  0  2  0  0  0  0  0  0  0  0  0
  -26.1290  -29.4485   26.2302 C   0  0  0  0  0  0  0  0  0  0  0  0
  -28.0302  -15.3547   19.7916 N   0  0  0  0  0  0  0  0  0  0  0  0
  -29.3254  -15.6609   19.6048 N   0  0  0  0  0  0  0  0  0  0  0  0
  -29.0268  -19.4021   18.8506 N   0  0  0  0  0  0  0  0  0  0  0  0
  -24.6582  -28.0154   23.2895 N   0  0  0  0  0  0  0  0  0  0  0  0
  -31.5226  -14.8144   19.8626 N   0  0  0  0  0  0  0  0  0  0  0  0
  -28.9246  -11.4533   21.3955 N   0  0  0  0  0  0  0  0  0  0  0  0
  -21.7185  -29.8154   22.3686 N   0  0  0  0  0  0  0  0  0  0  0  0
  -26.3491  -26.9366   26.0162 N   0  0  0  0  0  0  0  0  0  0  0  0
  -27.9260  -23.6993   25.6977 N   0  3  0  0  0  0  0  0  0  0  0  0
  -31.0899  -12.1179   21.0365 O   0  0  0  0  0  0  0  0  0  0  0  0
  -29.0083  -20.4780   20.9145 O   0  0  0  0  0  0  0  0  0  0  0  0
  -23.9828  -30.2557   22.0498 O   0  0  0  0  0  0  0  0  0  0  0  0
  -23.7075  -27.8676   25.4133 O   0  0  0  0  0  0  0  0  0  0  0  0
  -28.1273  -26.3094   24.6665 O   0  0  0  0  0  0  0  0  0  0  0  0
  -23.3594  -11.4440   21.6460 O   0  0  0  0  0  0  0  0  0  0  0  0
  -27.8287  -27.6955   18.0076 O   0  0  0  0  0  0  0  0  0  1  0  0
  -22.9052   -6.1590   20.1404 F   0  0  0  0  0  0  0  0  0  0  0  0
  -21.3271  -10.6181   19.9636 F   0  0  0  0  0  0  0  0  0  0  0  0
  1  2  1  0  0  0  0
  1  5  2  0  0  0  0
  2  6  2  0  0  0  0
  3  8  2  0  0  0  0
  3 18  1  0  0  0  0
  4  9  1  0  0  0  0
  4 18  2  0  0  0  0
  5 21  1  0  0  0  0
  6 23  1  0  0  0  0
  7 10  2  0  0  0  0
  7 22  1  0  0  0  0
  8 27  1  0  0  0  0
  9 27  2  0  0  0  0
 10 28  1  0  0  0  0
 11 12  2  0  0  0  0
 11 29  1  0  0  0  0
 12 30  1  0  0  0  0
 13 19  2  0  0  0  0
 13 25  1  0  0  0  0
 14 19  1  0  0  0  0
 14 26  2  0  0  0  0
 15 24  1  0  0  0  0
 15 28  2  0  0  0  0
 16 25  2  0  0  0  0
 16 26  1  0  0  0  0
 17 30  2  0  0  0  0
 17 31  1  0  0  0  0
 18 32  1  0  0  0  0
 19 35  1  0  0  0  0
 20 32  1  0  0  0  0
 20 33  2  0  0  0  0
 20 38  1  0  0  0  0
 21 23  2  0  0  0  0
 21 43  1  0  0  0  0
 22 24  2  0  0  0  0
 22 44  1  0  0  0  0
 23 52  1  0  0  0  0
 24 45  1  0  0  0  0
 25 55  1  0  0  0  0
 26 62  1  0  0  0  0
 27 80  1  0  0  0  0
 28 81  1  0  0  0  0
 29 31  2  0  0  0  0
 29 80  1  0  0  0  0
 30 82  1  0  0  0  0
 31 83  1  0  0  0  0
 32 66  2  0  0  0  0
 33 67  1  0  0  0  0
 33 70  1  0  0  0  0
 34 37  2  0  0  0  0
 35 36  2  0  0  0  0
 36 39  1  0  0  0  0
 37 62  1  0  0  0  0
 38 71  1  0  0  0  0
 38 75  2  0  0  0  0
 39 68  1  0  0  0  0
 39 76  2  0  0  0  0
 40 53  1  0  0  0  0
 40 72  1  0  0  0  0
 40 77  2  0  0  0  0
 41 63  1  0  0  0  0
 41 69  1  0  0  0  0
 41 78  2  0  0  0  0
 42 64  1  0  0  0  0
 42 73  1  0  0  0  0
 42 79  2  0  0  0  0
 43 46  1  0  0  0  0
 44 53  1  0  0  0  0
 45 69  1  0  0  0  0
 46 48  1  0  0  0  0
 47 49  1  0  0  0  0
 47 50  1  0  0  0  0
 48 52  1  0  0  0  0
 49 54  1  0  0  0  0
 50 68  1  0  0  0  0
 51 54  1  0  0  0  0
 51 68  1  0  0  0  0
 52 72  1  0  0  0  0
 53 69  1  0  0  0  0
 54 67  1  0  0  0  0
 56 64  1  0  0  0  0
 57 65  1  0  0  0  0
 58 65  1  0  0  0  0
 59 65  1  0  0  0  0
 60 74  1  0  0  0  0
 61 62  1  0  0  0  0
 61 81  1  0  0  0  0
 63 65  1  0  0  0  0
 63 73  1  0  0  0  0
 64 74  1  0  0  0  0
 66 67  1  0  0  0  0
M  CHG  1  74   1
M  ISO  4  36 100  39 100  61 101  81 101
M  END
> <Batch ID>
0130

> <Smiles>
C=CC(c1cc(C)cc(C=[100CH:0][100C:0](=O)N2CCCC(n3nc(-c4ccc(Oc5ccc(F)cc5F)cc4)c(C(N)=O)c3N)C2)c1)[101CH2:1][101O:1]c1ccc2c(c1)CN(C(=O)C(NC(=O)C(C)NC)C(C)(C)C)C(C(=O)NC1CCCc3ccccc31)C2

> <Shape>
0.260

> <Color>
0.077

> <Negative vol penalty>
0.000

$$$$

  -OEChem-04052302223D

 85 93  0     1  0  0  0  0  0999 V2000
  -25.2587  -25.1969   11.2758 C   0  0  0  0  0  0  0  0  0  0  0  0
  -24.8762  -25.9789   12.3609 C   0  0  0  0  0  0  0  0  0  0  0  0
  -27.8316  -17.0623   19.9883 C   0  0  0  0  0  0  0  0  0  0  0  0
  -27.7799  -16.1590   22.2285 C   0  0  0  0  0  0  0  0  0  0  0  0
  -25.8436  -23.9494   11.4888 C   0  0  0  0  0  0  0  0  0  0  0  0
  -25.0774  -25.5133   13.6598 C   0  0  0  0  0  0  0  0  0  0  0  0
  -26.5021  -28.8558   18.5897 C   0  0  0  0  0  0  0  0  0  0  0  0
  -29.0691  -16.4560   19.7724 C   0  0  0  0  0  0  0  0  0  0  0  0
  -29.0174  -15.5526   22.0126 C   0  0  0  0  0  0  0  0  0  0  0  0
  -25.7292  -29.3684   19.6307 C   0  0  0  0  0  0  0  0  0  0  0  0
  -32.0735  -14.8476   18.5070 C   0  0  0  0  0  0  0  0  0  0  0  0
  -32.2656  -14.1781   17.2985 C   0  0  0  0  0  0  0  0  0  0  0  0
  -20.3728  -27.3524   21.7450 C   0  0  0  0  0  0  0  0  0  0  0  0
  -26.2993  -27.4567   20.9871 C   0  0  0  0  0  0  0  0  0  0  0  0
  -18.5830  -27.4450   23.8828 C   0  0  0  0  0  0  0  0  0  0  0  0
  -30.4291  -12.6995   17.8258 C   0  0  0  0  0  0  0  0  0  0  0  0
  -27.1870  -16.9138   21.2164 C   0  0  0  0  0  0  0  0  0  0  0  0
  -19.9857  -26.1734   22.3819 C   0  0  0  0  0  0  0  0  0  0  0  0
  -24.6373  -16.9908   21.1896 C   0  0  0  0  0  0  0  0  0  0  0  0
  -26.0610  -23.4723   12.7910 C   0  0  0  0  0  0  0  0  0  0  0  0
  -27.1717  -27.6324   18.7359 C   0  0  0  0  0  0  0  0  0  0  0  0
  -25.6646  -24.2576   13.8904 C   0  0  0  0  0  0  0  0  0  0  0  0
  -27.0820  -26.9320   19.9474 C   0  0  0  0  0  0  0  0  0  0  0  0
  -19.8651  -28.5777   22.1770 C   0  0  0  0  0  0  0  0  0  0  0  0
  -19.0907  -26.2197   23.4508 C   0  0  0  0  0  0  0  0  0  0  0  0
  -18.9702  -28.6240   23.2459 C   0  0  0  0  0  0  0  0  0  0  0  0
  -29.6620  -15.7012   20.7845 C   0  0  0  0  0  0  0  0  0  0  0  0
  -25.6254  -28.6674   20.8286 C   0  0  0  0  0  0  0  0  0  0  0  0
  -31.0593  -14.4430   19.3750 C   0  0  0  0  0  0  0  0  0  0  0  0
  -31.4434  -13.1041   16.9579 C   0  0  0  0  0  0  0  0  0  0  0  0
  -30.2371  -13.3690   19.0343 C   0  0  0  0  0  0  0  0  0  0  0  0
  -25.9089  -17.5403   21.4403 C   0  0  0  0  0  0  0  0  0  0  0  0
  -23.7573  -17.9755   21.5673 C   0  0  0  0  0  0  0  0  0  0  0  0
  -20.5332  -24.9091   21.9077 C   0  0  0  0  0  0  0  0  0  0  0  0
  -21.8411  -24.5804   21.8955 C   0  0  0  0  0  0  0  0  0  0  0  0
  -24.2832  -15.7053   20.6626 C   0  0  0  0  0  0  0  0  0  0  0  0
  -22.2392  -23.2509   21.3911 C   0  0  0  0  0  0  0  0  0  0  0  0
  -27.0340  -24.8116   17.2773 C   0  0  0  0  0  0  0  0  0  0  0  0
  -22.6365  -29.8230   22.5120 C   0  0  0  0  0  0  0  0  0  0  0  0
  -29.5849  -24.1470   19.1677 C   0  0  0  0  0  0  0  0  0  0  0  0
  -31.3306  -24.8233   22.0211 C   0  0  0  0  0  0  0  0  0  0  0  0
  -26.6535  -22.0971   12.9709 C   0  0  0  0  0  0  0  0  0  0  0  0
  -28.0229  -27.1062   17.6131 C   0  0  0  0  0  0  0  0  0  0  0  0
  -27.7977  -25.6243   20.1622 C   0  0  0  0  0  0  0  0  0  0  0  0
  -27.1743  -21.8382   14.3823 C   0  0  0  0  0  0  0  0  0  0  0  0
  -24.4918  -22.2681   24.1099 C   0  0  0  0  0  0  0  0  0  0  0  0
  -26.1520  -22.2907   15.4200 C   0  0  0  0  0  0  0  0  0  0  0  0
  -24.9919  -20.9179   23.6033 C   0  0  0  0  0  0  0  0  0  0  0  0
  -24.2472  -23.2525   22.9672 C   0  0  0  0  0  0  0  0  0  0  0  0
  -23.8364  -21.3742   21.4040 C   0  0  0  0  0  0  0  0  0  0  0  0
  -25.8890  -23.7977   15.3146 C   0  0  1  0  0  0  0  0  0  0  0  0
  -28.2460  -25.5989   17.6882 C   0  0  1  0  0  0  0  0  0  0  0  0
  -24.0442  -20.3530   22.5333 C   0  0  1  0  0  0  0  0  0  0  0  0
  -18.6538  -24.9764   24.1568 C   0  0  0  0  0  0  0  0  0  0  0  0
  -18.4138  -29.9241   23.7261 C   0  0  0  0  0  0  0  0  0  0  0  0
  -33.3525  -24.0897   23.3140 C   0  0  0  0  0  0  0  0  0  0  0  0
  -28.0731  -21.6755   20.1248 C   0  0  0  0  0  0  0  0  0  0  0  0
  -29.6710  -21.5280   22.0466 C   0  0  0  0  0  0  0  0  0  0  0  0
  -30.5119  -21.3103   19.7082 C   0  0  0  0  0  0  0  0  0  0  0  0
  -32.5890  -27.4922   21.7919 C   0  0  0  0  0  0  0  0  0  0  0  0
  -20.2987  -29.8408   21.4723 C   0  0  0  0  0  0  0  0  0  0  0  0
  -21.3727  -30.6229   22.2308 C   0  0  0  0  0  0  0  0  0  0  0  0
  -23.7459  -29.9666   21.4886 C   0  0  0  0  0  0  0  0  0  1  0  0
  -29.7690  -23.5747   20.5525 C   0  0  1  0  0  0  0  0  0  0  0  0
  -32.8115  -25.0500   22.2660 C   0  0  2  0  0  0  0  0  0  0  0  0
  -29.4911  -22.0458   20.6036 C   0  0  0  0  0  0  0  0  0  0  0  0
  -25.8467  -18.7780   21.9385 N   0  0  0  0  0  0  0  0  0  0  0  0
  -24.5254  -19.0145   22.0039 N   0  0  0  0  0  0  0  0  0  0  0  0
  -23.3856  -22.6682   21.9285 N   0  0  0  0  0  0  0  0  0  0  0  0
  -28.6125  -25.1480   19.0323 N   0  0  0  0  0  0  0  0  0  0  0  0
  -22.4091  -18.0452   21.5651 N   0  0  0  0  0  0  0  0  0  0  0  0
  -25.3118  -14.8147   20.3264 N   0  0  0  0  0  0  0  0  0  0  0  0
  -26.9699  -24.5432   15.9233 N   0  0  0  0  0  0  0  0  0  0  0  0
  -31.1136  -23.9520   20.9746 N   0  0  0  0  0  0  0  0  0  0  0  0
  -33.0513  -26.4434   22.7370 N   0  3  0  0  0  0  0  0  0  0  0  0
  -23.0904  -15.3630   20.4795 O   0  0  0  0  0  0  0  0  0  0  0  0
  -21.5340  -22.7387   20.5198 O   0  0  0  0  0  0  0  0  0  0  0  0
  -26.2182  -24.4714   18.1261 O   0  0  0  0  0  0  0  0  0  0  0  0
  -22.7723  -29.1305   23.5192 O   0  0  0  0  0  0  0  0  0  0  0  0
  -30.2831  -23.7266   18.2418 O   0  0  0  0  0  0  0  0  0  0  0  0
  -30.4541  -25.3620   22.6934 O   0  0  0  0  0  0  0  0  0  0  0  0
  -30.8694  -15.1092   20.5740 O   0  0  0  0  0  0  0  0  0  0  0  0
  -24.8712  -29.1652   21.8461 O   0  0  0  0  0  0  0  0  0  1  0  0
  -31.6270  -12.4622   15.7966 F   0  0  0  0  0  0  0  0  0  0  0  0
  -29.2603  -12.9764   19.8636 F   0  0  0  0  0  0  0  0  0  0  0  0
  1  2  1  0  0  0  0
  1  5  2  0  0  0  0
  2  6  2  0  0  0  0
  3  8  2  0  0  0  0
  3 17  1  0  0  0  0
  4  9  1  0  0  0  0
  4 17  2  0  0  0  0
  5 20  1  0  0  0  0
  6 22  1  0  0  0  0
  7 10  2  0  0  0  0
  7 21  1  0  0  0  0
  8 27  1  0  0  0  0
  9 27  2  0  0  0  0
 10 28  1  0  0  0  0
 11 12  2  0  0  0  0
 11 29  1  0  0  0  0
 12 30  1  0  0  0  0
 13 18  2  0  0  0  0
 13 24  1  0  0  0  0
 14 23  1  0  0  0  0
 14 28  2  0  0  0  0
 15 25  2  0  0  0  0
 15 26  1  0  0  0  0
 16 30  2  0  0  0  0
 16 31  1  0  0  0  0
 17 32  1  0  0  0  0
 18 25  1  0  0  0  0
 18 34  1  0  0  0  0
 19 32  1  0  0  0  0
 19 33  2  0  0  0  0
 19 36  1  0  0  0  0
 20 22  2  0  0  0  0
 20 42  1  0  0  0  0
 21 23  2  0  0  0  0
 21 43  1  0  0  0  0
 22 51  1  0  0  0  0
 23 44  1  0  0  0  0
 24 26  2  0  0  0  0
 24 61  1  0  0  0  0
 25 54  1  0  0  0  0
 26 55  1  0  0  0  0
 27 82  1  0  0  0  0
 28 83  1  0  0  0  0
 29 31  2  0  0  0  0
 29 82  1  0  0  0  0
 30 84  1  0  0  0  0
 31 85  1  0  0  0  0
 32 67  2  0  0  0  0
 33 68  1  0  0  0  0
 33 71  1  0  0  0  0
 34 35  2  0  0  0  0
 35 37  1  0  0  0  0
 36 72  1  0  0  0  0
 36 76  2  0  0  0  0
 37 69  1  0  0  0  0
 37 77  2  0  0  0  0
 38 52  1  0  0  0  0
 38 73  1  0  0  0  0
 38 78  2  0  0  0  0
 39 62  1  0  0  0  0
 39 63  1  0  0  0  0
 39 79  2  0  0  0  0
 40 64  1  0  0  0  0
 40 70  1  0  0  0  0
 40 80  2  0  0  0  0
 41 65  1  0  0  0  0
 41 74  1  0  0  0  0
 41 81  2  0  0  0  0
 42 45  1  0  0  0  0
 43 52  1  0  0  0  0
 44 70  1  0  0  0  0
 45 47  1  0  0  0  0
 46 48  1  0  0  0  0
 46 49  1  0  0  0  0
 47 51  1  0  0  0  0
 48 53  1  0  0  0  0
 49 69  1  0  0  0  0
 50 53  1  0  0  0  0
 50 69  1  0  0  0  0
 51 73  1  0  0  0  0
 52 70  1  0  0  0  0
 53 68  1  0  0  0  0
 56 65  1  0  0  0  0
 57 66  1  0  0  0  0
 58 66  1  0  0  0  0
 59 66  1  0  0  0  0
 60 75  1  0  0  0  0
 61 62  1  0  0  0  0
 63 83  1  0  0  0  0
 64 66  1  0  0  0  0
 64 74  1  0  0  0  0
 65 75  1  0  0  0  0
 67 68  1  0  0  0  0
M  CHG  1  75   1
M  ISO  4  35 100  37 100  63 101  83 101
M  END
> <Batch ID>
0130

> <Smiles>
CNC(C)C(=O)NC(C(=O)N1Cc2cc([101O:1][101CH2:1]C(=O)CCc3cc(C=[100CH:0][100C:0](=O)N4CCCC(n5nc(-c6ccc(Oc7ccc(F)cc7F)cc6)c(C(N)=O)c5N)C4)c(C)cc3C)ccc2CC1C(=O)NC1CCCc2ccccc21)C(C)(C)C

> <Shape>
0.199

> <Color>
0.075

> <Negative vol penalty>
0.000

$$$$

  -OEChem-04052302223D

 84 92  0     1  0  0  0  0  0999 V2000
  -28.0924  -33.7096   27.2022 C   0  0  0  0  0  0  0  0  0  0  0  0
  -28.3251  -32.7194   26.2530 C   0  0  0  0  0  0  0  0  0  0  0  0
  -24.2325   -9.0170   22.2901 C   0  0  0  0  0  0  0  0  0  0  0  0
  -24.1717   -8.6368   19.9050 C   0  0  0  0  0  0  0  0  0  0  0  0
  -30.0985  -20.5283   21.8575 C   0  0  0  0  0  0  0  0  0  0  0  0
  -26.7903  -33.9795   27.6214 C   0  0  0  0  0  0  0  0  0  0  0  0
  -27.2560  -31.9978   25.7233 C   0  0  0  0  0  0  0  0  0  0  0  0
  -27.5622  -31.4811   20.6950 C   0  0  0  0  0  0  0  0  0  0  0  0
  -30.3400  -21.8796   21.6098 C   0  0  0  0  0  0  0  0  0  0  0  0
  -23.1436   -8.1609   22.4543 C   0  0  0  0  0  0  0  0  0  0  0  0
  -23.0828   -7.7807   20.0692 C   0  0  0  0  0  0  0  0  0  0  0  0
  -28.4446  -30.5185   20.2064 C   0  0  0  0  0  0  0  0  0  0  0  0
  -22.5878   -4.8269   22.5462 C   0  0  0  0  0  0  0  0  0  0  0  0
  -22.6500   -3.8895   23.5771 C   0  0  0  0  0  0  0  0  0  0  0  0
  -26.5982  -29.0010   19.8788 C   0  0  0  0  0  0  0  0  0  0  0  0
  -30.3884  -21.4355   19.2354 C   0  0  0  0  0  0  0  0  0  0  0  0
  -20.6708   -4.8531   24.5727 C   0  0  0  0  0  0  0  0  0  0  0  0
  -24.7465   -9.2550   21.0154 C   0  0  0  0  0  0  0  0  0  0  0  0
  -30.0022  -19.6306   20.7942 C   0  0  0  0  0  0  0  0  0  0  0  0
  -27.2354   -9.7939   20.8651 C   0  0  0  0  0  0  0  0  0  0  0  0
  -25.7038  -33.2674   27.0895 C   0  0  0  0  0  0  0  0  0  0  0  0
  -26.1903  -31.2065   20.7895 C   0  0  0  0  0  0  0  0  0  0  0  0
  -25.9383  -32.2575   26.1368 C   0  0  0  0  0  0  0  0  0  0  0  0
  -25.7002  -29.9627   20.3666 C   0  0  0  0  0  0  0  0  0  0  0  0
  -30.4849  -22.3332   20.2987 C   0  0  0  0  0  0  0  0  0  0  0  0
  -30.1471  -20.0842   19.4832 C   0  0  0  0  0  0  0  0  0  0  0  0
  -22.5687   -7.5427   21.3439 C   0  0  0  0  0  0  0  0  0  0  0  0
  -27.9630  -29.2772   19.8010 C   0  0  0  0  0  0  0  0  0  0  0  0
  -21.5671   -5.7775   22.5285 C   0  0  0  0  0  0  0  0  0  0  0  0
  -21.6915   -3.9025   24.5904 C   0  0  0  0  0  0  0  0  0  0  0  0
  -20.6086   -5.7906   23.5417 C   0  0  0  0  0  0  0  0  0  0  0  0
  -25.8710  -10.1397   20.8450 C   0  0  0  0  0  0  0  0  0  0  0  0
  -27.8937  -10.9814   20.6582 C   0  0  0  0  0  0  0  0  0  0  0  0
  -29.7497  -18.2257   21.0859 C   0  0  0  0  0  0  0  0  0  0  0  0
  -28.6576  -17.7423   21.7126 C   0  0  0  0  0  0  0  0  0  0  0  0
  -27.8526   -8.5136   21.0540 C   0  0  0  0  0  0  0  0  0  0  0  0
  -28.5423  -16.2857   21.9266 C   0  0  0  0  0  0  0  0  0  0  0  0
  -24.0943  -31.0442   23.1736 C   0  0  0  0  0  0  0  0  0  0  0  0
  -29.7135  -26.1045   19.6357 C   0  0  0  0  0  0  0  0  0  0  0  0
  -21.9626  -30.6745   20.7567 C   0  0  0  0  0  0  0  0  0  0  0  0
  -21.3761  -29.7303   17.5300 C   0  0  0  0  0  0  0  0  0  0  0  0
  -24.3187  -33.5623   27.6083 C   0  0  0  0  0  0  0  0  0  0  0  0
  -25.2482  -32.2651   21.2937 C   0  0  0  0  0  0  0  0  0  0  0  0
  -24.2336  -29.6255   20.4288 C   0  0  0  0  0  0  0  0  0  0  0  0
  -23.2057  -33.0093   26.7220 C   0  0  0  0  0  0  0  0  0  0  0  0
  -26.1813  -15.5058   19.2341 C   0  0  0  0  0  0  0  0  0  0  0  0
  -23.5032  -31.5655   26.3297 C   0  0  0  0  0  0  0  0  0  0  0  0
  -25.9697  -14.0102   19.4533 C   0  0  0  0  0  0  0  0  0  0  0  0
  -26.3926  -16.2523   20.5505 C   0  0  0  0  0  0  0  0  0  0  0  0
  -27.2815  -14.1931   21.6040 C   0  0  0  0  0  0  0  0  0  0  0  0
  -24.8023  -31.4702   25.5206 C   0  0  1  0  0  0  0  0  0  0  0  0
  -23.9383  -31.6938   21.8278 C   0  0  1  0  0  0  0  0  0  0  0  0
  -27.1138  -13.4153   20.2894 C   0  0  1  0  0  0  0  0  0  0  0  0
  -30.0503  -19.1509   18.3194 C   0  0  0  0  0  0  0  0  0  0  0  0
  -19.5268  -29.5042   15.8489 C   0  0  0  0  0  0  0  0  0  0  0  0
  -20.9977  -28.1439   22.1621 C   0  0  0  0  0  0  0  0  0  0  0  0
  -19.8686  -27.4742   20.0303 C   0  0  0  0  0  0  0  0  0  0  0  0
  -19.1760  -29.5639   21.2032 C   0  0  0  0  0  0  0  0  0  0  0  0
  -22.6519  -31.6689   15.6934 C   0  0  0  0  0  0  0  0  0  0  0  0
  -30.7446  -23.7962   20.0298 C   0  0  0  0  0  0  0  0  0  0  0  0
  -29.4668  -24.6182   19.8507 C   0  0  0  0  0  0  0  0  0  0  0  0
  -28.4718  -26.9690   19.5383 C   0  0  0  0  0  0  0  0  0  1  0  0
  -21.3983  -29.4965   19.9997 C   0  0  1  0  0  0  0  0  0  0  0  0
  -20.6161  -30.4084   16.4044 C   0  0  2  0  0  0  0  0  0  0  0  0
  -20.3881  -28.6750   20.8493 C   0  0  0  0  0  0  0  0  0  0  0  0
  -25.6728  -11.4448   20.6415 N   0  0  0  0  0  0  0  0  0  0  0  0
  -26.9214  -11.9295   20.5319 N   0  0  0  0  0  0  0  0  0  0  0  0
  -27.4519  -15.6295   21.3584 N   0  0  0  0  0  0  0  0  0  0  0  0
  -23.3532  -30.6914   20.9350 N   0  0  0  0  0  0  0  0  0  0  0  0
  -29.2036  -11.2967   20.5738 N   0  0  0  0  0  0  0  0  0  0  0  0
  -27.0286   -7.3976   21.2536 N   0  0  0  0  0  0  0  0  0  0  0  0
  -24.5783  -31.8896   24.1537 N   0  0  0  0  0  0  0  0  0  0  0  0
  -20.8407  -30.0348   18.7637 N   0  0  0  0  0  0  0  0  0  0  0  0
  -21.5438  -30.7637   15.2935 N   0  3  0  0  0  0  0  0  0  0  0  0
  -29.0983   -8.3663   21.0622 O   0  0  0  0  0  0  0  0  0  0  0  0
  -29.4173  -15.7390   22.6005 O   0  0  0  0  0  0  0  0  0  0  0  0
  -23.7962  -29.8638   23.3130 O   0  0  0  0  0  0  0  0  0  0  0  0
  -30.8432  -26.5875   19.5792 O   0  0  0  0  0  0  0  0  0  0  0  0
  -21.1985  -31.5511   21.1682 O   0  0  0  0  0  0  0  0  0  0  0  0
  -22.3453  -29.0003   17.3343 O   0  0  0  0  0  0  0  0  0  0  0  0
  -21.5063   -6.7071   21.5038 O   0  0  0  0  0  0  0  0  0  0  0  0
  -28.8221  -28.3357   19.3243 O   0  0  0  0  0  0  0  0  0  1  0  0
  -21.7504   -3.0012   25.5795 F   0  0  0  0  0  0  0  0  0  0  0  0
  -19.6250   -6.7006   23.5295 F   0  0  0  0  0  0  0  0  0  0  0  0
  1  2  1  0  0  0  0
  1  6  2  0  0  0  0
  2  7  2  0  0  0  0
  3 10  2  0  0  0  0
  3 18  1  0  0  0  0
  4 11  1  0  0  0  0
  4 18  2  0  0  0  0
  5  9  2  0  0  0  0
  5 19  1  0  0  0  0
  6 21  1  0  0  0  0
  7 23  1  0  0  0  0
  8 12  2  0  0  0  0
  8 22  1  0  0  0  0
  9 25  1  0  0  0  0
 10 27  1  0  0  0  0
 11 27  2  0  0  0  0
 12 28  1  0  0  0  0
 13 14  2  0  0  0  0
 13 29  1  0  0  0  0
 14 30  1  0  0  0  0
 15 24  1  0  0  0  0
 15 28  2  0  0  0  0
 16 25  2  0  0  0  0
 16 26  1  0  0  0  0
 17 30  2  0  0  0  0
 17 31  1  0  0  0  0
 18 32  1  0  0  0  0
 19 26  2  0  0  0  0
 19 34  1  0  0  0  0
 20 32  1  0  0  0  0
 20 33  2  0  0  0  0
 20 36  1  0  0  0  0
 21 23  2  0  0  0  0
 21 42  1  0  0  0  0
 22 24  2  0  0  0  0
 22 43  1  0  0  0  0
 23 51  1  0  0  0  0
 24 44  1  0  0  0  0
 25 60  1  0  0  0  0
 26 54  1  0  0  0  0
 27 81  1  0  0  0  0
 28 82  1  0  0  0  0
 29 31  2  0  0  0  0
 29 81  1  0  0  0  0
 30 83  1  0  0  0  0
 31 84  1  0  0  0  0
 32 66  2  0  0  0  0
 33 67  1  0  0  0  0
 33 70  1  0  0  0  0
 34 35  2  0  0  0  0
 35 37  1  0  0  0  0
 36 71  1  0  0  0  0
 36 75  2  0  0  0  0
 37 68  1  0  0  0  0
 37 76  2  0  0  0  0
 38 52  1  0  0  0  0
 38 72  1  0  0  0  0
 38 77  2  0  0  0  0
 39 61  1  0  0  0  0
 39 62  1  0  0  0  0
 39 78  2  0  0  0  0
 40 63  1  0  0  0  0
 40 69  1  0  0  0  0
 40 79  2  0  0  0  0
 41 64  1  0  0  0  0
 41 73  1  0  0  0  0
 41 80  2  0  0  0  0
 42 45  1  0  0  0  0
 43 52  1  0  0  0  0
 44 69  1  0  0  0  0
 45 47  1  0  0  0  0
 46 48  1  0  0  0  0
 46 49  1  0  0  0  0
 47 51  1  0  0  0  0
 48 53  1  0  0  0  0
 49 68  1  0  0  0  0
 50 53  1  0  0  0  0
 50 68  1  0  0  0  0
 51 72  1  0  0  0  0
 52 69  1  0  0  0  0
 53 67  1  0  0  0  0
 55 64  1  0  0  0  0
 56 65  1  0  0  0  0
 57 65  1  0  0  0  0
 58 65  1  0  0  0  0
 59 74  1  0  0  0  0
 60 61  1  0  0  0  0
 62 82  1  0  0  0  0
 63 65  1  0  0  0  0
 63 73  1  0  0  0  0
 64 74  1  0  0  0  0
 66 67  1  0  0  0  0
M  CHG  1  74   1
M  ISO  4  35 100  37 100  62 101  82 101
M  END
> <Batch ID>
0130

> <Smiles>
CNC(C)C(=O)NC(C(=O)N1Cc2cc([101O:1][101CH2:1]C(=O)CCc3ccc(C=[100CH:0][100C:0](=O)N4CCCC(n5nc(-c6ccc(Oc7ccc(F)cc7F)cc6)c(C(N)=O)c5N)C4)c(C)c3)ccc2CC1C(=O)NC1CCCc2ccccc21)C(C)(C)C

> <Shape>
0.302

> <Color>
0.084

> <Negative vol penalty>
0.000

$$$$

  -OEChem-04052302223D

 86 94  0     1  0  0  0  0  0999 V2000
  -27.6646  -10.7371   31.8586 C   0  0  0  0  0  0  0  0  0  0  0  0
  -28.0149   -9.9952   30.9814 C   0  0  0  0  0  0  0  0  0  0  0  0
  -18.3722   -9.9713   27.7072 C   0  0  0  0  0  0  0  0  0  0  0  0
  -19.6908   -9.8906   28.1432 C   0  0  0  0  0  0  0  0  0  0  0  0
  -23.2888   -9.7995   19.9122 C   0  0  0  0  0  0  0  0  0  0  0  0
  -23.7385   -9.9398   22.2818 C   0  0  0  0  0  0  0  0  0  0  0  0
  -17.3281   -9.7328   28.5999 C   0  0  0  0  0  0  0  0  0  0  0  0
  -19.9661   -9.5724   29.4726 C   0  0  0  0  0  0  0  0  0  0  0  0
  -23.6689   -6.1472   29.9235 C   0  0  0  0  0  0  0  0  0  0  0  0
  -30.3920  -12.4846   27.2636 C   0  0  0  0  0  0  0  0  0  0  0  0
  -30.7328  -13.1350   26.0777 C   0  0  0  0  0  0  0  0  0  0  0  0
  -22.5624   -8.6270   20.1195 C   0  0  0  0  0  0  0  0  0  0  0  0
  -23.0120   -8.7673   22.4891 C   0  0  0  0  0  0  0  0  0  0  0  0
  -24.9781   -6.6008   29.7685 C   0  0  0  0  0  0  0  0  0  0  0  0
  -19.7649   -7.8562   22.7049 C   0  0  0  0  0  0  0  0  0  0  0  0
  -18.8621   -7.8344   23.7679 C   0  0  0  0  0  0  0  0  0  0  0  0
  -25.2377   -6.6524   32.1662 C   0  0  0  0  0  0  0  0  0  0  0  0
  -31.2139  -10.4013   26.3574 C   0  0  0  0  0  0  0  0  0  0  0  0
  -20.0674   -5.9871   24.7537 C   0  0  0  0  0  0  0  0  0  0  0  0
  -23.8770  -10.4559   20.9933 C   0  0  0  0  0  0  0  0  0  0  0  0
  -24.1364  -12.9860   20.7951 C   0  0  0  0  0  0  0  0  0  0  0  0
  -17.5910   -9.4020   29.9386 C   0  0  0  0  0  0  0  0  0  0  0  0
  -23.1297   -5.9530   31.2034 C   0  0  0  0  0  0  0  0  0  0  0  0
  -18.9246   -9.3305   30.3844 C   0  0  0  0  0  0  0  0  0  0  0  0
  -23.9223   -6.1939   32.3348 C   0  0  0  0  0  0  0  0  0  0  0  0
  -30.6326  -11.1178   27.4035 C   0  0  0  0  0  0  0  0  0  0  0  0
  -31.3142  -12.4185   25.0316 C   0  0  0  0  0  0  0  0  0  0  0  0
  -31.5548  -11.0517   25.1715 C   0  0  0  0  0  0  0  0  0  0  0  0
  -22.4239   -8.1109   21.4079 C   0  0  0  0  0  0  0  0  0  0  0  0
  -25.7618   -6.8562   30.8900 C   0  0  0  0  0  0  0  0  0  0  0  0
  -20.8190   -6.9434   22.6663 C   0  0  0  0  0  0  0  0  0  0  0  0
  -19.0133   -6.8999   24.7924 C   0  0  0  0  0  0  0  0  0  0  0  0
  -20.9702   -6.0089   23.6907 C   0  0  0  0  0  0  0  0  0  0  0  0
  -24.6280  -11.6669   20.7798 C   0  0  0  0  0  0  0  0  0  0  0  0
  -25.2380  -13.7659   20.5407 C   0  0  0  0  0  0  0  0  0  0  0  0
  -22.8033  -13.4635   21.0194 C   0  0  0  0  0  0  0  0  0  0  0  0
  -20.7045   -7.2083   32.8301 C   0  0  0  0  0  0  0  0  0  0  0  0
  -21.4885   -4.9282   35.0000 C   0  0  0  0  0  0  0  0  0  0  0  0
  -23.8663   -2.8398   36.2775 C   0  0  0  0  0  0  0  0  0  0  0  0
  -31.1087  -12.9228   21.3628 C   0  0  0  0  0  0  0  0  0  0  0  0
  -16.4286   -9.1992   30.8780 C   0  0  0  0  0  0  0  0  0  0  0  0
  -21.7246   -5.4378   31.3534 C   0  0  0  0  0  0  0  0  0  0  0  0
  -23.3973   -5.9818   33.7305 C   0  0  0  0  0  0  0  0  0  0  0  0
  -16.8122   -8.5001   32.1797 C   0  0  0  0  0  0  0  0  0  0  0  0
  -29.4611  -13.6625   18.2944 C   0  0  0  0  0  0  0  0  0  0  0  0
  -18.0748   -9.1221   32.7677 C   0  0  0  0  0  0  0  0  0  0  0  0
  -27.9913  -13.3540   18.5848 C   0  0  0  0  0  0  0  0  0  0  0  0
  -30.3941  -12.6830   19.0031 C   0  0  0  0  0  0  0  0  0  0  0  0
  -28.7067  -12.2535   20.7472 C   0  0  0  0  0  0  0  0  0  0  0  0
  -19.2641   -8.9637   31.8128 C   0  0  1  0  0  0  0  0  0  0  0  0
  -21.1093   -5.7663   32.7102 C   0  0  1  0  0  0  0  0  0  0  0  0
  -27.7290  -13.2487   20.0992 C   0  0  2  0  0  0  0  0  0  0  0  0
  -27.2375  -11.6418   32.9245 C   0  0  0  0  0  0  0  0  0  0  0  0
  -32.1758  -10.2640   24.0649 C   0  0  0  0  0  0  0  0  0  0  0  0
  -24.2210   -1.1229   38.0729 C   0  0  0  0  0  0  0  0  0  0  0  0
  -21.6525   -7.1479   37.0870 C   0  0  0  0  0  0  0  0  0  0  0  0
  -22.9034   -5.5656   38.5702 C   0  0  0  0  0  0  0  0  0  0  0  0
  -20.5621   -5.0437   37.8856 C   0  0  0  0  0  0  0  0  0  0  0  0
  -24.4832   -0.7282   34.2978 C   0  0  0  0  0  0  0  0  0  0  0  0
  -30.2635  -10.4147   28.6857 C   0  0  0  0  0  0  0  0  0  0  0  0
  -31.6695  -13.1362   23.7710 C   0  0  0  0  0  0  0  0  0  0  0  0
  -28.8293   -9.8703   28.6376 C   0  0  0  0  0  0  0  0  0  0  0  0
  -27.3243   -8.0857   29.5850 C   0  0  0  0  0  0  0  0  0  1  0  0
  -28.4475   -9.0807   29.9030 C   0  0  2  0  0  0  0  0  0  0  0  0
  -22.4224   -4.8550   36.1839 C   0  0  1  0  0  0  0  0  0  0  0  0
  -23.8284   -1.3622   36.6233 C   0  0  2  0  0  0  0  0  0  0  0  0
  -21.8946   -5.6590   37.4055 C   0  0  0  0  0  0  0  0  0  0  0  0
  -25.9397  -11.6083   20.5348 N   0  0  0  0  0  0  0  0  0  0  0  0
  -26.2817  -12.9002   20.3938 N   0  0  0  0  0  0  0  0  0  0  0  0
  -22.0154   -5.4831   33.8251 N   0  0  0  0  0  0  0  0  0  0  0  0
  -30.0942  -12.6315   20.4360 N   0  0  0  0  0  0  0  0  0  0  0  0
  -25.4060  -15.1008   20.4305 N   0  0  0  0  0  0  0  0  0  0  0  0
  -21.7906  -12.5266   21.2663 N   0  0  0  0  0  0  0  0  0  0  0  0
  -19.7893   -7.6167   31.8788 N   0  0  0  0  0  0  0  0  0  0  0  0
  -22.6349   -3.4362   36.4490 N   0  0  0  0  0  0  0  0  0  0  0  0
  -30.7384  -12.8571   22.7005 N   0  0  0  0  0  0  0  0  0  0  0  0
  -24.7670   -0.6018   35.7505 N   0  3  0  0  0  0  0  0  0  0  0  0
  -22.5154  -14.6840   20.9851 O   0  0  0  0  0  0  0  0  0  0  0  0
  -21.1857   -7.8989   33.7207 O   0  0  0  0  0  0  0  0  0  0  0  0
  -20.3363   -4.5019   35.1113 O   0  0  0  0  0  0  0  0  0  0  0  0
  -24.8870   -3.4090   35.8971 O   0  0  0  0  0  0  0  0  0  0  0  0
  -32.2578  -13.2246   21.0232 O   0  0  0  0  0  0  0  0  0  0  0  0
  -21.7149   -6.9669   21.6106 O   0  0  0  0  0  0  0  0  0  0  0  0
  -27.0398   -7.2995   30.7415 O   0  0  0  0  0  0  0  0  0  1  0  0
  -18.1471   -6.8801   25.8139 F   0  0  0  0  0  0  0  0  0  0  0  0
  -21.9815   -5.1302   23.6596 F   0  0  0  0  0  0  0  0  0  0  0  0
  1  2  3  0  0  0  0
  1 53  1  0  0  0  0
  2 64  1  0  0  0  0
  3  4  1  0  0  0  0
  3  7  2  0  0  0  0
  4  8  2  0  0  0  0
  5 12  2  0  0  0  0
  5 20  1  0  0  0  0
  6 13  1  0  0  0  0
  6 20  2  0  0  0  0
  7 22  1  0  0  0  0
  8 24  1  0  0  0  0
  9 14  2  0  0  0  0
  9 23  1  0  0  0  0
 10 11  2  0  0  0  0
 10 26  1  0  0  0  0
 11 27  1  0  0  0  0
 12 29  1  0  0  0  0
 13 29  2  0  0  0  0
 14 30  1  0  0  0  0
 15 16  2  0  0  0  0
 15 31  1  0  0  0  0
 16 32  1  0  0  0  0
 17 25  1  0  0  0  0
 17 30  2  0  0  0  0
 18 26  2  0  0  0  0
 18 28  1  0  0  0  0
 19 32  2  0  0  0  0
 19 33  1  0  0  0  0
 20 34  1  0  0  0  0
 21 34  1  0  0  0  0
 21 35  2  0  0  0  0
 21 36  1  0  0  0  0
 22 24  2  0  0  0  0
 22 41  1  0  0  0  0
 23 25  2  0  0  0  0
 23 42  1  0  0  0  0
 24 50  1  0  0  0  0
 25 43  1  0  0  0  0
 26 60  1  0  0  0  0
 27 28  2  0  0  0  0
 27 61  1  0  0  0  0
 28 54  1  0  0  0  0
 29 83  1  0  0  0  0
 30 84  1  0  0  0  0
 31 33  2  0  0  0  0
 31 83  1  0  0  0  0
 32 85  1  0  0  0  0
 33 86  1  0  0  0  0
 34 68  2  0  0  0  0
 35 69  1  0  0  0  0
 35 72  1  0  0  0  0
 36 73  1  0  0  0  0
 36 78  2  0  0  0  0
 37 51  1  0  0  0  0
 37 74  1  0  0  0  0
 37 79  2  0  0  0  0
 38 65  1  0  0  0  0
 38 70  1  0  0  0  0
 38 80  2  0  0  0  0
 39 66  1  0  0  0  0
 39 75  1  0  0  0  0
 39 81  2  0  0  0  0
 40 71  1  0  0  0  0
 40 76  1  0  0  0  0
 40 82  2  0  0  0  0
 41 44  1  0  0  0  0
 42 51  1  0  0  0  0
 43 70  1  0  0  0  0
 44 46  1  0  0  0  0
 45 47  1  0  0  0  0
 45 48  1  0  0  0  0
 46 50  1  0  0  0  0
 47 52  1  0  0  0  0
 48 71  1  0  0  0  0
 49 52  1  0  0  0  0
 49 71  1  0  0  0  0
 50 74  1  0  0  0  0
 51 70  1  0  0  0  0
 52 69  1  0  0  0  0
 55 66  1  0  0  0  0
 56 67  1  0  0  0  0
 57 67  1  0  0  0  0
 58 67  1  0  0  0  0
 59 77  1  0  0  0  0
 60 62  1  0  0  0  0
 61 76  1  0  0  0  0
 62 64  1  0  0  0  0
 63 64  1  0  0  0  0
 63 84  1  0  0  0  0
 65 67  1  0  0  0  0
 65 75  1  0  0  0  0
 66 77  1  0  0  0  0
 68 69  1  0  0  0  0
M  CHG  1  77   1
M  ISO  4  40 100  63 101  76 100  84 101
M  END
> <Batch ID>
0130

> <Smiles>
CC#CC(CCc1ccc(C[100NH:0][100C:0](=O)N2CCCC(n3nc(-c4ccc(Oc5ccc(F)cc5F)cc4)c(C(N)=O)c3N)C2)c(C)c1)[101CH2:1][101O:1]c1ccc2c(c1)CN(C(=O)C(NC(=O)C(C)NC)C(C)(C)C)C(C(=O)NC1CCCc3ccccc31)C2

> <Shape>
0.132

> <Color>
0.174

> <Negative vol penalty>
0.000

$$$$

  -OEChem-04052302223D

 86 94  0     1  0  0  0  0  0999 V2000
  -27.5621  -18.5660   20.6768 C   0  0  0  0  0  0  0  0  0  0  0  0
  -28.2230  -19.4062   21.5658 C   0  0  0  0  0  0  0  0  0  0  0  0
  -23.1689   -9.7557   20.0647 C   0  0  0  0  0  0  0  0  0  0  0  0
  -23.9053   -9.9516   22.3574 C   0  0  0  0  0  0  0  0  0  0  0  0
  -33.8850  -17.8882   23.8270 C   0  0  0  0  0  0  0  0  0  0  0  0
  -34.8270  -18.8877   24.0704 C   0  0  0  0  0  0  0  0  0  0  0  0
  -27.4366  -18.9336   19.3388 C   0  0  0  0  0  0  0  0  0  0  0  0
  -28.7481  -20.6195   21.1197 C   0  0  0  0  0  0  0  0  0  0  0  0
  -30.5733  -23.6551   24.5340 C   0  0  0  0  0  0  0  0  0  0  0  0
  -22.4721   -8.5915   20.3880 C   0  0  0  0  0  0  0  0  0  0  0  0
  -23.2084   -8.7874   22.6807 C   0  0  0  0  0  0  0  0  0  0  0  0
  -31.7715  -23.4054   25.2015 C   0  0  0  0  0  0  0  0  0  0  0  0
  -20.0111   -7.8949   23.3142 C   0  0  0  0  0  0  0  0  0  0  0  0
  -19.2451   -7.9025   24.4798 C   0  0  0  0  0  0  0  0  0  0  0  0
  -32.6432  -19.4031   22.4127 C   0  0  0  0  0  0  0  0  0  0  0  0
  -32.8753  -25.0480   23.8223 C   0  0  0  0  0  0  0  0  0  0  0  0
  -20.5600   -6.0748   25.3559 C   0  0  0  0  0  0  0  0  0  0  0  0
  -23.8856  -10.4358   21.0494 C   0  0  0  0  0  0  0  0  0  0  0  0
  -32.7931  -18.1459   22.9981 C   0  0  0  0  0  0  0  0  0  0  0  0
  -34.6771  -20.1448   23.4850 C   0  0  0  0  0  0  0  0  0  0  0  0
  -24.1215  -12.9592   20.7589 C   0  0  0  0  0  0  0  0  0  0  0  0
  -27.9716  -20.1464   18.8742 C   0  0  0  0  0  0  0  0  0  0  0  0
  -30.5194  -24.5970   23.4965 C   0  0  0  0  0  0  0  0  0  0  0  0
  -28.6108  -21.0193   19.7781 C   0  0  0  0  0  0  0  0  0  0  0  0
  -31.6746  -25.3097   23.1449 C   0  0  0  0  0  0  0  0  0  0  0  0
  -33.5852  -20.4026   22.6562 C   0  0  0  0  0  0  0  0  0  0  0  0
  -22.4918   -8.1073   21.6959 C   0  0  0  0  0  0  0  0  0  0  0  0
  -32.9234  -24.0998   24.8438 C   0  0  0  0  0  0  0  0  0  0  0  0
  -21.0516   -6.9772   23.1693 C   0  0  0  0  0  0  0  0  0  0  0  0
  -19.5196   -6.9924   25.5007 C   0  0  0  0  0  0  0  0  0  0  0  0
  -21.3261   -6.0671   24.1902 C   0  0  0  0  0  0  0  0  0  0  0  0
  -24.6061  -11.6382   20.7159 C   0  0  0  0  0  0  0  0  0  0  0  0
  -25.1844  -13.7283   20.3527 C   0  0  0  0  0  0  0  0  0  0  0  0
  -31.8116  -17.1027   22.7448 C   0  0  0  0  0  0  0  0  0  0  0  0
  -30.9451  -17.0658   21.7065 C   0  0  0  0  0  0  0  0  0  0  0  0
  -35.7006  -21.1954   23.7624 C   0  0  0  0  0  0  0  0  0  0  0  0
  -22.8263  -13.4475   21.1327 C   0  0  0  0  0  0  0  0  0  0  0  0
  -29.8384  -24.4800   20.3938 C   0  0  0  0  0  0  0  0  0  0  0  0
  -30.6408  -14.9332   20.6099 C   0  0  0  0  0  0  0  0  0  0  0  0
  -30.1019  -27.7057   20.6122 C   0  0  0  0  0  0  0  0  0  0  0  0
  -31.3871  -30.4025   22.2622 C   0  0  0  0  0  0  0  0  0  0  0  0
  -27.8003  -20.4983   17.4175 C   0  0  0  0  0  0  0  0  0  0  0  0
  -29.2131  -24.8740   22.8042 C   0  0  0  0  0  0  0  0  0  0  0  0
  -31.6652  -26.3457   22.0516 C   0  0  0  0  0  0  0  0  0  0  0  0
  -28.7673  -21.5810   16.9497 C   0  0  0  0  0  0  0  0  0  0  0  0
  -29.5986  -12.4243   18.2735 C   0  0  0  0  0  0  0  0  0  0  0  0
  -28.7384  -22.7562   17.9155 C   0  0  0  0  0  0  0  0  0  0  0  0
  -28.1784  -12.0831   18.7228 C   0  0  0  0  0  0  0  0  0  0  0  0
  -30.4979  -12.7475   19.4625 C   0  0  0  0  0  0  0  0  0  0  0  0
  -28.5516  -13.4937   20.7954 C   0  0  0  0  0  0  0  0  0  0  0  0
  -29.2167  -22.3297   19.3091 C   0  0  1  0  0  0  0  0  0  0  0  0
  -29.3896  -25.4845   21.4172 C   0  0  1  0  0  0  0  0  0  0  0  0
  -27.6023  -13.1906   19.6227 C   0  0  2  0  0  0  0  0  0  0  0  0
  -33.7917  -21.7339   20.5416 C   0  0  0  0  0  0  0  0  0  0  0  0
  -31.4595  -32.9096   22.1825 C   0  0  0  0  0  0  0  0  0  0  0  0
  -32.1041  -27.5723   18.3135 C   0  0  0  0  0  0  0  0  0  0  0  0
  -32.8334  -29.8929   18.9063 C   0  0  0  0  0  0  0  0  0  0  0  0
  -30.4849  -29.4734   18.1776 C   0  0  0  0  0  0  0  0  0  0  0  0
  -30.0911  -30.6399   24.9123 C   0  0  0  0  0  0  0  0  0  0  0  0
  -33.4018  -21.7403   22.0164 C   0  0  0  0  0  0  0  0  0  0  0  0
  -29.9620  -15.9615   21.4794 C   0  0  0  0  0  0  0  0  0  0  0  0
  -35.9247  -21.6350   25.2015 C   0  0  0  0  0  0  0  0  0  0  0  0
  -36.3611  -23.0954   25.2981 C   0  0  0  0  0  0  0  0  0  0  0  0
  -35.2989  -24.0371   24.7495 C   0  0  0  0  0  0  0  0  0  1  0  0
  -31.2297  -28.6985   20.4660 C   0  0  1  0  0  0  0  0  0  0  0  0
  -30.7429  -31.6906   22.7420 C   0  0  2  0  0  0  0  0  0  0  0  0
  -31.6640  -28.8884   18.9852 C   0  0  0  0  0  0  0  0  0  0  0  0
  -25.8779  -11.5684   20.3139 N   0  0  0  0  0  0  0  0  0  0  0  0
  -26.2014  -12.8552   20.1005 N   0  0  0  0  0  0  0  0  0  0  0  0
  -30.3652  -26.5763   21.4002 N   0  0  0  0  0  0  0  0  0  0  0  0
  -29.9052  -13.7879   20.3049 N   0  0  0  0  0  0  0  0  0  0  0  0
  -25.3391  -15.0595   20.1900 N   0  0  0  0  0  0  0  0  0  0  0  0
  -21.8504  -12.5209   21.5245 N   0  0  0  0  0  0  0  0  0  0  0  0
  -28.9780  -23.4096   20.2412 N   0  0  0  0  0  0  0  0  0  0  0  0
  -30.7821  -29.9238   21.1193 N   0  0  0  0  0  0  0  0  0  0  0  0
  -30.7801  -31.7654   24.2300 N   0  3  0  0  0  0  0  0  0  0  0  0
  -36.3348  -21.6772   22.8265 O   0  0  0  0  0  0  0  0  0  0  0  0
  -22.5376  -14.6679   21.1040 O   0  0  0  0  0  0  0  0  0  0  0  0
  -30.8868  -24.6633   19.7866 O   0  0  0  0  0  0  0  0  0  0  0  0
  -31.7894  -15.1448   20.2123 O   0  0  0  0  0  0  0  0  0  0  0  0
  -29.0247  -27.9277   20.0537 O   0  0  0  0  0  0  0  0  0  0  0  0
  -32.3347  -29.8758   22.8411 O   0  0  0  0  0  0  0  0  0  0  0  0
  -21.8117   -6.9714   22.0118 O   0  0  0  0  0  0  0  0  0  0  0  0
  -34.0944  -23.8574   25.4933 O   0  0  0  0  0  0  0  0  0  1  0  0
  -18.7848   -7.0009   26.6207 F   0  0  0  0  0  0  0  0  0  0  0  0
  -22.3251   -5.1839   24.0573 F   0  0  0  0  0  0  0  0  0  0  0  0
  1  2  1  0  0  0  0
  1  7  2  0  0  0  0
  2  8  2  0  0  0  0
  3 10  2  0  0  0  0
  3 18  1  0  0  0  0
  4 11  1  0  0  0  0
  4 18  2  0  0  0  0
  5  6  2  0  0  0  0
  5 19  1  0  0  0  0
  6 20  1  0  0  0  0
  7 22  1  0  0  0  0
  8 24  1  0  0  0  0
  9 12  2  0  0  0  0
  9 23  1  0  0  0  0
 10 27  1  0  0  0  0
 11 27  2  0  0  0  0
 12 28  1  0  0  0  0
 13 14  2  0  0  0  0
 13 29  1  0  0  0  0
 14 30  1  0  0  0  0
 15 19  2  0  0  0  0
 15 26  1  0  0  0  0
 16 25  1  0  0  0  0
 16 28  2  0  0  0  0
 17 30  2  0  0  0  0
 17 31  1  0  0  0  0
 18 32  1  0  0  0  0
 19 34  1  0  0  0  0
 20 26  2  0  0  0  0
 20 36  1  0  0  0  0
 21 32  1  0  0  0  0
 21 33  2  0  0  0  0
 21 37  1  0  0  0  0
 22 24  2  0  0  0  0
 22 42  1  0  0  0  0
 23 25  2  0  0  0  0
 23 43  1  0  0  0  0
 24 51  1  0  0  0  0
 25 44  1  0  0  0  0
 26 60  1  0  0  0  0
 27 83  1  0  0  0  0
 28 84  1  0  0  0  0
 29 31  2  0  0  0  0
 29 83  1  0  0  0  0
 30 85  1  0  0  0  0
 31 86  1  0  0  0  0
 32 68  2  0  0  0  0
 33 69  1  0  0  0  0
 33 72  1  0  0  0  0
 34 35  2  0  0  0  0
 35 61  1  0  0  0  0
 36 62  1  0  0  0  0
 36 77  2  0  0  0  0
 37 73  1  0  0  0  0
 37 78  2  0  0  0  0
 38 52  1  0  0  0  0
 38 74  1  0  0  0  0
 38 79  2  0  0  0  0
 39 61  1  0  0  0  0
 39 71  1  0  0  0  0
 39 80  2  0  0  0  0
 40 65  1  0  0  0  0
 40 70  1  0  0  0  0
 40 81  2  0  0  0  0
 41 66  1  0  0  0  0
 41 75  1  0  0  0  0
 41 82  2  0  0  0  0
 42 45  1  0  0  0  0
 43 52  1  0  0  0  0
 44 70  1  0  0  0  0
 45 47  1  0  0  0  0
 46 48  1  0  0  0  0
 46 49  1  0  0  0  0
 47 51  1  0  0  0  0
 48 53  1  0  0  0  0
 49 71  1  0  0  0  0
 50 53  1  0  0  0  0
 50 71  1  0  0  0  0
 51 74  1  0  0  0  0
 52 70  1  0  0  0  0
 53 69  1  0  0  0  0
 54 60  1  0  0  0  0
 55 66  1  0  0  0  0
 56 67  1  0  0  0  0
 57 67  1  0  0  0  0
 58 67  1  0  0  0  0
 59 76  1  0  0  0  0
 62 63  1  0  0  0  0
 63 64  1  0  0  0  0
 64 84  1  0  0  0  0
 65 67  1  0  0  0  0
 65 75  1  0  0  0  0
 66 76  1  0  0  0  0
 68 69  1  0  0  0  0
M  CHG  1  76   1
M  ISO  4  39 100  61 100  64 101  84 101
M  END
> <Batch ID>
0130

> <Smiles>
CCc1cc(C=C[100CH2:0][100C:0](=O)N2CCCC(n3nc(-c4ccc(Oc5ccc(F)cc5F)cc4)c(C(N)=O)c3N)C2)ccc1C(=O)CC[101CH2:1][101O:1]c1ccc2c(c1)CN(C(=O)C(NC(=O)C(C)NC)C(C)(C)C)C(C(=O)NC1CCCc3ccccc31)C2

> <Shape>
0.253

> <Color>
0.206

> <Negative vol penalty>
0.000

$$$$

  -OEChem-04052302223D

 83 91  0     1  0  0  0  0  0999 V2000
  -26.7028  -27.6159   23.2704 C   0  0  0  0  0  0  0  0  0  0  0  0
  -27.0460  -26.5200   22.4850 C   0  0  0  0  0  0  0  0  0  0  0  0
  -28.5077  -18.5257   22.0357 C   0  0  0  0  0  0  0  0  0  0  0  0
  -22.9597  -10.0193   19.9202 C   0  0  0  0  0  0  0  0  0  0  0  0
  -23.8624   -9.8104   22.1515 C   0  0  0  0  0  0  0  0  0  0  0  0
  -29.1914  -17.3535   22.3582 C   0  0  0  0  0  0  0  0  0  0  0  0
  -26.0838  -28.7219   22.6894 C   0  0  0  0  0  0  0  0  0  0  0  0
  -26.7693  -26.5291   21.1184 C   0  0  0  0  0  0  0  0  0  0  0  0
  -30.6552  -24.8510   18.3384 C   0  0  0  0  0  0  0  0  0  0  0  0
  -28.3016  -18.8678   20.6992 C   0  0  0  0  0  0  0  0  0  0  0  0
  -22.1814   -8.8806   20.1284 C   0  0  0  0  0  0  0  0  0  0  0  0
  -23.0841   -8.6717   22.3597 C   0  0  0  0  0  0  0  0  0  0  0  0
  -30.8494  -23.4715   18.2826 C   0  0  0  0  0  0  0  0  0  0  0  0
  -19.8675   -7.9587   23.1117 C   0  0  0  0  0  0  0  0  0  0  0  0
  -19.1849   -7.8548   24.3237 C   0  0  0  0  0  0  0  0  0  0  0  0
  -29.4631  -16.8654   20.0076 C   0  0  0  0  0  0  0  0  0  0  0  0
  -29.7634  -23.4118   16.1294 C   0  0  0  0  0  0  0  0  0  0  0  0
  -20.3809   -5.8158   24.8226 C   0  0  0  0  0  0  0  0  0  0  0  0
  -23.8002  -10.4841   20.9317 C   0  0  0  0  0  0  0  0  0  0  0  0
  -29.6691  -16.5233   21.3441 C   0  0  0  0  0  0  0  0  0  0  0  0
  -24.2483  -12.9949   20.9865 C   0  0  0  0  0  0  0  0  0  0  0  0
  -25.8082  -28.7485   21.3132 C   0  0  0  0  0  0  0  0  0  0  0  0
  -30.0029  -25.5208   17.2933 C   0  0  0  0  0  0  0  0  0  0  0  0
  -26.1448  -27.6359   20.5187 C   0  0  0  0  0  0  0  0  0  0  0  0
  -29.5645  -24.8002   16.1732 C   0  0  0  0  0  0  0  0  0  0  0  0
  -28.7793  -18.0376   19.6852 C   0  0  0  0  0  0  0  0  0  0  0  0
  -22.2436   -8.2069   21.3482 C   0  0  0  0  0  0  0  0  0  0  0  0
  -30.4009  -22.7513   17.1793 C   0  0  0  0  0  0  0  0  0  0  0  0
  -20.8067   -6.9910   22.7551 C   0  0  0  0  0  0  0  0  0  0  0  0
  -19.4416   -6.7834   25.1791 C   0  0  0  0  0  0  0  0  0  0  0  0
  -21.0635   -5.9196   23.6105 C   0  0  0  0  0  0  0  0  0  0  0  0
  -24.6049  -11.6599   20.7170 C   0  0  0  0  0  0  0  0  0  0  0  0
  -25.3483  -13.7266   20.6109 C   0  0  0  0  0  0  0  0  0  0  0  0
  -29.6146  -20.5970   17.6394 C   0  0  0  0  0  0  0  0  0  1  0  0
  -30.3814  -15.3009   21.6807 C   0  0  0  0  0  0  0  0  0  0  0  0
  -23.0316  -13.5260   21.5279 C   0  0  0  0  0  0  0  0  0  0  0  0
  -29.6666  -19.2547   17.6513 C   0  0  0  0  0  0  0  0  0  0  0  0
  -30.9018  -14.3972   20.6291 C   0  0  0  0  0  0  0  0  0  0  0  0
  -27.3326  -27.2269   17.0438 C   0  0  0  0  0  0  0  0  0  0  0  0
  -28.4106  -27.7500   14.0294 C   0  0  0  0  0  0  0  0  0  0  0  0
  -30.3473  -26.7015   11.4224 C   0  0  0  0  0  0  0  0  0  0  0  0
  -25.0949  -29.9468   20.7388 C   0  0  0  0  0  0  0  0  0  0  0  0
  -29.8250  -27.0131   17.3565 C   0  0  0  0  0  0  0  0  0  0  0  0
  -28.8765  -25.4750   15.0157 C   0  0  0  0  0  0  0  0  0  0  0  0
  -25.1755  -30.0318   19.2167 C   0  0  0  0  0  0  0  0  0  0  0  0
  -29.4731  -12.3968   18.0188 C   0  0  0  0  0  0  0  0  0  0  0  0
  -24.8643  -28.6767   18.5892 C   0  0  0  0  0  0  0  0  0  0  0  0
  -28.0627  -12.1045   18.5298 C   0  0  0  0  0  0  0  0  0  0  0  0
  -30.4790  -12.4629   19.1634 C   0  0  0  0  0  0  0  0  0  0  0  0
  -28.7006  -13.1552   20.7466 C   0  0  0  0  0  0  0  0  0  0  0  0
  -25.8835  -27.6184   19.0282 C   0  0  1  0  0  0  0  0  0  0  0  0
  -28.6905  -27.5176   16.4701 C   0  0  1  0  0  0  0  0  0  0  0  0
  -27.6519  -13.1083   19.6217 C   0  0  2  0  0  0  0  0  0  0  0  0
  -30.7104  -18.2266   15.5865 C   0  0  0  0  0  0  0  0  0  0  0  0
  -30.9953  -27.3171    9.0775 C   0  0  0  0  0  0  0  0  0  0  0  0
  -25.7054  -26.7591   13.0242 C   0  0  0  0  0  0  0  0  0  0  0  0
  -26.7248  -26.4942   10.7528 C   0  0  0  0  0  0  0  0  0  0  0  0
  -26.6042  -28.7512   11.8083 C   0  0  0  0  0  0  0  0  0  0  0  0
  -33.2029  -26.9599   12.1557 C   0  0  0  0  0  0  0  0  0  0  0  0
  -28.5564  -18.4079   18.2383 C   0  0  0  0  0  0  0  0  0  0  0  0
  -30.8682  -18.5419   17.0677 C   0  0  0  0  0  0  0  0  0  0  0  0
  -28.2501  -27.0520   12.7004 C   0  0  1  0  0  0  0  0  0  0  0  0
  -31.3490  -27.4382   10.5516 C   0  0  2  0  0  0  0  0  0  0  0  0
  -26.8323  -27.2508   12.0940 C   0  0  0  0  0  0  0  0  0  0  0  0
  -25.8351  -11.5473   20.2093 N   0  0  0  0  0  0  0  0  0  0  0  0
  -30.6110  -14.9201   22.9084 N   0  0  0  0  0  0  0  0  0  0  0  0
  -26.2612  -12.8208   20.1566 N   0  0  0  0  0  0  0  0  0  0  0  0
  -30.0412  -13.3971   20.1986 N   0  0  0  0  0  0  0  0  0  0  0  0
  -28.7204  -26.9347   15.1272 N   0  0  0  0  0  0  0  0  0  0  0  0
  -25.6140  -15.0500   20.6280 N   0  0  0  0  0  0  0  0  0  0  0  0
  -22.0027  -12.6341   21.8599 N   0  0  0  0  0  0  0  0  0  0  0  0
  -27.1215  -27.7741   18.2950 N   0  0  0  0  0  0  0  0  0  0  0  0
  -29.3355  -27.5335   11.8528 N   0  0  0  0  0  0  0  0  0  0  0  0
  -32.7174  -26.8838   10.7537 N   0  3  0  0  0  0  0  0  0  0  0  0
  -22.8556  -14.7565   21.6966 O   0  0  0  0  0  0  0  0  0  0  0  0
  -32.0422  -14.6304   20.2504 O   0  0  0  0  0  0  0  0  0  0  0  0
  -26.5348  -26.5571   16.3984 O   0  0  0  0  0  0  0  0  0  0  0  0
  -28.2733  -28.9744   14.0898 O   0  0  0  0  0  0  0  0  0  0  0  0
  -30.4499  -25.5065   11.6906 O   0  0  0  0  0  0  0  0  0  0  0  0
  -21.4841   -7.0959   21.5518 O   0  0  0  0  0  0  0  0  0  0  0  0
  -30.5885  -21.4047   17.1226 O   0  0  0  0  0  0  0  0  0  1  0  0
  -18.7872   -6.6847   26.3437 F   0  0  0  0  0  0  0  0  0  0  0  0
  -21.9655   -4.9875   23.2739 F   0  0  0  0  0  0  0  0  0  0  0  0
  1  2  1  0  0  0  0
  1  7  2  0  0  0  0
  2  8  2  0  0  0  0
  3  6  1  0  0  0  0
  3 10  2  0  0  0  0
  4 11  2  0  0  0  0
  4 19  1  0  0  0  0
  5 12  1  0  0  0  0
  5 19  2  0  0  0  0
  6 20  2  0  0  0  0
  7 22  1  0  0  0  0
  8 24  1  0  0  0  0
  9 13  2  0  0  0  0
  9 23  1  0  0  0  0
 10 26  1  0  0  0  0
 11 27  1  0  0  0  0
 12 27  2  0  0  0  0
 13 28  1  0  0  0  0
 14 15  2  0  0  0  0
 14 29  1  0  0  0  0
 15 30  1  0  0  0  0
 16 20  1  0  0  0  0
 16 26  2  0  0  0  0
 17 25  1  0  0  0  0
 17 28  2  0  0  0  0
 18 30  2  0  0  0  0
 18 31  1  0  0  0  0
 19 32  1  0  0  0  0
 20 35  1  0  0  0  0
 21 32  1  0  0  0  0
 21 33  2  0  0  0  0
 21 36  1  0  0  0  0
 22 24  2  0  0  0  0
 22 42  1  0  0  0  0
 23 25  2  0  0  0  0
 23 43  1  0  0  0  0
 24 51  1  0  0  0  0
 25 44  1  0  0  0  0
 26 60  1  0  0  0  0
 27 80  1  0  0  0  0
 28 81  1  0  0  0  0
 29 31  2  0  0  0  0
 29 80  1  0  0  0  0
 30 82  1  0  0  0  0
 31 83  1  0  0  0  0
 32 65  2  0  0  0  0
 33 67  1  0  0  0  0
 33 70  1  0  0  0  0
 34 37  2  0  0  0  0
 34 81  1  0  0  0  0
 35 38  1  0  0  0  0
 35 66  2  0  0  0  0
 36 71  1  0  0  0  0
 36 75  2  0  0  0  0
 37 60  1  0  0  0  0
 37 61  1  0  0  0  0
 38 68  1  0  0  0  0
 38 76  2  0  0  0  0
 39 52  1  0  0  0  0
 39 72  1  0  0  0  0
 39 77  2  0  0  0  0
 40 62  1  0  0  0  0
 40 69  1  0  0  0  0
 40 78  2  0  0  0  0
 41 63  1  0  0  0  0
 41 73  1  0  0  0  0
 41 79  2  0  0  0  0
 42 45  1  0  0  0  0
 43 52  1  0  0  0  0
 44 69  1  0  0  0  0
 45 47  1  0  0  0  0
 46 48  1  0  0  0  0
 46 49  1  0  0  0  0
 47 51  1  0  0  0  0
 48 53  1  0  0  0  0
 49 68  1  0  0  0  0
 50 53  1  0  0  0  0
 50 68  1  0  0  0  0
 51 72  1  0  0  0  0
 52 69  1  0  0  0  0
 53 67  1  0  0  0  0
 54 61  1  0  0  0  0
 55 63  1  0  0  0  0
 56 64  1  0  0  0  0
 57 64  1  0  0  0  0
 58 64  1  0  0  0  0
 59 74  1  0  0  0  0
 62 64  1  0  0  0  0
 62 73  1  0  0  0  0
 63 74  1  0  0  0  0
 65 67  1  0  0  0  0
M  CHG  1  74   1
M  ISO  4  34 101  35 100  38 100  81 101
M  END
> <Batch ID>
0130

> <Smiles>
CCC(Cc1cccc([100C:0](=N)[100C:0](=O)N2CCCC(n3nc(-c4ccc(Oc5ccc(F)cc5F)cc4)c(C(N)=O)c3N)C2)c1)=[101CH:1][101O:1]c1ccc2c(c1)CN(C(=O)C(NC(=O)C(C)NC)C(C)(C)C)C(C(=O)NC1CCCc3ccccc31)C2

> <Shape>
0.277

> <Color>
0.196

> <Negative vol penalty>
0.000

$$$$

  -OEChem-04052302223D

 85 93  0     1  0  0  0  0  0999 V2000
  -31.5004  -37.7309   26.2022 C   0  0  0  0  0  0  0  0  0  0  0  0
  -31.7672  -36.9793   25.0622 C   0  0  0  0  0  0  0  0  0  0  0  0
  -24.2562   -9.1509   21.2729 C   0  0  0  0  0  0  0  0  0  0  0  0
  -25.3436   -9.9231   23.2875 C   0  0  0  0  0  0  0  0  0  0  0  0
  -30.7949  -37.1618   27.2616 C   0  0  0  0  0  0  0  0  0  0  0  0
  -31.3295  -35.6578   24.9816 C   0  0  0  0  0  0  0  0  0  0  0  0
  -28.9901  -30.8317   20.2326 C   0  0  0  0  0  0  0  0  0  0  0  0
  -31.4855  -19.6263   20.9788 C   0  0  0  0  0  0  0  0  0  0  0  0
  -31.0391  -18.4271   20.4236 C   0  0  0  0  0  0  0  0  0  0  0  0
  -23.9548   -7.9416   21.8992 C   0  0  0  0  0  0  0  0  0  0  0  0
  -25.0421   -8.7138   23.9138 C   0  0  0  0  0  0  0  0  0  0  0  0
  -29.2452  -29.5292   19.8060 C   0  0  0  0  0  0  0  0  0  0  0  0
  -21.6754   -6.7822   24.1112 C   0  0  0  0  0  0  0  0  0  0  0  0
  -20.3849   -6.2760   23.9562 C   0  0  0  0  0  0  0  0  0  0  0  0
  -27.9665  -28.6762   21.6652 C   0  0  0  0  0  0  0  0  0  0  0  0
  -29.2857  -20.0200   21.8970 C   0  0  0  0  0  0  0  0  0  0  0  0
  -21.2894   -4.2842   22.9306 C   0  0  0  0  0  0  0  0  0  0  0  0
  -24.9507  -10.1417   21.9671 C   0  0  0  0  0  0  0  0  0  0  0  0
  -24.4748  -12.5572   21.2990 C   0  0  0  0  0  0  0  0  0  0  0  0
  -30.3400  -35.8358   27.1899 C   0  0  0  0  0  0  0  0  0  0  0  0
  -28.2291  -31.0664   21.3869 C   0  0  0  0  0  0  0  0  0  0  0  0
  -30.6184  -35.0701   26.0416 C   0  0  0  0  0  0  0  0  0  0  0  0
  -27.7010  -29.9827   22.1029 C   0  0  0  0  0  0  0  0  0  0  0  0
  -30.6088  -20.4228   21.7155 C   0  0  0  0  0  0  0  0  0  0  0  0
  -28.8393  -18.8208   21.3418 C   0  0  0  0  0  0  0  0  0  0  0  0
  -29.7161  -18.0243   20.6051 C   0  0  0  0  0  0  0  0  0  0  0  0
  -24.3477   -7.7230   23.2196 C   0  0  0  0  0  0  0  0  0  0  0  0
  -28.7358  -28.4511   20.5239 C   0  0  0  0  0  0  0  0  0  0  0  0
  -22.7729   -6.0395   23.6758 C   0  0  0  0  0  0  0  0  0  0  0  0
  -20.1919   -5.0270   23.3660 C   0  0  0  0  0  0  0  0  0  0  0  0
  -22.5799   -4.7905   23.0856 C   0  0  0  0  0  0  0  0  0  0  0  0
  -25.2629  -11.3909   21.3205 C   0  0  0  0  0  0  0  0  0  0  0  0
  -25.2082  -13.4536   20.5606 C   0  0  0  0  0  0  0  0  0  0  0  0
  -30.1185  -23.9281   21.6536 C   0  0  0  0  0  0  0  0  0  0  0  0
  -30.9107  -22.8832   21.3798 C   0  0  0  0  0  0  0  0  0  0  0  0
  -23.1944  -12.8080   21.8935 C   0  0  0  0  0  0  0  0  0  0  0  0
  -29.9730  -25.0509   20.6851 C   0  0  0  0  0  0  0  0  0  0  0  0
  -28.7817  -32.4490   24.1953 C   0  0  0  0  0  0  0  0  0  0  0  0
  -25.6056  -31.9498   24.6264 C   0  0  0  0  0  0  0  0  0  0  0  0
  -22.8168  -30.1606   23.8091 C   0  0  0  0  0  0  0  0  0  0  0  0
  -30.0384  -15.9080   19.2770 C   0  0  0  0  0  0  0  0  0  0  0  0
  -29.6224  -35.2491   28.3797 C   0  0  0  0  0  0  0  0  0  0  0  0
  -27.9404  -32.4780   21.8188 C   0  0  0  0  0  0  0  0  0  0  0  0
  -26.8611  -30.1815   23.3372 C   0  0  0  0  0  0  0  0  0  0  0  0
  -28.8683  -33.9606   28.0617 C   0  0  0  0  0  0  0  0  0  0  0  0
  -29.3466  -12.7792   17.7250 C   0  0  0  0  0  0  0  0  0  0  0  0
  -29.7470  -33.0142   27.2498 C   0  0  0  0  0  0  0  0  0  0  0  0
  -28.1577  -12.2350   18.5203 C   0  0  0  0  0  0  0  0  0  0  0  0
  -30.3316  -13.5296   18.6197 C   0  0  0  0  0  0  0  0  0  0  0  0
  -28.5488  -14.0453   20.2398 C   0  0  0  0  0  0  0  0  0  0  0  0
  -30.1387  -33.6412   25.9063 C   0  0  1  0  0  0  0  0  0  0  0  0
  -27.5845  -32.5893   23.2981 C   0  0  1  0  0  0  0  0  0  0  0  0
  -27.4966  -13.3374   19.3708 C   0  0  2  0  0  0  0  0  0  0  0  0
  -26.5592  -18.6597   20.3115 C   0  0  0  0  0  0  0  0  0  0  0  0
  -20.3758  -29.9586   24.3549 C   0  0  0  0  0  0  0  0  0  0  0  0
  -26.3091  -30.5421   27.2405 C   0  0  0  0  0  0  0  0  0  0  0  0
  -24.0067  -29.5585   27.2493 C   0  0  0  0  0  0  0  0  0  0  0  0
  -24.3046  -32.0324   27.3648 C   0  0  0  0  0  0  0  0  0  0  0  0
  -22.0239  -30.7953   21.0293 C   0  0  0  0  0  0  0  0  0  0  0  0
  -31.0909  -21.7206   22.3138 C   0  0  0  0  0  0  0  0  0  0  0  0
  -27.4159  -18.4156   21.5497 C   0  0  0  0  0  0  0  0  0  0  0  0
  -29.0479  -26.1691   21.1165 C   0  0  0  0  0  0  0  0  0  1  0  0
  -24.7664  -30.8286   25.1901 C   0  0  1  0  0  0  0  0  0  0  0  0
  -21.4104  -30.5988   23.4426 C   0  0  2  0  0  0  0  0  0  0  0  0
  -24.8641  -30.7363   26.7391 C   0  0  0  0  0  0  0  0  0  0  0  0
  -26.4090  -11.5306   20.6490 N   0  0  0  0  0  0  0  0  0  0  0  0
  -26.3464  -12.7952   20.1985 N   0  0  0  0  0  0  0  0  0  0  0  0
  -26.6120  -31.5803   23.7229 N   0  0  0  0  0  0  0  0  0  0  0  0
  -29.6351  -14.5608   19.3918 N   0  0  0  0  0  0  0  0  0  0  0  0
  -24.9840  -14.7328   20.1922 N   0  0  0  0  0  0  0  0  0  0  0  0
  -22.5811  -11.7774   22.6187 N   0  0  0  0  0  0  0  0  0  0  0  0
  -29.2819  -16.8028   20.0331 N   0  0  0  0  0  0  0  0  0  0  0  0
  -29.0364  -33.5632   24.9718 N   0  0  0  0  0  0  0  0  0  0  0  0
  -23.4129  -31.0398   24.6883 N   0  0  0  0  0  0  0  0  0  0  0  0
  -21.0984  -30.2157   22.0366 N   0  3  0  0  0  0  0  0  0  0  0  0
  -22.6040  -13.9080   21.7709 O   0  0  0  0  0  0  0  0  0  0  0  0
  -30.5661  -25.0646   19.6099 O   0  0  0  0  0  0  0  0  0  0  0  0
  -29.4256  -31.4064   24.1849 O   0  0  0  0  0  0  0  0  0  0  0  0
  -25.3720  -33.1114   24.9696 O   0  0  0  0  0  0  0  0  0  0  0  0
  -23.3335  -29.1384   23.3633 O   0  0  0  0  0  0  0  0  0  0  0  0
  -30.9678  -16.2466   18.5398 O   0  0  0  0  0  0  0  0  0  0  0  0
  -24.0535   -6.5431   23.8311 O   0  0  0  0  0  0  0  0  0  0  0  0
  -28.9839  -27.1787   20.1100 O   0  0  0  0  0  0  0  0  0  1  0  0
  -18.9527   -4.5403   23.2187 F   0  0  0  0  0  0  0  0  0  0  0  0
  -23.6305   -4.0718   22.6664 F   0  0  0  0  0  0  0  0  0  0  0  0
  1  2  1  0  0  0  0
  1  5  2  0  0  0  0
  2  6  2  0  0  0  0
  3 10  2  0  0  0  0
  3 18  1  0  0  0  0
  4 11  1  0  0  0  0
  4 18  2  0  0  0  0
  5 20  1  0  0  0  0
  6 22  1  0  0  0  0
  7 12  2  0  0  0  0
  7 21  1  0  0  0  0
  8  9  2  0  0  0  0
  8 24  1  0  0  0  0
  9 26  1  0  0  0  0
 10 27  1  0  0  0  0
 11 27  2  0  0  0  0
 12 28  1  0  0  0  0
 13 14  2  0  0  0  0
 13 29  1  0  0  0  0
 14 30  1  0  0  0  0
 15 23  1  0  0  0  0
 15 28  2  0  0  0  0
 16 24  2  0  0  0  0
 16 25  1  0  0  0  0
 17 30  2  0  0  0  0
 17 31  1  0  0  0  0
 18 32  1  0  0  0  0
 19 32  1  0  0  0  0
 19 33  2  0  0  0  0
 19 36  1  0  0  0  0
 20 22  2  0  0  0  0
 20 42  1  0  0  0  0
 21 23  2  0  0  0  0
 21 43  1  0  0  0  0
 22 51  1  0  0  0  0
 23 44  1  0  0  0  0
 24 60  1  0  0  0  0
 25 26  2  0  0  0  0
 25 61  1  0  0  0  0
 26 72  1  0  0  0  0
 27 82  1  0  0  0  0
 28 83  1  0  0  0  0
 29 31  2  0  0  0  0
 29 82  1  0  0  0  0
 30 84  1  0  0  0  0
 31 85  1  0  0  0  0
 32 66  2  0  0  0  0
 33 67  1  0  0  0  0
 33 70  1  0  0  0  0
 34 35  2  0  0  0  0
 34 37  1  0  0  0  0
 35 60  1  0  0  0  0
 36 71  1  0  0  0  0
 36 76  2  0  0  0  0
 37 62  1  0  0  0  0
 37 77  2  0  0  0  0
 38 52  1  0  0  0  0
 38 73  1  0  0  0  0
 38 78  2  0  0  0  0
 39 63  1  0  0  0  0
 39 68  1  0  0  0  0
 39 79  2  0  0  0  0
 40 64  1  0  0  0  0
 40 74  1  0  0  0  0
 40 80  2  0  0  0  0
 41 69  1  0  0  0  0
 41 72  1  0  0  0  0
 41 81  2  0  0  0  0
 42 45  1  0  0  0  0
 43 52  1  0  0  0  0
 44 68  1  0  0  0  0
 45 47  1  0  0  0  0
 46 48  1  0  0  0  0
 46 49  1  0  0  0  0
 47 51  1  0  0  0  0
 48 53  1  0  0  0  0
 49 69  1  0  0  0  0
 50 53  1  0  0  0  0
 50 69  1  0  0  0  0
 51 73  1  0  0  0  0
 52 68  1  0  0  0  0
 53 67  1  0  0  0  0
 54 61  1  0  0  0  0
 55 64  1  0  0  0  0
 56 65  1  0  0  0  0
 57 65  1  0  0  0  0
 58 65  1  0  0  0  0
 59 75  1  0  0  0  0
 62 83  1  0  0  0  0
 63 65  1  0  0  0  0
 63 74  1  0  0  0  0
 64 75  1  0  0  0  0
 66 67  1  0  0  0  0
M  CHG  1  75   1
M  ISO  4  41 100  62 101  72 100  83 101
M  END
> <Batch ID>
0130

> <Smiles>
CCc1cc(CC=CC(=O)[101CH2:1][101O:1]c2ccc3c(c2)CN(C(=O)C(NC(=O)C(C)NC)C(C)(C)C)C(C(=O)NC2CCCc4ccccc42)C3)ccc1[100NH:0][100C:0](=O)N1CCCC(n2nc(-c3ccc(Oc4ccc(F)cc4F)cc3)c(C(N)=O)c2N)C1

> <Shape>
0.294

> <Color>
0.150

> <Negative vol penalty>
0.000

$$$$

  -OEChem-04052302223D

 87 95  0     1  0  0  0  0  0999 V2000
  -30.7172  -25.5461   26.0179 C   0  0  0  0  0  0  0  0  0  0  0  0
  -31.0270  -24.9225   24.8135 C   0  0  0  0  0  0  0  0  0  0  0  0
  -23.0740   -9.8716   19.9377 C   0  0  0  0  0  0  0  0  0  0  0  0
  -23.8364   -9.8712   22.2302 C   0  0  0  0  0  0  0  0  0  0  0  0
  -29.4012  -25.9165   26.2915 C   0  0  0  0  0  0  0  0  0  0  0  0
  -30.0207  -24.6679   23.8824 C   0  0  0  0  0  0  0  0  0  0  0  0
  -31.3911  -25.8803   19.1604 C   0  0  0  0  0  0  0  0  0  0  0  0
  -22.3298   -8.7182   20.1849 C   0  0  0  0  0  0  0  0  0  0  0  0
  -23.0921   -8.7177   22.4775 C   0  0  0  0  0  0  0  0  0  0  0  0
  -32.2266  -24.9873   18.4908 C   0  0  0  0  0  0  0  0  0  0  0  0
  -19.8641   -7.9199   23.0810 C   0  0  0  0  0  0  0  0  0  0  0  0
  -19.1084   -7.8769   24.2526 C   0  0  0  0  0  0  0  0  0  0  0  0
  -30.3195  -24.0955   17.3132 C   0  0  0  0  0  0  0  0  0  0  0  0
  -29.7163  -19.2785   22.3731 C   0  0  0  0  0  0  0  0  0  0  0  0
  -31.1587  -17.6767   20.6021 C   0  0  0  0  0  0  0  0  0  0  0  0
  -20.3494   -5.9365   24.9818 C   0  0  0  0  0  0  0  0  0  0  0  0
  -23.8274  -10.4481   20.9603 C   0  0  0  0  0  0  0  0  0  0  0  0
  -24.1706  -12.9734   20.8476 C   0  0  0  0  0  0  0  0  0  0  0  0
  -28.3799  -25.6751   25.3592 C   0  0  0  0  0  0  0  0  0  0  0  0
  -30.0098  -25.8801   18.9191 C   0  0  0  0  0  0  0  0  0  0  0  0
  -28.6896  -25.0343   24.1443 C   0  0  0  0  0  0  0  0  0  0  0  0
  -29.4690  -24.9911   17.9792 C   0  0  0  0  0  0  0  0  0  0  0  0
  -30.6199  -19.8605   21.4840 C   0  0  0  0  0  0  0  0  0  0  0  0
  -29.5340  -17.8956   22.3767 C   0  0  0  0  0  0  0  0  0  0  0  0
  -31.3411  -19.0597   20.5985 C   0  0  0  0  0  0  0  0  0  0  0  0
  -30.2552  -17.0947   21.4912 C   0  0  0  0  0  0  0  0  0  0  0  0
  -22.3387   -8.1412   21.4548 C   0  0  0  0  0  0  0  0  0  0  0  0
  -31.6905  -24.0928   17.5692 C   0  0  0  0  0  0  0  0  0  0  0  0
  -20.8625   -6.9712   22.8598 C   0  0  0  0  0  0  0  0  0  0  0  0
  -19.3510   -6.8852   25.2030 C   0  0  0  0  0  0  0  0  0  0  0  0
  -21.1051   -5.9795   23.8102 C   0  0  0  0  0  0  0  0  0  0  0  0
  -24.5969  -11.6394   20.7054 C   0  0  0  0  0  0  0  0  0  0  0  0
  -25.2628  -13.7234   20.4855 C   0  0  0  0  0  0  0  0  0  0  0  0
  -33.0261  -20.9435   16.5000 C   0  0  0  0  0  0  0  0  0  0  0  0
  -22.9008  -13.4887   21.2695 C   0  0  0  0  0  0  0  0  0  0  0  0
  -33.1059  -19.7884   17.1917 C   0  0  0  0  0  0  0  0  0  0  0  0
  -27.4240  -25.3364   20.6860 C   0  0  0  0  0  0  0  0  0  0  0  0
  -25.8680  -26.2796   18.0006 C   0  0  0  0  0  0  0  0  0  0  0  0
  -25.9111  -26.6594   14.6093 C   0  0  0  0  0  0  0  0  0  0  0  0
  -30.7297  -14.7653   20.6576 C   0  0  0  0  0  0  0  0  0  0  0  0
  -26.9644  -26.0509   25.7195 C   0  0  0  0  0  0  0  0  0  0  0  0
  -29.1257  -26.8678   19.6299 C   0  0  0  0  0  0  0  0  0  0  0  0
  -27.9954  -24.9645   17.6691 C   0  0  0  0  0  0  0  0  0  0  0  0
  -26.0191  -26.0836   24.5213 C   0  0  0  0  0  0  0  0  0  0  0  0
  -29.6114  -12.3594   18.2831 C   0  0  0  0  0  0  0  0  0  0  0  0
  -26.2050  -24.8381   23.6605 C   0  0  0  0  0  0  0  0  0  0  0  0
  -28.1721  -12.0673   18.7133 C   0  0  0  0  0  0  0  0  0  0  0  0
  -30.5279  -12.5840   19.4845 C   0  0  0  0  0  0  0  0  0  0  0  0
  -28.6229  -13.3053   20.8700 C   0  0  0  0  0  0  0  0  0  0  0  0
  -27.6298  -24.7635   23.0985 C   0  0  1  0  0  0  0  0  0  0  0  0
  -27.6651  -26.4307   19.6850 C   0  0  1  0  0  0  0  0  0  0  0  0
  -27.6487  -13.1362   19.6927 C   0  0  2  0  0  0  0  0  0  0  0  0
  -28.5594  -17.2993   23.3398 C   0  0  0  0  0  0  0  0  0  0  0  0
  -32.0845  -21.7640   22.2041 C   0  0  0  0  0  0  0  0  0  0  0  0
  -34.1437  -17.8806   15.8953 C   0  0  0  0  0  0  0  0  0  0  0  0
  -24.4792  -27.4196   12.6939 C   0  0  0  0  0  0  0  0  0  0  0  0
  -24.2839  -23.6764   18.1547 C   0  0  0  0  0  0  0  0  0  0  0  0
  -23.5908  -24.0387   15.7764 C   0  0  0  0  0  0  0  0  0  0  0  0
  -22.9313  -25.6852   17.5304 C   0  0  0  0  0  0  0  0  0  0  0  0
  -27.8151  -28.8068   13.8868 C   0  0  0  0  0  0  0  0  0  0  0  0
  -30.7987  -21.3432   21.4987 C   0  0  0  0  0  0  0  0  0  0  0  0
  -32.3238  -19.6664   19.6283 C   0  0  0  0  0  0  0  0  0  0  0  0
  -31.9368  -21.9679   16.5299 C   0  0  0  0  0  0  0  0  0  1  0  0
  -34.3213  -18.8980   17.0142 C   0  0  0  0  0  0  0  0  0  0  0  0
  -32.0507  -19.2953   18.1631 C   0  0  0  0  0  0  0  0  0  0  0  0
  -25.3403  -25.5823   16.7700 C   0  0  1  0  0  0  0  0  0  0  0  0
  -25.5231  -27.8280   13.7216 C   0  0  2  0  0  0  0  0  0  0  0  0
  -24.0641  -24.7446   17.0649 C   0  0  0  0  0  0  0  0  0  0  0  0
  -25.8613  -11.5441   20.2855 N   0  0  0  0  0  0  0  0  0  0  0  0
  -26.2388  -12.8278   20.1607 N   0  0  0  0  0  0  0  0  0  0  0  0
  -27.1714  -25.9454   18.3946 N   0  0  0  0  0  0  0  0  0  0  0  0
  -29.9705  -13.6125   20.3656 N   0  0  0  0  0  0  0  0  0  0  0  0
  -25.4739  -15.0550   20.4163 N   0  0  0  0  0  0  0  0  0  0  0  0
  -21.8887  -12.5791   21.6051 N   0  0  0  0  0  0  0  0  0  0  0  0
  -30.0838  -15.6882   21.4795 N   0  0  0  0  0  0  0  0  0  0  0  0
  -27.7797  -25.6687   21.9793 N   0  0  0  0  0  0  0  0  0  0  0  0
  -25.1543  -26.6197   15.7612 N   0  0  0  0  0  0  0  0  0  0  0  0
  -26.7176  -28.3473   12.9973 N   0  3  0  0  0  0  0  0  0  0  0  0
  -22.6653  -14.7193   21.3309 O   0  0  0  0  0  0  0  0  0  0  0  0
  -26.9491  -24.2702   20.3129 O   0  0  0  0  0  0  0  0  0  0  0  0
  -25.1527  -27.0963   18.5864 O   0  0  0  0  0  0  0  0  0  0  0  0
  -26.7945  -25.8594   14.3091 O   0  0  0  0  0  0  0  0  0  0  0  0
  -31.8584  -14.9348   20.1893 O   0  0  0  0  0  0  0  0  0  0  0  0
  -21.6124   -7.0158   21.6965 O   0  0  0  0  0  0  0  0  0  0  0  0
  -32.5037  -23.2197   16.9147 O   0  0  0  0  0  0  0  0  0  1  0  0
  -18.6263   -6.8449   26.3287 F   0  0  0  0  0  0  0  0  0  0  0  0
  -22.0637   -5.0661   23.6037 F   0  0  0  0  0  0  0  0  0  0  0  0
  1  2  1  0  0  0  0
  1  5  2  0  0  0  0
  2  6  2  0  0  0  0
  3  8  2  0  0  0  0
  3 17  1  0  0  0  0
  4  9  1  0  0  0  0
  4 17  2  0  0  0  0
  5 19  1  0  0  0  0
  6 21  1  0  0  0  0
  7 10  2  0  0  0  0
  7 20  1  0  0  0  0
  8 27  1  0  0  0  0
  9 27  2  0  0  0  0
 10 28  1  0  0  0  0
 11 12  2  0  0  0  0
 11 29  1  0  0  0  0
 12 30  1  0  0  0  0
 13 22  1  0  0  0  0
 13 28  2  0  0  0  0
 14 23  1  0  0  0  0
 14 24  2  0  0  0  0
 15 25  1  0  0  0  0
 15 26  2  0  0  0  0
 16 30  2  0  0  0  0
 16 31  1  0  0  0  0
 17 32  1  0  0  0  0
 18 32  1  0  0  0  0
 18 33  2  0  0  0  0
 18 35  1  0  0  0  0
 19 21  2  0  0  0  0
 19 41  1  0  0  0  0
 20 22  2  0  0  0  0
 20 42  1  0  0  0  0
 21 50  1  0  0  0  0
 22 43  1  0  0  0  0
 23 25  2  0  0  0  0
 23 61  1  0  0  0  0
 24 26  1  0  0  0  0
 24 53  1  0  0  0  0
 25 62  1  0  0  0  0
 26 75  1  0  0  0  0
 27 84  1  0  0  0  0
 28 85  1  0  0  0  0
 29 31  2  0  0  0  0
 29 84  1  0  0  0  0
 30 86  1  0  0  0  0
 31 87  1  0  0  0  0
 32 69  2  0  0  0  0
 33 70  1  0  0  0  0
 33 73  1  0  0  0  0
 34 36  2  0  0  0  0
 34 63  1  0  0  0  0
 35 74  1  0  0  0  0
 35 79  2  0  0  0  0
 36 64  1  0  0  0  0
 36 65  1  0  0  0  0
 37 51  1  0  0  0  0
 37 76  1  0  0  0  0
 37 80  2  0  0  0  0
 38 66  1  0  0  0  0
 38 71  1  0  0  0  0
 38 81  2  0  0  0  0
 39 67  1  0  0  0  0
 39 77  1  0  0  0  0
 39 82  2  0  0  0  0
 40 72  1  0  0  0  0
 40 75  1  0  0  0  0
 40 83  2  0  0  0  0
 41 44  1  0  0  0  0
 42 51  1  0  0  0  0
 43 71  1  0  0  0  0
 44 46  1  0  0  0  0
 45 47  1  0  0  0  0
 45 48  1  0  0  0  0
 46 50  1  0  0  0  0
 47 52  1  0  0  0  0
 48 72  1  0  0  0  0
 49 52  1  0  0  0  0
 49 72  1  0  0  0  0
 50 76  1  0  0  0  0
 51 71  1  0  0  0  0
 52 70  1  0  0  0  0
 54 61  1  0  0  0  0
 55 64  1  0  0  0  0
 56 67  1  0  0  0  0
 57 68  1  0  0  0  0
 58 68  1  0  0  0  0
 59 68  1  0  0  0  0
 60 78  1  0  0  0  0
 62 65  1  0  0  0  0
 63 85  1  0  0  0  0
 66 68  1  0  0  0  0
 66 77  1  0  0  0  0
 67 78  1  0  0  0  0
 69 70  1  0  0  0  0
M  CHG  1  78   1
M  ISO  4  40 100  63 101  75 100  85 101
M  END
> <Batch ID>
0130

> <Smiles>
CCC(=C[101CH2:1][101O:1]c1ccc2c(c1)CN(C(=O)C(NC(=O)C(C)NC)C(C)(C)C)C(C(=O)NC1CCCc3ccccc31)C2)CCc1cc([100NH:0][100C:0](=O)N2CCCC(n3nc(-c4ccc(Oc5ccc(F)cc5F)cc4)c(C(N)=O)c3N)C2)c(C)cc1CC

> <Shape>
0.239

> <Color>
0.188

> <Negative vol penalty>
0.000

$$$$

  -OEChem-04052302223D

 84 92  0     1  0  0  0  0  0999 V2000
  -21.2748  -34.9364   16.1178 C   0  0  0  0  0  0  0  0  0  0  0  0
  -22.1477  -33.8575   16.0204 C   0  0  0  0  0  0  0  0  0  0  0  0
  -22.7673  -10.2451   22.9034 C   0  0  0  0  0  0  0  0  0  0  0  0
  -24.3154   -9.9027   21.0805 C   0  0  0  0  0  0  0  0  0  0  0  0
  -21.3251  -35.7740   17.2312 C   0  0  0  0  0  0  0  0  0  0  0  0
  -23.0723  -33.6163   17.0360 C   0  0  0  0  0  0  0  0  0  0  0  0
  -25.0474  -28.1611   18.9969 C   0  0  0  0  0  0  0  0  0  0  0  0
  -22.1518   -9.0285   22.6092 C   0  0  0  0  0  0  0  0  0  0  0  0
  -23.6999   -8.6860   20.7863 C   0  0  0  0  0  0  0  0  0  0  0  0
  -26.1977  -27.4243   18.7180 C   0  0  0  0  0  0  0  0  0  0  0  0
  -22.7483   -5.7428   23.1394 C   0  0  0  0  0  0  0  0  0  0  0  0
  -22.4532   -4.8915   24.2041 C   0  0  0  0  0  0  0  0  0  0  0  0
  -27.2406  -28.3123   20.7037 C   0  0  0  0  0  0  0  0  0  0  0  0
  -31.3333  -19.2910   19.4278 C   0  0  0  0  0  0  0  0  0  0  0  0
  -30.0599  -17.7612   20.7971 C   0  0  0  0  0  0  0  0  0  0  0  0
  -28.9186  -19.3372   19.3651 C   0  0  0  0  0  0  0  0  0  0  0  0
  -20.1080   -4.9885   23.6318 C   0  0  0  0  0  0  0  0  0  0  0  0
  -23.8491  -10.6823   22.1390 C   0  0  0  0  0  0  0  0  0  0  0  0
  -25.5651  -12.1560   23.3183 C   0  0  0  0  0  0  0  0  0  0  0  0
  -22.2442  -35.5372   18.2655 C   0  0  0  0  0  0  0  0  0  0  0  0
  -24.9890  -28.9888   20.1273 C   0  0  0  0  0  0  0  0  0  0  0  0
  -23.1358  -34.4523   18.1637 C   0  0  0  0  0  0  0  0  0  0  0  0
  -26.0875  -29.0566   20.9961 C   0  0  0  0  0  0  0  0  0  0  0  0
  -31.2893  -18.2557   20.3615 C   0  0  0  0  0  0  0  0  0  0  0  0
  -30.1480  -19.8317   18.9296 C   0  0  0  0  0  0  0  0  0  0  0  0
  -28.8746  -18.3019   20.2989 C   0  0  0  0  0  0  0  0  0  0  0  0
  -22.6181   -8.2489   21.5508 C   0  0  0  0  0  0  0  0  0  0  0  0
  -27.2956  -27.5021   19.5699 C   0  0  0  0  0  0  0  0  0  0  0  0
  -21.7232   -6.2171   22.3208 C   0  0  0  0  0  0  0  0  0  0  0  0
  -21.1331   -4.5143   24.4503 C   0  0  0  0  0  0  0  0  0  0  0  0
  -20.4031   -5.8399   22.5670 C   0  0  0  0  0  0  0  0  0  0  0  0
  -24.4850  -11.9392   22.4419 C   0  0  0  0  0  0  0  0  0  0  0  0
  -25.7919  -13.5092   23.2556 C   0  0  0  0  0  0  0  0  0  0  0  0
  -29.2858  -23.2471   18.3130 C   0  0  0  0  0  0  0  0  0  0  0  0
  -30.2048  -22.3063   18.5676 C   0  0  0  0  0  0  0  0  0  0  0  0
  -26.2980  -11.2181   24.1175 C   0  0  0  0  0  0  0  0  0  0  0  0
  -29.3492  -24.5774   18.9810 C   0  0  0  0  0  0  0  0  0  0  0  0
  -24.6191  -32.1094   20.6057 C   0  0  0  0  0  0  0  0  0  0  0  0
  -24.5081  -31.2227   23.7240 C   0  0  0  0  0  0  0  0  0  0  0  0
  -25.3311  -28.9315   26.1156 C   0  0  0  0  0  0  0  0  0  0  0  0
  -26.3570  -18.2236   20.3474 C   0  0  0  0  0  0  0  0  0  0  0  0
  -22.2930  -36.4978   19.4273 C   0  0  0  0  0  0  0  0  0  0  0  0
  -23.7311  -29.7565   20.4286 C   0  0  0  0  0  0  0  0  0  0  0  0
  -26.0680  -29.9147   22.2337 C   0  0  0  0  0  0  0  0  0  0  0  0
  -23.0494  -35.9535   20.6363 C   0  0  0  0  0  0  0  0  0  0  0  0
  -23.0440  -17.2168   21.1761 C   0  0  0  0  0  0  0  0  0  0  0  0
  -24.3710  -35.3277   20.2018 C   0  0  0  0  0  0  0  0  0  0  0  0
  -23.2124  -15.7718   21.6514 C   0  0  0  0  0  0  0  0  0  0  0  0
  -23.9881  -17.5477   20.0216 C   0  0  0  0  0  0  0  0  0  0  0  0
  -25.5727  -15.8072   20.7488 C   0  0  0  0  0  0  0  0  0  0  0  0
  -24.1361  -34.1434   19.2564 C   0  0  1  0  0  0  0  0  0  0  0  0
  -23.9695  -30.9642   21.3297 C   0  0  1  0  0  0  0  0  0  0  0  0
  -24.6883  -15.4463   21.9535 C   0  0  2  0  0  0  0  0  0  0  0  0
  -32.5568  -17.6777   20.8942 C   0  0  0  0  0  0  0  0  0  0  0  0
  -25.1372  -28.5002   28.5801 C   0  0  0  0  0  0  0  0  0  0  0  0
  -26.7198  -33.2574   24.2517 C   0  0  0  0  0  0  0  0  0  0  0  0
  -27.1331  -32.1338   26.4505 C   0  0  0  0  0  0  0  0  0  0  0  0
  -24.9231  -33.1951   25.9902 C   0  0  0  0  0  0  0  0  0  0  0  0
  -23.7739  -26.4533   25.6771 C   0  0  0  0  0  0  0  0  0  0  0  0
  -30.1957  -20.9511   17.9198 C   0  0  0  0  0  0  0  0  0  0  0  0
  -28.2507  -25.5492   18.6054 C   0  0  0  0  0  0  0  0  0  1  0  0
  -25.5297  -31.0377   24.8199 C   0  0  1  0  0  0  0  0  0  0  0  0
  -24.5082  -28.2810   27.2130 C   0  0  2  0  0  0  0  0  0  0  0  0
  -26.0778  -32.3912   25.3538 C   0  0  0  0  0  0  0  0  0  0  0  0
  -24.0553  -13.0646   21.8649 N   0  0  0  0  0  0  0  0  0  0  0  0
  -24.8695  -14.0016   22.3798 N   0  0  0  0  0  0  0  0  0  0  0  0
  -24.8176  -30.6512   22.4817 N   0  0  0  0  0  0  0  0  0  0  0  0
  -25.3687  -17.2173   20.3815 N   0  0  0  0  0  0  0  0  0  0  0  0
  -26.6884  -14.3141   23.8647 N   0  0  0  0  0  0  0  0  0  0  0  0
  -25.9337   -9.8658   24.0632 N   0  0  0  0  0  0  0  0  0  0  0  0
  -27.6257  -17.7994   20.7412 N   0  0  0  0  0  0  0  0  0  0  0  0
  -23.7251  -32.9741   20.0036 N   0  0  0  0  0  0  0  0  0  0  0  0
  -24.8920  -30.2085   25.8368 N   0  0  0  0  0  0  0  0  0  0  0  0
  -24.3972  -26.8138   26.9765 N   0  3  0  0  0  0  0  0  0  0  0  0
  -27.2372  -11.5711   24.8705 O   0  0  0  0  0  0  0  0  0  0  0  0
  -30.2349  -24.8621   19.7826 O   0  0  0  0  0  0  0  0  0  0  0  0
  -25.8410  -32.2025   20.5954 O   0  0  0  0  0  0  0  0  0  0  0  0
  -23.4703  -31.8450   23.9635 O   0  0  0  0  0  0  0  0  0  0  0  0
  -26.2719  -28.3650   25.5638 O   0  0  0  0  0  0  0  0  0  0  0  0
  -26.0914  -19.3833   20.0209 O   0  0  0  0  0  0  0  0  0  0  0  0
  -22.0179   -7.0615   21.2636 O   0  0  0  0  0  0  0  0  0  0  0  0
  -28.4198  -26.7845   19.2996 O   0  0  0  0  0  0  0  0  0  1  0  0
  -20.8500   -3.6955   25.4719 F   0  0  0  0  0  0  0  0  0  0  0  0
  -19.4142   -6.2913   21.7834 F   0  0  0  0  0  0  0  0  0  0  0  0
  1  2  1  0  0  0  0
  1  5  2  0  0  0  0
  2  6  2  0  0  0  0
  3  8  2  0  0  0  0
  3 18  1  0  0  0  0
  4  9  1  0  0  0  0
  4 18  2  0  0  0  0
  5 20  1  0  0  0  0
  6 22  1  0  0  0  0
  7 10  2  0  0  0  0
  7 21  1  0  0  0  0
  8 27  1  0  0  0  0
  9 27  2  0  0  0  0
 10 28  1  0  0  0  0
 11 12  2  0  0  0  0
 11 29  1  0  0  0  0
 12 30  1  0  0  0  0
 13 23  1  0  0  0  0
 13 28  2  0  0  0  0
 14 24  2  0  0  0  0
 14 25  1  0  0  0  0
 15 24  1  0  0  0  0
 15 26  2  0  0  0  0
 16 25  2  0  0  0  0
 16 26  1  0  0  0  0
 17 30  2  0  0  0  0
 17 31  1  0  0  0  0
 18 32  1  0  0  0  0
 19 32  1  0  0  0  0
 19 33  2  0  0  0  0
 19 36  1  0  0  0  0
 20 22  2  0  0  0  0
 20 42  1  0  0  0  0
 21 23  2  0  0  0  0
 21 43  1  0  0  0  0
 22 51  1  0  0  0  0
 23 44  1  0  0  0  0
 24 54  1  0  0  0  0
 25 60  1  0  0  0  0
 26 71  1  0  0  0  0
 27 81  1  0  0  0  0
 28 82  1  0  0  0  0
 29 31  2  0  0  0  0
 29 81  1  0  0  0  0
 30 83  1  0  0  0  0
 31 84  1  0  0  0  0
 32 65  2  0  0  0  0
 33 66  1  0  0  0  0
 33 69  1  0  0  0  0
 34 35  2  0  0  0  0
 34 37  1  0  0  0  0
 35 60  1  0  0  0  0
 36 70  1  0  0  0  0
 36 75  2  0  0  0  0
 37 61  1  0  0  0  0
 37 76  2  0  0  0  0
 38 52  1  0  0  0  0
 38 72  1  0  0  0  0
 38 77  2  0  0  0  0
 39 62  1  0  0  0  0
 39 67  1  0  0  0  0
 39 78  2  0  0  0  0
 40 63  1  0  0  0  0
 40 73  1  0  0  0  0
 40 79  2  0  0  0  0
 41 68  1  0  0  0  0
 41 71  1  0  0  0  0
 41 80  2  0  0  0  0
 42 45  1  0  0  0  0
 43 52  1  0  0  0  0
 44 67  1  0  0  0  0
 45 47  1  0  0  0  0
 46 48  1  0  0  0  0
 46 49  1  0  0  0  0
 47 51  1  0  0  0  0
 48 53  1  0  0  0  0
 49 68  1  0  0  0  0
 50 53  1  0  0  0  0
 50 68  1  0  0  0  0
 51 72  1  0  0  0  0
 52 67  1  0  0  0  0
 53 66  1  0  0  0  0
 55 63  1  0  0  0  0
 56 64  1  0  0  0  0
 57 64  1  0  0  0  0
 58 64  1  0  0  0  0
 59 74  1  0  0  0  0
 61 82  1  0  0  0  0
 62 64  1  0  0  0  0
 62 73  1  0  0  0  0
 63 74  1  0  0  0  0
 65 66  1  0  0  0  0
M  CHG  1  74   1
M  ISO  4  41 100  61 101  71 100  82 101
M  END
> <Batch ID>
0130

> <Smiles>
CNC(C)C(=O)NC(C(=O)N1Cc2cc([101O:1][101CH2:1]C(=O)C=CCc3cc(C)cc([100NH:0][100C:0](=O)N4CCCC(n5nc(-c6ccc(Oc7ccc(F)cc7F)cc6)c(C(N)=O)c5N)C4)c3)ccc2CC1C(=O)NC1CCCc2ccccc21)C(C)(C)C

> <Shape>
0.253

> <Color>
0.129

> <Negative vol penalty>
0.000

$$$$

  -OEChem-04052302223D

 85 94  0     1  0  0  0  0  0999 V2000
  -28.2316  -25.2683   13.5564 C   0  0  0  0  0  0  0  0  0  0  0  0
  -27.2198  -25.2515   14.5110 C   0  0  0  0  0  0  0  0  0  0  0  0
  -30.4729  -18.1960   21.0510 C   0  0  0  0  0  0  0  0  0  0  0  0
  -28.3825  -17.5948   19.9995 C   0  0  0  0  0  0  0  0  0  0  0  0
  -29.5476  -25.5204   13.9415 C   0  0  0  0  0  0  0  0  0  0  0  0
  -27.5236  -25.4859   15.8516 C   0  0  0  0  0  0  0  0  0  0  0  0
  -19.5363  -21.2375   21.7200 C   0  0  0  0  0  0  0  0  0  0  0  0
  -20.6270  -23.2225   22.5610 C   0  0  0  0  0  0  0  0  0  0  0  0
  -24.2581  -28.6673   18.0562 C   0  0  0  0  0  0  0  0  0  0  0  0
  -20.1360  -20.4813   22.7271 C   0  0  0  0  0  0  0  0  0  0  0  0
  -21.2267  -22.4664   23.5681 C   0  0  0  0  0  0  0  0  0  0  0  0
  -31.0430  -17.0064   20.5978 C   0  0  0  0  0  0  0  0  0  0  0  0
  -28.9526  -16.4052   19.5463 C   0  0  0  0  0  0  0  0  0  0  0  0
  -23.0207  -28.1483   18.4349 C   0  0  0  0  0  0  0  0  0  0  0  0
  -29.7070  -13.3628   20.8135 C   0  0  0  0  0  0  0  0  0  0  0  0
  -28.9634  -12.1916   20.9577 C   0  0  0  0  0  0  0  0  0  0  0  0
  -23.8022  -27.9608   20.7094 C   0  0  0  0  0  0  0  0  0  0  0  0
  -29.0058  -11.8698   18.5636 C   0  0  0  0  0  0  0  0  0  0  0  0
  -29.1426  -18.4902   20.7519 C   0  0  0  0  0  0  0  0  0  0  0  0
  -28.5308  -20.9589   20.5546 C   0  0  0  0  0  0  0  0  0  0  0  0
  -19.7819  -22.6081   21.6369 C   0  0  0  0  0  0  0  0  0  0  0  0
  -29.8663  -25.7676   15.2861 C   0  0  0  0  0  0  0  0  0  0  0  0
  -25.2822  -28.8270   19.0008 C   0  0  0  0  0  0  0  0  0  0  0  0
  -28.8454  -25.7404   16.2553 C   0  0  0  0  0  0  0  0  0  0  0  0
  -25.0508  -28.4844   20.3406 C   0  0  0  0  0  0  0  0  0  0  0  0
  -20.9812  -21.0958   23.6511 C   0  0  0  0  0  0  0  0  0  0  0  0
  -30.2829  -16.1110   19.8454 C   0  0  0  0  0  0  0  0  0  0  0  0
  -22.7936  -27.7923   19.7611 C   0  0  0  0  0  0  0  0  0  0  0  0
  -30.1000  -13.7876   19.5443 C   0  0  0  0  0  0  0  0  0  0  0  0
  -28.6128  -11.4451   19.8328 C   0  0  0  0  0  0  0  0  0  0  0  0
  -29.7495  -13.0411   18.4194 C   0  0  0  0  0  0  0  0  0  0  0  0
  -28.5529  -19.7186   21.2202 C   0  0  0  0  0  0  0  0  0  0  0  0
  -27.8583  -21.7962   21.4109 C   0  0  0  0  0  0  0  0  0  0  0  0
  -20.0580  -25.4791   19.8121 C   0  0  0  0  0  0  0  0  0  0  0  0
  -20.1204  -24.1468   19.6536 C   0  0  0  0  0  0  0  0  0  0  0  0
  -29.0698  -21.3217   19.2765 C   0  0  0  0  0  0  0  0  0  0  0  0
  -28.2048  -27.6313   19.3645 C   0  0  0  0  0  0  0  0  0  0  0  0
  -28.3444  -29.7504   21.8164 C   0  0  0  0  0  0  0  0  0  0  0  0
  -26.6690  -31.6326   24.1180 C   0  0  0  0  0  0  0  0  0  0  0  0
  -23.8258  -20.8290   25.7300 C   0  0  0  0  0  0  0  0  0  0  0  0
  -31.3104  -25.9886   15.6611 C   0  0  0  0  0  0  0  0  0  0  0  0
  -26.6024  -29.4132   18.5815 C   0  0  0  0  0  0  0  0  0  0  0  0
  -26.1105  -28.6553   21.3972 C   0  0  0  0  0  0  0  0  0  0  0  0
  -19.0281  -25.8705   20.8285 C   0  0  0  0  0  0  0  0  0  0  0  0
  -31.4929  -26.5980   17.0488 C   0  0  0  0  0  0  0  0  0  0  0  0
  -18.2440  -24.5790   21.0570 C   0  0  0  0  0  0  0  0  0  0  0  0
  -26.9698  -22.4662   26.0641 C   0  0  0  0  0  0  0  0  0  0  0  0
  -30.6175  -25.8761   18.0683 C   0  0  0  0  0  0  0  0  0  0  0  0
  -27.7301  -22.0596   24.8005 C   0  0  0  0  0  0  0  0  0  0  0  0
  -26.0956  -21.3287   26.5873 C   0  0  0  0  0  0  0  0  0  0  0  0
  -25.9264  -20.3489   24.3323 C   0  0  0  0  0  0  0  0  0  0  0  0
  -19.1305  -23.4306   20.5427 C   0  0  2  0  0  0  0  0  0  0  0  0
  -29.1315  -26.0146   17.7158 C   0  0  1  0  0  0  0  0  0  0  0  0
  -27.7438  -29.0521   19.5271 C   0  0  1  0  0  0  0  0  0  0  0  0
  -26.7789  -21.4817   23.7353 C   0  0  2  0  0  0  0  0  0  0  0  0
  -20.9985  -23.3604   18.7394 C   0  0  0  0  0  0  0  0  0  0  0  0
  -27.0559  -33.2336   26.0113 C   0  0  0  0  0  0  0  0  0  0  0  0
  -29.1467  -27.4222   23.6180 C   0  0  0  0  0  0  0  0  0  0  0  0
  -28.5940  -28.8537   25.5964 C   0  0  0  0  0  0  0  0  0  0  0  0
  -30.4083  -29.5421   24.0289 C   0  0  0  0  0  0  0  0  0  0  0  0
  -25.2083  -33.8030   22.7343 C   0  0  0  0  0  0  0  0  0  0  0  0
  -21.6207  -20.2869   24.7287 C   0  0  0  0  0  0  0  0  0  0  0  0
  -20.8636  -26.5433   19.1518 C   0  0  0  0  0  0  0  0  0  1  0  0
  -27.9978  -29.7103   23.2852 C   0  0  1  0  0  0  0  0  0  0  0  0
  -26.8049  -33.0906   24.5182 C   0  0  2  0  0  0  0  0  0  0  0  0
  -29.0172  -28.8769   24.1121 C   0  0  0  0  0  0  0  0  0  0  0  0
  -27.9431  -19.7599   22.4079 N   0  0  0  0  0  0  0  0  0  0  0  0
  -27.5316  -21.0362   22.4952 N   0  0  0  0  0  0  0  0  0  0  0  0
  -27.3868  -29.2265   20.9364 N   0  0  0  0  0  0  0  0  0  0  0  0
  -25.2160  -20.8267   25.5289 N   0  0  0  0  0  0  0  0  0  0  0  0
  -27.5206  -23.1010   21.3345 N   0  0  0  0  0  0  0  0  0  0  0  0
  -29.7305  -20.3390   18.5267 N   0  0  0  0  0  0  0  0  0  0  0  0
  -28.6431  -27.3243   18.0905 N   0  0  0  0  0  0  0  0  0  0  0  0
  -27.8746  -31.0995   23.7136 N   0  0  0  0  0  0  0  0  0  0  0  0
  -23.0645  -20.3423   24.6743 N   0  0  0  0  0  0  0  0  0  0  0  0
  -25.5625  -33.8395   24.1766 N   0  3  0  0  0  0  0  0  0  0  0  0
  -28.9830  -22.4869   18.8203 O   0  0  0  0  0  0  0  0  0  0  0  0
  -28.1670  -26.8703   20.3242 O   0  0  0  0  0  0  0  0  0  0  0  0
  -29.4219  -30.2355   21.4623 O   0  0  0  0  0  0  0  0  0  0  0  0
  -25.6010  -31.0261   24.1634 O   0  0  0  0  0  0  0  0  0  0  0  0
  -23.3016  -21.2397   26.7709 O   0  0  0  0  0  0  0  0  0  0  0  0
  -30.8390  -14.9502   19.4028 O   0  0  0  0  0  0  0  0  0  0  0  0
  -21.5870  -27.2849   20.1332 O   0  0  0  0  0  0  0  0  0  1  0  0
  -27.9000  -10.3196   19.9716 F   0  0  0  0  0  0  0  0  0  0  0  0
  -30.1252  -13.4435   17.1976 F   0  0  0  0  0  0  0  0  0  0  0  0
  1  2  1  0  0  0  0
  1  5  2  0  0  0  0
  2  6  2  0  0  0  0
  3 12  2  0  0  0  0
  3 19  1  0  0  0  0
  4 13  1  0  0  0  0
  4 19  2  0  0  0  0
  5 22  1  0  0  0  0
  6 24  1  0  0  0  0
  7 10  2  0  0  0  0
  7 21  1  0  0  0  0
  8 11  1  0  0  0  0
  8 21  2  0  0  0  0
  9 14  2  0  0  0  0
  9 23  1  0  0  0  0
 10 26  1  0  0  0  0
 11 26  2  0  0  0  0
 12 27  1  0  0  0  0
 13 27  2  0  0  0  0
 14 28  1  0  0  0  0
 15 16  2  0  0  0  0
 15 29  1  0  0  0  0
 16 30  1  0  0  0  0
 17 25  1  0  0  0  0
 17 28  2  0  0  0  0
 18 30  2  0  0  0  0
 18 31  1  0  0  0  0
 19 32  1  0  0  0  0
 20 32  1  0  0  0  0
 20 33  2  0  0  0  0
 20 36  1  0  0  0  0
 21 52  1  0  0  0  0
 22 24  2  0  0  0  0
 22 41  1  0  0  0  0
 23 25  2  0  0  0  0
 23 42  1  0  0  0  0
 24 53  1  0  0  0  0
 25 43  1  0  0  0  0
 26 62  1  0  0  0  0
 27 82  1  0  0  0  0
 28 83  1  0  0  0  0
 29 31  2  0  0  0  0
 29 82  1  0  0  0  0
 30 84  1  0  0  0  0
 31 85  1  0  0  0  0
 32 67  2  0  0  0  0
 33 68  1  0  0  0  0
 33 71  1  0  0  0  0
 34 35  2  0  0  0  0
 34 44  1  0  0  0  0
 34 63  1  0  0  0  0
 35 52  1  0  0  0  0
 35 56  1  0  0  0  0
 36 72  1  0  0  0  0
 36 77  2  0  0  0  0
 37 54  1  0  0  0  0
 37 73  1  0  0  0  0
 37 78  2  0  0  0  0
 38 64  1  0  0  0  0
 38 69  1  0  0  0  0
 38 79  2  0  0  0  0
 39 65  1  0  0  0  0
 39 74  1  0  0  0  0
 39 80  2  0  0  0  0
 40 70  1  0  0  0  0
 40 75  1  0  0  0  0
 40 81  2  0  0  0  0
 41 45  1  0  0  0  0
 42 54  1  0  0  0  0
 43 69  1  0  0  0  0
 44 46  1  0  0  0  0
 45 48  1  0  0  0  0
 46 52  1  0  0  0  0
 47 49  1  0  0  0  0
 47 50  1  0  0  0  0
 48 53  1  0  0  0  0
 49 55  1  0  0  0  0
 50 70  1  0  0  0  0
 51 55  1  0  0  0  0
 51 70  1  0  0  0  0
 53 73  1  0  0  0  0
 54 69  1  0  0  0  0
 55 68  1  0  0  0  0
 57 65  1  0  0  0  0
 58 66  1  0  0  0  0
 59 66  1  0  0  0  0
 60 66  1  0  0  0  0
 61 76  1  0  0  0  0
 62 75  1  0  0  0  0
 63 83  1  0  0  0  0
 64 66  1  0  0  0  0
 64 74  1  0  0  0  0
 65 76  1  0  0  0  0
 67 68  1  0  0  0  0
M  CHG  1  76   1
M  ISO  4  40 100  63 101  75 100  83 101
M  END
> <Batch ID>
0130

> <Smiles>
CNC(C)C(=O)NC(C(=O)N1Cc2cc([101O:1][101CH2:1]C3=C(C)C(c4ccc(C[100NH:0][100C:0](=O)N5CCCC(n6nc(-c7ccc(Oc8ccc(F)cc8F)cc7)c(C(N)=O)c6N)C5)cc4)CC3)ccc2CC1C(=O)NC1CCCc2ccccc21)C(C)(C)C

> <Shape>
0.217

> <Color>
0.085

> <Negative vol penalty>
0.000

$$$$

  -OEChem-04052302223D

 85 93  0     1  0  0  0  0  0999 V2000
  -28.2877  -32.1899   27.2770 C   0  0  0  0  0  0  0  0  0  0  0  0
  -28.4306  -31.3638   26.1668 C   0  0  0  0  0  0  0  0  0  0  0  0
  -23.5990   -8.7744   20.2428 C   0  0  0  0  0  0  0  0  0  0  0  0
  -23.1230  -10.6880   21.6386 C   0  0  0  0  0  0  0  0  0  0  0  0
  -31.2427  -18.9498   19.9018 C   0  0  0  0  0  0  0  0  0  0  0  0
  -27.0356  -32.3497   27.8690 C   0  0  0  0  0  0  0  0  0  0  0  0
  -27.3216  -30.6959   25.6487 C   0  0  0  0  0  0  0  0  0  0  0  0
  -27.0800  -30.9596   20.5973 C   0  0  0  0  0  0  0  0  0  0  0  0
  -31.0348  -17.5706   19.9093 C   0  0  0  0  0  0  0  0  0  0  0  0
  -22.6660   -8.0219   20.9561 C   0  0  0  0  0  0  0  0  0  0  0  0
  -22.1899   -9.9356   22.3519 C   0  0  0  0  0  0  0  0  0  0  0  0
  -27.9187  -30.1122   19.8746 C   0  0  0  0  0  0  0  0  0  0  0  0
  -22.5183   -6.3919   23.9134 C   0  0  0  0  0  0  0  0  0  0  0  0
  -22.8839   -5.1015   24.2963 C   0  0  0  0  0  0  0  0  0  0  0  0
  -29.2113  -19.2491   18.6286 C   0  0  0  0  0  0  0  0  0  0  0  0
  -26.0726  -28.6017   19.5148 C   0  0  0  0  0  0  0  0  0  0  0  0
  -21.0368   -4.2010   23.0256 C   0  0  0  0  0  0  0  0  0  0  0  0
  -23.8276  -10.1074   20.5841 C   0  0  0  0  0  0  0  0  0  0  0  0
  -30.3309  -19.7891   19.2615 C   0  0  0  0  0  0  0  0  0  0  0  0
  -24.5567  -11.6645   18.6996 C   0  0  0  0  0  0  0  0  0  0  0  0
  -25.9088  -31.6911   27.3521 C   0  0  0  0  0  0  0  0  0  0  0  0
  -25.7315  -30.6284   20.7937 C   0  0  0  0  0  0  0  0  0  0  0  0
  -26.0534  -30.8460   26.2353 C   0  0  0  0  0  0  0  0  0  0  0  0
  -25.2182  -29.4478   20.2381 C   0  0  0  0  0  0  0  0  0  0  0  0
  -29.0035  -17.8698   18.6360 C   0  0  0  0  0  0  0  0  0  0  0  0
  -29.9153  -17.0306   19.2763 C   0  0  0  0  0  0  0  0  0  0  0  0
  -21.9613   -8.6025   22.0106 C   0  0  0  0  0  0  0  0  0  0  0  0
  -27.4158  -28.9316   19.3357 C   0  0  0  0  0  0  0  0  0  0  0  0
  -21.4119   -6.5870   23.0866 C   0  0  0  0  0  0  0  0  0  0  0  0
  -22.1432   -4.0060   23.8524 C   0  0  0  0  0  0  0  0  0  0  0  0
  -20.6712   -5.4915   22.6427 C   0  0  0  0  0  0  0  0  0  0  0  0
  -24.7918  -10.8850   19.8480 C   0  0  0  0  0  0  0  0  0  0  0  0
  -25.7840  -12.1973   18.3891 C   0  0  0  0  0  0  0  0  0  0  0  0
  -30.5508  -21.2447   19.2541 C   0  0  0  0  0  0  0  0  0  0  0  0
  -29.9941  -22.1051   18.3874 C   0  0  0  0  0  0  0  0  0  0  0  0
  -23.3380  -11.8871   17.9779 C   0  0  0  0  0  0  0  0  0  0  0  0
  -23.9141  -30.0364   23.3334 C   0  0  0  0  0  0  0  0  0  0  0  0
  -21.5353  -29.9676   21.1291 C   0  0  0  0  0  0  0  0  0  0  0  0
  -20.6121  -29.5057   17.8763 C   0  0  0  0  0  0  0  0  0  0  0  0
  -30.5419  -14.6692   19.8910 C   0  0  0  0  0  0  0  0  0  0  0  0
  -24.5847  -31.8576   28.0548 C   0  0  0  0  0  0  0  0  0  0  0  0
  -24.8335  -31.5663   21.5529 C   0  0  0  0  0  0  0  0  0  0  0  0
  -23.7732  -29.0565   20.4031 C   0  0  0  0  0  0  0  0  0  0  0  0
  -23.3900  -31.4090   27.2171 C   0  0  0  0  0  0  0  0  0  0  0  0
  -30.3915  -11.1245   20.1896 C   0  0  0  0  0  0  0  0  0  0  0  0
  -23.6662  -30.0523   26.5769 C   0  0  0  0  0  0  0  0  0  0  0  0
  -28.9019  -10.8103   20.0329 C   0  0  0  0  0  0  0  0  0  0  0  0
  -30.6190  -12.4258   20.9568 C   0  0  0  0  0  0  0  0  0  0  0  0
  -28.4119  -13.2782   20.2703 C   0  0  0  0  0  0  0  0  0  0  0  0
  -24.8695  -30.1241   25.6291 C   0  0  1  0  0  0  0  0  0  0  0  0
  -23.6000  -30.8774   22.1285 C   0  0  1  0  0  0  0  0  0  0  0  0
  -28.1315  -12.0101   19.4476 C   0  0  2  0  0  0  0  0  0  0  0  0
  -28.1321  -16.6969   16.5984 C   0  0  0  0  0  0  0  0  0  0  0  0
  -18.5927  -29.4763   16.3868 C   0  0  0  0  0  0  0  0  0  0  0  0
  -20.7729  -27.2223   22.2210 C   0  0  0  0  0  0  0  0  0  0  0  0
  -19.4268  -26.8471   20.1436 C   0  0  0  0  0  0  0  0  0  0  0  0
  -18.8335  -28.7102   21.6926 C   0  0  0  0  0  0  0  0  0  0  0  0
  -21.6456  -31.7420   16.2362 C   0  0  0  0  0  0  0  0  0  0  0  0
  -27.7957  -17.3185   17.9502 C   0  0  0  0  0  0  0  0  0  0  0  0
  -30.2529  -23.5853   18.4107 C   0  0  0  0  0  0  0  0  0  0  0  0
  -28.9699  -24.4123   18.5410 C   0  0  0  0  0  0  0  0  0  0  0  0
  -29.2219  -25.9201   18.4954 C   0  0  0  0  0  0  0  0  0  0  0  0
  -27.9304  -26.7082   18.6667 C   0  0  0  0  0  0  0  0  0  1  0  0
  -20.9104  -28.9003   20.2635 C   0  0  1  0  0  0  0  0  0  0  0  0
  -19.7216  -30.3213   16.9564 C   0  0  2  0  0  0  0  0  0  0  0  0
  -20.0136  -27.9261   21.0785 C   0  0  0  0  0  0  0  0  0  0  0  0
  -26.0681  -10.9169   20.2405 N   0  0  0  0  0  0  0  0  0  0  0  0
  -26.6461  -11.7228   19.3335 N   0  0  0  0  0  0  0  0  0  0  0  0
  -22.9366  -30.0033   21.1589 N   0  0  0  0  0  0  0  0  0  0  0  0
  -29.8617  -13.5186   20.3427 N   0  0  0  0  0  0  0  0  0  0  0  0
  -26.1991  -13.0207   17.4032 N   0  0  0  0  0  0  0  0  0  0  0  0
  -22.1684  -11.2632   18.4332 N   0  0  0  0  0  0  0  0  0  0  0  0
  -29.7220  -15.6270   19.2951 N   0  0  0  0  0  0  0  0  0  0  0  0
  -24.4893  -30.7387   24.3753 N   0  0  0  0  0  0  0  0  0  0  0  0
  -20.2111  -29.6013   19.1921 N   0  0  0  0  0  0  0  0  0  0  0  0
  -20.5152  -30.8718   15.8214 N   0  3  0  0  0  0  0  0  0  0  0  0
  -23.2908  -12.6046   16.9500 O   0  0  0  0  0  0  0  0  0  0  0  0
  -23.6526  -28.8393   23.3195 O   0  0  0  0  0  0  0  0  0  0  0  0
  -20.8069  -30.7457   21.7502 O   0  0  0  0  0  0  0  0  0  0  0  0
  -21.5657  -28.8465   17.4679 O   0  0  0  0  0  0  0  0  0  0  0  0
  -31.7655  -14.7838   19.9984 O   0  0  0  0  0  0  0  0  0  0  0  0
  -21.0506   -7.8687   22.7067 O   0  0  0  0  0  0  0  0  0  0  0  0
  -28.2325  -28.1024   18.6305 O   0  0  0  0  0  0  0  0  0  1  0  0
  -22.4954   -2.7668   24.2190 F   0  0  0  0  0  0  0  0  0  0  0  0
  -19.6079   -5.6726   21.8474 F   0  0  0  0  0  0  0  0  0  0  0  0
  1  2  1  0  0  0  0
  1  6  2  0  0  0  0
  2  7  2  0  0  0  0
  3 10  2  0  0  0  0
  3 18  1  0  0  0  0
  4 11  1  0  0  0  0
  4 18  2  0  0  0  0
  5  9  2  0  0  0  0
  5 19  1  0  0  0  0
  6 21  1  0  0  0  0
  7 23  1  0  0  0  0
  8 12  2  0  0  0  0
  8 22  1  0  0  0  0
  9 26  1  0  0  0  0
 10 27  1  0  0  0  0
 11 27  2  0  0  0  0
 12 28  1  0  0  0  0
 13 14  2  0  0  0  0
 13 29  1  0  0  0  0
 14 30  1  0  0  0  0
 15 19  2  0  0  0  0
 15 25  1  0  0  0  0
 16 24  1  0  0  0  0
 16 28  2  0  0  0  0
 17 30  2  0  0  0  0
 17 31  1  0  0  0  0
 18 32  1  0  0  0  0
 19 34  1  0  0  0  0
 20 32  1  0  0  0  0
 20 33  2  0  0  0  0
 20 36  1  0  0  0  0
 21 23  2  0  0  0  0
 21 41  1  0  0  0  0
 22 24  2  0  0  0  0
 22 42  1  0  0  0  0
 23 50  1  0  0  0  0
 24 43  1  0  0  0  0
 25 26  2  0  0  0  0
 25 59  1  0  0  0  0
 26 73  1  0  0  0  0
 27 82  1  0  0  0  0
 28 83  1  0  0  0  0
 29 31  2  0  0  0  0
 29 82  1  0  0  0  0
 30 84  1  0  0  0  0
 31 85  1  0  0  0  0
 32 67  2  0  0  0  0
 33 68  1  0  0  0  0
 33 71  1  0  0  0  0
 34 35  2  0  0  0  0
 35 60  1  0  0  0  0
 36 72  1  0  0  0  0
 36 77  2  0  0  0  0
 37 51  1  0  0  0  0
 37 74  1  0  0  0  0
 37 78  2  0  0  0  0
 38 64  1  0  0  0  0
 38 69  1  0  0  0  0
 38 79  2  0  0  0  0
 39 65  1  0  0  0  0
 39 75  1  0  0  0  0
 39 80  2  0  0  0  0
 40 70  1  0  0  0  0
 40 73  1  0  0  0  0
 40 81  2  0  0  0  0
 41 44  1  0  0  0  0
 42 51  1  0  0  0  0
 43 69  1  0  0  0  0
 44 46  1  0  0  0  0
 45 47  1  0  0  0  0
 45 48  1  0  0  0  0
 46 50  1  0  0  0  0
 47 52  1  0  0  0  0
 48 70  1  0  0  0  0
 49 52  1  0  0  0  0
 49 70  1  0  0  0  0
 50 74  1  0  0  0  0
 51 69  1  0  0  0  0
 52 68  1  0  0  0  0
 53 59  1  0  0  0  0
 54 65  1  0  0  0  0
 55 66  1  0  0  0  0
 56 66  1  0  0  0  0
 57 66  1  0  0  0  0
 58 76  1  0  0  0  0
 60 61  1  0  0  0  0
 61 62  1  0  0  0  0
 62 63  1  0  0  0  0
 63 83  1  0  0  0  0
 64 66  1  0  0  0  0
 64 75  1  0  0  0  0
 65 76  1  0  0  0  0
 67 68  1  0  0  0  0
M  CHG  1  76   1
M  ISO  4  40 100  63 101  73 100  83 101
M  END
> <Batch ID>
0130

> <Smiles>
CCc1cc(C=CCCC[101CH2:1][101O:1]c2ccc3c(c2)CN(C(=O)C(NC(=O)C(C)NC)C(C)(C)C)C(C(=O)NC2CCCc4ccccc42)C3)ccc1[100NH:0][100C:0](=O)N1CCCC(n2nc(-c3ccc(Oc4ccc(F)cc4F)cc3)c(C(N)=O)c2N)C1

> <Shape>
0.312

> <Color>
0.114

> <Negative vol penalty>
0.000

$$$$

  -OEChem-04052302223D

 86 94  0     1  0  0  0  0  0999 V2000
  -18.8655  -24.2526   23.6294 C   0  0  0  0  0  0  0  0  0  0  0  0
  -20.2089  -24.2954   23.2704 C   0  0  0  0  0  0  0  0  0  0  0  0
  -23.8155   -8.7173   19.7252 C   0  0  0  0  0  0  0  0  0  0  0  0
  -23.2667  -10.3557   21.4137 C   0  0  0  0  0  0  0  0  0  0  0  0
  -18.0773  -25.3969   23.5134 C   0  0  0  0  0  0  0  0  0  0  0  0
  -20.7646  -25.4823   22.7941 C   0  0  0  0  0  0  0  0  0  0  0  0
  -25.2738  -26.4858   24.8689 C   0  0  0  0  0  0  0  0  0  0  0  0
  -30.7024  -19.3798   20.7085 C   0  0  0  0  0  0  0  0  0  0  0  0
  -30.5903  -18.0036   20.5111 C   0  0  0  0  0  0  0  0  0  0  0  0
  -22.9698   -7.7965   20.3438 C   0  0  0  0  0  0  0  0  0  0  0  0
  -22.4210   -9.4349   22.0323 C   0  0  0  0  0  0  0  0  0  0  0  0
  -26.3721  -25.7823   24.3763 C   0  0  0  0  0  0  0  0  0  0  0  0
  -23.0667   -5.7315   23.0179 C   0  0  0  0  0  0  0  0  0  0  0  0
  -23.5389   -4.4298   23.1855 C   0  0  0  0  0  0  0  0  0  0  0  0
  -26.9814  -27.6886   23.0294 C   0  0  0  0  0  0  0  0  0  0  0  0
  -21.7064   -3.5933   21.8515 C   0  0  0  0  0  0  0  0  0  0  0  0
  -23.9639   -9.9969   20.2602 C   0  0  0  0  0  0  0  0  0  0  0  0
  -24.4984  -11.8722   18.6155 C   0  0  0  0  0  0  0  0  0  0  0  0
  -18.6261  -26.6009   23.0446 C   0  0  0  0  0  0  0  0  0  0  0  0
  -25.0145  -27.7943   24.4364 C   0  0  0  0  0  0  0  0  0  0  0  0
  -19.9827  -26.6434   22.6705 C   0  0  0  0  0  0  0  0  0  0  0  0
  -25.8806  -28.4074   23.5199 C   0  0  0  0  0  0  0  0  0  0  0  0
  -29.7087  -20.2358   20.2336 C   0  0  0  0  0  0  0  0  0  0  0  0
  -28.4907  -18.3392   19.3638 C   0  0  0  0  0  0  0  0  0  0  0  0
  -29.4845  -17.4833   19.8388 C   0  0  0  0  0  0  0  0  0  0  0  0
  -22.2726   -8.1553   21.4973 C   0  0  0  0  0  0  0  0  0  0  0  0
  -27.2245  -26.3826   23.4543 C   0  0  0  0  0  0  0  0  0  0  0  0
  -21.9143   -5.9641   22.2672 C   0  0  0  0  0  0  0  0  0  0  0  0
  -28.6029  -19.7155   19.5612 C   0  0  0  0  0  0  0  0  0  0  0  0
  -22.8588   -3.3607   22.6023 C   0  0  0  0  0  0  0  0  0  0  0  0
  -21.2342   -4.8950   21.6840 C   0  0  0  0  0  0  0  0  0  0  0  0
  -24.8378  -10.9483   19.6220 C   0  0  0  0  0  0  0  0  0  0  0  0
  -25.6703  -12.5381   18.3514 C   0  0  0  0  0  0  0  0  0  0  0  0
  -23.2367  -12.1075   17.9764 C   0  0  0  0  0  0  0  0  0  0  0  0
  -22.6279  -29.2140   22.8897 C   0  0  0  0  0  0  0  0  0  0  0  0
  -24.3256  -31.9017   23.5350 C   0  0  0  0  0  0  0  0  0  0  0  0
  -27.3465  -33.3178   24.2531 C   0  0  0  0  0  0  0  0  0  0  0  0
  -30.3025  -15.1110   20.0618 C   0  0  0  0  0  0  0  0  0  0  0  0
  -17.7232  -27.7993   22.8919 C   0  0  0  0  0  0  0  0  0  0  0  0
  -23.8407  -28.5492   24.9976 C   0  0  0  0  0  0  0  0  0  0  0  0
  -25.6577  -29.8173   23.0392 C   0  0  0  0  0  0  0  0  0  0  0  0
  -18.4797  -29.1156   22.7326 C   0  0  0  0  0  0  0  0  0  0  0  0
  -30.4162  -11.5609   19.8156 C   0  0  0  0  0  0  0  0  0  0  0  0
  -19.6050  -28.9646   21.7140 C   0  0  0  0  0  0  0  0  0  0  0  0
  -28.9471  -11.1610   19.6604 C   0  0  0  0  0  0  0  0  0  0  0  0
  -30.5844  -12.7448   20.7663 C   0  0  0  0  0  0  0  0  0  0  0  0
  -28.2947  -13.5199   20.2909 C   0  0  0  0  0  0  0  0  0  0  0  0
  -20.6281  -27.9186   22.1730 C   0  0  1  0  0  0  0  0  0  0  0  0
  -23.3808  -29.6928   24.0986 C   0  0  1  0  0  0  0  0  0  0  0  0
  -28.0690  -12.3730   19.2921 C   0  0  2  0  0  0  0  0  0  0  0  0
  -27.6282  -17.3987   17.2056 C   0  0  0  0  0  0  0  0  0  0  0  0
  -27.1325  -22.4221   17.6884 C   0  0  0  0  0  0  0  0  0  0  0  0
  -28.4262  -35.5408   24.6890 C   0  0  0  0  0  0  0  0  0  0  0  0
  -24.2133  -32.5381   20.5530 C   0  0  0  0  0  0  0  0  0  0  0  0
  -26.0596  -34.1915   20.9074 C   0  0  0  0  0  0  0  0  0  0  0  0
  -23.8670  -34.5083   22.0539 C   0  0  0  0  0  0  0  0  0  0  0  0
  -28.1888  -32.5062   26.9717 C   0  0  0  0  0  0  0  0  0  0  0  0
  -29.8475  -21.7204   20.4586 C   0  0  0  0  0  0  0  0  0  0  0  0
  -27.3006  -17.7890   18.6425 C   0  0  0  0  0  0  0  0  0  0  0  0
  -28.9504  -22.2637   21.5764 C   0  0  0  0  0  0  0  0  0  0  0  0
  -29.0480  -23.7813   21.7379 C   0  0  0  0  0  0  0  0  0  0  0  0
  -27.7902  -21.0615   17.7770 C   0  0  0  0  0  0  0  0  0  0  0  0
  -28.1747  -24.2790   22.8817 C   0  0  0  0  0  0  0  0  0  1  0  0
  -25.4186  -32.6703   22.8324 C   0  0  1  0  0  0  0  0  0  0  0  0
  -27.7613  -34.3232   25.3121 C   0  0  2  0  0  0  0  0  0  0  0  0
  -24.8930  -33.4498   21.5941 C   0  0  0  0  0  0  0  0  0  0  0  0
  -26.1245  -11.0180   19.9733 N   0  0  0  0  0  0  0  0  0  0  0  0
  -26.6040  -11.9936   19.1831 N   0  0  0  0  0  0  0  0  0  0  0  0
  -24.4930  -30.5118   23.6123 N   0  0  0  0  0  0  0  0  0  0  0  0
  -29.7257  -13.8567   20.3526 N   0  0  0  0  0  0  0  0  0  0  0  0
  -25.9829  -13.5304   17.4911 N   0  0  0  0  0  0  0  0  0  0  0  0
  -22.1351  -11.3343   18.3676 N   0  0  0  0  0  0  0  0  0  0  0  0
  -29.3918  -16.0823   19.6474 N   0  0  0  0  0  0  0  0  0  0  0  0
  -21.4990  -28.4743   23.1865 N   0  0  0  0  0  0  0  0  0  0  0  0
  -26.0430  -33.5119   23.8474 N   0  0  0  0  0  0  0  0  0  0  0  0
  -28.7205  -33.7020   26.2687 N   0  3  0  0  0  0  0  0  0  0  0  0
  -23.0942  -12.9664   17.0734 O   0  0  0  0  0  0  0  0  0  0  0  0
  -23.0397  -29.4961   21.7706 O   0  0  0  0  0  0  0  0  0  0  0  0
  -23.3623  -32.5129   24.0044 O   0  0  0  0  0  0  0  0  0  0  0  0
  -28.1041  -32.4496   23.8257 O   0  0  0  0  0  0  0  0  0  0  0  0
  -31.5185  -15.3013   20.1461 O   0  0  0  0  0  0  0  0  0  0  0  0
  -21.4471   -7.2571   22.1011 O   0  0  0  0  0  0  0  0  0  0  0  0
  -28.2968  -25.6980   22.9714 O   0  0  0  0  0  0  0  0  0  1  0  0
  -27.6311  -20.5542   19.0995 O   0  0  0  0  0  0  0  0  0  0  0  0
  -23.3133   -2.1108   22.7620 F   0  0  0  0  0  0  0  0  0  0  0  0
  -20.1272   -5.1124   20.9607 F   0  0  0  0  0  0  0  0  0  0  0  0
  1  2  1  0  0  0  0
  1  5  2  0  0  0  0
  2  6  2  0  0  0  0
  3 10  2  0  0  0  0
  3 17  1  0  0  0  0
  4 11  1  0  0  0  0
  4 17  2  0  0  0  0
  5 19  1  0  0  0  0
  6 21  1  0  0  0  0
  7 12  2  0  0  0  0
  7 20  1  0  0  0  0
  8  9  1  0  0  0  0
  8 23  2  0  0  0  0
  9 25  2  0  0  0  0
 10 26  1  0  0  0  0
 11 26  2  0  0  0  0
 12 27  1  0  0  0  0
 13 14  2  0  0  0  0
 13 28  1  0  0  0  0
 14 30  1  0  0  0  0
 15 22  1  0  0  0  0
 15 27  2  0  0  0  0
 16 30  2  0  0  0  0
 16 31  1  0  0  0  0
 17 32  1  0  0  0  0
 18 32  1  0  0  0  0
 18 33  2  0  0  0  0
 18 34  1  0  0  0  0
 19 21  2  0  0  0  0
 19 39  1  0  0  0  0
 20 22  2  0  0  0  0
 20 40  1  0  0  0  0
 21 48  1  0  0  0  0
 22 41  1  0  0  0  0
 23 29  1  0  0  0  0
 23 58  1  0  0  0  0
 24 25  1  0  0  0  0
 24 29  2  0  0  0  0
 24 59  1  0  0  0  0
 25 73  1  0  0  0  0
 26 82  1  0  0  0  0
 27 83  1  0  0  0  0
 28 31  2  0  0  0  0
 28 82  1  0  0  0  0
 29 84  1  0  0  0  0
 30 85  1  0  0  0  0
 31 86  1  0  0  0  0
 32 67  2  0  0  0  0
 33 68  1  0  0  0  0
 33 71  1  0  0  0  0
 34 72  1  0  0  0  0
 34 77  2  0  0  0  0
 35 49  1  0  0  0  0
 35 74  1  0  0  0  0
 35 78  2  0  0  0  0
 36 64  1  0  0  0  0
 36 69  1  0  0  0  0
 36 79  2  0  0  0  0
 37 65  1  0  0  0  0
 37 75  1  0  0  0  0
 37 80  2  0  0  0  0
 38 70  1  0  0  0  0
 38 73  1  0  0  0  0
 38 81  2  0  0  0  0
 39 42  1  0  0  0  0
 40 49  1  0  0  0  0
 41 69  1  0  0  0  0
 42 44  1  0  0  0  0
 43 45  1  0  0  0  0
 43 46  1  0  0  0  0
 44 48  1  0  0  0  0
 45 50  1  0  0  0  0
 46 70  1  0  0  0  0
 47 50  1  0  0  0  0
 47 70  1  0  0  0  0
 48 74  1  0  0  0  0
 49 69  1  0  0  0  0
 50 68  1  0  0  0  0
 51 59  1  0  0  0  0
 52 62  1  0  0  0  0
 53 65  1  0  0  0  0
 54 66  1  0  0  0  0
 55 66  1  0  0  0  0
 56 66  1  0  0  0  0
 57 76  1  0  0  0  0
 58 60  1  0  0  0  0
 60 61  1  0  0  0  0
 61 63  1  0  0  0  0
 62 84  1  0  0  0  0
 63 83  1  0  0  0  0
 64 66  1  0  0  0  0
 64 75  1  0  0  0  0
 65 76  1  0  0  0  0
 67 68  1  0  0  0  0
M  CHG  1  76   1
M  ISO  4  38 100  63 101  73 100  83 101
M  END
> <Batch ID>
0130

> <Smiles>
CCOc1c(CCC[101CH2:1][101O:1]c2ccc3c(c2)CN(C(=O)C(NC(=O)C(C)NC)C(C)(C)C)C(C(=O)NC2CCCc4ccccc42)C3)ccc([100NH:0][100C:0](=O)N2CCCC(n3nc(-c4ccc(Oc5ccc(F)cc5F)cc4)c(C(N)=O)c3N)C2)c1CC

> <Shape>
0.299

> <Color>
0.120

> <Negative vol penalty>
0.000

$$$$

  -OEChem-04052302223D

 81 89  0     1  0  0  0  0  0999 V2000
  -16.5599  -29.7281   22.5078 C   0  0  0  0  0  0  0  0  0  0  0  0
  -17.5195  -30.6732   22.8564 C   0  0  0  0  0  0  0  0  0  0  0  0
  -33.2084  -28.4466   26.8571 C   0  0  0  0  0  0  0  0  0  0  0  0
  -26.5910  -18.2317   20.1780 C   0  0  0  0  0  0  0  0  0  0  0  0
  -27.1982  -18.7676   17.9018 C   0  0  0  0  0  0  0  0  0  0  0  0
  -32.6548  -27.2516   26.3978 C   0  0  0  0  0  0  0  0  0  0  0  0
  -16.9091  -28.3811   22.4208 C   0  0  0  0  0  0  0  0  0  0  0  0
  -18.8287  -30.2716   23.1191 C   0  0  0  0  0  0  0  0  0  0  0  0
  -25.5955  -32.5377   22.4927 C   0  0  0  0  0  0  0  0  0  0  0  0
  -33.1111  -29.6031   26.0833 C   0  0  0  0  0  0  0  0  0  0  0  0
  -25.3658  -17.7344   19.7341 C   0  0  0  0  0  0  0  0  0  0  0  0
  -25.9730  -18.2702   17.4578 C   0  0  0  0  0  0  0  0  0  0  0  0
  -26.7498  -32.7066   23.2561 C   0  0  0  0  0  0  0  0  0  0  0  0
  -24.2019  -14.9107   18.2833 C   0  0  0  0  0  0  0  0  0  0  0  0
  -23.7690  -13.6922   18.8064 C   0  0  0  0  0  0  0  0  0  0  0  0
  -31.9066  -28.3695   24.3909 C   0  0  0  0  0  0  0  0  0  0  0  0
  -27.2566  -30.3623   22.9974 C   0  0  0  0  0  0  0  0  0  0  0  0
  -21.7937  -14.7710   19.6847 C   0  0  0  0  0  0  0  0  0  0  0  0
  -27.5073  -18.7484   19.2618 C   0  0  0  0  0  0  0  0  0  0  0  0
  -32.0039  -27.2130   25.1647 C   0  0  0  0  0  0  0  0  0  0  0  0
  -29.9760  -18.5481   19.8723 C   0  0  0  0  0  0  0  0  0  0  0  0
  -18.2255  -27.9641   22.6732 C   0  0  0  0  0  0  0  0  0  0  0  0
  -25.2567  -31.2755   21.9842 C   0  0  0  0  0  0  0  0  0  0  0  0
  -19.1956  -28.9176   23.0367 C   0  0  0  0  0  0  0  0  0  0  0  0
  -26.0987  -30.1806   22.2257 C   0  0  0  0  0  0  0  0  0  0  0  0
  -32.4602  -29.5645   24.8502 C   0  0  0  0  0  0  0  0  0  0  0  0
  -25.0568  -17.7536   18.3740 C   0  0  0  0  0  0  0  0  0  0  0  0
  -27.5790  -31.6182   23.5110 C   0  0  0  0  0  0  0  0  0  0  0  0
  -23.4307  -16.0593   18.4610 C   0  0  0  0  0  0  0  0  0  0  0  0
  -22.5649  -13.6224   19.5070 C   0  0  0  0  0  0  0  0  0  0  0  0
  -22.2266  -15.9895   19.1617 C   0  0  0  0  0  0  0  0  0  0  0  0
  -28.7728  -19.2628   19.7198 C   0  0  0  0  0  0  0  0  0  0  0  0
  -30.8739  -19.4810   20.3305 C   0  0  0  0  0  0  0  0  0  0  0  0
  -31.4272  -25.9665   24.6853 C   0  0  0  0  0  0  0  0  0  0  0  0
  -30.4715  -25.8592   23.7379 C   0  0  0  0  0  0  0  0  0  0  0  0
  -30.2570  -17.1645   19.6220 C   0  0  0  0  0  0  0  0  0  0  0  0
  -29.9939  -24.5166   23.3506 C   0  0  0  0  0  0  0  0  0  0  0  0
  -22.8130  -29.2811   22.3768 C   0  0  0  0  0  0  0  0  0  0  0  0
  -24.3083  -27.6067   20.0353 C   0  0  0  0  0  0  0  0  0  0  0  0
  -27.2089  -26.8917   18.3853 C   0  0  0  0  0  0  0  0  0  0  0  0
  -18.5446  -26.4912   22.6127 C   0  0  0  0  0  0  0  0  0  0  0  0
  -24.0221  -31.1153   21.1401 C   0  0  0  0  0  0  0  0  0  0  0  0
  -25.7905  -28.8088   21.6856 C   0  0  0  0  0  0  0  0  0  0  0  0
  -20.0403  -26.1945   22.5411 C   0  0  0  0  0  0  0  0  0  0  0  0
  -31.8301  -24.1525   20.1998 C   0  0  0  0  0  0  0  0  0  0  0  0
  -20.7990  -27.0235   23.5725 C   0  0  0  0  0  0  0  0  0  0  0  0
  -31.3166  -22.7992   19.7154 C   0  0  0  0  0  0  0  0  0  0  0  0
  -30.7548  -24.9366   20.9505 C   0  0  0  0  0  0  0  0  0  0  0  0
  -29.6306  -22.8248   21.5960 C   0  0  0  0  0  0  0  0  0  0  0  0
  -20.6320  -28.5242   23.3050 C   0  0  1  0  0  0  0  0  0  0  0  0
  -23.5048  -29.6806   21.1042 C   0  0  1  0  0  0  0  0  0  0  0  0
  -30.7100  -21.9990   20.8789 C   0  0  1  0  0  0  0  0  0  0  0  0
  -28.1243  -25.4551   16.5427 C   0  0  0  0  0  0  0  0  0  0  0  0
  -24.2180  -25.1814   21.8846 C   0  0  0  0  0  0  0  0  0  0  0  0
  -25.9387  -24.0934   20.4274 C   0  0  0  0  0  0  0  0  0  0  0  0
  -23.7050  -24.6853   19.4877 C   0  0  0  0  0  0  0  0  0  0  0  0
  -28.0452  -29.2499   16.8047 C   0  0  0  0  0  0  0  0  0  0  0  0
  -32.3542  -30.8153   24.0147 C   0  0  0  0  0  0  0  0  0  0  0  0
  -31.1009  -31.6445   24.3035 C   0  0  0  0  0  0  0  0  0  0  0  0
  -29.8045  -30.9159   23.9690 C   0  0  0  0  0  0  0  0  0  1  0  0
  -25.3613  -26.5255   19.9999 C   0  0  1  0  0  0  0  0  0  0  0  0
  -27.5308  -26.8078   16.9042 C   0  0  2  0  0  0  0  0  0  0  0  0
  -24.8108  -25.1467   20.4618 C   0  0  0  0  0  0  0  0  0  0  0  0
  -28.8921  -20.5504   20.0542 N   0  0  0  0  0  0  0  0  0  0  0  0
  -30.1808  -20.6521   20.4215 N   0  0  0  0  0  0  0  0  0  0  0  0
  -30.1488  -24.1301   22.0206 N   0  0  0  0  0  0  0  0  0  0  0  0
  -24.5687  -28.7018   20.8712 N   0  0  0  0  0  0  0  0  0  0  0  0
  -32.1807  -19.4055   20.6606 N   0  0  0  0  0  0  0  0  0  0  0  0
  -29.2200  -16.3463   19.1536 N   0  0  0  0  0  0  0  0  0  0  0  0
  -21.4840  -28.9406   22.2117 N   0  0  0  0  0  0  0  0  0  0  0  0
  -25.9044  -26.5288   18.6458 N   0  0  0  0  0  0  0  0  0  0  0  0
  -28.5091  -27.8664   16.5259 N   0  3  0  0  0  0  0  0  0  0  0  0
  -31.3897  -16.6649   19.8239 O   0  0  0  0  0  0  0  0  0  0  0  0
  -29.4817  -23.8200   24.2288 O   0  0  0  0  0  0  0  0  0  0  0  0
  -23.4390  -29.2803   23.4303 O   0  0  0  0  0  0  0  0  0  0  0  0
  -23.2955  -27.4874   19.3413 O   0  0  0  0  0  0  0  0  0  0  0  0
  -28.0333  -27.2405   19.2274 O   0  0  0  0  0  0  0  0  0  0  0  0
  -23.8614  -17.2681   17.9405 O   0  0  0  0  0  0  0  0  0  0  0  0
  -28.7060  -31.7802   24.2564 O   0  0  0  0  0  0  0  0  0  1  0  0
  -22.1486  -12.4519   20.0079 F   0  0  0  0  0  0  0  0  0  0  0  0
  -21.4808  -17.0894   19.3346 F   0  0  0  0  0  0  0  0  0  0  0  0
  1  2  1  0  0  0  0
  1  7  2  0  0  0  0
  2  8  2  0  0  0  0
  3  6  1  0  0  0  0
  3 10  2  0  0  0  0
  4 11  2  0  0  0  0
  4 19  1  0  0  0  0
  5 12  1  0  0  0  0
  5 19  2  0  0  0  0
  6 20  2  0  0  0  0
  7 22  1  0  0  0  0
  8 24  1  0  0  0  0
  9 13  2  0  0  0  0
  9 23  1  0  0  0  0
 10 26  1  0  0  0  0
 11 27  1  0  0  0  0
 12 27  2  0  0  0  0
 13 28  1  0  0  0  0
 14 15  2  0  0  0  0
 14 29  1  0  0  0  0
 15 30  1  0  0  0  0
 16 20  1  0  0  0  0
 16 26  2  0  0  0  0
 17 25  1  0  0  0  0
 17 28  2  0  0  0  0
 18 30  2  0  0  0  0
 18 31  1  0  0  0  0
 19 32  1  0  0  0  0
 20 34  1  0  0  0  0
 21 32  1  0  0  0  0
 21 33  2  0  0  0  0
 21 36  1  0  0  0  0
 22 24  2  0  0  0  0
 22 41  1  0  0  0  0
 23 25  2  0  0  0  0
 23 42  1  0  0  0  0
 24 50  1  0  0  0  0
 25 43  1  0  0  0  0
 26 58  1  0  0  0  0
 27 78  1  0  0  0  0
 28 79  1  0  0  0  0
 29 31  2  0  0  0  0
 29 78  1  0  0  0  0
 30 80  1  0  0  0  0
 31 81  1  0  0  0  0
 32 64  2  0  0  0  0
 33 65  1  0  0  0  0
 33 68  1  0  0  0  0
 34 35  2  0  0  0  0
 35 37  1  0  0  0  0
 36 69  1  0  0  0  0
 36 73  2  0  0  0  0
 37 66  1  0  0  0  0
 37 74  2  0  0  0  0
 38 51  1  0  0  0  0
 38 70  1  0  0  0  0
 38 75  2  0  0  0  0
 39 61  1  0  0  0  0
 39 67  1  0  0  0  0
 39 76  2  0  0  0  0
 40 62  1  0  0  0  0
 40 71  1  0  0  0  0
 40 77  2  0  0  0  0
 41 44  1  0  0  0  0
 42 51  1  0  0  0  0
 43 67  1  0  0  0  0
 44 46  1  0  0  0  0
 45 47  1  0  0  0  0
 45 48  1  0  0  0  0
 46 50  1  0  0  0  0
 47 52  1  0  0  0  0
 48 66  1  0  0  0  0
 49 52  1  0  0  0  0
 49 66  1  0  0  0  0
 50 70  1  0  0  0  0
 51 67  1  0  0  0  0
 52 65  1  0  0  0  0
 53 62  1  0  0  0  0
 54 63  1  0  0  0  0
 55 63  1  0  0  0  0
 56 63  1  0  0  0  0
 57 72  1  0  0  0  0
 58 59  1  0  0  0  0
 59 60  1  0  0  0  0
 60 79  1  0  0  0  0
 61 63  1  0  0  0  0
 61 71  1  0  0  0  0
 62 72  1  0  0  0  0
 64 65  1  0  0  0  0
M  CHG  1  72   1
M  ISO  4  35 100  37 100  60 101  79 101
M  END
> <Batch ID>
0130

> <Smiles>
CNC(C)C(=O)NC(C(=O)N1Cc2cc([101O:1][101CH2:1]CCc3cccc(C=[100CH:0][100C:0](=O)N4CCCC(n5nc(-c6ccc(Oc7ccc(F)cc7F)cc6)c(C(N)=O)c5N)C4)c3)ccc2CC1C(=O)NC1CCCc2ccccc21)C(C)(C)C

> <Shape>
0.221

> <Color>
0.106

> <Negative vol penalty>
0.000

$$$$

  -OEChem-04052302223D

 83 91  0     1  0  0  0  0  0999 V2000
  -32.0502  -28.9362   31.2951 C   0  0  0  0  0  0  0  0  0  0  0  0
  -32.4028  -27.8656   30.4797 C   0  0  0  0  0  0  0  0  0  0  0  0
  -23.0683   -9.8095   19.9397 C   0  0  0  0  0  0  0  0  0  0  0  0
  -23.8196   -9.8274   22.2359 C   0  0  0  0  0  0  0  0  0  0  0  0
  -32.5808  -17.5056   23.4679 C   0  0  0  0  0  0  0  0  0  0  0  0
  -30.3898  -18.3424   24.0475 C   0  0  0  0  0  0  0  0  0  0  0  0
  -30.8945  -29.6671   31.0232 C   0  0  0  0  0  0  0  0  0  0  0  0
  -31.5991  -27.5246   29.3923 C   0  0  0  0  0  0  0  0  0  0  0  0
  -34.2892  -26.5992   25.2028 C   0  0  0  0  0  0  0  0  0  0  0  0
  -32.0017  -16.6154   22.5636 C   0  0  0  0  0  0  0  0  0  0  0  0
  -29.8106  -17.4522   23.1432 C   0  0  0  0  0  0  0  0  0  0  0  0
  -22.3311   -8.6522   20.1899 C   0  0  0  0  0  0  0  0  0  0  0  0
  -23.0823   -8.6700   22.4861 C   0  0  0  0  0  0  0  0  0  0  0  0
  -34.9229  -25.3606   25.1137 C   0  0  0  0  0  0  0  0  0  0  0  0
  -19.3826   -7.8402   21.6322 C   0  0  0  0  0  0  0  0  0  0  0  0
  -18.0779   -7.7842   21.1422 C   0  0  0  0  0  0  0  0  0  0  0  0
  -33.1402  -24.5570   23.7011 C   0  0  0  0  0  0  0  0  0  0  0  0
  -18.6552   -5.8414   19.8272 C   0  0  0  0  0  0  0  0  0  0  0  0
  -23.8127  -10.3971   20.9627 C   0  0  0  0  0  0  0  0  0  0  0  0
  -31.7749  -18.3690   24.2099 C   0  0  0  0  0  0  0  0  0  0  0  0
  -24.1385  -12.9241   20.8373 C   0  0  0  0  0  0  0  0  0  0  0  0
  -30.0814  -29.3409   29.9263 C   0  0  0  0  0  0  0  0  0  0  0  0
  -33.0687  -26.8230   24.5496 C   0  0  0  0  0  0  0  0  0  0  0  0
  -30.4307  -28.2510   29.1063 C   0  0  0  0  0  0  0  0  0  0  0  0
  -32.4943  -25.8001   23.7815 C   0  0  0  0  0  0  0  0  0  0  0  0
  -30.6166  -16.5888   22.4012 C   0  0  0  0  0  0  0  0  0  0  0  0
  -22.3380   -8.0824   21.4631 C   0  0  0  0  0  0  0  0  0  0  0  0
  -34.3470  -24.3383   24.3651 C   0  0  0  0  0  0  0  0  0  0  0  0
  -20.3237   -6.8968   21.2197 C   0  0  0  0  0  0  0  0  0  0  0  0
  -17.7142   -6.7848   20.2397 C   0  0  0  0  0  0  0  0  0  0  0  0
  -19.9600   -5.8974   20.3171 C   0  0  0  0  0  0  0  0  0  0  0  0
  -24.5749  -11.5923   20.7047 C   0  0  0  0  0  0  0  0  0  0  0  0
  -25.2271  -13.6797   20.4762 C   0  0  0  0  0  0  0  0  0  0  0  0
  -33.7594  -19.8146   24.8706 C   0  0  0  0  0  0  0  0  0  0  0  0
  -34.3660  -20.6596   25.7159 C   0  0  0  0  0  0  0  0  0  0  0  0
  -32.3906  -19.3153   25.1715 C   0  0  0  0  0  0  0  0  0  0  0  0
  -22.8631  -13.4327   21.2502 C   0  0  0  0  0  0  0  0  0  0  0  0
  -30.1222  -27.5552   25.4905 C   0  0  0  0  0  0  0  0  0  0  0  0
  -29.5794  -27.7849   22.3007 C   0  0  0  0  0  0  0  0  0  0  0  0
  -30.4874  -26.8885   19.1354 C   0  0  0  0  0  0  0  0  0  0  0  0
  -30.6857  -14.7613   20.6685 C   0  0  0  0  0  0  0  0  0  0  0  0
  -28.8165  -30.1305   29.7001 C   0  0  0  0  0  0  0  0  0  0  0  0
  -32.4113  -28.1732   24.6338 C   0  0  0  0  0  0  0  0  0  0  0  0
  -31.1955  -25.9958   23.0445 C   0  0  0  0  0  0  0  0  0  0  0  0
  -28.2193  -29.9386   28.3084 C   0  0  0  0  0  0  0  0  0  0  0  0
  -29.5959  -12.3342   18.3024 C   0  0  0  0  0  0  0  0  0  0  0  0
  -28.1840  -28.4582   27.9421 C   0  0  0  0  0  0  0  0  0  0  0  0
  -28.1566  -12.0344   18.7274 C   0  0  0  0  0  0  0  0  0  0  0  0
  -30.5050  -12.5721   19.5069 C   0  0  0  0  0  0  0  0  0  0  0  0
  -28.5882  -13.2877   20.8791 C   0  0  0  0  0  0  0  0  0  0  0  0
  -29.5979  -27.8658   27.9029 C   0  0  1  0  0  0  0  0  0  0  0  0
  -30.9133  -28.1272   24.3484 C   0  0  1  0  0  0  0  0  0  0  0  0
  -27.6209  -13.1050   19.6982 C   0  0  2  0  0  0  0  0  0  0  0  0
  -29.8313  -27.2041   16.7339 C   0  0  0  0  0  0  0  0  0  0  0  0
  -27.2563  -25.8440   22.6829 C   0  0  0  0  0  0  0  0  0  0  0  0
  -27.2568  -25.4652   20.2081 C   0  0  0  0  0  0  0  0  0  0  0  0
  -26.7862  -27.7389   21.1200 C   0  0  0  0  0  0  0  0  0  0  0  0
  -33.0857  -28.1390   18.4690 C   0  0  0  0  0  0  0  0  0  0  0  0
  -35.7519  -21.1991   25.4926 C   0  0  0  0  0  0  0  0  0  0  0  0
  -35.7552  -22.7199   25.3915 C   0  0  0  0  0  0  0  0  0  1  0  0
  -29.1422  -26.8270   21.2189 C   0  0  1  0  0  0  0  0  0  0  0  0
  -30.6973  -27.7107   17.8767 C   0  0  2  0  0  0  0  0  0  0  0  0
  -27.6339  -26.4641   21.3228 C   0  0  0  0  0  0  0  0  0  0  0  0
  -25.8420  -11.5036   20.2914 N   0  0  0  0  0  0  0  0  0  0  0  0
  -26.2110  -12.7893   20.1611 N   0  0  0  0  0  0  0  0  0  0  0  0
  -30.5880  -27.3317   23.1629 N   0  0  0  0  0  0  0  0  0  0  0  0
  -29.9360  -13.6015   20.3795 N   0  0  0  0  0  0  0  0  0  0  0  0
  -25.4291  -15.0123   20.4005 N   0  0  0  0  0  0  0  0  0  0  0  0
  -21.8559  -12.5178   21.5860 N   0  0  0  0  0  0  0  0  0  0  0  0
  -30.0293  -15.6843   21.4821 N   0  0  0  0  0  0  0  0  0  0  0  0
  -30.2708  -28.2445   26.6789 N   0  0  0  0  0  0  0  0  0  0  0  0
  -29.5231  -27.4410   19.9516 N   0  0  0  0  0  0  0  0  0  0  0  0
  -32.1235  -27.6483   17.4490 N   0  3  0  0  0  0  0  0  0  0  0  0
  -31.7793  -19.6375   26.1844 O   0  0  0  0  0  0  0  0  0  0  0  0
  -22.6187  -14.6619   21.3034 O   0  0  0  0  0  0  0  0  0  0  0  0
  -29.4271  -26.5628   25.3068 O   0  0  0  0  0  0  0  0  0  0  0  0
  -29.0508  -28.8970   22.3735 O   0  0  0  0  0  0  0  0  0  0  0  0
  -31.1135  -25.8570   19.3694 O   0  0  0  0  0  0  0  0  0  0  0  0
  -31.8154  -14.9362   20.2047 O   0  0  0  0  0  0  0  0  0  0  0  0
  -21.6185   -6.9533   21.7076 O   0  0  0  0  0  0  0  0  0  0  0  0
  -34.9631  -23.1281   24.2770 O   0  0  0  0  0  0  0  0  0  1  0  0
  -16.4608   -6.7302   19.7705 F   0  0  0  0  0  0  0  0  0  0  0  0
  -20.8593   -4.9876   19.9180 F   0  0  0  0  0  0  0  0  0  0  0  0
  1  2  1  0  0  0  0
  1  7  2  0  0  0  0
  2  8  2  0  0  0  0
  3 12  2  0  0  0  0
  3 19  1  0  0  0  0
  4 13  1  0  0  0  0
  4 19  2  0  0  0  0
  5 10  2  0  0  0  0
  5 20  1  0  0  0  0
  6 11  1  0  0  0  0
  6 20  2  0  0  0  0
  7 22  1  0  0  0  0
  8 24  1  0  0  0  0
  9 14  2  0  0  0  0
  9 23  1  0  0  0  0
 10 26  1  0  0  0  0
 11 26  2  0  0  0  0
 12 27  1  0  0  0  0
 13 27  2  0  0  0  0
 14 28  1  0  0  0  0
 15 16  2  0  0  0  0
 15 29  1  0  0  0  0
 16 30  1  0  0  0  0
 17 25  1  0  0  0  0
 17 28  2  0  0  0  0
 18 30  2  0  0  0  0
 18 31  1  0  0  0  0
 19 32  1  0  0  0  0
 20 36  1  0  0  0  0
 21 32  1  0  0  0  0
 21 33  2  0  0  0  0
 21 37  1  0  0  0  0
 22 24  2  0  0  0  0
 22 42  1  0  0  0  0
 23 25  2  0  0  0  0
 23 43  1  0  0  0  0
 24 51  1  0  0  0  0
 25 44  1  0  0  0  0
 26 70  1  0  0  0  0
 27 80  1  0  0  0  0
 28 81  1  0  0  0  0
 29 31  2  0  0  0  0
 29 80  1  0  0  0  0
 30 82  1  0  0  0  0
 31 83  1  0  0  0  0
 32 64  2  0  0  0  0
 33 65  1  0  0  0  0
 33 68  1  0  0  0  0
 34 35  2  0  0  0  0
 34 36  1  0  0  0  0
 35 59  1  0  0  0  0
 36 74  2  0  0  0  0
 37 69  1  0  0  0  0
 37 75  2  0  0  0  0
 38 52  1  0  0  0  0
 38 71  1  0  0  0  0
 38 76  2  0  0  0  0
 39 61  1  0  0  0  0
 39 66  1  0  0  0  0
 39 77  2  0  0  0  0
 40 62  1  0  0  0  0
 40 72  1  0  0  0  0
 40 78  2  0  0  0  0
 41 67  1  0  0  0  0
 41 70  1  0  0  0  0
 41 79  2  0  0  0  0
 42 45  1  0  0  0  0
 43 52  1  0  0  0  0
 44 66  1  0  0  0  0
 45 47  1  0  0  0  0
 46 48  1  0  0  0  0
 46 49  1  0  0  0  0
 47 51  1  0  0  0  0
 48 53  1  0  0  0  0
 49 67  1  0  0  0  0
 50 53  1  0  0  0  0
 50 67  1  0  0  0  0
 51 71  1  0  0  0  0
 52 66  1  0  0  0  0
 53 65  1  0  0  0  0
 54 62  1  0  0  0  0
 55 63  1  0  0  0  0
 56 63  1  0  0  0  0
 57 63  1  0  0  0  0
 58 73  1  0  0  0  0
 59 60  1  0  0  0  0
 60 81  1  0  0  0  0
 61 63  1  0  0  0  0
 61 72  1  0  0  0  0
 62 73  1  0  0  0  0
 64 65  1  0  0  0  0
M  CHG  1  73   1
M  ISO  4  41 100  60 101  70 100  81 101
M  END
> <Batch ID>
0130

> <Smiles>
CNC(C)C(=O)NC(C(=O)N1Cc2cc([101O:1][101CH2:1]CC=CC(=O)c3ccc([100NH:0][100C:0](=O)N4CCCC(n5nc(-c6ccc(Oc7ccc(F)cc7F)cc6)c(C(N)=O)c5N)C4)cc3)ccc2CC1C(=O)NC1CCCc2ccccc21)C(C)(C)C

> <Shape>
0.195

> <Color>
0.212

> <Negative vol penalty>
0.000

$$$$

  -OEChem-04052302223D

 85 93  0     1  0  0  0  0  0999 V2000
  -29.7970  -34.7986   19.8233 C   0  0  0  0  0  0  0  0  0  0  0  0
  -28.7304  -33.9553   19.5293 C   0  0  0  0  0  0  0  0  0  0  0  0
  -27.6546  -13.1979   18.6907 C   0  0  0  0  0  0  0  0  0  0  0  0
  -28.0858  -13.3351   21.0640 C   0  0  0  0  0  0  0  0  0  0  0  0
  -17.2426  -21.5179   18.5577 C   0  0  0  0  0  0  0  0  0  0  0  0
  -31.1001  -34.4028   19.5245 C   0  0  0  0  0  0  0  0  0  0  0  0
  -28.9661  -32.7159   18.9353 C   0  0  0  0  0  0  0  0  0  0  0  0
  -26.2974  -28.9900   21.0895 C   0  0  0  0  0  0  0  0  0  0  0  0
  -16.5638  -22.7360   18.5891 C   0  0  0  0  0  0  0  0  0  0  0  0
  -28.9436  -12.7064   18.4849 C   0  0  0  0  0  0  0  0  0  0  0  0
  -29.3749  -12.8437   20.8582 C   0  0  0  0  0  0  0  0  0  0  0  0
  -24.9500  -28.8907   20.7452 C   0  0  0  0  0  0  0  0  0  0  0  0
  -32.9012  -11.9652   20.9174 C   0  0  0  0  0  0  0  0  0  0  0  0
  -33.9509  -12.6009   21.5803 C   0  0  0  0  0  0  0  0  0  0  0  0
  -19.3036  -22.6521   19.1079 C   0  0  0  0  0  0  0  0  0  0  0  0
  -25.4819  -27.1158   19.2004 C   0  0  0  0  0  0  0  0  0  0  0  0
  -33.4062  -14.6702   20.4585 C   0  0  0  0  0  0  0  0  0  0  0  0
  -27.2256  -13.5123   19.9803 C   0  0  0  0  0  0  0  0  0  0  0  0
  -18.6125  -21.4759   18.8171 C   0  0  0  0  0  0  0  0  0  0  0  0
  -24.7295  -13.2723   20.4486 C   0  0  0  0  0  0  0  0  0  0  0  0
  -31.3527  -33.1539   18.9354 C   0  0  0  0  0  0  0  0  0  0  0  0
  -27.2502  -28.1591   20.4828 C   0  0  0  0  0  0  0  0  0  0  0  0
  -30.2737  -32.3036   18.6272 C   0  0  0  0  0  0  0  0  0  0  0  0
  -26.8403  -27.2049   19.5406 C   0  0  0  0  0  0  0  0  0  0  0  0
  -17.2549  -23.9122   18.8799 C   0  0  0  0  0  0  0  0  0  0  0  0
  -29.8038  -12.5293   19.5686 C   0  0  0  0  0  0  0  0  0  0  0  0
  -24.5425  -27.9555   19.7984 C   0  0  0  0  0  0  0  0  0  0  0  0
  -32.1039  -12.6819   20.0250 C   0  0  0  0  0  0  0  0  0  0  0  0
  -18.6249  -23.8703   19.1393 C   0  0  0  0  0  0  0  0  0  0  0  0
  -34.2034  -13.9534   21.3509 C   0  0  0  0  0  0  0  0  0  0  0  0
  -32.3564  -14.0344   19.7955 C   0  0  0  0  0  0  0  0  0  0  0  0
  -25.8943  -14.0205   20.1935 C   0  0  0  0  0  0  0  0  0  0  0  0
  -23.7375  -14.2138   20.5753 C   0  0  0  0  0  0  0  0  0  0  0  0
  -19.3204  -20.2060   18.7836 C   0  0  0  0  0  0  0  0  0  0  0  0
  -20.6540  -20.0561   18.6351 C   0  0  0  0  0  0  0  0  0  0  0  0
  -24.5594  -11.8531   20.5612 C   0  0  0  0  0  0  0  0  0  0  0  0
  -21.2265  -18.6949   18.6311 C   0  0  0  0  0  0  0  0  0  0  0  0
  -29.8039  -28.6386   18.6519 C   0  0  0  0  0  0  0  0  0  0  0  0
  -21.2970  -26.3972   19.4180 C   0  0  0  0  0  0  0  0  0  0  0  0
  -30.1968  -25.4418   19.0365 C   0  0  0  0  0  0  0  0  0  0  0  0
  -28.7851  -22.4108   19.7201 C   0  0  0  0  0  0  0  0  0  0  0  0
  -32.7743  -32.7896   18.5876 C   0  0  0  0  0  0  0  0  0  0  0  0
  -28.6961  -28.2605   20.8847 C   0  0  0  0  0  0  0  0  0  0  0  0
  -27.8210  -26.2755   18.8751 C   0  0  0  0  0  0  0  0  0  0  0  0
  -32.9695  -31.3029   18.3014 C   0  0  0  0  0  0  0  0  0  0  0  0
  -23.9780  -19.2337   20.9913 C   0  0  0  0  0  0  0  0  0  0  0  0
  -31.8773  -30.7912   17.3675 C   0  0  0  0  0  0  0  0  0  0  0  0
  -24.6532  -17.8649   20.9727 C   0  0  0  0  0  0  0  0  0  0  0  0
  -23.3943  -19.6019   19.6282 C   0  0  0  0  0  0  0  0  0  0  0  0
  -23.1402  -17.2031   19.0614 C   0  0  0  0  0  0  0  0  0  0  0  0
  -30.4910  -30.9410   18.0055 C   0  0  1  0  0  0  0  0  0  0  0  0
  -29.6501  -27.7147   19.8267 C   0  0  1  0  0  0  0  0  0  0  0  0
  -23.6934  -16.7918   20.4348 C   0  0  1  0  0  0  0  0  0  0  0  0
  -16.2346  -25.6834   20.3319 C   0  0  0  0  0  0  0  0  0  0  0  0
  -29.3523  -19.9749   19.9251 C   0  0  0  0  0  0  0  0  0  0  0  0
  -30.3238  -25.2180   15.9962 C   0  0  0  0  0  0  0  0  0  0  0  0
  -29.9333  -22.7562   16.2307 C   0  0  0  0  0  0  0  0  0  0  0  0
  -31.9767  -23.7926   17.2171 C   0  0  0  0  0  0  0  0  0  0  0  0
  -27.9489  -22.3358   22.5581 C   0  0  0  0  0  0  0  0  0  0  0  0
  -16.5124  -25.2072   18.9091 C   0  0  0  0  0  0  0  0  0  0  0  0
  -22.7568  -26.5729   19.0528 C   0  0  0  0  0  0  0  0  0  1  0  0
  -20.6810  -25.0622   19.0532 C   0  0  0  0  0  0  0  0  0  0  0  0
  -29.7298  -24.2107   18.2980 C   0  0  1  0  0  0  0  0  0  0  0  0
  -29.2003  -21.2959   20.6630 C   0  0  2  0  0  0  0  0  0  0  0  0
  -30.4724  -24.0131   16.9464 C   0  0  0  0  0  0  0  0  0  0  0  0
  -25.6651  -15.3359   20.1595 N   0  0  0  0  0  0  0  0  0  0  0  0
  -24.3448  -15.4216   20.3949 N   0  0  0  0  0  0  0  0  0  0  0  0
  -22.5262  -18.5348   19.1083 N   0  0  0  0  0  0  0  0  0  0  0  0
  -29.2243  -26.4176   19.2970 N   0  0  0  0  0  0  0  0  0  0  0  0
  -22.4138  -14.1180   20.8220 N   0  0  0  0  0  0  0  0  0  0  0  0
  -25.6834  -11.0309   20.4037 N   0  0  0  0  0  0  0  0  0  0  0  0
  -30.2689  -29.8971   18.9829 N   0  0  0  0  0  0  0  0  0  0  0  0
  -29.8757  -23.0966   19.2285 N   0  0  0  0  0  0  0  0  0  0  0  0
  -28.1824  -21.1199   21.7371 N   0  3  0  0  0  0  0  0  0  0  0  0
  -23.4407  -11.3287   20.7781 O   0  0  0  0  0  0  0  0  0  0  0  0
  -20.5196  -17.7820   18.2002 O   0  0  0  0  0  0  0  0  0  0  0  0
  -29.5230  -28.2389   17.5280 O   0  0  0  0  0  0  0  0  0  0  0  0
  -20.6520  -27.2840   19.9754 O   0  0  0  0  0  0  0  0  0  0  0  0
  -31.3793  -25.5309   19.3763 O   0  0  0  0  0  0  0  0  0  0  0  0
  -27.6110  -22.6471   19.4442 O   0  0  0  0  0  0  0  0  0  0  0  0
  -31.0617  -12.0496   19.3682 O   0  0  0  0  0  0  0  0  0  0  0  0
  -23.2281  -27.8568   19.4600 O   0  0  0  0  0  0  0  0  0  1  0  0
  -19.3205  -25.0203   19.4287 O   0  0  0  0  0  0  0  0  0  0  0  0
  -35.2105  -14.5642   21.9887 F   0  0  0  0  0  0  0  0  0  0  0  0
  -31.5932  -14.7285   18.9402 F   0  0  0  0  0  0  0  0  0  0  0  0
  1  2  1  0  0  0  0
  1  6  2  0  0  0  0
  2  7  2  0  0  0  0
  3 10  2  0  0  0  0
  3 18  1  0  0  0  0
  4 11  1  0  0  0  0
  4 18  2  0  0  0  0
  5  9  2  0  0  0  0
  5 19  1  0  0  0  0
  6 21  1  0  0  0  0
  7 23  1  0  0  0  0
  8 12  2  0  0  0  0
  8 22  1  0  0  0  0
  9 25  1  0  0  0  0
 10 26  1  0  0  0  0
 11 26  2  0  0  0  0
 12 27  1  0  0  0  0
 13 14  2  0  0  0  0
 13 28  1  0  0  0  0
 14 30  1  0  0  0  0
 15 19  2  0  0  0  0
 15 29  1  0  0  0  0
 16 24  1  0  0  0  0
 16 27  2  0  0  0  0
 17 30  2  0  0  0  0
 17 31  1  0  0  0  0
 18 32  1  0  0  0  0
 19 34  1  0  0  0  0
 20 32  1  0  0  0  0
 20 33  2  0  0  0  0
 20 36  1  0  0  0  0
 21 23  2  0  0  0  0
 21 42  1  0  0  0  0
 22 24  2  0  0  0  0
 22 43  1  0  0  0  0
 23 51  1  0  0  0  0
 24 44  1  0  0  0  0
 25 29  2  0  0  0  0
 25 60  1  0  0  0  0
 26 81  1  0  0  0  0
 27 82  1  0  0  0  0
 28 31  2  0  0  0  0
 28 81  1  0  0  0  0
 29 83  1  0  0  0  0
 30 84  1  0  0  0  0
 31 85  1  0  0  0  0
 32 66  2  0  0  0  0
 33 67  1  0  0  0  0
 33 70  1  0  0  0  0
 34 35  2  0  0  0  0
 35 37  1  0  0  0  0
 36 71  1  0  0  0  0
 36 75  2  0  0  0  0
 37 68  1  0  0  0  0
 37 76  2  0  0  0  0
 38 52  1  0  0  0  0
 38 72  1  0  0  0  0
 38 77  2  0  0  0  0
 39 61  1  0  0  0  0
 39 62  1  0  0  0  0
 39 78  2  0  0  0  0
 40 63  1  0  0  0  0
 40 69  1  0  0  0  0
 40 79  2  0  0  0  0
 41 64  1  0  0  0  0
 41 73  1  0  0  0  0
 41 80  2  0  0  0  0
 42 45  1  0  0  0  0
 43 52  1  0  0  0  0
 44 69  1  0  0  0  0
 45 47  1  0  0  0  0
 46 48  1  0  0  0  0
 46 49  1  0  0  0  0
 47 51  1  0  0  0  0
 48 53  1  0  0  0  0
 49 68  1  0  0  0  0
 50 53  1  0  0  0  0
 50 68  1  0  0  0  0
 51 72  1  0  0  0  0
 52 69  1  0  0  0  0
 53 67  1  0  0  0  0
 54 60  1  0  0  0  0
 55 64  1  0  0  0  0
 56 65  1  0  0  0  0
 57 65  1  0  0  0  0
 58 65  1  0  0  0  0
 59 74  1  0  0  0  0
 61 82  1  0  0  0  0
 62 83  1  0  0  0  0
 63 65  1  0  0  0  0
 63 73  1  0  0  0  0
 64 74  1  0  0  0  0
 66 67  1  0  0  0  0
M  CHG  1  74   1
M  ISO  4  35 100  37 100  61 101  82 101
M  END
> <Batch ID>
0130

> <Smiles>
CCc1ccc(C=[100CH:0][100C:0](=O)N2CCCC(n3nc(-c4ccc(Oc5ccc(F)cc5F)cc4)c(C(N)=O)c3N)C2)cc1OCC(=O)[101CH2:1][101O:1]c1ccc2c(c1)CN(C(=O)C(NC(=O)C(C)NC)C(C)(C)C)C(C(=O)NC1CCCc3ccccc31)C2

> <Shape>
0.223

> <Color>
0.079

> <Negative vol penalty>
0.000

$$$$

  -OEChem-04052302223D

 84 92  0     1  0  0  0  0  0999 V2000
  -30.6466  -33.0469   28.9934 C   0  0  0  0  0  0  0  0  0  0  0  0
  -30.8766  -32.2719   27.8612 C   0  0  0  0  0  0  0  0  0  0  0  0
  -23.9827   -8.6200   19.6655 C   0  0  0  0  0  0  0  0  0  0  0  0
  -23.1166  -10.1509   21.3218 C   0  0  0  0  0  0  0  0  0  0  0  0
  -29.3720  -33.0958   29.5562 C   0  0  0  0  0  0  0  0  0  0  0  0
  -29.8321  -31.5443   27.2918 C   0  0  0  0  0  0  0  0  0  0  0  0
  -28.9536  -30.4088   21.3383 C   0  0  0  0  0  0  0  0  0  0  0  0
  -29.5471  -19.9412   21.3832 C   0  0  0  0  0  0  0  0  0  0  0  0
  -29.6065  -18.5660   21.1580 C   0  0  0  0  0  0  0  0  0  0  0  0
  -23.1939   -7.5994   20.1962 C   0  0  0  0  0  0  0  0  0  0  0  0
  -22.3277   -9.1303   21.8525 C   0  0  0  0  0  0  0  0  0  0  0  0
  -29.2420  -29.3012   20.5421 C   0  0  0  0  0  0  0  0  0  0  0  0
  -19.4146   -7.5901   21.1027 C   0  0  0  0  0  0  0  0  0  0  0  0
  -18.0863   -7.8902   21.4046 C   0  0  0  0  0  0  0  0  0  0  0  0
  -26.9840  -28.5063   20.8406 C   0  0  0  0  0  0  0  0  0  0  0  0
  -27.5270  -20.0699   20.0641 C   0  0  0  0  0  0  0  0  0  0  0  0
  -18.4839   -7.3218   23.7189 C   0  0  0  0  0  0  0  0  0  0  0  0
  -23.9442   -9.8957   20.2283 C   0  0  0  0  0  0  0  0  0  0  0  0
  -24.4071  -11.8546   18.6610 C   0  0  0  0  0  0  0  0  0  0  0  0
  -28.3092  -32.3760   28.9878 C   0  0  0  0  0  0  0  0  0  0  0  0
  -27.6793  -30.5681   21.9015 C   0  0  0  0  0  0  0  0  0  0  0  0
  -28.5424  -31.5825   27.8484 C   0  0  0  0  0  0  0  0  0  0  0  0
  -26.6813  -29.6181   21.6414 C   0  0  0  0  0  0  0  0  0  0  0  0
  -28.5073  -20.6932   20.8363 C   0  0  0  0  0  0  0  0  0  0  0  0
  -27.5864  -18.6947   19.8389 C   0  0  0  0  0  0  0  0  0  0  0  0
  -28.6262  -17.9427   20.3858 C   0  0  0  0  0  0  0  0  0  0  0  0
  -22.3664   -7.8546   21.2897 C   0  0  0  0  0  0  0  0  0  0  0  0
  -28.2580  -28.3483   20.2955 C   0  0  0  0  0  0  0  0  0  0  0  0
  -20.2776   -7.1558   22.1089 C   0  0  0  0  0  0  0  0  0  0  0  0
  -17.6210   -7.7561   22.7127 C   0  0  0  0  0  0  0  0  0  0  0  0
  -19.8122   -7.0217   23.4170 C   0  0  0  0  0  0  0  0  0  0  0  0
  -24.7592  -10.9502   19.6808 C   0  0  0  0  0  0  0  0  0  0  0  0
  -25.5170  -12.6491   18.5083 C   0  0  0  0  0  0  0  0  0  0  0  0
  -23.1858  -11.9665   17.9183 C   0  0  0  0  0  0  0  0  0  0  0  0
  -26.5398  -30.7216   24.8649 C   0  0  0  0  0  0  0  0  0  0  0  0
  -29.1551  -24.4619   20.2321 C   0  0  0  0  0  0  0  0  0  0  0  0
  -23.7569  -31.4016   23.3431 C   0  0  0  0  0  0  0  0  0  0  0  0
  -21.8781  -31.1773   20.5029 C   0  0  0  0  0  0  0  0  0  0  0  0
  -29.6776  -15.6684   20.6474 C   0  0  0  0  0  0  0  0  0  0  0  0
  -26.9596  -32.4226   29.6594 C   0  0  0  0  0  0  0  0  0  0  0  0
  -27.3763  -31.7821   22.7362 C   0  0  0  0  0  0  0  0  0  0  0  0
  -25.2914  -29.7531   22.2059 C   0  0  0  0  0  0  0  0  0  0  0  0
  -25.8216  -31.9185   28.7756 C   0  0  0  0  0  0  0  0  0  0  0  0
  -30.2003  -12.1578   20.3648 C   0  0  0  0  0  0  0  0  0  0  0  0
  -26.2115  -30.6079   28.0993 C   0  0  0  0  0  0  0  0  0  0  0  0
  -28.8024  -11.6051   20.0778 C   0  0  0  0  0  0  0  0  0  0  0  0
  -30.1566  -13.3311   21.3422 C   0  0  0  0  0  0  0  0  0  0  0  0
  -27.8443  -13.8647   20.6806 C   0  0  0  0  0  0  0  0  0  0  0  0
  -27.4294  -30.7987   27.1872 C   0  0  1  0  0  0  0  0  0  0  0  0
  -26.1951  -31.5788   23.6799 C   0  0  1  0  0  0  0  0  0  0  0  0
  -27.8310  -12.7231   19.6509 C   0  0  2  0  0  0  0  0  0  0  0  0
  -26.5244  -18.0539   19.0053 C   0  0  0  0  0  0  0  0  0  0  0  0
  -19.6300  -31.7945   19.5744 C   0  0  0  0  0  0  0  0  0  0  0  0
  -22.4819  -29.1235   24.9225 C   0  0  0  0  0  0  0  0  0  0  0  0
  -20.5708  -29.1651   23.3057 C   0  0  0  0  0  0  0  0  0  0  0  0
  -21.0590  -31.1690   24.7088 C   0  0  0  0  0  0  0  0  0  0  0  0
  -23.0842  -32.8663   18.3930 C   0  0  0  0  0  0  0  0  0  0  0  0
  -28.4446  -22.1792   21.0776 C   0  0  0  0  0  0  0  0  0  0  0  0
  -29.1984  -22.9589   20.0019 C   0  0  0  0  0  0  0  0  0  0  0  0
  -29.9219  -25.3010   19.2188 C   0  0  0  0  0  0  0  0  0  0  0  0
  -29.8826  -26.7909   19.5266 C   0  0  0  0  0  0  0  0  0  1  0  0
  -22.6092  -30.5860   22.7986 C   0  0  1  0  0  0  0  0  0  0  0  0
  -21.0814  -32.2183   19.7374 C   0  0  2  0  0  0  0  0  0  0  0  0
  -21.7068  -30.0071   23.9247 C   0  0  0  0  0  0  0  0  0  0  0  0
  -25.9962  -11.1506   20.1431 N   0  0  0  0  0  0  0  0  0  0  0  0
  -26.4310  -12.1900   19.4104 N   0  0  0  0  0  0  0  0  0  0  0  0
  -25.0461  -30.9544   23.0210 N   0  0  0  0  0  0  0  0  0  0  0  0
  -29.2193  -14.3527   20.8705 N   0  0  0  0  0  0  0  0  0  0  0  0
  -25.7905  -13.6886   17.6916 N   0  0  0  0  0  0  0  0  0  0  0  0
  -22.1465  -11.0701   18.2024 N   0  0  0  0  0  0  0  0  0  0  0  0
  -28.7043  -16.5447   20.1686 N   0  0  0  0  0  0  0  0  0  0  0  0
  -27.0364  -31.4271   25.9442 N   0  0  0  0  0  0  0  0  0  0  0  0
  -21.9071  -31.4486   21.8545 N   0  0  0  0  0  0  0  0  0  0  0  0
  -21.6659  -32.4245   18.3822 N   0  3  0  0  0  0  0  0  0  0  0  0
  -23.0269  -12.8252   17.0178 O   0  0  0  0  0  0  0  0  0  0  0  0
  -26.3664  -29.5099   24.8049 O   0  0  0  0  0  0  0  0  0  0  0  0
  -28.5424  -24.9635   21.1732 O   0  0  0  0  0  0  0  0  0  0  0  0
  -23.5183  -32.4028   24.0230 O   0  0  0  0  0  0  0  0  0  0  0  0
  -22.4175  -30.2173   19.9570 O   0  0  0  0  0  0  0  0  0  0  0  0
  -30.8539  -15.9870   20.8392 O   0  0  0  0  0  0  0  0  0  0  0  0
  -21.5963   -6.8590   21.8078 O   0  0  0  0  0  0  0  0  0  0  0  0
  -28.5370  -27.2659   19.5192 O   0  0  0  0  0  0  0  0  0  1  0  0
  -16.3458   -8.0458   23.0027 F   0  0  0  0  0  0  0  0  0  0  0  0
  -20.6369   -6.6060   24.3881 F   0  0  0  0  0  0  0  0  0  0  0  0
  1  2  1  0  0  0  0
  1  5  2  0  0  0  0
  2  6  2  0  0  0  0
  3 10  2  0  0  0  0
  3 18  1  0  0  0  0
  4 11  1  0  0  0  0
  4 18  2  0  0  0  0
  5 20  1  0  0  0  0
  6 22  1  0  0  0  0
  7 12  2  0  0  0  0
  7 21  1  0  0  0  0
  8  9  2  0  0  0  0
  8 24  1  0  0  0  0
  9 26  1  0  0  0  0
 10 27  1  0  0  0  0
 11 27  2  0  0  0  0
 12 28  1  0  0  0  0
 13 14  2  0  0  0  0
 13 29  1  0  0  0  0
 14 30  1  0  0  0  0
 15 23  1  0  0  0  0
 15 28  2  0  0  0  0
 16 24  2  0  0  0  0
 16 25  1  0  0  0  0
 17 30  2  0  0  0  0
 17 31  1  0  0  0  0
 18 32  1  0  0  0  0
 19 32  1  0  0  0  0
 19 33  2  0  0  0  0
 19 34  1  0  0  0  0
 20 22  2  0  0  0  0
 20 40  1  0  0  0  0
 21 23  2  0  0  0  0
 21 41  1  0  0  0  0
 22 49  1  0  0  0  0
 23 42  1  0  0  0  0
 24 58  1  0  0  0  0
 25 26  2  0  0  0  0
 25 52  1  0  0  0  0
 26 71  1  0  0  0  0
 27 81  1  0  0  0  0
 28 82  1  0  0  0  0
 29 31  2  0  0  0  0
 29 81  1  0  0  0  0
 30 83  1  0  0  0  0
 31 84  1  0  0  0  0
 32 65  2  0  0  0  0
 33 66  1  0  0  0  0
 33 69  1  0  0  0  0
 34 70  1  0  0  0  0
 34 75  2  0  0  0  0
 35 50  1  0  0  0  0
 35 72  1  0  0  0  0
 35 76  2  0  0  0  0
 36 59  1  0  0  0  0
 36 60  1  0  0  0  0
 36 77  2  0  0  0  0
 37 62  1  0  0  0  0
 37 67  1  0  0  0  0
 37 78  2  0  0  0  0
 38 63  1  0  0  0  0
 38 73  1  0  0  0  0
 38 79  2  0  0  0  0
 39 68  1  0  0  0  0
 39 71  1  0  0  0  0
 39 80  2  0  0  0  0
 40 43  1  0  0  0  0
 41 50  1  0  0  0  0
 42 67  1  0  0  0  0
 43 45  1  0  0  0  0
 44 46  1  0  0  0  0
 44 47  1  0  0  0  0
 45 49  1  0  0  0  0
 46 51  1  0  0  0  0
 47 68  1  0  0  0  0
 48 51  1  0  0  0  0
 48 68  1  0  0  0  0
 49 72  1  0  0  0  0
 50 67  1  0  0  0  0
 51 66  1  0  0  0  0
 53 63  1  0  0  0  0
 54 64  1  0  0  0  0
 55 64  1  0  0  0  0
 56 64  1  0  0  0  0
 57 74  1  0  0  0  0
 58 59  1  0  0  0  0
 60 61  1  0  0  0  0
 61 82  1  0  0  0  0
 62 64  1  0  0  0  0
 62 73  1  0  0  0  0
 63 74  1  0  0  0  0
 65 66  1  0  0  0  0
M  CHG  1  74   1
M  ISO  4  39 100  61 101  71 100  82 101
M  END
> <Batch ID>
0130

> <Smiles>
CNC(C)C(=O)NC(C(=O)N1Cc2cc([101O:1][101CH2:1]CC(=O)CCc3ccc([100NH:0][100C:0](=O)N4CCCC(n5nc(-c6ccc(Oc7ccc(F)cc7F)cc6)c(C(N)=O)c5N)C4)c(C)c3)ccc2CC1C(=O)NC1CCCc2ccccc21)C(C)(C)C

> <Shape>
0.287

> <Color>
0.084

> <Negative vol penalty>
0.000

$$$$

  -OEChem-04052302223D

 83 91  0     1  0  0  0  0  0999 V2000
  -28.1898  -24.4871   13.7791 C   0  0  0  0  0  0  0  0  0  0  0  0
  -27.2637  -25.3130   14.4062 C   0  0  0  0  0  0  0  0  0  0  0  0
  -27.4020  -12.9750   21.1457 C   0  0  0  0  0  0  0  0  0  0  0  0
  -25.2686  -13.6477   20.2331 C   0  0  0  0  0  0  0  0  0  0  0  0
  -29.1865  -23.8676   14.5301 C   0  0  0  0  0  0  0  0  0  0  0  0
  -27.3411  -25.5290   15.7825 C   0  0  0  0  0  0  0  0  0  0  0  0
  -24.2956  -28.8877   17.6923 C   0  0  0  0  0  0  0  0  0  0  0  0
  -24.0362  -24.3762   18.9533 C   0  0  0  0  0  0  0  0  0  0  0  0
  -24.9937  -23.4560   19.3799 C   0  0  0  0  0  0  0  0  0  0  0  0
  -26.7755  -11.9501   21.8548 C   0  0  0  0  0  0  0  0  0  0  0  0
  -24.6421  -12.6227   20.9421 C   0  0  0  0  0  0  0  0  0  0  0  0
  -22.9242  -28.6735   17.8237 C   0  0  0  0  0  0  0  0  0  0  0  0
  -24.2227   -9.2830   20.6407 C   0  0  0  0  0  0  0  0  0  0  0  0
  -23.2801   -8.5101   19.9627 C   0  0  0  0  0  0  0  0  0  0  0  0
  -23.2181  -28.2795   20.1854 C   0  0  0  0  0  0  0  0  0  0  0  0
  -22.6419  -22.5639   18.1734 C   0  0  0  0  0  0  0  0  0  0  0  0
  -21.5866   -9.1839   21.5486 C   0  0  0  0  0  0  0  0  0  0  0  0
  -26.6485  -13.8238   20.3349 C   0  0  0  0  0  0  0  0  0  0  0  0
  -27.8294  -14.8142   18.3021 C   0  0  0  0  0  0  0  0  0  0  0  0
  -29.2678  -24.0668   15.9181 C   0  0  0  0  0  0  0  0  0  0  0  0
  -25.1414  -28.7885   18.8064 C   0  0  0  0  0  0  0  0  0  0  0  0
  -28.3542  -24.9317   16.5541 C   0  0  0  0  0  0  0  0  0  0  0  0
  -24.5995  -28.4954   20.0660 C   0  0  0  0  0  0  0  0  0  0  0  0
  -22.8602  -23.9301   18.3501 C   0  0  0  0  0  0  0  0  0  0  0  0
  -23.5994  -21.6436   18.5999 C   0  0  0  0  0  0  0  0  0  0  0  0
  -24.7754  -22.0897   19.2032 C   0  0  0  0  0  0  0  0  0  0  0  0
  -25.3956  -11.7739   21.7529 C   0  0  0  0  0  0  0  0  0  0  0  0
  -22.3857  -28.3665   19.0698 C   0  0  0  0  0  0  0  0  0  0  0  0
  -23.8472  -10.0063   21.7728 C   0  0  0  0  0  0  0  0  0  0  0  0
  -21.9621   -8.4606   20.4165 C   0  0  0  0  0  0  0  0  0  0  0  0
  -22.5292   -9.9568   22.2267 C   0  0  0  0  0  0  0  0  0  0  0  0
  -27.2950  -14.8831   19.6027 C   0  0  0  0  0  0  0  0  0  0  0  0
  -28.3257  -16.0733   18.0678 C   0  0  0  0  0  0  0  0  0  0  0  0
  -27.8732  -13.7108   17.3876 C   0  0  0  0  0  0  0  0  0  0  0  0
  -27.5924  -26.9281   19.6033 C   0  0  0  0  0  0  0  0  0  0  0  0
  -27.7757  -28.9250   22.1530 C   0  0  0  0  0  0  0  0  0  0  0  0
  -26.1961  -31.1250   24.2294 C   0  0  0  0  0  0  0  0  0  0  0  0
  -26.9762  -21.4662   20.2586 C   0  0  0  0  0  0  0  0  0  0  0  0
  -30.3715  -23.3777   16.6812 C   0  0  0  0  0  0  0  0  0  0  0  0
  -26.6149  -29.0487   18.6529 C   0  0  0  0  0  0  0  0  0  0  0  0
  -25.4618  -28.3973   21.2969 C   0  0  0  0  0  0  0  0  0  0  0  0
  -30.1055  -23.3119   18.1817 C   0  0  0  0  0  0  0  0  0  0  0  0
  -30.1540  -19.8633   20.3541 C   0  0  0  0  0  0  0  0  0  0  0  0
  -29.7097  -24.6864   18.7001 C   0  0  0  0  0  0  0  0  0  0  0  0
  -29.8308  -18.3991   20.0479 C   0  0  0  0  0  0  0  0  0  0  0  0
  -29.0681  -20.5174   21.2066 C   0  0  0  0  0  0  0  0  0  0  0  0
  -27.3809  -18.9287   20.3709 C   0  0  0  0  0  0  0  0  0  0  0  0
  -28.4002  -25.1572   18.0546 C   0  0  1  0  0  0  0  0  0  0  0  0
  -27.4520  -28.4158   19.7602 C   0  0  1  0  0  0  0  0  0  0  0  0
  -28.4142  -18.2456   19.4603 C   0  0  2  0  0  0  0  0  0  0  0  0
  -23.3404  -20.1861   18.3951 C   0  0  0  0  0  0  0  0  0  0  0  0
  -26.5962  -32.5663   26.2443 C   0  0  0  0  0  0  0  0  0  0  0  0
  -19.3010  -28.6157   17.6202 C   0  0  0  0  0  0  0  0  0  0  0  0
  -27.6782  -26.4523   23.9380 C   0  0  0  0  0  0  0  0  0  0  0  0
  -27.1256  -27.9513   25.8657 C   0  0  0  0  0  0  0  0  0  0  0  0
  -29.3019  -28.2065   24.6735 C   0  0  0  0  0  0  0  0  0  0  0  0
  -25.5523  -33.5962   22.7335 C   0  0  0  0  0  0  0  0  0  0  0  0
  -21.8262  -24.9252   17.8868 C   0  0  0  0  0  0  0  0  0  0  0  0
  -20.7789  -25.2707   18.9521 C   0  0  0  0  0  0  0  0  0  0  0  0
  -19.7310  -26.2773   18.4573 C   0  0  0  0  0  0  0  0  0  0  0  0
  -27.1706  -28.9516   23.5358 C   0  0  1  0  0  0  0  0  0  0  0  0
  -26.5920  -32.5042   24.7248 C   0  0  2  0  0  0  0  0  0  0  0  0
  -20.3609  -27.6193   18.0709 C   0  0  2  0  0  0  0  0  0  1  0  0
  -27.8028  -27.8903   24.4799 C   0  0  0  0  0  0  0  0  0  0  0  0
  -27.4384  -16.0903   20.1558 N   0  0  0  0  0  0  0  0  0  0  0  0
  -28.0687  -16.7916   19.1983 N   0  0  0  0  0  0  0  0  0  0  0  0
  -26.8973  -28.6539   21.0943 N   0  0  0  0  0  0  0  0  0  0  0  0
  -27.7542  -20.3355   20.5858 N   0  0  0  0  0  0  0  0  0  0  0  0
  -28.9526  -16.6249   17.0070 N   0  0  0  0  0  0  0  0  0  0  0  0
  -27.3171  -12.4883   17.7884 N   0  0  0  0  0  0  0  0  0  0  0  0
  -25.7602  -21.1709   19.6432 N   0  0  0  0  0  0  0  0  0  0  0  0
  -28.1698  -26.5403   18.4092 N   0  0  0  0  0  0  0  0  0  0  0  0
  -27.2978  -30.3252   24.0106 N   0  0  0  0  0  0  0  0  0  0  0  0
  -25.6396  -33.5309   24.2151 N   0  3  0  0  0  0  0  0  0  0  0  0
  -28.4048  -13.8015   16.2551 O   0  0  0  0  0  0  0  0  0  0  0  0
  -27.2070  -26.1869   20.4998 O   0  0  0  0  0  0  0  0  0  0  0  0
  -28.9820  -29.1439   22.0165 O   0  0  0  0  0  0  0  0  0  0  0  0
  -25.0263  -30.7894   24.0575 O   0  0  0  0  0  0  0  0  0  0  0  0
  -27.3724  -22.6131   20.4814 O   0  0  0  0  0  0  0  0  0  0  0  0
  -24.7840  -10.7738   22.4445 O   0  0  0  0  0  0  0  0  0  0  0  0
  -21.0476  -28.1563   19.2007 O   0  0  0  0  0  0  0  0  0  1  0  0
  -21.0567   -7.7196   19.7644 F   0  0  0  0  0  0  0  0  0  0  0  0
  -22.1623  -10.6505   23.3130 F   0  0  0  0  0  0  0  0  0  0  0  0
  1  2  1  0  0  0  0
  1  5  2  0  0  0  0
  2  6  2  0  0  0  0
  3 10  2  0  0  0  0
  3 18  1  0  0  0  0
  4 11  1  0  0  0  0
  4 18  2  0  0  0  0
  5 20  1  0  0  0  0
  6 22  1  0  0  0  0
  7 12  2  0  0  0  0
  7 21  1  0  0  0  0
  8  9  2  0  0  0  0
  8 24  1  0  0  0  0
  9 26  1  0  0  0  0
 10 27  1  0  0  0  0
 11 27  2  0  0  0  0
 12 28  1  0  0  0  0
 13 14  2  0  0  0  0
 13 29  1  0  0  0  0
 14 30  1  0  0  0  0
 15 23  1  0  0  0  0
 15 28  2  0  0  0  0
 16 24  2  0  0  0  0
 16 25  1  0  0  0  0
 17 30  2  0  0  0  0
 17 31  1  0  0  0  0
 18 32  1  0  0  0  0
 19 32  1  0  0  0  0
 19 33  2  0  0  0  0
 19 34  1  0  0  0  0
 20 22  2  0  0  0  0
 20 39  1  0  0  0  0
 21 23  2  0  0  0  0
 21 40  1  0  0  0  0
 22 48  1  0  0  0  0
 23 41  1  0  0  0  0
 24 58  1  0  0  0  0
 25 26  2  0  0  0  0
 25 51  1  0  0  0  0
 26 71  1  0  0  0  0
 27 80  1  0  0  0  0
 28 81  1  0  0  0  0
 29 31  2  0  0  0  0
 29 80  1  0  0  0  0
 30 82  1  0  0  0  0
 31 83  1  0  0  0  0
 32 65  2  0  0  0  0
 33 66  1  0  0  0  0
 33 69  1  0  0  0  0
 34 70  1  0  0  0  0
 34 75  2  0  0  0  0
 35 49  1  0  0  0  0
 35 72  1  0  0  0  0
 35 76  2  0  0  0  0
 36 61  1  0  0  0  0
 36 67  1  0  0  0  0
 36 77  2  0  0  0  0
 37 62  1  0  0  0  0
 37 73  1  0  0  0  0
 37 78  2  0  0  0  0
 38 68  1  0  0  0  0
 38 71  1  0  0  0  0
 38 79  2  0  0  0  0
 39 42  1  0  0  0  0
 40 49  1  0  0  0  0
 41 67  1  0  0  0  0
 42 44  1  0  0  0  0
 43 45  1  0  0  0  0
 43 46  1  0  0  0  0
 44 48  1  0  0  0  0
 45 50  1  0  0  0  0
 46 68  1  0  0  0  0
 47 50  1  0  0  0  0
 47 68  1  0  0  0  0
 48 72  1  0  0  0  0
 49 67  1  0  0  0  0
 50 66  1  0  0  0  0
 52 62  1  0  0  0  0
 53 63  1  0  0  0  0
 54 64  1  0  0  0  0
 55 64  1  0  0  0  0
 56 64  1  0  0  0  0
 57 74  1  0  0  0  0
 58 59  1  0  0  0  0
 59 60  1  0  0  0  0
 60 63  1  0  0  0  0
 61 64  1  0  0  0  0
 61 73  1  0  0  0  0
 62 74  1  0  0  0  0
 63 81  1  0  0  0  0
 65 66  1  0  0  0  0
M  CHG  1  74   1
M  ISO  4  38 100  63 101  71 100  81 101
M  END
> <Batch ID>
0130

> <Smiles>
CNC(C)C(=O)NC(C(=O)N1Cc2cc([101O:1][101CH:1](C)CCCc3ccc([100NH:0][100C:0](=O)N4CCCC(n5nc(-c6ccc(Oc7ccc(F)cc7F)cc6)c(C(N)=O)c5N)C4)c(C)c3)ccc2CC1C(=O)NC1CCCc2ccccc21)C(C)(C)C

> <Shape>
0.241

> <Color>
0.065

> <Negative vol penalty>
0.000

$$$$

  -OEChem-04052302223D

 81 89  0     1  0  0  0  0  0999 V2000
  -24.5867  -35.4192   21.0768 C   0  0  0  0  0  0  0  0  0  0  0  0
  -25.3636  -34.2653   21.0616 C   0  0  0  0  0  0  0  0  0  0  0  0
  -25.9165  -14.3063   19.6977 C   0  0  0  0  0  0  0  0  0  0  0  0
  -24.5292  -14.1455   21.6691 C   0  0  0  0  0  0  0  0  0  0  0  0
  -23.3980  -35.4484   21.8049 C   0  0  0  0  0  0  0  0  0  0  0  0
  -24.9527  -33.1400   21.7754 C   0  0  0  0  0  0  0  0  0  0  0  0
  -25.4406  -28.8627   19.1086 C   0  0  0  0  0  0  0  0  0  0  0  0
  -26.0494  -12.9179   19.6780 C   0  0  0  0  0  0  0  0  0  0  0  0
  -24.6620  -12.7571   21.6494 C   0  0  0  0  0  0  0  0  0  0  0  0
  -26.7205  -28.3201   19.0040 C   0  0  0  0  0  0  0  0  0  0  0  0
  -23.3322  -10.1531   19.9548 C   0  0  0  0  0  0  0  0  0  0  0  0
  -22.1811   -9.3906   20.1528 C   0  0  0  0  0  0  0  0  0  0  0  0
  -32.8695  -25.8938   22.5409 C   0  0  0  0  0  0  0  0  0  0  0  0
  -26.1853  -26.7378   20.7444 C   0  0  0  0  0  0  0  0  0  0  0  0
  -23.1850   -8.3822   22.1054 C   0  0  0  0  0  0  0  0  0  0  0  0
  -32.5548  -25.3738   23.7748 C   0  0  0  0  0  0  0  0  0  0  0  0
  -25.1564  -14.9201   20.6934 C   0  0  0  0  0  0  0  0  0  0  0  0
  -24.0259  -17.1227   20.0786 C   0  0  0  0  0  0  0  0  0  0  0  0
  -22.9675  -34.3198   22.5201 C   0  0  0  0  0  0  0  0  0  0  0  0
  -24.5254  -28.3532   20.0410 C   0  0  0  0  0  0  0  0  0  0  0  0
  -23.7578  -33.1546   22.5148 C   0  0  0  0  0  0  0  0  0  0  0  0
  -24.8935  -27.2740   20.8571 C   0  0  0  0  0  0  0  0  0  0  0  0
  -32.2801  -25.0291   21.5880 C   0  0  0  0  0  0  0  0  0  0  0  0
  -25.4222  -12.1433   20.6538 C   0  0  0  0  0  0  0  0  0  0  0  0
  -27.0941  -27.2593   19.8240 C   0  0  0  0  0  0  0  0  0  0  0  0
  -24.4097  -10.0302   20.8321 C   0  0  0  0  0  0  0  0  0  0  0  0
  -22.1075   -8.5052   21.2281 C   0  0  0  0  0  0  0  0  0  0  0  0
  -24.3361   -9.1448   21.9074 C   0  0  0  0  0  0  0  0  0  0  0  0
  -25.0192  -16.3542   20.7146 C   0  0  0  0  0  0  0  0  0  0  0  0
  -31.6475  -24.0422   22.3075 C   0  0  0  0  0  0  0  0  0  0  0  0
  -24.3356  -18.4208   20.4034 C   0  0  0  0  0  0  0  0  0  0  0  0
  -30.9125  -22.9412   21.8074 C   0  0  0  0  0  0  0  0  0  0  0  0
  -30.2699  -21.9776   22.5453 C   0  0  0  0  0  0  0  0  0  0  0  0
  -22.9220  -16.7009   19.2667 C   0  0  0  0  0  0  0  0  0  0  0  0
  -29.5315  -20.8902   21.8721 C   0  0  0  0  0  0  0  0  0  0  0  0
  -23.0012  -29.5382   22.5661 C   0  0  0  0  0  0  0  0  0  0  0  0
  -21.5085  -26.6586   22.5277 C   0  0  0  0  0  0  0  0  0  0  0  0
  -21.5776  -23.3714   21.6131 C   0  0  0  0  0  0  0  0  0  0  0  0
  -21.6992  -34.4144   23.3309 C   0  0  0  0  0  0  0  0  0  0  0  0
  -23.1396  -28.9322   20.1229 C   0  0  0  0  0  0  0  0  0  0  0  0
  -23.9414  -26.6775   21.8601 C   0  0  0  0  0  0  0  0  0  0  0  0
  -21.1455  -33.0570   23.7562 C   0  0  0  0  0  0  0  0  0  0  0  0
  -26.4174  -21.0473   23.7980 C   0  0  0  0  0  0  0  0  0  0  0  0
  -22.2591  -32.1779   24.3164 C   0  0  0  0  0  0  0  0  0  0  0  0
  -25.6349  -19.8883   23.1861 C   0  0  0  0  0  0  0  0  0  0  0  0
  -27.9177  -20.7622   23.8457 C   0  0  0  0  0  0  0  0  0  0  0  0
  -27.7128  -19.2279   21.9107 C   0  0  0  0  0  0  0  0  0  0  0  0
  -23.3331  -31.9056   23.2563 C   0  0  1  0  0  0  0  0  0  0  0  0
  -22.4613  -28.6711   21.4642 C   0  0  1  0  0  0  0  0  0  0  0  0
  -26.2061  -19.5126   21.8096 C   0  0  1  0  0  0  0  0  0  0  0  0
  -20.2304  -21.2588   21.7537 C   0  0  0  0  0  0  0  0  0  0  0  0
  -22.3147  -26.3420   25.4534 C   0  0  0  0  0  0  0  0  0  0  0  0
  -21.8022  -23.8992   25.2579 C   0  0  0  0  0  0  0  0  0  0  0  0
  -19.9917  -25.5822   24.9234 C   0  0  0  0  0  0  0  0  0  0  0  0
  -21.3735  -23.1682   18.6676 C   0  0  0  0  0  0  0  0  0  0  0  0
  -32.3457  -25.1783   20.0889 C   0  0  0  0  0  0  0  0  0  0  0  0
  -31.0527  -25.7124   19.4627 C   0  0  0  0  0  0  0  0  0  0  0  0
  -30.7009  -27.1257   19.9291 C   0  0  0  0  0  0  0  0  0  0  0  0
  -29.3918  -27.6065   19.3179 C   0  0  0  0  0  0  0  0  0  1  0  0
  -21.7729  -25.3089   23.1501 C   0  0  1  0  0  0  0  0  0  0  0  0
  -20.5458  -22.4951   20.9261 C   0  0  2  0  0  0  0  0  0  0  0  0
  -21.4892  -25.2953   24.6787 C   0  0  0  0  0  0  0  0  0  0  0  0
  -25.8945  -17.1018   21.3922 N   0  0  0  0  0  0  0  0  0  0  0  0
  -25.4522  -18.3536   21.1836 N   0  0  0  0  0  0  0  0  0  0  0  0
  -28.4291  -20.3483   22.5305 N   0  0  0  0  0  0  0  0  0  0  0  0
  -22.6000  -27.2823   21.9069 N   0  0  0  0  0  0  0  0  0  0  0  0
  -23.7590  -19.6018   20.0949 N   0  0  0  0  0  0  0  0  0  0  0  0
  -22.7501  -15.3297   19.0330 N   0  0  0  0  0  0  0  0  0  0  0  0
  -22.8800  -30.8936   22.3261 N   0  0  0  0  0  0  0  0  0  0  0  0
  -20.9852  -24.3463   22.3876 N   0  0  0  0  0  0  0  0  0  0  0  0
  -21.0461  -22.0535   19.5935 N   0  3  0  0  0  0  0  0  0  0  0  0
  -22.1216  -17.5168   18.7500 O   0  0  0  0  0  0  0  0  0  0  0  0
  -29.9396  -20.5242   20.7683 O   0  0  0  0  0  0  0  0  0  0  0  0
  -23.4902  -29.0162   23.5611 O   0  0  0  0  0  0  0  0  0  0  0  0
  -20.3735  -27.1384   22.5839 O   0  0  0  0  0  0  0  0  0  0  0  0
  -22.7879  -23.2051   21.4793 O   0  0  0  0  0  0  0  0  0  0  0  0
  -31.8102  -24.2450   23.6413 O   0  0  0  0  0  0  0  0  0  0  0  0
  -25.5514  -10.7885   20.6346 O   0  0  0  0  0  0  0  0  0  0  0  0
  -28.3431  -26.7283   19.7244 O   0  0  0  0  0  0  0  0  0  1  0  0
  -21.0015   -7.7741   21.4190 F   0  0  0  0  0  0  0  0  0  0  0  0
  -25.3675   -9.0232   22.7542 F   0  0  0  0  0  0  0  0  0  0  0  0
  1  2  1  0  0  0  0
  1  5  2  0  0  0  0
  2  6  2  0  0  0  0
  3  8  2  0  0  0  0
  3 17  1  0  0  0  0
  4  9  1  0  0  0  0
  4 17  2  0  0  0  0
  5 19  1  0  0  0  0
  6 21  1  0  0  0  0
  7 10  2  0  0  0  0
  7 20  1  0  0  0  0
  8 24  1  0  0  0  0
  9 24  2  0  0  0  0
 10 25  1  0  0  0  0
 11 12  2  0  0  0  0
 11 26  1  0  0  0  0
 12 27  1  0  0  0  0
 13 16  2  0  0  0  0
 13 23  1  0  0  0  0
 14 22  1  0  0  0  0
 14 25  2  0  0  0  0
 15 27  2  0  0  0  0
 15 28  1  0  0  0  0
 16 77  1  0  0  0  0
 17 29  1  0  0  0  0
 18 29  1  0  0  0  0
 18 31  2  0  0  0  0
 18 34  1  0  0  0  0
 19 21  2  0  0  0  0
 19 39  1  0  0  0  0
 20 22  2  0  0  0  0
 20 40  1  0  0  0  0
 21 48  1  0  0  0  0
 22 41  1  0  0  0  0
 23 30  2  0  0  0  0
 23 56  1  0  0  0  0
 24 78  1  0  0  0  0
 25 79  1  0  0  0  0
 26 28  2  0  0  0  0
 26 78  1  0  0  0  0
 27 80  1  0  0  0  0
 28 81  1  0  0  0  0
 29 63  2  0  0  0  0
 30 32  1  0  0  0  0
 30 77  1  0  0  0  0
 31 64  1  0  0  0  0
 31 67  1  0  0  0  0
 32 33  2  0  0  0  0
 33 35  1  0  0  0  0
 34 68  1  0  0  0  0
 34 72  2  0  0  0  0
 35 65  1  0  0  0  0
 35 73  2  0  0  0  0
 36 49  1  0  0  0  0
 36 69  1  0  0  0  0
 36 74  2  0  0  0  0
 37 60  1  0  0  0  0
 37 66  1  0  0  0  0
 37 75  2  0  0  0  0
 38 61  1  0  0  0  0
 38 70  1  0  0  0  0
 38 76  2  0  0  0  0
 39 42  1  0  0  0  0
 40 49  1  0  0  0  0
 41 66  1  0  0  0  0
 42 44  1  0  0  0  0
 43 45  1  0  0  0  0
 43 46  1  0  0  0  0
 44 48  1  0  0  0  0
 45 50  1  0  0  0  0
 46 65  1  0  0  0  0
 47 50  1  0  0  0  0
 47 65  1  0  0  0  0
 48 69  1  0  0  0  0
 49 66  1  0  0  0  0
 50 64  1  0  0  0  0
 51 61  1  0  0  0  0
 52 62  1  0  0  0  0
 53 62  1  0  0  0  0
 54 62  1  0  0  0  0
 55 71  1  0  0  0  0
 56 57  1  0  0  0  0
 57 58  1  0  0  0  0
 58 59  1  0  0  0  0
 59 79  1  0  0  0  0
 60 62  1  0  0  0  0
 60 70  1  0  0  0  0
 61 71  1  0  0  0  0
 63 64  1  0  0  0  0
M  CHG  1  71   1
M  ISO  4  33 100  35 100  59 101  79 101
M  END
> <Batch ID>
0130

> <Smiles>
CNC(C)C(=O)NC(C(=O)N1Cc2cc([101O:1][101CH2:1]CCCc3ccoc3C=[100CH:0][100C:0](=O)N3CCCC(n4nc(-c5ccc(Oc6ccc(F)cc6F)cc5)c(C(N)=O)c4N)C3)ccc2CC1C(=O)NC1CCCc2ccccc21)C(C)(C)C

> <Shape>
0.198

> <Color>
0.097

> <Negative vol penalty>
0.000

$$$$

  -OEChem-04052302223D

 87 96  0     1  0  0  0  0  0999 V2000
  -29.2688  -36.3685   24.7086 C   0  0  0  0  0  0  0  0  0  0  0  0
  -29.0845  -35.0870   24.1996 C   0  0  0  0  0  0  0  0  0  0  0  0
  -24.2675   -9.2304   22.1978 C   0  0  0  0  0  0  0  0  0  0  0  0
  -23.9525   -8.9630   19.8174 C   0  0  0  0  0  0  0  0  0  0  0  0
  -26.9165  -21.2123   22.4495 C   0  0  0  0  0  0  0  0  0  0  0  0
  -28.2181  -37.0183   25.3551 C   0  0  0  0  0  0  0  0  0  0  0  0
  -27.8498  -34.4539   24.3378 C   0  0  0  0  0  0  0  0  0  0  0  0
  -26.3398  -32.1878   20.0682 C   0  0  0  0  0  0  0  0  0  0  0  0
  -23.1908   -8.3763   22.4363 C   0  0  0  0  0  0  0  0  0  0  0  0
  -22.8759   -8.1088   20.0558 C   0  0  0  0  0  0  0  0  0  0  0  0
  -27.1491  -22.5802   22.3072 C   0  0  0  0  0  0  0  0  0  0  0  0
  -26.9255  -30.9615   19.7567 C   0  0  0  0  0  0  0  0  0  0  0  0
  -22.6047   -5.0462   22.4332 C   0  0  0  0  0  0  0  0  0  0  0  0
  -22.7624   -4.0610   23.4079 C   0  0  0  0  0  0  0  0  0  0  0  0
  -29.1107  -22.1084   20.9780 C   0  0  0  0  0  0  0  0  0  0  0  0
  -24.9796  -29.8215   20.6129 C   0  0  0  0  0  0  0  0  0  0  0  0
  -20.9108   -4.9927   24.6491 C   0  0  0  0  0  0  0  0  0  0  0  0
  -24.6483   -9.5238   20.8884 C   0  0  0  0  0  0  0  0  0  0  0  0
  -27.7810  -20.2924   21.8561 C   0  0  0  0  0  0  0  0  0  0  0  0
  -27.1146  -10.0491   20.5022 C   0  0  0  0  0  0  0  0  0  0  0  0
  -26.9670  -36.3967   25.4927 C   0  0  0  0  0  0  0  0  0  0  0  0
  -25.0721  -32.2399   20.6654 C   0  0  0  0  0  0  0  0  0  0  0  0
  -26.7818  -35.0955   24.9879 C   0  0  0  0  0  0  0  0  0  0  0  0
  -28.8781  -20.7404   21.1204 C   0  0  0  0  0  0  0  0  0  0  0  0
  -24.3790  -31.0498   20.9287 C   0  0  0  0  0  0  0  0  0  0  0  0
  -22.4950   -7.8155   21.3653 C   0  0  0  0  0  0  0  0  0  0  0  0
  -28.2462  -23.0283   21.5715 C   0  0  0  0  0  0  0  0  0  0  0  0
  -26.2467  -29.7781   20.0317 C   0  0  0  0  0  0  0  0  0  0  0  0
  -21.6002   -6.0048   22.5665 C   0  0  0  0  0  0  0  0  0  0  0  0
  -21.9154   -4.0342   24.5158 C   0  0  0  0  0  0  0  0  0  0  0  0
  -20.7532   -5.9780   23.6744 C   0  0  0  0  0  0  0  0  0  0  0  0
  -25.7601  -10.4064   20.6414 C   0  0  0  0  0  0  0  0  0  0  0  0
  -27.7629  -11.2397   20.2818 C   0  0  0  0  0  0  0  0  0  0  0  0
  -27.5143  -18.8700   22.0205 C   0  0  0  0  0  0  0  0  0  0  0  0
  -26.4033  -18.2300   21.6015 C   0  0  0  0  0  0  0  0  0  0  0  0
  -27.7316   -8.7564   20.5662 C   0  0  0  0  0  0  0  0  0  0  0  0
  -26.2844  -16.7765   21.8342 C   0  0  0  0  0  0  0  0  0  0  0  0
  -23.9371  -33.3267   23.4284 C   0  0  0  0  0  0  0  0  0  0  0  0
  -27.6010  -26.4641   20.6068 C   0  0  0  0  0  0  0  0  0  0  0  0
  -21.0741  -32.5771   22.1005 C   0  0  0  0  0  0  0  0  0  0  0  0
  -19.3307  -30.7157   19.8328 C   0  0  0  0  0  0  0  0  0  0  0  0
  -25.8754  -37.1201   26.2409 C   0  0  0  0  0  0  0  0  0  0  0  0
  -24.4428  -33.5715   20.9707 C   0  0  0  0  0  0  0  0  0  0  0  0
  -23.0071  -31.0520   21.5503 C   0  0  0  0  0  0  0  0  0  0  0  0
  -24.4867  -36.5277   26.0155 C   0  0  0  0  0  0  0  0  0  0  0  0
  -30.8123  -18.9617   18.6614 C   0  0  0  0  0  0  0  0  0  0  0  0
  -27.0948  -15.5974   18.4601 C   0  0  0  0  0  0  0  0  0  0  0  0
  -29.3811  -18.8744   19.2245 C   0  0  0  0  0  0  0  0  0  0  0  0
  -30.9610  -20.2736   19.4557 C   0  0  0  0  0  0  0  0  0  0  0  0
  -24.5261  -35.0087   26.1498 C   0  0  0  0  0  0  0  0  0  0  0  0
  -26.9177  -14.0904   18.6252 C   0  0  0  0  0  0  0  0  0  0  0  0
  -26.1068  -16.3866   19.3177 C   0  0  0  0  0  0  0  0  0  0  0  0
  -25.9650  -14.5076   20.9270 C   0  0  0  0  0  0  0  0  0  0  0  0
  -29.8790  -19.7232   20.4333 C   0  0  0  0  0  0  0  0  0  0  0  0
  -25.4498  -34.3855   25.0962 C   0  0  1  0  0  0  0  0  0  0  0  0
  -23.3660  -33.4903   22.0483 C   0  0  1  0  0  0  0  0  0  0  0  0
  -26.9802  -13.6944   20.1089 C   0  0  1  0  0  0  0  0  0  0  0  0
  -16.9990  -30.2953   19.0059 C   0  0  0  0  0  0  0  0  0  0  0  0
  -20.4871  -30.9295   24.6007 C   0  0  0  0  0  0  0  0  0  0  0  0
  -18.6393  -29.8043   23.3406 C   0  0  0  0  0  0  0  0  0  0  0  0
  -18.5493  -32.2631   23.7514 C   0  0  0  0  0  0  0  0  0  0  0  0
  -20.0156  -31.6099   17.0960 C   0  0  0  0  0  0  0  0  0  0  0  0
  -27.3481  -25.2266   21.4433 C   0  0  0  0  0  0  0  0  0  0  0  0
  -26.4681  -27.4685   20.5541 C   0  0  0  0  0  0  0  0  0  1  0  0
  -20.1994  -31.3471   22.0691 C   0  0  1  0  0  0  0  0  0  0  0  0
  -18.2744  -31.1008   18.8128 C   0  0  2  0  0  0  0  0  0  0  0  0
  -19.4954  -31.0855   23.4305 C   0  0  0  0  0  0  0  0  0  0  0  0
  -25.5586  -11.7212   20.5199 N   0  0  0  0  0  0  0  0  0  0  0  0
  -26.7951  -12.2004   20.3020 N   0  0  0  0  0  0  0  0  0  0  0  0
  -26.1435  -15.9493   20.7214 N   0  0  0  0  0  0  0  0  0  0  0  0
  -22.4367  -32.3788   21.8362 N   0  0  0  0  0  0  0  0  0  0  0  0
  -29.0608  -11.5481   20.0747 N   0  0  0  0  0  0  0  0  0  0  0  0
  -26.9187   -7.6389   20.8001 N   0  0  0  0  0  0  0  0  0  0  0  0
  -24.7915  -34.3442   23.8080 N   0  0  0  0  0  0  0  0  0  0  0  0
  -19.2837  -31.5259   20.9475 N   0  0  0  0  0  0  0  0  0  0  0  0
  -18.7771  -30.8608   17.4306 N   0  3  0  0  0  0  0  0  0  0  0  0
  -28.9693   -8.5990   20.4367 O   0  0  0  0  0  0  0  0  0  0  0  0
  -26.3122  -16.3835   23.0019 O   0  0  0  0  0  0  0  0  0  0  0  0
  -23.6246  -32.3503   24.0998 O   0  0  0  0  0  0  0  0  0  0  0  0
  -28.6602  -26.6418   20.0071 O   0  0  0  0  0  0  0  0  0  0  0  0
  -20.5658  -33.6745   22.3433 O   0  0  0  0  0  0  0  0  0  0  0  0
  -20.1163  -29.7865   19.6597 O   0  0  0  0  0  0  0  0  0  0  0  0
  -21.4445   -6.9818   21.5976 O   0  0  0  0  0  0  0  0  0  0  0  0
  -28.4755  -24.3766   21.4312 O   0  0  0  0  0  0  0  0  0  0  0  0
  -26.8163  -28.5798   19.7293 O   0  0  0  0  0  0  0  0  0  1  0  0
  -22.0659   -3.0870   25.4509 F   0  0  0  0  0  0  0  0  0  0  0  0
  -19.7855   -6.8955   23.8073 F   0  0  0  0  0  0  0  0  0  0  0  0
  1  2  1  0  0  0  0
  1  6  2  0  0  0  0
  2  7  2  0  0  0  0
  3  9  2  0  0  0  0
  3 18  1  0  0  0  0
  4 10  1  0  0  0  0
  4 18  2  0  0  0  0
  5 11  2  0  0  0  0
  5 19  1  0  0  0  0
  6 21  1  0  0  0  0
  7 23  1  0  0  0  0
  8 12  2  0  0  0  0
  8 22  1  0  0  0  0
  9 26  1  0  0  0  0
 10 26  2  0  0  0  0
 11 27  1  0  0  0  0
 12 28  1  0  0  0  0
 13 14  2  0  0  0  0
 13 29  1  0  0  0  0
 14 30  1  0  0  0  0
 15 24  1  0  0  0  0
 15 27  2  0  0  0  0
 16 25  1  0  0  0  0
 16 28  2  0  0  0  0
 17 30  2  0  0  0  0
 17 31  1  0  0  0  0
 18 32  1  0  0  0  0
 19 24  2  0  0  0  0
 19 34  1  0  0  0  0
 20 32  1  0  0  0  0
 20 33  2  0  0  0  0
 20 36  1  0  0  0  0
 21 23  2  0  0  0  0
 21 42  1  0  0  0  0
 22 25  2  0  0  0  0
 22 43  1  0  0  0  0
 23 55  1  0  0  0  0
 24 54  1  0  0  0  0
 25 44  1  0  0  0  0
 26 83  1  0  0  0  0
 27 84  1  0  0  0  0
 28 85  1  0  0  0  0
 29 31  2  0  0  0  0
 29 83  1  0  0  0  0
 30 86  1  0  0  0  0
 31 87  1  0  0  0  0
 32 68  2  0  0  0  0
 33 69  1  0  0  0  0
 33 72  1  0  0  0  0
 34 35  2  0  0  0  0
 35 37  1  0  0  0  0
 36 73  1  0  0  0  0
 36 77  2  0  0  0  0
 37 70  1  0  0  0  0
 37 78  2  0  0  0  0
 38 56  1  0  0  0  0
 38 74  1  0  0  0  0
 38 79  2  0  0  0  0
 39 63  1  0  0  0  0
 39 64  1  0  0  0  0
 39 80  2  0  0  0  0
 40 65  1  0  0  0  0
 40 71  1  0  0  0  0
 40 81  2  0  0  0  0
 41 66  1  0  0  0  0
 41 75  1  0  0  0  0
 41 82  2  0  0  0  0
 42 45  1  0  0  0  0
 43 56  1  0  0  0  0
 44 71  1  0  0  0  0
 45 50  1  0  0  0  0
 46 48  1  0  0  0  0
 46 49  1  0  0  0  0
 47 51  1  0  0  0  0
 47 52  1  0  0  0  0
 48 54  1  0  0  0  0
 49 54  1  0  0  0  0
 50 55  1  0  0  0  0
 51 57  1  0  0  0  0
 52 70  1  0  0  0  0
 53 57  1  0  0  0  0
 53 70  1  0  0  0  0
 55 74  1  0  0  0  0
 56 71  1  0  0  0  0
 57 69  1  0  0  0  0
 58 66  1  0  0  0  0
 59 67  1  0  0  0  0
 60 67  1  0  0  0  0
 61 67  1  0  0  0  0
 62 76  1  0  0  0  0
 63 84  1  0  0  0  0
 64 85  1  0  0  0  0
 65 67  1  0  0  0  0
 65 75  1  0  0  0  0
 66 76  1  0  0  0  0
 68 69  1  0  0  0  0
M  CHG  1  76   1
M  ISO  4  35 100  37 100  64 101  85 101
M  END
> <Batch ID>
0130

> <Smiles>
CNC(C)C(=O)NC(C(=O)N1Cc2cc([101O:1][101CH2:1]C(=O)COc3ccc(C=[100CH:0][100C:0](=O)N4CCCC(n5nc(-c6ccc(Oc7ccc(F)cc7F)cc6)c(C(N)=O)c5N)C4)c(C4CCC4)c3)ccc2CC1C(=O)NC1CCCc2ccccc21)C(C)(C)C

> <Shape>
0.266

> <Color>
0.113

> <Negative vol penalty>
0.000

$$$$

  -OEChem-04052302223D

 84 92  0     1  0  0  0  0  0999 V2000
  -35.7866  -28.1135   32.0916 C   0  0  0  0  0  0  0  0  0  0  0  0
  -34.6490  -27.5955   31.4809 C   0  0  0  0  0  0  0  0  0  0  0  0
  -23.2726   -9.5982   20.1445 C   0  0  0  0  0  0  0  0  0  0  0  0
  -23.8509   -9.9903   22.4572 C   0  0  0  0  0  0  0  0  0  0  0  0
  -35.7108  -29.3100   32.8032 C   0  0  0  0  0  0  0  0  0  0  0  0
  -33.4346  -28.2733   31.5824 C   0  0  0  0  0  0  0  0  0  0  0  0
  -30.9810  -28.5364   27.1602 C   0  0  0  0  0  0  0  0  0  0  0  0
  -29.2658  -19.4209   21.6937 C   0  0  0  0  0  0  0  0  0  0  0  0
  -28.6107  -20.4598   22.3547 C   0  0  0  0  0  0  0  0  0  0  0  0
  -22.5872   -8.4403   20.5121 C   0  0  0  0  0  0  0  0  0  0  0  0
  -23.1655   -8.8324   22.8249 C   0  0  0  0  0  0  0  0  0  0  0  0
  -30.3003  -27.3943   26.7408 C   0  0  0  0  0  0  0  0  0  0  0  0
  -20.3803   -5.5758   20.8851 C   0  0  0  0  0  0  0  0  0  0  0  0
  -19.1220   -5.3608   20.3228 C   0  0  0  0  0  0  0  0  0  0  0  0
  -28.2283  -28.3486   27.5252 C   0  0  0  0  0  0  0  0  0  0  0  0
  -30.0030  -18.5348   23.8170 C   0  0  0  0  0  0  0  0  0  0  0  0
  -18.3329   -7.4248   21.2995 C   0  0  0  0  0  0  0  0  0  0  0  0
  -23.9045  -10.3731   21.1170 C   0  0  0  0  0  0  0  0  0  0  0  0
  -24.0916  -12.8735   20.6472 C   0  0  0  0  0  0  0  0  0  0  0  0
  -34.4970  -30.0078   32.9054 C   0  0  0  0  0  0  0  0  0  0  0  0
  -30.2910  -29.5904   27.7761 C   0  0  0  0  0  0  0  0  0  0  0  0
  -33.3422  -29.4796   32.2972 C   0  0  0  0  0  0  0  0  0  0  0  0
  -28.9022  -29.5041   27.9492 C   0  0  0  0  0  0  0  0  0  0  0  0
  -29.9620  -18.4583   22.4249 C   0  0  0  0  0  0  0  0  0  0  0  0
  -28.6517  -20.5363   23.7469 C   0  0  0  0  0  0  0  0  0  0  0  0
  -29.3479  -19.5738   24.4781 C   0  0  0  0  0  0  0  0  0  0  0  0
  -22.5337   -8.0574   21.8523 C   0  0  0  0  0  0  0  0  0  0  0  0
  -28.9241  -27.2990   26.9259 C   0  0  0  0  0  0  0  0  0  0  0  0
  -20.6148   -6.7153   21.6546 C   0  0  0  0  0  0  0  0  0  0  0  0
  -18.0983   -6.2853   20.5300 C   0  0  0  0  0  0  0  0  0  0  0  0
  -19.5912   -7.6398   21.8618 C   0  0  0  0  0  0  0  0  0  0  0  0
  -24.6131  -11.5690   20.7377 C   0  0  0  0  0  0  0  0  0  0  0  0
  -25.1582  -13.6429   20.2509 C   0  0  0  0  0  0  0  0  0  0  0  0
  -22.7621  -13.3475   20.8988 C   0  0  0  0  0  0  0  0  0  0  0  0
  -30.4020  -30.9772   30.6341 C   0  0  0  0  0  0  0  0  0  0  0  0
  -28.1525  -23.9748   25.5314 C   0  0  0  0  0  0  0  0  0  0  0  0
  -30.5517  -15.0358   20.7604 C   0  0  0  0  0  0  0  0  0  0  0  0
  -28.2867  -33.0342   29.2863 C   0  0  0  0  0  0  0  0  0  0  0  0
  -25.9183  -33.6009   26.8955 C   0  0  0  0  0  0  0  0  0  0  0  0
  -34.4538  -31.2731   33.7250 C   0  0  0  0  0  0  0  0  0  0  0  0
  -31.0359  -30.8269   28.1987 C   0  0  0  0  0  0  0  0  0  0  0  0
  -28.1119  -30.6165   28.5868 C   0  0  0  0  0  0  0  0  0  0  0  0
  -33.2112  -32.1222   33.4696 C   0  0  0  0  0  0  0  0  0  0  0  0
  -29.7328  -12.3255   18.5642 C   0  0  0  0  0  0  0  0  0  0  0  0
  -31.9588  -31.2514   33.4773 C   0  0  0  0  0  0  0  0  0  0  0  0
  -28.2957  -11.9746   18.9473 C   0  0  0  0  0  0  0  0  0  0  0  0
  -30.5430  -12.7661   19.7793 C   0  0  0  0  0  0  0  0  0  0  0  0
  -28.4939  -13.5491   20.9238 C   0  0  0  0  0  0  0  0  0  0  0  0
  -32.0121  -30.1984   32.3638 C   0  0  1  0  0  0  0  0  0  0  0  0
  -30.3101  -31.6216   29.2799 C   0  0  1  0  0  0  0  0  0  0  0  0
  -27.6323  -13.1283   19.7201 C   0  0  2  0  0  0  0  0  0  0  0  0
  -29.4059  -19.6355   25.9692 C   0  0  0  0  0  0  0  0  0  0  0  0
  -24.3382  -35.3657   26.0672 C   0  0  0  0  0  0  0  0  0  0  0  0
  -26.4366  -32.4833   31.6492 C   0  0  0  0  0  0  0  0  0  0  0  0
  -24.5618  -33.4829   30.3248 C   0  0  0  0  0  0  0  0  0  0  0  0
  -26.5359  -34.8790   30.9385 C   0  0  0  0  0  0  0  0  0  0  0  0
  -27.2092  -33.6715   24.2333 C   0  0  0  0  0  0  0  0  0  0  0  0
  -30.6628  -17.3479   21.7179 C   0  0  0  0  0  0  0  0  0  0  0  0
  -27.9358  -21.6708   24.4400 C   0  0  0  0  0  0  0  0  0  0  0  0
  -28.8691  -22.7995   24.8823 C   0  0  0  0  0  0  0  0  0  0  0  0
  -29.0302  -25.1523   25.9079 C   0  0  0  0  0  0  0  0  0  1  0  0
  -29.7900  -16.1050   21.5025 C   0  0  0  0  0  0  0  0  0  0  0  0
  -26.7832  -33.0944   29.1648 C   0  0  1  0  0  0  0  0  0  0  0  0
  -25.7221  -34.7514   25.9248 C   0  0  2  0  0  0  0  0  0  0  0  0
  -26.0943  -33.4629   30.5090 C   0  0  0  0  0  0  0  0  0  0  0  0
  -25.9100  -11.5092   20.4241 N   0  0  0  0  0  0  0  0  0  0  0  0
  -26.2125  -12.7858   20.1325 N   0  0  0  0  0  0  0  0  0  0  0  0
  -28.8864  -31.8023   28.9888 N   0  0  0  0  0  0  0  0  0  0  0  0
  -29.8685  -13.8480   20.4990 N   0  0  0  0  0  0  0  0  0  0  0  0
  -25.2876  -14.9622   19.9956 N   0  0  0  0  0  0  0  0  0  0  0  0
  -21.7876  -12.4228   21.2985 N   0  0  0  0  0  0  0  0  0  0  0  0
  -31.6958  -30.7982   31.0853 N   0  0  0  0  0  0  0  0  0  0  0  0
  -26.4986  -34.0203   28.0739 N   0  0  0  0  0  0  0  0  0  0  0  0
  -25.8838  -34.2780   24.5210 N   0  3  0  0  0  0  0  0  0  0  0  0
  -22.4435  -14.5524   20.7572 O   0  0  0  0  0  0  0  0  0  0  0  0
  -29.3752  -30.6668   31.2265 O   0  0  0  0  0  0  0  0  0  0  0  0
  -26.9359  -23.9926   25.7102 O   0  0  0  0  0  0  0  0  0  0  0  0
  -31.7179  -15.2529   20.4214 O   0  0  0  0  0  0  0  0  0  0  0  0
  -28.9069  -34.0451   29.6256 O   0  0  0  0  0  0  0  0  0  0  0  0
  -25.5863  -32.4464   26.6360 O   0  0  0  0  0  0  0  0  0  0  0  0
  -21.8648   -6.9277   22.2115 O   0  0  0  0  0  0  0  0  0  0  0  0
  -28.2573  -26.1851   26.5181 O   0  0  0  0  0  0  0  0  0  1  0  0
  -16.8905   -6.0795   19.9887 F   0  0  0  0  0  0  0  0  0  0  0  0
  -19.8108   -8.7370   22.5992 F   0  0  0  0  0  0  0  0  0  0  0  0
  1  2  1  0  0  0  0
  1  5  2  0  0  0  0
  2  6  2  0  0  0  0
  3 10  2  0  0  0  0
  3 18  1  0  0  0  0
  4 11  1  0  0  0  0
  4 18  2  0  0  0  0
  5 20  1  0  0  0  0
  6 22  1  0  0  0  0
  7 12  2  0  0  0  0
  7 21  1  0  0  0  0
  8  9  2  0  0  0  0
  8 24  1  0  0  0  0
  9 25  1  0  0  0  0
 10 27  1  0  0  0  0
 11 27  2  0  0  0  0
 12 28  1  0  0  0  0
 13 14  2  0  0  0  0
 13 29  1  0  0  0  0
 14 30  1  0  0  0  0
 15 23  1  0  0  0  0
 15 28  2  0  0  0  0
 16 24  2  0  0  0  0
 16 26  1  0  0  0  0
 17 30  2  0  0  0  0
 17 31  1  0  0  0  0
 18 32  1  0  0  0  0
 19 32  1  0  0  0  0
 19 33  2  0  0  0  0
 19 34  1  0  0  0  0
 20 22  2  0  0  0  0
 20 40  1  0  0  0  0
 21 23  2  0  0  0  0
 21 41  1  0  0  0  0
 22 49  1  0  0  0  0
 23 42  1  0  0  0  0
 24 58  1  0  0  0  0
 25 26  2  0  0  0  0
 25 59  1  0  0  0  0
 26 52  1  0  0  0  0
 27 81  1  0  0  0  0
 28 82  1  0  0  0  0
 29 31  2  0  0  0  0
 29 81  1  0  0  0  0
 30 83  1  0  0  0  0
 31 84  1  0  0  0  0
 32 66  2  0  0  0  0
 33 67  1  0  0  0  0
 33 70  1  0  0  0  0
 34 71  1  0  0  0  0
 34 75  2  0  0  0  0
 35 50  1  0  0  0  0
 35 72  1  0  0  0  0
 35 76  2  0  0  0  0
 36 60  1  0  0  0  0
 36 61  1  0  0  0  0
 36 77  2  0  0  0  0
 37 62  1  0  0  0  0
 37 69  1  0  0  0  0
 37 78  2  0  0  0  0
 38 63  1  0  0  0  0
 38 68  1  0  0  0  0
 38 79  2  0  0  0  0
 39 64  1  0  0  0  0
 39 73  1  0  0  0  0
 39 80  2  0  0  0  0
 40 43  1  0  0  0  0
 41 50  1  0  0  0  0
 42 68  1  0  0  0  0
 43 45  1  0  0  0  0
 44 46  1  0  0  0  0
 44 47  1  0  0  0  0
 45 49  1  0  0  0  0
 46 51  1  0  0  0  0
 47 69  1  0  0  0  0
 48 51  1  0  0  0  0
 48 69  1  0  0  0  0
 49 72  1  0  0  0  0
 50 68  1  0  0  0  0
 51 67  1  0  0  0  0
 53 64  1  0  0  0  0
 54 65  1  0  0  0  0
 55 65  1  0  0  0  0
 56 65  1  0  0  0  0
 57 74  1  0  0  0  0
 58 62  1  0  0  0  0
 59 60  1  0  0  0  0
 61 82  1  0  0  0  0
 63 65  1  0  0  0  0
 63 73  1  0  0  0  0
 64 74  1  0  0  0  0
 66 67  1  0  0  0  0
M  CHG  1  74   1
M  ISO  4  37 100  61 101  62 100  82 101
M  END
> <Batch ID>
0130

> <Smiles>
CNC(C)C(=O)NC(C(=O)N1Cc2cc([101O:1][101CH2:1]C(=O)CCc3ccc(C[100CH2:0][100C:0](=O)N4CCCC(n5nc(-c6ccc(Oc7ccc(F)cc7F)cc6)c(C(N)=O)c5N)C4)cc3C)ccc2CC1C(=O)NC1CCCc2ccccc21)C(C)(C)C

> <Shape>
0.174

> <Color>
0.191

> <Negative vol penalty>
0.000

$$$$

  -OEChem-04052302223D

 83 91  0     1  0  0  0  0  0999 V2000
  -31.8035  -34.1400   22.5370 C   0  0  0  0  0  0  0  0  0  0  0  0
  -31.4779  -32.9499   21.8942 C   0  0  0  0  0  0  0  0  0  0  0  0
  -24.2556   -8.8346   20.3701 C   0  0  0  0  0  0  0  0  0  0  0  0
  -22.8651  -10.7338   20.9143 C   0  0  0  0  0  0  0  0  0  0  0  0
  -31.1106  -34.5232   23.6847 C   0  0  0  0  0  0  0  0  0  0  0  0
  -30.4600  -32.1418   22.3993 C   0  0  0  0  0  0  0  0  0  0  0  0
  -26.5313  -28.7236   19.1764 C   0  0  0  0  0  0  0  0  0  0  0  0
  -29.0976  -20.5997   19.9014 C   0  0  0  0  0  0  0  0  0  0  0  0
  -29.1922  -19.2453   20.2214 C   0  0  0  0  0  0  0  0  0  0  0  0
  -23.2870   -7.9763   20.8903 C   0  0  0  0  0  0  0  0  0  0  0  0
  -21.8964   -9.8755   21.4345 C   0  0  0  0  0  0  0  0  0  0  0  0
  -26.5105  -27.3661   18.8591 C   0  0  0  0  0  0  0  0  0  0  0  0
  -22.2681   -6.9254   23.9369 C   0  0  0  0  0  0  0  0  0  0  0  0
  -22.6985   -5.8918   24.7687 C   0  0  0  0  0  0  0  0  0  0  0  0
  -25.0472  -26.9569   20.7328 C   0  0  0  0  0  0  0  0  0  0  0  0
  -27.7596  -20.0492   17.9665 C   0  0  0  0  0  0  0  0  0  0  0  0
  -21.7684   -4.2716   23.2367 C   0  0  0  0  0  0  0  0  0  0  0  0
  -24.0448  -10.2134   20.3821 C   0  0  0  0  0  0  0  0  0  0  0  0
  -25.1515  -11.5587   18.5186 C   0  0  0  0  0  0  0  0  0  0  0  0
  -30.0772  -33.7241   24.1986 C   0  0  0  0  0  0  0  0  0  0  0  0
  -25.8178  -29.2070   20.2826 C   0  0  0  0  0  0  0  0  0  0  0  0
  -29.7536  -32.5140   23.5557 C   0  0  0  0  0  0  0  0  0  0  0  0
  -25.0585  -28.3213   21.0604 C   0  0  0  0  0  0  0  0  0  0  0  0
  -28.3812  -21.0016   18.7740 C   0  0  0  0  0  0  0  0  0  0  0  0
  -27.8543  -18.6948   18.2864 C   0  0  0  0  0  0  0  0  0  0  0  0
  -28.5706  -18.2929   19.4139 C   0  0  0  0  0  0  0  0  0  0  0  0
  -22.1073   -8.4967   21.4224 C   0  0  0  0  0  0  0  0  0  0  0  0
  -25.7707  -26.4821   19.6390 C   0  0  0  0  0  0  0  0  0  0  0  0
  -21.5878   -6.6322   22.7550 C   0  0  0  0  0  0  0  0  0  0  0  0
  -22.4487   -4.5649   24.4186 C   0  0  0  0  0  0  0  0  0  0  0  0
  -21.3379   -5.3053   22.4049 C   0  0  0  0  0  0  0  0  0  0  0  0
  -25.0453  -11.1005   19.8455 C   0  0  0  0  0  0  0  0  0  0  0  0
  -26.2598  -12.3699   18.5232 C   0  0  0  0  0  0  0  0  0  0  0  0
  -24.3224  -11.2764   17.3834 C   0  0  0  0  0  0  0  0  0  0  0  0
  -26.6032  -30.6665   22.9949 C   0  0  0  0  0  0  0  0  0  0  0  0
  -27.0844  -23.1529   19.0573 C   0  0  0  0  0  0  0  0  0  0  0  0
  -23.3867  -30.8855   23.3534 C   0  0  0  0  0  0  0  0  0  0  0  0
  -20.2954  -29.6643   22.5792 C   0  0  0  0  0  0  0  0  0  0  0  0
  -29.3561  -16.3736   20.8442 C   0  0  0  0  0  0  0  0  0  0  0  0
  -29.3885  -34.1564   25.4688 C   0  0  0  0  0  0  0  0  0  0  0  0
  -25.8290  -30.6782   20.5957 C   0  0  0  0  0  0  0  0  0  0  0  0
  -24.2589  -28.7929   22.2464 C   0  0  0  0  0  0  0  0  0  0  0  0
  -28.0715  -33.4286   25.7256 C   0  0  0  0  0  0  0  0  0  0  0  0
  -29.8247  -13.0566   22.0505 C   0  0  0  0  0  0  0  0  0  0  0  0
  -28.2393  -31.9282   25.5075 C   0  0  0  0  0  0  0  0  0  0  0  0
  -28.6318  -12.2897   21.4752 C   0  0  0  0  0  0  0  0  0  0  0  0
  -29.4435  -14.4805   22.4515 C   0  0  0  0  0  0  0  0  0  0  0  0
  -27.5939  -14.5002   20.8244 C   0  0  0  0  0  0  0  0  0  0  0  0
  -28.6390  -31.6226   24.0589 C   0  0  1  0  0  0  0  0  0  0  0  0
  -25.4792  -30.9824   22.0491 C   0  0  1  0  0  0  0  0  0  0  0  0
  -27.9442  -13.0817   20.3458 C   0  0  2  0  0  0  0  0  0  0  0  0
  -28.1675  -16.9755   16.4885 C   0  0  0  0  0  0  0  0  0  0  0  0
  -17.8582  -30.0271   23.0546 C   0  0  0  0  0  0  0  0  0  0  0  0
  -23.7284  -29.5793   26.0897 C   0  0  0  0  0  0  0  0  0  0  0  0
  -21.2696  -29.1077   26.0942 C   0  0  0  0  0  0  0  0  0  0  0  0
  -22.0856  -31.4641   26.0312 C   0  0  0  0  0  0  0  0  0  0  0  0
  -19.7045  -30.2228   19.7335 C   0  0  0  0  0  0  0  0  0  0  0  0
  -28.2812  -22.4637   18.4274 C   0  0  0  0  0  0  0  0  0  0  0  0
  -27.1809  -17.6961   17.4018 C   0  0  0  0  0  0  0  0  0  0  0  0
  -26.9103  -24.6168   18.7021 C   0  0  0  0  0  0  0  0  0  1  0  0
  -22.3182  -30.0165   23.9716 C   0  0  1  0  0  0  0  0  0  0  0  0
  -19.0213  -30.3579   22.1322 C   0  0  2  0  0  0  0  0  0  0  0  0
  -22.3670  -30.0324   25.5255 C   0  0  0  0  0  0  0  0  0  0  0  0
  -26.0093  -11.5806   20.6355 N   0  0  0  0  0  0  0  0  0  0  0  0
  -26.7319  -12.3489   19.8026 N   0  0  0  0  0  0  0  0  0  0  0  0
  -24.3069  -30.2395   22.5157 N   0  0  0  0  0  0  0  0  0  0  0  0
  -28.8013  -15.1711   21.3310 N   0  0  0  0  0  0  0  0  0  0  0  0
  -26.8669  -13.0920   17.5575 N   0  0  0  0  0  0  0  0  0  0  0  0
  -23.2242  -10.4225   17.5541 N   0  0  0  0  0  0  0  0  0  0  0  0
  -28.6785  -16.9220   19.7557 N   0  0  0  0  0  0  0  0  0  0  0  0
  -27.4870  -31.7111   23.1874 N   0  0  0  0  0  0  0  0  0  0  0  0
  -21.0497  -30.4667   23.4089 N   0  0  0  0  0  0  0  0  0  0  0  0
  -18.6593  -29.9358   20.7496 N   0  3  0  0  0  0  0  0  0  0  0  0
  -24.5582  -11.7538   16.2477 O   0  0  0  0  0  0  0  0  0  0  0  0
  -26.6632  -29.5576   23.5130 O   0  0  0  0  0  0  0  0  0  0  0  0
  -26.3009  -22.5734   19.8082 O   0  0  0  0  0  0  0  0  0  0  0  0
  -23.3999  -32.0943   23.5989 O   0  0  0  0  0  0  0  0  0  0  0  0
  -20.5901  -28.5232   22.2305 O   0  0  0  0  0  0  0  0  0  0  0  0
  -30.3742  -16.8652   21.3379 O   0  0  0  0  0  0  0  0  0  0  0  0
  -21.1618   -7.6595   21.9299 O   0  0  0  0  0  0  0  0  0  0  0  0
  -25.7492  -25.1565   19.3320 O   0  0  0  0  0  0  0  0  0  1  0  0
  -22.8634   -3.5723   25.2167 F   0  0  0  0  0  0  0  0  0  0  0  0
  -20.6858   -5.0174   21.2702 F   0  0  0  0  0  0  0  0  0  0  0  0
  1  2  1  0  0  0  0
  1  5  2  0  0  0  0
  2  6  2  0  0  0  0
  3 10  2  0  0  0  0
  3 18  1  0  0  0  0
  4 11  1  0  0  0  0
  4 18  2  0  0  0  0
  5 20  1  0  0  0  0
  6 22  1  0  0  0  0
  7 12  2  0  0  0  0
  7 21  1  0  0  0  0
  8  9  2  0  0  0  0
  8 24  1  0  0  0  0
  9 26  1  0  0  0  0
 10 27  1  0  0  0  0
 11 27  2  0  0  0  0
 12 28  1  0  0  0  0
 13 14  2  0  0  0  0
 13 29  1  0  0  0  0
 14 30  1  0  0  0  0
 15 23  1  0  0  0  0
 15 28  2  0  0  0  0
 16 24  2  0  0  0  0
 16 25  1  0  0  0  0
 17 30  2  0  0  0  0
 17 31  1  0  0  0  0
 18 32  1  0  0  0  0
 19 32  1  0  0  0  0
 19 33  2  0  0  0  0
 19 34  1  0  0  0  0
 20 22  2  0  0  0  0
 20 40  1  0  0  0  0
 21 23  2  0  0  0  0
 21 41  1  0  0  0  0
 22 49  1  0  0  0  0
 23 42  1  0  0  0  0
 24 58  1  0  0  0  0
 25 26  2  0  0  0  0
 25 59  1  0  0  0  0
 26 70  1  0  0  0  0
 27 80  1  0  0  0  0
 28 81  1  0  0  0  0
 29 31  2  0  0  0  0
 29 80  1  0  0  0  0
 30 82  1  0  0  0  0
 31 83  1  0  0  0  0
 32 64  2  0  0  0  0
 33 65  1  0  0  0  0
 33 68  1  0  0  0  0
 34 69  1  0  0  0  0
 34 74  2  0  0  0  0
 35 50  1  0  0  0  0
 35 71  1  0  0  0  0
 35 75  2  0  0  0  0
 36 58  1  0  0  0  0
 36 60  1  0  0  0  0
 36 76  2  0  0  0  0
 37 61  1  0  0  0  0
 37 66  1  0  0  0  0
 37 77  2  0  0  0  0
 38 62  1  0  0  0  0
 38 72  1  0  0  0  0
 38 78  2  0  0  0  0
 39 67  1  0  0  0  0
 39 70  1  0  0  0  0
 39 79  2  0  0  0  0
 40 43  1  0  0  0  0
 41 50  1  0  0  0  0
 42 66  1  0  0  0  0
 43 45  1  0  0  0  0
 44 46  1  0  0  0  0
 44 47  1  0  0  0  0
 45 49  1  0  0  0  0
 46 51  1  0  0  0  0
 47 67  1  0  0  0  0
 48 51  1  0  0  0  0
 48 67  1  0  0  0  0
 49 71  1  0  0  0  0
 50 66  1  0  0  0  0
 51 65  1  0  0  0  0
 52 59  1  0  0  0  0
 53 62  1  0  0  0  0
 54 63  1  0  0  0  0
 55 63  1  0  0  0  0
 56 63  1  0  0  0  0
 57 73  1  0  0  0  0
 60 81  1  0  0  0  0
 61 63  1  0  0  0  0
 61 72  1  0  0  0  0
 62 73  1  0  0  0  0
 64 65  1  0  0  0  0
M  CHG  1  73   1
M  ISO  4  39 100  60 101  70 100  81 101
M  END
> <Batch ID>
0130

> <Smiles>
CCc1cc(CC(=O)[101CH2:1][101O:1]c2ccc3c(c2)CN(C(=O)C(NC(=O)C(C)NC)C(C)(C)C)C(C(=O)NC2CCCc4ccccc42)C3)ccc1[100NH:0][100C:0](=O)N1CCCC(n2nc(-c3ccc(Oc4ccc(F)cc4F)cc3)c(C(N)=O)c2N)C1

> <Shape>
0.288

> <Color>
0.110

> <Negative vol penalty>
0.000

$$$$

  -OEChem-04052302223D

 85 93  0     1  0  0  0  0  0999 V2000
  -18.9142  -24.6394   22.0383 C   0  0  0  0  0  0  0  0  0  0  0  0
  -20.1667  -24.8636   21.4759 C   0  0  0  0  0  0  0  0  0  0  0  0
  -24.9028  -13.8831   22.6084 C   0  0  0  0  0  0  0  0  0  0  0  0
  -27.1881  -13.7328   21.8390 C   0  0  0  0  0  0  0  0  0  0  0  0
  -18.1219  -25.7191   22.4259 C   0  0  0  0  0  0  0  0  0  0  0  0
  -20.6271  -26.1680   21.2996 C   0  0  0  0  0  0  0  0  0  0  0  0
  -25.4483  -26.7378   22.7407 C   0  0  0  0  0  0  0  0  0  0  0  0
  -24.5482  -12.8341   21.7603 C   0  0  0  0  0  0  0  0  0  0  0  0
  -26.8335  -12.6837   20.9909 C   0  0  0  0  0  0  0  0  0  0  0  0
  -26.4327  -26.2798   21.8661 C   0  0  0  0  0  0  0  0  0  0  0  0
  -24.7910   -9.4617   21.7334 C   0  0  0  0  0  0  0  0  0  0  0  0
  -23.9780   -8.4544   22.2530 C   0  0  0  0  0  0  0  0  0  0  0  0
  -32.7328  -21.9068   19.2164 C   0  0  0  0  0  0  0  0  0  0  0  0
  -30.6358  -22.4236   20.2992 C   0  0  0  0  0  0  0  0  0  0  0  0
  -26.7849  -28.5366   21.0903 C   0  0  0  0  0  0  0  0  0  0  0  0
  -31.7869  -20.3633   20.8164 C   0  0  0  0  0  0  0  0  0  0  0  0
  -22.3017   -8.9464   20.5841 C   0  0  0  0  0  0  0  0  0  0  0  0
  -26.2228  -14.3325   22.6478 C   0  0  0  0  0  0  0  0  0  0  0  0
  -31.6501  -22.7658   19.4049 C   0  0  0  0  0  0  0  0  0  0  0  0
  -27.0322  -15.3201   24.8562 C   0  0  0  0  0  0  0  0  0  0  0  0
  -18.5769  -27.0372   22.2632 C   0  0  0  0  0  0  0  0  0  0  0  0
  -25.1166  -28.0994   22.7890 C   0  0  0  0  0  0  0  0  0  0  0  0
  -19.8396  -27.2665   21.6841 C   0  0  0  0  0  0  0  0  0  0  0  0
  -25.7977  -29.0097   21.9682 C   0  0  0  0  0  0  0  0  0  0  0  0
  -32.8012  -20.7055   19.9221 C   0  0  0  0  0  0  0  0  0  0  0  0
  -30.7042  -21.2223   21.0050 C   0  0  0  0  0  0  0  0  0  0  0  0
  -25.5136  -12.2344   20.9515 C   0  0  0  0  0  0  0  0  0  0  0  0
  -27.0991  -27.1788   21.0386 C   0  0  0  0  0  0  0  0  0  0  0  0
  -24.3593  -10.2114   20.6392 C   0  0  0  0  0  0  0  0  0  0  0  0
  -22.7334   -8.1968   21.6784 C   0  0  0  0  0  0  0  0  0  0  0  0
  -23.1147   -9.9537   20.0645 C   0  0  0  0  0  0  0  0  0  0  0  0
  -26.5896  -15.4165   23.5233 C   0  0  0  0  0  0  0  0  0  0  0  0
  -27.2482  -16.6208   25.2411 C   0  0  0  0  0  0  0  0  0  0  0  0
  -30.2281  -24.5790   18.3303 C   0  0  0  0  0  0  0  0  0  0  0  0
  -30.0428  -25.9010   18.2101 C   0  0  0  0  0  0  0  0  0  0  0  0
  -31.5776  -24.0428   18.6546 C   0  0  0  0  0  0  0  0  0  0  0  0
  -27.2304  -14.1588   25.6733 C   0  0  0  0  0  0  0  0  0  0  0  0
  -22.4870  -29.7894   22.2122 C   0  0  0  0  0  0  0  0  0  0  0  0
  -24.2839  -32.2414   23.3440 C   0  0  0  0  0  0  0  0  0  0  0  0
  -27.3903  -33.5352   23.9127 C   0  0  0  0  0  0  0  0  0  0  0  0
  -28.5314  -21.6130   22.2186 C   0  0  0  0  0  0  0  0  0  0  0  0
  -17.6651  -28.1733   22.6537 C   0  0  0  0  0  0  0  0  0  0  0  0
  -24.0711  -28.5812   23.7571 C   0  0  0  0  0  0  0  0  0  0  0  0
  -25.4931  -30.4844   21.9963 C   0  0  0  0  0  0  0  0  0  0  0  0
  -18.3825  -29.5150   22.7776 C   0  0  0  0  0  0  0  0  0  0  0  0
  -25.7441  -21.0831   24.3696 C   0  0  0  0  0  0  0  0  0  0  0  0
  -19.2967  -29.7443   21.5782 C   0  0  0  0  0  0  0  0  0  0  0  0
  -25.6886  -19.5614   24.5229 C   0  0  0  0  0  0  0  0  0  0  0  0
  -26.1624  -21.4962   22.9596 C   0  0  0  0  0  0  0  0  0  0  0  0
  -27.3528  -19.3644   22.6312 C   0  0  0  0  0  0  0  0  0  0  0  0
  -20.3843  -28.6662   21.4994 C   0  0  1  0  0  0  0  0  0  0  0  0
  -23.4546  -29.9173   23.3546 C   0  0  1  0  0  0  0  0  0  0  0  0
  -26.9989  -18.8995   24.0532 C   0  0  2  0  0  0  0  0  0  0  0  0
  -33.7115  -18.7783   18.6017 C   0  0  0  0  0  0  0  0  0  0  0  0
  -28.5395  -35.5752   24.8155 C   0  0  0  0  0  0  0  0  0  0  0  0
  -23.6171  -33.7501   20.7770 C   0  0  0  0  0  0  0  0  0  0  0  0
  -25.5023  -35.3157   21.2899 C   0  0  0  0  0  0  0  0  0  0  0  0
  -23.5642  -35.1462   22.8513 C   0  0  0  0  0  0  0  0  0  0  0  0
  -28.7244  -31.9807   26.0487 C   0  0  0  0  0  0  0  0  0  0  0  0
  -33.9587  -19.7867   19.7206 C   0  0  0  0  0  0  0  0  0  0  0  0
  -28.7157  -26.5221   17.8714 C   0  0  0  0  0  0  0  0  0  0  0  0
  -28.2374  -27.4640   18.9700 C   0  0  0  0  0  0  0  0  0  1  0  0
  -25.2284  -33.2467   22.7305 C   0  0  1  0  0  0  0  0  0  0  0  0
  -27.9993  -34.1909   25.1389 C   0  0  2  0  0  0  0  0  0  0  0  0
  -24.4826  -34.3367   21.9100 C   0  0  0  0  0  0  0  0  0  0  0  0
  -26.5274  -16.6786   23.0906 N   0  0  0  0  0  0  0  0  0  0  0  0
  -26.9338  -17.3873   24.1577 N   0  0  0  0  0  0  0  0  0  0  0  0
  -24.4585  -30.9057   22.9553 N   0  0  0  0  0  0  0  0  0  0  0  0
  -27.4136  -20.8338   22.5845 N   0  0  0  0  0  0  0  0  0  0  0  0
  -27.6745  -17.1721   26.3973 N   0  0  0  0  0  0  0  0  0  0  0  0
  -26.9608  -12.8992   25.1209 N   0  0  0  0  0  0  0  0  0  0  0  0
  -29.6743  -20.8744   21.9138 N   0  0  0  0  0  0  0  0  0  0  0  0
  -21.4314  -28.9334   22.4621 N   0  0  0  0  0  0  0  0  0  0  0  0
  -26.0345  -33.7716   23.8274 N   0  0  0  0  0  0  0  0  0  0  0  0
  -29.1187  -33.3614   25.6678 N   0  3  0  0  0  0  0  0  0  0  0  0
  -32.6107  -24.6022   18.3040 O   0  0  0  0  0  0  0  0  0  0  0  0
  -27.6190  -14.2367   26.8635 O   0  0  0  0  0  0  0  0  0  0  0  0
  -22.6828  -30.4218   21.1809 O   0  0  0  0  0  0  0  0  0  0  0  0
  -23.4276  -32.6261   24.1442 O   0  0  0  0  0  0  0  0  0  0  0  0
  -28.0518  -32.8820   23.1088 O   0  0  0  0  0  0  0  0  0  0  0  0
  -28.4867  -22.8458   22.2048 O   0  0  0  0  0  0  0  0  0  0  0  0
  -25.1680  -11.2106   20.1239 O   0  0  0  0  0  0  0  0  0  0  0  0
  -28.0599  -26.7343   20.1835 O   0  0  0  0  0  0  0  0  0  1  0  0
  -21.9535   -7.2284   22.1765 F   0  0  0  0  0  0  0  0  0  0  0  0
  -22.6952  -10.6699   19.0124 F   0  0  0  0  0  0  0  0  0  0  0  0
  1  2  1  0  0  0  0
  1  5  2  0  0  0  0
  2  6  2  0  0  0  0
  3  8  2  0  0  0  0
  3 18  1  0  0  0  0
  4  9  1  0  0  0  0
  4 18  2  0  0  0  0
  5 21  1  0  0  0  0
  6 23  1  0  0  0  0
  7 10  2  0  0  0  0
  7 22  1  0  0  0  0
  8 27  1  0  0  0  0
  9 27  2  0  0  0  0
 10 28  1  0  0  0  0
 11 12  2  0  0  0  0
 11 29  1  0  0  0  0
 12 30  1  0  0  0  0
 13 19  1  0  0  0  0
 13 25  2  0  0  0  0
 14 19  2  0  0  0  0
 14 26  1  0  0  0  0
 15 24  1  0  0  0  0
 15 28  2  0  0  0  0
 16 25  1  0  0  0  0
 16 26  2  0  0  0  0
 17 30  2  0  0  0  0
 17 31  1  0  0  0  0
 18 32  1  0  0  0  0
 19 36  1  0  0  0  0
 20 32  1  0  0  0  0
 20 33  2  0  0  0  0
 20 37  1  0  0  0  0
 21 23  2  0  0  0  0
 21 42  1  0  0  0  0
 22 24  2  0  0  0  0
 22 43  1  0  0  0  0
 23 51  1  0  0  0  0
 24 44  1  0  0  0  0
 25 60  1  0  0  0  0
 26 72  1  0  0  0  0
 27 82  1  0  0  0  0
 28 83  1  0  0  0  0
 29 31  2  0  0  0  0
 29 82  1  0  0  0  0
 30 84  1  0  0  0  0
 31 85  1  0  0  0  0
 32 66  2  0  0  0  0
 33 67  1  0  0  0  0
 33 70  1  0  0  0  0
 34 35  2  0  0  0  0
 34 36  1  0  0  0  0
 35 61  1  0  0  0  0
 36 76  2  0  0  0  0
 37 71  1  0  0  0  0
 37 77  2  0  0  0  0
 38 52  1  0  0  0  0
 38 73  1  0  0  0  0
 38 78  2  0  0  0  0
 39 63  1  0  0  0  0
 39 68  1  0  0  0  0
 39 79  2  0  0  0  0
 40 64  1  0  0  0  0
 40 74  1  0  0  0  0
 40 80  2  0  0  0  0
 41 69  1  0  0  0  0
 41 72  1  0  0  0  0
 41 81  2  0  0  0  0
 42 45  1  0  0  0  0
 43 52  1  0  0  0  0
 44 68  1  0  0  0  0
 45 47  1  0  0  0  0
 46 48  1  0  0  0  0
 46 49  1  0  0  0  0
 47 51  1  0  0  0  0
 48 53  1  0  0  0  0
 49 69  1  0  0  0  0
 50 53  1  0  0  0  0
 50 69  1  0  0  0  0
 51 73  1  0  0  0  0
 52 68  1  0  0  0  0
 53 67  1  0  0  0  0
 54 60  1  0  0  0  0
 55 64  1  0  0  0  0
 56 65  1  0  0  0  0
 57 65  1  0  0  0  0
 58 65  1  0  0  0  0
 59 75  1  0  0  0  0
 61 62  1  0  0  0  0
 62 83  1  0  0  0  0
 63 65  1  0  0  0  0
 63 74  1  0  0  0  0
 64 75  1  0  0  0  0
 66 67  1  0  0  0  0
M  CHG  1  75   1
M  ISO  4  41 100  62 101  72 100  83 101
M  END
> <Batch ID>
0130

> <Smiles>
CCc1cc([100NH:0][100C:0](=O)N2CCCC(n3nc(-c4ccc(Oc5ccc(F)cc5F)cc4)c(C(N)=O)c3N)C2)cc(C(=O)C=CC[101CH2:1][101O:1]c2ccc3c(c2)CN(C(=O)C(NC(=O)C(C)NC)C(C)(C)C)C(C(=O)NC2CCCc4ccccc42)C3)c1

> <Shape>
0.257

> <Color>
0.096

> <Negative vol penalty>
0.000

$$$$

  -OEChem-04052302223D

 84 92  0     1  0  0  0  0  0999 V2000
  -24.7821  -10.2192   18.4759 C   0  0  0  0  0  0  0  0  0  0  0  0
  -24.5156  -11.0333   19.5721 C   0  0  0  0  0  0  0  0  0  0  0  0
  -26.0415  -28.5946   21.3820 C   0  0  0  0  0  0  0  0  0  0  0  0
  -24.7453  -29.6470   19.6357 C   0  0  0  0  0  0  0  0  0  0  0  0
  -26.0778  -10.1389   17.9673 C   0  0  0  0  0  0  0  0  0  0  0  0
  -25.5449  -11.7670   20.1609 C   0  0  0  0  0  0  0  0  0  0  0  0
  -24.1952  -16.5420   21.1718 C   0  0  0  0  0  0  0  0  0  0  0  0
  -15.6964  -20.1296   26.6281 C   0  0  0  0  0  0  0  0  0  0  0  0
  -17.0161  -19.6953   26.7522 C   0  0  0  0  0  0  0  0  0  0  0  0
  -27.1532  -28.5668   20.5400 C   0  0  0  0  0  0  0  0  0  0  0  0
  -25.8571  -29.6192   18.7938 C   0  0  0  0  0  0  0  0  0  0  0  0
  -23.4067  -16.7552   22.3017 C   0  0  0  0  0  0  0  0  0  0  0  0
  -30.2323  -27.8923   18.7267 C   0  0  0  0  0  0  0  0  0  0  0  0
  -30.9772  -26.7143   18.6723 C   0  0  0  0  0  0  0  0  0  0  0  0
  -16.4760  -22.2629   25.8043 C   0  0  0  0  0  0  0  0  0  0  0  0
  -25.3656  -17.4391   23.5323 C   0  0  0  0  0  0  0  0  0  0  0  0
  -29.0251  -25.5154   17.9049 C   0  0  0  0  0  0  0  0  0  0  0  0
  -24.8375  -29.1346   20.9298 C   0  0  0  0  0  0  0  0  0  0  0  0
  -17.7957  -21.8285   25.9284 C   0  0  0  0  0  0  0  0  0  0  0  0
  -23.3217  -30.1896   22.6896 C   0  0  0  0  0  0  0  0  0  0  0  0
  -27.1216  -10.8794   18.5441 C   0  0  0  0  0  0  0  0  0  0  0  0
  -25.5788  -16.7657   21.2169 C   0  0  0  0  0  0  0  0  0  0  0  0
  -26.8560  -11.6955   19.6603 C   0  0  0  0  0  0  0  0  0  0  0  0
  -26.1690  -17.2305   22.4009 C   0  0  0  0  0  0  0  0  0  0  0  0
  -15.4263  -21.4135   26.1542 C   0  0  0  0  0  0  0  0  0  0  0  0
  -18.0657  -20.5447   26.4023 C   0  0  0  0  0  0  0  0  0  0  0  0
  -27.0610  -29.0791   19.2460 C   0  0  0  0  0  0  0  0  0  0  0  0
  -23.9923  -17.2010   23.4830 C   0  0  0  0  0  0  0  0  0  0  0  0
  -28.8837  -27.8819   18.3704 C   0  0  0  0  0  0  0  0  0  0  0  0
  -30.3736  -25.5259   18.2613 C   0  0  0  0  0  0  0  0  0  0  0  0
  -28.2801  -26.6934   17.9594 C   0  0  0  0  0  0  0  0  0  0  0  0
  -23.6886  -29.1631   21.7989 C   0  0  0  0  0  0  0  0  0  0  0  0
  -22.1643  -29.7383   23.2756 C   0  0  0  0  0  0  0  0  0  0  0  0
  -18.8704  -22.7392   25.5553 C   0  0  0  0  0  0  0  0  0  0  0  0
  -19.0366  -23.2928   24.3369 C   0  0  0  0  0  0  0  0  0  0  0  0
  -23.9691  -31.4393   22.9629 C   0  0  0  0  0  0  0  0  0  0  0  0
  -20.1746  -24.2079   24.1170 C   0  0  0  0  0  0  0  0  0  0  0  0
  -28.1585  -14.9493   20.8304 C   0  0  0  0  0  0  0  0  0  0  0  0
  -21.3660  -18.6494   25.5234 C   0  0  0  0  0  0  0  0  0  0  0  0
  -29.7138  -17.7853   21.0762 C   0  0  0  0  0  0  0  0  0  0  0  0
  -29.7047  -21.0064   22.2038 C   0  0  0  0  0  0  0  0  0  0  0  0
  -28.5152  -10.7237   17.9888 C   0  0  0  0  0  0  0  0  0  0  0  0
  -26.4114  -16.5567   19.9818 C   0  0  0  0  0  0  0  0  0  0  0  0
  -27.6469  -17.5051   22.4955 C   0  0  0  0  0  0  0  0  0  0  0  0
  -29.4757  -11.8221   18.4372 C   0  0  0  0  0  0  0  0  0  0  0  0
  -18.3854  -26.9438   22.4600 C   0  0  0  0  0  0  0  0  0  0  0  0
  -29.3534  -12.0579   19.9393 C   0  0  0  0  0  0  0  0  0  0  0  0
  -19.5346  -27.8973   22.1440 C   0  0  0  0  0  0  0  0  0  0  0  0
  -18.8156  -25.4804   22.3705 C   0  0  0  0  0  0  0  0  0  0  0  0
  -21.1542  -26.1102   22.8946 C   0  0  0  0  0  0  0  0  0  0  0  0
  -27.9411  -12.5257   20.3110 C   0  0  1  0  0  0  0  0  0  0  0  0
  -27.8876  -16.3244   20.2886 C   0  0  1  0  0  0  0  0  0  0  0  0
  -20.7558  -27.5886   23.0247 C   0  0  1  0  0  0  0  0  0  0  0  0
  -14.0149  -21.8767   26.0220 C   0  0  0  0  0  0  0  0  0  0  0  0
  -31.1323  -23.0686   22.2864 C   0  0  0  0  0  0  0  0  0  0  0  0
  -31.4004  -16.5264   23.2853 C   0  0  0  0  0  0  0  0  0  0  0  0
  -32.1127  -18.8302   23.9586 C   0  0  0  0  0  0  0  0  0  0  0  0
  -32.6788  -17.9650   21.6884 C   0  0  0  0  0  0  0  0  0  0  0  0
  -27.7254  -22.5789   20.6648 C   0  0  0  0  0  0  0  0  0  0  0  0
  -19.4815  -20.0415   26.5516 C   0  0  0  0  0  0  0  0  0  0  0  0
  -19.9221  -19.1178   25.4144 C   0  0  0  0  0  0  0  0  0  0  0  0
  -21.8697  -17.8007   24.3725 C   0  0  0  0  0  0  0  0  0  1  0  0
  -30.2874  -18.5950   22.2139 C   0  0  1  0  0  0  0  0  0  0  0  0
  -30.0577  -22.3144   21.5189 C   0  0  2  0  0  0  0  0  0  0  0  0
  -31.5923  -17.9722   22.7856 C   0  0  0  0  0  0  0  0  0  0  0  0
  -22.8337  -28.1369   21.8143 N   0  0  0  0  0  0  0  0  0  0  0  0
  -21.9181  -28.5164   22.7220 N   0  0  0  0  0  0  0  0  0  0  0  0
  -20.0196  -25.2232   23.1748 N   0  0  0  0  0  0  0  0  0  0  0  0
  -28.4195  -17.2795   21.2628 N   0  0  0  0  0  0  0  0  0  0  0  0
  -21.3434  -30.2715   24.2053 N   0  0  0  0  0  0  0  0  0  0  0  0
  -25.1495  -31.7454   22.2721 N   0  0  0  0  0  0  0  0  0  0  0  0
  -27.7708  -13.9258   19.9868 N   0  0  0  0  0  0  0  0  0  0  0  0
  -30.4457  -19.9543   21.7084 N   0  0  0  0  0  0  0  0  0  0  0  0
  -28.8537  -23.1867   21.4162 N   0  3  0  0  0  0  0  0  0  0  0  0
  -23.5231  -32.2531   23.8069 O   0  0  0  0  0  0  0  0  0  0  0  0
  -21.1961  -24.0142   24.7785 O   0  0  0  0  0  0  0  0  0  0  0  0
  -28.6820  -14.8261   21.9315 O   0  0  0  0  0  0  0  0  0  0  0  0
  -22.0956  -18.9633   26.4623 O   0  0  0  0  0  0  0  0  0  0  0  0
  -30.3865  -17.6142   20.0565 O   0  0  0  0  0  0  0  0  0  0  0  0
  -28.8592  -20.9266   23.0922 O   0  0  0  0  0  0  0  0  0  0  0  0
  -28.1457  -29.0524   18.4242 O   0  0  0  0  0  0  0  0  0  0  0  0
  -23.2251  -17.4093   24.5875 O   0  0  0  0  0  0  0  0  0  1  0  0
  -31.0895  -24.3950   18.2076 F   0  0  0  0  0  0  0  0  0  0  0  0
  -26.9852  -26.6774   17.6147 F   0  0  0  0  0  0  0  0  0  0  0  0
  1  2  1  0  0  0  0
  1  5  2  0  0  0  0
  2  6  2  0  0  0  0
  3 10  2  0  0  0  0
  3 18  1  0  0  0  0
  4 11  1  0  0  0  0
  4 18  2  0  0  0  0
  5 21  1  0  0  0  0
  6 23  1  0  0  0  0
  7 12  2  0  0  0  0
  7 22  1  0  0  0  0
  8  9  2  0  0  0  0
  8 25  1  0  0  0  0
  9 26  1  0  0  0  0
 10 27  1  0  0  0  0
 11 27  2  0  0  0  0
 12 28  1  0  0  0  0
 13 14  2  0  0  0  0
 13 29  1  0  0  0  0
 14 30  1  0  0  0  0
 15 19  1  0  0  0  0
 15 25  2  0  0  0  0
 16 24  1  0  0  0  0
 16 28  2  0  0  0  0
 17 30  2  0  0  0  0
 17 31  1  0  0  0  0
 18 32  1  0  0  0  0
 19 26  2  0  0  0  0
 19 34  1  0  0  0  0
 20 32  1  0  0  0  0
 20 33  2  0  0  0  0
 20 36  1  0  0  0  0
 21 23  2  0  0  0  0
 21 42  1  0  0  0  0
 22 24  2  0  0  0  0
 22 43  1  0  0  0  0
 23 51  1  0  0  0  0
 24 44  1  0  0  0  0
 25 54  1  0  0  0  0
 26 60  1  0  0  0  0
 27 81  1  0  0  0  0
 28 82  1  0  0  0  0
 29 31  2  0  0  0  0
 29 81  1  0  0  0  0
 30 83  1  0  0  0  0
 31 84  1  0  0  0  0
 32 66  2  0  0  0  0
 33 67  1  0  0  0  0
 33 70  1  0  0  0  0
 34 35  2  0  0  0  0
 35 37  1  0  0  0  0
 36 71  1  0  0  0  0
 36 75  2  0  0  0  0
 37 68  1  0  0  0  0
 37 76  2  0  0  0  0
 38 52  1  0  0  0  0
 38 72  1  0  0  0  0
 38 77  2  0  0  0  0
 39 61  1  0  0  0  0
 39 62  1  0  0  0  0
 39 78  2  0  0  0  0
 40 63  1  0  0  0  0
 40 69  1  0  0  0  0
 40 79  2  0  0  0  0
 41 64  1  0  0  0  0
 41 73  1  0  0  0  0
 41 80  2  0  0  0  0
 42 45  1  0  0  0  0
 43 52  1  0  0  0  0
 44 69  1  0  0  0  0
 45 47  1  0  0  0  0
 46 48  1  0  0  0  0
 46 49  1  0  0  0  0
 47 51  1  0  0  0  0
 48 53  1  0  0  0  0
 49 68  1  0  0  0  0
 50 53  1  0  0  0  0
 50 68  1  0  0  0  0
 51 72  1  0  0  0  0
 52 69  1  0  0  0  0
 53 67  1  0  0  0  0
 55 64  1  0  0  0  0
 56 65  1  0  0  0  0
 57 65  1  0  0  0  0
 58 65  1  0  0  0  0
 59 74  1  0  0  0  0
 60 61  1  0  0  0  0
 62 82  1  0  0  0  0
 63 65  1  0  0  0  0
 63 73  1  0  0  0  0
 64 74  1  0  0  0  0
 66 67  1  0  0  0  0
M  CHG  1  74   1
M  ISO  4  35 100  37 100  62 101  82 101
M  END
> <Batch ID>
0130

> <Smiles>
CNC(C)C(=O)NC(C(=O)N1Cc2cc([101O:1][101CH2:1]C(=O)CCc3ccc(C)cc3C=[100CH:0][100C:0](=O)N3CCCC(n4nc(-c5ccc(Oc6ccc(F)cc6F)cc5)c(C(N)=O)c4N)C3)ccc2CC1C(=O)NC1CCCc2ccccc21)C(C)(C)C

> <Shape>
0.235

> <Color>
0.057

> <Negative vol penalty>
0.000

$$$$

  -OEChem-04052302223D

 87 96  0     1  0  0  0  0  0999 V2000
  -21.1048  -32.7591   17.3859 C   0  0  0  0  0  0  0  0  0  0  0  0
  -21.5501  -31.5672   16.8233 C   0  0  0  0  0  0  0  0  0  0  0  0
  -23.4378  -10.0918   22.3305 C   0  0  0  0  0  0  0  0  0  0  0  0
  -23.9713   -9.5605   20.0348 C   0  0  0  0  0  0  0  0  0  0  0  0
  -21.7611  -33.2936   18.4938 C   0  0  0  0  0  0  0  0  0  0  0  0
  -22.6528  -30.9097   17.3676 C   0  0  0  0  0  0  0  0  0  0  0  0
  -25.2625  -24.3231   18.4270 C   0  0  0  0  0  0  0  0  0  0  0  0
  -29.1454  -18.4657   21.3077 C   0  0  0  0  0  0  0  0  0  0  0  0
  -28.5358  -17.9166   22.4357 C   0  0  0  0  0  0  0  0  0  0  0  0
  -22.5652   -9.0047   22.3794 C   0  0  0  0  0  0  0  0  0  0  0  0
  -23.0987   -8.4733   20.0837 C   0  0  0  0  0  0  0  0  0  0  0  0
  -26.4164  -23.5730   18.2039 C   0  0  0  0  0  0  0  0  0  0  0  0
  -20.4702   -6.1557   23.2215 C   0  0  0  0  0  0  0  0  0  0  0  0
  -20.5241   -5.3309   24.3451 C   0  0  0  0  0  0  0  0  0  0  0  0
  -27.3177  -20.0293   21.0809 C   0  0  0  0  0  0  0  0  0  0  0  0
  -27.4230  -24.5489   20.1669 C   0  0  0  0  0  0  0  0  0  0  0  0
  -22.8364   -4.8239   23.8621 C   0  0  0  0  0  0  0  0  0  0  0  0
  -24.1408  -10.3698   21.1582 C   0  0  0  0  0  0  0  0  0  0  0  0
  -26.4133  -11.4978   21.4243 C   0  0  0  0  0  0  0  0  0  0  0  0
  -22.8665  -32.6374   19.0578 C   0  0  0  0  0  0  0  0  0  0  0  0
  -25.1842  -25.2014   19.5174 C   0  0  0  0  0  0  0  0  0  0  0  0
  -23.3253  -31.4367   18.4832 C   0  0  0  0  0  0  0  0  0  0  0  0
  -26.7080  -19.4802   22.2089 C   0  0  0  0  0  0  0  0  0  0  0  0
  -26.2661  -25.3071   20.4031 C   0  0  0  0  0  0  0  0  0  0  0  0
  -28.5364  -19.5221   20.6303 C   0  0  0  0  0  0  0  0  0  0  0  0
  -27.3170  -18.4239   22.8863 C   0  0  0  0  0  0  0  0  0  0  0  0
  -22.3957   -8.1954   21.2560 C   0  0  0  0  0  0  0  0  0  0  0  0
  -27.4979  -23.6880   19.0723 C   0  0  0  0  0  0  0  0  0  0  0  0
  -21.5994   -6.3145   22.4181 C   0  0  0  0  0  0  0  0  0  0  0  0
  -21.7072   -4.6651   24.6654 C   0  0  0  0  0  0  0  0  0  0  0  0
  -22.7825   -5.6487   22.7384 C   0  0  0  0  0  0  0  0  0  0  0  0
  -25.0418  -11.4930   21.1069 C   0  0  0  0  0  0  0  0  0  0  0  0
  -26.8096  -12.7961   21.2150 C   0  0  0  0  0  0  0  0  0  0  0  0
  -24.2961  -20.1679   21.5853 C   0  0  0  0  0  0  0  0  0  0  0  0
  -23.5484  -19.2577   20.9577 C   0  0  0  0  0  0  0  0  0  0  0  0
  -27.2539  -10.4246   21.8685 C   0  0  0  0  0  0  0  0  0  0  0  0
  -23.6947  -17.8483   21.3736 C   0  0  0  0  0  0  0  0  0  0  0  0
  -24.8119  -28.3409   19.8467 C   0  0  0  0  0  0  0  0  0  0  0  0
  -24.6393  -27.5967   22.9992 C   0  0  0  0  0  0  0  0  0  0  0  0
  -25.4116  -25.4153   25.5076 C   0  0  0  0  0  0  0  0  0  0  0  0
  -23.5726  -33.2783   20.2263 C   0  0  0  0  0  0  0  0  0  0  0  0
  -23.9224  -25.9835   19.7593 C   0  0  0  0  0  0  0  0  0  0  0  0
  -26.2247  -26.2205   21.6000 C   0  0  0  0  0  0  0  0  0  0  0  0
  -24.4207  -21.6674   21.4410 C   0  0  0  0  0  0  0  0  0  0  0  0
  -24.5031  -32.3257   20.9726 C   0  0  0  0  0  0  0  0  0  0  0  0
  -25.0940  -21.6033   22.8263 C   0  0  0  0  0  0  0  0  0  0  0  0
  -25.7886  -16.6598   18.6104 C   0  0  0  0  0  0  0  0  0  0  0  0
  -25.3669  -31.5431   19.9887 C   0  0  0  0  0  0  0  0  0  0  0  0
  -25.9152  -15.1781   18.9542 C   0  0  0  0  0  0  0  0  0  0  0  0
  -24.4259  -17.2248   19.0087 C   0  0  0  0  0  0  0  0  0  0  0  0
  -24.2070  -15.5108   20.7849 C   0  0  0  0  0  0  0  0  0  0  0  0
  -25.3226  -20.0734   22.7057 C   0  0  2  0  0  0  0  0  0  0  0  0
  -24.5027  -30.6812   19.0603 C   0  0  1  0  0  0  0  0  0  0  0  0
  -24.1461  -27.2305   20.6092 C   0  0  1  0  0  0  0  0  0  0  0  0
  -25.5874  -14.9331   20.4356 C   0  0  1  0  0  0  0  0  0  0  0  0
  -26.6814  -17.8208   24.0952 C   0  0  0  0  0  0  0  0  0  0  0  0
  -32.2546  -22.5399   18.8680 C   0  0  0  0  0  0  0  0  0  0  0  0
  -25.4198  -24.4286   27.8149 C   0  0  0  0  0  0  0  0  0  0  0  0
  -26.8448  -29.6504   23.4765 C   0  0  0  0  0  0  0  0  0  0  0  0
  -27.2137  -28.6272   25.7315 C   0  0  0  0  0  0  0  0  0  0  0  0
  -25.0151  -29.6694   25.1812 C   0  0  0  0  0  0  0  0  0  0  0  0
  -22.9659  -23.8386   24.9677 C   0  0  0  0  0  0  0  0  0  0  0  0
  -29.1976  -20.1166   19.4095 C   0  0  0  0  0  0  0  0  0  0  0  0
  -31.2243  -21.4464   18.6212 C   0  0  0  0  0  0  0  0  0  0  0  0
  -29.3880  -22.5856   20.0040 C   0  0  0  0  0  0  0  0  0  1  0  0
  -25.6394  -27.4603   24.1218 C   0  0  1  0  0  0  0  0  0  0  0  0
  -24.5665  -24.8163   26.6173 C   0  0  2  0  0  0  0  0  0  0  0  0
  -30.1572  -21.2834   19.7286 C   0  0  1  0  0  0  0  0  0  0  0  0
  -26.1801  -28.8360   24.6042 C   0  0  0  0  0  0  0  0  0  0  0  0
  -24.5967  -12.6930   20.7251 N   0  0  0  0  0  0  0  0  0  0  0  0
  -25.6948  -13.4641   20.8014 N   0  0  0  0  0  0  0  0  0  0  0  0
  -24.1096  -16.9269   20.4137 N   0  0  0  0  0  0  0  0  0  0  0  0
  -24.9713  -26.9690   21.7902 N   0  0  0  0  0  0  0  0  0  0  0  0
  -27.9995  -13.4201   21.3463 N   0  0  0  0  0  0  0  0  0  0  0  0
  -26.6853   -9.1539   22.0312 N   0  0  0  0  0  0  0  0  0  0  0  0
  -24.0522  -29.4911   19.7497 N   0  0  0  0  0  0  0  0  0  0  0  0
  -24.9806  -26.6789   25.1628 N   0  0  0  0  0  0  0  0  0  0  0  0
  -23.8595  -23.5982   26.1299 N   0  3  0  0  0  0  0  0  0  0  0  0
  -28.4694  -10.5912   22.1296 O   0  0  0  0  0  0  0  0  0  0  0  0
  -23.4356  -17.5716   22.5462 O   0  0  0  0  0  0  0  0  0  0  0  0
  -25.9325  -28.1675   19.3820 O   0  0  0  0  0  0  0  0  0  0  0  0
  -23.5985  -28.2305   23.1903 O   0  0  0  0  0  0  0  0  0  0  0  0
  -26.3616  -24.8232   25.0002 O   0  0  0  0  0  0  0  0  0  0  0  0
  -21.5446   -7.1343   21.3034 O   0  0  0  0  0  0  0  0  0  0  0  0
  -28.6256  -22.9575   18.8565 O   0  0  0  0  0  0  0  0  0  1  0  0
  -21.7592   -3.8743   25.7453 F   0  0  0  0  0  0  0  0  0  0  0  0
  -23.8709   -5.7983   21.9711 F   0  0  0  0  0  0  0  0  0  0  0  0
  1  2  1  0  0  0  0
  1  5  2  0  0  0  0
  2  6  2  0  0  0  0
  3 10  2  0  0  0  0
  3 18  1  0  0  0  0
  4 11  1  0  0  0  0
  4 18  2  0  0  0  0
  5 20  1  0  0  0  0
  6 22  1  0  0  0  0
  7 12  2  0  0  0  0
  7 21  1  0  0  0  0
  8  9  2  0  0  0  0
  8 25  1  0  0  0  0
  9 26  1  0  0  0  0
 10 27  1  0  0  0  0
 11 27  2  0  0  0  0
 12 28  1  0  0  0  0
 13 14  2  0  0  0  0
 13 29  1  0  0  0  0
 14 30  1  0  0  0  0
 15 23  1  0  0  0  0
 15 25  2  0  0  0  0
 16 24  1  0  0  0  0
 16 28  2  0  0  0  0
 17 30  2  0  0  0  0
 17 31  1  0  0  0  0
 18 32  1  0  0  0  0
 19 32  1  0  0  0  0
 19 33  2  0  0  0  0
 19 36  1  0  0  0  0
 20 22  2  0  0  0  0
 20 41  1  0  0  0  0
 21 24  2  0  0  0  0
 21 42  1  0  0  0  0
 22 53  1  0  0  0  0
 23 26  2  0  0  0  0
 23 52  1  0  0  0  0
 24 43  1  0  0  0  0
 25 63  1  0  0  0  0
 26 56  1  0  0  0  0
 27 84  1  0  0  0  0
 28 85  1  0  0  0  0
 29 31  2  0  0  0  0
 29 84  1  0  0  0  0
 30 86  1  0  0  0  0
 31 87  1  0  0  0  0
 32 70  2  0  0  0  0
 33 71  1  0  0  0  0
 33 74  1  0  0  0  0
 34 35  2  0  0  0  0
 34 44  1  0  0  0  0
 34 52  1  0  0  0  0
 35 37  1  0  0  0  0
 36 75  1  0  0  0  0
 36 79  2  0  0  0  0
 37 72  1  0  0  0  0
 37 80  2  0  0  0  0
 38 54  1  0  0  0  0
 38 76  1  0  0  0  0
 38 81  2  0  0  0  0
 39 66  1  0  0  0  0
 39 73  1  0  0  0  0
 39 82  2  0  0  0  0
 40 67  1  0  0  0  0
 40 77  1  0  0  0  0
 40 83  2  0  0  0  0
 41 45  1  0  0  0  0
 42 54  1  0  0  0  0
 43 73  1  0  0  0  0
 44 46  1  0  0  0  0
 45 48  1  0  0  0  0
 46 52  1  0  0  0  0
 47 49  1  0  0  0  0
 47 50  1  0  0  0  0
 48 53  1  0  0  0  0
 49 55  1  0  0  0  0
 50 72  1  0  0  0  0
 51 55  1  0  0  0  0
 51 72  1  0  0  0  0
 53 76  1  0  0  0  0
 54 73  1  0  0  0  0
 55 71  1  0  0  0  0
 57 64  1  0  0  0  0
 58 67  1  0  0  0  0
 59 69  1  0  0  0  0
 60 69  1  0  0  0  0
 61 69  1  0  0  0  0
 62 78  1  0  0  0  0
 63 68  1  0  0  0  0
 64 68  1  0  0  0  0
 65 68  1  0  0  0  0
 65 85  1  0  0  0  0
 66 69  1  0  0  0  0
 66 77  1  0  0  0  0
 67 78  1  0  0  0  0
 70 71  1  0  0  0  0
M  CHG  1  78   1
M  ISO  4  35 100  37 100  65 101  85 101
M  END
> <Batch ID>
0130

> <Smiles>
CCC(Cc1ccc(C)c(C2=C([100CH2:0][100C:0](=O)N3CCCC(n4nc(-c5ccc(Oc6ccc(F)cc6F)cc5)c(C(N)=O)c4N)C3)CC2)c1)[101CH2:1][101O:1]c1ccc2c(c1)CN(C(=O)C(NC(=O)C(C)NC)C(C)(C)C)C(C(=O)NC1CCCc3ccccc31)C2

> <Shape>
0.203

> <Color>
0.102

> <Negative vol penalty>
0.000

$$$$

  -OEChem-04052302223D

 83 91  0     1  0  0  0  0  0999 V2000
  -33.7499  -34.1512   20.5936 C   0  0  0  0  0  0  0  0  0  0  0  0
  -33.9610  -33.0297   21.3893 C   0  0  0  0  0  0  0  0  0  0  0  0
  -23.0955   -9.8857   19.9305 C   0  0  0  0  0  0  0  0  0  0  0  0
  -23.8596   -9.8870   22.2225 C   0  0  0  0  0  0  0  0  0  0  0  0
  -32.5555  -34.2889   19.8877 C   0  0  0  0  0  0  0  0  0  0  0  0
  -32.9772  -32.0457   21.4803 C   0  0  0  0  0  0  0  0  0  0  0  0
  -33.8482  -26.0123   22.0688 C   0  0  0  0  0  0  0  0  0  0  0  0
  -32.6224  -17.5621   23.4509 C   0  0  0  0  0  0  0  0  0  0  0  0
  -32.0233  -16.6845   22.5474 C   0  0  0  0  0  0  0  0  0  0  0  0
  -22.3634   -8.7240   20.1752 C   0  0  0  0  0  0  0  0  0  0  0  0
  -23.1274   -8.7252   22.4672 C   0  0  0  0  0  0  0  0  0  0  0  0
  -33.8246  -25.1648   23.1756 C   0  0  0  0  0  0  0  0  0  0  0  0
  -19.4257   -7.8904   21.6272 C   0  0  0  0  0  0  0  0  0  0  0  0
  -18.1185   -7.8343   21.1440 C   0  0  0  0  0  0  0  0  0  0  0  0
  -31.5300  -24.6021   22.6882 C   0  0  0  0  0  0  0  0  0  0  0  0
  -30.4464  -18.4084   24.0720 C   0  0  0  0  0  0  0  0  0  0  0  0
  -18.6946   -5.9043   19.8096 C   0  0  0  0  0  0  0  0  0  0  0  0
  -23.8437  -10.4672   20.9542 C   0  0  0  0  0  0  0  0  0  0  0  0
  -24.1607  -12.9962   20.8480 C   0  0  0  0  0  0  0  0  0  0  0  0
  -31.5605  -33.3014   19.9625 C   0  0  0  0  0  0  0  0  0  0  0  0
  -32.7076  -26.1698   21.2685 C   0  0  0  0  0  0  0  0  0  0  0  0
  -31.7678  -32.1709   20.7758 C   0  0  0  0  0  0  0  0  0  0  0  0
  -31.5425  -25.4503   21.5704 C   0  0  0  0  0  0  0  0  0  0  0  0
  -31.8340  -18.4241   24.2133 C   0  0  0  0  0  0  0  0  0  0  0  0
  -29.8472  -17.5308   23.1684 C   0  0  0  0  0  0  0  0  0  0  0  0
  -30.6357  -16.6689   22.4061 C   0  0  0  0  0  0  0  0  0  0  0  0
  -22.3793   -8.1437   21.4435 C   0  0  0  0  0  0  0  0  0  0  0  0
  -32.6646  -24.4617   23.4871 C   0  0  0  0  0  0  0  0  0  0  0  0
  -20.3675   -6.9536   21.2015 C   0  0  0  0  0  0  0  0  0  0  0  0
  -17.7529   -6.8412   20.2353 C   0  0  0  0  0  0  0  0  0  0  0  0
  -20.0019   -5.9605   20.2928 C   0  0  0  0  0  0  0  0  0  0  0  0
  -24.6007  -11.6670   20.7019 C   0  0  0  0  0  0  0  0  0  0  0  0
  -25.2449  -13.7584   20.4871 C   0  0  0  0  0  0  0  0  0  0  0  0
  -22.8861  -13.4972   21.2722 C   0  0  0  0  0  0  0  0  0  0  0  0
  -30.8156  -28.6103   20.5147 C   0  0  0  0  0  0  0  0  0  0  0  0
  -29.4674  -26.4416   18.5143 C   0  0  0  0  0  0  0  0  0  0  0  0
  -28.8721  -23.1647   17.7701 C   0  0  0  0  0  0  0  0  0  0  0  0
  -30.7010  -14.8561   20.6579 C   0  0  0  0  0  0  0  0  0  0  0  0
  -30.2664  -33.5170   19.2186 C   0  0  0  0  0  0  0  0  0  0  0  0
  -32.7575  -27.0674   20.0626 C   0  0  0  0  0  0  0  0  0  0  0  0
  -30.2975  -25.5687   20.7312 C   0  0  0  0  0  0  0  0  0  0  0  0
  -29.4287  -32.2492   19.0737 C   0  0  0  0  0  0  0  0  0  0  0  0
  -29.6057  -12.4451   18.2779 C   0  0  0  0  0  0  0  0  0  0  0  0
  -29.3447  -31.5097   20.4052 C   0  0  0  0  0  0  0  0  0  0  0  0
  -28.1697  -12.1371   18.7083 C   0  0  0  0  0  0  0  0  0  0  0  0
  -30.5207  -12.6760   19.4792 C   0  0  0  0  0  0  0  0  0  0  0  0
  -28.6094  -13.3739   20.8680 C   0  0  0  0  0  0  0  0  0  0  0  0
  -30.7347  -31.0700   20.8807 C   0  0  1  0  0  0  0  0  0  0  0  0
  -31.3793  -27.5459   19.6164 C   0  0  1  0  0  0  0  0  0  0  0  0
  -27.6361  -13.1979   19.6909 C   0  0  2  0  0  0  0  0  0  0  0  0
  -27.8944  -18.2645   21.7774 C   0  0  0  0  0  0  0  0  0  0  0  0
  -27.7086  -21.7056   16.0924 C   0  0  0  0  0  0  0  0  0  0  0  0
  -26.7803  -27.1222   19.7895 C   0  0  0  0  0  0  0  0  0  0  0  0
  -25.8519  -25.0245   18.7867 C   0  0  0  0  0  0  0  0  0  0  0  0
  -26.7140  -26.8373   17.3058 C   0  0  0  0  0  0  0  0  0  0  0  0
  -31.4073  -21.8642   16.9700 C   0  0  0  0  0  0  0  0  0  0  0  0
  -32.4820  -19.3745   25.1883 C   0  0  0  0  0  0  0  0  0  0  0  0
  -28.3587  -17.5377   23.0355 C   0  0  0  0  0  0  0  0  0  0  0  0
  -32.8397  -20.7356   24.5813 C   0  0  0  0  0  0  0  0  0  0  0  0
  -33.5648  -21.6571   25.5632 C   0  0  0  0  0  0  0  0  0  0  0  0
  -33.8680  -23.0121   24.9384 C   0  0  0  0  0  0  0  0  0  1  0  0
  -28.3496  -25.4333   18.6272 C   0  0  1  0  0  0  0  0  0  0  0  0
  -29.0146  -22.3836   16.4762 C   0  0  2  0  0  0  0  0  0  0  0  0
  -26.9467  -26.1034   18.6445 C   0  0  0  0  0  0  0  0  0  0  0  0
  -25.8656  -11.5859   20.2808 N   0  0  0  0  0  0  0  0  0  0  0  0
  -26.2298  -12.8737   20.1591 N   0  0  0  0  0  0  0  0  0  0  0  0
  -30.3942  -26.4637   19.5662 N   0  0  0  0  0  0  0  0  0  0  0  0
  -29.9534  -13.6963   20.3634 N   0  0  0  0  0  0  0  0  0  0  0  0
  -25.4422  -15.0922   20.4213 N   0  0  0  0  0  0  0  0  0  0  0  0
  -21.8837  -12.5763   21.6060 N   0  0  0  0  0  0  0  0  0  0  0  0
  -30.0461  -15.7701   21.4828 N   0  0  0  0  0  0  0  0  0  0  0  0
  -31.1696  -29.8964   20.1541 N   0  0  0  0  0  0  0  0  0  0  0  0
  -28.5448  -24.4837   17.5370 N   0  0  0  0  0  0  0  0  0  0  0  0
  -30.0646  -21.3355   16.6169 N   0  3  0  0  0  0  0  0  0  0  0  0
  -22.6380  -14.7251   21.3370 O   0  0  0  0  0  0  0  0  0  0  0  0
  -30.1104  -28.2886   21.4639 O   0  0  0  0  0  0  0  0  0  0  0  0
  -29.5206  -27.1775   17.5257 O   0  0  0  0  0  0  0  0  0  0  0  0
  -29.0312  -22.6547   18.8770 O   0  0  0  0  0  0  0  0  0  0  0  0
  -31.8275  -15.0385   20.1893 O   0  0  0  0  0  0  0  0  0  0  0  0
  -21.6648   -7.0102   21.6827 O   0  0  0  0  0  0  0  0  0  0  0  0
  -32.6386  -23.6343   24.5672 O   0  0  0  0  0  0  0  0  0  1  0  0
  -16.4970   -6.7864   19.7726 F   0  0  0  0  0  0  0  0  0  0  0  0
  -20.9019   -5.0571   19.8811 F   0  0  0  0  0  0  0  0  0  0  0  0
  1  2  1  0  0  0  0
  1  5  2  0  0  0  0
  2  6  2  0  0  0  0
  3 10  2  0  0  0  0
  3 18  1  0  0  0  0
  4 11  1  0  0  0  0
  4 18  2  0  0  0  0
  5 20  1  0  0  0  0
  6 22  1  0  0  0  0
  7 12  2  0  0  0  0
  7 21  1  0  0  0  0
  8  9  2  0  0  0  0
  8 24  1  0  0  0  0
  9 26  1  0  0  0  0
 10 27  1  0  0  0  0
 11 27  2  0  0  0  0
 12 28  1  0  0  0  0
 13 14  2  0  0  0  0
 13 29  1  0  0  0  0
 14 30  1  0  0  0  0
 15 23  1  0  0  0  0
 15 28  2  0  0  0  0
 16 24  2  0  0  0  0
 16 25  1  0  0  0  0
 17 30  2  0  0  0  0
 17 31  1  0  0  0  0
 18 32  1  0  0  0  0
 19 32  1  0  0  0  0
 19 33  2  0  0  0  0
 19 34  1  0  0  0  0
 20 22  2  0  0  0  0
 20 39  1  0  0  0  0
 21 23  2  0  0  0  0
 21 40  1  0  0  0  0
 22 48  1  0  0  0  0
 23 41  1  0  0  0  0
 24 57  1  0  0  0  0
 25 26  2  0  0  0  0
 25 58  1  0  0  0  0
 26 71  1  0  0  0  0
 27 80  1  0  0  0  0
 28 81  1  0  0  0  0
 29 31  2  0  0  0  0
 29 80  1  0  0  0  0
 30 82  1  0  0  0  0
 31 83  1  0  0  0  0
 32 65  2  0  0  0  0
 33 66  1  0  0  0  0
 33 69  1  0  0  0  0
 34 70  1  0  0  0  0
 34 75  2  0  0  0  0
 35 49  1  0  0  0  0
 35 72  1  0  0  0  0
 35 76  2  0  0  0  0
 36 62  1  0  0  0  0
 36 67  1  0  0  0  0
 36 77  2  0  0  0  0
 37 63  1  0  0  0  0
 37 73  1  0  0  0  0
 37 78  2  0  0  0  0
 38 68  1  0  0  0  0
 38 71  1  0  0  0  0
 38 79  2  0  0  0  0
 39 42  1  0  0  0  0
 40 49  1  0  0  0  0
 41 67  1  0  0  0  0
 42 44  1  0  0  0  0
 43 45  1  0  0  0  0
 43 46  1  0  0  0  0
 44 48  1  0  0  0  0
 45 50  1  0  0  0  0
 46 68  1  0  0  0  0
 47 50  1  0  0  0  0
 47 68  1  0  0  0  0
 48 72  1  0  0  0  0
 49 67  1  0  0  0  0
 50 66  1  0  0  0  0
 51 58  1  0  0  0  0
 52 63  1  0  0  0  0
 53 64  1  0  0  0  0
 54 64  1  0  0  0  0
 55 64  1  0  0  0  0
 56 74  1  0  0  0  0
 57 59  1  0  0  0  0
 59 60  1  0  0  0  0
 60 61  1  0  0  0  0
 61 81  1  0  0  0  0
 62 64  1  0  0  0  0
 62 73  1  0  0  0  0
 63 74  1  0  0  0  0
 65 66  1  0  0  0  0
M  CHG  1  74   1
M  ISO  4  38 100  61 101  71 100  81 101
M  END
> <Batch ID>
0130

> <Smiles>
CCc1cc(CCC[101CH2:1][101O:1]c2ccc3c(c2)CN(C(=O)C(NC(=O)C(C)NC)C(C)(C)C)C(C(=O)NC2CCCc4ccccc42)C3)ccc1[100NH:0][100C:0](=O)N1CCCC(n2nc(-c3ccc(Oc4ccc(F)cc4F)cc3)c(C(N)=O)c2N)C1

> <Shape>
0.224

> <Color>
0.218

> <Negative vol penalty>
0.000

$$$$

  -OEChem-04052302223D

 83 91  0     1  0  0  0  0  0999 V2000
  -28.9073  -36.7687   22.7869 C   0  0  0  0  0  0  0  0  0  0  0  0
  -29.1844  -35.5574   22.1614 C   0  0  0  0  0  0  0  0  0  0  0  0
  -31.6354  -20.9199   24.4579 C   0  0  0  0  0  0  0  0  0  0  0  0
  -24.5718   -9.2510   22.1733 C   0  0  0  0  0  0  0  0  0  0  0  0
  -23.7598   -9.5351   19.9156 C   0  0  0  0  0  0  0  0  0  0  0  0
  -31.1071  -19.6305   24.3939 C   0  0  0  0  0  0  0  0  0  0  0  0
  -28.0038  -36.8134   23.8479 C   0  0  0  0  0  0  0  0  0  0  0  0
  -28.5589  -34.3898   22.5972 C   0  0  0  0  0  0  0  0  0  0  0  0
  -26.8019  -29.6461   19.1453 C   0  0  0  0  0  0  0  0  0  0  0  0
  -31.4091  -21.8189   23.4157 C   0  0  0  0  0  0  0  0  0  0  0  0
  -23.3777   -8.6209   22.5235 C   0  0  0  0  0  0  0  0  0  0  0  0
  -22.5657   -8.9049   20.2658 C   0  0  0  0  0  0  0  0  0  0  0  0
  -27.3908  -28.4108   18.8790 C   0  0  0  0  0  0  0  0  0  0  0  0
  -21.9750   -5.5654   22.1640 C   0  0  0  0  0  0  0  0  0  0  0  0
  -22.0565   -4.3964   22.9205 C   0  0  0  0  0  0  0  0  0  0  0  0
  -30.1263  -20.1392   22.2453 C   0  0  0  0  0  0  0  0  0  0  0  0
  -26.0552  -27.4059   20.6185 C   0  0  0  0  0  0  0  0  0  0  0  0
  -20.7683   -5.4427   24.6763 C   0  0  0  0  0  0  0  0  0  0  0  0
  -24.7629   -9.7082   20.8693 C   0  0  0  0  0  0  0  0  0  0  0  0
  -30.3526  -19.2402   23.2875 C   0  0  0  0  0  0  0  0  0  0  0  0
  -27.1644   -9.7519   20.0102 C   0  0  0  0  0  0  0  0  0  0  0  0
  -27.3596  -35.6474   24.2906 C   0  0  0  0  0  0  0  0  0  0  0  0
  -25.8415  -29.7730   20.1592 C   0  0  0  0  0  0  0  0  0  0  0  0
  -27.6469  -34.4187   23.6659 C   0  0  0  0  0  0  0  0  0  0  0  0
  -25.4537  -28.6434   20.8939 C   0  0  0  0  0  0  0  0  0  0  0  0
  -30.6546  -21.4286   22.3094 C   0  0  0  0  0  0  0  0  0  0  0  0
  -22.3747   -8.4478   21.5698 C   0  0  0  0  0  0  0  0  0  0  0  0
  -27.0196  -27.2910   19.6176 C   0  0  0  0  0  0  0  0  0  0  0  0
  -21.2902   -6.6732   22.6637 C   0  0  0  0  0  0  0  0  0  0  0  0
  -21.4532   -4.3350   24.1767 C   0  0  0  0  0  0  0  0  0  0  0  0
  -20.6868   -6.6118   23.9198 C   0  0  0  0  0  0  0  0  0  0  0  0
  -25.9959  -10.3597   20.5071 C   0  0  0  0  0  0  0  0  0  0  0  0
  -28.0409  -10.7930   19.8251 C   0  0  0  0  0  0  0  0  0  0  0  0
  -29.8022  -17.8953   23.2203 C   0  0  0  0  0  0  0  0  0  0  0  0
  -28.7734  -17.5085   22.4365 C   0  0  0  0  0  0  0  0  0  0  0  0
  -27.4335   -8.3697   19.7400 C   0  0  0  0  0  0  0  0  0  0  0  0
  -28.3349  -16.0989   22.4735 C   0  0  0  0  0  0  0  0  0  0  0  0
  -25.6518  -31.4104   22.8770 C   0  0  0  0  0  0  0  0  0  0  0  0
  -28.9144  -24.2666   20.2663 C   0  0  0  0  0  0  0  0  0  0  0  0
  -22.6275  -30.2382   22.9181 C   0  0  0  0  0  0  0  0  0  0  0  0
  -20.4422  -27.8232   21.8989 C   0  0  0  0  0  0  0  0  0  0  0  0
  -26.4263  -35.7376   25.4719 C   0  0  0  0  0  0  0  0  0  0  0  0
  -25.1962  -31.1072   20.4161 C   0  0  0  0  0  0  0  0  0  0  0  0
  -24.4126  -28.7225   21.9794 C   0  0  0  0  0  0  0  0  0  0  0  0
  -25.5231  -34.5170   25.6291 C   0  0  0  0  0  0  0  0  0  0  0  0
  -28.1733  -15.4643   18.8675 C   0  0  0  0  0  0  0  0  0  0  0  0
  -26.3322  -33.2320   25.4849 C   0  0  0  0  0  0  0  0  0  0  0  0
  -27.6533  -14.0294   18.8449 C   0  0  0  0  0  0  0  0  0  0  0  0
  -27.5966  -16.2630   20.0354 C   0  0  0  0  0  0  0  0  0  0  0  0
  -27.2857  -14.1790   21.3394 C   0  0  0  0  0  0  0  0  0  0  0  0
  -26.9698  -33.1347   24.0937 C   0  0  1  0  0  0  0  0  0  0  0  0
  -24.6034  -31.2244   21.8169 C   0  0  1  0  0  0  0  0  0  0  0  0
  -27.8894  -13.3434   20.1998 C   0  0  1  0  0  0  0  0  0  0  0  0
  -18.0463  -27.1119   22.1253 C   0  0  0  0  0  0  0  0  0  0  0  0
  -23.2079  -29.1838   25.7219 C   0  0  0  0  0  0  0  0  0  0  0  0
  -21.1944  -27.7111   25.5094 C   0  0  0  0  0  0  0  0  0  0  0  0
  -20.9369  -30.1912   25.4356 C   0  0  0  0  0  0  0  0  0  0  0  0
  -19.9655  -28.0956   18.9908 C   0  0  0  0  0  0  0  0  0  0  0  0
  -30.4088  -22.4025   21.1820 C   0  0  0  0  0  0  0  0  0  0  0  0
  -29.1429  -23.2414   21.3675 C   0  0  0  0  0  0  0  0  0  0  0  0
  -27.7168  -25.1770   20.4548 C   0  0  0  0  0  0  0  0  0  1  0  0
  -21.9707  -28.9933   23.4638 C   0  0  1  0  0  0  0  0  0  0  0  0
  -19.0474  -27.9119   21.3064 C   0  0  2  0  0  0  0  0  0  0  0  0
  -21.8485  -29.0184   25.0136 C   0  0  0  0  0  0  0  0  0  0  0  0
  -26.1160  -11.6842   20.6301 N   0  0  0  0  0  0  0  0  0  0  0  0
  -27.3704  -11.9173   20.2078 N   0  0  0  0  0  0  0  0  0  0  0  0
  -27.7830  -15.5591   21.3131 N   0  0  0  0  0  0  0  0  0  0  0  0
  -23.8152  -30.0503   22.1972 N   0  0  0  0  0  0  0  0  0  0  0  0
  -29.3121  -10.8473   19.3739 N   0  0  0  0  0  0  0  0  0  0  0  0
  -26.4219   -7.4315   19.9865 N   0  0  0  0  0  0  0  0  0  0  0  0
  -25.9849  -32.7305   23.1134 N   0  0  0  0  0  0  0  0  0  0  0  0
  -20.6960  -28.8649   22.7659 N   0  0  0  0  0  0  0  0  0  0  0  0
  -19.0423  -27.3848   19.9124 N   0  3  0  0  0  0  0  0  0  0  0  0
  -28.5438   -7.9764   19.3086 O   0  0  0  0  0  0  0  0  0  0  0  0
  -28.4798  -15.4859   23.5327 O   0  0  0  0  0  0  0  0  0  0  0  0
  -26.1226  -30.4290   23.4400 O   0  0  0  0  0  0  0  0  0  0  0  0
  -29.6672  -24.3808   19.3004 O   0  0  0  0  0  0  0  0  0  0  0  0
  -22.1021  -31.3363   23.1179 O   0  0  0  0  0  0  0  0  0  0  0  0
  -21.2267  -26.9181   21.6233 O   0  0  0  0  0  0  0  0  0  0  0  0
  -21.2094   -7.8328   21.9111 O   0  0  0  0  0  0  0  0  0  0  0  0
  -27.5933  -26.0842   19.3602 O   0  0  0  0  0  0  0  0  0  1  0  0
  -21.5302   -3.2118   24.9024 F   0  0  0  0  0  0  0  0  0  0  0  0
  -20.0265   -7.6724   24.4046 F   0  0  0  0  0  0  0  0  0  0  0  0
  1  2  1  0  0  0  0
  1  7  2  0  0  0  0
  2  8  2  0  0  0  0
  3  6  1  0  0  0  0
  3 10  2  0  0  0  0
  4 11  2  0  0  0  0
  4 19  1  0  0  0  0
  5 12  1  0  0  0  0
  5 19  2  0  0  0  0
  6 20  2  0  0  0  0
  7 22  1  0  0  0  0
  8 24  1  0  0  0  0
  9 13  2  0  0  0  0
  9 23  1  0  0  0  0
 10 26  1  0  0  0  0
 11 27  1  0  0  0  0
 12 27  2  0  0  0  0
 13 28  1  0  0  0  0
 14 15  2  0  0  0  0
 14 29  1  0  0  0  0
 15 30  1  0  0  0  0
 16 20  1  0  0  0  0
 16 26  2  0  0  0  0
 17 25  1  0  0  0  0
 17 28  2  0  0  0  0
 18 30  2  0  0  0  0
 18 31  1  0  0  0  0
 19 32  1  0  0  0  0
 20 34  1  0  0  0  0
 21 32  1  0  0  0  0
 21 33  2  0  0  0  0
 21 36  1  0  0  0  0
 22 24  2  0  0  0  0
 22 42  1  0  0  0  0
 23 25  2  0  0  0  0
 23 43  1  0  0  0  0
 24 51  1  0  0  0  0
 25 44  1  0  0  0  0
 26 59  1  0  0  0  0
 27 80  1  0  0  0  0
 28 81  1  0  0  0  0
 29 31  2  0  0  0  0
 29 80  1  0  0  0  0
 30 82  1  0  0  0  0
 31 83  1  0  0  0  0
 32 65  2  0  0  0  0
 33 66  1  0  0  0  0
 33 69  1  0  0  0  0
 34 35  2  0  0  0  0
 35 37  1  0  0  0  0
 36 70  1  0  0  0  0
 36 74  2  0  0  0  0
 37 67  1  0  0  0  0
 37 75  2  0  0  0  0
 38 52  1  0  0  0  0
 38 71  1  0  0  0  0
 38 76  2  0  0  0  0
 39 60  1  0  0  0  0
 39 61  1  0  0  0  0
 39 77  2  0  0  0  0
 40 62  1  0  0  0  0
 40 68  1  0  0  0  0
 40 78  2  0  0  0  0
 41 63  1  0  0  0  0
 41 72  1  0  0  0  0
 41 79  2  0  0  0  0
 42 45  1  0  0  0  0
 43 52  1  0  0  0  0
 44 68  1  0  0  0  0
 45 47  1  0  0  0  0
 46 48  1  0  0  0  0
 46 49  1  0  0  0  0
 47 51  1  0  0  0  0
 48 53  1  0  0  0  0
 49 67  1  0  0  0  0
 50 53  1  0  0  0  0
 50 67  1  0  0  0  0
 51 71  1  0  0  0  0
 52 68  1  0  0  0  0
 53 66  1  0  0  0  0
 54 63  1  0  0  0  0
 55 64  1  0  0  0  0
 56 64  1  0  0  0  0
 57 64  1  0  0  0  0
 58 73  1  0  0  0  0
 59 60  1  0  0  0  0
 61 81  1  0  0  0  0
 62 64  1  0  0  0  0
 62 72  1  0  0  0  0
 63 73  1  0  0  0  0
 65 66  1  0  0  0  0
M  CHG  1  73   1
M  ISO  4  35 100  37 100  61 101  81 101
M  END
> <Batch ID>
0130

> <Smiles>
CNC(C)C(=O)NC(C(=O)N1Cc2cc([101O:1][101CH2:1]C(=O)CCc3cccc(C=[100CH:0][100C:0](=O)N4CCCC(n5nc(-c6ccc(Oc7ccc(F)cc7F)cc6)c(C(N)=O)c5N)C4)c3)ccc2CC1C(=O)NC1CCCc2ccccc21)C(C)(C)C

> <Shape>
0.307

> <Color>
0.113

> <Negative vol penalty>
0.000

$$$$

  -OEChem-04052302223D

 85 94  0     1  0  0  0  0  0999 V2000
  -23.0987   -7.8942   21.4773 C   0  0  0  0  0  0  0  0  0  0  0  0
  -24.1585   -8.7928   21.5468 C   0  0  0  0  0  0  0  0  0  0  0  0
  -31.4379  -17.0402   17.7495 C   0  0  0  0  0  0  0  0  0  0  0  0
  -21.9215  -26.8351   21.6597 C   0  0  0  0  0  0  0  0  0  0  0  0
  -23.0440  -26.5928   23.7854 C   0  0  0  0  0  0  0  0  0  0  0  0
  -21.8315   -8.3400   21.1040 C   0  0  0  0  0  0  0  0  0  0  0  0
  -23.9518  -10.1377   21.2419 C   0  0  0  0  0  0  0  0  0  0  0  0
  -26.1505  -13.2465   24.5805 C   0  0  0  0  0  0  0  0  0  0  0  0
  -20.7175  -27.0728   22.3226 C   0  0  0  0  0  0  0  0  0  0  0  0
  -21.8399  -26.8305   24.4483 C   0  0  0  0  0  0  0  0  0  0  0  0
  -27.5263  -13.4383   24.4616 C   0  0  0  0  0  0  0  0  0  0  0  0
  -19.2185  -29.6503   23.9171 C   0  0  0  0  0  0  0  0  0  0  0  0
  -18.4269  -30.7058   23.4646 C   0  0  0  0  0  0  0  0  0  0  0  0
  -31.6898  -16.2409   18.8590 C   0  0  0  0  0  0  0  0  0  0  0  0
  -30.4941  -18.0579   17.8326 C   0  0  0  0  0  0  0  0  0  0  0  0
  -27.1304  -15.5324   23.3313 C   0  0  0  0  0  0  0  0  0  0  0  0
  -16.6281  -29.1596   23.0053 C   0  0  0  0  0  0  0  0  0  0  0  0
  -23.0848  -26.5950   22.3912 C   0  0  0  0  0  0  0  0  0  0  0  0
  -24.9945  -27.2122   20.8164 C   0  0  0  0  0  0  0  0  0  0  0  0
  -21.6071   -9.6929   20.8038 C   0  0  0  0  0  0  0  0  0  0  0  0
  -25.2527  -14.1924   24.0652 C   0  0  0  0  0  0  0  0  0  0  0  0
  -22.6807  -10.6018   20.8630 C   0  0  0  0  0  0  0  0  0  0  0  0
  -25.7437  -15.3514   23.4473 C   0  0  0  0  0  0  0  0  0  0  0  0
  -20.6767  -27.0705   23.7169 C   0  0  0  0  0  0  0  0  0  0  0  0
  -28.0164  -14.5800   23.8344 C   0  0  0  0  0  0  0  0  0  0  0  0
  -18.7150  -28.3494   23.9137 C   0  0  0  0  0  0  0  0  0  0  0  0
  -17.1316  -30.4604   23.0088 C   0  0  0  0  0  0  0  0  0  0  0  0
  -17.4198  -28.1041   23.4578 C   0  0  0  0  0  0  0  0  0  0  0  0
  -24.3287  -26.3488   21.7070 C   0  0  0  0  0  0  0  0  0  0  0  0
  -30.9769  -16.4981   20.0189 C   0  0  0  0  0  0  0  0  0  0  0  0
  -29.8345  -18.2336   19.0384 C   0  0  0  0  0  0  0  0  0  0  0  0
  -26.1209  -26.5198   20.4445 C   0  0  0  0  0  0  0  0  0  0  0  0
  -31.2066  -15.6829   21.2170 C   0  0  0  0  0  0  0  0  0  0  0  0
  -31.0496  -14.3551   21.3727 C   0  0  0  0  0  0  0  0  0  0  0  0
  -28.8398  -19.2855   19.1754 C   0  0  0  0  0  0  0  0  0  0  0  0
  -28.1485  -19.5684   20.3002 C   0  0  0  0  0  0  0  0  0  0  0  0
  -24.6276  -28.5229   20.3658 C   0  0  0  0  0  0  0  0  0  0  0  0
  -27.1754  -20.6790   20.2835 C   0  0  0  0  0  0  0  0  0  0  0  0
  -22.9880  -14.1534   21.8351 C   0  0  0  0  0  0  0  0  0  0  0  0
  -22.4129  -17.1558   22.9199 C   0  0  0  0  0  0  0  0  0  0  0  0
  -23.5919  -19.9396   24.5034 C   0  0  0  0  0  0  0  0  0  0  0  0
  -20.2304  -10.1191   20.3593 C   0  0  0  0  0  0  0  0  0  0  0  0
  -23.7718  -13.9836   24.2253 C   0  0  0  0  0  0  0  0  0  0  0  0
  -24.8221  -16.4070   22.8952 C   0  0  0  0  0  0  0  0  0  0  0  0
  -31.6465  -16.3324   22.4977 C   0  0  0  0  0  0  0  0  0  0  0  0
  -20.0125  -11.6290   20.4153 C   0  0  0  0  0  0  0  0  0  0  0  0
  -32.1604  -15.1462   23.3090 C   0  0  0  0  0  0  0  0  0  0  0  0
  -29.1833  -23.2137   22.0085 C   0  0  0  0  0  0  0  0  0  0  0  0
  -21.1967  -12.3627   19.7938 C   0  0  0  0  0  0  0  0  0  0  0  0
  -28.1928  -24.3727   22.0822 C   0  0  0  0  0  0  0  0  0  0  0  0
  -28.4875  -21.8586   22.1282 C   0  0  0  0  0  0  0  0  0  0  0  0
  -26.3964  -22.8238   21.2140 C   0  0  0  0  0  0  0  0  0  0  0  0
  -22.4909  -12.0731   20.5638 C   0  0  1  0  0  0  0  0  0  0  0  0
  -31.4044  -13.9228   22.7763 C   0  0  1  0  0  0  0  0  0  0  0  0
  -22.9450  -14.7634   23.2076 C   0  0  1  0  0  0  0  0  0  0  0  0
  -27.0694  -24.1953   21.0485 C   0  0  1  0  0  0  0  0  0  0  0  0
  -30.5737  -13.3359   20.3922 C   0  0  0  0  0  0  0  0  0  0  0  0
  -22.9003  -22.2467   25.2080 C   0  0  0  0  0  0  0  0  0  0  0  0
  -22.6825  -18.1148   20.0359 C   0  0  0  0  0  0  0  0  0  0  0  0
  -22.9341  -20.4479   20.9086 C   0  0  0  0  0  0  0  0  0  0  0  0
  -20.8231  -19.1846   21.3215 C   0  0  0  0  0  0  0  0  0  0  0  0
  -24.0389  -19.3257   27.3639 C   0  0  0  0  0  0  0  0  0  0  0  0
  -30.1735  -13.6018   23.6199 C   0  0  0  0  0  0  0  0  0  1  0  0
  -22.9218  -18.5340   22.5722 C   0  0  1  0  0  0  0  0  0  0  0  0
  -23.0082  -20.7867   25.6198 C   0  0  2  0  0  0  0  0  0  0  0  0
  -22.3580  -19.0497   21.2181 C   0  0  0  0  0  0  0  0  0  0  0  0
  -24.9779  -25.1959   21.8897 N   0  0  0  0  0  0  0  0  0  0  0  0
  -30.0524  -17.4774   20.1376 N   0  0  0  0  0  0  0  0  0  0  0  0
  -26.0634  -25.3300   21.1087 N   0  0  0  0  0  0  0  0  0  0  0  0
  -27.3796  -21.7358   21.1689 N   0  0  0  0  0  0  0  0  0  0  0  0
  -23.3823  -16.1542   23.0706 N   0  0  0  0  0  0  0  0  0  0  0  0
  -27.1449  -26.8188   19.6172 N   0  0  0  0  0  0  0  0  0  0  0  0
  -25.0737  -29.6308   21.0991 N   0  0  0  0  0  0  0  0  0  0  0  0
  -22.5366  -12.8483   21.7851 N   0  0  0  0  0  0  0  0  0  0  0  0
  -22.6064  -19.3856   23.7140 N   0  0  0  0  0  0  0  0  0  0  0  0
  -23.8657  -20.7034   26.8357 N   0  3  0  0  0  0  0  0  0  0  0  0
  -23.9111  -28.7056   19.3524 O   0  0  0  0  0  0  0  0  0  0  0  0
  -26.2369  -20.6008   19.4886 O   0  0  0  0  0  0  0  0  0  0  0  0
  -23.3989  -14.8180   20.8911 O   0  0  0  0  0  0  0  0  0  0  0  0
  -21.2006  -16.9764   23.0599 O   0  0  0  0  0  0  0  0  0  0  0  0
  -24.8012  -19.7878   24.3451 O   0  0  0  0  0  0  0  0  0  0  0  0
  -19.5020  -27.3027   24.3640 O   0  0  0  0  0  0  0  0  0  0  0  0
  -29.3588  -14.7694   23.7164 O   0  0  0  0  0  0  0  0  0  1  0  0
  -16.3709  -31.4743   22.5757 F   0  0  0  0  0  0  0  0  0  0  0  0
  -16.9302  -26.8567   23.4533 F   0  0  0  0  0  0  0  0  0  0  0  0
  1  2  1  0  0  0  0
  1  6  2  0  0  0  0
  2  7  2  0  0  0  0
  3 14  2  0  0  0  0
  3 15  1  0  0  0  0
  4  9  2  0  0  0  0
  4 18  1  0  0  0  0
  5 10  1  0  0  0  0
  5 18  2  0  0  0  0
  6 20  1  0  0  0  0
  7 22  1  0  0  0  0
  8 11  2  0  0  0  0
  8 21  1  0  0  0  0
  9 24  1  0  0  0  0
 10 24  2  0  0  0  0
 11 25  1  0  0  0  0
 12 13  2  0  0  0  0
 12 26  1  0  0  0  0
 13 27  1  0  0  0  0
 14 30  1  0  0  0  0
 15 31  2  0  0  0  0
 16 23  1  0  0  0  0
 16 25  2  0  0  0  0
 17 27  2  0  0  0  0
 17 28  1  0  0  0  0
 18 29  1  0  0  0  0
 19 29  1  0  0  0  0
 19 32  2  0  0  0  0
 19 37  1  0  0  0  0
 20 22  2  0  0  0  0
 20 42  1  0  0  0  0
 21 23  2  0  0  0  0
 21 43  1  0  0  0  0
 22 53  1  0  0  0  0
 23 44  1  0  0  0  0
 24 82  1  0  0  0  0
 25 83  1  0  0  0  0
 26 28  2  0  0  0  0
 26 82  1  0  0  0  0
 27 84  1  0  0  0  0
 28 85  1  0  0  0  0
 29 67  2  0  0  0  0
 30 33  1  0  0  0  0
 30 68  2  0  0  0  0
 31 35  1  0  0  0  0
 31 68  1  0  0  0  0
 32 69  1  0  0  0  0
 32 72  1  0  0  0  0
 33 34  2  0  0  0  0
 33 45  1  0  0  0  0
 34 54  1  0  0  0  0
 34 57  1  0  0  0  0
 35 36  2  0  0  0  0
 36 38  1  0  0  0  0
 37 73  1  0  0  0  0
 37 77  2  0  0  0  0
 38 70  1  0  0  0  0
 38 78  2  0  0  0  0
 39 55  1  0  0  0  0
 39 74  1  0  0  0  0
 39 79  2  0  0  0  0
 40 64  1  0  0  0  0
 40 71  1  0  0  0  0
 40 80  2  0  0  0  0
 41 65  1  0  0  0  0
 41 75  1  0  0  0  0
 41 81  2  0  0  0  0
 42 46  1  0  0  0  0
 43 55  1  0  0  0  0
 44 71  1  0  0  0  0
 45 47  1  0  0  0  0
 46 49  1  0  0  0  0
 47 54  1  0  0  0  0
 48 50  1  0  0  0  0
 48 51  1  0  0  0  0
 49 53  1  0  0  0  0
 50 56  1  0  0  0  0
 51 70  1  0  0  0  0
 52 56  1  0  0  0  0
 52 70  1  0  0  0  0
 53 74  1  0  0  0  0
 54 63  1  0  0  0  0
 55 71  1  0  0  0  0
 56 69  1  0  0  0  0
 58 65  1  0  0  0  0
 59 66  1  0  0  0  0
 60 66  1  0  0  0  0
 61 66  1  0  0  0  0
 62 76  1  0  0  0  0
 63 83  1  0  0  0  0
 64 66  1  0  0  0  0
 64 75  1  0  0  0  0
 65 76  1  0  0  0  0
 67 69  1  0  0  0  0
M  CHG  1  76   1
M  ISO  4  36 100  38 100  63 101  83 101
M  END
> <Batch ID>
0130

> <Smiles>
CNC(C)C(=O)NC(C(=O)N1Cc2cc([101O:1][101CH2:1]C3=C(C)C(c4cccc(C=[100CH:0][100C:0](=O)N5CCCC(n6nc(-c7ccc(Oc8ccc(F)cc8F)cc7)c(C(N)=O)c6N)C5)n4)CC3)ccc2CC1C(=O)NC1CCCc2ccccc21)C(C)(C)C

> <Shape>
0.210

> <Color>
0.079

> <Negative vol penalty>
0.000

$$$$

  -OEChem-04052302223D

 86 94  0     1  0  0  0  0  0999 V2000
  -17.7973  -29.9936   19.6517 C   0  0  0  0  0  0  0  0  0  0  0  0
  -19.1570  -29.9547   19.3599 C   0  0  0  0  0  0  0  0  0  0  0  0
  -24.9159   -9.8693   22.0852 C   0  0  0  0  0  0  0  0  0  0  0  0
  -24.6497  -11.1586   24.1110 C   0  0  0  0  0  0  0  0  0  0  0  0
  -30.3003  -23.7997   19.6198 C   0  0  0  0  0  0  0  0  0  0  0  0
  -17.3300  -29.4806   20.8610 C   0  0  0  0  0  0  0  0  0  0  0  0
  -20.0504  -29.4037   20.2779 C   0  0  0  0  0  0  0  0  0  0  0  0
  -25.1456  -26.2484   19.0174 C   0  0  0  0  0  0  0  0  0  0  0  0
  -24.5951   -8.7054   22.7838 C   0  0  0  0  0  0  0  0  0  0  0  0
  -24.3288   -9.9947   24.8096 C   0  0  0  0  0  0  0  0  0  0  0  0
  -30.1549  -22.5578   20.2380 C   0  0  0  0  0  0  0  0  0  0  0  0
  -26.4897  -26.6159   18.9734 C   0  0  0  0  0  0  0  0  0  0  0  0
  -23.4938   -5.4451   23.9554 C   0  0  0  0  0  0  0  0  0  0  0  0
  -22.5977   -4.5574   23.3598 C   0  0  0  0  0  0  0  0  0  0  0  0
  -26.7746  -25.8216   21.2333 C   0  0  0  0  0  0  0  0  0  0  0  0
  -29.2826  -21.6365   18.1820 C   0  0  0  0  0  0  0  0  0  0  0  0
  -20.9083   -6.2843   23.3279 C   0  0  0  0  0  0  0  0  0  0  0  0
  -24.9433  -11.0959   22.7488 C   0  0  0  0  0  0  0  0  0  0  0  0
  -29.9367  -23.9600   18.2827 C   0  0  0  0  0  0  0  0  0  0  0  0
  -24.3862  -13.1627   21.3612 C   0  0  0  0  0  0  0  0  0  0  0  0
  -18.2170  -28.9143   21.7900 C   0  0  0  0  0  0  0  0  0  0  0  0
  -24.6024  -25.6737   20.1754 C   0  0  0  0  0  0  0  0  0  0  0  0
  -19.5947  -28.8838   21.5013 C   0  0  0  0  0  0  0  0  0  0  0  0
  -25.4239  -25.4453   21.2885 C   0  0  0  0  0  0  0  0  0  0  0  0
  -29.4279  -22.8784   17.5638 C   0  0  0  0  0  0  0  0  0  0  0  0
  -24.3015   -8.7681   24.1460 C   0  0  0  0  0  0  0  0  0  0  0  0
  -27.3038  -26.4052   20.0824 C   0  0  0  0  0  0  0  0  0  0  0  0
  -29.6461  -21.4762   19.5191 C   0  0  0  0  0  0  0  0  0  0  0  0
  -23.0971   -6.7523   24.2373 C   0  0  0  0  0  0  0  0  0  0  0  0
  -21.3050   -4.9770   23.0461 C   0  0  0  0  0  0  0  0  0  0  0  0
  -21.8043   -7.1719   23.9236 C   0  0  0  0  0  0  0  0  0  0  0  0
  -25.2752  -12.2985   22.0279 C   0  0  0  0  0  0  0  0  0  0  0  0
  -25.1899  -14.1475   20.8410 C   0  0  0  0  0  0  0  0  0  0  0  0
  -30.1023  -25.3003   17.6473 C   0  0  0  0  0  0  0  0  0  0  0  0
  -22.9612  -13.0825   21.2244 C   0  0  0  0  0  0  0  0  0  0  0  0
  -22.3186  -26.4952   22.2280 C   0  0  0  0  0  0  0  0  0  0  0  0
  -29.2649  -17.7814   21.5250 C   0  0  0  0  0  0  0  0  0  0  0  0
  -22.9075  -23.5527   23.4597 C   0  0  0  0  0  0  0  0  0  0  0  0
  -25.0930  -20.9614   23.8543 C   0  0  0  0  0  0  0  0  0  0  0  0
  -17.6706  -28.4152   23.1043 C   0  0  0  0  0  0  0  0  0  0  0  0
  -23.1569  -25.2582   20.1975 C   0  0  0  0  0  0  0  0  0  0  0  0
  -24.8942  -24.8131   22.5487 C   0  0  0  0  0  0  0  0  0  0  0  0
  -18.6381  -27.5090   23.8613 C   0  0  0  0  0  0  0  0  0  0  0  0
  -30.2160  -14.4416   20.4440 C   0  0  0  0  0  0  0  0  0  0  0  0
  -20.0360  -28.1191   23.8817 C   0  0  0  0  0  0  0  0  0  0  0  0
  -28.9415  -13.6511   20.7366 C   0  0  0  0  0  0  0  0  0  0  0  0
  -30.4508  -15.5333   21.4847 C   0  0  0  0  0  0  0  0  0  0  0  0
  -28.0225  -15.6820   21.9381 C   0  0  0  0  0  0  0  0  0  0  0  0
  -20.5921  -28.2717   22.4608 C   0  0  1  0  0  0  0  0  0  0  0  0
  -22.5870  -25.1528   21.6086 C   0  0  1  0  0  0  0  0  0  0  0  0
  -27.7331  -14.5907   20.8940 C   0  0  2  0  0  0  0  0  0  0  0  0
  -29.0320  -23.0225   16.1305 C   0  0  0  0  0  0  0  0  0  0  0  0
  -25.9115  -18.6887   24.5340 C   0  0  0  0  0  0  0  0  0  0  0  0
  -23.2952  -24.9017   26.1689 C   0  0  0  0  0  0  0  0  0  0  0  0
  -24.4074  -22.8082   26.9741 C   0  0  0  0  0  0  0  0  0  0  0  0
  -22.0218  -22.7508   26.2473 C   0  0  0  0  0  0  0  0  0  0  0  0
  -28.2800  -28.6225   18.5897 C   0  0  0  0  0  0  0  0  0  0  0  0
  -30.5658  -27.7160   19.0462 C   0  0  0  0  0  0  0  0  0  0  0  0
  -24.2101  -19.7523   21.3013 C   0  0  0  0  0  0  0  0  0  0  0  0
  -28.9733  -26.3288   17.6836 C   0  0  0  0  0  0  0  0  0  0  0  0
  -30.5920  -18.4416   21.2481 C   0  0  0  0  0  0  0  0  0  0  0  0
  -30.4173  -19.9479   21.1700 C   0  0  0  0  0  0  0  0  0  0  0  0
  -23.8412  -23.0005   24.5096 C   0  0  1  0  0  0  0  0  0  0  0  0
  -24.9216  -19.4634   23.6781 C   0  0  2  0  0  0  0  0  0  0  0  0
  -23.4012  -23.3790   25.9520 C   0  0  0  0  0  0  0  0  0  0  0  0
  -29.0923  -27.3505   18.8320 C   0  0  0  0  0  0  0  0  0  1  0  0
  -26.5464  -12.6990   21.9407 N   0  0  0  0  0  0  0  0  0  0  0  0
  -31.2066  -25.5903   17.0329 N   0  0  0  0  0  0  0  0  0  0  0  0
  -26.4620  -13.8256   21.2130 N   0  0  0  0  0  0  0  0  0  0  0  0
  -23.4729  -24.4300   22.5234 N   0  0  0  0  0  0  0  0  0  0  0  0
  -29.2671  -16.3898   21.6246 N   0  0  0  0  0  0  0  0  0  0  0  0
  -24.9256  -15.2487   20.1062 N   0  0  0  0  0  0  0  0  0  0  0  0
  -22.2923  -12.0052   21.8213 N   0  0  0  0  0  0  0  0  0  0  0  0
  -21.0587  -26.9962   21.9610 N   0  0  0  0  0  0  0  0  0  0  0  0
  -23.9238  -21.5642   24.2676 N   0  0  0  0  0  0  0  0  0  0  0  0
  -25.1330  -19.0819   22.2531 N   0  3  0  0  0  0  0  0  0  0  0  0
  -22.3025  -13.9319   20.5777 O   0  0  0  0  0  0  0  0  0  0  0  0
  -23.1894  -27.0357   22.8996 O   0  0  0  0  0  0  0  0  0  0  0  0
  -28.2572  -18.4828   21.6460 O   0  0  0  0  0  0  0  0  0  0  0  0
  -21.7218  -23.2124   23.4656 O   0  0  0  0  0  0  0  0  0  0  0  0
  -26.1586  -21.5386   23.6495 O   0  0  0  0  0  0  0  0  0  0  0  0
  -23.9881   -7.6326   24.8279 O   0  0  0  0  0  0  0  0  0  0  0  0
  -29.5015  -20.2649   20.1229 O   0  0  0  0  0  0  0  0  0  0  0  0
  -28.6160  -26.7637   20.0424 O   0  0  0  0  0  0  0  0  0  1  0  0
  -20.4451   -4.1249   22.4727 F   0  0  0  0  0  0  0  0  0  0  0  0
  -21.4179   -8.4269   24.1910 F   0  0  0  0  0  0  0  0  0  0  0  0
  1  2  1  0  0  0  0
  1  6  2  0  0  0  0
  2  7  2  0  0  0  0
  3  9  2  0  0  0  0
  3 18  1  0  0  0  0
  4 10  1  0  0  0  0
  4 18  2  0  0  0  0
  5 11  2  0  0  0  0
  5 19  1  0  0  0  0
  6 21  1  0  0  0  0
  7 23  1  0  0  0  0
  8 12  2  0  0  0  0
  8 22  1  0  0  0  0
  9 26  1  0  0  0  0
 10 26  2  0  0  0  0
 11 28  1  0  0  0  0
 12 27  1  0  0  0  0
 13 14  2  0  0  0  0
 13 29  1  0  0  0  0
 14 30  1  0  0  0  0
 15 24  1  0  0  0  0
 15 27  2  0  0  0  0
 16 25  1  0  0  0  0
 16 28  2  0  0  0  0
 17 30  2  0  0  0  0
 17 31  1  0  0  0  0
 18 32  1  0  0  0  0
 19 25  2  0  0  0  0
 19 34  1  0  0  0  0
 20 32  1  0  0  0  0
 20 33  2  0  0  0  0
 20 35  1  0  0  0  0
 21 23  2  0  0  0  0
 21 40  1  0  0  0  0
 22 24  2  0  0  0  0
 22 41  1  0  0  0  0
 23 49  1  0  0  0  0
 24 42  1  0  0  0  0
 25 52  1  0  0  0  0
 26 82  1  0  0  0  0
 27 84  1  0  0  0  0
 28 83  1  0  0  0  0
 29 31  2  0  0  0  0
 29 82  1  0  0  0  0
 30 85  1  0  0  0  0
 31 86  1  0  0  0  0
 32 67  2  0  0  0  0
 33 69  1  0  0  0  0
 33 72  1  0  0  0  0
 34 60  1  0  0  0  0
 34 68  2  0  0  0  0
 35 73  1  0  0  0  0
 35 77  2  0  0  0  0
 36 50  1  0  0  0  0
 36 74  1  0  0  0  0
 36 78  2  0  0  0  0
 37 61  1  0  0  0  0
 37 71  1  0  0  0  0
 37 79  2  0  0  0  0
 38 63  1  0  0  0  0
 38 70  1  0  0  0  0
 38 80  2  0  0  0  0
 39 64  1  0  0  0  0
 39 75  1  0  0  0  0
 39 81  2  0  0  0  0
 40 43  1  0  0  0  0
 41 50  1  0  0  0  0
 42 70  1  0  0  0  0
 43 45  1  0  0  0  0
 44 46  1  0  0  0  0
 44 47  1  0  0  0  0
 45 49  1  0  0  0  0
 46 51  1  0  0  0  0
 47 71  1  0  0  0  0
 48 51  1  0  0  0  0
 48 71  1  0  0  0  0
 49 74  1  0  0  0  0
 50 70  1  0  0  0  0
 51 69  1  0  0  0  0
 53 64  1  0  0  0  0
 54 65  1  0  0  0  0
 55 65  1  0  0  0  0
 56 65  1  0  0  0  0
 57 66  1  0  0  0  0
 58 66  1  0  0  0  0
 59 76  1  0  0  0  0
 60 66  1  0  0  0  0
 61 62  1  0  0  0  0
 62 83  1  0  0  0  0
 63 65  1  0  0  0  0
 63 75  1  0  0  0  0
 64 76  1  0  0  0  0
 66 84  1  0  0  0  0
 67 69  1  0  0  0  0
M  CHG  1  76   1
M  ISO  4  37 100  61 100  66 101  84 101
M  END
> <Batch ID>
0130

> <Smiles>
CNC(C)C(=O)NC(C(=O)N1Cc2cc([101O:1][101C:1](C)(C)CC(=N)c3ccc(OC[100CH2:0][100C:0](=O)N4CCCC(n5nc(-c6ccc(Oc7ccc(F)cc7F)cc6)c(C(N)=O)c5N)C4)cc3C)ccc2CC1C(=O)NC1CCCc2ccccc21)C(C)(C)C

> <Shape>
0.249

> <Color>
0.116

> <Negative vol penalty>
0.000

$$$$

  -OEChem-04052302223D

 87 95  0     1  0  0  0  0  0999 V2000
  -28.9455  -29.2629   27.5275 C   0  0  0  0  0  0  0  0  0  0  0  0
  -28.5354  -28.4251   26.4954 C   0  0  0  0  0  0  0  0  0  0  0  0
  -23.4089   -9.8009   21.7256 C   0  0  0  0  0  0  0  0  0  0  0  0
  -24.0052  -11.0783   23.6877 C   0  0  0  0  0  0  0  0  0  0  0  0
  -28.0984  -30.2724   27.9828 C   0  0  0  0  0  0  0  0  0  0  0  0
  -27.2774  -28.5956   25.9186 C   0  0  0  0  0  0  0  0  0  0  0  0
  -27.4118  -28.3676   20.8614 C   0  0  0  0  0  0  0  0  0  0  0  0
  -22.7825   -8.8522   22.5336 C   0  0  0  0  0  0  0  0  0  0  0  0
  -23.3787  -10.1295   24.4957 C   0  0  0  0  0  0  0  0  0  0  0  0
  -27.4974  -27.1019   20.2832 C   0  0  0  0  0  0  0  0  0  0  0  0
  -23.6987   -6.2564   24.4949 C   0  0  0  0  0  0  0  0  0  0  0  0
  -23.9433   -4.9106   24.2218 C   0  0  0  0  0  0  0  0  0  0  0  0
  -29.0930  -18.7701   20.5584 C   0  0  0  0  0  0  0  0  0  0  0  0
  -25.1249  -27.1464   19.8491 C   0  0  0  0  0  0  0  0  0  0  0  0
  -31.3928  -18.0328   20.4928 C   0  0  0  0  0  0  0  0  0  0  0  0
  -21.5847   -4.5609   23.8323 C   0  0  0  0  0  0  0  0  0  0  0  0
  -24.0204  -10.9140   22.3026 C   0  0  0  0  0  0  0  0  0  0  0  0
  -29.5157  -20.0605   20.8775 C   0  0  0  0  0  0  0  0  0  0  0  0
  -24.0870  -13.0424   20.8978 C   0  0  0  0  0  0  0  0  0  0  0  0
  -26.8332  -30.4615   27.4047 C   0  0  0  0  0  0  0  0  0  0  0  0
  -26.1782  -29.0288   20.9478 C   0  0  0  0  0  0  0  0  0  0  0  0
  -26.4120  -29.6077   26.3674 C   0  0  0  0  0  0  0  0  0  0  0  0
  -25.0268  -28.4216   20.4266 C   0  0  0  0  0  0  0  0  0  0  0  0
  -31.8155  -19.3232   20.8118 C   0  0  0  0  0  0  0  0  0  0  0  0
  -30.8770  -20.3371   21.0042 C   0  0  0  0  0  0  0  0  0  0  0  0
  -30.0315  -17.7562   20.3661 C   0  0  0  0  0  0  0  0  0  0  0  0
  -22.7673   -9.0164   23.9187 C   0  0  0  0  0  0  0  0  0  0  0  0
  -26.3534  -26.4899   19.7795 C   0  0  0  0  0  0  0  0  0  0  0  0
  -22.3970   -6.7544   24.4368 C   0  0  0  0  0  0  0  0  0  0  0  0
  -22.8864   -4.0628   23.8905 C   0  0  0  0  0  0  0  0  0  0  0  0
  -21.3401   -5.9067   24.1055 C   0  0  0  0  0  0  0  0  0  0  0  0
  -24.6682  -11.8942   21.4685 C   0  0  0  0  0  0  0  0  0  0  0  0
  -25.1113  -13.6357   20.2013 C   0  0  0  0  0  0  0  0  0  0  0  0
  -28.4977  -21.1075   21.0747 C   0  0  0  0  0  0  0  0  0  0  0  0
  -27.6303  -21.5123   20.1363 C   0  0  0  0  0  0  0  0  0  0  0  0
  -22.7415  -13.5291   20.9893 C   0  0  0  0  0  0  0  0  0  0  0  0
  -26.6412  -22.5909   20.4341 C   0  0  0  0  0  0  0  0  0  0  0  0
  -24.3556  -30.0738   23.3331 C   0  0  0  0  0  0  0  0  0  0  0  0
  -22.5919  -31.3299   20.9178 C   0  0  0  0  0  0  0  0  0  0  0  0
  -21.6854  -31.2161   17.6296 C   0  0  0  0  0  0  0  0  0  0  0  0
  -30.4028  -15.3256   19.8178 C   0  0  0  0  0  0  0  0  0  0  0  0
  -25.9336  -31.5360   27.9623 C   0  0  0  0  0  0  0  0  0  0  0  0
  -26.1073  -30.4051   21.5505 C   0  0  0  0  0  0  0  0  0  0  0  0
  -23.6819  -29.0977   20.4766 C   0  0  0  0  0  0  0  0  0  0  0  0
  -24.7658  -31.8894   27.0449 C   0  0  0  0  0  0  0  0  0  0  0  0
  -29.7275  -11.9191   19.0324 C   0  0  0  0  0  0  0  0  0  0  0  0
  -24.0905  -30.6228   26.5285 C   0  0  0  0  0  0  0  0  0  0  0  0
  -28.3032  -11.7034   19.5493 C   0  0  0  0  0  0  0  0  0  0  0  0
  -30.5275  -12.8471   19.9450 C   0  0  0  0  0  0  0  0  0  0  0  0
  -28.4621  -13.9201   20.7526 C   0  0  0  0  0  0  0  0  0  0  0  0
  -25.0646  -29.7770   25.6996 C   0  0  1  0  0  0  0  0  0  0  0  0
  -24.7118  -30.7679   22.0490 C   0  0  1  0  0  0  0  0  0  0  0  0
  -27.5971  -13.0440   19.8318 C   0  0  2  0  0  0  0  0  0  0  0  0
  -33.8466  -19.0807   22.2619 C   0  0  0  0  0  0  0  0  0  0  0  0
  -31.2814  -22.6588   20.1483 C   0  0  0  0  0  0  0  0  0  0  0  0
  -20.1969  -32.3482   15.9563 C   0  0  0  0  0  0  0  0  0  0  0  0
  -20.1708  -29.9101   22.1147 C   0  0  0  0  0  0  0  0  0  0  0  0
  -18.9729  -30.2744   19.9466 C   0  0  0  0  0  0  0  0  0  0  0  0
  -19.7215  -32.2315   21.3001 C   0  0  0  0  0  0  0  0  0  0  0  0
  -23.9870  -32.0153   15.9494 C   0  0  0  0  0  0  0  0  0  0  0  0
  -33.2793  -19.5920   20.9412 C   0  0  0  0  0  0  0  0  0  0  0  0
  -31.3430  -21.7184   21.3463 C   0  0  0  0  0  0  0  0  0  0  0  0
  -25.7138  -22.9583   19.2859 C   0  0  0  0  0  0  0  0  0  0  0  0
  -25.2825  -24.4174   19.3167 C   0  0  0  0  0  0  0  0  0  1  0  0
  -21.4408  -30.8446   20.0702 C   0  0  1  0  0  0  0  0  0  0  0  0
  -21.5858  -32.3026   16.5740 C   0  0  2  0  0  0  0  0  0  0  0  0
  -20.1014  -30.8013   20.8585 C   0  0  0  0  0  0  0  0  0  0  0  0
  -25.9614  -11.7637   21.1609 N   0  0  0  0  0  0  0  0  0  0  0  0
  -26.2013  -12.8377   20.3894 N   0  0  0  0  0  0  0  0  0  0  0  0
  -23.6629  -30.4400   21.0812 N   0  0  0  0  0  0  0  0  0  0  0  0
  -29.7989  -14.0984   20.1644 N   0  0  0  0  0  0  0  0  0  0  0  0
  -25.1770  -14.7569   19.4523 N   0  0  0  0  0  0  0  0  0  0  0  0
  -21.8162  -12.7973   21.7460 N   0  0  0  0  0  0  0  0  0  0  0  0
  -29.6024  -16.4455   20.0412 N   0  0  0  0  0  0  0  0  0  0  0  0
  -25.2225  -30.3400   24.3757 N   0  0  0  0  0  0  0  0  0  0  0  0
  -21.4124  -31.7026   18.8905 N   0  0  0  0  0  0  0  0  0  0  0  0
  -22.5760  -32.0609   15.4868 N   0  3  0  0  0  0  0  0  0  0  0  0
  -22.3666  -14.5731   20.4035 O   0  0  0  0  0  0  0  0  0  0  0  0
  -26.5897  -23.1343   21.5341 O   0  0  0  0  0  0  0  0  0  0  0  0
  -23.3665  -29.3516   23.3754 O   0  0  0  0  0  0  0  0  0  0  0  0
  -22.5458  -32.4598   21.4106 O   0  0  0  0  0  0  0  0  0  0  0  0
  -21.9729  -30.0516   17.3618 O   0  0  0  0  0  0  0  0  0  0  0  0
  -31.5354  -15.3771   19.3314 O   0  0  0  0  0  0  0  0  0  0  0  0
  -22.1559   -8.0909   24.7074 O   0  0  0  0  0  0  0  0  0  0  0  0
  -26.4340  -25.2542   19.2152 O   0  0  0  0  0  0  0  0  0  1  0  0
  -23.1217   -2.7708   23.6267 F   0  0  0  0  0  0  0  0  0  0  0  0
  -20.0876   -6.3797   24.0469 F   0  0  0  0  0  0  0  0  0  0  0  0
  1  2  1  0  0  0  0
  1  5  2  0  0  0  0
  2  6  2  0  0  0  0
  3  8  2  0  0  0  0
  3 17  1  0  0  0  0
  4  9  1  0  0  0  0
  4 17  2  0  0  0  0
  5 20  1  0  0  0  0
  6 22  1  0  0  0  0
  7 10  2  0  0  0  0
  7 21  1  0  0  0  0
  8 27  1  0  0  0  0
  9 27  2  0  0  0  0
 10 28  1  0  0  0  0
 11 12  2  0  0  0  0
 11 29  1  0  0  0  0
 12 30  1  0  0  0  0
 13 18  2  0  0  0  0
 13 26  1  0  0  0  0
 14 23  1  0  0  0  0
 14 28  2  0  0  0  0
 15 24  1  0  0  0  0
 15 26  2  0  0  0  0
 16 30  2  0  0  0  0
 16 31  1  0  0  0  0
 17 32  1  0  0  0  0
 18 25  1  0  0  0  0
 18 34  1  0  0  0  0
 19 32  1  0  0  0  0
 19 33  2  0  0  0  0
 19 36  1  0  0  0  0
 20 22  2  0  0  0  0
 20 42  1  0  0  0  0
 21 23  2  0  0  0  0
 21 43  1  0  0  0  0
 22 51  1  0  0  0  0
 23 44  1  0  0  0  0
 24 25  2  0  0  0  0
 24 61  1  0  0  0  0
 25 62  1  0  0  0  0
 26 74  1  0  0  0  0
 27 84  1  0  0  0  0
 28 85  1  0  0  0  0
 29 31  2  0  0  0  0
 29 84  1  0  0  0  0
 30 86  1  0  0  0  0
 31 87  1  0  0  0  0
 32 68  2  0  0  0  0
 33 69  1  0  0  0  0
 33 72  1  0  0  0  0
 34 35  2  0  0  0  0
 35 37  1  0  0  0  0
 36 73  1  0  0  0  0
 36 78  2  0  0  0  0
 37 63  1  0  0  0  0
 37 79  2  0  0  0  0
 38 52  1  0  0  0  0
 38 75  1  0  0  0  0
 38 80  2  0  0  0  0
 39 65  1  0  0  0  0
 39 70  1  0  0  0  0
 39 81  2  0  0  0  0
 40 66  1  0  0  0  0
 40 76  1  0  0  0  0
 40 82  2  0  0  0  0
 41 71  1  0  0  0  0
 41 74  1  0  0  0  0
 41 83  2  0  0  0  0
 42 45  1  0  0  0  0
 43 52  1  0  0  0  0
 44 70  1  0  0  0  0
 45 47  1  0  0  0  0
 46 48  1  0  0  0  0
 46 49  1  0  0  0  0
 47 51  1  0  0  0  0
 48 53  1  0  0  0  0
 49 71  1  0  0  0  0
 50 53  1  0  0  0  0
 50 71  1  0  0  0  0
 51 75  1  0  0  0  0
 52 70  1  0  0  0  0
 53 69  1  0  0  0  0
 54 61  1  0  0  0  0
 55 62  1  0  0  0  0
 56 66  1  0  0  0  0
 57 67  1  0  0  0  0
 58 67  1  0  0  0  0
 59 67  1  0  0  0  0
 60 77  1  0  0  0  0
 63 64  1  0  0  0  0
 64 85  1  0  0  0  0
 65 67  1  0  0  0  0
 65 76  1  0  0  0  0
 66 77  1  0  0  0  0
 68 69  1  0  0  0  0
M  CHG  1  77   1
M  ISO  4  41 100  64 101  74 100  85 101
M  END
> <Batch ID>
0130

> <Smiles>
CCc1cc([100NH:0][100C:0](=O)N2CCCC(n3nc(-c4ccc(Oc5ccc(F)cc5F)cc4)c(C(N)=O)c3N)C2)cc(C=CC(=O)C[101CH2:1][101O:1]c2ccc3c(c2)CN(C(=O)C(NC(=O)C(C)NC)C(C)(C)C)C(C(=O)NC2CCCc4ccccc42)C3)c1CC

> <Shape>
0.293

> <Color>
0.162

> <Negative vol penalty>
0.000

$$$$

  -OEChem-04052302223D

 82 90  0     1  0  0  0  0  0999 V2000
  -26.8791  -23.5064   18.0791 C   0  0  0  0  0  0  0  0  0  0  0  0
  -25.7103  -24.1306   18.5029 C   0  0  0  0  0  0  0  0  0  0  0  0
  -25.6723  -13.6979   21.0399 C   0  0  0  0  0  0  0  0  0  0  0  0
  -25.8645  -13.6468   18.6321 C   0  0  0  0  0  0  0  0  0  0  0  0
  -20.9863  -25.2504   22.0754 C   0  0  0  0  0  0  0  0  0  0  0  0
  -28.0707  -23.7162   18.7719 C   0  0  0  0  0  0  0  0  0  0  0  0
  -25.7322  -24.9640   19.6207 C   0  0  0  0  0  0  0  0  0  0  0  0
  -23.1840  -29.2769   18.8782 C   0  0  0  0  0  0  0  0  0  0  0  0
  -20.2244  -26.4173   22.0184 C   0  0  0  0  0  0  0  0  0  0  0  0
  -25.4907  -12.3150   21.0549 C   0  0  0  0  0  0  0  0  0  0  0  0
  -25.6830  -12.2638   18.6470 C   0  0  0  0  0  0  0  0  0  0  0  0
  -21.7935  -29.2169   18.9591 C   0  0  0  0  0  0  0  0  0  0  0  0
  -24.6175   -8.8437   21.6962 C   0  0  0  0  0  0  0  0  0  0  0  0
  -23.6018   -8.3301   22.5024 C   0  0  0  0  0  0  0  0  0  0  0  0
  -19.0677  -23.9630   21.3693 C   0  0  0  0  0  0  0  0  0  0  0  0
  -21.8923  -30.0943   21.2040 C   0  0  0  0  0  0  0  0  0  0  0  0
  -21.9702   -9.6091   21.2616 C   0  0  0  0  0  0  0  0  0  0  0  0
  -25.8591  -14.3638   19.8286 C   0  0  0  0  0  0  0  0  0  0  0  0
  -20.4080  -24.0232   21.7508 C   0  0  0  0  0  0  0  0  0  0  0  0
  -27.2655  -16.4911   19.8948 C   0  0  0  0  0  0  0  0  0  0  0  0
  -28.1092  -24.5602   19.8930 C   0  0  0  0  0  0  0  0  0  0  0  0
  -23.9411  -29.7366   19.9653 C   0  0  0  0  0  0  0  0  0  0  0  0
  -26.9251  -25.1842   20.3300 C   0  0  0  0  0  0  0  0  0  0  0  0
  -23.2922  -30.1616   21.1334 C   0  0  0  0  0  0  0  0  0  0  0  0
  -18.8840  -26.3571   21.6370 C   0  0  0  0  0  0  0  0  0  0  0  0
  -18.3057  -25.1300   21.3124 C   0  0  0  0  0  0  0  0  0  0  0  0
  -25.4961  -11.5980   19.8584 C   0  0  0  0  0  0  0  0  0  0  0  0
  -21.1476  -29.6229   20.1232 C   0  0  0  0  0  0  0  0  0  0  0  0
  -24.3097   -9.7401   20.6727 C   0  0  0  0  0  0  0  0  0  0  0  0
  -22.2781   -8.7127   22.2851 C   0  0  0  0  0  0  0  0  0  0  0  0
  -22.9860  -10.1227   20.4554 C   0  0  0  0  0  0  0  0  0  0  0  0
  -26.0461  -15.7924   19.8125 C   0  0  0  0  0  0  0  0  0  0  0  0
  -26.9068  -17.8157   19.8372 C   0  0  0  0  0  0  0  0  0  0  0  0
  -21.2029  -22.8064   21.8097 C   0  0  0  0  0  0  0  0  0  0  0  0
  -20.9102  -21.6486   21.1802 C   0  0  0  0  0  0  0  0  0  0  0  0
  -28.6028  -15.9878   20.0127 C   0  0  0  0  0  0  0  0  0  0  0  0
  -21.8257  -20.4997   21.3308 C   0  0  0  0  0  0  0  0  0  0  0  0
  -26.1611  -28.4638   21.8509 C   0  0  0  0  0  0  0  0  0  0  0  0
  -26.3461  -31.4848   23.0178 C   0  0  0  0  0  0  0  0  0  0  0  0
  -24.8285  -34.5039   23.4960 C   0  0  0  0  0  0  0  0  0  0  0  0
  -29.4110  -24.7189   20.6378 C   0  0  0  0  0  0  0  0  0  0  0  0
  -25.4386  -29.8204   19.8524 C   0  0  0  0  0  0  0  0  0  0  0  0
  -24.0578  -30.6822   22.3213 C   0  0  0  0  0  0  0  0  0  0  0  0
  -29.4268  -25.9127   21.5891 C   0  0  0  0  0  0  0  0  0  0  0  0
  -23.5465  -20.7234   18.1027 C   0  0  0  0  0  0  0  0  0  0  0  0
  -28.1475  -25.9511   22.4189 C   0  0  0  0  0  0  0  0  0  0  0  0
  -24.4651  -19.5065   18.1747 C   0  0  0  0  0  0  0  0  0  0  0  0
  -22.2138  -20.4763   18.8079 C   0  0  0  0  0  0  0  0  0  0  0  0
  -23.2812  -18.8038   20.2924 C   0  0  0  0  0  0  0  0  0  0  0  0
  -26.9137  -26.1150   21.5231 C   0  0  1  0  0  0  0  0  0  0  0  0
  -26.1408  -29.8212   21.2068 C   0  0  1  0  0  0  0  0  0  0  0  0
  -24.6463  -19.0466   19.6299 C   0  0  1  0  0  0  0  0  0  0  0  0
  -16.8728  -25.0411   20.9009 C   0  0  0  0  0  0  0  0  0  0  0  0
  -25.2164  -36.7643   24.5146 C   0  0  0  0  0  0  0  0  0  0  0  0
  -25.9132  -30.3038   25.7976 C   0  0  0  0  0  0  0  0  0  0  0  0
  -25.3651  -32.6061   26.6143 C   0  0  0  0  0  0  0  0  0  0  0  0
  -27.6306  -32.1186   25.6911 C   0  0  0  0  0  0  0  0  0  0  0  0
  -24.5051  -35.8634   20.8871 C   0  0  0  0  0  0  0  0  0  0  0  0
  -18.0809  -27.6321   21.5826 C   0  0  0  0  0  0  0  0  0  0  0  0
  -17.8499  -28.1545   20.1630 C   0  0  0  0  0  0  0  0  0  0  0  0
  -19.1371  -28.5473   19.4473 C   0  0  0  0  0  0  0  0  0  1  0  0
  -25.6539  -32.2493   24.1202 C   0  0  1  0  0  0  0  0  0  0  0  0
  -25.3091  -35.9229   23.2511 C   0  0  2  0  0  0  0  0  0  0  0  0
  -26.1261  -31.8079   25.5343 C   0  0  0  0  0  0  0  0  0  0  0  0
  -24.9916  -16.6058   19.7105 N   0  0  0  0  0  0  0  0  0  0  0  0
  -25.5473  -17.8293   19.7284 N   0  0  0  0  0  0  0  0  0  0  0  0
  -22.4135  -19.9814   20.1783 N   0  0  0  0  0  0  0  0  0  0  0  0
  -25.5206  -30.7390   22.1645 N   0  0  0  0  0  0  0  0  0  0  0  0
  -27.6248  -18.9584   19.8695 N   0  0  0  0  0  0  0  0  0  0  0  0
  -28.7928  -14.5999   20.0581 N   0  0  0  0  0  0  0  0  0  0  0  0
  -26.7814  -27.4901   21.0917 N   0  0  0  0  0  0  0  0  0  0  0  0
  -25.8683  -33.6635   23.8331 N   0  0  0  0  0  0  0  0  0  0  0  0
  -24.4864  -36.5730   22.1921 N   0  3  0  0  0  0  0  0  0  0  0  0
  -29.5985  -16.7466   20.0924 O   0  0  0  0  0  0  0  0  0  0  0  0
  -22.0105  -20.0653   22.4692 O   0  0  0  0  0  0  0  0  0  0  0  0
  -25.6530  -28.3116   22.9556 O   0  0  0  0  0  0  0  0  0  0  0  0
  -27.5733  -31.5528   22.9130 O   0  0  0  0  0  0  0  0  0  0  0  0
  -23.6481  -34.1748   23.4014 O   0  0  0  0  0  0  0  0  0  0  0  0
  -25.3192  -10.2485   19.8726 O   0  0  0  0  0  0  0  0  0  0  0  0
  -19.7905  -29.5647   20.2050 O   0  0  0  0  0  0  0  0  0  1  0  0
  -21.3026   -8.2182   23.0584 F   0  0  0  0  0  0  0  0  0  0  0  0
  -22.6840  -10.9825   19.4729 F   0  0  0  0  0  0  0  0  0  0  0  0
  1  2  1  0  0  0  0
  1  6  2  0  0  0  0
  2  7  2  0  0  0  0
  3 10  2  0  0  0  0
  3 18  1  0  0  0  0
  4 11  1  0  0  0  0
  4 18  2  0  0  0  0
  5  9  2  0  0  0  0
  5 19  1  0  0  0  0
  6 21  1  0  0  0  0
  7 23  1  0  0  0  0
  8 12  2  0  0  0  0
  8 22  1  0  0  0  0
  9 25  1  0  0  0  0
 10 27  1  0  0  0  0
 11 27  2  0  0  0  0
 12 28  1  0  0  0  0
 13 14  2  0  0  0  0
 13 29  1  0  0  0  0
 14 30  1  0  0  0  0
 15 19  2  0  0  0  0
 15 26  1  0  0  0  0
 16 24  1  0  0  0  0
 16 28  2  0  0  0  0
 17 30  2  0  0  0  0
 17 31  1  0  0  0  0
 18 32  1  0  0  0  0
 19 34  1  0  0  0  0
 20 32  1  0  0  0  0
 20 33  2  0  0  0  0
 20 36  1  0  0  0  0
 21 23  2  0  0  0  0
 21 41  1  0  0  0  0
 22 24  2  0  0  0  0
 22 42  1  0  0  0  0
 23 50  1  0  0  0  0
 24 43  1  0  0  0  0
 25 26  2  0  0  0  0
 25 59  1  0  0  0  0
 26 53  1  0  0  0  0
 27 79  1  0  0  0  0
 28 80  1  0  0  0  0
 29 31  2  0  0  0  0
 29 79  1  0  0  0  0
 30 81  1  0  0  0  0
 31 82  1  0  0  0  0
 32 65  2  0  0  0  0
 33 66  1  0  0  0  0
 33 69  1  0  0  0  0
 34 35  2  0  0  0  0
 35 37  1  0  0  0  0
 36 70  1  0  0  0  0
 36 74  2  0  0  0  0
 37 67  1  0  0  0  0
 37 75  2  0  0  0  0
 38 51  1  0  0  0  0
 38 71  1  0  0  0  0
 38 76  2  0  0  0  0
 39 62  1  0  0  0  0
 39 68  1  0  0  0  0
 39 77  2  0  0  0  0
 40 63  1  0  0  0  0
 40 72  1  0  0  0  0
 40 78  2  0  0  0  0
 41 44  1  0  0  0  0
 42 51  1  0  0  0  0
 43 68  1  0  0  0  0
 44 46  1  0  0  0  0
 45 47  1  0  0  0  0
 45 48  1  0  0  0  0
 46 50  1  0  0  0  0
 47 52  1  0  0  0  0
 48 67  1  0  0  0  0
 49 52  1  0  0  0  0
 49 67  1  0  0  0  0
 50 71  1  0  0  0  0
 51 68  1  0  0  0  0
 52 66  1  0  0  0  0
 54 63  1  0  0  0  0
 55 64  1  0  0  0  0
 56 64  1  0  0  0  0
 57 64  1  0  0  0  0
 58 73  1  0  0  0  0
 59 60  1  0  0  0  0
 60 61  1  0  0  0  0
 61 80  1  0  0  0  0
 62 64  1  0  0  0  0
 62 72  1  0  0  0  0
 63 73  1  0  0  0  0
 65 66  1  0  0  0  0
M  CHG  1  73   1
M  ISO  4  35 100  37 100  61 101  80 101
M  END
> <Batch ID>
0130

> <Smiles>
CNC(C)C(=O)NC(C(=O)N1Cc2cc([101O:1][101CH2:1]CCc3ccc(C=[100CH:0][100C:0](=O)N4CCCC(n5nc(-c6ccc(Oc7ccc(F)cc7F)cc6)c(C(N)=O)c5N)C4)cc3C)ccc2CC1C(=O)NC1CCCc2ccccc21)C(C)(C)C

> <Shape>
0.280

> <Color>
0.082

> <Negative vol penalty>
0.000

$$$$

  -OEChem-04052302223D

 88 97  0     1  0  0  0  0  0999 V2000
  -32.6954  -34.3659   14.8404 C   0  0  0  0  0  0  0  0  0  0  0  0
  -32.9150  -33.3951   15.8125 C   0  0  0  0  0  0  0  0  0  0  0  0
  -23.1038   -9.8288   19.9684 C   0  0  0  0  0  0  0  0  0  0  0  0
  -23.8450   -9.8938   22.2670 C   0  0  0  0  0  0  0  0  0  0  0  0
  -32.5695  -17.6304   23.3767 C   0  0  0  0  0  0  0  0  0  0  0  0
  -31.5379  -34.3243   14.0643 C   0  0  0  0  0  0  0  0  0  0  0  0
  -31.9766  -32.3828   16.0097 C   0  0  0  0  0  0  0  0  0  0  0  0
  -33.1046  -26.5732   17.5851 C   0  0  0  0  0  0  0  0  0  0  0  0
  -31.9822  -16.7271   22.4909 C   0  0  0  0  0  0  0  0  0  0  0  0
  -22.3731   -8.6714   20.2367 C   0  0  0  0  0  0  0  0  0  0  0  0
  -23.1143   -8.7363   22.5353 C   0  0  0  0  0  0  0  0  0  0  0  0
  -33.0591  -25.9075   18.8093 C   0  0  0  0  0  0  0  0  0  0  0  0
  -19.8922   -7.9084   23.1293 C   0  0  0  0  0  0  0  0  0  0  0  0
  -19.1264   -7.8828   24.2949 C   0  0  0  0  0  0  0  0  0  0  0  0
  -30.3846  -18.4850   23.9538 C   0  0  0  0  0  0  0  0  0  0  0  0
  -30.8261  -25.1465   18.3057 C   0  0  0  0  0  0  0  0  0  0  0  0
  -20.3872   -5.9779   25.0814 C   0  0  0  0  0  0  0  0  0  0  0  0
  -23.8398  -10.4400   20.9835 C   0  0  0  0  0  0  0  0  0  0  0  0
  -31.7707  -18.5094   24.1082 C   0  0  0  0  0  0  0  0  0  0  0  0
  -24.1493  -12.9665   20.8132 C   0  0  0  0  0  0  0  0  0  0  0  0
  -30.5895  -33.3054   14.2455 C   0  0  0  0  0  0  0  0  0  0  0  0
  -32.0051  -26.5394   16.7153 C   0  0  0  0  0  0  0  0  0  0  0  0
  -30.8046  -32.3283   15.2362 C   0  0  0  0  0  0  0  0  0  0  0  0
  -30.8611  -25.8104   17.0700 C   0  0  0  0  0  0  0  0  0  0  0  0
  -29.7973  -17.5817   23.0679 C   0  0  0  0  0  0  0  0  0  0  0  0
  -30.5961  -16.7027   22.3365 C   0  0  0  0  0  0  0  0  0  0  0  0
  -22.3784   -8.1251   21.5202 C   0  0  0  0  0  0  0  0  0  0  0  0
  -31.9187  -25.1964   19.1710 C   0  0  0  0  0  0  0  0  0  0  0  0
  -20.9054   -6.9686   22.9398 C   0  0  0  0  0  0  0  0  0  0  0  0
  -19.3739   -6.9176   25.2709 C   0  0  0  0  0  0  0  0  0  0  0  0
  -21.1530   -6.0034   23.9158 C   0  0  0  0  0  0  0  0  0  0  0  0
  -24.5952  -11.6354   20.7068 C   0  0  0  0  0  0  0  0  0  0  0  0
  -25.2344  -13.7227   20.4428 C   0  0  0  0  0  0  0  0  0  0  0  0
  -33.1243  -22.6848   23.0445 C   0  0  0  0  0  0  0  0  0  0  0  0
  -32.8607  -22.8679   21.7406 C   0  0  0  0  0  0  0  0  0  0  0  0
  -32.7127  -21.3552   23.4568 C   0  0  0  0  0  0  0  0  0  0  0  0
  -32.5583  -19.0339   26.3095 C   0  0  0  0  0  0  0  0  0  0  0  0
  -32.8206  -20.8089   24.6734 C   0  0  0  0  0  0  0  0  0  0  0  0
  -32.3933  -19.4658   25.0463 C   0  0  0  0  0  0  0  0  0  0  0  0
  -22.8689  -13.4740   21.2113 C   0  0  0  0  0  0  0  0  0  0  0  0
  -30.0429  -28.7219   15.4945 C   0  0  0  0  0  0  0  0  0  0  0  0
  -28.9178  -26.1961   13.7983 C   0  0  0  0  0  0  0  0  0  0  0  0
  -28.5257  -22.8149   13.5527 C   0  0  0  0  0  0  0  0  0  0  0  0
  -30.6848  -14.8443   20.6380 C   0  0  0  0  0  0  0  0  0  0  0  0
  -29.3309  -33.3290   13.4148 C   0  0  0  0  0  0  0  0  0  0  0  0
  -32.0801  -27.2406   15.3867 C   0  0  0  0  0  0  0  0  0  0  0  0
  -29.6616  -25.7262   16.1630 C   0  0  0  0  0  0  0  0  0  0  0  0
  -32.2317  -21.6552   21.1190 C   0  0  0  0  0  0  0  0  0  0  0  0
  -32.1228  -20.6516   22.2664 C   0  0  0  0  0  0  0  0  0  0  0  0
  -28.5653  -32.0084   13.4313 C   0  0  0  0  0  0  0  0  0  0  0  0
  -29.6214  -12.3670   18.3123 C   0  0  0  0  0  0  0  0  0  0  0  0
  -28.4416  -31.4808   14.8571 C   0  0  0  0  0  0  0  0  0  0  0  0
  -28.1822  -12.0653   18.7367 C   0  0  0  0  0  0  0  0  0  0  0  0
  -30.5237  -12.6330   19.5160 C   0  0  0  0  0  0  0  0  0  0  0  0
  -28.5963  -13.3607   20.8668 C   0  0  0  0  0  0  0  0  0  0  0  0
  -29.8220  -31.2000   15.4632 C   0  0  1  0  0  0  0  0  0  0  0  0
  -30.7080  -27.5649   14.8040 C   0  0  1  0  0  0  0  0  0  0  0  0
  -27.6353  -13.1499   19.6854 C   0  0  2  0  0  0  0  0  0  0  0  0
  -28.3101  -17.5773   22.9224 C   0  0  0  0  0  0  0  0  0  0  0  0
  -33.7451  -23.6474   24.0012 C   0  0  0  0  0  0  0  0  0  0  0  0
  -27.5319  -21.0495   12.0718 C   0  0  0  0  0  0  0  0  0  0  0  0
  -26.1325  -26.9123   14.8178 C   0  0  0  0  0  0  0  0  0  0  0  0
  -25.3657  -24.6350   14.1148 C   0  0  0  0  0  0  0  0  0  0  0  0
  -26.2218  -26.2423   12.4099 C   0  0  0  0  0  0  0  0  0  0  0  0
  -31.1626  -21.5524   13.0924 C   0  0  0  0  0  0  0  0  0  0  0  0
  -33.1065  -24.0603   20.8898 C   0  0  0  0  0  0  0  0  0  1  0  0
  -27.8456  -25.1556   14.0144 C   0  0  1  0  0  0  0  0  0  0  0  0
  -28.7795  -21.8520   12.4069 C   0  0  2  0  0  0  0  0  0  0  0  0
  -26.4131  -25.7393   13.8574 C   0  0  0  0  0  0  0  0  0  0  0  0
  -25.8645  -11.5477   20.3005 N   0  0  0  0  0  0  0  0  0  0  0  0
  -26.2255  -12.8332   20.1482 N   0  0  0  0  0  0  0  0  0  0  0  0
  -29.7810  -26.4338   14.8774 N   0  0  0  0  0  0  0  0  0  0  0  0
  -29.9441  -13.6744   20.3671 N   0  0  0  0  0  0  0  0  0  0  0  0
  -25.4279  -15.0550   20.3435 N   0  0  0  0  0  0  0  0  0  0  0  0
  -21.8663  -12.5586   21.5597 N   0  0  0  0  0  0  0  0  0  0  0  0
  -30.0188  -15.7776   21.4317 N   0  0  0  0  0  0  0  0  0  0  0  0
  -30.3540  -29.9546   14.9530 N   0  0  0  0  0  0  0  0  0  0  0  0
  -28.1486  -24.0611   13.0987 N   0  0  0  0  0  0  0  0  0  0  0  0
  -29.8694  -20.8999   12.7623 N   0  3  0  0  0  0  0  0  0  0  0  0
  -22.6160  -14.7023   21.2410 O   0  0  0  0  0  0  0  0  0  0  0  0
  -29.3012  -28.5117   16.4471 O   0  0  0  0  0  0  0  0  0  0  0  0
  -28.9915  -26.7716   12.7097 O   0  0  0  0  0  0  0  0  0  0  0  0
  -28.6460  -22.4927   14.7327 O   0  0  0  0  0  0  0  0  0  0  0  0
  -31.8153  -15.0182   20.1757 O   0  0  0  0  0  0  0  0  0  0  0  0
  -21.6653   -6.9958   21.7824 O   0  0  0  0  0  0  0  0  0  0  0  0
  -31.8714  -24.5464   20.3656 O   0  0  0  0  0  0  0  0  0  1  0  0
  -18.6395   -6.8942   26.3909 F   0  0  0  0  0  0  0  0  0  0  0  0
  -22.1258   -5.0987   23.7399 F   0  0  0  0  0  0  0  0  0  0  0  0
  1  2  1  0  0  0  0
  1  6  2  0  0  0  0
  2  7  2  0  0  0  0
  3 10  2  0  0  0  0
  3 18  1  0  0  0  0
  4 11  1  0  0  0  0
  4 18  2  0  0  0  0
  5  9  2  0  0  0  0
  5 19  1  0  0  0  0
  6 21  1  0  0  0  0
  7 23  1  0  0  0  0
  8 12  2  0  0  0  0
  8 22  1  0  0  0  0
  9 26  1  0  0  0  0
 10 27  1  0  0  0  0
 11 27  2  0  0  0  0
 12 28  1  0  0  0  0
 13 14  2  0  0  0  0
 13 29  1  0  0  0  0
 14 30  1  0  0  0  0
 15 19  2  0  0  0  0
 15 25  1  0  0  0  0
 16 24  1  0  0  0  0
 16 28  2  0  0  0  0
 17 30  2  0  0  0  0
 17 31  1  0  0  0  0
 18 32  1  0  0  0  0
 19 39  1  0  0  0  0
 20 32  1  0  0  0  0
 20 33  2  0  0  0  0
 20 40  1  0  0  0  0
 21 23  2  0  0  0  0
 21 45  1  0  0  0  0
 22 24  2  0  0  0  0
 22 46  1  0  0  0  0
 23 56  1  0  0  0  0
 24 47  1  0  0  0  0
 25 26  2  0  0  0  0
 25 59  1  0  0  0  0
 26 76  1  0  0  0  0
 27 85  1  0  0  0  0
 28 86  1  0  0  0  0
 29 31  2  0  0  0  0
 29 85  1  0  0  0  0
 30 87  1  0  0  0  0
 31 88  1  0  0  0  0
 32 70  2  0  0  0  0
 33 71  1  0  0  0  0
 33 74  1  0  0  0  0
 34 35  2  0  0  0  0
 34 36  1  0  0  0  0
 34 60  1  0  0  0  0
 35 48  1  0  0  0  0
 35 66  1  0  0  0  0
 36 38  2  0  0  0  0
 36 49  1  0  0  0  0
 37 39  2  0  0  0  0
 38 39  1  0  0  0  0
 40 75  1  0  0  0  0
 40 80  2  0  0  0  0
 41 57  1  0  0  0  0
 41 77  1  0  0  0  0
 41 81  2  0  0  0  0
 42 67  1  0  0  0  0
 42 72  1  0  0  0  0
 42 82  2  0  0  0  0
 43 68  1  0  0  0  0
 43 78  1  0  0  0  0
 43 83  2  0  0  0  0
 44 73  1  0  0  0  0
 44 76  1  0  0  0  0
 44 84  2  0  0  0  0
 45 50  1  0  0  0  0
 46 57  1  0  0  0  0
 47 72  1  0  0  0  0
 48 49  1  0  0  0  0
 50 52  1  0  0  0  0
 51 53  1  0  0  0  0
 51 54  1  0  0  0  0
 52 56  1  0  0  0  0
 53 58  1  0  0  0  0
 54 73  1  0  0  0  0
 55 58  1  0  0  0  0
 55 73  1  0  0  0  0
 56 77  1  0  0  0  0
 57 72  1  0  0  0  0
 58 71  1  0  0  0  0
 61 68  1  0  0  0  0
 62 69  1  0  0  0  0
 63 69  1  0  0  0  0
 64 69  1  0  0  0  0
 65 79  1  0  0  0  0
 66 86  1  0  0  0  0
 67 69  1  0  0  0  0
 67 78  1  0  0  0  0
 68 79  1  0  0  0  0
 70 71  1  0  0  0  0
M  CHG  1  79   1
M  ISO  4  44 100  66 101  76 100  86 101
M  END
> <Batch ID>
0130

> <Smiles>
C=C(C=C1CCC([101CH2:1][101O:1]c2ccc3c(c2)CN(C(=O)C(NC(=O)C(C)NC)C(C)(C)C)C(C(=O)NC2CCCc4ccccc42)C3)=C1C)c1ccc([100NH:0][100C:0](=O)N2CCCC(n3nc(-c4ccc(Oc5ccc(F)cc5F)cc4)c(C(N)=O)c3N)C2)c(C)c1

> <Shape>
0.185

> <Color>
0.192

> <Negative vol penalty>
0.000

$$$$

  -OEChem-04052302223D

 85 93  0     1  0  0  0  0  0999 V2000
  -18.0832  -13.5073   24.2076 C   0  0  0  0  0  0  0  0  0  0  0  0
  -18.8800  -14.4732   23.6014 C   0  0  0  0  0  0  0  0  0  0  0  0
  -23.0642   -9.8989   19.9314 C   0  0  0  0  0  0  0  0  0  0  0  0
  -23.8379   -9.8717   22.2200 C   0  0  0  0  0  0  0  0  0  0  0  0
  -16.7455  -13.7838   24.4869 C   0  0  0  0  0  0  0  0  0  0  0  0
  -18.3393  -15.7159   23.2732 C   0  0  0  0  0  0  0  0  0  0  0  0
  -21.3795  -19.5574   24.5558 C   0  0  0  0  0  0  0  0  0  0  0  0
  -31.5705  -18.3841   20.0999 C   0  0  0  0  0  0  0  0  0  0  0  0
  -22.3126   -8.7487   20.1718 C   0  0  0  0  0  0  0  0  0  0  0  0
  -23.0862   -8.7215   22.4604 C   0  0  0  0  0  0  0  0  0  0  0  0
  -22.4648  -19.8169   23.7200 C   0  0  0  0  0  0  0  0  0  0  0  0
  -31.3147  -19.4474   19.2342 C   0  0  0  0  0  0  0  0  0  0  0  0
  -19.8554   -7.9422   23.0728 C   0  0  0  0  0  0  0  0  0  0  0  0
  -19.1052   -7.8940   24.2478 C   0  0  0  0  0  0  0  0  0  0  0  0
  -21.2344  -21.6195   22.6922 C   0  0  0  0  0  0  0  0  0  0  0  0
  -29.3642  -18.6295   21.0534 C   0  0  0  0  0  0  0  0  0  0  0  0
  -20.3353   -5.9378   24.9529 C   0  0  0  0  0  0  0  0  0  0  0  0
  -23.8269  -10.4603   20.9555 C   0  0  0  0  0  0  0  0  0  0  0  0
  -24.1883  -12.9840   20.8642 C   0  0  0  0  0  0  0  0  0  0  0  0
  -16.1906  -15.0340   24.1708 C   0  0  0  0  0  0  0  0  0  0  0  0
  -20.2075  -20.3212   24.4585 C   0  0  0  0  0  0  0  0  0  0  0  0
  -16.9926  -16.0090   23.5473 C   0  0  0  0  0  0  0  0  0  0  0  0
  -20.1367  -21.3693   23.5297 C   0  0  0  0  0  0  0  0  0  0  0  0
  -30.5952  -17.9751   21.0095 C   0  0  0  0  0  0  0  0  0  0  0  0
  -22.3235   -8.1601   21.4363 C   0  0  0  0  0  0  0  0  0  0  0  0
  -22.3913  -20.8462   22.7860 C   0  0  0  0  0  0  0  0  0  0  0  0
  -30.0836  -20.1018   19.2781 C   0  0  0  0  0  0  0  0  0  0  0  0
  -20.8455   -6.9882   22.8379 C   0  0  0  0  0  0  0  0  0  0  0  0
  -29.1083  -19.6928   20.1876 C   0  0  0  0  0  0  0  0  0  0  0  0
  -19.3452   -6.8918   25.1878 C   0  0  0  0  0  0  0  0  0  0  0  0
  -21.0855   -5.9860   23.7779 C   0  0  0  0  0  0  0  0  0  0  0  0
  -24.6040  -11.6481   20.7076 C   0  0  0  0  0  0  0  0  0  0  0  0
  -25.2843  -13.7291   20.5035 C   0  0  0  0  0  0  0  0  0  0  0  0
  -22.9246  -13.5047   21.2971 C   0  0  0  0  0  0  0  0  0  0  0  0
  -17.1742  -19.6942   23.7447 C   0  0  0  0  0  0  0  0  0  0  0  0
  -25.6830  -20.6758   21.1386 C   0  0  0  0  0  0  0  0  0  0  0  0
  -16.7454  -22.8031   24.5649 C   0  0  0  0  0  0  0  0  0  0  0  0
  -18.0961  -25.9158   24.9309 C   0  0  0  0  0  0  0  0  0  0  0  0
  -30.7771  -14.7019   20.6708 C   0  0  0  0  0  0  0  0  0  0  0  0
  -14.7272  -15.2700   24.4489 C   0  0  0  0  0  0  0  0  0  0  0  0
  -19.0556  -20.0458   25.3856 C   0  0  0  0  0  0  0  0  0  0  0  0
  -18.9087  -22.2316   23.3993 C   0  0  0  0  0  0  0  0  0  0  0  0
  -14.3297  -16.7433   24.4103 C   0  0  0  0  0  0  0  0  0  0  0  0
  -29.6060  -12.3560   18.2621 C   0  0  0  0  0  0  0  0  0  0  0  0
  -14.9163  -17.4223   23.1767 C   0  0  0  0  0  0  0  0  0  0  0  0
  -28.1689  -12.0685   18.7001 C   0  0  0  0  0  0  0  0  0  0  0  0
  -30.5321  -12.5547   19.4599 C   0  0  0  0  0  0  0  0  0  0  0  0
  -28.6447  -13.2839   20.8669 C   0  0  0  0  0  0  0  0  0  0  0  0
  -16.4490  -17.3776   23.1987 C   0  0  1  0  0  0  0  0  0  0  0  0
  -17.7214  -20.5545   24.8484 C   0  0  1  0  0  0  0  0  0  0  0  0
  -27.6621  -13.1316   19.6932 C   0  0  2  0  0  0  0  0  0  0  0  0
  -17.4894  -28.2624   25.5809 C   0  0  0  0  0  0  0  0  0  0  0  0
  -15.3933  -23.2006   21.8587 C   0  0  0  0  0  0  0  0  0  0  0  0
  -15.6712  -25.6704   22.1608 C   0  0  0  0  0  0  0  0  0  0  0  0
  -14.2738  -24.3687   23.7657 C   0  0  0  0  0  0  0  0  0  0  0  0
  -19.9935  -25.9008   27.2021 C   0  0  0  0  0  0  0  0  0  0  0  0
  -30.8958  -21.4936   17.5290 C   0  0  0  0  0  0  0  0  0  0  0  0
  -30.8677  -16.8365   21.9334 C   0  0  0  0  0  0  0  0  0  0  0  0
  -24.6023  -20.2752   22.1219 C   0  0  0  0  0  0  0  0  0  1  0  0
  -26.9576  -19.8586   21.1889 C   0  0  0  0  0  0  0  0  0  0  0  0
  -16.7890  -24.1193   23.8269 C   0  0  1  0  0  0  0  0  0  0  0  0
  -18.0171  -26.9210   26.0657 C   0  0  2  0  0  0  0  0  0  0  0  0
  -15.5544  -24.3224   22.9039 C   0  0  0  0  0  0  0  0  0  0  0  0
  -25.8655  -11.5473   20.2805 N   0  0  0  0  0  0  0  0  0  0  0  0
  -26.2520  -12.8293   20.1655 N   0  0  0  0  0  0  0  0  0  0  0  0
  -17.8065  -21.9190   24.3239 N   0  0  0  0  0  0  0  0  0  0  0  0
  -29.9952  -13.5767   20.3617 N   0  0  0  0  0  0  0  0  0  0  0  0
  -25.5050  -15.0596   20.4454 N   0  0  0  0  0  0  0  0  0  0  0  0
  -21.9074  -12.5996   21.6295 N   0  0  0  0  0  0  0  0  0  0  0  0
  -16.9708  -18.3763   24.1069 N   0  0  0  0  0  0  0  0  0  0  0  0
  -16.9510  -25.1525   24.8441 N   0  0  0  0  0  0  0  0  0  0  0  0
  -30.1905  -15.6251   21.5277 N   0  0  0  0  0  0  0  0  0  0  0  0
  -19.3655  -27.1346   26.6633 N   0  3  0  0  0  0  0  0  0  0  0  0
  -22.6986  -14.7364   21.3709 O   0  0  0  0  0  0  0  0  0  0  0  0
  -16.9516  -20.1898   22.6462 O   0  0  0  0  0  0  0  0  0  0  0  0
  -25.5347  -21.6072   20.3489 O   0  0  0  0  0  0  0  0  0  0  0  0
  -15.8081  -22.5711   25.3326 O   0  0  0  0  0  0  0  0  0  0  0  0
  -19.0741  -25.8199   24.1929 O   0  0  0  0  0  0  0  0  0  0  0  0
  -31.9117  -14.8738   20.2124 O   0  0  0  0  0  0  0  0  0  0  0  0
  -21.5900   -7.0379   21.6713 O   0  0  0  0  0  0  0  0  0  0  0  0
  -29.8462  -21.1390   18.4272 O   0  0  0  0  0  0  0  0  0  0  0  0
  -23.4489  -21.1013   21.9685 O   0  0  0  0  0  0  0  0  0  1  0  0
  -27.8915  -20.3305   20.2408 O   0  0  0  0  0  0  0  0  0  0  0  0
  -18.6257   -6.8465   26.3168 F   0  0  0  0  0  0  0  0  0  0  0  0
  -22.0362   -5.0674   23.5583 F   0  0  0  0  0  0  0  0  0  0  0  0
  1  2  1  0  0  0  0
  1  5  2  0  0  0  0
  2  6  2  0  0  0  0
  3  9  2  0  0  0  0
  3 18  1  0  0  0  0
  4 10  1  0  0  0  0
  4 18  2  0  0  0  0
  5 20  1  0  0  0  0
  6 22  1  0  0  0  0
  7 11  2  0  0  0  0
  7 21  1  0  0  0  0
  8 12  2  0  0  0  0
  8 24  1  0  0  0  0
  9 25  1  0  0  0  0
 10 25  2  0  0  0  0
 11 26  1  0  0  0  0
 12 27  1  0  0  0  0
 13 14  2  0  0  0  0
 13 28  1  0  0  0  0
 14 30  1  0  0  0  0
 15 23  1  0  0  0  0
 15 26  2  0  0  0  0
 16 24  2  0  0  0  0
 16 29  1  0  0  0  0
 17 30  2  0  0  0  0
 17 31  1  0  0  0  0
 18 32  1  0  0  0  0
 19 32  1  0  0  0  0
 19 33  2  0  0  0  0
 19 34  1  0  0  0  0
 20 22  2  0  0  0  0
 20 40  1  0  0  0  0
 21 23  2  0  0  0  0
 21 41  1  0  0  0  0
 22 49  1  0  0  0  0
 23 42  1  0  0  0  0
 24 58  1  0  0  0  0
 25 80  1  0  0  0  0
 26 82  1  0  0  0  0
 27 29  2  0  0  0  0
 27 81  1  0  0  0  0
 28 31  2  0  0  0  0
 28 80  1  0  0  0  0
 29 83  1  0  0  0  0
 30 84  1  0  0  0  0
 31 85  1  0  0  0  0
 32 64  2  0  0  0  0
 33 65  1  0  0  0  0
 33 68  1  0  0  0  0
 34 69  1  0  0  0  0
 34 74  2  0  0  0  0
 35 50  1  0  0  0  0
 35 70  1  0  0  0  0
 35 75  2  0  0  0  0
 36 59  1  0  0  0  0
 36 60  1  0  0  0  0
 36 76  2  0  0  0  0
 37 61  1  0  0  0  0
 37 66  1  0  0  0  0
 37 77  2  0  0  0  0
 38 62  1  0  0  0  0
 38 71  1  0  0  0  0
 38 78  2  0  0  0  0
 39 67  1  0  0  0  0
 39 72  1  0  0  0  0
 39 79  2  0  0  0  0
 40 43  1  0  0  0  0
 41 50  1  0  0  0  0
 42 66  1  0  0  0  0
 43 45  1  0  0  0  0
 44 46  1  0  0  0  0
 44 47  1  0  0  0  0
 45 49  1  0  0  0  0
 46 51  1  0  0  0  0
 47 67  1  0  0  0  0
 48 51  1  0  0  0  0
 48 67  1  0  0  0  0
 49 70  1  0  0  0  0
 50 66  1  0  0  0  0
 51 65  1  0  0  0  0
 52 62  1  0  0  0  0
 53 63  1  0  0  0  0
 54 63  1  0  0  0  0
 55 63  1  0  0  0  0
 56 73  1  0  0  0  0
 57 81  1  0  0  0  0
 58 72  1  0  0  0  0
 59 82  1  0  0  0  0
 60 83  1  0  0  0  0
 61 63  1  0  0  0  0
 61 71  1  0  0  0  0
 62 73  1  0  0  0  0
 64 65  1  0  0  0  0
M  CHG  1  73   1
M  ISO  4  39 100  59 101  72 100  82 101
M  END
> <Batch ID>
0130

> <Smiles>
CNC(C)C(=O)NC(C(=O)N1Cc2cc([101O:1][101CH2:1]C(=O)COc3cc(C[100NH:0][100C:0](=O)N4CCCC(n5nc(-c6ccc(Oc7ccc(F)cc7F)cc6)c(C(N)=O)c5N)C4)ccc3OC)ccc2CC1C(=O)NC1CCCc2ccccc21)C(C)(C)C

> <Shape>
0.202

> <Color>
0.191

> <Negative vol penalty>
0.000

$$$$

  -OEChem-04052302223D

 81 89  0     1  0  0  0  0  0999 V2000
  -27.3446  -24.9511   16.0895 C   0  0  0  0  0  0  0  0  0  0  0  0
  -26.1855  -25.1998   16.8176 C   0  0  0  0  0  0  0  0  0  0  0  0
  -25.7531  -13.5303   22.0605 C   0  0  0  0  0  0  0  0  0  0  0  0
  -26.3974  -13.8707   19.7570 C   0  0  0  0  0  0  0  0  0  0  0  0
  -28.5869  -25.2975   16.6191 C   0  0  0  0  0  0  0  0  0  0  0  0
  -26.2682  -25.7941   18.0763 C   0  0  0  0  0  0  0  0  0  0  0  0
  -22.8399  -29.4652   18.7204 C   0  0  0  0  0  0  0  0  0  0  0  0
  -25.4613  -12.1951   21.7816 C   0  0  0  0  0  0  0  0  0  0  0  0
  -26.1056  -12.5355   19.4781 C   0  0  0  0  0  0  0  0  0  0  0  0
  -21.5316  -29.0727   18.9996 C   0  0  0  0  0  0  0  0  0  0  0  0
  -22.9509  -10.4408   20.3518 C   0  0  0  0  0  0  0  0  0  0  0  0
  -21.7601   -9.9192   20.8572 C   0  0  0  0  0  0  0  0  0  0  0  0
  -21.9041  -29.5180   21.3410 C   0  0  0  0  0  0  0  0  0  0  0  0
  -19.9978  -25.9062   24.6896 C   0  0  0  0  0  0  0  0  0  0  0  0
  -23.0109   -8.2669   22.0991 C   0  0  0  0  0  0  0  0  0  0  0  0
  -26.2211  -14.3681   21.0482 C   0  0  0  0  0  0  0  0  0  0  0  0
  -27.7555  -16.2782   21.7587 C   0  0  0  0  0  0  0  0  0  0  0  0
  -28.6842  -25.9052   17.8808 C   0  0  0  0  0  0  0  0  0  0  0  0
  -23.6950  -29.8773   19.7525 C   0  0  0  0  0  0  0  0  0  0  0  0
  -27.5131  -26.1477   18.6239 C   0  0  0  0  0  0  0  0  0  0  0  0
  -23.2220  -29.9177   21.0719 C   0  0  0  0  0  0  0  0  0  0  0  0
  -20.9237  -24.8527   24.9408 C   0  0  0  0  0  0  0  0  0  0  0  0
  -25.6376  -11.6977   20.4904 C   0  0  0  0  0  0  0  0  0  0  0  0
  -21.0644  -29.0963   20.3104 C   0  0  0  0  0  0  0  0  0  0  0  0
  -24.1717   -9.8754   20.7199 C   0  0  0  0  0  0  0  0  0  0  0  0
  -21.7901   -8.8322   21.7309 C   0  0  0  0  0  0  0  0  0  0  0  0
  -24.2018   -8.7885   21.5936 C   0  0  0  0  0  0  0  0  0  0  0  0
  -26.5222  -15.7475   21.3355 C   0  0  0  0  0  0  0  0  0  0  0  0
  -20.7506  -23.7945   24.0762 C   0  0  0  0  0  0  0  0  0  0  0  0
  -19.1523  -25.6129   23.6421 C   0  0  0  0  0  0  0  0  0  0  0  0
  -27.5223  -17.6252   21.8917 C   0  0  0  0  0  0  0  0  0  0  0  0
  -21.4628  -22.5767   24.0041 C   0  0  0  0  0  0  0  0  0  0  0  0
  -21.7080  -21.8297   22.8763 C   0  0  0  0  0  0  0  0  0  0  0  0
  -29.0007  -15.6129   22.0091 C   0  0  0  0  0  0  0  0  0  0  0  0
  -22.4822  -20.5752   22.9629 C   0  0  0  0  0  0  0  0  0  0  0  0
  -26.4490  -28.8234   20.9393 C   0  0  0  0  0  0  0  0  0  0  0  0
  -26.2761  -31.5360   22.7096 C   0  0  0  0  0  0  0  0  0  0  0  0
  -24.3306  -33.9824   24.0798 C   0  0  0  0  0  0  0  0  0  0  0  0
  -30.0526  -26.2186   18.4320 C   0  0  0  0  0  0  0  0  0  0  0  0
  -25.0952  -30.3231   19.4313 C   0  0  0  0  0  0  0  0  0  0  0  0
  -24.0937  -30.3714   22.2133 C   0  0  0  0  0  0  0  0  0  0  0  0
  -30.0268  -27.1865   19.6121 C   0  0  0  0  0  0  0  0  0  0  0  0
  -24.8008  -21.1509   20.1836 C   0  0  0  0  0  0  0  0  0  0  0  0
  -28.9554  -26.7750   20.6169 C   0  0  0  0  0  0  0  0  0  0  0  0
  -25.5876  -19.8430   20.1819 C   0  0  0  0  0  0  0  0  0  0  0  0
  -23.3423  -20.9402   20.5874 C   0  0  0  0  0  0  0  0  0  0  0  0
  -23.9681  -18.9275   21.8904 C   0  0  0  0  0  0  0  0  0  0  0  0
  -27.5600  -26.8134   19.9821 C   0  0  1  0  0  0  0  0  0  0  0  0
  -26.0394  -30.2347   20.6263 C   0  0  1  0  0  0  0  0  0  0  0  0
  -25.4497  -19.1230   21.5327 C   0  0  1  0  0  0  0  0  0  0  0  0
  -21.9468  -24.9100   26.0142 C   0  0  0  0  0  0  0  0  0  0  0  0
  -24.4699  -36.0425   25.5059 C   0  0  0  0  0  0  0  0  0  0  0  0
  -26.6415  -29.7933   25.1874 C   0  0  0  0  0  0  0  0  0  0  0  0
  -25.8332  -31.7154   26.5731 C   0  0  0  0  0  0  0  0  0  0  0  0
  -27.9202  -31.9422   25.2256 C   0  0  0  0  0  0  0  0  0  0  0  0
  -23.2381  -35.6898   21.9233 C   0  0  0  0  0  0  0  0  0  0  0  0
  -18.0423  -26.4563   23.0674 C   0  0  0  0  0  0  0  0  0  0  0  0
  -18.4041  -27.1308   21.7424 C   0  0  0  0  0  0  0  0  0  0  0  0
  -19.5462  -28.1326   21.8668 C   0  0  0  0  0  0  0  0  0  1  0  0
  -25.6830  -31.9029   24.0486 C   0  0  1  0  0  0  0  0  0  0  0  0
  -24.4698  -35.4940   24.0875 C   0  0  2  0  0  0  0  0  0  0  0  0
  -26.5034  -31.3280   25.2376 C   0  0  0  0  0  0  0  0  0  0  0  0
  -25.5756  -16.6812   21.2082 N   0  0  0  0  0  0  0  0  0  0  0  0
  -26.2143  -17.8121   21.5536 N   0  0  0  0  0  0  0  0  0  0  0  0
  -23.2359  -20.1984   21.8527 N   0  0  0  0  0  0  0  0  0  0  0  0
  -25.4570  -30.7914   21.8491 N   0  0  0  0  0  0  0  0  0  0  0  0
  -28.3105  -18.6560   22.2637 N   0  0  0  0  0  0  0  0  0  0  0  0
  -29.0661  -14.2253   21.8231 N   0  0  0  0  0  0  0  0  0  0  0  0
  -27.0817  -28.1765   19.8950 N   0  0  0  0  0  0  0  0  0  0  0  0
  -25.5590  -33.3565   24.0556 N   0  0  0  0  0  0  0  0  0  0  0  0
  -23.3431  -36.1217   23.3409 N   0  3  0  0  0  0  0  0  0  0  0  0
  -30.0205  -16.2284   22.4024 O   0  0  0  0  0  0  0  0  0  0  0  0
  -22.4104  -19.9340   24.0129 O   0  0  0  0  0  0  0  0  0  0  0  0
  -26.2101  -28.3564   22.0468 O   0  0  0  0  0  0  0  0  0  0  0  0
  -27.4212  -31.9029   22.4345 O   0  0  0  0  0  0  0  0  0  0  0  0
  -23.2412  -33.4137   24.0975 O   0  0  0  0  0  0  0  0  0  0  0  0
  -25.3532  -10.3949   20.2179 O   0  0  0  0  0  0  0  0  0  0  0  0
  -19.7880  -28.7131   20.5859 O   0  0  0  0  0  0  0  0  0  1  0  0
  -20.6465   -8.3324   22.2174 F   0  0  0  0  0  0  0  0  0  0  0  0
  -25.3716   -8.2418   21.9519 F   0  0  0  0  0  0  0  0  0  0  0  0
  -19.4761  -24.0730   22.9669 S   0  0  0  0  0  0  0  0  0  0  0  0
  1  2  1  0  0  0  0
  1  5  2  0  0  0  0
  2  6  2  0  0  0  0
  3  8  2  0  0  0  0
  3 16  1  0  0  0  0
  4  9  1  0  0  0  0
  4 16  2  0  0  0  0
  5 18  1  0  0  0  0
  6 20  1  0  0  0  0
  7 10  2  0  0  0  0
  7 19  1  0  0  0  0
  8 23  1  0  0  0  0
  9 23  2  0  0  0  0
 10 24  1  0  0  0  0
 11 12  2  0  0  0  0
 11 25  1  0  0  0  0
 12 26  1  0  0  0  0
 13 21  1  0  0  0  0
 13 24  2  0  0  0  0
 14 22  1  0  0  0  0
 14 30  2  0  0  0  0
 15 26  2  0  0  0  0
 15 27  1  0  0  0  0
 16 28  1  0  0  0  0
 17 28  1  0  0  0  0
 17 31  2  0  0  0  0
 17 34  1  0  0  0  0
 18 20  2  0  0  0  0
 18 39  1  0  0  0  0
 19 21  2  0  0  0  0
 19 40  1  0  0  0  0
 20 48  1  0  0  0  0
 21 41  1  0  0  0  0
 22 29  2  0  0  0  0
 22 51  1  0  0  0  0
 23 77  1  0  0  0  0
 24 78  1  0  0  0  0
 25 27  2  0  0  0  0
 25 77  1  0  0  0  0
 26 79  1  0  0  0  0
 27 80  1  0  0  0  0
 28 63  2  0  0  0  0
 29 32  1  0  0  0  0
 29 81  1  0  0  0  0
 30 57  1  0  0  0  0
 30 81  1  0  0  0  0
 31 64  1  0  0  0  0
 31 67  1  0  0  0  0
 32 33  2  0  0  0  0
 33 35  1  0  0  0  0
 34 68  1  0  0  0  0
 34 72  2  0  0  0  0
 35 65  1  0  0  0  0
 35 73  2  0  0  0  0
 36 49  1  0  0  0  0
 36 69  1  0  0  0  0
 36 74  2  0  0  0  0
 37 60  1  0  0  0  0
 37 66  1  0  0  0  0
 37 75  2  0  0  0  0
 38 61  1  0  0  0  0
 38 70  1  0  0  0  0
 38 76  2  0  0  0  0
 39 42  1  0  0  0  0
 40 49  1  0  0  0  0
 41 66  1  0  0  0  0
 42 44  1  0  0  0  0
 43 45  1  0  0  0  0
 43 46  1  0  0  0  0
 44 48  1  0  0  0  0
 45 50  1  0  0  0  0
 46 65  1  0  0  0  0
 47 50  1  0  0  0  0
 47 65  1  0  0  0  0
 48 69  1  0  0  0  0
 49 66  1  0  0  0  0
 50 64  1  0  0  0  0
 52 61  1  0  0  0  0
 53 62  1  0  0  0  0
 54 62  1  0  0  0  0
 55 62  1  0  0  0  0
 56 71  1  0  0  0  0
 57 58  1  0  0  0  0
 58 59  1  0  0  0  0
 59 78  1  0  0  0  0
 60 62  1  0  0  0  0
 60 70  1  0  0  0  0
 61 71  1  0  0  0  0
 63 64  1  0  0  0  0
M  CHG  1  71   1
M  ISO  4  33 100  35 100  59 101  78 101
M  END
> <Batch ID>
0130

> <Smiles>
CNC(C)C(=O)NC(C(=O)N1Cc2cc([101O:1][101CH2:1]CCc3cc(C)c(C=[100CH:0][100C:0](=O)N4CCCC(n5nc(-c6ccc(Oc7ccc(F)cc7F)cc6)c(C(N)=O)c5N)C4)s3)ccc2CC1C(=O)NC1CCCc2ccccc21)C(C)(C)C

> <Shape>
0.293

> <Color>
0.091

> <Negative vol penalty>
0.000

$$$$

  -OEChem-04052302223D

 89 97  0     1  0  0  0  0  0999 V2000
  -19.6603  -24.0335   23.1645 C   0  0  0  0  0  0  0  0  0  0  0  0
  -20.8389  -24.2811   22.4680 C   0  0  0  0  0  0  0  0  0  0  0  0
  -31.6759  -17.5901   16.6780 C   0  0  0  0  0  0  0  0  0  0  0  0
  -23.6406  -15.2082   25.1282 C   0  0  0  0  0  0  0  0  0  0  0  0
  -23.8132  -17.3274   23.9809 C   0  0  0  0  0  0  0  0  0  0  0  0
  -18.7913  -25.0836   23.4575 C   0  0  0  0  0  0  0  0  0  0  0  0
  -21.1486  -25.5791   22.0632 C   0  0  0  0  0  0  0  0  0  0  0  0
  -25.9773  -26.7998   22.9787 C   0  0  0  0  0  0  0  0  0  0  0  0
  -31.0480  -18.8007   16.3851 C   0  0  0  0  0  0  0  0  0  0  0  0
  -31.3933  -16.9290   17.8733 C   0  0  0  0  0  0  0  0  0  0  0  0
  -23.0596  -15.8481   26.2229 C   0  0  0  0  0  0  0  0  0  0  0  0
  -23.2321  -17.9673   25.0756 C   0  0  0  0  0  0  0  0  0  0  0  0
  -26.9375  -26.3037   22.0980 C   0  0  0  0  0  0  0  0  0  0  0  0
  -24.0853  -17.7001   28.8577 C   0  0  0  0  0  0  0  0  0  0  0  0
  -24.5458  -17.3554   30.1284 C   0  0  0  0  0  0  0  0  0  0  0  0
  -26.9981  -28.4364   20.9723 C   0  0  0  0  0  0  0  0  0  0  0  0
  -22.3228  -16.6309   30.7374 C   0  0  0  0  0  0  0  0  0  0  0  0
  -24.0175  -15.9478   24.0071 C   0  0  0  0  0  0  0  0  0  0  0  0
  -23.9559  -14.7383   21.7619 C   0  0  0  0  0  0  0  0  0  0  0  0
  -19.0951  -26.3966   23.0645 C   0  0  0  0  0  0  0  0  0  0  0  0
  -25.5116  -28.1167   22.8559 C   0  0  0  0  0  0  0  0  0  0  0  0
  -20.2821  -26.6476   22.3500 C   0  0  0  0  0  0  0  0  0  0  0  0
  -26.0339  -28.9476   21.8544 C   0  0  0  0  0  0  0  0  0  0  0  0
  -30.1375  -19.3503   17.2876 C   0  0  0  0  0  0  0  0  0  0  0  0
  -29.8549  -18.6893   18.4830 C   0  0  0  0  0  0  0  0  0  0  0  0
  -30.4828  -17.4787   18.7758 C   0  0  0  0  0  0  0  0  0  0  0  0
  -22.8553  -17.2277   26.1966 C   0  0  0  0  0  0  0  0  0  0  0  0
  -27.4459  -27.1211   21.0928 C   0  0  0  0  0  0  0  0  0  0  0  0
  -22.7436  -17.5104   28.5268 C   0  0  0  0  0  0  0  0  0  0  0  0
  -23.6646  -16.8208   31.0683 C   0  0  0  0  0  0  0  0  0  0  0  0
  -21.8624  -16.9758   29.4667 C   0  0  0  0  0  0  0  0  0  0  0  0
  -24.6182  -15.2874   22.8762 C   0  0  0  0  0  0  0  0  0  0  0  0
  -24.9640  -14.2328   20.9780 C   0  0  0  0  0  0  0  0  0  0  0  0
  -29.9341  -24.3885   17.9496 C   0  0  0  0  0  0  0  0  0  0  0  0
  -22.5546  -14.6897   21.4623 C   0  0  0  0  0  0  0  0  0  0  0  0
  -29.4353  -25.6094   17.7018 C   0  0  0  0  0  0  0  0  0  0  0  0
  -29.4207  -23.1536   17.2897 C   0  0  0  0  0  0  0  0  0  0  0  0
  -22.6870  -29.4517   22.2698 C   0  0  0  0  0  0  0  0  0  0  0  0
  -24.2994  -32.2019   22.8691 C   0  0  0  0  0  0  0  0  0  0  0  0
  -27.2891  -33.8446   22.9687 C   0  0  0  0  0  0  0  0  0  0  0  0
  -30.7577  -15.5796   20.4081 C   0  0  0  0  0  0  0  0  0  0  0  0
  -18.1020  -27.4918   23.3626 C   0  0  0  0  0  0  0  0  0  0  0  0
  -24.4951  -28.6451   23.8306 C   0  0  0  0  0  0  0  0  0  0  0  0
  -25.5819  -30.3752   21.6927 C   0  0  0  0  0  0  0  0  0  0  0  0
  -18.6846  -28.8961   23.2256 C   0  0  0  0  0  0  0  0  0  0  0  0
  -29.3832  -12.4114   21.2746 C   0  0  0  0  0  0  0  0  0  0  0  0
  -19.4807  -29.0198   21.9303 C   0  0  0  0  0  0  0  0  0  0  0  0
  -27.9432  -12.7386   21.6764 C   0  0  0  0  0  0  0  0  0  0  0  0
  -30.3567  -13.5037   21.7138 C   0  0  0  0  0  0  0  0  0  0  0  0
  -28.5603  -15.1894   21.6867 C   0  0  0  0  0  0  0  0  0  0  0  0
  -20.6650  -28.0457   21.9156 C   0  0  1  0  0  0  0  0  0  0  0  0
  -23.7167  -29.8416   23.2923 C   0  0  1  0  0  0  0  0  0  0  0  0
  -27.5342  -14.1491   21.2085 C   0  0  2  0  0  0  0  0  0  0  0  0
  -26.5356  -19.1574   20.3984 C   0  0  0  0  0  0  0  0  0  0  0  0
  -28.2847  -36.0953   23.4592 C   0  0  0  0  0  0  0  0  0  0  0  0
  -23.2961  -33.2296   20.1770 C   0  0  0  0  0  0  0  0  0  0  0  0
  -25.0423  -35.0203   20.2886 C   0  0  0  0  0  0  0  0  0  0  0  0
  -23.2505  -34.9183   22.0211 C   0  0  0  0  0  0  0  0  0  0  0  0
  -28.9277  -32.7657   25.1845 C   0  0  0  0  0  0  0  0  0  0  0  0
  -29.4723  -20.6616   16.9458 C   0  0  0  0  0  0  0  0  0  0  0  0
  -28.8771  -19.2829   19.4482 C   0  0  0  0  0  0  0  0  0  0  0  0
  -29.9462  -26.8432   18.4040 C   0  0  0  0  0  0  0  0  0  0  0  0
  -30.0930  -21.8503   17.6792 C   0  0  0  0  0  0  0  0  0  0  0  0
  -27.5172  -18.5746   19.3941 C   0  0  0  0  0  0  0  0  0  0  0  0
  -28.8601  -27.5315   19.2253 C   0  0  0  0  0  0  0  0  0  1  0  0
  -25.0883  -33.1821   22.0349 C   0  0  1  0  0  0  0  0  0  0  0  0
  -27.9148  -34.7341   24.0278 C   0  0  2  0  0  0  0  0  0  0  0  0
  -24.1766  -34.0601   21.1320 C   0  0  0  0  0  0  0  0  0  0  0  0
  -25.9445  -15.1441   22.8099 N   0  0  0  0  0  0  0  0  0  0  0  0
  -26.1238  -14.4991   21.6445 N   0  0  0  0  0  0  0  0  0  0  0  0
  -24.5818  -30.8436   22.6664 N   0  0  0  0  0  0  0  0  0  0  0  0
  -29.9073  -14.8113   21.2311 N   0  0  0  0  0  0  0  0  0  0  0  0
  -24.9628  -13.5908   19.7904 N   0  0  0  0  0  0  0  0  0  0  0  0
  -21.6559  -15.2567   22.3761 N   0  0  0  0  0  0  0  0  0  0  0  0
  -30.2103  -16.7899   19.9838 N   0  0  0  0  0  0  0  0  0  0  0  0
  -21.7461  -28.5521   22.7335 N   0  0  0  0  0  0  0  0  0  0  0  0
  -25.9136  -33.9409   22.9685 N   0  0  0  0  0  0  0  0  0  0  0  0
  -29.1491  -34.1012   24.5726 N   0  3  0  0  0  0  0  0  0  0  0  0
  -22.1115  -14.1446   20.4231 O   0  0  0  0  0  0  0  0  0  0  0  0
  -28.4847  -23.1764   16.4941 O   0  0  0  0  0  0  0  0  0  0  0  0
  -22.7412  -29.9325   21.1439 O   0  0  0  0  0  0  0  0  0  0  0  0
  -23.4684  -32.6260   23.6760 O   0  0  0  0  0  0  0  0  0  0  0  0
  -27.9542  -33.1380   22.2145 O   0  0  0  0  0  0  0  0  0  0  0  0
  -31.8778  -15.1800   20.0800 O   0  0  0  0  0  0  0  0  0  0  0  0
  -28.4235  -25.8143   16.7841 O   0  0  0  0  0  0  0  0  0  0  0  0
  -22.2881  -17.8524   27.2646 O   0  0  0  0  0  0  0  0  0  0  0  0
  -28.3827  -26.6392   20.2313 O   0  0  0  0  0  0  0  0  0  1  0  0
  -24.1072  -16.4883   32.2880 F   0  0  0  0  0  0  0  0  0  0  0  0
  -20.5725  -16.7900   29.1542 F   0  0  0  0  0  0  0  0  0  0  0  0
  1  2  1  0  0  0  0
  1  6  2  0  0  0  0
  2  7  2  0  0  0  0
  3  9  1  0  0  0  0
  3 10  2  0  0  0  0
  4 11  2  0  0  0  0
  4 18  1  0  0  0  0
  5 12  1  0  0  0  0
  5 18  2  0  0  0  0
  6 20  1  0  0  0  0
  7 22  1  0  0  0  0
  8 13  2  0  0  0  0
  8 21  1  0  0  0  0
  9 24  2  0  0  0  0
 10 26  1  0  0  0  0
 11 27  1  0  0  0  0
 12 27  2  0  0  0  0
 13 28  1  0  0  0  0
 14 15  2  0  0  0  0
 14 29  1  0  0  0  0
 15 30  1  0  0  0  0
 16 23  1  0  0  0  0
 16 28  2  0  0  0  0
 17 30  2  0  0  0  0
 17 31  1  0  0  0  0
 18 32  1  0  0  0  0
 19 32  1  0  0  0  0
 19 33  2  0  0  0  0
 19 35  1  0  0  0  0
 20 22  2  0  0  0  0
 20 42  1  0  0  0  0
 21 23  2  0  0  0  0
 21 43  1  0  0  0  0
 22 51  1  0  0  0  0
 23 44  1  0  0  0  0
 24 25  1  0  0  0  0
 24 60  1  0  0  0  0
 25 26  2  0  0  0  0
 25 61  1  0  0  0  0
 26 75  1  0  0  0  0
 27 86  1  0  0  0  0
 28 87  1  0  0  0  0
 29 31  2  0  0  0  0
 29 86  1  0  0  0  0
 30 88  1  0  0  0  0
 31 89  1  0  0  0  0
 32 69  2  0  0  0  0
 33 70  1  0  0  0  0
 33 73  1  0  0  0  0
 34 36  2  0  0  0  0
 34 37  1  0  0  0  0
 35 74  1  0  0  0  0
 35 79  2  0  0  0  0
 36 62  1  0  0  0  0
 36 85  1  0  0  0  0
 37 63  1  0  0  0  0
 37 80  2  0  0  0  0
 38 52  1  0  0  0  0
 38 76  1  0  0  0  0
 38 81  2  0  0  0  0
 39 66  1  0  0  0  0
 39 71  1  0  0  0  0
 39 82  2  0  0  0  0
 40 67  1  0  0  0  0
 40 77  1  0  0  0  0
 40 83  2  0  0  0  0
 41 72  1  0  0  0  0
 41 75  1  0  0  0  0
 41 84  2  0  0  0  0
 42 45  1  0  0  0  0
 43 52  1  0  0  0  0
 44 71  1  0  0  0  0
 45 47  1  0  0  0  0
 46 48  1  0  0  0  0
 46 49  1  0  0  0  0
 47 51  1  0  0  0  0
 48 53  1  0  0  0  0
 49 72  1  0  0  0  0
 50 53  1  0  0  0  0
 50 72  1  0  0  0  0
 51 76  1  0  0  0  0
 52 71  1  0  0  0  0
 53 70  1  0  0  0  0
 54 64  1  0  0  0  0
 55 67  1  0  0  0  0
 56 68  1  0  0  0  0
 57 68  1  0  0  0  0
 58 68  1  0  0  0  0
 59 78  1  0  0  0  0
 60 63  1  0  0  0  0
 61 64  1  0  0  0  0
 62 65  1  0  0  0  0
 65 87  1  0  0  0  0
 66 68  1  0  0  0  0
 66 77  1  0  0  0  0
 67 78  1  0  0  0  0
 69 70  1  0  0  0  0
M  CHG  1  78   1
M  ISO  4  41 100  65 101  75 100  87 101
M  END
> <Batch ID>
0130

> <Smiles>
CCCc1c(CCC(=O)CC(=O)C[101CH2:1][101O:1]c2ccc3c(c2)CN(C(=O)C(NC(=O)C(C)NC)C(C)(C)C)C(C(=O)NC2CCCc4ccccc42)C3)cccc1[100NH:0][100C:0](=O)N1CCCC(n2nc(-c3ccc(Oc4ccc(F)cc4F)cc3)c(C(N)=O)c2N)C1

> <Shape>
0.247

> <Color>
0.096

> <Negative vol penalty>
0.000

$$$$

  -OEChem-04052302223D

 86 95  0     1  0  0  0  0  0999 V2000
  -29.7663  -34.7794   25.1060 C   0  0  0  0  0  0  0  0  0  0  0  0
  -29.7187  -33.5196   24.5177 C   0  0  0  0  0  0  0  0  0  0  0  0
  -22.5879  -10.2344   21.5539 C   0  0  0  0  0  0  0  0  0  0  0  0
  -24.4287   -8.8683   22.3171 C   0  0  0  0  0  0  0  0  0  0  0  0
  -30.2738  -19.6484   18.1494 C   0  0  0  0  0  0  0  0  0  0  0  0
  -28.6262  -35.3097   25.7083 C   0  0  0  0  0  0  0  0  0  0  0  0
  -28.5311  -32.7890   24.5323 C   0  0  0  0  0  0  0  0  0  0  0  0
  -27.4985  -30.6699   20.0503 C   0  0  0  0  0  0  0  0  0  0  0  0
  -31.1584  -20.5265   17.5233 C   0  0  0  0  0  0  0  0  0  0  0  0
  -21.8534   -9.0840   21.2664 C   0  0  0  0  0  0  0  0  0  0  0  0
  -23.6941   -7.7179   22.0297 C   0  0  0  0  0  0  0  0  0  0  0  0
  -28.1988  -29.5112   19.7174 C   0  0  0  0  0  0  0  0  0  0  0  0
  -21.1983   -5.9380   23.4522 C   0  0  0  0  0  0  0  0  0  0  0  0
  -21.1934   -4.9192   24.4049 C   0  0  0  0  0  0  0  0  0  0  0  0
  -29.6442  -21.3894   19.7018 C   0  0  0  0  0  0  0  0  0  0  0  0
  -26.2950  -28.1806   20.3687 C   0  0  0  0  0  0  0  0  0  0  0  0
  -22.1617   -3.4049   22.7904 C   0  0  0  0  0  0  0  0  0  0  0  0
  -23.8756  -10.1265   22.0792 C   0  0  0  0  0  0  0  0  0  0  0  0
  -29.5166  -20.0798   19.2386 C   0  0  0  0  0  0  0  0  0  0  0  0
  -24.6602  -12.0264   23.5901 C   0  0  0  0  0  0  0  0  0  0  0  0
  -27.4214  -34.5893   25.7218 C   0  0  0  0  0  0  0  0  0  0  0  0
  -26.1930  -30.5919   20.5561 C   0  0  0  0  0  0  0  0  0  0  0  0
  -27.3741  -33.3096   25.1365 C   0  0  0  0  0  0  0  0  0  0  0  0
  -25.5794  -29.3399   20.7049 C   0  0  0  0  0  0  0  0  0  0  0  0
  -31.2860  -21.8360   17.9865 C   0  0  0  0  0  0  0  0  0  0  0  0
  -30.5289  -22.2675   19.0757 C   0  0  0  0  0  0  0  0  0  0  0  0
  -22.4064   -7.8258   21.5043 C   0  0  0  0  0  0  0  0  0  0  0  0
  -27.5981  -28.2662   19.8793 C   0  0  0  0  0  0  0  0  0  0  0  0
  -21.6849   -5.6903   22.1686 C   0  0  0  0  0  0  0  0  0  0  0  0
  -21.6751   -3.6526   24.0740 C   0  0  0  0  0  0  0  0  0  0  0  0
  -22.1666   -4.4237   21.8377 C   0  0  0  0  0  0  0  0  0  0  0  0
  -24.6351  -11.3145   22.3758 C   0  0  0  0  0  0  0  0  0  0  0  0
  -25.5280  -13.0660   23.3607 C   0  0  0  0  0  0  0  0  0  0  0  0
  -30.2013  -25.7965   19.9758 C   0  0  0  0  0  0  0  0  0  0  0  0
  -28.5942  -19.1638   19.8911 C   0  0  0  0  0  0  0  0  0  0  0  0
  -29.4505  -26.8774   20.2125 C   0  0  0  0  0  0  0  0  0  1  0  0
  -28.0932  -18.0355   19.3447 C   0  0  0  0  0  0  0  0  0  0  0  0
  -23.9616  -11.7706   24.8158 C   0  0  0  0  0  0  0  0  0  0  0  0
  -27.1712  -17.2014   20.1415 C   0  0  0  0  0  0  0  0  0  0  0  0
  -24.7904  -31.4272   23.2835 C   0  0  0  0  0  0  0  0  0  0  0  0
  -22.0923  -30.5445   21.7138 C   0  0  0  0  0  0  0  0  0  0  0  0
  -20.6595  -28.6938   19.2302 C   0  0  0  0  0  0  0  0  0  0  0  0
  -26.2279  -35.1840   26.4264 C   0  0  0  0  0  0  0  0  0  0  0  0
  -25.4414  -31.8525   20.8853 C   0  0  0  0  0  0  0  0  0  0  0  0
  -24.1725  -29.2031   21.2248 C   0  0  0  0  0  0  0  0  0  0  0  0
  -31.4877  -25.4741   20.6680 C   0  0  0  0  0  0  0  0  0  0  0  0
  -29.8217  -24.6686   19.0641 C   0  0  0  0  0  0  0  0  0  0  0  0
  -24.9087  -34.5036   26.0699 C   0  0  0  0  0  0  0  0  0  0  0  0
  -28.7169  -13.9312   19.5512 C   0  0  0  0  0  0  0  0  0  0  0  0
  -25.0584  -32.9866   26.1258 C   0  0  0  0  0  0  0  0  0  0  0  0
  -27.7561  -13.0126   20.3013 C   0  0  0  0  0  0  0  0  0  0  0  0
  -31.5036  -23.9481   20.6617 C   0  0  0  0  0  0  0  0  0  0  0  0
  -27.9944  -15.1186   18.9166 C   0  0  0  0  0  0  0  0  0  0  0  0
  -26.2137  -14.9849   20.6346 C   0  0  0  0  0  0  0  0  0  0  0  0
  -26.0978  -32.4969   25.1103 C   0  0  1  0  0  0  0  0  0  0  0  0
  -24.3034  -31.6282   21.8763 C   0  0  1  0  0  0  0  0  0  0  0  0
  -26.9260  -13.8088   21.3207 C   0  0  1  0  0  0  0  0  0  0  0  0
  -33.6906  -22.4778   17.6825 C   0  0  0  0  0  0  0  0  0  0  0  0
  -18.4298  -28.1493   18.2155 C   0  0  0  0  0  0  0  0  0  0  0  0
  -21.4680  -28.7142   24.0739 C   0  0  0  0  0  0  0  0  0  0  0  0
  -19.8047  -27.5295   22.6254 C   0  0  0  0  0  0  0  0  0  0  0  0
  -19.4936  -29.9465   23.1586 C   0  0  0  0  0  0  0  0  0  0  0  0
  -21.4566  -29.7953   16.6015 C   0  0  0  0  0  0  0  0  0  0  0  0
  -32.2410  -22.7550   17.2967 C   0  0  0  0  0  0  0  0  0  0  0  0
  -21.3214  -29.2565   21.5539 C   0  0  1  0  0  0  0  0  0  0  0  0
  -19.6480  -29.0578   18.1583 C   0  0  2  0  0  0  0  0  0  0  0  0
  -20.5492  -28.8638   22.8450 C   0  0  0  0  0  0  0  0  0  0  0  0
  -25.4241  -11.8562   21.4441 N   0  0  0  0  0  0  0  0  0  0  0  0
  -25.9531  -12.9196   22.0731 N   0  0  0  0  0  0  0  0  0  0  0  0
  -30.6425  -23.5608   19.5468 N   0  0  3  0  0  0  0  0  0  0  0  0
  -27.1613  -15.8291   19.8984 N   0  0  0  0  0  0  0  0  0  0  0  0
  -23.4811  -30.4645   21.5387 N   0  0  0  0  0  0  0  0  0  0  0  0
  -25.9611  -14.0821   24.1369 N   0  0  0  0  0  0  0  0  0  0  0  0
  -23.1096  -10.6597   24.8799 N   0  0  0  0  0  0  0  0  0  0  0  0
  -25.5342  -32.4819   23.7774 N   0  0  0  0  0  0  0  0  0  0  0  0
  -20.4730  -29.4316   20.3801 N   0  0  0  0  0  0  0  0  0  0  0  0
  -20.2611  -28.9374   16.8053 N   0  3  0  0  0  0  0  0  0  0  0  0
  -24.0766  -12.5149   25.8189 O   0  0  0  0  0  0  0  0  0  0  0  0
  -26.4615  -17.7723   20.9716 O   0  0  0  0  0  0  0  0  0  0  0  0
  -24.5107  -30.3926   23.8776 O   0  0  0  0  0  0  0  0  0  0  0  0
  -21.4839  -31.5848   21.9771 O   0  0  0  0  0  0  0  0  0  0  0  0
  -21.5258  -27.8377   19.0654 O   0  0  0  0  0  0  0  0  0  0  0  0
  -21.6898   -6.7030   21.2242 O   0  0  0  0  0  0  0  0  0  0  0  0
  -28.2797  -27.1336   19.5557 O   0  0  0  0  0  0  0  0  0  1  0  0
  -21.6717   -2.6748   24.9894 F   0  0  0  0  0  0  0  0  0  0  0  0
  -22.6364   -4.1801   20.6066 F   0  0  0  0  0  0  0  0  0  0  0  0
  1  2  1  0  0  0  0
  1  6  2  0  0  0  0
  2  7  2  0  0  0  0
  3 10  2  0  0  0  0
  3 18  1  0  0  0  0
  4 11  1  0  0  0  0
  4 18  2  0  0  0  0
  5  9  2  0  0  0  0
  5 19  1  0  0  0  0
  6 21  1  0  0  0  0
  7 23  1  0  0  0  0
  8 12  2  0  0  0  0
  8 22  1  0  0  0  0
  9 25  1  0  0  0  0
 10 27  1  0  0  0  0
 11 27  2  0  0  0  0
 12 28  1  0  0  0  0
 13 14  2  0  0  0  0
 13 29  1  0  0  0  0
 14 30  1  0  0  0  0
 15 19  2  0  0  0  0
 15 26  1  0  0  0  0
 16 24  1  0  0  0  0
 16 28  2  0  0  0  0
 17 30  2  0  0  0  0
 17 31  1  0  0  0  0
 18 32  1  0  0  0  0
 19 35  1  0  0  0  0
 20 32  1  0  0  0  0
 20 33  2  0  0  0  0
 20 38  1  0  0  0  0
 21 23  2  0  0  0  0
 21 43  1  0  0  0  0
 22 24  2  0  0  0  0
 22 44  1  0  0  0  0
 23 55  1  0  0  0  0
 24 45  1  0  0  0  0
 25 26  2  0  0  0  0
 25 64  1  0  0  0  0
 26 70  1  0  0  0  0
 27 83  1  0  0  0  0
 28 84  1  0  0  0  0
 29 31  2  0  0  0  0
 29 83  1  0  0  0  0
 30 85  1  0  0  0  0
 31 86  1  0  0  0  0
 32 68  2  0  0  0  0
 33 69  1  0  0  0  0
 33 73  1  0  0  0  0
 34 36  2  0  0  0  0
 34 46  1  0  0  0  0
 34 47  1  0  0  0  0
 35 37  2  0  0  0  0
 36 84  1  0  0  0  0
 37 39  1  0  0  0  0
 38 74  1  0  0  0  0
 38 78  2  0  0  0  0
 39 71  1  0  0  0  0
 39 79  2  0  0  0  0
 40 56  1  0  0  0  0
 40 75  1  0  0  0  0
 40 80  2  0  0  0  0
 41 65  1  0  0  0  0
 41 72  1  0  0  0  0
 41 81  2  0  0  0  0
 42 66  1  0  0  0  0
 42 76  1  0  0  0  0
 42 82  2  0  0  0  0
 43 48  1  0  0  0  0
 44 56  1  0  0  0  0
 45 72  1  0  0  0  0
 46 52  1  0  0  0  0
 47 70  1  0  0  0  0
 48 50  1  0  0  0  0
 49 51  1  0  0  0  0
 49 53  1  0  0  0  0
 50 55  1  0  0  0  0
 51 57  1  0  0  0  0
 52 70  1  0  0  0  0
 53 71  1  0  0  0  0
 54 57  1  0  0  0  0
 54 71  1  0  0  0  0
 55 75  1  0  0  0  0
 56 72  1  0  0  0  0
 57 69  1  0  0  0  0
 58 64  1  0  0  0  0
 59 66  1  0  0  0  0
 60 67  1  0  0  0  0
 61 67  1  0  0  0  0
 62 67  1  0  0  0  0
 63 77  1  0  0  0  0
 65 67  1  0  0  0  0
 65 76  1  0  0  0  0
 66 77  1  0  0  0  0
 68 69  1  0  0  0  0
M  CHG  1  77   1
M  ISO  4  36 101  37 100  39 100  84 101
M  END
> <Batch ID>
0130

> <Smiles>
CCc1ccc(C=[100CH:0][100C:0](=O)N2CCCC(n3nc(-c4ccc(Oc5ccc(F)cc5F)cc4)c(C(N)=O)c3N)C2)cc1N1CCC(=[101CH:1][101O:1]c2ccc3c(c2)CN(C(=O)C(NC(=O)C(C)NC)C(C)(C)C)C(C(=O)NC2CCCc4ccccc42)C3)C1

> <Shape>
0.330

> <Color>
0.086

> <Negative vol penalty>
0.000

$$$$

  -OEChem-04052302223D

 82 90  0     1  0  0  0  0  0999 V2000
  -29.6602  -33.3846   25.3848 C   0  0  0  0  0  0  0  0  0  0  0  0
  -29.4709  -32.1244   24.8268 C   0  0  0  0  0  0  0  0  0  0  0  0
  -23.5060   -9.7630   21.8331 C   0  0  0  0  0  0  0  0  0  0  0  0
  -24.2199  -11.0278   23.7639 C   0  0  0  0  0  0  0  0  0  0  0  0
  -28.6218  -19.0822   20.6042 C   0  0  0  0  0  0  0  0  0  0  0  0
  -28.1614  -19.1655   18.2339 C   0  0  0  0  0  0  0  0  0  0  0  0
  -28.5608  -34.1316   25.8058 C   0  0  0  0  0  0  0  0  0  0  0  0
  -28.1820  -31.6099   24.6906 C   0  0  0  0  0  0  0  0  0  0  0  0
  -27.4084  -29.4820   20.1608 C   0  0  0  0  0  0  0  0  0  0  0  0
  -27.9130  -20.2700   20.7837 C   0  0  0  0  0  0  0  0  0  0  0  0
  -27.4525  -20.3534   18.4134 C   0  0  0  0  0  0  0  0  0  0  0  0
  -22.9093   -8.8209   22.6709 C   0  0  0  0  0  0  0  0  0  0  0  0
  -23.6231  -10.0856   24.6017 C   0  0  0  0  0  0  0  0  0  0  0  0
  -27.9315  -28.2054   19.9593 C   0  0  0  0  0  0  0  0  0  0  0  0
  -20.0607   -8.5376   24.4704 C   0  0  0  0  0  0  0  0  0  0  0  0
  -18.7785   -8.0978   24.1417 C   0  0  0  0  0  0  0  0  0  0  0  0
  -25.7521  -27.2547   20.3662 C   0  0  0  0  0  0  0  0  0  0  0  0
  -19.6009   -5.8330   23.9638 C   0  0  0  0  0  0  0  0  0  0  0  0
  -24.1614  -10.8665   22.3796 C   0  0  0  0  0  0  0  0  0  0  0  0
  -28.7460  -18.5300   19.3293 C   0  0  0  0  0  0  0  0  0  0  0  0
  -24.1843  -12.9969   20.9767 C   0  0  0  0  0  0  0  0  0  0  0  0
  -27.2572  -33.6301   25.6658 C   0  0  0  0  0  0  0  0  0  0  0  0
  -26.0533  -29.6540   20.4778 C   0  0  0  0  0  0  0  0  0  0  0  0
  -27.0642  -32.3503   25.1114 C   0  0  0  0  0  0  0  0  0  0  0  0
  -25.2137  -28.5347   20.5688 C   0  0  0  0  0  0  0  0  0  0  0  0
  -27.3283  -20.9056   19.6883 C   0  0  0  0  0  0  0  0  0  0  0  0
  -22.9678   -8.9822   24.0552 C   0  0  0  0  0  0  0  0  0  0  0  0
  -27.1039  -27.0914   20.0649 C   0  0  0  0  0  0  0  0  0  0  0  0
  -21.1131   -7.6251   24.5457 C   0  0  0  0  0  0  0  0  0  0  0  0
  -18.5485   -6.7455   23.8884 C   0  0  0  0  0  0  0  0  0  0  0  0
  -20.8832   -6.2729   24.2924 C   0  0  0  0  0  0  0  0  0  0  0  0
  -24.7786  -11.8397   21.5148 C   0  0  0  0  0  0  0  0  0  0  0  0
  -25.1794  -13.5780   20.2292 C   0  0  0  0  0  0  0  0  0  0  0  0
  -29.4852  -17.2914   19.1419 C   0  0  0  0  0  0  0  0  0  0  0  0
  -29.7643  -16.3918   20.1092 C   0  0  0  0  0  0  0  0  0  0  0  0
  -22.8521  -13.5015   21.1382 C   0  0  0  0  0  0  0  0  0  0  0  0
  -30.5213  -15.1688   19.7566 C   0  0  0  0  0  0  0  0  0  0  0  0
  -24.4639  -30.8504   22.9570 C   0  0  0  0  0  0  0  0  0  0  0  0
  -27.4221  -23.4308   19.7587 C   0  0  0  0  0  0  0  0  0  0  0  0
  -21.8904  -30.3676   21.0423 C   0  0  0  0  0  0  0  0  0  0  0  0
  -20.5030  -28.6704   18.4266 C   0  0  0  0  0  0  0  0  0  0  0  0
  -26.1032  -34.4545   26.1789 C   0  0  0  0  0  0  0  0  0  0  0  0
  -25.4987  -31.0395   20.6658 C   0  0  0  0  0  0  0  0  0  0  0  0
  -23.7475  -28.6669   20.8868 C   0  0  0  0  0  0  0  0  0  0  0  0
  -24.7452  -33.9937   25.6555 C   0  0  0  0  0  0  0  0  0  0  0  0
  -29.6889  -11.8170   18.7926 C   0  0  0  0  0  0  0  0  0  0  0  0
  -24.6155  -32.4782   25.7694 C   0  0  0  0  0  0  0  0  0  0  0  0
  -28.3044  -11.6070   19.4048 C   0  0  0  0  0  0  0  0  0  0  0  0
  -30.5598  -12.7070   19.6735 C   0  0  0  0  0  0  0  0  0  0  0  0
  -28.5527  -13.8254   20.6059 C   0  0  0  0  0  0  0  0  0  0  0  0
  -25.6799  -31.7683   24.9241 C   0  0  1  0  0  0  0  0  0  0  0  0
  -24.2154  -31.0626   21.4904 C   0  0  1  0  0  0  0  0  0  0  0  0
  -27.6349  -12.9539   19.7309 C   0  0  2  0  0  0  0  0  0  0  0  0
  -18.3707  -28.4673   17.1192 C   0  0  0  0  0  0  0  0  0  0  0  0
  -20.6384  -28.7895   23.3341 C   0  0  0  0  0  0  0  0  0  0  0  0
  -19.0038  -27.8381   21.6936 C   0  0  0  0  0  0  0  0  0  0  0  0
  -19.0554  -30.2958   22.1176 C   0  0  0  0  0  0  0  0  0  0  0  0
  -21.8311  -29.4886   15.9115 C   0  0  0  0  0  0  0  0  0  0  0  0
  -26.5612  -22.1869   19.8832 C   0  0  0  0  0  0  0  0  0  0  0  0
  -26.7074  -24.7475   19.9929 C   0  0  0  0  0  0  0  0  0  1  0  0
  -20.9329  -29.2246   20.8062 C   0  0  1  0  0  0  0  0  0  0  0  0
  -19.7266  -29.1495   17.2133 C   0  0  2  0  0  0  0  0  0  0  0  0
  -19.9356  -29.0340   21.9838 C   0  0  0  0  0  0  0  0  0  0  0  0
  -26.0524  -11.6926   21.1408 N   0  0  0  0  0  0  0  0  0  0  0  0
  -26.2666  -12.7650   20.3596 N   0  0  0  0  0  0  0  0  0  0  0  0
  -29.8803  -13.9608   19.9935 N   0  0  0  0  0  0  0  0  0  0  0  0
  -23.2539  -30.0420   21.0682 N   0  0  0  0  0  0  0  0  0  0  0  0
  -25.2215  -14.6999   19.4796 N   0  0  0  0  0  0  0  0  0  0  0  0
  -21.9572  -12.7805   21.9405 N   0  0  0  0  0  0  0  0  0  0  0  0
  -25.3084  -31.7847   23.5255 N   0  0  0  0  0  0  0  0  0  0  0  0
  -20.2958  -29.4848   19.5198 N   0  0  0  0  0  0  0  0  0  0  0  0
  -20.4863  -28.8595   15.9645 N   0  3  0  0  0  0  0  0  0  0  0  0
  -22.4617  -14.5518   20.5742 O   0  0  0  0  0  0  0  0  0  0  0  0
  -31.6381  -15.3554   19.2917 O   0  0  0  0  0  0  0  0  0  0  0  0
  -23.9279  -29.9095   23.5307 O   0  0  0  0  0  0  0  0  0  0  0  0
  -28.6210  -23.3868   19.4857 O   0  0  0  0  0  0  0  0  0  0  0  0
  -21.4453  -31.5084   21.1908 O   0  0  0  0  0  0  0  0  0  0  0  0
  -21.2187  -27.6714   18.4075 O   0  0  0  0  0  0  0  0  0  0  0  0
  -22.3853   -8.0632   24.8729 O   0  0  0  0  0  0  0  0  0  0  0  0
  -27.6121  -25.8442   19.8694 O   0  0  0  0  0  0  0  0  0  1  0  0
  -17.3169   -6.3230   23.5743 F   0  0  0  0  0  0  0  0  0  0  0  0
  -21.8900   -5.3914   24.3644 F   0  0  0  0  0  0  0  0  0  0  0  0
  1  2  1  0  0  0  0
  1  7  2  0  0  0  0
  2  8  2  0  0  0  0
  3 12  2  0  0  0  0
  3 19  1  0  0  0  0
  4 13  1  0  0  0  0
  4 19  2  0  0  0  0
  5 10  2  0  0  0  0
  5 20  1  0  0  0  0
  6 11  1  0  0  0  0
  6 20  2  0  0  0  0
  7 22  1  0  0  0  0
  8 24  1  0  0  0  0
  9 14  2  0  0  0  0
  9 23  1  0  0  0  0
 10 26  1  0  0  0  0
 11 26  2  0  0  0  0
 12 27  1  0  0  0  0
 13 27  2  0  0  0  0
 14 28  1  0  0  0  0
 15 16  2  0  0  0  0
 15 29  1  0  0  0  0
 16 30  1  0  0  0  0
 17 25  1  0  0  0  0
 17 28  2  0  0  0  0
 18 30  2  0  0  0  0
 18 31  1  0  0  0  0
 19 32  1  0  0  0  0
 20 34  1  0  0  0  0
 21 32  1  0  0  0  0
 21 33  2  0  0  0  0
 21 36  1  0  0  0  0
 22 24  2  0  0  0  0
 22 42  1  0  0  0  0
 23 25  2  0  0  0  0
 23 43  1  0  0  0  0
 24 51  1  0  0  0  0
 25 44  1  0  0  0  0
 26 59  1  0  0  0  0
 27 79  1  0  0  0  0
 28 80  1  0  0  0  0
 29 31  2  0  0  0  0
 29 79  1  0  0  0  0
 30 81  1  0  0  0  0
 31 82  1  0  0  0  0
 32 64  2  0  0  0  0
 33 65  1  0  0  0  0
 33 68  1  0  0  0  0
 34 35  2  0  0  0  0
 35 37  1  0  0  0  0
 36 69  1  0  0  0  0
 36 73  2  0  0  0  0
 37 66  1  0  0  0  0
 37 74  2  0  0  0  0
 38 52  1  0  0  0  0
 38 70  1  0  0  0  0
 38 75  2  0  0  0  0
 39 59  1  0  0  0  0
 39 60  1  0  0  0  0
 39 76  2  0  0  0  0
 40 61  1  0  0  0  0
 40 67  1  0  0  0  0
 40 77  2  0  0  0  0
 41 62  1  0  0  0  0
 41 71  1  0  0  0  0
 41 78  2  0  0  0  0
 42 45  1  0  0  0  0
 43 52  1  0  0  0  0
 44 67  1  0  0  0  0
 45 47  1  0  0  0  0
 46 48  1  0  0  0  0
 46 49  1  0  0  0  0
 47 51  1  0  0  0  0
 48 53  1  0  0  0  0
 49 66  1  0  0  0  0
 50 53  1  0  0  0  0
 50 66  1  0  0  0  0
 51 70  1  0  0  0  0
 52 67  1  0  0  0  0
 53 65  1  0  0  0  0
 54 62  1  0  0  0  0
 55 63  1  0  0  0  0
 56 63  1  0  0  0  0
 57 63  1  0  0  0  0
 58 72  1  0  0  0  0
 60 80  1  0  0  0  0
 61 63  1  0  0  0  0
 61 71  1  0  0  0  0
 62 72  1  0  0  0  0
 64 65  1  0  0  0  0
M  CHG  1  72   1
M  ISO  4  35 100  37 100  60 101  80 101
M  END
> <Batch ID>
0130

> <Smiles>
CNC(C)C(=O)NC(C(=O)N1Cc2cc([101O:1][101CH2:1]C(=O)Cc3ccc(C=[100CH:0][100C:0](=O)N4CCCC(n5nc(-c6ccc(Oc7ccc(F)cc7F)cc6)c(C(N)=O)c5N)C4)cc3)ccc2CC1C(=O)NC1CCCc2ccccc21)C(C)(C)C

> <Shape>
0.341

> <Color>
0.180

> <Negative vol penalty>
0.000

$$$$

  -OEChem-04052302223D

 84 92  0     1  0  0  0  0  0999 V2000
  -21.4177  -10.0081   21.3788 C   0  0  0  0  0  0  0  0  0  0  0  0
  -21.2865  -11.3246   21.8090 C   0  0  0  0  0  0  0  0  0  0  0  0
  -29.0361  -26.1055   20.6320 C   0  0  0  0  0  0  0  0  0  0  0  0
  -27.0415  -24.7982   20.2453 C   0  0  0  0  0  0  0  0  0  0  0  0
  -22.6006   -9.5890   20.7714 C   0  0  0  0  0  0  0  0  0  0  0  0
  -22.3387  -12.2226   21.6329 C   0  0  0  0  0  0  0  0  0  0  0  0
  -20.7883  -16.7110   19.8735 C   0  0  0  0  0  0  0  0  0  0  0  0
  -18.4949  -25.9112   21.3768 C   0  0  0  0  0  0  0  0  0  0  0  0
  -18.9034  -27.2447   21.3961 C   0  0  0  0  0  0  0  0  0  0  0  0
  -29.7263  -24.9471   20.9886 C   0  0  0  0  0  0  0  0  0  0  0  0
  -27.7317  -23.6397   20.6019 C   0  0  0  0  0  0  0  0  0  0  0  0
  -20.2041  -17.5861   20.7881 C   0  0  0  0  0  0  0  0  0  0  0  0
  -29.9818  -22.9326   23.6906 C   0  0  0  0  0  0  0  0  0  0  0  0
  -30.7856  -22.9826   24.8295 C   0  0  0  0  0  0  0  0  0  0  0  0
  -22.2881  -18.7888   20.9595 C   0  0  0  0  0  0  0  0  0  0  0  0
  -19.2692  -25.6411   23.6494 C   0  0  0  0  0  0  0  0  0  0  0  0
  -32.7188  -22.4316   23.4893 C   0  0  0  0  0  0  0  0  0  0  0  0
  -27.6936  -26.0311   20.2604 C   0  0  0  0  0  0  0  0  0  0  0  0
  -26.8633  -27.7859   18.6054 C   0  0  0  0  0  0  0  0  0  0  0  0
  -23.6642  -10.4848   20.5790 C   0  0  0  0  0  0  0  0  0  0  0  0
  -22.1322  -16.8619   19.5026 C   0  0  0  0  0  0  0  0  0  0  0  0
  -23.5375  -11.8147   21.0235 C   0  0  0  0  0  0  0  0  0  0  0  0
  -22.8863  -17.9158   20.0380 C   0  0  0  0  0  0  0  0  0  0  0  0
  -18.6778  -25.1094   22.5035 C   0  0  0  0  0  0  0  0  0  0  0  0
  -19.4949  -27.7765   22.5420 C   0  0  0  0  0  0  0  0  0  0  0  0
  -19.6778  -26.9746   23.6686 C   0  0  0  0  0  0  0  0  0  0  0  0
  -29.0741  -23.7142   20.9735 C   0  0  0  0  0  0  0  0  0  0  0  0
  -20.9548  -18.6235   21.3335 C   0  0  0  0  0  0  0  0  0  0  0  0
  -30.5465  -22.6320   22.4511 C   0  0  0  0  0  0  0  0  0  0  0  0
  -32.1541  -22.7322   24.7288 C   0  0  0  0  0  0  0  0  0  0  0  0
  -31.9150  -22.3815   22.3504 C   0  0  0  0  0  0  0  0  0  0  0  0
  -26.9800  -27.2275   19.8925 C   0  0  0  0  0  0  0  0  0  0  0  0
  -26.0918  -28.9078   18.7866 C   0  0  0  0  0  0  0  0  0  0  0  0
  -19.3194  -22.7448   22.0031 C   0  0  0  0  0  0  0  0  0  0  0  0
  -19.8026  -21.7246   22.7275 C   0  0  0  0  0  0  0  0  0  0  0  0
  -27.4038  -27.3311   17.3578 C   0  0  0  0  0  0  0  0  0  0  0  0
  -24.7453  -15.0705   19.7609 C   0  0  0  0  0  0  0  0  0  0  0  0
  -26.0679  -17.4307   17.9715 C   0  0  0  0  0  0  0  0  0  0  0  0
  -25.9863  -20.6875   16.9548 C   0  0  0  0  0  0  0  0  0  0  0  0
  -22.0409  -30.4472   22.9183 C   0  0  0  0  0  0  0  0  0  0  0  0
  -24.9411   -9.9735   19.9602 C   0  0  0  0  0  0  0  0  0  0  0  0
  -22.7401  -15.9257   18.4944 C   0  0  0  0  0  0  0  0  0  0  0  0
  -24.3272  -18.1333   19.6572 C   0  0  0  0  0  0  0  0  0  0  0  0
  -25.8687  -11.0835   19.4725 C   0  0  0  0  0  0  0  0  0  0  0  0
  -25.0098  -32.2184   22.0667 C   0  0  0  0  0  0  0  0  0  0  0  0
  -26.0028  -12.1715   20.5332 C   0  0  0  0  0  0  0  0  0  0  0  0
  -25.8408  -31.1906   21.2968 C   0  0  0  0  0  0  0  0  0  0  0  0
  -24.2290  -31.5717   23.2087 C   0  0  0  0  0  0  0  0  0  0  0  0
  -24.2167  -29.4004   22.0428 C   0  0  0  0  0  0  0  0  0  0  0  0
  -24.6472  -12.8249   20.8278 C   0  0  1  0  0  0  0  0  0  0  0  0
  -24.2620  -15.8627   18.5791 C   0  0  1  0  0  0  0  0  0  0  0  0
  -24.9784  -29.9962   20.8464 C   0  0  2  0  0  0  0  0  0  0  0  0
  -19.2827  -27.8239   25.9944 C   0  0  0  0  0  0  0  0  0  0  0  0
  -27.2211  -22.3347   15.5196 C   0  0  0  0  0  0  0  0  0  0  0  0
  -28.2322  -17.6673   20.1092 C   0  0  0  0  0  0  0  0  0  0  0  0
  -28.8535  -19.8885   19.1353 C   0  0  0  0  0  0  0  0  0  0  0  0
  -29.0680  -17.8204   17.7571 C   0  0  0  0  0  0  0  0  0  0  0  0
  -23.6307  -21.1131   15.2145 C   0  0  0  0  0  0  0  0  0  0  0  0
  -18.2364  -23.6674   22.4822 C   0  0  0  0  0  0  0  0  0  0  0  0
  -20.3090  -27.5221   24.9066 C   0  0  0  0  0  0  0  0  0  0  0  0
  -19.9252  -29.2066   22.5386 C   0  0  0  0  0  0  0  0  0  0  0  0
  -20.8889  -20.8142   22.2567 C   0  0  0  0  0  0  0  0  0  1  0  0
  -26.7675  -18.7347   18.2704 C   0  0  1  0  0  0  0  0  0  0  0  0
  -26.0937  -21.3156   15.5770 C   0  0  2  0  0  0  0  0  0  0  0  0
  -28.2037  -18.5227   18.8269 C   0  0  0  0  0  0  0  0  0  0  0  0
  -26.3345  -27.9363   20.8225 N   0  0  0  0  0  0  0  0  0  0  0  0
  -25.8049  -28.9517   20.1192 N   0  0  0  0  0  0  0  0  0  0  0  0
  -24.8783  -17.1877   18.6724 N   0  0  0  0  0  0  0  0  0  0  0  0
  -23.4307  -30.4472   22.7144 N   0  0  0  0  0  0  0  0  0  0  0  0
  -25.6379  -29.8512   17.9343 N   0  0  0  0  0  0  0  0  0  0  0  0
  -28.1737  -26.1600   17.3504 N   0  0  0  0  0  0  0  0  0  0  0  0
  -24.3000  -13.7625   19.7816 N   0  0  0  0  0  0  0  0  0  0  0  0
  -26.7125  -19.5185   17.0412 N   0  0  0  0  0  0  0  0  0  0  0  0
  -21.3588  -29.3472   22.4128 N   0  0  0  0  0  0  0  0  0  0  0  0
  -24.8203  -22.0029   15.2204 N   0  3  0  0  0  0  0  0  0  0  0  0
  -27.2234  -27.9540   16.2840 O   0  0  0  0  0  0  0  0  0  0  0  0
  -25.4697  -15.6059   20.5917 O   0  0  0  0  0  0  0  0  0  0  0  0
  -26.5553  -16.6595   17.1412 O   0  0  0  0  0  0  0  0  0  0  0  0
  -25.3275  -21.1861   17.8647 O   0  0  0  0  0  0  0  0  0  0  0  0
  -21.4509  -31.3624   23.5025 O   0  0  0  0  0  0  0  0  0  0  0  0
  -29.7473  -22.5835   21.3212 O   0  0  0  0  0  0  0  0  0  0  0  0
  -20.3872  -19.4786   22.2270 O   0  0  0  0  0  0  0  0  0  1  0  0
  -32.9261  -22.7818   25.8223 F   0  0  0  0  0  0  0  0  0  0  0  0
  -32.4634  -22.0934   21.1621 F   0  0  0  0  0  0  0  0  0  0  0  0
  1  2  1  0  0  0  0
  1  5  2  0  0  0  0
  2  6  2  0  0  0  0
  3 10  2  0  0  0  0
  3 18  1  0  0  0  0
  4 11  1  0  0  0  0
  4 18  2  0  0  0  0
  5 20  1  0  0  0  0
  6 22  1  0  0  0  0
  7 12  2  0  0  0  0
  7 21  1  0  0  0  0
  8  9  2  0  0  0  0
  8 24  1  0  0  0  0
  9 25  1  0  0  0  0
 10 27  1  0  0  0  0
 11 27  2  0  0  0  0
 12 28  1  0  0  0  0
 13 14  2  0  0  0  0
 13 29  1  0  0  0  0
 14 30  1  0  0  0  0
 15 23  1  0  0  0  0
 15 28  2  0  0  0  0
 16 24  2  0  0  0  0
 16 26  1  0  0  0  0
 17 30  2  0  0  0  0
 17 31  1  0  0  0  0
 18 32  1  0  0  0  0
 19 32  1  0  0  0  0
 19 33  2  0  0  0  0
 19 36  1  0  0  0  0
 20 22  2  0  0  0  0
 20 41  1  0  0  0  0
 21 23  2  0  0  0  0
 21 42  1  0  0  0  0
 22 50  1  0  0  0  0
 23 43  1  0  0  0  0
 24 59  1  0  0  0  0
 25 26  2  0  0  0  0
 25 61  1  0  0  0  0
 26 60  1  0  0  0  0
 27 81  1  0  0  0  0
 28 82  1  0  0  0  0
 29 31  2  0  0  0  0
 29 81  1  0  0  0  0
 30 83  1  0  0  0  0
 31 84  1  0  0  0  0
 32 66  2  0  0  0  0
 33 67  1  0  0  0  0
 33 70  1  0  0  0  0
 34 35  2  0  0  0  0
 34 59  1  0  0  0  0
 35 62  1  0  0  0  0
 36 71  1  0  0  0  0
 36 76  2  0  0  0  0
 37 51  1  0  0  0  0
 37 72  1  0  0  0  0
 37 77  2  0  0  0  0
 38 63  1  0  0  0  0
 38 68  1  0  0  0  0
 38 78  2  0  0  0  0
 39 64  1  0  0  0  0
 39 73  1  0  0  0  0
 39 79  2  0  0  0  0
 40 69  1  0  0  0  0
 40 74  1  0  0  0  0
 40 80  2  0  0  0  0
 41 44  1  0  0  0  0
 42 51  1  0  0  0  0
 43 68  1  0  0  0  0
 44 46  1  0  0  0  0
 45 47  1  0  0  0  0
 45 48  1  0  0  0  0
 46 50  1  0  0  0  0
 47 52  1  0  0  0  0
 48 69  1  0  0  0  0
 49 52  1  0  0  0  0
 49 69  1  0  0  0  0
 50 72  1  0  0  0  0
 51 68  1  0  0  0  0
 52 67  1  0  0  0  0
 53 60  1  0  0  0  0
 54 64  1  0  0  0  0
 55 65  1  0  0  0  0
 56 65  1  0  0  0  0
 57 65  1  0  0  0  0
 58 75  1  0  0  0  0
 61 74  1  0  0  0  0
 62 82  1  0  0  0  0
 63 65  1  0  0  0  0
 63 73  1  0  0  0  0
 64 75  1  0  0  0  0
 66 67  1  0  0  0  0
M  CHG  1  75   1
M  ISO  4  40 100  62 101  74 100  82 101
M  END
> <Batch ID>
0130

> <Smiles>
CCc1cc(CC=C[101CH2:1][101O:1]c2ccc3c(c2)CN(C(=O)C(NC(=O)C(C)NC)C(C)(C)C)C(C(=O)NC2CCCc4ccccc42)C3)ccc1C[100NH:0][100C:0](=O)N1CCCC(n2nc(-c3ccc(Oc4ccc(F)cc4F)cc3)c(C(N)=O)c2N)C1

> <Shape>
0.209

> <Color>
0.061

> <Negative vol penalty>
0.000

$$$$
