
  -OEChem-04052302253D

 84 92  0     1  0  0  0  0  0999 V2000
  -27.0595  -19.3187   17.8085 C   0  0  0  0  0  0  0  0  0  0  0  0
  -28.0752  -19.0620   18.7239 C   0  0  0  0  0  0  0  0  0  0  0  0
  -23.2911   -9.7977   19.9142 C   0  0  0  0  0  0  0  0  0  0  0  0
  -23.7447   -9.9392   22.2830 C   0  0  0  0  0  0  0  0  0  0  0  0
  -27.1817  -20.3803   16.9130 C   0  0  0  0  0  0  0  0  0  0  0  0
  -29.2142  -19.8662   18.7436 C   0  0  0  0  0  0  0  0  0  0  0  0
  -30.5865  -21.1761   23.4389 C   0  0  0  0  0  0  0  0  0  0  0  0
  -22.5676   -8.6236   20.1228 C   0  0  0  0  0  0  0  0  0  0  0  0
  -23.0211   -8.7651   22.4917 C   0  0  0  0  0  0  0  0  0  0  0  0
  -31.2587  -20.2180   24.1965 C   0  0  0  0  0  0  0  0  0  0  0  0
  -19.7764   -7.8468   22.7133 C   0  0  0  0  0  0  0  0  0  0  0  0
  -18.8755   -7.8231   23.7779 C   0  0  0  0  0  0  0  0  0  0  0  0
  -33.3567  -21.2913   23.6812 C   0  0  0  0  0  0  0  0  0  0  0  0
  -31.9632  -12.8355   26.1859 C   0  0  0  0  0  0  0  0  0  0  0  0
  -32.5179  -14.0969   23.7602 C   0  0  0  0  0  0  0  0  0  0  0  0
  -20.0866   -5.9786   24.7617 C   0  0  0  0  0  0  0  0  0  0  0  0
  -23.8797  -10.4555   20.9942 C   0  0  0  0  0  0  0  0  0  0  0  0
  -24.1332  -12.9861   20.7954 C   0  0  0  0  0  0  0  0  0  0  0  0
  -28.3185  -21.2039   16.9282 C   0  0  0  0  0  0  0  0  0  0  0  0
  -31.2966  -22.1944   22.7868 C   0  0  0  0  0  0  0  0  0  0  0  0
  -29.3523  -20.9390   17.8466 C   0  0  0  0  0  0  0  0  0  0  0  0
  -32.6909  -22.2626   22.9181 C   0  0  0  0  0  0  0  0  0  0  0  0
  -31.1841  -12.5597   25.0623 C   0  0  0  0  0  0  0  0  0  0  0  0
  -33.0196  -13.7421   26.0968 C   0  0  0  0  0  0  0  0  0  0  0  0
  -31.4615  -13.1904   23.8494 C   0  0  0  0  0  0  0  0  0  0  0  0
  -22.4326   -8.1073   21.4116 C   0  0  0  0  0  0  0  0  0  0  0  0
  -32.6442  -20.2738   24.3154 C   0  0  0  0  0  0  0  0  0  0  0  0
  -20.8324   -6.9364   22.6728 C   0  0  0  0  0  0  0  0  0  0  0  0
  -33.2969  -14.3727   24.8839 C   0  0  0  0  0  0  0  0  0  0  0  0
  -19.0306   -6.8890   24.8021 C   0  0  0  0  0  0  0  0  0  0  0  0
  -20.9875   -6.0023   23.6970 C   0  0  0  0  0  0  0  0  0  0  0  0
  -24.6276  -11.6681   20.7792 C   0  0  0  0  0  0  0  0  0  0  0  0
  -25.2326  -13.7684   20.5390 C   0  0  0  0  0  0  0  0  0  0  0  0
  -22.7994  -13.4608   21.0220 C   0  0  0  0  0  0  0  0  0  0  0  0
  -31.6980  -23.0621   19.7553 C   0  0  0  0  0  0  0  0  0  0  0  0
  -33.2619  -25.5721   21.0879 C   0  0  0  0  0  0  0  0  0  0  0  0
  -34.9762  -26.8312   23.7568 C   0  0  0  0  0  0  0  0  0  0  0  0
  -31.0958  -12.9671   21.3670 C   0  0  0  0  0  0  0  0  0  0  0  0
  -28.4267  -22.3106   15.9093 C   0  0  0  0  0  0  0  0  0  0  0  0
  -30.5541  -23.2359   21.9953 C   0  0  0  0  0  0  0  0  0  0  0  0
  -33.4978  -23.3475   22.2544 C   0  0  0  0  0  0  0  0  0  0  0  0
  -29.4979  -23.3450   16.2451 C   0  0  0  0  0  0  0  0  0  0  0  0
  -29.4567  -13.6680   18.2849 C   0  0  0  0  0  0  0  0  0  0  0  0
  -30.7951  -22.6560   16.6566 C   0  0  0  0  0  0  0  0  0  0  0  0
  -27.9865  -13.3604   18.5780 C   0  0  0  0  0  0  0  0  0  0  0  0
  -30.3930  -12.6948   18.9991 C   0  0  0  0  0  0  0  0  0  0  0  0
  -28.7031  -12.2630   20.7388 C   0  0  0  0  0  0  0  0  0  0  0  0
  -30.5920  -21.8041   17.9154 C   0  0  1  0  0  0  0  0  0  0  0  0
  -31.4265  -23.9283   20.9526 C   0  0  1  0  0  0  0  0  0  0  0  0
  -27.7237  -13.2567   20.0932 C   0  0  2  0  0  0  0  0  0  0  0  0
  -30.0591  -11.5841   25.1868 C   0  0  0  0  0  0  0  0  0  0  0  0
  -35.1925  -13.3135   27.2721 C   0  0  0  0  0  0  0  0  0  0  0  0
  -36.1632  -28.8998   24.5375 C   0  0  0  0  0  0  0  0  0  0  0  0
  -35.6344  -24.8836   19.2971 C   0  0  0  0  0  0  0  0  0  0  0  0
  -37.0672  -26.3248   20.7594 C   0  0  0  0  0  0  0  0  0  0  0  0
  -35.1598  -27.3302   19.5050 C   0  0  0  0  0  0  0  0  0  0  0  0
  -33.1239  -27.1728   26.0397 C   0  0  0  0  0  0  0  0  0  0  0  0
  -33.8437  -14.0261   27.3090 C   0  0  0  0  0  0  0  0  0  0  0  0
  -34.9526  -17.5788   25.0365 C   0  0  0  0  0  0  0  0  0  0  0  0
  -34.6337  -19.0154   24.6534 C   0  0  0  0  0  0  0  0  0  1  0  0
  -33.9954  -16.5912   24.3878 C   0  0  0  0  0  0  0  0  0  0  0  0
  -34.6886  -25.8473   21.4977 C   0  0  1  0  0  0  0  0  0  0  0  0
  -34.8448  -28.1422   24.5108 C   0  0  2  0  0  0  0  0  0  0  0  0
  -35.6228  -26.0748   20.2759 C   0  0  0  0  0  0  0  0  0  0  0  0
  -25.9390  -11.6124   20.5320 N   0  0  0  0  0  0  0  0  0  0  0  0
  -26.2779  -12.9051   20.3903 N   0  0  0  0  0  0  0  0  0  0  0  0
  -32.7268  -24.3389   21.4863 N   0  0  0  0  0  0  0  0  0  0  0  0
  -30.0882  -12.6522   20.4309 N   0  0  0  0  0  0  0  0  0  0  0  0
  -25.3974  -15.1037   20.4283 N   0  0  0  0  0  0  0  0  0  0  0  0
  -21.7892  -12.5216   21.2707 N   0  0  0  0  0  0  0  0  0  0  0  0
  -30.6804  -12.9246   22.6975 N   0  0  0  0  0  0  0  0  0  0  0  0
  -30.5592  -22.6435   19.0938 N   0  0  0  0  0  0  0  0  0  0  0  0
  -34.6369  -26.9702   22.4276 N   0  0  0  0  0  0  0  0  0  0  0  0
  -34.4186  -27.8909   25.9165 N   0  3  0  0  0  0  0  0  0  0  0  0
  -22.5087  -14.6806   20.9881 O   0  0  0  0  0  0  0  0  0  0  0  0
  -32.8550  -22.7945   19.4530 O   0  0  0  0  0  0  0  0  0  0  0  0
  -32.6428  -26.4231   20.4445 O   0  0  0  0  0  0  0  0  0  0  0  0
  -35.3465  -25.7889   24.2926 O   0  0  0  0  0  0  0  0  0  0  0  0
  -32.2355  -13.2799   21.0131 O   0  0  0  0  0  0  0  0  0  0  0  0
  -21.7264   -6.9617   21.6156 O   0  0  0  0  0  0  0  0  0  0  0  0
  -33.3029  -19.3395   25.0537 O   0  0  0  0  0  0  0  0  0  1  0  0
  -34.3306  -15.2667   24.7788 O   0  0  0  0  0  0  0  0  0  0  0  0
  -18.1663   -6.8674   25.8251 F   0  0  0  0  0  0  0  0  0  0  0  0
  -22.0008   -5.1259   23.6642 F   0  0  0  0  0  0  0  0  0  0  0  0
  1  2  1  0  0  0  0
  1  5  2  0  0  0  0
  2  6  2  0  0  0  0
  3  8  2  0  0  0  0
  3 17  1  0  0  0  0
  4  9  1  0  0  0  0
  4 17  2  0  0  0  0
  5 19  1  0  0  0  0
  6 21  1  0  0  0  0
  7 10  2  0  0  0  0
  7 20  1  0  0  0  0
  8 26  1  0  0  0  0
  9 26  2  0  0  0  0
 10 27  1  0  0  0  0
 11 12  2  0  0  0  0
 11 28  1  0  0  0  0
 12 30  1  0  0  0  0
 13 22  1  0  0  0  0
 13 27  2  0  0  0  0
 14 23  2  0  0  0  0
 14 24  1  0  0  0  0
 15 25  2  0  0  0  0
 15 29  1  0  0  0  0
 16 30  2  0  0  0  0
 16 31  1  0  0  0  0
 17 32  1  0  0  0  0
 18 32  1  0  0  0  0
 18 33  2  0  0  0  0
 18 34  1  0  0  0  0
 19 21  2  0  0  0  0
 19 39  1  0  0  0  0
 20 22  2  0  0  0  0
 20 40  1  0  0  0  0
 21 48  1  0  0  0  0
 22 41  1  0  0  0  0
 23 25  1  0  0  0  0
 23 51  1  0  0  0  0
 24 29  2  0  0  0  0
 24 58  1  0  0  0  0
 25 71  1  0  0  0  0
 26 80  1  0  0  0  0
 27 81  1  0  0  0  0
 28 31  2  0  0  0  0
 28 80  1  0  0  0  0
 29 82  1  0  0  0  0
 30 83  1  0  0  0  0
 31 84  1  0  0  0  0
 32 65  2  0  0  0  0
 33 66  1  0  0  0  0
 33 69  1  0  0  0  0
 34 70  1  0  0  0  0
 34 75  2  0  0  0  0
 35 49  1  0  0  0  0
 35 72  1  0  0  0  0
 35 76  2  0  0  0  0
 36 62  1  0  0  0  0
 36 67  1  0  0  0  0
 36 77  2  0  0  0  0
 37 63  1  0  0  0  0
 37 73  1  0  0  0  0
 37 78  2  0  0  0  0
 38 68  1  0  0  0  0
 38 71  1  0  0  0  0
 38 79  2  0  0  0  0
 39 42  1  0  0  0  0
 40 49  1  0  0  0  0
 41 67  1  0  0  0  0
 42 44  1  0  0  0  0
 43 45  1  0  0  0  0
 43 46  1  0  0  0  0
 44 48  1  0  0  0  0
 45 50  1  0  0  0  0
 46 68  1  0  0  0  0
 47 50  1  0  0  0  0
 47 68  1  0  0  0  0
 48 72  1  0  0  0  0
 49 67  1  0  0  0  0
 50 66  1  0  0  0  0
 52 58  1  0  0  0  0
 53 63  1  0  0  0  0
 54 64  1  0  0  0  0
 55 64  1  0  0  0  0
 56 64  1  0  0  0  0
 57 74  1  0  0  0  0
 59 60  1  0  0  0  0
 59 61  1  0  0  0  0
 60 81  1  0  0  0  0
 61 82  1  0  0  0  0
 62 64  1  0  0  0  0
 62 73  1  0  0  0  0
 63 74  1  0  0  0  0
 65 66  1  0  0  0  0
M  CHG  1  74   1
M  ISO  4  38 100  60 101  71 100  81 101
M  END
> <Batch ID>
0131

> <Smiles>
CCc1cc(C)c([100NH:0][100C:0](=O)N2CCCC(n3nc(-c4ccc(Oc5ccc(F)cc5F)cc4)c(C(N)=O)c3N)C2)cc1OCC[101CH2:1][101O:1]c1ccc2c(c1)CN(C(=O)C(NC(=O)C(C)NC)C(C)(C)C)C(C(=O)NC1CCCc3ccccc31)C2

> <Shape>
0.171

> <Color>
0.174

> <Negative vol penalty>
0.000

$$$$

  -OEChem-04052302253D

 85 93  0     1  0  0  0  0  0999 V2000
  -22.6228   -8.1568   23.4109 C   0  0  0  0  0  0  0  0  0  0  0  0
  -23.5448   -8.8778   22.6588 C   0  0  0  0  0  0  0  0  0  0  0  0
  -27.4555  -25.9989   19.1697 C   0  0  0  0  0  0  0  0  0  0  0  0
  -27.6317  -24.7702   21.2425 C   0  0  0  0  0  0  0  0  0  0  0  0
  -21.3166   -8.6252   23.5459 C   0  0  0  0  0  0  0  0  0  0  0  0
  -23.1607  -10.0671   22.0404 C   0  0  0  0  0  0  0  0  0  0  0  0
  -26.5729  -13.7601   22.6426 C   0  0  0  0  0  0  0  0  0  0  0  0
  -32.3651  -15.3017   21.5432 C   0  0  0  0  0  0  0  0  0  0  0  0
  -31.5326  -16.2398   22.1536 C   0  0  0  0  0  0  0  0  0  0  0  0
  -26.3471  -26.6826   19.6691 C   0  0  0  0  0  0  0  0  0  0  0  0
  -26.5232  -25.4540   21.7420 C   0  0  0  0  0  0  0  0  0  0  0  0
  -27.7086  -13.7155   21.8352 C   0  0  0  0  0  0  0  0  0  0  0  0
  -23.6909  -29.0094   20.5326 C   0  0  0  0  0  0  0  0  0  0  0  0
  -23.6373  -30.3893   20.3360 C   0  0  0  0  0  0  0  0  0  0  0  0
  -26.7275  -15.3655   20.3743 C   0  0  0  0  0  0  0  0  0  0  0  0
  -31.6811  -16.1081   19.3709 C   0  0  0  0  0  0  0  0  0  0  0  0
  -25.6969  -30.6454   21.5729 C   0  0  0  0  0  0  0  0  0  0  0  0
  -28.0978  -25.0426   19.9563 C   0  0  0  0  0  0  0  0  0  0  0  0
  -30.5945  -24.7127   19.5496 C   0  0  0  0  0  0  0  0  0  0  0  0
  -20.9188   -9.8258   22.9368 C   0  0  0  0  0  0  0  0  0  0  0  0
  -25.4996  -14.6012   22.3154 C   0  0  0  0  0  0  0  0  0  0  0  0
  -21.8475  -10.5512   22.1663 C   0  0  0  0  0  0  0  0  0  0  0  0
  -25.5803  -15.4208   21.1806 C   0  0  0  0  0  0  0  0  0  0  0  0
  -32.4394  -15.2359   20.1519 C   0  0  0  0  0  0  0  0  0  0  0  0
  -30.7743  -17.1120   21.3726 C   0  0  0  0  0  0  0  0  0  0  0  0
  -30.8485  -17.0462   19.9813 C   0  0  0  0  0  0  0  0  0  0  0  0
  -25.8809  -26.4102   20.9553 C   0  0  0  0  0  0  0  0  0  0  0  0
  -27.7848  -14.5161   20.6993 C   0  0  0  0  0  0  0  0  0  0  0  0
  -24.7474  -28.4475   21.2494 C   0  0  0  0  0  0  0  0  0  0  0  0
  -24.6403  -31.2073   20.8561 C   0  0  0  0  0  0  0  0  0  0  0  0
  -25.7504  -29.2655   21.7695 C   0  0  0  0  0  0  0  0  0  0  0  0
  -29.2425  -24.3356   19.4407 C   0  0  0  0  0  0  0  0  0  0  0  0
  -31.2822  -23.7161   18.9013 C   0  0  0  0  0  0  0  0  0  0  0  0
  -30.2269  -13.1096   18.5013 C   0  0  0  0  0  0  0  0  0  0  0  0
  -31.1766  -25.8612   20.1804 C   0  0  0  0  0  0  0  0  0  0  0  0
  -31.5307  -12.9570   18.1919 C   0  0  0  0  0  0  0  0  0  0  0  0
  -22.4408  -14.1504   21.5775 C   0  0  0  0  0  0  0  0  0  0  0  0
  -22.3410  -17.3910   21.6843 C   0  0  0  0  0  0  0  0  0  0  0  0
  -24.0241  -20.3506   21.4511 C   0  0  0  0  0  0  0  0  0  0  0  0
  -30.0578  -17.9764   17.7777 C   0  0  0  0  0  0  0  0  0  0  0  0
  -19.4832  -10.2676   23.0721 C   0  0  0  0  0  0  0  0  0  0  0  0
  -24.2927  -14.6574   23.2114 C   0  0  0  0  0  0  0  0  0  0  0  0
  -24.4638  -16.3559   20.7967 C   0  0  0  0  0  0  0  0  0  0  0  0
  -19.2576  -11.7295   22.6947 C   0  0  0  0  0  0  0  0  0  0  0  0
  -30.7912  -20.5059   15.3816 C   0  0  0  0  0  0  0  0  0  0  0  0
  -19.9596  -12.0559   21.3804 C   0  0  0  0  0  0  0  0  0  0  0  0
  -30.6062  -21.8092   16.1622 C   0  0  0  0  0  0  0  0  0  0  0  0
  -29.7705  -19.4473   15.7955 C   0  0  0  0  0  0  0  0  0  0  0  0
  -29.5213  -20.4804   18.0180 C   0  0  0  0  0  0  0  0  0  0  0  0
  -21.4755  -11.8585   21.5007 C   0  0  1  0  0  0  0  0  0  0  0  0
  -23.0443  -15.1709   22.5006 C   0  0  1  0  0  0  0  0  0  0  0  0
  -30.5678  -21.5553   17.6819 C   0  0  2  0  0  0  0  0  0  0  0  0
  -29.8905  -18.1061   22.0536 C   0  0  0  0  0  0  0  0  0  0  0  0
  -31.9506  -11.4239   16.2246 C   0  0  0  0  0  0  0  0  0  0  0  0
  -23.6668  -22.8327   21.5453 C   0  0  0  0  0  0  0  0  0  0  0  0
  -21.1364  -17.3215   18.8818 C   0  0  0  0  0  0  0  0  0  0  0  0
  -21.6833  -19.7547   18.6619 C   0  0  0  0  0  0  0  0  0  0  0  0
  -20.0927  -18.9900   20.4248 C   0  0  0  0  0  0  0  0  0  0  0  0
  -25.8287  -20.6390   23.7790 C   0  0  0  0  0  0  0  0  0  0  0  0
  -33.3400  -14.2213   19.4927 C   0  0  0  0  0  0  0  0  0  0  0  0
  -29.6049  -13.2391   19.8552 C   0  0  0  0  0  0  0  0  0  1  0  0
  -31.9427  -12.8585   16.7352 C   0  0  0  0  0  0  0  0  0  0  0  0
  -32.6509  -12.8777   19.2113 C   0  0  0  0  0  0  0  0  0  0  0  0
  -22.5595  -18.5008   20.6846 C   0  0  1  0  0  0  0  0  0  0  0  0
  -24.0213  -21.5835   22.3368 C   0  0  2  0  0  0  0  0  0  0  0  0
  -21.3884  -18.6228   19.6692 C   0  0  0  0  0  0  0  0  0  0  0  0
  -29.0790  -23.1890   18.7755 N   0  0  0  0  0  0  0  0  0  0  0  0
  -30.3371  -22.8370   18.4605 N   0  0  0  0  0  0  0  0  0  0  0  0
  -23.3022  -16.3703   21.7011 N   0  0  0  0  0  0  0  0  0  0  0  0
  -29.7937  -19.2570   17.2474 N   0  0  0  0  0  0  0  0  0  0  0  0
  -32.5970  -23.5147   18.6710 N   0  0  0  0  0  0  0  0  0  0  0  0
  -30.3255  -26.7863   20.8002 N   0  0  0  0  0  0  0  0  0  0  0  0
  -30.0866  -17.9240   19.1709 N   0  0  0  0  0  0  0  0  0  0  0  0
  -22.0763  -12.9728   22.2019 N   0  0  0  0  0  0  0  0  0  0  0  0
  -22.8032  -19.7099   21.4637 N   0  0  0  0  0  0  0  0  0  0  0  0
  -25.3640  -21.7823   22.9521 N   0  3  0  0  0  0  0  0  0  0  0  0
  -32.4136  -26.0695   20.1797 O   0  0  0  0  0  0  0  0  0  0  0  0
  -22.3138  -14.4126   20.3872 O   0  0  0  0  0  0  0  0  0  0  0  0
  -21.3577  -17.4319   22.4280 O   0  0  0  0  0  0  0  0  0  0  0  0
  -25.0096  -19.9939   20.8091 O   0  0  0  0  0  0  0  0  0  0  0  0
  -30.2716  -17.0039   17.0493 O   0  0  0  0  0  0  0  0  0  0  0  0
  -24.7995  -27.0773   21.4431 O   0  0  0  0  0  0  0  0  0  0  0  0
  -28.8920  -14.4741   19.9091 O   0  0  0  0  0  0  0  0  0  1  0  0
  -24.5896  -32.5322   20.6659 F   0  0  0  0  0  0  0  0  0  0  0  0
  -26.7685  -28.7314   22.4580 F   0  0  0  0  0  0  0  0  0  0  0  0
  1  2  1  0  0  0  0
  1  5  2  0  0  0  0
  2  6  2  0  0  0  0
  3 10  2  0  0  0  0
  3 18  1  0  0  0  0
  4 11  1  0  0  0  0
  4 18  2  0  0  0  0
  5 20  1  0  0  0  0
  6 22  1  0  0  0  0
  7 12  2  0  0  0  0
  7 21  1  0  0  0  0
  8  9  2  0  0  0  0
  8 24  1  0  0  0  0
  9 25  1  0  0  0  0
 10 27  1  0  0  0  0
 11 27  2  0  0  0  0
 12 28  1  0  0  0  0
 13 14  2  0  0  0  0
 13 29  1  0  0  0  0
 14 30  1  0  0  0  0
 15 23  1  0  0  0  0
 15 28  2  0  0  0  0
 16 24  2  0  0  0  0
 16 26  1  0  0  0  0
 17 30  2  0  0  0  0
 17 31  1  0  0  0  0
 18 32  1  0  0  0  0
 19 32  1  0  0  0  0
 19 33  2  0  0  0  0
 19 35  1  0  0  0  0
 20 22  2  0  0  0  0
 20 41  1  0  0  0  0
 21 23  2  0  0  0  0
 21 42  1  0  0  0  0
 22 50  1  0  0  0  0
 23 43  1  0  0  0  0
 24 60  1  0  0  0  0
 25 26  2  0  0  0  0
 25 53  1  0  0  0  0
 26 73  1  0  0  0  0
 27 82  1  0  0  0  0
 28 83  1  0  0  0  0
 29 31  2  0  0  0  0
 29 82  1  0  0  0  0
 30 84  1  0  0  0  0
 31 85  1  0  0  0  0
 32 67  2  0  0  0  0
 33 68  1  0  0  0  0
 33 71  1  0  0  0  0
 34 36  2  0  0  0  0
 34 61  1  0  0  0  0
 35 72  1  0  0  0  0
 35 77  2  0  0  0  0
 36 62  1  0  0  0  0
 36 63  1  0  0  0  0
 37 51  1  0  0  0  0
 37 74  1  0  0  0  0
 37 78  2  0  0  0  0
 38 64  1  0  0  0  0
 38 69  1  0  0  0  0
 38 79  2  0  0  0  0
 39 65  1  0  0  0  0
 39 75  1  0  0  0  0
 39 80  2  0  0  0  0
 40 70  1  0  0  0  0
 40 73  1  0  0  0  0
 40 81  2  0  0  0  0
 41 44  1  0  0  0  0
 42 51  1  0  0  0  0
 43 69  1  0  0  0  0
 44 46  1  0  0  0  0
 45 47  1  0  0  0  0
 45 48  1  0  0  0  0
 46 50  1  0  0  0  0
 47 52  1  0  0  0  0
 48 70  1  0  0  0  0
 49 52  1  0  0  0  0
 49 70  1  0  0  0  0
 50 74  1  0  0  0  0
 51 69  1  0  0  0  0
 52 68  1  0  0  0  0
 54 62  1  0  0  0  0
 55 65  1  0  0  0  0
 56 66  1  0  0  0  0
 57 66  1  0  0  0  0
 58 66  1  0  0  0  0
 59 76  1  0  0  0  0
 60 63  1  0  0  0  0
 61 83  1  0  0  0  0
 64 66  1  0  0  0  0
 64 75  1  0  0  0  0
 65 76  1  0  0  0  0
 67 68  1  0  0  0  0
M  CHG  1  76   1
M  ISO  4  40 100  61 101  73 100  83 101
M  END
> <Batch ID>
0131

> <Smiles>
CCC(=C[101CH2:1][101O:1]c1ccc2c(c1)CN(C(=O)C(NC(=O)C(C)NC)C(C)(C)C)C(C(=O)NC1CCCc3ccccc31)C2)CCc1ccc(C)c([100NH:0][100C:0](=O)N2CCCC(n3nc(-c4ccc(Oc5ccc(F)cc5F)cc4)c(C(N)=O)c3N)C2)c1

> <Shape>
0.216

> <Color>
0.072

> <Negative vol penalty>
0.000

$$$$

  -OEChem-04052302253D

 84 92  0     1  0  0  0  0  0999 V2000
  -28.0924  -33.7096   27.2022 C   0  0  0  0  0  0  0  0  0  0  0  0
  -28.3251  -32.7194   26.2530 C   0  0  0  0  0  0  0  0  0  0  0  0
  -24.2325   -9.0170   22.2901 C   0  0  0  0  0  0  0  0  0  0  0  0
  -24.1717   -8.6368   19.9050 C   0  0  0  0  0  0  0  0  0  0  0  0
  -30.0985  -20.5283   21.8575 C   0  0  0  0  0  0  0  0  0  0  0  0
  -26.7903  -33.9795   27.6214 C   0  0  0  0  0  0  0  0  0  0  0  0
  -27.2560  -31.9978   25.7233 C   0  0  0  0  0  0  0  0  0  0  0  0
  -27.5622  -31.4811   20.6950 C   0  0  0  0  0  0  0  0  0  0  0  0
  -30.3400  -21.8796   21.6098 C   0  0  0  0  0  0  0  0  0  0  0  0
  -23.1436   -8.1609   22.4543 C   0  0  0  0  0  0  0  0  0  0  0  0
  -23.0828   -7.7807   20.0692 C   0  0  0  0  0  0  0  0  0  0  0  0
  -28.4446  -30.5185   20.2064 C   0  0  0  0  0  0  0  0  0  0  0  0
  -22.5878   -4.8269   22.5462 C   0  0  0  0  0  0  0  0  0  0  0  0
  -22.6500   -3.8895   23.5771 C   0  0  0  0  0  0  0  0  0  0  0  0
  -26.5982  -29.0010   19.8788 C   0  0  0  0  0  0  0  0  0  0  0  0
  -30.3884  -21.4355   19.2354 C   0  0  0  0  0  0  0  0  0  0  0  0
  -20.6708   -4.8531   24.5727 C   0  0  0  0  0  0  0  0  0  0  0  0
  -24.7465   -9.2550   21.0154 C   0  0  0  0  0  0  0  0  0  0  0  0
  -30.0022  -19.6306   20.7942 C   0  0  0  0  0  0  0  0  0  0  0  0
  -27.2354   -9.7939   20.8651 C   0  0  0  0  0  0  0  0  0  0  0  0
  -25.7038  -33.2674   27.0895 C   0  0  0  0  0  0  0  0  0  0  0  0
  -26.1903  -31.2065   20.7895 C   0  0  0  0  0  0  0  0  0  0  0  0
  -25.9383  -32.2575   26.1368 C   0  0  0  0  0  0  0  0  0  0  0  0
  -25.7002  -29.9627   20.3666 C   0  0  0  0  0  0  0  0  0  0  0  0
  -30.4849  -22.3332   20.2987 C   0  0  0  0  0  0  0  0  0  0  0  0
  -30.1471  -20.0842   19.4832 C   0  0  0  0  0  0  0  0  0  0  0  0
  -22.5687   -7.5427   21.3439 C   0  0  0  0  0  0  0  0  0  0  0  0
  -27.9630  -29.2772   19.8010 C   0  0  0  0  0  0  0  0  0  0  0  0
  -21.5671   -5.7775   22.5285 C   0  0  0  0  0  0  0  0  0  0  0  0
  -21.6915   -3.9025   24.5904 C   0  0  0  0  0  0  0  0  0  0  0  0
  -20.6086   -5.7906   23.5417 C   0  0  0  0  0  0  0  0  0  0  0  0
  -25.8710  -10.1397   20.8450 C   0  0  0  0  0  0  0  0  0  0  0  0
  -27.8937  -10.9814   20.6582 C   0  0  0  0  0  0  0  0  0  0  0  0
  -29.7497  -18.2257   21.0859 C   0  0  0  0  0  0  0  0  0  0  0  0
  -28.6576  -17.7423   21.7126 C   0  0  0  0  0  0  0  0  0  0  0  0
  -27.8526   -8.5136   21.0540 C   0  0  0  0  0  0  0  0  0  0  0  0
  -28.5423  -16.2857   21.9266 C   0  0  0  0  0  0  0  0  0  0  0  0
  -24.0943  -31.0442   23.1736 C   0  0  0  0  0  0  0  0  0  0  0  0
  -29.7135  -26.1045   19.6357 C   0  0  0  0  0  0  0  0  0  0  0  0
  -21.9626  -30.6745   20.7567 C   0  0  0  0  0  0  0  0  0  0  0  0
  -21.3761  -29.7303   17.5300 C   0  0  0  0  0  0  0  0  0  0  0  0
  -24.3187  -33.5623   27.6083 C   0  0  0  0  0  0  0  0  0  0  0  0
  -25.2482  -32.2651   21.2937 C   0  0  0  0  0  0  0  0  0  0  0  0
  -24.2336  -29.6255   20.4288 C   0  0  0  0  0  0  0  0  0  0  0  0
  -23.2057  -33.0093   26.7220 C   0  0  0  0  0  0  0  0  0  0  0  0
  -26.1813  -15.5058   19.2341 C   0  0  0  0  0  0  0  0  0  0  0  0
  -23.5032  -31.5655   26.3297 C   0  0  0  0  0  0  0  0  0  0  0  0
  -25.9697  -14.0102   19.4533 C   0  0  0  0  0  0  0  0  0  0  0  0
  -26.3926  -16.2523   20.5505 C   0  0  0  0  0  0  0  0  0  0  0  0
  -27.2815  -14.1931   21.6040 C   0  0  0  0  0  0  0  0  0  0  0  0
  -24.8023  -31.4702   25.5206 C   0  0  1  0  0  0  0  0  0  0  0  0
  -23.9383  -31.6938   21.8278 C   0  0  1  0  0  0  0  0  0  0  0  0
  -27.1138  -13.4153   20.2894 C   0  0  1  0  0  0  0  0  0  0  0  0
  -30.0503  -19.1509   18.3194 C   0  0  0  0  0  0  0  0  0  0  0  0
  -19.5268  -29.5042   15.8489 C   0  0  0  0  0  0  0  0  0  0  0  0
  -20.9977  -28.1439   22.1621 C   0  0  0  0  0  0  0  0  0  0  0  0
  -19.8686  -27.4742   20.0303 C   0  0  0  0  0  0  0  0  0  0  0  0
  -19.1760  -29.5639   21.2032 C   0  0  0  0  0  0  0  0  0  0  0  0
  -22.6519  -31.6689   15.6934 C   0  0  0  0  0  0  0  0  0  0  0  0
  -30.7446  -23.7962   20.0298 C   0  0  0  0  0  0  0  0  0  0  0  0
  -29.4668  -24.6182   19.8507 C   0  0  0  0  0  0  0  0  0  0  0  0
  -28.4718  -26.9690   19.5383 C   0  0  0  0  0  0  0  0  0  1  0  0
  -21.3983  -29.4965   19.9997 C   0  0  1  0  0  0  0  0  0  0  0  0
  -20.6161  -30.4084   16.4044 C   0  0  2  0  0  0  0  0  0  0  0  0
  -20.3881  -28.6750   20.8493 C   0  0  0  0  0  0  0  0  0  0  0  0
  -25.6728  -11.4448   20.6415 N   0  0  0  0  0  0  0  0  0  0  0  0
  -26.9214  -11.9295   20.5319 N   0  0  0  0  0  0  0  0  0  0  0  0
  -27.4519  -15.6295   21.3584 N   0  0  0  0  0  0  0  0  0  0  0  0
  -23.3532  -30.6914   20.9350 N   0  0  0  0  0  0  0  0  0  0  0  0
  -29.2036  -11.2967   20.5738 N   0  0  0  0  0  0  0  0  0  0  0  0
  -27.0286   -7.3976   21.2536 N   0  0  0  0  0  0  0  0  0  0  0  0
  -24.5783  -31.8896   24.1537 N   0  0  0  0  0  0  0  0  0  0  0  0
  -20.8407  -30.0348   18.7637 N   0  0  0  0  0  0  0  0  0  0  0  0
  -21.5438  -30.7637   15.2935 N   0  3  0  0  0  0  0  0  0  0  0  0
  -29.0983   -8.3663   21.0622 O   0  0  0  0  0  0  0  0  0  0  0  0
  -29.4173  -15.7390   22.6005 O   0  0  0  0  0  0  0  0  0  0  0  0
  -23.7962  -29.8638   23.3130 O   0  0  0  0  0  0  0  0  0  0  0  0
  -30.8432  -26.5875   19.5792 O   0  0  0  0  0  0  0  0  0  0  0  0
  -21.1985  -31.5511   21.1682 O   0  0  0  0  0  0  0  0  0  0  0  0
  -22.3453  -29.0003   17.3343 O   0  0  0  0  0  0  0  0  0  0  0  0
  -21.5063   -6.7071   21.5038 O   0  0  0  0  0  0  0  0  0  0  0  0
  -28.8221  -28.3357   19.3243 O   0  0  0  0  0  0  0  0  0  1  0  0
  -21.7504   -3.0012   25.5795 F   0  0  0  0  0  0  0  0  0  0  0  0
  -19.6250   -6.7006   23.5295 F   0  0  0  0  0  0  0  0  0  0  0  0
  1  2  1  0  0  0  0
  1  6  2  0  0  0  0
  2  7  2  0  0  0  0
  3 10  2  0  0  0  0
  3 18  1  0  0  0  0
  4 11  1  0  0  0  0
  4 18  2  0  0  0  0
  5  9  2  0  0  0  0
  5 19  1  0  0  0  0
  6 21  1  0  0  0  0
  7 23  1  0  0  0  0
  8 12  2  0  0  0  0
  8 22  1  0  0  0  0
  9 25  1  0  0  0  0
 10 27  1  0  0  0  0
 11 27  2  0  0  0  0
 12 28  1  0  0  0  0
 13 14  2  0  0  0  0
 13 29  1  0  0  0  0
 14 30  1  0  0  0  0
 15 24  1  0  0  0  0
 15 28  2  0  0  0  0
 16 25  2  0  0  0  0
 16 26  1  0  0  0  0
 17 30  2  0  0  0  0
 17 31  1  0  0  0  0
 18 32  1  0  0  0  0
 19 26  2  0  0  0  0
 19 34  1  0  0  0  0
 20 32  1  0  0  0  0
 20 33  2  0  0  0  0
 20 36  1  0  0  0  0
 21 23  2  0  0  0  0
 21 42  1  0  0  0  0
 22 24  2  0  0  0  0
 22 43  1  0  0  0  0
 23 51  1  0  0  0  0
 24 44  1  0  0  0  0
 25 60  1  0  0  0  0
 26 54  1  0  0  0  0
 27 81  1  0  0  0  0
 28 82  1  0  0  0  0
 29 31  2  0  0  0  0
 29 81  1  0  0  0  0
 30 83  1  0  0  0  0
 31 84  1  0  0  0  0
 32 66  2  0  0  0  0
 33 67  1  0  0  0  0
 33 70  1  0  0  0  0
 34 35  2  0  0  0  0
 35 37  1  0  0  0  0
 36 71  1  0  0  0  0
 36 75  2  0  0  0  0
 37 68  1  0  0  0  0
 37 76  2  0  0  0  0
 38 52  1  0  0  0  0
 38 72  1  0  0  0  0
 38 77  2  0  0  0  0
 39 61  1  0  0  0  0
 39 62  1  0  0  0  0
 39 78  2  0  0  0  0
 40 63  1  0  0  0  0
 40 69  1  0  0  0  0
 40 79  2  0  0  0  0
 41 64  1  0  0  0  0
 41 73  1  0  0  0  0
 41 80  2  0  0  0  0
 42 45  1  0  0  0  0
 43 52  1  0  0  0  0
 44 69  1  0  0  0  0
 45 47  1  0  0  0  0
 46 48  1  0  0  0  0
 46 49  1  0  0  0  0
 47 51  1  0  0  0  0
 48 53  1  0  0  0  0
 49 68  1  0  0  0  0
 50 53  1  0  0  0  0
 50 68  1  0  0  0  0
 51 72  1  0  0  0  0
 52 69  1  0  0  0  0
 53 67  1  0  0  0  0
 55 64  1  0  0  0  0
 56 65  1  0  0  0  0
 57 65  1  0  0  0  0
 58 65  1  0  0  0  0
 59 74  1  0  0  0  0
 60 61  1  0  0  0  0
 62 82  1  0  0  0  0
 63 65  1  0  0  0  0
 63 73  1  0  0  0  0
 64 74  1  0  0  0  0
 66 67  1  0  0  0  0
M  CHG  1  74   1
M  ISO  4  35 100  37 100  62 101  82 101
M  END
> <Batch ID>
0131

> <Smiles>
CNC(C)C(=O)NC(C(=O)N1Cc2cc([101O:1][101CH2:1]C(=O)CCc3ccc(C=[100CH:0][100C:0](=O)N4CCCC(n5nc(-c6ccc(Oc7ccc(F)cc7F)cc6)c(C(N)=O)c5N)C4)c(C)c3)ccc2CC1C(=O)NC1CCCc2ccccc21)C(C)(C)C

> <Shape>
0.302

> <Color>
0.084

> <Negative vol penalty>
0.000

$$$$

  -OEChem-04052302253D

 83 91  0     1  0  0  0  0  0999 V2000
  -29.0755  -23.3515   17.7954 C   0  0  0  0  0  0  0  0  0  0  0  0
  -27.7990  -23.6540   18.2587 C   0  0  0  0  0  0  0  0  0  0  0  0
  -28.1061  -15.0724   21.3170 C   0  0  0  0  0  0  0  0  0  0  0  0
  -26.0583  -15.6842   20.1904 C   0  0  0  0  0  0  0  0  0  0  0  0
  -30.1941  -23.8482   18.4632 C   0  0  0  0  0  0  0  0  0  0  0  0
  -27.6405  -24.4524   19.3908 C   0  0  0  0  0  0  0  0  0  0  0  0
  -24.0642  -27.9871   18.7899 C   0  0  0  0  0  0  0  0  0  0  0  0
  -20.8297  -23.0003   21.9038 C   0  0  0  0  0  0  0  0  0  0  0  0
  -22.1740  -22.6289   21.8791 C   0  0  0  0  0  0  0  0  0  0  0  0
  -27.7056  -13.7364   21.3196 C   0  0  0  0  0  0  0  0  0  0  0  0
  -25.6577  -14.3481   20.1930 C   0  0  0  0  0  0  0  0  0  0  0  0
  -22.7369  -27.5757   18.9031 C   0  0  0  0  0  0  0  0  0  0  0  0
  -24.3212  -12.1521   22.3889 C   0  0  0  0  0  0  0  0  0  0  0  0
  -23.0057  -11.8706   22.7572 C   0  0  0  0  0  0  0  0  0  0  0  0
  -22.6731  -28.4228   21.1609 C   0  0  0  0  0  0  0  0  0  0  0  0
  -22.4634  -23.5289   24.1025 C   0  0  0  0  0  0  0  0  0  0  0  0
  -22.6151  -10.8668   20.5945 C   0  0  0  0  0  0  0  0  0  0  0  0
  -27.2824  -16.0464   20.7525 C   0  0  0  0  0  0  0  0  0  0  0  0
  -28.4400  -18.0896   19.7560 C   0  0  0  0  0  0  0  0  0  0  0  0
  -30.0490  -24.6611   19.5985 C   0  0  0  0  0  0  0  0  0  0  0  0
  -24.7104  -28.6107   19.8670 C   0  0  0  0  0  0  0  0  0  0  0  0
  -28.7582  -24.9593   20.0753 C   0  0  0  0  0  0  0  0  0  0  0  0
  -24.0079  -28.8435   21.0580 C   0  0  0  0  0  0  0  0  0  0  0  0
  -20.3023  -23.6361   23.0278 C   0  0  0  0  0  0  0  0  0  0  0  0
  -21.1191  -23.9003   24.1271 C   0  0  0  0  0  0  0  0  0  0  0  0
  -22.9908  -22.8932   22.9785 C   0  0  0  0  0  0  0  0  0  0  0  0
  -26.4814  -13.3742   20.7576 C   0  0  0  0  0  0  0  0  0  0  0  0
  -22.0421  -27.7909   20.0897 C   0  0  0  0  0  0  0  0  0  0  0  0
  -24.7838  -11.7910   21.1235 C   0  0  0  0  0  0  0  0  0  0  0  0
  -22.1526  -11.2280   21.8600 C   0  0  0  0  0  0  0  0  0  0  0  0
  -23.9307  -11.1484   20.2263 C   0  0  0  0  0  0  0  0  0  0  0  0
  -27.6954  -17.4268   20.7500 C   0  0  0  0  0  0  0  0  0  0  0  0
  -28.5667  -19.3754   20.2220 C   0  0  0  0  0  0  0  0  0  0  0  0
  -28.9696  -17.5879   18.5217 C   0  0  0  0  0  0  0  0  0  0  0  0
  -27.2320  -27.9199   21.6747 C   0  0  0  0  0  0  0  0  0  0  0  0
  -19.1904  -25.9812   21.4130 C   0  0  0  0  0  0  0  0  0  0  0  0
  -26.6790  -30.8750   22.8928 C   0  0  0  0  0  0  0  0  0  0  0  0
  -24.4607  -33.4050   23.4632 C   0  0  0  0  0  0  0  0  0  0  0  0
  -25.3026  -22.7026   23.9611 C   0  0  0  0  0  0  0  0  0  0  0  0
  -31.2885  -25.1357   20.3147 C   0  0  0  0  0  0  0  0  0  0  0  0
  -26.1342  -29.0727   19.7197 C   0  0  0  0  0  0  0  0  0  0  0  0
  -24.6497  -29.5270   22.2366 C   0  0  0  0  0  0  0  0  0  0  0  0
  -31.0283  -26.2831   21.2873 C   0  0  0  0  0  0  0  0  0  0  0  0
  -28.7500  -21.8795   24.3001 C   0  0  0  0  0  0  0  0  0  0  0  0
  -29.8046  -25.9861   22.1481 C   0  0  0  0  0  0  0  0  0  0  0  0
  -28.9399  -20.7085   23.3332 C   0  0  0  0  0  0  0  0  0  0  0  0
  -27.3886  -21.8292   24.9912 C   0  0  0  0  0  0  0  0  0  0  0  0
  -26.4269  -20.5476   23.1199 C   0  0  0  0  0  0  0  0  0  0  0  0
  -28.5449  -25.8425   21.2854 C   0  0  1  0  0  0  0  0  0  0  0  0
  -26.8509  -29.2353   21.0566 C   0  0  1  0  0  0  0  0  0  0  0  0
  -27.7577  -20.5909   22.3513 C   0  0  2  0  0  0  0  0  0  0  0  0
  -20.5758  -24.5779   25.3422 C   0  0  0  0  0  0  0  0  0  0  0  0
  -24.2923  -35.6776   24.5140 C   0  0  0  0  0  0  0  0  0  0  0  0
  -26.6368  -29.5899   25.6598 C   0  0  0  0  0  0  0  0  0  0  0  0
  -25.5470  -31.6682   26.5320 C   0  0  0  0  0  0  0  0  0  0  0  0
  -27.8355  -31.7818   25.5458 C   0  0  0  0  0  0  0  0  0  0  0  0
  -23.7311  -34.6690   20.8886 C   0  0  0  0  0  0  0  0  0  0  0  0
  -18.8444  -24.0292   23.0307 C   0  0  0  0  0  0  0  0  0  0  0  0
  -18.6139  -25.5138   22.7416 C   0  0  0  0  0  0  0  0  0  0  0  0
  -20.2935  -27.0173   21.5039 C   0  0  0  0  0  0  0  0  0  1  0  0
  -25.8469  -31.4260   24.0255 C   0  0  1  0  0  0  0  0  0  0  0  0
  -24.5596  -34.9023   23.2334 C   0  0  2  0  0  0  0  0  0  0  0  0
  -26.4548  -31.1018   25.4194 C   0  0  0  0  0  0  0  0  0  0  0  0
  -27.3719  -18.2255   21.7705 N   0  0  0  0  0  0  0  0  0  0  0  0
  -27.9160  -19.4034   21.4203 N   0  0  0  0  0  0  0  0  0  0  0  0
  -26.0456  -29.9545   22.0458 N   0  0  0  0  0  0  0  0  0  0  0  0
  -26.3168  -21.7224   23.9988 N   0  0  0  0  0  0  0  0  0  0  0  0
  -29.1703  -20.4735   19.7196 N   0  0  0  0  0  0  0  0  0  0  0  0
  -28.7473  -16.2428   18.1969 N   0  0  0  0  0  0  0  0  0  0  0  0
  -24.3560  -22.5143   22.9546 N   0  0  0  0  0  0  0  0  0  0  0  0
  -28.0570  -27.1442   20.8829 N   0  0  0  0  0  0  0  0  0  0  0  0
  -25.6884  -32.8517   23.7597 N   0  0  0  0  0  0  0  0  0  0  0  0
  -23.5699  -35.3352   22.2067 N   0  3  0  0  0  0  0  0  0  0  0  0
  -29.6348  -18.3069   17.7380 O   0  0  0  0  0  0  0  0  0  0  0  0
  -26.8099  -27.6307   22.7883 O   0  0  0  0  0  0  0  0  0  0  0  0
  -18.8174  -25.5277   20.3324 O   0  0  0  0  0  0  0  0  0  0  0  0
  -27.8456  -31.2531   22.7599 O   0  0  0  0  0  0  0  0  0  0  0  0
  -23.3999  -32.7886   23.3910 O   0  0  0  0  0  0  0  0  0  0  0  0
  -25.2910  -23.6549   24.7453 O   0  0  0  0  0  0  0  0  0  0  0  0
  -26.0904  -12.0705   20.7597 O   0  0  0  0  0  0  0  0  0  0  0  0
  -20.7467  -27.3897   20.2030 O   0  0  0  0  0  0  0  0  0  1  0  0
  -20.8897  -10.9564   22.2143 F   0  0  0  0  0  0  0  0  0  0  0  0
  -24.3697  -10.7980   19.0096 F   0  0  0  0  0  0  0  0  0  0  0  0
  1  2  1  0  0  0  0
  1  5  2  0  0  0  0
  2  6  2  0  0  0  0
  3 10  2  0  0  0  0
  3 18  1  0  0  0  0
  4 11  1  0  0  0  0
  4 18  2  0  0  0  0
  5 20  1  0  0  0  0
  6 22  1  0  0  0  0
  7 12  2  0  0  0  0
  7 21  1  0  0  0  0
  8  9  2  0  0  0  0
  8 24  1  0  0  0  0
  9 26  1  0  0  0  0
 10 27  1  0  0  0  0
 11 27  2  0  0  0  0
 12 28  1  0  0  0  0
 13 14  2  0  0  0  0
 13 29  1  0  0  0  0
 14 30  1  0  0  0  0
 15 23  1  0  0  0  0
 15 28  2  0  0  0  0
 16 25  1  0  0  0  0
 16 26  2  0  0  0  0
 17 30  2  0  0  0  0
 17 31  1  0  0  0  0
 18 32  1  0  0  0  0
 19 32  1  0  0  0  0
 19 33  2  0  0  0  0
 19 34  1  0  0  0  0
 20 22  2  0  0  0  0
 20 40  1  0  0  0  0
 21 23  2  0  0  0  0
 21 41  1  0  0  0  0
 22 49  1  0  0  0  0
 23 42  1  0  0  0  0
 24 25  2  0  0  0  0
 24 58  1  0  0  0  0
 25 52  1  0  0  0  0
 26 70  1  0  0  0  0
 27 80  1  0  0  0  0
 28 81  1  0  0  0  0
 29 31  2  0  0  0  0
 29 80  1  0  0  0  0
 30 82  1  0  0  0  0
 31 83  1  0  0  0  0
 32 64  2  0  0  0  0
 33 65  1  0  0  0  0
 33 68  1  0  0  0  0
 34 69  1  0  0  0  0
 34 74  2  0  0  0  0
 35 50  1  0  0  0  0
 35 71  1  0  0  0  0
 35 75  2  0  0  0  0
 36 59  1  0  0  0  0
 36 60  1  0  0  0  0
 36 76  2  0  0  0  0
 37 61  1  0  0  0  0
 37 66  1  0  0  0  0
 37 77  2  0  0  0  0
 38 62  1  0  0  0  0
 38 72  1  0  0  0  0
 38 78  2  0  0  0  0
 39 67  1  0  0  0  0
 39 70  1  0  0  0  0
 39 79  2  0  0  0  0
 40 43  1  0  0  0  0
 41 50  1  0  0  0  0
 42 66  1  0  0  0  0
 43 45  1  0  0  0  0
 44 46  1  0  0  0  0
 44 47  1  0  0  0  0
 45 49  1  0  0  0  0
 46 51  1  0  0  0  0
 47 67  1  0  0  0  0
 48 51  1  0  0  0  0
 48 67  1  0  0  0  0
 49 71  1  0  0  0  0
 50 66  1  0  0  0  0
 51 65  1  0  0  0  0
 53 62  1  0  0  0  0
 54 63  1  0  0  0  0
 55 63  1  0  0  0  0
 56 63  1  0  0  0  0
 57 73  1  0  0  0  0
 58 59  1  0  0  0  0
 60 81  1  0  0  0  0
 61 63  1  0  0  0  0
 61 72  1  0  0  0  0
 62 73  1  0  0  0  0
 64 65  1  0  0  0  0
M  CHG  1  73   1
M  ISO  4  39 100  60 101  70 100  81 101
M  END
> <Batch ID>
0131

> <Smiles>
CNC(C)C(=O)NC(C(=O)N1Cc2cc([101O:1][101CH2:1]C(=O)CCc3ccc([100NH:0][100C:0](=O)N4CCCC(n5nc(-c6ccc(Oc7ccc(F)cc7F)cc6)c(C(N)=O)c5N)C4)cc3C)ccc2CC1C(=O)NC1CCCc2ccccc21)C(C)(C)C

> <Shape>
0.287

> <Color>
0.072

> <Negative vol penalty>
0.000

$$$$

  -OEChem-04052302253D

 82 90  0     1  0  0  0  0  0999 V2000
  -28.8922  -28.6712   28.9544 C   0  0  0  0  0  0  0  0  0  0  0  0
  -28.6466  -28.2716   27.6447 C   0  0  0  0  0  0  0  0  0  0  0  0
  -24.3667   -9.3964   21.3295 C   0  0  0  0  0  0  0  0  0  0  0  0
  -24.8501  -10.3697   23.4873 C   0  0  0  0  0  0  0  0  0  0  0  0
  -28.3156  -29.8421   29.4446 C   0  0  0  0  0  0  0  0  0  0  0  0
  -27.8233  -29.0424   26.8246 C   0  0  0  0  0  0  0  0  0  0  0  0
  -29.7469  -29.6728   22.1826 C   0  0  0  0  0  0  0  0  0  0  0  0
  -29.0309  -20.5913   18.8557 C   0  0  0  0  0  0  0  0  0  0  0  0
  -29.3149  -19.3043   19.3123 C   0  0  0  0  0  0  0  0  0  0  0  0
  -24.0233   -8.1946   21.9485 C   0  0  0  0  0  0  0  0  0  0  0  0
  -24.5067   -9.1678   24.1064 C   0  0  0  0  0  0  0  0  0  0  0  0
  -29.6238  -28.6070   21.2923 C   0  0  0  0  0  0  0  0  0  0  0  0
  -21.3734   -6.9208   23.6184 C   0  0  0  0  0  0  0  0  0  0  0  0
  -20.2098   -6.2811   23.1915 C   0  0  0  0  0  0  0  0  0  0  0  0
  -27.7377  -29.6976   20.2569 C   0  0  0  0  0  0  0  0  0  0  0  0
  -27.2538  -20.7761   20.4820 C   0  0  0  0  0  0  0  0  0  0  0  0
  -21.5067   -4.3428   22.5607 C   0  0  0  0  0  0  0  0  0  0  0  0
  -24.7801  -10.4840   22.0989 C   0  0  0  0  0  0  0  0  0  0  0  0
  -24.2811  -12.8048   21.1649 C   0  0  0  0  0  0  0  0  0  0  0  0
  -27.4926  -30.6327   28.6271 C   0  0  0  0  0  0  0  0  0  0  0  0
  -28.8580  -30.7557   22.1237 C   0  0  0  0  0  0  0  0  0  0  0  0
  -27.2341  -30.2243   27.3047 C   0  0  0  0  0  0  0  0  0  0  0  0
  -27.8531  -30.7771   21.1460 C   0  0  0  0  0  0  0  0  0  0  0  0
  -28.0003  -21.3272   19.4406 C   0  0  0  0  0  0  0  0  0  0  0  0
  -27.5379  -19.4891   20.9387 C   0  0  0  0  0  0  0  0  0  0  0  0
  -28.5684  -18.7532   20.3538 C   0  0  0  0  0  0  0  0  0  0  0  0
  -24.0933   -8.0803   23.3369 C   0  0  0  0  0  0  0  0  0  0  0  0
  -28.6173  -28.6179   20.3311 C   0  0  0  0  0  0  0  0  0  0  0  0
  -22.6038   -6.2716   23.5164 C   0  0  0  0  0  0  0  0  0  0  0  0
  -20.2764   -4.9921   22.6627 C   0  0  0  0  0  0  0  0  0  0  0  0
  -22.6704   -4.9825   22.9876 C   0  0  0  0  0  0  0  0  0  0  0  0
  -25.1355  -11.7256   21.4600 C   0  0  0  0  0  0  0  0  0  0  0  0
  -25.0957  -13.7335   20.5644 C   0  0  0  0  0  0  0  0  0  0  0  0
  -22.8767  -12.9546   21.4115 C   0  0  0  0  0  0  0  0  0  0  0  0
  -26.7272  -32.0197   24.1152 C   0  0  0  0  0  0  0  0  0  0  0  0
  -26.5020  -34.2927   21.8119 C   0  0  0  0  0  0  0  0  0  0  0  0
  -26.9001  -35.1416   18.5305 C   0  0  0  0  0  0  0  0  0  0  0  0
  -29.8663  -16.5943   20.3192 C   0  0  0  0  0  0  0  0  0  0  0  0
  -26.8536  -31.8654   29.2160 C   0  0  0  0  0  0  0  0  0  0  0  0
  -29.0207  -31.9102   23.0741 C   0  0  0  0  0  0  0  0  0  0  0  0
  -26.8860  -31.9256   21.0278 C   0  0  0  0  0  0  0  0  0  0  0  0
  -26.2949  -32.8225   28.1662 C   0  0  0  0  0  0  0  0  0  0  0  0
  -29.8504  -13.3408   18.8730 C   0  0  0  0  0  0  0  0  0  0  0  0
  -25.4872  -32.0577   27.1224 C   0  0  0  0  0  0  0  0  0  0  0  0
  -28.5520  -12.7194   19.3928 C   0  0  0  0  0  0  0  0  0  0  0  0
  -30.5149  -14.2283   19.9239 C   0  0  0  0  0  0  0  0  0  0  0  0
  -28.3485  -14.6404   21.0223 C   0  0  0  0  0  0  0  0  0  0  0  0
  -26.3665  -31.0466   26.3766 C   0  0  1  0  0  0  0  0  0  0  0  0
  -27.7406  -32.7202   23.2550 C   0  0  1  0  0  0  0  0  0  0  0  0
  -27.6092  -13.7897   19.9766 C   0  0  2  0  0  0  0  0  0  0  0  0
  -26.7199  -18.9227   22.0539 C   0  0  0  0  0  0  0  0  0  0  0  0
  -26.5975  -37.0601   16.9414 C   0  0  0  0  0  0  0  0  0  0  0  0
  -23.4898  -33.8063   21.8020 C   0  0  0  0  0  0  0  0  0  0  0  0
  -23.3737  -35.0056   19.6074 C   0  0  0  0  0  0  0  0  0  0  0  0
  -24.1588  -36.2110   21.6454 C   0  0  0  0  0  0  0  0  0  0  0  0
  -29.7859  -35.2068   17.8773 C   0  0  0  0  0  0  0  0  0  0  0  0
  -27.6918  -22.7176   18.9452 C   0  0  0  0  0  0  0  0  0  0  0  0
  -28.4696  -23.8206   19.6716 C   0  0  0  0  0  0  0  0  0  0  0  0
  -28.0869  -25.2271   19.2090 C   0  0  0  0  0  0  0  0  0  0  0  0
  -28.9071  -26.2930   19.9231 C   0  0  0  0  0  0  0  0  0  1  0  0
  -25.6586  -34.4804   20.5740 C   0  0  1  0  0  0  0  0  0  0  0  0
  -27.5601  -36.3402   17.8731 C   0  0  2  0  0  0  0  0  0  0  0  0
  -24.1871  -34.8531   20.9104 C   0  0  0  0  0  0  0  0  0  0  0  0
  -26.3962  -11.9468   21.0783 N   0  0  0  0  0  0  0  0  0  0  0  0
  -26.3400  -13.1756   20.5372 N   0  0  0  0  0  0  0  0  0  0  0  0
  -27.0821  -33.0279   21.9839 N   0  0  0  0  0  0  0  0  0  0  0  0
  -29.5633  -15.2206   20.4285 N   0  0  0  0  0  0  0  0  0  0  0  0
  -24.8619  -14.9646   20.0623 N   0  0  0  0  0  0  0  0  0  0  0  0
  -22.1926  -11.9038   22.0379 N   0  0  0  0  0  0  0  0  0  0  0  0
  -28.8724  -17.4443   20.8034 N   0  0  0  0  0  0  0  0  0  0  0  0
  -27.1797  -31.7183   25.3856 N   0  0  0  0  0  0  0  0  0  0  0  0
  -26.3522  -35.4672   19.7533 N   0  0  0  0  0  0  0  0  0  0  0  0
  -28.7464  -35.9085   17.0810 N   0  3  0  0  0  0  0  0  0  0  0  0
  -22.2437  -13.9827   21.0713 O   0  0  0  0  0  0  0  0  0  0  0  0
  -25.6165  -31.7724   23.6605 O   0  0  0  0  0  0  0  0  0  0  0  0
  -26.6468  -35.2358   22.5938 O   0  0  0  0  0  0  0  0  0  0  0  0
  -26.8700  -34.0288   18.0096 O   0  0  0  0  0  0  0  0  0  0  0  0
  -30.9173  -16.9883   19.8072 O   0  0  0  0  0  0  0  0  0  0  0  0
  -23.7581   -6.9077   23.9413 O   0  0  0  0  0  0  0  0  0  0  0  0
  -28.4946  -27.5786   19.4612 O   0  0  0  0  0  0  0  0  0  1  0  0
  -19.1586   -4.3773   22.2543 F   0  0  0  0  0  0  0  0  0  0  0  0
  -23.8494   -4.3533   22.8881 F   0  0  0  0  0  0  0  0  0  0  0  0
  1  2  1  0  0  0  0
  1  5  2  0  0  0  0
  2  6  2  0  0  0  0
  3 10  2  0  0  0  0
  3 18  1  0  0  0  0
  4 11  1  0  0  0  0
  4 18  2  0  0  0  0
  5 20  1  0  0  0  0
  6 22  1  0  0  0  0
  7 12  2  0  0  0  0
  7 21  1  0  0  0  0
  8  9  2  0  0  0  0
  8 24  1  0  0  0  0
  9 26  1  0  0  0  0
 10 27  1  0  0  0  0
 11 27  2  0  0  0  0
 12 28  1  0  0  0  0
 13 14  2  0  0  0  0
 13 29  1  0  0  0  0
 14 30  1  0  0  0  0
 15 23  1  0  0  0  0
 15 28  2  0  0  0  0
 16 24  2  0  0  0  0
 16 25  1  0  0  0  0
 17 30  2  0  0  0  0
 17 31  1  0  0  0  0
 18 32  1  0  0  0  0
 19 32  1  0  0  0  0
 19 33  2  0  0  0  0
 19 34  1  0  0  0  0
 20 22  2  0  0  0  0
 20 39  1  0  0  0  0
 21 23  2  0  0  0  0
 21 40  1  0  0  0  0
 22 48  1  0  0  0  0
 23 41  1  0  0  0  0
 24 57  1  0  0  0  0
 25 26  2  0  0  0  0
 25 51  1  0  0  0  0
 26 70  1  0  0  0  0
 27 79  1  0  0  0  0
 28 80  1  0  0  0  0
 29 31  2  0  0  0  0
 29 79  1  0  0  0  0
 30 81  1  0  0  0  0
 31 82  1  0  0  0  0
 32 64  2  0  0  0  0
 33 65  1  0  0  0  0
 33 68  1  0  0  0  0
 34 69  1  0  0  0  0
 34 74  2  0  0  0  0
 35 49  1  0  0  0  0
 35 71  1  0  0  0  0
 35 75  2  0  0  0  0
 36 61  1  0  0  0  0
 36 66  1  0  0  0  0
 36 76  2  0  0  0  0
 37 62  1  0  0  0  0
 37 72  1  0  0  0  0
 37 77  2  0  0  0  0
 38 67  1  0  0  0  0
 38 70  1  0  0  0  0
 38 78  2  0  0  0  0
 39 42  1  0  0  0  0
 40 49  1  0  0  0  0
 41 66  1  0  0  0  0
 42 44  1  0  0  0  0
 43 45  1  0  0  0  0
 43 46  1  0  0  0  0
 44 48  1  0  0  0  0
 45 50  1  0  0  0  0
 46 67  1  0  0  0  0
 47 50  1  0  0  0  0
 47 67  1  0  0  0  0
 48 71  1  0  0  0  0
 49 66  1  0  0  0  0
 50 65  1  0  0  0  0
 52 62  1  0  0  0  0
 53 63  1  0  0  0  0
 54 63  1  0  0  0  0
 55 63  1  0  0  0  0
 56 73  1  0  0  0  0
 57 58  1  0  0  0  0
 58 59  1  0  0  0  0
 59 60  1  0  0  0  0
 60 80  1  0  0  0  0
 61 63  1  0  0  0  0
 61 72  1  0  0  0  0
 62 73  1  0  0  0  0
 64 65  1  0  0  0  0
M  CHG  1  73   1
M  ISO  4  38 100  60 101  70 100  80 101
M  END
> <Batch ID>
0131

> <Smiles>
CNC(C)C(=O)NC(C(=O)N1Cc2cc([101O:1][101CH2:1]CCCc3ccc([100NH:0][100C:0](=O)N4CCCC(n5nc(-c6ccc(Oc7ccc(F)cc7F)cc6)c(C(N)=O)c5N)C4)c(C)c3)ccc2CC1C(=O)NC1CCCc2ccccc21)C(C)(C)C

> <Shape>
0.274

> <Color>
0.131

> <Negative vol penalty>
0.000

$$$$

  -OEChem-04052302253D

 85 93  0     1  0  0  0  0  0999 V2000
  -34.1152  -28.9205   22.7546 C   0  0  0  0  0  0  0  0  0  0  0  0
  -33.5670  -28.9726   21.4771 C   0  0  0  0  0  0  0  0  0  0  0  0
  -28.0360  -12.5888   22.6490 C   0  0  0  0  0  0  0  0  0  0  0  0
  -26.9112  -13.0412   20.5592 C   0  0  0  0  0  0  0  0  0  0  0  0
  -26.7194  -21.3741   18.0308 C   0  0  0  0  0  0  0  0  0  0  0  0
  -33.5204  -28.1281   23.7355 C   0  0  0  0  0  0  0  0  0  0  0  0
  -32.4240  -28.2313   21.1794 C   0  0  0  0  0  0  0  0  0  0  0  0
  -26.5146  -28.4646   17.1369 C   0  0  0  0  0  0  0  0  0  0  0  0
  -27.4127  -11.3427   22.7147 C   0  0  0  0  0  0  0  0  0  0  0  0
  -26.2879  -11.7951   20.6249 C   0  0  0  0  0  0  0  0  0  0  0  0
  -26.1983  -21.8302   16.8201 C   0  0  0  0  0  0  0  0  0  0  0  0
  -25.8161  -27.6979   16.2053 C   0  0  0  0  0  0  0  0  0  0  0  0
  -24.1227   -8.8829   20.4225 C   0  0  0  0  0  0  0  0  0  0  0  0
  -22.7597   -8.8237   20.1321 C   0  0  0  0  0  0  0  0  0  0  0  0
  -24.8284  -26.4260   18.0014 C   0  0  0  0  0  0  0  0  0  0  0  0
  -28.0745  -23.3333   16.5789 C   0  0  0  0  0  0  0  0  0  0  0  0
  -22.3051  -10.3416   21.9559 C   0  0  0  0  0  0  0  0  0  0  0  0
  -27.7852  -13.4381   21.5712 C   0  0  0  0  0  0  0  0  0  0  0  0
  -27.9180  -21.8976   18.5157 C   0  0  0  0  0  0  0  0  0  0  0  0
  -29.6653  -15.0273   20.9024 C   0  0  0  0  0  0  0  0  0  0  0  0
  -32.3640  -27.3843   23.4524 C   0  0  0  0  0  0  0  0  0  0  0  0
  -26.3835  -28.2101   18.5097 C   0  0  0  0  0  0  0  0  0  0  0  0
  -31.8139  -27.4272   22.1570 C   0  0  0  0  0  0  0  0  0  0  0  0
  -25.5244  -27.1925   18.9485 C   0  0  0  0  0  0  0  0  0  0  0  0
  -28.5955  -22.8772   17.7897 C   0  0  0  0  0  0  0  0  0  0  0  0
  -26.5387  -10.9458   21.7027 C   0  0  0  0  0  0  0  0  0  0  0  0
  -24.9750  -26.6766   16.6373 C   0  0  0  0  0  0  0  0  0  0  0  0
  -26.8758  -22.8098   16.0941 C   0  0  0  0  0  0  0  0  0  0  0  0
  -24.5769   -9.6715   21.4797 C   0  0  0  0  0  0  0  0  0  0  0  0
  -21.8509   -9.5530   20.8987 C   0  0  0  0  0  0  0  0  0  0  0  0
  -23.6681  -10.4008   22.2464 C   0  0  0  0  0  0  0  0  0  0  0  0
  -28.4284  -14.7256   21.5031 C   0  0  0  0  0  0  0  0  0  0  0  0
  -29.8264  -16.3759   21.1068 C   0  0  0  0  0  0  0  0  0  0  0  0
  -28.4388  -21.4036   19.7832 C   0  0  0  0  0  0  0  0  0  0  0  0
  -30.5863  -14.1655   20.2207 C   0  0  0  0  0  0  0  0  0  0  0  0
  -27.6617  -21.5335   21.0372 C   0  0  0  0  0  0  0  0  0  0  0  0
  -28.3692  -27.3152   20.8249 C   0  0  0  0  0  0  0  0  0  0  0  0
  -25.7808  -27.8304   22.7110 C   0  0  0  0  0  0  0  0  0  0  0  0
  -22.3846  -28.0346   22.9772 C   0  0  0  0  0  0  0  0  0  0  0  0
  -31.7838  -26.5053   24.5319 C   0  0  0  0  0  0  0  0  0  0  0  0
  -27.1233  -29.0635   19.5031 C   0  0  0  0  0  0  0  0  0  0  0  0
  -25.3332  -26.8923   20.4120 C   0  0  0  0  0  0  0  0  0  0  0  0
  -30.3585  -26.0429   24.2404 C   0  0  0  0  0  0  0  0  0  0  0  0
  -27.2717  -19.6025   24.0332 C   0  0  0  0  0  0  0  0  0  0  0  0
  -30.2433  -25.5405   22.8047 C   0  0  0  0  0  0  0  0  0  0  0  0
  -27.6019  -18.1801   23.5820 C   0  0  0  0  0  0  0  0  0  0  0  0
  -26.5742  -20.3906   22.9293 C   0  0  0  0  0  0  0  0  0  0  0  0
  -27.6701  -19.0078   21.1870 C   0  0  0  0  0  0  0  0  0  0  0  0
  -30.5605  -26.6568   21.8024 C   0  0  1  0  0  0  0  0  0  0  0  0
  -27.3106  -28.3811   20.8546 C   0  0  1  0  0  0  0  0  0  0  0  0
  -28.4003  -18.1896   22.2662 C   0  0  2  0  0  0  0  0  0  0  0  0
  -32.3999  -23.4911   18.0243 C   0  0  0  0  0  0  0  0  0  0  0  0
  -20.5605  -28.4318   24.6542 C   0  0  0  0  0  0  0  0  0  0  0  0
  -26.1604  -25.0018   23.7902 C   0  0  0  0  0  0  0  0  0  0  0  0
  -23.8321  -25.1128   24.7039 C   0  0  0  0  0  0  0  0  0  0  0  0
  -25.5678  -26.7077   25.5203 C   0  0  0  0  0  0  0  0  0  0  0  0
  -21.4312  -30.4415   21.5431 C   0  0  0  0  0  0  0  0  0  0  0  0
  -29.8814  -23.4538   18.2856 C   0  0  0  0  0  0  0  0  0  0  0  0
  -31.0948  -22.8784   17.5415 C   0  0  0  0  0  0  0  0  0  0  0  0
  -24.4985  -24.3895   13.8814 C   0  0  0  0  0  0  0  0  0  0  0  0
  -24.9004  -25.7403   14.4524 C   0  0  0  0  0  0  0  0  0  1  0  0
  -24.9481  -23.2399   14.7694 C   0  0  0  0  0  0  0  0  0  0  0  0
  -24.6238  -26.9884   23.1918 C   0  0  1  0  0  0  0  0  0  0  0  0
  -21.4858  -29.0695   23.6296 C   0  0  2  0  0  0  0  0  0  0  0  0
  -25.0509  -25.9568   24.2738 C   0  0  0  0  0  0  0  0  0  0  0  0
  -27.8452  -15.7964   22.0483 N   0  0  0  0  0  0  0  0  0  0  0  0
  -29.6008  -20.8226   19.9003 N   0  0  0  0  0  0  0  0  0  0  0  0
  -28.7195  -16.7841   21.7910 N   0  0  0  0  0  0  0  0  0  0  0  0
  -27.3402  -20.3491   21.6853 N   0  0  0  0  0  0  0  0  0  0  0  0
  -26.0831  -27.7503   21.3442 N   0  0  0  0  0  0  0  0  0  0  0  0
  -30.8056  -17.2405   20.7661 N   0  0  0  0  0  0  0  0  0  0  0  0
  -30.2655  -12.8065   20.1000 N   0  0  0  0  0  0  0  0  0  0  0  0
  -29.4333  -27.5552   21.6732 N   0  0  0  0  0  0  0  0  0  0  0  0
  -23.5935  -27.9232   23.6311 N   0  0  0  0  0  0  0  0  0  0  0  0
  -20.6498  -29.7513   22.6014 N   0  3  0  0  0  0  0  0  0  0  0  0
  -31.6696  -14.5849   19.7473 O   0  0  0  0  0  0  0  0  0  0  0  0
  -27.3842  -22.6784   21.3695 O   0  0  0  0  0  0  0  0  0  0  0  0
  -28.2301  -26.3460   20.0880 O   0  0  0  0  0  0  0  0  0  0  0  0
  -26.3893  -28.5387   23.5170 O   0  0  0  0  0  0  0  0  0  0  0  0
  -22.0466  -27.3870   21.9889 O   0  0  0  0  0  0  0  0  0  0  0  0
  -25.9304   -9.7299   21.7663 O   0  0  0  0  0  0  0  0  0  0  0  0
  -24.2925  -25.9264   15.7300 O   0  0  0  0  0  0  0  0  0  1  0  0
  -26.3626  -23.2603   14.9057 O   0  0  0  0  0  0  0  0  0  0  0  0
  -20.5422   -9.4973   20.6187 F   0  0  0  0  0  0  0  0  0  0  0  0
  -24.0985  -11.1611   23.2625 F   0  0  0  0  0  0  0  0  0  0  0  0
  1  2  1  0  0  0  0
  1  6  2  0  0  0  0
  2  7  2  0  0  0  0
  3  9  2  0  0  0  0
  3 18  1  0  0  0  0
  4 10  1  0  0  0  0
  4 18  2  0  0  0  0
  5 11  2  0  0  0  0
  5 19  1  0  0  0  0
  6 21  1  0  0  0  0
  7 23  1  0  0  0  0
  8 12  2  0  0  0  0
  8 22  1  0  0  0  0
  9 26  1  0  0  0  0
 10 26  2  0  0  0  0
 11 28  1  0  0  0  0
 12 27  1  0  0  0  0
 13 14  2  0  0  0  0
 13 29  1  0  0  0  0
 14 30  1  0  0  0  0
 15 24  1  0  0  0  0
 15 27  2  0  0  0  0
 16 25  1  0  0  0  0
 16 28  2  0  0  0  0
 17 30  2  0  0  0  0
 17 31  1  0  0  0  0
 18 32  1  0  0  0  0
 19 25  2  0  0  0  0
 19 34  1  0  0  0  0
 20 32  1  0  0  0  0
 20 33  2  0  0  0  0
 20 35  1  0  0  0  0
 21 23  2  0  0  0  0
 21 40  1  0  0  0  0
 22 24  2  0  0  0  0
 22 41  1  0  0  0  0
 23 49  1  0  0  0  0
 24 42  1  0  0  0  0
 25 58  1  0  0  0  0
 26 81  1  0  0  0  0
 27 82  1  0  0  0  0
 28 83  1  0  0  0  0
 29 31  2  0  0  0  0
 29 81  1  0  0  0  0
 30 84  1  0  0  0  0
 31 85  1  0  0  0  0
 32 66  2  0  0  0  0
 33 68  1  0  0  0  0
 33 71  1  0  0  0  0
 34 36  1  0  0  0  0
 34 67  2  0  0  0  0
 35 72  1  0  0  0  0
 35 76  2  0  0  0  0
 36 69  1  0  0  0  0
 36 77  2  0  0  0  0
 37 50  1  0  0  0  0
 37 73  1  0  0  0  0
 37 78  2  0  0  0  0
 38 63  1  0  0  0  0
 38 70  1  0  0  0  0
 38 79  2  0  0  0  0
 39 64  1  0  0  0  0
 39 74  1  0  0  0  0
 39 80  2  0  0  0  0
 40 43  1  0  0  0  0
 41 50  1  0  0  0  0
 42 70  1  0  0  0  0
 43 45  1  0  0  0  0
 44 46  1  0  0  0  0
 44 47  1  0  0  0  0
 45 49  1  0  0  0  0
 46 51  1  0  0  0  0
 47 69  1  0  0  0  0
 48 51  1  0  0  0  0
 48 69  1  0  0  0  0
 49 73  1  0  0  0  0
 50 70  1  0  0  0  0
 51 68  1  0  0  0  0
 52 59  1  0  0  0  0
 53 64  1  0  0  0  0
 54 65  1  0  0  0  0
 55 65  1  0  0  0  0
 56 65  1  0  0  0  0
 57 75  1  0  0  0  0
 58 59  1  0  0  0  0
 60 61  1  0  0  0  0
 60 62  1  0  0  0  0
 61 82  1  0  0  0  0
 62 83  1  0  0  0  0
 63 65  1  0  0  0  0
 63 74  1  0  0  0  0
 64 75  1  0  0  0  0
 66 68  1  0  0  0  0
M  CHG  1  75   1
M  ISO  4  34 100  36 100  61 101  82 101
M  END
> <Batch ID>
0131

> <Smiles>
CCCc1cc(OCC[101CH2:1][101O:1]c2ccc3c(c2)CN(C(=O)C(NC(=O)C(C)NC)C(C)(C)C)C(C(=O)NC2CCCc4ccccc42)C3)ccc1[100C:0](=N)[100C:0](=O)N1CCCC(n2nc(-c3ccc(Oc4ccc(F)cc4F)cc3)c(C(N)=O)c2N)C1

> <Shape>
0.212

> <Color>
0.096

> <Negative vol penalty>
0.000

$$$$

  -OEChem-04052302253D

 87 96  0     1  0  0  0  0  0999 V2000
  -27.2331  -38.9628   22.3749 C   0  0  0  0  0  0  0  0  0  0  0  0
  -28.0798  -38.0548   23.0026 C   0  0  0  0  0  0  0  0  0  0  0  0
  -24.7082   -6.0293   21.6679 C   0  0  0  0  0  0  0  0  0  0  0  0
  -25.9818   -6.9272   19.8216 C   0  0  0  0  0  0  0  0  0  0  0  0
  -27.8114  -18.5679   20.5649 C   0  0  0  0  0  0  0  0  0  0  0  0
  -25.8513  -38.8321   22.5071 C   0  0  0  0  0  0  0  0  0  0  0  0
  -27.5451  -37.0160   23.7639 C   0  0  0  0  0  0  0  0  0  0  0  0
  -28.1179  -19.9204   20.7141 C   0  0  0  0  0  0  0  0  0  0  0  0
  -28.9683  -30.1368   22.1693 C   0  0  0  0  0  0  0  0  0  0  0  0
  -25.4138   -4.8300   21.5714 C   0  0  0  0  0  0  0  0  0  0  0  0
  -26.6875   -5.7279   19.7251 C   0  0  0  0  0  0  0  0  0  0  0  0
  -29.3632  -28.8036   22.0565 C   0  0  0  0  0  0  0  0  0  0  0  0
  -28.4410   -3.6397   22.4945 C   0  0  0  0  0  0  0  0  0  0  0  0
  -28.9066   -3.0646   23.6768 C   0  0  0  0  0  0  0  0  0  0  0  0
  -26.2898  -19.1109   18.7685 C   0  0  0  0  0  0  0  0  0  0  0  0
  -27.8720  -28.1981   23.8614 C   0  0  0  0  0  0  0  0  0  0  0  0
  -27.5966   -1.0844   23.2296 C   0  0  0  0  0  0  0  0  0  0  0  0
  -24.9922   -7.0780   20.7929 C   0  0  0  0  0  0  0  0  0  0  0  0
  -26.8973  -18.1631   19.5920 C   0  0  0  0  0  0  0  0  0  0  0  0
  -22.8740   -8.4991   20.7554 C   0  0  0  0  0  0  0  0  0  0  0  0
  -25.2992  -37.7855   23.2624 C   0  0  0  0  0  0  0  0  0  0  0  0
  -28.0112  -30.5036   23.1195 C   0  0  0  0  0  0  0  0  0  0  0  0
  -26.1546  -36.8719   23.9074 C   0  0  0  0  0  0  0  0  0  0  0  0
  -27.5104  -20.8682   19.8905 C   0  0  0  0  0  0  0  0  0  0  0  0
  -27.4633  -29.5299   23.9706 C   0  0  0  0  0  0  0  0  0  0  0  0
  -26.5963  -20.4635   18.9177 C   0  0  0  0  0  0  0  0  0  0  0  0
  -26.4034   -4.6793   20.6000 C   0  0  0  0  0  0  0  0  0  0  0  0
  -28.8165  -27.8367   22.9006 C   0  0  0  0  0  0  0  0  0  0  0  0
  -27.5531   -2.9372   21.6797 C   0  0  0  0  0  0  0  0  0  0  0  0
  -28.4845   -1.7869   24.0444 C   0  0  0  0  0  0  0  0  0  0  0  0
  -27.1309   -1.6595   22.0472 C   0  0  0  0  0  0  0  0  0  0  0  0
  -24.2633   -8.3169   20.8917 C   0  0  0  0  0  0  0  0  0  0  0  0
  -22.6854   -9.8478   20.9343 C   0  0  0  0  0  0  0  0  0  0  0  0
  -26.5781  -16.7526   19.4362 C   0  0  0  0  0  0  0  0  0  0  0  0
  -26.7771  -15.7969   20.3689 C   0  0  0  0  0  0  0  0  0  0  0  0
  -21.8460   -7.5354   20.4908 C   0  0  0  0  0  0  0  0  0  0  0  0
  -26.3900  -14.4051   20.0628 C   0  0  0  0  0  0  0  0  0  0  0  0
  -25.9654  -33.2556   24.6418 C   0  0  0  0  0  0  0  0  0  0  0  0
  -24.1333  -30.8059   24.4120 C   0  0  0  0  0  0  0  0  0  0  0  0
  -22.3343  -28.0238   23.5992 C   0  0  0  0  0  0  0  0  0  0  0  0
  -23.8005  -37.7128   23.4152 C   0  0  0  0  0  0  0  0  0  0  0  0
  -27.6015  -31.9377   23.3177 C   0  0  0  0  0  0  0  0  0  0  0  0
  -26.4624  -29.9762   25.0012 C   0  0  0  0  0  0  0  0  0  0  0  0
  -23.3057  -36.3642   23.9316 C   0  0  0  0  0  0  0  0  0  0  0  0
  -24.5558  -13.6401   23.1421 C   0  0  0  0  0  0  0  0  0  0  0  0
  -29.3478  -22.6063   19.7919 C   0  0  0  0  0  0  0  0  0  0  0  0
  -27.4603  -22.8498   21.4645 C   0  0  0  0  0  0  0  0  0  0  0  0
  -24.1441  -35.9079   25.1215 C   0  0  0  0  0  0  0  0  0  0  0  0
  -29.6874  -24.0866   19.9645 C   0  0  0  0  0  0  0  0  0  0  0  0
  -27.8046  -24.3294   21.6329 C   0  0  0  0  0  0  0  0  0  0  0  0
  -24.1883  -12.1771   22.9093 C   0  0  0  0  0  0  0  0  0  0  0  0
  -25.9136  -13.9920   22.5364 C   0  0  0  0  0  0  0  0  0  0  0  0
  -25.6585  -12.1893   20.8554 C   0  0  0  0  0  0  0  0  0  0  0  0
  -27.8603  -22.3340   20.0719 C   0  0  0  0  0  0  0  0  0  0  0  0
  -25.6121  -35.7172   24.7213 C   0  0  1  0  0  0  0  0  0  0  0  0
  -26.1199  -32.0941   23.7045 C   0  0  1  0  0  0  0  0  0  0  0  0
  -29.2885  -24.6018   21.3536 C   0  0  0  0  0  0  0  0  0  0  0  0
  -24.2747  -11.8252   21.4157 C   0  0  1  0  0  0  0  0  0  0  0  0
  -24.8102  -22.2131   18.7305 C   0  0  0  0  0  0  0  0  0  0  0  0
  -20.0220  -27.0603   23.7478 C   0  0  0  0  0  0  0  0  0  0  0  0
  -24.5679  -30.2296   27.3756 C   0  0  0  0  0  0  0  0  0  0  0  0
  -22.7591  -28.5045   27.2327 C   0  0  0  0  0  0  0  0  0  0  0  0
  -22.2348  -30.8998   26.7740 C   0  0  0  0  0  0  0  0  0  0  0  0
  -22.0997  -27.8316   20.6552 C   0  0  0  0  0  0  0  0  0  0  0  0
  -25.9336  -21.4600   18.0244 C   0  0  0  0  0  0  0  0  0  0  0  0
  -29.5964  -26.0923   21.4841 C   0  0  0  0  0  0  0  0  0  1  0  0
  -23.5726  -29.5782   25.0841 C   0  0  1  0  0  0  0  0  0  0  0  0
  -20.9988  -27.8571   22.8971 C   0  0  2  0  0  0  0  0  0  0  0  0
  -23.3064  -29.8016   26.5995 C   0  0  0  0  0  0  0  0  0  0  0  0
  -24.9113   -9.4586   21.1381 N   0  0  0  0  0  0  0  0  0  0  0  0
  -23.9249  -10.3711   21.1578 N   0  0  0  0  0  0  0  0  0  0  0  0
  -25.9923  -13.5927   21.1232 N   0  0  0  0  0  0  0  0  0  0  0  0
  -25.5267  -30.9435   24.4067 N   0  0  0  0  0  0  0  0  0  0  0  0
  -21.5819  -10.6252   20.9205 N   0  0  0  0  0  0  0  0  0  0  0  0
  -21.5093   -7.2667   19.1571 N   0  0  0  0  0  0  0  0  0  0  0  0
  -25.7835  -34.4698   24.0078 N   0  0  0  0  0  0  0  0  0  0  0  0
  -22.3898  -29.1984   24.3192 N   0  0  0  0  0  0  0  0  0  0  0  0
  -21.1806  -27.1462   21.6000 N   0  3  0  0  0  0  0  0  0  0  0  0
  -21.2323   -6.9425   21.4103 O   0  0  0  0  0  0  0  0  0  0  0  0
  -26.4471  -14.0448   18.8857 O   0  0  0  0  0  0  0  0  0  0  0  0
  -26.0066  -33.0652   25.8516 O   0  0  0  0  0  0  0  0  0  0  0  0
  -23.3590  -31.6252   23.9095 O   0  0  0  0  0  0  0  0  0  0  0  0
  -23.2367  -27.1931   23.5200 O   0  0  0  0  0  0  0  0  0  0  0  0
  -27.0923   -3.5092   20.5057 O   0  0  0  0  0  0  0  0  0  0  0  0
  -29.2031  -26.5362   22.7821 O   0  0  0  0  0  0  0  0  0  1  0  0
  -28.9329   -1.2342   25.1791 F   0  0  0  0  0  0  0  0  0  0  0  0
  -26.2790   -0.9793   21.2679 F   0  0  0  0  0  0  0  0  0  0  0  0
  1  2  1  0  0  0  0
  1  6  2  0  0  0  0
  2  7  2  0  0  0  0
  3 10  2  0  0  0  0
  3 18  1  0  0  0  0
  4 11  1  0  0  0  0
  4 18  2  0  0  0  0
  5  8  2  0  0  0  0
  5 19  1  0  0  0  0
  6 21  1  0  0  0  0
  7 23  1  0  0  0  0
  8 24  1  0  0  0  0
  9 12  2  0  0  0  0
  9 22  1  0  0  0  0
 10 27  1  0  0  0  0
 11 27  2  0  0  0  0
 12 28  1  0  0  0  0
 13 14  2  0  0  0  0
 13 29  1  0  0  0  0
 14 30  1  0  0  0  0
 15 19  2  0  0  0  0
 15 26  1  0  0  0  0
 16 25  1  0  0  0  0
 16 28  2  0  0  0  0
 17 30  2  0  0  0  0
 17 31  1  0  0  0  0
 18 32  1  0  0  0  0
 19 34  1  0  0  0  0
 20 32  1  0  0  0  0
 20 33  2  0  0  0  0
 20 36  1  0  0  0  0
 21 23  2  0  0  0  0
 21 41  1  0  0  0  0
 22 25  2  0  0  0  0
 22 42  1  0  0  0  0
 23 55  1  0  0  0  0
 24 26  2  0  0  0  0
 24 54  1  0  0  0  0
 25 43  1  0  0  0  0
 26 65  1  0  0  0  0
 27 84  1  0  0  0  0
 28 85  1  0  0  0  0
 29 31  2  0  0  0  0
 29 84  1  0  0  0  0
 30 86  1  0  0  0  0
 31 87  1  0  0  0  0
 32 70  2  0  0  0  0
 33 71  1  0  0  0  0
 33 74  1  0  0  0  0
 34 35  2  0  0  0  0
 35 37  1  0  0  0  0
 36 75  1  0  0  0  0
 36 79  2  0  0  0  0
 37 72  1  0  0  0  0
 37 80  2  0  0  0  0
 38 56  1  0  0  0  0
 38 76  1  0  0  0  0
 38 81  2  0  0  0  0
 39 67  1  0  0  0  0
 39 73  1  0  0  0  0
 39 82  2  0  0  0  0
 40 68  1  0  0  0  0
 40 77  1  0  0  0  0
 40 83  2  0  0  0  0
 41 44  1  0  0  0  0
 42 56  1  0  0  0  0
 43 73  1  0  0  0  0
 44 48  1  0  0  0  0
 45 51  1  0  0  0  0
 45 52  1  0  0  0  0
 46 49  1  0  0  0  0
 46 54  1  0  0  0  0
 47 50  1  0  0  0  0
 47 54  1  0  0  0  0
 48 55  1  0  0  0  0
 49 57  1  0  0  0  0
 50 57  1  0  0  0  0
 51 58  1  0  0  0  0
 52 72  1  0  0  0  0
 53 58  1  0  0  0  0
 53 72  1  0  0  0  0
 55 76  1  0  0  0  0
 56 73  1  0  0  0  0
 57 66  1  0  0  0  0
 58 71  1  0  0  0  0
 59 65  1  0  0  0  0
 60 68  1  0  0  0  0
 61 69  1  0  0  0  0
 62 69  1  0  0  0  0
 63 69  1  0  0  0  0
 64 78  1  0  0  0  0
 66 85  1  0  0  0  0
 67 69  1  0  0  0  0
 67 77  1  0  0  0  0
 68 78  1  0  0  0  0
 70 71  1  0  0  0  0
M  CHG  1  78   1
M  ISO  4  35 100  37 100  66 101  85 101
M  END
> <Batch ID>
0131

> <Smiles>
CCc1cc(C=[100CH:0][100C:0](=O)N2CCCC(n3nc(-c4ccc(Oc5ccc(F)cc5F)cc4)c(C(N)=O)c3N)C2)ccc1C1CCC([101CH2:1][101O:1]c2ccc3c(c2)CN(C(=O)C(NC(=O)C(C)NC)C(C)(C)C)C(C(=O)NC2CCCc4ccccc42)C3)CC1

> <Shape>
0.254

> <Color>
0.061

> <Negative vol penalty>
0.000

$$$$

  -OEChem-04052302253D

 83 91  0     1  0  0  0  0  0999 V2000
  -23.6504  -15.5538   15.2046 C   0  0  0  0  0  0  0  0  0  0  0  0
  -24.3782  -15.6186   16.3884 C   0  0  0  0  0  0  0  0  0  0  0  0
  -23.0736   -9.8697   19.9413 C   0  0  0  0  0  0  0  0  0  0  0  0
  -23.8315   -9.8773   22.2353 C   0  0  0  0  0  0  0  0  0  0  0  0
  -24.2982  -15.2642   14.0044 C   0  0  0  0  0  0  0  0  0  0  0  0
  -25.7541  -15.3927   16.3730 C   0  0  0  0  0  0  0  0  0  0  0  0
  -30.3625  -20.4099   18.7143 C   0  0  0  0  0  0  0  0  0  0  0  0
  -30.4664  -18.3406   24.0463 C   0  0  0  0  0  0  0  0  0  0  0  0
  -32.6503  -17.4903   23.4595 C   0  0  0  0  0  0  0  0  0  0  0  0
  -29.8790  -17.4567   23.1412 C   0  0  0  0  0  0  0  0  0  0  0  0
  -32.0629  -16.6063   22.5544 C   0  0  0  0  0  0  0  0  0  0  0  0
  -22.3288   -8.7172   20.1911 C   0  0  0  0  0  0  0  0  0  0  0  0
  -23.0867   -8.7247   22.4852 C   0  0  0  0  0  0  0  0  0  0  0  0
  -31.2959  -21.2363   19.3405 C   0  0  0  0  0  0  0  0  0  0  0  0
  -19.3788   -7.9232   21.6403 C   0  0  0  0  0  0  0  0  0  0  0  0
  -18.0723   -7.8776   21.1539 C   0  0  0  0  0  0  0  0  0  0  0  0
  -33.0781  -19.7403   18.6818 C   0  0  0  0  0  0  0  0  0  0  0  0
  -18.6318   -5.9335   19.8330 C   0  0  0  0  0  0  0  0  0  0  0  0
  -23.8250  -10.4498   20.9633 C   0  0  0  0  0  0  0  0  0  0  0  0
  -24.1686  -12.9746   20.8424 C   0  0  0  0  0  0  0  0  0  0  0  0
  -25.6843  -15.0441   13.9727 C   0  0  0  0  0  0  0  0  0  0  0  0
  -30.7857  -19.2522   18.0555 C   0  0  0  0  0  0  0  0  0  0  0  0
  -26.4208  -15.0985   15.1714 C   0  0  0  0  0  0  0  0  0  0  0  0
  -32.1491  -18.9153   18.0421 C   0  0  0  0  0  0  0  0  0  0  0  0
  -31.8521  -18.3575   24.2054 C   0  0  0  0  0  0  0  0  0  0  0  0
  -30.6772  -16.5895   22.3953 C   0  0  0  0  0  0  0  0  0  0  0  0
  -22.3353   -8.1447   21.4631 C   0  0  0  0  0  0  0  0  0  0  0  0
  -32.6503  -20.9022   19.3244 C   0  0  0  0  0  0  0  0  0  0  0  0
  -20.3119   -6.9740   21.2229 C   0  0  0  0  0  0  0  0  0  0  0  0
  -17.6988   -6.8828   20.2503 C   0  0  0  0  0  0  0  0  0  0  0  0
  -19.9384   -5.9792   20.3194 C   0  0  0  0  0  0  0  0  0  0  0  0
  -24.5951  -11.6400   20.7057 C   0  0  0  0  0  0  0  0  0  0  0  0
  -25.2616  -13.7232   20.4797 C   0  0  0  0  0  0  0  0  0  0  0  0
  -22.8981  -13.4915   21.2600 C   0  0  0  0  0  0  0  0  0  0  0  0
  -29.8272  -16.2343   16.0432 C   0  0  0  0  0  0  0  0  0  0  0  0
  -32.4267  -17.3237   14.8324 C   0  0  0  0  0  0  0  0  0  0  0  0
  -35.0503  -19.0797   13.5399 C   0  0  0  0  0  0  0  0  0  0  0  0
  -30.7283  -14.7653   20.6586 C   0  0  0  0  0  0  0  0  0  0  0  0
  -26.3329  -14.6877   12.6586 C   0  0  0  0  0  0  0  0  0  0  0  0
  -29.8085  -18.3007   17.4204 C   0  0  0  0  0  0  0  0  0  0  0  0
  -32.5545  -17.6422   17.3509 C   0  0  0  0  0  0  0  0  0  0  0  0
  -27.8526  -14.8306   12.6708 C   0  0  0  0  0  0  0  0  0  0  0  0
  -29.6143  -12.3511   18.2905 C   0  0  0  0  0  0  0  0  0  0  0  0
  -28.4388  -14.1918   13.9259 C   0  0  0  0  0  0  0  0  0  0  0  0
  -28.1741  -12.0607   18.7190 C   0  0  0  0  0  0  0  0  0  0  0  0
  -30.5286  -12.5799   19.4928 C   0  0  0  0  0  0  0  0  0  0  0  0
  -28.6209  -13.3062   20.8721 C   0  0  0  0  0  0  0  0  0  0  0  0
  -27.9187  -14.8839   15.1916 C   0  0  1  0  0  0  0  0  0  0  0  0
  -30.3565  -17.6346   16.1455 C   0  0  1  0  0  0  0  0  0  0  0  0
  -27.6490  -13.1331   19.6936 C   0  0  2  0  0  0  0  0  0  0  0  0
  -36.7288  -19.0260   11.6752 C   0  0  0  0  0  0  0  0  0  0  0  0
  -33.9947  -15.1652   16.3109 C   0  0  0  0  0  0  0  0  0  0  0  0
  -36.0145  -15.8254   14.9870 C   0  0  0  0  0  0  0  0  0  0  0  0
  -33.9969  -14.9357   13.8205 C   0  0  0  0  0  0  0  0  0  0  0  0
  -34.0653  -21.6377   12.4241 C   0  0  0  0  0  0  0  0  0  0  0  0
  -32.4870  -19.3133   25.1839 C   0  0  0  0  0  0  0  0  0  0  0  0
  -32.8522  -20.6717   24.5747 C   0  0  0  0  0  0  0  0  0  0  0  0
  -33.8385  -20.5594   23.4068 C   0  0  0  0  0  0  0  0  0  0  0  0
  -34.1497  -21.9356   22.8126 C   0  0  0  0  0  0  0  0  0  0  0  0
  -35.1833  -21.8886   21.6868 C   0  0  0  0  0  0  0  0  0  0  0  0
  -34.7265  -21.0975   20.4684 C   0  0  0  0  0  0  0  0  0  1  0  0
  -33.9330  -17.2628   14.8068 C   0  0  1  0  0  0  0  0  0  0  0  0
  -35.3640  -19.5255   12.1232 C   0  0  2  0  0  0  0  0  0  0  0  0
  -34.4709  -15.8165   14.9971 C   0  0  0  0  0  0  0  0  0  0  0  0
  -25.8603  -11.5432   20.2885 N   0  0  0  0  0  0  0  0  0  0  0  0
  -26.2381  -12.8264   20.1599 N   0  0  0  0  0  0  0  0  0  0  0  0
  -31.8221  -17.5040   16.0824 N   0  0  0  0  0  0  0  0  0  0  0  0
  -29.9695  -13.6115   20.3692 N   0  0  0  0  0  0  0  0  0  0  0  0
  -25.4729  -15.0545   20.4063 N   0  0  0  0  0  0  0  0  0  0  0  0
  -21.8853  -12.5831   21.5969 N   0  0  0  0  0  0  0  0  0  0  0  0
  -30.0808  -15.6912   21.4760 N   0  0  0  0  0  0  0  0  0  0  0  0
  -28.6076  -16.1394   15.4005 N   0  0  0  0  0  0  0  0  0  0  0  0
  -34.3459  -17.8945   13.5583 N   0  0  0  0  0  0  0  0  0  0  0  0
  -35.3556  -21.0131   12.0344 N   0  3  0  0  0  0  0  0  0  0  0  0
  -22.6626  -14.7223   21.3166 O   0  0  0  0  0  0  0  0  0  0  0  0
  -30.4772  -15.3069   16.5112 O   0  0  0  0  0  0  0  0  0  0  0  0
  -31.8004  -17.2091   13.7751 O   0  0  0  0  0  0  0  0  0  0  0  0
  -35.3987  -19.7170   14.5314 O   0  0  0  0  0  0  0  0  0  0  0  0
  -31.8579  -14.9331   20.1919 O   0  0  0  0  0  0  0  0  0  0  0  0
  -21.6084   -7.0202   21.7073 O   0  0  0  0  0  0  0  0  0  0  0  0
  -33.5567  -21.7157   19.9338 O   0  0  0  0  0  0  0  0  0  1  0  0
  -16.4437   -6.8382   19.7846 F   0  0  0  0  0  0  0  0  0  0  0  0
  -20.8300   -5.0639   19.9157 F   0  0  0  0  0  0  0  0  0  0  0  0
  1  2  1  0  0  0  0
  1  5  2  0  0  0  0
  2  6  2  0  0  0  0
  3 12  2  0  0  0  0
  3 19  1  0  0  0  0
  4 13  1  0  0  0  0
  4 19  2  0  0  0  0
  5 21  1  0  0  0  0
  6 23  1  0  0  0  0
  7 14  2  0  0  0  0
  7 22  1  0  0  0  0
  8 10  2  0  0  0  0
  8 25  1  0  0  0  0
  9 11  1  0  0  0  0
  9 25  2  0  0  0  0
 10 26  1  0  0  0  0
 11 26  2  0  0  0  0
 12 27  1  0  0  0  0
 13 27  2  0  0  0  0
 14 28  1  0  0  0  0
 15 16  2  0  0  0  0
 15 29  1  0  0  0  0
 16 30  1  0  0  0  0
 17 24  1  0  0  0  0
 17 28  2  0  0  0  0
 18 30  2  0  0  0  0
 18 31  1  0  0  0  0
 19 32  1  0  0  0  0
 20 32  1  0  0  0  0
 20 33  2  0  0  0  0
 20 34  1  0  0  0  0
 21 23  2  0  0  0  0
 21 39  1  0  0  0  0
 22 24  2  0  0  0  0
 22 40  1  0  0  0  0
 23 48  1  0  0  0  0
 24 41  1  0  0  0  0
 25 56  1  0  0  0  0
 26 71  1  0  0  0  0
 27 80  1  0  0  0  0
 28 81  1  0  0  0  0
 29 31  2  0  0  0  0
 29 80  1  0  0  0  0
 30 82  1  0  0  0  0
 31 83  1  0  0  0  0
 32 65  2  0  0  0  0
 33 66  1  0  0  0  0
 33 69  1  0  0  0  0
 34 70  1  0  0  0  0
 34 75  2  0  0  0  0
 35 49  1  0  0  0  0
 35 72  1  0  0  0  0
 35 76  2  0  0  0  0
 36 62  1  0  0  0  0
 36 67  1  0  0  0  0
 36 77  2  0  0  0  0
 37 63  1  0  0  0  0
 37 73  1  0  0  0  0
 37 78  2  0  0  0  0
 38 68  1  0  0  0  0
 38 71  1  0  0  0  0
 38 79  2  0  0  0  0
 39 42  1  0  0  0  0
 40 49  1  0  0  0  0
 41 67  1  0  0  0  0
 42 44  1  0  0  0  0
 43 45  1  0  0  0  0
 43 46  1  0  0  0  0
 44 48  1  0  0  0  0
 45 50  1  0  0  0  0
 46 68  1  0  0  0  0
 47 50  1  0  0  0  0
 47 68  1  0  0  0  0
 48 72  1  0  0  0  0
 49 67  1  0  0  0  0
 50 66  1  0  0  0  0
 51 63  1  0  0  0  0
 52 64  1  0  0  0  0
 53 64  1  0  0  0  0
 54 64  1  0  0  0  0
 55 74  1  0  0  0  0
 56 57  1  0  0  0  0
 57 58  1  0  0  0  0
 58 59  1  0  0  0  0
 59 60  1  0  0  0  0
 60 61  1  0  0  0  0
 61 81  1  0  0  0  0
 62 64  1  0  0  0  0
 62 73  1  0  0  0  0
 63 74  1  0  0  0  0
 65 66  1  0  0  0  0
M  CHG  1  74   1
M  ISO  4  38 100  61 101  71 100  81 101
M  END
> <Batch ID>
0131

> <Smiles>
CNC(C)C(=O)NC(C(=O)N1Cc2cc([101O:1][101CH2:1]CCCCCc3ccc([100NH:0][100C:0](=O)N4CCCC(n5nc(-c6ccc(Oc7ccc(F)cc7F)cc6)c(C(N)=O)c5N)C4)cc3)ccc2CC1C(=O)NC1CCCc2ccccc21)C(C)(C)C

> <Shape>
0.157

> <Color>
0.196

> <Negative vol penalty>
0.000

$$$$

  -OEChem-04052302253D

 84 92  0     1  0  0  0  0  0999 V2000
  -30.2105  -25.3898   15.6978 C   0  0  0  0  0  0  0  0  0  0  0  0
  -28.8291  -25.4102   15.8611 C   0  0  0  0  0  0  0  0  0  0  0  0
  -17.4248  -22.2176   19.2895 C   0  0  0  0  0  0  0  0  0  0  0  0
  -23.6211   -9.9750   22.3779 C   0  0  0  0  0  0  0  0  0  0  0  0
  -24.1693   -9.6774   20.0438 C   0  0  0  0  0  0  0  0  0  0  0  0
  -18.3096  -21.1973   19.6386 C   0  0  0  0  0  0  0  0  0  0  0  0
  -31.0435  -25.6632   16.7819 C   0  0  0  0  0  0  0  0  0  0  0  0
  -28.2798  -25.7029   17.1089 C   0  0  0  0  0  0  0  0  0  0  0  0
  -23.0862  -28.7513   18.2218 C   0  0  0  0  0  0  0  0  0  0  0  0
  -17.1430  -23.2376   20.1983 C   0  0  0  0  0  0  0  0  0  0  0  0
  -23.6130   -8.5911   22.5525 C   0  0  0  0  0  0  0  0  0  0  0  0
  -24.1612   -8.2935   20.2184 C   0  0  0  0  0  0  0  0  0  0  0  0
  -21.7932  -28.3238   18.5207 C   0  0  0  0  0  0  0  0  0  0  0  0
  -21.5171   -6.0143   21.9265 C   0  0  0  0  0  0  0  0  0  0  0  0
  -20.4637   -5.4597   22.6534 C   0  0  0  0  0  0  0  0  0  0  0  0
  -22.2498  -28.6070   20.8724 C   0  0  0  0  0  0  0  0  0  0  0  0
  -22.0376   -4.5727   24.2575 C   0  0  0  0  0  0  0  0  0  0  0  0
  -23.8992  -10.5181   21.1236 C   0  0  0  0  0  0  0  0  0  0  0  0
  -18.9124  -21.1970   20.8965 C   0  0  0  0  0  0  0  0  0  0  0  0
  -25.0047  -12.8169   21.0892 C   0  0  0  0  0  0  0  0  0  0  0  0
  -30.5041  -25.9688   18.0414 C   0  0  0  0  0  0  0  0  0  0  0  0
  -23.9757  -29.1001   19.2482 C   0  0  0  0  0  0  0  0  0  0  0  0
  -29.1064  -25.9793   18.2112 C   0  0  0  0  0  0  0  0  0  0  0  0
  -23.5526  -29.0411   20.5838 C   0  0  0  0  0  0  0  0  0  0  0  0
  -17.7458  -23.2373   21.4561 C   0  0  0  0  0  0  0  0  0  0  0  0
  -18.6306  -22.2170   21.8052 C   0  0  0  0  0  0  0  0  0  0  0  0
  -23.8831   -7.7504   21.4727 C   0  0  0  0  0  0  0  0  0  0  0  0
  -21.3758  -28.2488   19.8463 C   0  0  0  0  0  0  0  0  0  0  0  0
  -22.8308   -5.8481   22.3651 C   0  0  0  0  0  0  0  0  0  0  0  0
  -20.7240   -4.7390   23.8189 C   0  0  0  0  0  0  0  0  0  0  0  0
  -23.0911   -5.1273   23.5306 C   0  0  0  0  0  0  0  0  0  0  0  0
  -23.9072  -11.9475   20.9425 C   0  0  0  0  0  0  0  0  0  0  0  0
  -24.4962  -14.0619   20.8102 C   0  0  0  0  0  0  0  0  0  0  0  0
  -19.8314  -20.1158   21.2281 C   0  0  0  0  0  0  0  0  0  0  0  0
  -19.5220  -18.8033   21.2362 C   0  0  0  0  0  0  0  0  0  0  0  0
  -26.3624  -12.5251   21.4457 C   0  0  0  0  0  0  0  0  0  0  0  0
  -20.5705  -17.8240   21.5857 C   0  0  0  0  0  0  0  0  0  0  0  0
  -26.7828  -27.9992   20.2541 C   0  0  0  0  0  0  0  0  0  0  0  0
  -26.6504  -30.5774   22.2182 C   0  0  0  0  0  0  0  0  0  0  0  0
  -24.7343  -32.8962   23.8302 C   0  0  0  0  0  0  0  0  0  0  0  0
  -31.4452  -26.2111   19.1948 C   0  0  0  0  0  0  0  0  0  0  0  0
  -25.3583  -29.5848   18.9079 C   0  0  0  0  0  0  0  0  0  0  0  0
  -24.4624  -29.4237   21.7214 C   0  0  0  0  0  0  0  0  0  0  0  0
  -30.7789  -26.8800   20.3944 C   0  0  0  0  0  0  0  0  0  0  0  0
  -20.0734  -15.4588   18.8306 C   0  0  0  0  0  0  0  0  0  0  0  0
  -29.4526  -26.1991   20.7167 C   0  0  0  0  0  0  0  0  0  0  0  0
  -21.0936  -14.3794   19.1826 C   0  0  0  0  0  0  0  0  0  0  0  0
  -19.4572  -16.0914   20.0775 C   0  0  0  0  0  0  0  0  0  0  0  0
  -21.4879  -15.5453   21.3883 C   0  0  0  0  0  0  0  0  0  0  0  0
  -28.4725  -26.3168   19.5432 C   0  0  1  0  0  0  0  0  0  0  0  0
  -26.3478  -29.4239   20.0578 C   0  0  1  0  0  0  0  0  0  0  0  0
  -22.1551  -14.9280   20.1493 C   0  0  1  0  0  0  0  0  0  0  0  0
  -18.6243  -21.2260   24.1084 C   0  0  0  0  0  0  0  0  0  0  0  0
  -24.9073  -34.8518   25.3931 C   0  0  0  0  0  0  0  0  0  0  0  0
  -27.1264  -28.6683   24.5504 C   0  0  0  0  0  0  0  0  0  0  0  0
  -26.3524  -30.4774   26.0984 C   0  0  0  0  0  0  0  0  0  0  0  0
  -28.3845  -30.8249   24.6941 C   0  0  0  0  0  0  0  0  0  0  0  0
  -23.5443  -34.7382   21.8427 C   0  0  0  0  0  0  0  0  0  0  0  0
  -17.4229  -24.3520   22.4190 C   0  0  0  0  0  0  0  0  0  0  0  0
  -19.2715  -22.2271   23.1586 C   0  0  0  0  0  0  0  0  0  0  0  0
  -18.5308  -25.4039   22.5424 C   0  0  0  0  0  0  0  0  0  0  0  0
  -18.7951  -26.1513   21.2346 C   0  0  0  0  0  0  0  0  0  0  0  0
  -19.9271  -27.1585   21.3853 C   0  0  0  0  0  0  0  0  0  1  0  0
  -26.1049  -30.8411   23.6009 C   0  0  1  0  0  0  0  0  0  0  0  0
  -24.8589  -34.4051   23.9403 C   0  0  2  0  0  0  0  0  0  0  0  0
  -26.9753  -30.1938   24.7148 C   0  0  0  0  0  0  0  0  0  0  0  0
  -22.7861  -12.5862   20.5973 N   0  0  0  0  0  0  0  0  0  0  0  0
  -23.1764  -13.8701   20.5248 N   0  0  0  0  0  0  0  0  0  0  0  0
  -20.4924  -16.5557   21.0131 N   0  0  0  0  0  0  0  0  0  0  0  0
  -25.8067  -29.8854   21.3378 N   0  0  0  0  0  0  0  0  0  0  0  0
  -25.0537  -15.2911   20.7837 N   0  0  0  0  0  0  0  0  0  0  0  0
  -26.7151  -11.1926   21.6992 N   0  0  0  0  0  0  0  0  0  0  0  0
  -27.8867  -27.6396   19.5048 N   0  0  0  0  0  0  0  0  0  0  0  0
  -25.9670  -32.2889   23.7160 N   0  0  0  0  0  0  0  0  0  0  0  0
  -23.6986  -35.0700   23.2825 N   0  3  0  0  0  0  0  0  0  0  0  0
  -27.2333  -13.4216   21.5529 O   0  0  0  0  0  0  0  0  0  0  0  0
  -21.4503  -18.1878   22.3683 O   0  0  0  0  0  0  0  0  0  0  0  0
  -26.1636  -27.2798   21.0293 O   0  0  0  0  0  0  0  0  0  0  0  0
  -27.7807  -30.9770   21.9277 O   0  0  0  0  0  0  0  0  0  0  0  0
  -23.6520  -32.3141   23.8477 O   0  0  0  0  0  0  0  0  0  0  0  0
  -23.8755   -6.4000   21.6427 O   0  0  0  0  0  0  0  0  0  0  0  0
  -20.1145  -27.8312   20.1408 O   0  0  0  0  0  0  0  0  0  1  0  0
  -19.7122   -4.2077   24.5177 F   0  0  0  0  0  0  0  0  0  0  0  0
  -24.3509   -4.9653   23.9575 F   0  0  0  0  0  0  0  0  0  0  0  0
  1  2  1  0  0  0  0
  1  7  2  0  0  0  0
  2  8  2  0  0  0  0
  3  6  1  0  0  0  0
  3 10  2  0  0  0  0
  4 11  2  0  0  0  0
  4 18  1  0  0  0  0
  5 12  1  0  0  0  0
  5 18  2  0  0  0  0
  6 19  2  0  0  0  0
  7 21  1  0  0  0  0
  8 23  1  0  0  0  0
  9 13  2  0  0  0  0
  9 22  1  0  0  0  0
 10 25  1  0  0  0  0
 11 27  1  0  0  0  0
 12 27  2  0  0  0  0
 13 28  1  0  0  0  0
 14 15  2  0  0  0  0
 14 29  1  0  0  0  0
 15 30  1  0  0  0  0
 16 24  1  0  0  0  0
 16 28  2  0  0  0  0
 17 30  2  0  0  0  0
 17 31  1  0  0  0  0
 18 32  1  0  0  0  0
 19 26  1  0  0  0  0
 19 34  1  0  0  0  0
 20 32  1  0  0  0  0
 20 33  2  0  0  0  0
 20 36  1  0  0  0  0
 21 23  2  0  0  0  0
 21 41  1  0  0  0  0
 22 24  2  0  0  0  0
 22 42  1  0  0  0  0
 23 50  1  0  0  0  0
 24 43  1  0  0  0  0
 25 26  2  0  0  0  0
 25 59  1  0  0  0  0
 26 60  1  0  0  0  0
 27 81  1  0  0  0  0
 28 82  1  0  0  0  0
 29 31  2  0  0  0  0
 29 81  1  0  0  0  0
 30 83  1  0  0  0  0
 31 84  1  0  0  0  0
 32 67  2  0  0  0  0
 33 68  1  0  0  0  0
 33 71  1  0  0  0  0
 34 35  2  0  0  0  0
 35 37  1  0  0  0  0
 36 72  1  0  0  0  0
 36 76  2  0  0  0  0
 37 69  1  0  0  0  0
 37 77  2  0  0  0  0
 38 51  1  0  0  0  0
 38 73  1  0  0  0  0
 38 78  2  0  0  0  0
 39 64  1  0  0  0  0
 39 70  1  0  0  0  0
 39 79  2  0  0  0  0
 40 65  1  0  0  0  0
 40 74  1  0  0  0  0
 40 80  2  0  0  0  0
 41 44  1  0  0  0  0
 42 51  1  0  0  0  0
 43 70  1  0  0  0  0
 44 46  1  0  0  0  0
 45 47  1  0  0  0  0
 45 48  1  0  0  0  0
 46 50  1  0  0  0  0
 47 52  1  0  0  0  0
 48 69  1  0  0  0  0
 49 52  1  0  0  0  0
 49 69  1  0  0  0  0
 50 73  1  0  0  0  0
 51 70  1  0  0  0  0
 52 68  1  0  0  0  0
 53 60  1  0  0  0  0
 54 65  1  0  0  0  0
 55 66  1  0  0  0  0
 56 66  1  0  0  0  0
 57 66  1  0  0  0  0
 58 75  1  0  0  0  0
 59 61  1  0  0  0  0
 61 62  1  0  0  0  0
 62 63  1  0  0  0  0
 63 82  1  0  0  0  0
 64 66  1  0  0  0  0
 64 74  1  0  0  0  0
 65 75  1  0  0  0  0
 67 68  1  0  0  0  0
M  CHG  1  75   1
M  ISO  4  35 100  37 100  63 101  82 101
M  END
> <Batch ID>
0131

> <Smiles>
CCc1c(C=[100CH:0][100C:0](=O)N2CCCC(n3nc(-c4ccc(Oc5ccc(F)cc5F)cc4)c(C(N)=O)c3N)C2)cccc1CCC[101CH2:1][101O:1]c1ccc2c(c1)CN(C(=O)C(NC(=O)C(C)NC)C(C)(C)C)C(C(=O)NC1CCCc3ccccc31)C2

> <Shape>
0.281

> <Color>
0.091

> <Negative vol penalty>
0.000

$$$$

  -OEChem-04052302253D

 85 93  0     1  0  0  0  0  0999 V2000
  -20.8822   -6.6019   21.9876 C   0  0  0  0  0  0  0  0  0  0  0  0
  -21.4736   -7.6307   22.7137 C   0  0  0  0  0  0  0  0  0  0  0  0
  -22.8922  -26.6738   19.0591 C   0  0  0  0  0  0  0  0  0  0  0  0
  -23.0522  -26.0074   21.3759 C   0  0  0  0  0  0  0  0  0  0  0  0
  -21.5191   -6.0930   20.8565 C   0  0  0  0  0  0  0  0  0  0  0  0
  -22.7029   -8.1505   22.3097 C   0  0  0  0  0  0  0  0  0  0  0  0
  -22.8061  -13.2121   22.4297 C   0  0  0  0  0  0  0  0  0  0  0  0
  -21.5086  -26.7942   19.1893 C   0  0  0  0  0  0  0  0  0  0  0  0
  -21.6686  -26.1278   21.5061 C   0  0  0  0  0  0  0  0  0  0  0  0
  -22.9683  -13.8162   23.6757 C   0  0  0  0  0  0  0  0  0  0  0  0
  -19.4134  -28.6118   21.9115 C   0  0  0  0  0  0  0  0  0  0  0  0
  -18.9248  -29.2640   23.0436 C   0  0  0  0  0  0  0  0  0  0  0  0
  -25.3104  -14.1483   23.2031 C   0  0  0  0  0  0  0  0  0  0  0  0
  -30.2505  -18.8047   24.7524 C   0  0  0  0  0  0  0  0  0  0  0  0
  -30.5082  -19.7231   22.5326 C   0  0  0  0  0  0  0  0  0  0  0  0
  -17.7303  -27.2630   23.6809 C   0  0  0  0  0  0  0  0  0  0  0  0
  -23.6639  -26.2804   20.1524 C   0  0  0  0  0  0  0  0  0  0  0  0
  -26.0585  -27.1558   20.2398 C   0  0  0  0  0  0  0  0  0  0  0  0
  -22.7522   -6.6133   20.4329 C   0  0  0  0  0  0  0  0  0  0  0  0
  -23.8990  -13.0614   21.5641 C   0  0  0  0  0  0  0  0  0  0  0  0
  -23.3575   -7.6471   21.1727 C   0  0  0  0  0  0  0  0  0  0  0  0
  -25.1590  -13.5442   21.9456 C   0  0  0  0  0  0  0  0  0  0  0  0
  -28.9698  -19.3519   24.8301 C   0  0  0  0  0  0  0  0  0  0  0  0
  -28.4583  -20.0846   23.7591 C   0  0  0  0  0  0  0  0  0  0  0  0
  -29.2274  -20.2703   22.6103 C   0  0  0  0  0  0  0  0  0  0  0  0
  -20.8969  -26.5212   20.4128 C   0  0  0  0  0  0  0  0  0  0  0  0
  -24.2212  -14.2819   24.0637 C   0  0  0  0  0  0  0  0  0  0  0  0
  -19.0603  -27.2852   21.6641 C   0  0  0  0  0  0  0  0  0  0  0  0
  -18.0833  -28.5896   23.9282 C   0  0  0  0  0  0  0  0  0  0  0  0
  -31.0197  -18.9904   23.6036 C   0  0  0  0  0  0  0  0  0  0  0  0
  -18.2188  -26.6108   22.5488 C   0  0  0  0  0  0  0  0  0  0  0  0
  -25.0931  -26.1553   20.0185 C   0  0  0  0  0  0  0  0  0  0  0  0
  -27.2579  -26.5390   19.9804 C   0  0  0  0  0  0  0  0  0  0  0  0
  -25.9886  -18.0124   26.6176 C   0  0  0  0  0  0  0  0  0  0  0  0
  -27.1306  -18.0518   25.9185 C   0  0  0  0  0  0  0  0  0  0  0  0
  -25.8863  -28.5207   20.6438 C   0  0  0  0  0  0  0  0  0  0  0  0
  -25.0077  -16.9091   26.4169 C   0  0  0  0  0  0  0  0  0  0  0  0
  -25.4145  -10.5824   20.2751 C   0  0  0  0  0  0  0  0  0  0  0  0
  -27.0199  -12.8976   18.6673 C   0  0  0  0  0  0  0  0  0  0  0  0
  -28.0583  -16.1459   18.5364 C   0  0  0  0  0  0  0  0  0  0  0  0
  -29.0404  -20.8386   20.1632 C   0  0  0  0  0  0  0  0  0  0  0  0
  -23.4252   -5.9987   19.2313 C   0  0  0  0  0  0  0  0  0  0  0  0
  -23.7020  -12.4315   20.2125 C   0  0  0  0  0  0  0  0  0  0  0  0
  -26.3600  -13.4249   21.0447 C   0  0  0  0  0  0  0  0  0  0  0  0
  -24.5465   -6.8591   18.6547 C   0  0  0  0  0  0  0  0  0  0  0  0
  -29.1683  -23.0205   17.3526 C   0  0  0  0  0  0  0  0  0  0  0  0
  -25.4548   -7.3692   19.7690 C   0  0  0  0  0  0  0  0  0  0  0  0
  -28.2303  -24.1661   17.7399 C   0  0  0  0  0  0  0  0  0  0  0  0
  -28.6543  -21.6723   17.8544 C   0  0  0  0  0  0  0  0  0  0  0  0
  -27.4082  -22.7659   19.6766 C   0  0  0  0  0  0  0  0  0  0  0  0
  -24.6785   -8.2540   20.7519 C   0  0  1  0  0  0  0  0  0  0  0  0
  -24.9909  -11.8678   19.6224 C   0  0  1  0  0  0  0  0  0  0  0  0
  -27.9171  -24.1522   19.2490 C   0  0  2  0  0  0  0  0  0  0  0  0
  -27.0834  -20.6699   23.8467 C   0  0  0  0  0  0  0  0  0  0  0  0
  -29.3865  -17.7337   17.1180 C   0  0  0  0  0  0  0  0  0  0  0  0
  -29.6060  -11.6249   19.6684 C   0  0  0  0  0  0  0  0  0  0  0  0
  -30.8033  -13.7332   19.0441 C   0  0  0  0  0  0  0  0  0  0  0  0
  -29.6685  -12.3776   17.2843 C   0  0  0  0  0  0  0  0  0  0  0  0
  -25.7182  -17.9075   18.1128 C   0  0  0  0  0  0  0  0  0  0  0  0
  -28.1588  -19.1344   26.0830 C   0  0  0  0  0  0  0  0  0  0  0  0
  -25.3975  -15.8684   25.3886 C   0  0  0  0  0  0  0  0  0  1  0  0
  -28.2705  -13.7042   18.9207 C   0  0  1  0  0  0  0  0  0  0  0  0
  -28.0048  -17.1764   17.4230 C   0  0  2  0  0  0  0  0  0  0  0  0
  -29.5651  -12.8606   18.7474 C   0  0  0  0  0  0  0  0  0  0  0  0
  -25.6327  -24.9914   19.6469 N   0  0  0  0  0  0  0  0  0  0  0  0
  -26.9501  -25.2566   19.6327 N   0  0  0  0  0  0  0  0  0  0  0  0
  -26.1178  -12.7959   19.7358 N   0  0  0  0  0  0  0  0  0  0  0  0
  -28.3833  -21.7333   19.2923 N   0  0  0  0  0  0  0  0  0  0  0  0
  -28.5354  -26.9739   20.0180 N   0  0  0  0  0  0  0  0  0  0  0  0
  -24.5857  -28.9920   20.8684 N   0  0  0  0  0  0  0  0  0  0  0  0
  -28.7283  -21.0123   21.5112 N   0  0  0  0  0  0  0  0  0  0  0  0
  -24.4745   -9.5729   20.1922 N   0  0  0  0  0  0  0  0  0  0  0  0
  -28.1922  -14.8659   18.0416 N   0  0  0  0  0  0  0  0  0  0  0  0
  -27.1157  -18.3088   17.8077 N   0  3  0  0  0  0  0  0  0  0  0  0
  -26.8561  -29.3037   20.7850 O   0  0  0  0  0  0  0  0  0  0  0  0
  -23.9547  -16.8512   27.0461 O   0  0  0  0  0  0  0  0  0  0  0  0
  -26.5134  -10.5113   20.8127 O   0  0  0  0  0  0  0  0  0  0  0  0
  -26.8462  -12.3829   17.5598 O   0  0  0  0  0  0  0  0  0  0  0  0
  -27.9921  -16.4467   19.7262 O   0  0  0  0  0  0  0  0  0  0  0  0
  -29.8430  -19.9993   19.7468 O   0  0  0  0  0  0  0  0  0  0  0  0
  -19.5469  -26.6388   20.5402 O   0  0  0  0  0  0  0  0  0  0  0  0
  -24.3824  -14.8714   25.2796 O   0  0  0  0  0  0  0  0  0  1  0  0
  -17.6154  -29.2155   25.0161 F   0  0  0  0  0  0  0  0  0  0  0  0
  -32.2504  -18.4669   23.5297 F   0  0  0  0  0  0  0  0  0  0  0  0
  -17.8771  -25.3359   22.3170 F   0  0  0  0  0  0  0  0  0  0  0  0
  1  2  1  0  0  0  0
  1  5  2  0  0  0  0
  2  6  2  0  0  0  0
  3  8  2  0  0  0  0
  3 17  1  0  0  0  0
  4  9  1  0  0  0  0
  4 17  2  0  0  0  0
  5 19  1  0  0  0  0
  6 21  1  0  0  0  0
  7 10  2  0  0  0  0
  7 20  1  0  0  0  0
  8 26  1  0  0  0  0
  9 26  2  0  0  0  0
 10 27  1  0  0  0  0
 11 12  2  0  0  0  0
 11 28  1  0  0  0  0
 12 29  1  0  0  0  0
 13 22  1  0  0  0  0
 13 27  2  0  0  0  0
 14 23  1  0  0  0  0
 14 30  2  0  0  0  0
 15 25  2  0  0  0  0
 15 30  1  0  0  0  0
 16 29  2  0  0  0  0
 16 31  1  0  0  0  0
 17 32  1  0  0  0  0
 18 32  1  0  0  0  0
 18 33  2  0  0  0  0
 18 36  1  0  0  0  0
 19 21  2  0  0  0  0
 19 42  1  0  0  0  0
 20 22  2  0  0  0  0
 20 43  1  0  0  0  0
 21 51  1  0  0  0  0
 22 44  1  0  0  0  0
 23 24  2  0  0  0  0
 23 60  1  0  0  0  0
 24 25  1  0  0  0  0
 24 54  1  0  0  0  0
 25 71  1  0  0  0  0
 26 81  1  0  0  0  0
 27 82  1  0  0  0  0
 28 31  2  0  0  0  0
 28 81  1  0  0  0  0
 29 83  1  0  0  0  0
 30 84  1  0  0  0  0
 31 85  1  0  0  0  0
 32 65  2  0  0  0  0
 33 66  1  0  0  0  0
 33 69  1  0  0  0  0
 34 35  2  0  0  0  0
 34 37  1  0  0  0  0
 35 60  1  0  0  0  0
 36 70  1  0  0  0  0
 36 75  2  0  0  0  0
 37 61  1  0  0  0  0
 37 76  2  0  0  0  0
 38 52  1  0  0  0  0
 38 72  1  0  0  0  0
 38 77  2  0  0  0  0
 39 62  1  0  0  0  0
 39 67  1  0  0  0  0
 39 78  2  0  0  0  0
 40 63  1  0  0  0  0
 40 73  1  0  0  0  0
 40 79  2  0  0  0  0
 41 68  1  0  0  0  0
 41 71  1  0  0  0  0
 41 80  2  0  0  0  0
 42 45  1  0  0  0  0
 43 52  1  0  0  0  0
 44 67  1  0  0  0  0
 45 47  1  0  0  0  0
 46 48  1  0  0  0  0
 46 49  1  0  0  0  0
 47 51  1  0  0  0  0
 48 53  1  0  0  0  0
 49 68  1  0  0  0  0
 50 53  1  0  0  0  0
 50 68  1  0  0  0  0
 51 72  1  0  0  0  0
 52 67  1  0  0  0  0
 53 66  1  0  0  0  0
 55 63  1  0  0  0  0
 56 64  1  0  0  0  0
 57 64  1  0  0  0  0
 58 64  1  0  0  0  0
 59 74  1  0  0  0  0
 61 82  1  0  0  0  0
 62 64  1  0  0  0  0
 62 73  1  0  0  0  0
 63 74  1  0  0  0  0
 65 66  1  0  0  0  0
M  CHG  1  74   1
M  ISO  4  41 100  61 101  71 100  82 101
M  END
> <Batch ID>
0131

> <Smiles>
CNC(C)C(=O)NC(C(=O)N1Cc2cc([101O:1][101CH2:1]C(=O)C=CCc3cc(F)cc([100NH:0][100C:0](=O)N4CCCC(n5nc(-c6ccc(Oc7ccc(F)cc7F)cc6)c(C(N)=O)c5N)C4)c3C)ccc2CC1C(=O)NC1CCCc2ccccc21)C(C)(C)C

> <Shape>
0.243

> <Color>
0.061

> <Negative vol penalty>
0.000

$$$$

  -OEChem-04052302253D

 85 93  0     1  0  0  0  0  0999 V2000
  -22.5180   -8.6499   22.0404 C   0  0  0  0  0  0  0  0  0  0  0  0
  -23.7031   -9.2628   22.4347 C   0  0  0  0  0  0  0  0  0  0  0  0
  -20.0785  -28.3080   23.2848 C   0  0  0  0  0  0  0  0  0  0  0  0
  -20.0011  -26.1904   22.1243 C   0  0  0  0  0  0  0  0  0  0  0  0
  -21.8405   -9.1069   20.9108 C   0  0  0  0  0  0  0  0  0  0  0  0
  -24.2119  -10.3324   21.6989 C   0  0  0  0  0  0  0  0  0  0  0  0
  -27.8908  -16.4242   22.5184 C   0  0  0  0  0  0  0  0  0  0  0  0
  -18.6927  -28.4203   23.1724 C   0  0  0  0  0  0  0  0  0  0  0  0
  -18.6153  -26.3027   22.0119 C   0  0  0  0  0  0  0  0  0  0  0  0
  -29.0126  -17.0811   22.0146 C   0  0  0  0  0  0  0  0  0  0  0  0
  -15.9586  -27.1637   24.7146 C   0  0  0  0  0  0  0  0  0  0  0  0
  -15.2469  -27.5648   25.8452 C   0  0  0  0  0  0  0  0  0  0  0  0
  -27.7150  -17.8362   20.1264 C   0  0  0  0  0  0  0  0  0  0  0  0
  -30.0420  -22.0010   21.1018 C   0  0  0  0  0  0  0  0  0  0  0  0
  -30.0186  -24.0941   19.2577 C   0  0  0  0  0  0  0  0  0  0  0  0
  -14.4225  -29.4914   24.6428 C   0  0  0  0  0  0  0  0  0  0  0  0
  -20.7327  -27.1931   22.7607 C   0  0  0  0  0  0  0  0  0  0  0  0
  -22.8866  -26.4757   23.9242 C   0  0  0  0  0  0  0  0  0  0  0  0
  -22.3361  -10.1889   20.1663 C   0  0  0  0  0  0  0  0  0  0  0  0
  -26.6734  -16.4594   21.8233 C   0  0  0  0  0  0  0  0  0  0  0  0
  -23.5410  -10.8035   20.5575 C   0  0  0  0  0  0  0  0  0  0  0  0
  -26.5785  -17.1812   20.6249 C   0  0  0  0  0  0  0  0  0  0  0  0
  -30.8505  -21.9396   19.9669 C   0  0  0  0  0  0  0  0  0  0  0  0
  -29.2217  -23.1089   21.3147 C   0  0  0  0  0  0  0  0  0  0  0  0
  -30.8389  -22.9861   19.0448 C   0  0  0  0  0  0  0  0  0  0  0  0
  -29.2100  -24.1555   20.3926 C   0  0  0  0  0  0  0  0  0  0  0  0
  -17.9611  -27.4176   22.5359 C   0  0  0  0  0  0  0  0  0  0  0  0
  -28.9256  -17.7848   20.8170 C   0  0  0  0  0  0  0  0  0  0  0  0
  -15.9023  -27.9266   23.5481 C   0  0  0  0  0  0  0  0  0  0  0  0
  -14.4788  -28.7286   25.8093 C   0  0  0  0  0  0  0  0  0  0  0  0
  -15.1343  -29.0904   23.5123 C   0  0  0  0  0  0  0  0  0  0  0  0
  -22.1642  -27.0768   22.8760 C   0  0  0  0  0  0  0  0  0  0  0  0
  -24.2034  -26.6245   23.5631 C   0  0  0  0  0  0  0  0  0  0  0  0
  -22.4100  -25.8397   25.1175 C   0  0  0  0  0  0  0  0  0  0  0  0
  -24.7972  -14.2773   20.4735 C   0  0  0  0  0  0  0  0  0  0  0  0
  -22.8159  -16.8102   20.0472 C   0  0  0  0  0  0  0  0  0  0  0  0
  -22.4583  -20.1914   19.7531 C   0  0  0  0  0  0  0  0  0  0  0  0
  -28.2668  -26.4049   19.7626 C   0  0  0  0  0  0  0  0  0  0  0  0
  -21.5935  -10.6170   18.9254 C   0  0  0  0  0  0  0  0  0  0  0  0
  -25.4656  -15.7680   22.3937 C   0  0  0  0  0  0  0  0  0  0  0  0
  -25.2895  -17.2667   19.8506 C   0  0  0  0  0  0  0  0  0  0  0  0
  -22.0027  -11.9968   18.4164 C   0  0  0  0  0  0  0  0  0  0  0  0
  -26.3186  -29.3826   19.8833 C   0  0  0  0  0  0  0  0  0  0  0  0
  -23.5222  -12.1276   18.3914 C   0  0  0  0  0  0  0  0  0  0  0  0
  -25.1235  -28.9988   20.7589 C   0  0  0  0  0  0  0  0  0  0  0  0
  -26.7622  -28.2254   18.9901 C   0  0  0  0  0  0  0  0  0  0  0  0
  -25.8308  -26.5799   20.5694 C   0  0  0  0  0  0  0  0  0  0  0  0
  -24.1117  -11.9824   19.7995 C   0  0  1  0  0  0  0  0  0  0  0  0
  -24.4108  -15.4419   21.3408 C   0  0  1  0  0  0  0  0  0  0  0  0
  -25.3888  -27.6929   21.5335 C   0  0  2  0  0  0  0  0  0  0  0  0
  -28.3661  -23.1481   22.5392 C   0  0  0  0  0  0  0  0  0  0  0  0
  -34.4165  -25.3218   16.3862 C   0  0  0  0  0  0  0  0  0  0  0  0
  -20.7220  -21.9629   19.3730 C   0  0  0  0  0  0  0  0  0  0  0  0
  -22.7173  -16.0752   17.0874 C   0  0  0  0  0  0  0  0  0  0  0  0
  -21.7900  -18.3541   16.6239 C   0  0  0  0  0  0  0  0  0  0  0  0
  -20.5206  -16.7624   18.0654 C   0  0  0  0  0  0  0  0  0  0  0  0
  -23.0227  -21.4681   22.3627 C   0  0  0  0  0  0  0  0  0  0  0  0
  -31.7286  -20.7317   19.7580 C   0  0  0  0  0  0  0  0  0  0  0  0
  -31.6958  -22.9423   17.8224 C   0  0  0  0  0  0  0  0  0  0  0  0
  -33.5001  -24.1118   16.4743 C   0  0  0  0  0  0  0  0  0  0  0  0
  -31.1939  -19.7559   18.7075 C   0  0  0  0  0  0  0  0  0  0  0  0
  -32.6535  -24.1416   17.7468 C   0  0  0  0  0  0  0  0  0  0  0  0
  -29.8588  -19.1282   19.0906 C   0  0  0  0  0  0  0  0  0  1  0  0
  -22.6209  -17.8446   18.9651 C   0  0  1  0  0  0  0  0  0  0  0  0
  -21.4950  -21.1633   20.4103 C   0  0  2  0  0  0  0  0  0  0  0  0
  -21.9371  -17.2561   17.6988 C   0  0  0  0  0  0  0  0  0  0  0  0
  -22.9564  -27.5708   21.9208 N   0  0  0  0  0  0  0  0  0  0  0  0
  -24.1903  -27.2805   22.3674 N   0  0  0  0  0  0  0  0  0  0  0  0
  -24.1381  -16.5686   20.4462 N   0  0  0  0  0  0  0  0  0  0  0  0
  -26.9991  -27.0237   19.7930 N   0  0  0  0  0  0  0  0  0  0  0  0
  -25.3597  -26.2571   24.1551 N   0  0  0  0  0  0  0  0  0  0  0  0
  -21.0266  -25.7733   25.3323 N   0  0  0  0  0  0  0  0  0  0  0  0
  -28.3838  -25.2894   20.5912 N   0  0  0  0  0  0  0  0  0  0  0  0
  -23.9293  -13.2049   20.5523 N   0  0  0  0  0  0  0  0  0  0  0  0
  -21.8900  -18.9468   19.5811 N   0  0  0  0  0  0  0  0  0  0  0  0
  -22.2365  -22.1176   21.2824 N   0  3  0  0  0  0  0  0  0  0  0  0
  -23.1883  -25.3593   25.9760 O   0  0  0  0  0  0  0  0  0  0  0  0
  -25.8070  -14.3472   19.7828 O   0  0  0  0  0  0  0  0  0  0  0  0
  -21.8308  -16.2427   20.5259 O   0  0  0  0  0  0  0  0  0  0  0  0
  -23.5993  -20.5058   19.4218 O   0  0  0  0  0  0  0  0  0  0  0  0
  -29.1894  -26.8490   19.0745 O   0  0  0  0  0  0  0  0  0  0  0  0
  -16.6089  -27.5267   22.4263 O   0  0  0  0  0  0  0  0  0  0  0  0
  -30.0192  -18.4263   20.3226 O   0  0  0  0  0  0  0  0  0  1  0  0
  -13.7942  -29.1128   26.8946 F   0  0  0  0  0  0  0  0  0  0  0  0
  -15.0754  -29.8267   22.3941 F   0  0  0  0  0  0  0  0  0  0  0  0
  1  2  1  0  0  0  0
  1  5  2  0  0  0  0
  2  6  2  0  0  0  0
  3  8  2  0  0  0  0
  3 17  1  0  0  0  0
  4  9  1  0  0  0  0
  4 17  2  0  0  0  0
  5 19  1  0  0  0  0
  6 21  1  0  0  0  0
  7 10  2  0  0  0  0
  7 20  1  0  0  0  0
  8 27  1  0  0  0  0
  9 27  2  0  0  0  0
 10 28  1  0  0  0  0
 11 12  2  0  0  0  0
 11 29  1  0  0  0  0
 12 30  1  0  0  0  0
 13 22  1  0  0  0  0
 13 28  2  0  0  0  0
 14 23  1  0  0  0  0
 14 24  2  0  0  0  0
 15 25  1  0  0  0  0
 15 26  2  0  0  0  0
 16 30  2  0  0  0  0
 16 31  1  0  0  0  0
 17 32  1  0  0  0  0
 18 32  1  0  0  0  0
 18 33  2  0  0  0  0
 18 34  1  0  0  0  0
 19 21  2  0  0  0  0
 19 39  1  0  0  0  0
 20 22  2  0  0  0  0
 20 40  1  0  0  0  0
 21 48  1  0  0  0  0
 22 41  1  0  0  0  0
 23 25  2  0  0  0  0
 23 58  1  0  0  0  0
 24 26  1  0  0  0  0
 24 51  1  0  0  0  0
 25 59  1  0  0  0  0
 26 73  1  0  0  0  0
 27 82  1  0  0  0  0
 28 83  1  0  0  0  0
 29 31  2  0  0  0  0
 29 82  1  0  0  0  0
 30 84  1  0  0  0  0
 31 85  1  0  0  0  0
 32 67  2  0  0  0  0
 33 68  1  0  0  0  0
 33 71  1  0  0  0  0
 34 72  1  0  0  0  0
 34 77  2  0  0  0  0
 35 49  1  0  0  0  0
 35 74  1  0  0  0  0
 35 78  2  0  0  0  0
 36 64  1  0  0  0  0
 36 69  1  0  0  0  0
 36 79  2  0  0  0  0
 37 65  1  0  0  0  0
 37 75  1  0  0  0  0
 37 80  2  0  0  0  0
 38 70  1  0  0  0  0
 38 73  1  0  0  0  0
 38 81  2  0  0  0  0
 39 42  1  0  0  0  0
 40 49  1  0  0  0  0
 41 69  1  0  0  0  0
 42 44  1  0  0  0  0
 43 45  1  0  0  0  0
 43 46  1  0  0  0  0
 44 48  1  0  0  0  0
 45 50  1  0  0  0  0
 46 70  1  0  0  0  0
 47 50  1  0  0  0  0
 47 70  1  0  0  0  0
 48 74  1  0  0  0  0
 49 69  1  0  0  0  0
 50 68  1  0  0  0  0
 52 60  1  0  0  0  0
 53 65  1  0  0  0  0
 54 66  1  0  0  0  0
 55 66  1  0  0  0  0
 56 66  1  0  0  0  0
 57 76  1  0  0  0  0
 58 61  1  0  0  0  0
 59 62  1  0  0  0  0
 60 62  1  0  0  0  0
 61 63  1  0  0  0  0
 63 83  1  0  0  0  0
 64 66  1  0  0  0  0
 64 75  1  0  0  0  0
 65 76  1  0  0  0  0
 67 68  1  0  0  0  0
M  CHG  1  76   1
M  ISO  4  38 100  63 101  73 100  83 101
M  END
> <Batch ID>
0131

> <Smiles>
CCCCc1cc([100NH:0][100C:0](=O)N2CCCC(n3nc(-c4ccc(Oc5ccc(F)cc5F)cc4)c(C(N)=O)c3N)C2)c(C)cc1CC[101CH2:1][101O:1]c1ccc2c(c1)CN(C(=O)C(NC(=O)C(C)NC)C(C)(C)C)C(C(=O)NC1CCCc3ccccc31)C2

> <Shape>
0.223

> <Color>
0.070

> <Negative vol penalty>
0.000

$$$$

  -OEChem-04052302253D

 83 91  0     1  0  0  0  0  0999 V2000
  -28.8408  -23.7467   14.9469 C   0  0  0  0  0  0  0  0  0  0  0  0
  -27.6270  -24.0270   15.5663 C   0  0  0  0  0  0  0  0  0  0  0  0
  -27.6106  -15.2173   21.7156 C   0  0  0  0  0  0  0  0  0  0  0  0
  -26.2936  -15.4823   19.7075 C   0  0  0  0  0  0  0  0  0  0  0  0
  -30.0210  -23.7636   15.6890 C   0  0  0  0  0  0  0  0  0  0  0  0
  -27.5927  -24.3233   16.9284 C   0  0  0  0  0  0  0  0  0  0  0  0
  -24.6336  -28.2965   17.9783 C   0  0  0  0  0  0  0  0  0  0  0  0
  -27.2207  -13.8804   21.7949 C   0  0  0  0  0  0  0  0  0  0  0  0
  -25.9037  -14.1454   19.7868 C   0  0  0  0  0  0  0  0  0  0  0  0
  -23.2569  -28.0774   17.9987 C   0  0  0  0  0  0  0  0  0  0  0  0
  -24.8492  -10.7063   19.2586 C   0  0  0  0  0  0  0  0  0  0  0  0
  -24.8807   -9.9503   18.0869 C   0  0  0  0  0  0  0  0  0  0  0  0
  -21.5114  -23.6551   20.0600 C   0  0  0  0  0  0  0  0  0  0  0  0
  -20.0601  -23.4273   18.1420 C   0  0  0  0  0  0  0  0  0  0  0  0
  -23.3179  -27.9560   20.4071 C   0  0  0  0  0  0  0  0  0  0  0  0
  -22.2229  -22.3507   18.1549 C   0  0  0  0  0  0  0  0  0  0  0  0
  -27.2529  -10.3618   17.8851 C   0  0  0  0  0  0  0  0  0  0  0  0
  -27.1470  -16.0183   20.6719 C   0  0  0  0  0  0  0  0  0  0  0  0
  -20.3067  -23.9381   19.4164 C   0  0  0  0  0  0  0  0  0  0  0  0
  -28.6732  -17.9194   19.9208 C   0  0  0  0  0  0  0  0  0  0  0  0
  -30.0023  -24.0697   17.0588 C   0  0  0  0  0  0  0  0  0  0  0  0
  -25.3657  -28.3363   19.1736 C   0  0  0  0  0  0  0  0  0  0  0  0
  -28.7736  -24.3430   17.6898 C   0  0  0  0  0  0  0  0  0  0  0  0
  -24.7034  -28.1783   20.3994 C   0  0  0  0  0  0  0  0  0  0  0  0
  -22.4696  -22.8615   19.4293 C   0  0  0  0  0  0  0  0  0  0  0  0
  -26.3673  -13.3445   20.8305 C   0  0  0  0  0  0  0  0  0  0  0  0
  -22.5993  -27.9042   19.2130 C   0  0  0  0  0  0  0  0  0  0  0  0
  -26.0195  -11.2902   19.7436 C   0  0  0  0  0  0  0  0  0  0  0  0
  -26.0825   -9.7780   17.4001 C   0  0  0  0  0  0  0  0  0  0  0  0
  -21.0182  -22.6337   17.5112 C   0  0  0  0  0  0  0  0  0  0  0  0
  -27.2213  -11.1179   19.0569 C   0  0  0  0  0  0  0  0  0  0  0  0
  -27.5490  -17.3995   20.5898 C   0  0  0  0  0  0  0  0  0  0  0  0
  -28.6082  -19.2735   20.1412 C   0  0  0  0  0  0  0  0  0  0  0  0
  -19.2811  -24.7904   20.0905 C   0  0  0  0  0  0  0  0  0  0  0  0
  -29.6858  -17.2390   19.1674 C   0  0  0  0  0  0  0  0  0  0  0  0
  -27.7340  -26.6152   20.4118 C   0  0  0  0  0  0  0  0  0  0  0  0
  -27.6562  -28.8888   22.7242 C   0  0  0  0  0  0  0  0  0  0  0  0
  -25.8699  -31.2837   24.3735 C   0  0  0  0  0  0  0  0  0  0  0  0
  -24.0965  -23.0010   21.3476 C   0  0  0  0  0  0  0  0  0  0  0  0
  -31.2981  -24.0294   17.8295 C   0  0  0  0  0  0  0  0  0  0  0  0
  -26.8460  -28.6002   19.1362 C   0  0  0  0  0  0  0  0  0  0  0  0
  -25.4404  -28.2325   21.7118 C   0  0  0  0  0  0  0  0  0  0  0  0
  -31.2203  -24.7202   19.1885 C   0  0  0  0  0  0  0  0  0  0  0  0
  -27.0122  -22.4773   23.3228 C   0  0  0  0  0  0  0  0  0  0  0  0
  -29.9602  -24.2919   19.9337 C   0  0  0  0  0  0  0  0  0  0  0  0
  -27.5864  -21.1662   22.7811 C   0  0  0  0  0  0  0  0  0  0  0  0
  -25.4847  -22.4642   23.3375 C   0  0  0  0  0  0  0  0  0  0  0  0
  -25.4286  -20.8071   21.5155 C   0  0  0  0  0  0  0  0  0  0  0  0
  -28.6984  -24.6932   19.1601 C   0  0  1  0  0  0  0  0  0  0  0  0
  -27.5724  -28.1088   20.3845 C   0  0  1  0  0  0  0  0  0  0  0  0
  -26.9630  -20.7975   21.4206 C   0  0  2  0  0  0  0  0  0  0  0  0
  -26.0630  -32.9484   26.2414 C   0  0  0  0  0  0  0  0  0  0  0  0
  -27.3935  -26.6313   24.7600 C   0  0  0  0  0  0  0  0  0  0  0  0
  -26.6468  -28.3288   26.4420 C   0  0  0  0  0  0  0  0  0  0  0  0
  -28.9291  -28.4819   25.4468 C   0  0  0  0  0  0  0  0  0  0  0  0
  -25.3664  -33.5608   22.5514 C   0  0  0  0  0  0  0  0  0  0  0  0
  -18.8188  -26.0967   19.4583 C   0  0  0  0  0  0  0  0  0  0  0  0
  -19.1495  -27.3126   20.3203 C   0  0  0  0  0  0  0  0  0  0  0  0
  -20.6465  -27.5203   20.5150 C   0  0  0  0  0  0  0  0  0  1  0  0
  -26.9174  -29.0614   24.0293 C   0  0  1  0  0  0  0  0  0  0  0  0
  -26.2091  -32.7158   24.7456 C   0  0  2  0  0  0  0  0  0  0  0  0
  -27.4578  -28.1228   25.1449 C   0  0  0  0  0  0  0  0  0  0  0  0
  -26.8229  -18.3462   21.1903 N   0  0  0  0  0  0  0  0  0  0  0  0
  -18.7717  -24.4212   21.2239 N   0  0  0  0  0  0  0  0  0  0  0  0
  -27.4926  -19.4746   20.8996 N   0  0  0  0  0  0  0  0  0  0  0  0
  -26.8877  -28.4869   21.6225 N   0  0  0  0  0  0  0  0  0  0  0  0
  -24.9652  -22.1114   22.0145 N   0  0  0  0  0  0  0  0  0  0  0  0
  -29.3971  -20.2999   19.7584 N   0  0  0  0  0  0  0  0  0  0  0  0
  -29.6010  -15.8459   19.0400 N   0  0  0  0  0  0  0  0  0  0  0  0
  -23.6934  -22.5737   20.0829 N   0  0  0  0  0  0  0  0  0  0  0  0
  -28.4280  -26.1046   19.3315 N   0  0  0  0  0  0  0  0  0  0  0  0
  -26.9912  -30.4814   24.3555 N   0  0  0  0  0  0  0  0  0  0  0  0
  -25.3073  -33.6638   24.0323 N   0  3  0  0  0  0  0  0  0  0  0  0
  -30.6466  -17.8467   18.6371 O   0  0  0  0  0  0  0  0  0  0  0  0
  -27.2651  -25.9737   21.3447 O   0  0  0  0  0  0  0  0  0  0  0  0
  -28.8691  -29.1095   22.6821 O   0  0  0  0  0  0  0  0  0  0  0  0
  -24.7243  -30.9129   24.1274 O   0  0  0  0  0  0  0  0  0  0  0  0
  -23.7583  -24.0761   21.8493 O   0  0  0  0  0  0  0  0  0  0  0  0
  -25.9868  -12.0399   20.9074 O   0  0  0  0  0  0  0  0  0  0  0  0
  -21.2557  -27.6894   19.2357 O   0  0  0  0  0  0  0  0  0  1  0  0
  -26.1129   -9.0506   16.2758 F   0  0  0  0  0  0  0  0  0  0  0  0
  -20.7828  -22.1457   16.2863 F   0  0  0  0  0  0  0  0  0  0  0  0
  -28.3491  -11.6754   19.5185 F   0  0  0  0  0  0  0  0  0  0  0  0
  1  2  1  0  0  0  0
  1  5  2  0  0  0  0
  2  6  2  0  0  0  0
  3  8  2  0  0  0  0
  3 18  1  0  0  0  0
  4  9  1  0  0  0  0
  4 18  2  0  0  0  0
  5 21  1  0  0  0  0
  6 23  1  0  0  0  0
  7 10  2  0  0  0  0
  7 22  1  0  0  0  0
  8 26  1  0  0  0  0
  9 26  2  0  0  0  0
 10 27  1  0  0  0  0
 11 12  2  0  0  0  0
 11 28  1  0  0  0  0
 12 29  1  0  0  0  0
 13 19  2  0  0  0  0
 13 25  1  0  0  0  0
 14 19  1  0  0  0  0
 14 30  2  0  0  0  0
 15 24  1  0  0  0  0
 15 27  2  0  0  0  0
 16 25  2  0  0  0  0
 16 30  1  0  0  0  0
 17 29  2  0  0  0  0
 17 31  1  0  0  0  0
 18 32  1  0  0  0  0
 19 34  1  0  0  0  0
 20 32  1  0  0  0  0
 20 33  2  0  0  0  0
 20 35  1  0  0  0  0
 21 23  2  0  0  0  0
 21 40  1  0  0  0  0
 22 24  2  0  0  0  0
 22 41  1  0  0  0  0
 23 49  1  0  0  0  0
 24 42  1  0  0  0  0
 25 70  1  0  0  0  0
 26 79  1  0  0  0  0
 27 80  1  0  0  0  0
 28 31  2  0  0  0  0
 28 79  1  0  0  0  0
 29 81  1  0  0  0  0
 30 82  1  0  0  0  0
 31 83  1  0  0  0  0
 32 63  2  0  0  0  0
 33 65  1  0  0  0  0
 33 68  1  0  0  0  0
 34 57  1  0  0  0  0
 34 64  2  0  0  0  0
 35 69  1  0  0  0  0
 35 74  2  0  0  0  0
 36 50  1  0  0  0  0
 36 71  1  0  0  0  0
 36 75  2  0  0  0  0
 37 60  1  0  0  0  0
 37 66  1  0  0  0  0
 37 76  2  0  0  0  0
 38 61  1  0  0  0  0
 38 72  1  0  0  0  0
 38 77  2  0  0  0  0
 39 67  1  0  0  0  0
 39 70  1  0  0  0  0
 39 78  2  0  0  0  0
 40 43  1  0  0  0  0
 41 50  1  0  0  0  0
 42 66  1  0  0  0  0
 43 45  1  0  0  0  0
 44 46  1  0  0  0  0
 44 47  1  0  0  0  0
 45 49  1  0  0  0  0
 46 51  1  0  0  0  0
 47 67  1  0  0  0  0
 48 51  1  0  0  0  0
 48 67  1  0  0  0  0
 49 71  1  0  0  0  0
 50 66  1  0  0  0  0
 51 65  1  0  0  0  0
 52 61  1  0  0  0  0
 53 62  1  0  0  0  0
 54 62  1  0  0  0  0
 55 62  1  0  0  0  0
 56 73  1  0  0  0  0
 57 58  1  0  0  0  0
 58 59  1  0  0  0  0
 59 80  1  0  0  0  0
 60 62  1  0  0  0  0
 60 72  1  0  0  0  0
 61 73  1  0  0  0  0
 63 65  1  0  0  0  0
M  CHG  1  73   1
M  ISO  4  39 100  59 101  70 100  80 101
M  END
> <Batch ID>
0131

> <Smiles>
CNC(C)C(=O)NC(C(=O)N1Cc2cc([101O:1][101CH2:1]CCC(=N)c3cc(F)cc([100NH:0][100C:0](=O)N4CCCC(n5nc(-c6ccc(Oc7ccc(F)cc7F)cc6)c(C(N)=O)c5N)C4)c3)ccc2CC1C(=O)NC1CCCc2ccccc21)C(C)(C)C

> <Shape>
0.217

> <Color>
0.072

> <Negative vol penalty>
0.000

$$$$

  -OEChem-04052302253D

 84 92  0     1  0  0  0  0  0999 V2000
  -19.8677  -34.3616   21.2324 C   0  0  0  0  0  0  0  0  0  0  0  0
  -21.1247  -33.8746   20.8885 C   0  0  0  0  0  0  0  0  0  0  0  0
  -26.3926  -13.0619   18.6917 C   0  0  0  0  0  0  0  0  0  0  0  0
  -24.6890  -13.7700   20.2516 C   0  0  0  0  0  0  0  0  0  0  0  0
  -19.1362  -33.7454   22.2468 C   0  0  0  0  0  0  0  0  0  0  0  0
  -21.6514  -32.7716   21.5597 C   0  0  0  0  0  0  0  0  0  0  0  0
  -25.2053  -28.3780   19.1993 C   0  0  0  0  0  0  0  0  0  0  0  0
  -33.8460  -25.3286   18.2754 C   0  0  0  0  0  0  0  0  0  0  0  0
  -34.5378  -24.1401   18.0421 C   0  0  0  0  0  0  0  0  0  0  0  0
  -26.4039  -11.7965   19.2784 C   0  0  0  0  0  0  0  0  0  0  0  0
  -24.7002  -12.5046   20.8383 C   0  0  0  0  0  0  0  0  0  0  0  0
  -26.5849  -28.1780   19.2153 C   0  0  0  0  0  0  0  0  0  0  0  0
  -23.4449   -9.4392   20.1687 C   0  0  0  0  0  0  0  0  0  0  0  0
  -22.2142   -8.8447   20.4470 C   0  0  0  0  0  0  0  0  0  0  0  0
  -31.7565  -24.1157   18.2578 C   0  0  0  0  0  0  0  0  0  0  0  0
  -26.3441  -26.7103   21.1145 C   0  0  0  0  0  0  0  0  0  0  0  0
  -22.7876   -8.7559   22.7923 C   0  0  0  0  0  0  0  0  0  0  0  0
  -25.5352  -14.0487   19.1784 C   0  0  0  0  0  0  0  0  0  0  0  0
  -32.4484  -22.9272   18.0244 C   0  0  0  0  0  0  0  0  0  0  0  0
  -24.7212  -15.7894   17.5005 C   0  0  0  0  0  0  0  0  0  0  0  0
  -19.6500  -32.6284   22.9242 C   0  0  0  0  0  0  0  0  0  0  0  0
  -24.3844  -27.7532   20.1492 C   0  0  0  0  0  0  0  0  0  0  0  0
  -20.9266  -32.1407   22.5851 C   0  0  0  0  0  0  0  0  0  0  0  0
  -24.9540  -26.9021   21.1069 C   0  0  0  0  0  0  0  0  0  0  0  0
  -32.4553  -25.3164   18.3834 C   0  0  0  0  0  0  0  0  0  0  0  0
  -33.8391  -22.9394   17.9165 C   0  0  0  0  0  0  0  0  0  0  0  0
  -25.5577  -11.5178   20.3517 C   0  0  0  0  0  0  0  0  0  0  0  0
  -27.1549  -27.3463   20.1748 C   0  0  0  0  0  0  0  0  0  0  0  0
  -24.3471   -9.6920   21.2021 C   0  0  0  0  0  0  0  0  0  0  0  0
  -21.8856   -8.5031   21.7589 C   0  0  0  0  0  0  0  0  0  0  0  0
  -24.0184   -9.3504   22.5139 C   0  0  0  0  0  0  0  0  0  0  0  0
  -25.5235  -15.3562   18.5731 C   0  0  0  0  0  0  0  0  0  0  0  0
  -25.0861  -17.0991   17.3058 C   0  0  0  0  0  0  0  0  0  0  0  0
  -31.6903  -21.6892   17.8975 C   0  0  0  0  0  0  0  0  0  0  0  0
  -30.8739  -21.1739   18.8391 C   0  0  0  0  0  0  0  0  0  0  0  0
  -23.7342  -15.0720   16.7476 C   0  0  0  0  0  0  0  0  0  0  0  0
  -30.1642  -19.9103   18.5557 C   0  0  0  0  0  0  0  0  0  0  0  0
  -22.4338  -28.7700   22.4438 C   0  0  0  0  0  0  0  0  0  0  0  0
  -21.7240  -25.6153   22.7005 C   0  0  0  0  0  0  0  0  0  0  0  0
  -22.6869  -22.3792   22.2031 C   0  0  0  0  0  0  0  0  0  0  0  0
  -18.8425  -32.0248   24.0459 C   0  0  0  0  0  0  0  0  0  0  0  0
  -22.8951  -27.9582   20.1019 C   0  0  0  0  0  0  0  0  0  0  0  0
  -24.1145  -26.1919   22.1361 C   0  0  0  0  0  0  0  0  0  0  0  0
  -19.3126  -30.6307   24.4532 C   0  0  0  0  0  0  0  0  0  0  0  0
  -26.8002  -20.9027   19.6187 C   0  0  0  0  0  0  0  0  0  0  0  0
  -20.8304  -30.6015   24.6018 C   0  0  0  0  0  0  0  0  0  0  0  0
  -26.0307  -19.6009   19.4115 C   0  0  0  0  0  0  0  0  0  0  0  0
  -28.2407  -20.6512   20.0615 C   0  0  0  0  0  0  0  0  0  0  0  0
  -28.2247  -18.4402   18.9427 C   0  0  0  0  0  0  0  0  0  0  0  0
  -21.5214  -30.9312   23.2731 C   0  0  1  0  0  0  0  0  0  0  0  0
  -22.2107  -27.6779   21.4363 C   0  0  1  0  0  0  0  0  0  0  0  0
  -26.7867  -18.6687   18.4514 C   0  0  1  0  0  0  0  0  0  0  0  0
  -34.6131  -21.6854   17.6647 C   0  0  0  0  0  0  0  0  0  0  0  0
  -22.4955  -19.8782   22.1283 C   0  0  0  0  0  0  0  0  0  0  0  0
  -30.5184  -28.3511   21.9328 C   0  0  0  0  0  0  0  0  0  0  0  0
  -22.3729  -25.8394   25.6735 C   0  0  0  0  0  0  0  0  0  0  0  0
  -22.5099  -23.3410   25.7608 C   0  0  0  0  0  0  0  0  0  0  0  0
  -20.3614  -24.4499   25.1466 C   0  0  0  0  0  0  0  0  0  0  0  0
  -21.6249  -22.4271   19.4411 C   0  0  0  0  0  0  0  0  0  0  0  0
  -31.7084  -26.6021   18.6357 C   0  0  0  0  0  0  0  0  0  0  0  0
  -31.5084  -26.9260   20.1227 C   0  0  0  0  0  0  0  0  0  0  0  0
  -29.3203  -28.2204   19.7244 C   0  0  0  0  0  0  0  0  0  1  0  0
  -22.2759  -24.4565   23.4954 C   0  0  1  0  0  0  0  0  0  0  0  0
  -21.9620  -21.1958   21.5879 C   0  0  2  0  0  0  0  0  0  0  0  0
  -30.6904  -28.2033   20.4156 C   0  0  1  0  0  0  0  0  0  0  0  0
  -21.8963  -24.5365   25.0010 C   0  0  0  0  0  0  0  0  0  0  0  0
  -26.3370  -16.3131   19.0278 N   0  0  0  0  0  0  0  0  0  0  0  0
  -26.0477  -17.3605   18.2370 N   0  0  0  0  0  0  0  0  0  0  0  0
  -28.9245  -19.7112   19.1605 N   0  0  0  0  0  0  0  0  0  0  0  0
  -22.6639  -26.4293   22.0526 N   0  0  0  0  0  0  0  0  0  0  0  0
  -24.6751  -18.0411   16.4305 N   0  0  0  0  0  0  0  0  0  0  0  0
  -23.4830  -13.7337   17.0797 N   0  0  0  0  0  0  0  0  0  0  0  0
  -21.4959  -29.7835   22.3918 N   0  0  0  0  0  0  0  0  0  0  0  0
  -21.8136  -23.2454   22.8261 N   0  0  0  0  0  0  0  0  0  0  0  0
  -22.1293  -21.1986   20.1071 N   0  3  0  0  0  0  0  0  0  0  0  0
  -23.1057  -15.5971   15.7975 O   0  0  0  0  0  0  0  0  0  0  0  0
  -30.7156  -19.1048   17.8035 O   0  0  0  0  0  0  0  0  0  0  0  0
  -23.3855  -28.6978   23.2124 O   0  0  0  0  0  0  0  0  0  0  0  0
  -20.5036  -25.7874   22.6503 O   0  0  0  0  0  0  0  0  0  0  0  0
  -23.9064  -22.5191   22.1406 O   0  0  0  0  0  0  0  0  0  0  0  0
  -25.5682  -10.2831   20.9242 O   0  0  0  0  0  0  0  0  0  0  0  0
  -28.5013  -27.1499   20.1930 O   0  0  0  0  0  0  0  0  0  1  0  0
  -20.7031   -7.9335   22.0262 F   0  0  0  0  0  0  0  0  0  0  0  0
  -24.8804   -9.5919   23.5111 F   0  0  0  0  0  0  0  0  0  0  0  0
  1  2  1  0  0  0  0
  1  5  2  0  0  0  0
  2  6  2  0  0  0  0
  3 10  2  0  0  0  0
  3 18  1  0  0  0  0
  4 11  1  0  0  0  0
  4 18  2  0  0  0  0
  5 21  1  0  0  0  0
  6 23  1  0  0  0  0
  7 12  2  0  0  0  0
  7 22  1  0  0  0  0
  8  9  2  0  0  0  0
  8 25  1  0  0  0  0
  9 26  1  0  0  0  0
 10 27  1  0  0  0  0
 11 27  2  0  0  0  0
 12 28  1  0  0  0  0
 13 14  2  0  0  0  0
 13 29  1  0  0  0  0
 14 30  1  0  0  0  0
 15 19  1  0  0  0  0
 15 25  2  0  0  0  0
 16 24  1  0  0  0  0
 16 28  2  0  0  0  0
 17 30  2  0  0  0  0
 17 31  1  0  0  0  0
 18 32  1  0  0  0  0
 19 26  2  0  0  0  0
 19 34  1  0  0  0  0
 20 32  1  0  0  0  0
 20 33  2  0  0  0  0
 20 36  1  0  0  0  0
 21 23  2  0  0  0  0
 21 41  1  0  0  0  0
 22 24  2  0  0  0  0
 22 42  1  0  0  0  0
 23 50  1  0  0  0  0
 24 43  1  0  0  0  0
 25 60  1  0  0  0  0
 26 53  1  0  0  0  0
 27 81  1  0  0  0  0
 28 82  1  0  0  0  0
 29 31  2  0  0  0  0
 29 81  1  0  0  0  0
 30 83  1  0  0  0  0
 31 84  1  0  0  0  0
 32 67  2  0  0  0  0
 33 68  1  0  0  0  0
 33 71  1  0  0  0  0
 34 35  2  0  0  0  0
 35 37  1  0  0  0  0
 36 72  1  0  0  0  0
 36 76  2  0  0  0  0
 37 69  1  0  0  0  0
 37 77  2  0  0  0  0
 38 51  1  0  0  0  0
 38 73  1  0  0  0  0
 38 78  2  0  0  0  0
 39 63  1  0  0  0  0
 39 70  1  0  0  0  0
 39 79  2  0  0  0  0
 40 64  1  0  0  0  0
 40 74  1  0  0  0  0
 40 80  2  0  0  0  0
 41 44  1  0  0  0  0
 42 51  1  0  0  0  0
 43 70  1  0  0  0  0
 44 46  1  0  0  0  0
 45 47  1  0  0  0  0
 45 48  1  0  0  0  0
 46 50  1  0  0  0  0
 47 52  1  0  0  0  0
 48 69  1  0  0  0  0
 49 52  1  0  0  0  0
 49 69  1  0  0  0  0
 50 73  1  0  0  0  0
 51 70  1  0  0  0  0
 52 68  1  0  0  0  0
 54 64  1  0  0  0  0
 55 65  1  0  0  0  0
 56 66  1  0  0  0  0
 57 66  1  0  0  0  0
 58 66  1  0  0  0  0
 59 75  1  0  0  0  0
 60 61  1  0  0  0  0
 61 65  1  0  0  0  0
 62 65  1  0  0  0  0
 62 82  1  0  0  0  0
 63 66  1  0  0  0  0
 63 74  1  0  0  0  0
 64 75  1  0  0  0  0
 67 68  1  0  0  0  0
M  CHG  1  75   1
M  ISO  4  35 100  37 100  62 101  82 101
M  END
> <Batch ID>
0131

> <Smiles>
CNC(C)C(=O)NC(C(=O)N1Cc2cc([101O:1][101CH2:1]C(C)CCc3ccc(C)c(C=[100CH:0][100C:0](=O)N4CCCC(n5nc(-c6ccc(Oc7ccc(F)cc7F)cc6)c(C(N)=O)c5N)C4)c3)ccc2CC1C(=O)NC1CCCc2ccccc21)C(C)(C)C

> <Shape>
0.190

> <Color>
0.093

> <Negative vol penalty>
0.000

$$$$

  -OEChem-04052302253D

 84 92  0     1  0  0  0  0  0999 V2000
  -17.4338  -26.3071   26.0595 C   0  0  0  0  0  0  0  0  0  0  0  0
  -18.6890  -25.7897   25.7560 C   0  0  0  0  0  0  0  0  0  0  0  0
  -23.6746   -8.8790   20.1024 C   0  0  0  0  0  0  0  0  0  0  0  0
  -23.0553  -10.6022   21.6784 C   0  0  0  0  0  0  0  0  0  0  0  0
  -17.0458  -27.5415   25.5403 C   0  0  0  0  0  0  0  0  0  0  0  0
  -19.5566  -26.5059   24.9321 C   0  0  0  0  0  0  0  0  0  0  0  0
  -25.6627  -26.7433   25.3375 C   0  0  0  0  0  0  0  0  0  0  0  0
  -30.3926  -19.6777   20.6762 C   0  0  0  0  0  0  0  0  0  0  0  0
  -30.3038  -18.2912   20.5524 C   0  0  0  0  0  0  0  0  0  0  0  0
  -22.8231   -7.9825   20.7479 C   0  0  0  0  0  0  0  0  0  0  0  0
  -22.2036   -9.7057   22.3239 C   0  0  0  0  0  0  0  0  0  0  0  0
  -26.6750  -26.0699   24.6552 C   0  0  0  0  0  0  0  0  0  0  0  0
  -22.8675   -6.0738   23.5370 C   0  0  0  0  0  0  0  0  0  0  0  0
  -23.3513   -4.7906   23.7919 C   0  0  0  0  0  0  0  0  0  0  0  0
  -28.3230  -19.9194   19.4534 C   0  0  0  0  0  0  0  0  0  0  0  0
  -26.8848  -27.9342   23.1388 C   0  0  0  0  0  0  0  0  0  0  0  0
  -21.5699   -3.8534   22.4557 C   0  0  0  0  0  0  0  0  0  0  0  0
  -23.7908  -10.1889   20.5677 C   0  0  0  0  0  0  0  0  0  0  0  0
  -28.2342  -18.5329   19.3296 C   0  0  0  0  0  0  0  0  0  0  0  0
  -24.3494  -11.9757   18.8348 C   0  0  0  0  0  0  0  0  0  0  0  0
  -17.9128  -28.2778   24.7175 C   0  0  0  0  0  0  0  0  0  0  0  0
  -25.2457  -28.0149   24.9183 C   0  0  0  0  0  0  0  0  0  0  0  0
  -19.1793  -27.7508   24.4004 C   0  0  0  0  0  0  0  0  0  0  0  0
  -25.8689  -28.6228   23.8190 C   0  0  0  0  0  0  0  0  0  0  0  0
  -29.4022  -20.4918   20.1267 C   0  0  0  0  0  0  0  0  0  0  0  0
  -29.2246  -17.7188   19.8791 C   0  0  0  0  0  0  0  0  0  0  0  0
  -22.0875   -8.3959   21.8586 C   0  0  0  0  0  0  0  0  0  0  0  0
  -27.2842  -26.6641   23.5538 C   0  0  0  0  0  0  0  0  0  0  0  0
  -21.7349   -6.2468   22.7414 C   0  0  0  0  0  0  0  0  0  0  0  0
  -22.7025   -3.6804   23.2513 C   0  0  0  0  0  0  0  0  0  0  0  0
  -21.0861   -5.1367   22.2008 C   0  0  0  0  0  0  0  0  0  0  0  0
  -24.6708  -11.1152   19.9016 C   0  0  0  0  0  0  0  0  0  0  0  0
  -25.5199  -12.6426   18.5670 C   0  0  0  0  0  0  0  0  0  0  0  0
  -27.0935  -17.9662   18.6202 C   0  0  0  0  0  0  0  0  0  0  0  0
  -23.1042  -12.1561   18.1474 C   0  0  0  0  0  0  0  0  0  0  0  0
  -22.5153  -29.2400   23.8471 C   0  0  0  0  0  0  0  0  0  0  0  0
  -24.1527  -32.0348   24.0221 C   0  0  0  0  0  0  0  0  0  0  0  0
  -27.1706  -33.6281   24.0425 C   0  0  0  0  0  0  0  0  0  0  0  0
  -30.0662  -15.3751   20.2604 C   0  0  0  0  0  0  0  0  0  0  0  0
  -17.4309  -29.5857   24.1415 C   0  0  0  0  0  0  0  0  0  0  0  0
  -24.1709  -28.7394   25.6813 C   0  0  0  0  0  0  0  0  0  0  0  0
  -25.4718  -29.9948   23.3411 C   0  0  0  0  0  0  0  0  0  0  0  0
  -18.5536  -30.4547   23.5805 C   0  0  0  0  0  0  0  0  0  0  0  0
  -30.2327  -11.8187   20.2201 C   0  0  0  0  0  0  0  0  0  0  0  0
  -19.4906  -29.6212   22.7121 C   0  0  0  0  0  0  0  0  0  0  0  0
  -28.7741  -11.3895   20.0459 C   0  0  0  0  0  0  0  0  0  0  0  0
  -30.3575  -13.0568   21.1063 C   0  0  0  0  0  0  0  0  0  0  0  0
  -28.0731  -13.7704   20.5219 C   0  0  0  0  0  0  0  0  0  0  0  0
  -20.1581  -28.5093   23.5304 C   0  0  1  0  0  0  0  0  0  0  0  0
  -23.4716  -29.8137   24.8541 C   0  0  1  0  0  0  0  0  0  0  0  0
  -27.8918  -12.5658   19.5841 C   0  0  2  0  0  0  0  0  0  0  0  0
  -25.8040  -18.7301   18.6658 C   0  0  0  0  0  0  0  0  0  0  0  0
  -28.1878  -35.9192   24.1589 C   0  0  0  0  0  0  0  0  0  0  0  0
  -23.3947  -32.5168   21.1061 C   0  0  0  0  0  0  0  0  0  0  0  0
  -25.1767  -34.2724   21.0056 C   0  0  0  0  0  0  0  0  0  0  0  0
  -23.2516  -34.5399   22.5692 C   0  0  0  0  0  0  0  0  0  0  0  0
  -28.5979  -32.9934   26.5563 C   0  0  0  0  0  0  0  0  0  0  0  0
  -29.4990  -21.9906   20.2607 C   0  0  0  0  0  0  0  0  0  0  0  0
  -28.8208  -22.5449   21.5186 C   0  0  0  0  0  0  0  0  0  0  0  0
  -28.8625  -24.0716   21.5978 C   0  0  0  0  0  0  0  0  0  0  0  0
  -28.2155  -24.5828   22.8779 C   0  0  0  0  0  0  0  0  0  1  0  0
  -25.0325  -32.8192   23.0789 C   0  0  1  0  0  0  0  0  0  0  0  0
  -27.7358  -34.7035   24.9529 C   0  0  2  0  0  0  0  0  0  0  0  0
  -24.2202  -33.5104   21.9475 C   0  0  0  0  0  0  0  0  0  0  0  0
  -25.9456  -11.2233   20.2852 N   0  0  0  0  0  0  0  0  0  0  0  0
  -26.4356  -12.1595   19.4549 N   0  0  0  0  0  0  0  0  0  0  0  0
  -24.4116  -30.6601   24.1163 N   0  0  0  0  0  0  0  0  0  0  0  0
  -29.4972  -14.1310   20.6055 N   0  0  0  0  0  0  0  0  0  0  0  0
  -25.8449  -13.5890   17.6609 N   0  0  0  0  0  0  0  0  0  0  0  0
  -22.0016  -11.3904   18.5502 N   0  0  0  0  0  0  0  0  0  0  0  0
  -29.1557  -16.3081   19.7653 N   0  0  0  0  0  0  0  0  0  0  0  0
  -21.2355  -29.0489   24.3319 N   0  0  0  0  0  0  0  0  0  0  0  0
  -25.8027  -33.7390   23.9090 N   0  0  0  0  0  0  0  0  0  0  0  0
  -28.9047  -34.1771   25.7127 N   0  3  0  0  0  0  0  0  0  0  0  0
  -27.1112  -16.9076   17.9928 O   0  0  0  0  0  0  0  0  0  0  0  0
  -22.9774  -12.9604   17.1932 O   0  0  0  0  0  0  0  0  0  0  0  0
  -22.9090  -28.9908   22.7137 O   0  0  0  0  0  0  0  0  0  0  0  0
  -23.2729  -32.6214   24.6573 O   0  0  0  0  0  0  0  0  0  0  0  0
  -27.8729  -32.7772   23.5009 O   0  0  0  0  0  0  0  0  0  0  0  0
  -31.2766  -15.5875   20.3686 O   0  0  0  0  0  0  0  0  0  0  0  0
  -21.2563   -7.5214   22.4886 O   0  0  0  0  0  0  0  0  0  0  0  0
  -28.2720  -26.0087   22.8856 O   0  0  0  0  0  0  0  0  0  1  0  0
  -23.1682   -2.4484   23.4950 F   0  0  0  0  0  0  0  0  0  0  0  0
  -19.9982   -5.2967   21.4348 F   0  0  0  0  0  0  0  0  0  0  0  0
  1  2  1  0  0  0  0
  1  5  2  0  0  0  0
  2  6  2  0  0  0  0
  3 10  2  0  0  0  0
  3 18  1  0  0  0  0
  4 11  1  0  0  0  0
  4 18  2  0  0  0  0
  5 21  1  0  0  0  0
  6 23  1  0  0  0  0
  7 12  2  0  0  0  0
  7 22  1  0  0  0  0
  8  9  2  0  0  0  0
  8 25  1  0  0  0  0
  9 26  1  0  0  0  0
 10 27  1  0  0  0  0
 11 27  2  0  0  0  0
 12 28  1  0  0  0  0
 13 14  2  0  0  0  0
 13 29  1  0  0  0  0
 14 30  1  0  0  0  0
 15 19  1  0  0  0  0
 15 25  2  0  0  0  0
 16 24  1  0  0  0  0
 16 28  2  0  0  0  0
 17 30  2  0  0  0  0
 17 31  1  0  0  0  0
 18 32  1  0  0  0  0
 19 26  2  0  0  0  0
 19 34  1  0  0  0  0
 20 32  1  0  0  0  0
 20 33  2  0  0  0  0
 20 35  1  0  0  0  0
 21 23  2  0  0  0  0
 21 40  1  0  0  0  0
 22 24  2  0  0  0  0
 22 41  1  0  0  0  0
 23 49  1  0  0  0  0
 24 42  1  0  0  0  0
 25 58  1  0  0  0  0
 26 71  1  0  0  0  0
 27 81  1  0  0  0  0
 28 82  1  0  0  0  0
 29 31  2  0  0  0  0
 29 81  1  0  0  0  0
 30 83  1  0  0  0  0
 31 84  1  0  0  0  0
 32 65  2  0  0  0  0
 33 66  1  0  0  0  0
 33 69  1  0  0  0  0
 34 52  1  0  0  0  0
 34 75  2  0  0  0  0
 35 70  1  0  0  0  0
 35 76  2  0  0  0  0
 36 50  1  0  0  0  0
 36 72  1  0  0  0  0
 36 77  2  0  0  0  0
 37 62  1  0  0  0  0
 37 67  1  0  0  0  0
 37 78  2  0  0  0  0
 38 63  1  0  0  0  0
 38 73  1  0  0  0  0
 38 79  2  0  0  0  0
 39 68  1  0  0  0  0
 39 71  1  0  0  0  0
 39 80  2  0  0  0  0
 40 43  1  0  0  0  0
 41 50  1  0  0  0  0
 42 67  1  0  0  0  0
 43 45  1  0  0  0  0
 44 46  1  0  0  0  0
 44 47  1  0  0  0  0
 45 49  1  0  0  0  0
 46 51  1  0  0  0  0
 47 68  1  0  0  0  0
 48 51  1  0  0  0  0
 48 68  1  0  0  0  0
 49 72  1  0  0  0  0
 50 67  1  0  0  0  0
 51 66  1  0  0  0  0
 53 63  1  0  0  0  0
 54 64  1  0  0  0  0
 55 64  1  0  0  0  0
 56 64  1  0  0  0  0
 57 74  1  0  0  0  0
 58 59  1  0  0  0  0
 59 60  1  0  0  0  0
 60 61  1  0  0  0  0
 61 82  1  0  0  0  0
 62 64  1  0  0  0  0
 62 73  1  0  0  0  0
 63 74  1  0  0  0  0
 65 66  1  0  0  0  0
M  CHG  1  74   1
M  ISO  4  39 100  61 101  71 100  82 101
M  END
> <Batch ID>
0131

> <Smiles>
CNC(C)C(=O)NC(C(=O)N1Cc2cc([101O:1][101CH2:1]CCCc3ccc([100NH:0][100C:0](=O)N4CCCC(n5nc(-c6ccc(Oc7ccc(F)cc7F)cc6)c(C(N)=O)c5N)C4)c(C(C)=O)c3)ccc2CC1C(=O)NC1CCCc2ccccc21)C(C)(C)C

> <Shape>
0.278

> <Color>
0.108

> <Negative vol penalty>
0.000

$$$$

  -OEChem-04052302253D

 84 92  0     1  0  0  0  0  0999 V2000
  -17.8994  -22.2715   19.0238 C   0  0  0  0  0  0  0  0  0  0  0  0
  -19.0328  -22.7062   18.3440 C   0  0  0  0  0  0  0  0  0  0  0  0
  -26.4584  -13.6983   21.9087 C   0  0  0  0  0  0  0  0  0  0  0  0
  -26.1917  -12.7416   19.7063 C   0  0  0  0  0  0  0  0  0  0  0  0
  -17.2914  -23.1012   19.9649 C   0  0  0  0  0  0  0  0  0  0  0  0
  -19.5581  -23.9714   18.6043 C   0  0  0  0  0  0  0  0  0  0  0  0
  -24.5980  -23.9190   19.0951 C   0  0  0  0  0  0  0  0  0  0  0  0
  -25.2656  -13.0991   22.3135 C   0  0  0  0  0  0  0  0  0  0  0  0
  -24.9989  -12.1423   20.1111 C   0  0  0  0  0  0  0  0  0  0  0  0
  -25.3512  -23.8553   17.9236 C   0  0  0  0  0  0  0  0  0  0  0  0
  -22.0682  -10.0647   20.6702 C   0  0  0  0  0  0  0  0  0  0  0  0
  -21.8583   -8.7320   20.3160 C   0  0  0  0  0  0  0  0  0  0  0  0
  -31.4783  -24.9068   19.7787 C   0  0  0  0  0  0  0  0  0  0  0  0
  -31.0047  -24.1657   17.5285 C   0  0  0  0  0  0  0  0  0  0  0  0
  -25.7341  -26.2338   18.0474 C   0  0  0  0  0  0  0  0  0  0  0  0
  -31.8400  -26.3997   17.9140 C   0  0  0  0  0  0  0  0  0  0  0  0
  -23.8430   -8.0949   21.5375 C   0  0  0  0  0  0  0  0  0  0  0  0
  -26.9214  -13.5196   20.6051 C   0  0  0  0  0  0  0  0  0  0  0  0
  -31.0420  -23.9151   18.9002 C   0  0  0  0  0  0  0  0  0  0  0  0
  -29.4487  -13.5938   20.2658 C   0  0  0  0  0  0  0  0  0  0  0  0
  -17.8151  -24.3734   20.2438 C   0  0  0  0  0  0  0  0  0  0  0  0
  -24.3978  -25.1445   19.7467 C   0  0  0  0  0  0  0  0  0  0  0  0
  -18.9556  -24.8194   19.5491 C   0  0  0  0  0  0  0  0  0  0  0  0
  -24.9801  -26.3100   19.2284 C   0  0  0  0  0  0  0  0  0  0  0  0
  -31.8773  -26.1491   19.2856 C   0  0  0  0  0  0  0  0  0  0  0  0
  -31.4038  -25.4080   17.0354 C   0  0  0  0  0  0  0  0  0  0  0  0
  -24.5359  -12.3211   21.4147 C   0  0  0  0  0  0  0  0  0  0  0  0
  -25.9169  -25.0132   17.3979 C   0  0  0  0  0  0  0  0  0  0  0  0
  -23.1656  -10.4125   21.4580 C   0  0  0  0  0  0  0  0  0  0  0  0
  -22.7457   -7.7471   20.7497 C   0  0  0  0  0  0  0  0  0  0  0  0
  -24.0529   -9.4276   21.8917 C   0  0  0  0  0  0  0  0  0  0  0  0
  -28.1532  -14.1388   20.1862 C   0  0  0  0  0  0  0  0  0  0  0  0
  -30.2637  -14.5679   19.7431 C   0  0  0  0  0  0  0  0  0  0  0  0
  -30.6257  -22.6199   19.4150 C   0  0  0  0  0  0  0  0  0  0  0  0
  -29.8463  -21.7315   18.7624 C   0  0  0  0  0  0  0  0  0  0  0  0
  -29.8770  -12.3208   20.7675 C   0  0  0  0  0  0  0  0  0  0  0  0
  -29.5181  -20.4492   19.4172 C   0  0  0  0  0  0  0  0  0  0  0  0
  -21.8577  -26.9187   20.4567 C   0  0  0  0  0  0  0  0  0  0  0  0
  -28.8415  -25.3345   15.2894 C   0  0  0  0  0  0  0  0  0  0  0  0
  -24.0403  -28.7077   22.0562 C   0  0  0  0  0  0  0  0  0  0  0  0
  -27.2955  -29.6670   22.4170 C   0  0  0  0  0  0  0  0  0  0  0  0
  -17.0956  -25.2533   21.2352 C   0  0  0  0  0  0  0  0  0  0  0  0
  -23.6051  -25.1922   21.0241 C   0  0  0  0  0  0  0  0  0  0  0  0
  -24.8119  -27.6471   19.9009 C   0  0  0  0  0  0  0  0  0  0  0  0
  -17.9337  -26.4318   21.7241 C   0  0  0  0  0  0  0  0  0  0  0  0
  -30.2725  -18.1863   16.6348 C   0  0  0  0  0  0  0  0  0  0  0  0
  -18.6128  -27.1278   20.5488 C   0  0  0  0  0  0  0  0  0  0  0  0
  -29.8816  -16.8395   17.2373 C   0  0  0  0  0  0  0  0  0  0  0  0
  -29.3750  -19.3179   17.1334 C   0  0  0  0  0  0  0  0  0  0  0  0
  -28.9173  -18.0672   19.2231 C   0  0  0  0  0  0  0  0  0  0  0  0
  -19.5697  -26.1754   19.8217 C   0  0  1  0  0  0  0  0  0  0  0  0
  -23.0365  -26.5759   21.3231 C   0  0  1  0  0  0  0  0  0  0  0  0
  -29.8370  -16.9220   18.7714 C   0  0  1  0  0  0  0  0  0  0  0  0
  -32.3435  -27.2097   20.2248 C   0  0  0  0  0  0  0  0  0  0  0  0
  -28.7659  -31.1704   23.7863 C   0  0  0  0  0  0  0  0  0  0  0  0
  -23.0156  -31.1236   20.4995 C   0  0  0  0  0  0  0  0  0  0  0  0
  -25.0894  -32.3519   21.1768 C   0  0  0  0  0  0  0  0  0  0  0  0
  -23.4852  -31.5625   22.9163 C   0  0  0  0  0  0  0  0  0  0  0  0
  -28.8845  -27.3844   23.4288 C   0  0  0  0  0  0  0  0  0  0  0  0
  -31.3633  -25.6793   15.5506 C   0  0  0  0  0  0  0  0  0  0  0  0
  -30.0304  -26.2598   15.0741 C   0  0  0  0  0  0  0  0  0  0  0  0
  -27.7010  -25.9098   16.1060 C   0  0  0  0  0  0  0  0  0  1  0  0
  -24.9284  -29.8768   21.7049 C   0  0  1  0  0  0  0  0  0  0  0  0
  -28.1846  -29.7725   23.6429 C   0  0  2  0  0  0  0  0  0  0  0  0
  -24.1314  -31.2040   21.5604 C   0  0  0  0  0  0  0  0  0  0  0  0
  -28.1411  -15.3642   19.6548 N   0  0  0  0  0  0  0  0  0  0  0  0
  -29.4390  -15.5972   19.3959 N   0  0  0  0  0  0  0  0  0  0  0  0
  -29.3020  -19.3396   18.6021 N   0  0  0  0  0  0  0  0  0  0  0  0
  -24.0229  -27.6431   21.1439 N   0  0  0  0  0  0  0  0  0  0  0  0
  -31.5983  -14.6358   19.5512 N   0  0  0  0  0  0  0  0  0  0  0  0
  -28.9088  -11.4398   21.2682 N   0  0  0  0  0  0  0  0  0  0  0  0
  -20.8029  -26.0328   20.5656 N   0  0  0  0  0  0  0  0  0  0  0  0
  -25.9738  -29.9153   22.7217 N   0  0  0  0  0  0  0  0  0  0  0  0
  -29.3117  -28.8020   23.5504 N   0  3  0  0  0  0  0  0  0  0  0  0
  -31.0845  -11.9813   20.7866 O   0  0  0  0  0  0  0  0  0  0  0  0
  -29.4506  -20.4401   20.6477 O   0  0  0  0  0  0  0  0  0  0  0  0
  -21.9014  -27.9142   19.7433 O   0  0  0  0  0  0  0  0  0  0  0  0
  -28.7847  -24.2049   14.8063 O   0  0  0  0  0  0  0  0  0  0  0  0
  -23.3916  -28.7347   23.1050 O   0  0  0  0  0  0  0  0  0  0  0  0
  -27.7305  -29.3955   21.3001 O   0  0  0  0  0  0  0  0  0  0  0  0
  -23.3721  -11.7360   21.8094 O   0  0  0  0  0  0  0  0  0  0  0  0
  -26.6520  -24.9538   16.2542 O   0  0  0  0  0  0  0  0  0  1  0  0
  -22.5431   -6.4671   20.4108 F   0  0  0  0  0  0  0  0  0  0  0  0
  -25.1083   -9.7555   22.6497 F   0  0  0  0  0  0  0  0  0  0  0  0
  1  2  1  0  0  0  0
  1  5  2  0  0  0  0
  2  6  2  0  0  0  0
  3  8  2  0  0  0  0
  3 18  1  0  0  0  0
  4  9  1  0  0  0  0
  4 18  2  0  0  0  0
  5 21  1  0  0  0  0
  6 23  1  0  0  0  0
  7 10  2  0  0  0  0
  7 22  1  0  0  0  0
  8 27  1  0  0  0  0
  9 27  2  0  0  0  0
 10 28  1  0  0  0  0
 11 12  2  0  0  0  0
 11 29  1  0  0  0  0
 12 30  1  0  0  0  0
 13 19  2  0  0  0  0
 13 25  1  0  0  0  0
 14 19  1  0  0  0  0
 14 26  2  0  0  0  0
 15 24  1  0  0  0  0
 15 28  2  0  0  0  0
 16 25  2  0  0  0  0
 16 26  1  0  0  0  0
 17 30  2  0  0  0  0
 17 31  1  0  0  0  0
 18 32  1  0  0  0  0
 19 34  1  0  0  0  0
 20 32  1  0  0  0  0
 20 33  2  0  0  0  0
 20 36  1  0  0  0  0
 21 23  2  0  0  0  0
 21 42  1  0  0  0  0
 22 24  2  0  0  0  0
 22 43  1  0  0  0  0
 23 51  1  0  0  0  0
 24 44  1  0  0  0  0
 25 54  1  0  0  0  0
 26 60  1  0  0  0  0
 27 81  1  0  0  0  0
 28 82  1  0  0  0  0
 29 31  2  0  0  0  0
 29 81  1  0  0  0  0
 30 83  1  0  0  0  0
 31 84  1  0  0  0  0
 32 66  2  0  0  0  0
 33 67  1  0  0  0  0
 33 70  1  0  0  0  0
 34 35  2  0  0  0  0
 35 37  1  0  0  0  0
 36 71  1  0  0  0  0
 36 75  2  0  0  0  0
 37 68  1  0  0  0  0
 37 76  2  0  0  0  0
 38 52  1  0  0  0  0
 38 72  1  0  0  0  0
 38 77  2  0  0  0  0
 39 61  1  0  0  0  0
 39 62  1  0  0  0  0
 39 78  2  0  0  0  0
 40 63  1  0  0  0  0
 40 69  1  0  0  0  0
 40 79  2  0  0  0  0
 41 64  1  0  0  0  0
 41 73  1  0  0  0  0
 41 80  2  0  0  0  0
 42 45  1  0  0  0  0
 43 52  1  0  0  0  0
 44 69  1  0  0  0  0
 45 47  1  0  0  0  0
 46 48  1  0  0  0  0
 46 49  1  0  0  0  0
 47 51  1  0  0  0  0
 48 53  1  0  0  0  0
 49 68  1  0  0  0  0
 50 53  1  0  0  0  0
 50 68  1  0  0  0  0
 51 72  1  0  0  0  0
 52 69  1  0  0  0  0
 53 67  1  0  0  0  0
 55 64  1  0  0  0  0
 56 65  1  0  0  0  0
 57 65  1  0  0  0  0
 58 65  1  0  0  0  0
 59 74  1  0  0  0  0
 60 61  1  0  0  0  0
 62 82  1  0  0  0  0
 63 65  1  0  0  0  0
 63 73  1  0  0  0  0
 64 74  1  0  0  0  0
 66 67  1  0  0  0  0
M  CHG  1  74   1
M  ISO  4  35 100  37 100  62 101  82 101
M  END
> <Batch ID>
0131

> <Smiles>
CNC(C)C(=O)NC(C(=O)N1Cc2cc([101O:1][101CH2:1]C(=O)CCc3cc(C)cc(C=[100CH:0][100C:0](=O)N4CCCC(n5nc(-c6ccc(Oc7ccc(F)cc7F)cc6)c(C(N)=O)c5N)C4)c3)ccc2CC1C(=O)NC1CCCc2ccccc21)C(C)(C)C

> <Shape>
0.266

> <Color>
0.078

> <Negative vol penalty>
0.000

$$$$

  -OEChem-04052302253D

 80 88  0     1  0  0  0  0  0999 V2000
  -17.6639  -26.9025   19.4478 C   0  0  0  0  0  0  0  0  0  0  0  0
  -18.9894  -27.1376   19.0967 C   0  0  0  0  0  0  0  0  0  0  0  0
  -27.1849  -12.9571   21.1541 C   0  0  0  0  0  0  0  0  0  0  0  0
  -26.8878  -13.6024   18.8450 C   0  0  0  0  0  0  0  0  0  0  0  0
  -17.2370  -27.1410   20.7535 C   0  0  0  0  0  0  0  0  0  0  0  0
  -19.8885  -27.6125   20.0509 C   0  0  0  0  0  0  0  0  0  0  0  0
  -24.3264  -25.1768   19.9204 C   0  0  0  0  0  0  0  0  0  0  0  0
  -26.4391  -11.8005   20.9269 C   0  0  0  0  0  0  0  0  0  0  0  0
  -26.1420  -12.4458   18.6177 C   0  0  0  0  0  0  0  0  0  0  0  0
  -25.2196  -25.5344   18.9114 C   0  0  0  0  0  0  0  0  0  0  0  0
  -24.3089   -8.8555   21.0425 C   0  0  0  0  0  0  0  0  0  0  0  0
  -23.3399   -8.5113   21.9848 C   0  0  0  0  0  0  0  0  0  0  0  0
  -32.2059  -23.8375   18.0290 C   0  0  0  0  0  0  0  0  0  0  0  0
  -31.6746  -22.5332   18.1692 C   0  0  0  0  0  0  0  0  0  0  0  0
  -26.4369  -26.9022   20.4819 C   0  0  0  0  0  0  0  0  0  0  0  0
  -22.2080  -10.6084   21.5869 C   0  0  0  0  0  0  0  0  0  0  0  0
  -27.4092  -13.8581   20.1132 C   0  0  0  0  0  0  0  0  0  0  0  0
  -29.5717  -15.2078   20.2112 C   0  0  0  0  0  0  0  0  0  0  0  0
  -18.1335  -27.6099   21.7265 C   0  0  0  0  0  0  0  0  0  0  0  0
  -24.4757  -25.6887   21.2174 C   0  0  0  0  0  0  0  0  0  0  0  0
  -19.4728  -27.8588   21.3705 C   0  0  0  0  0  0  0  0  0  0  0  0
  -25.5458  -26.5475   21.5062 C   0  0  0  0  0  0  0  0  0  0  0  0
  -25.9177  -11.5448   19.6587 C   0  0  0  0  0  0  0  0  0  0  0  0
  -26.2733  -26.3995   19.1913 C   0  0  0  0  0  0  0  0  0  0  0  0
  -24.2276  -10.0762   20.3724 C   0  0  0  0  0  0  0  0  0  0  0  0
  -22.2894   -9.3877   22.2570 C   0  0  0  0  0  0  0  0  0  0  0  0
  -23.1772  -10.9526   20.6446 C   0  0  0  0  0  0  0  0  0  0  0  0
  -28.1790  -15.0533   20.3474 C   0  0  0  0  0  0  0  0  0  0  0  0
  -31.3766  -24.6670   18.7475 C   0  0  0  0  0  0  0  0  0  0  0  0
  -29.8061  -16.5190   20.5466 C   0  0  0  0  0  0  0  0  0  0  0  0
  -30.5586  -22.6586   18.9636 C   0  0  0  0  0  0  0  0  0  0  0  0
  -30.5646  -14.2517   19.8167 C   0  0  0  0  0  0  0  0  0  0  0  0
  -22.7045  -27.5101   23.1276 C   0  0  0  0  0  0  0  0  0  0  0  0
  -25.0292  -26.8302   25.2853 C   0  0  0  0  0  0  0  0  0  0  0  0
  -28.2609  -25.8997   25.8658 C   0  0  0  0  0  0  0  0  0  0  0  0
  -28.5186  -21.9279   20.2484 C   0  0  0  0  0  0  0  0  0  0  0  0
  -17.6146  -27.8981   23.1130 C   0  0  0  0  0  0  0  0  0  0  0  0
  -23.5194  -25.2721   22.3011 C   0  0  0  0  0  0  0  0  0  0  0  0
  -25.7619  -27.1086   22.8872 C   0  0  0  0  0  0  0  0  0  0  0  0
  -18.7178  -28.0448   24.1580 C   0  0  0  0  0  0  0  0  0  0  0  0
  -26.7660  -19.9741   22.6542 C   0  0  0  0  0  0  0  0  0  0  0  0
  -19.8310  -28.9476   23.6359 C   0  0  0  0  0  0  0  0  0  0  0  0
  -27.0919  -18.5324   22.2573 C   0  0  0  0  0  0  0  0  0  0  0  0
  -26.6035  -20.8759   21.4318 C   0  0  0  0  0  0  0  0  0  0  0  0
  -28.0511  -19.4038   20.0876 C   0  0  0  0  0  0  0  0  0  0  0  0
  -20.4839  -28.3504   22.3835 C   0  0  1  0  0  0  0  0  0  0  0  0
  -23.4663  -26.2592   23.4630 C   0  0  1  0  0  0  0  0  0  0  0  0
  -28.2879  -18.4717   21.2870 C   0  0  2  0  0  0  0  0  0  0  0  0
  -29.8806  -25.4646   27.7326 C   0  0  0  0  0  0  0  0  0  0  0  0
  -25.3270  -29.8351   25.7240 C   0  0  0  0  0  0  0  0  0  0  0  0
  -27.5281  -29.3852   26.8289 C   0  0  0  0  0  0  0  0  0  0  0  0
  -25.4295  -28.4609   27.8110 C   0  0  0  0  0  0  0  0  0  0  0  0
  -28.6335  -23.0818   25.0413 C   0  0  0  0  0  0  0  0  0  0  0  0
  -31.3758  -26.1525   19.0069 C   0  0  0  0  0  0  0  0  0  0  0  0
  -30.8826  -26.9880   17.8204 C   0  0  0  0  0  0  0  0  0  0  0  0
  -29.4244  -26.7067   17.4552 C   0  0  0  0  0  0  0  0  0  0  0  0
  -28.4846  -27.0480   18.6036 C   0  0  0  0  0  0  0  0  0  1  0  0
  -26.3435  -27.4622   25.6757 C   0  0  1  0  0  0  0  0  0  0  0  0
  -28.8573  -24.8523   26.7888 C   0  0  2  0  0  0  0  0  0  0  0  0
  -26.1521  -28.7770   26.4833 C   0  0  0  0  0  0  0  0  0  0  0  0
  -27.5715  -16.1765   20.7390 N   0  0  0  0  0  0  0  0  0  0  0  0
  -28.5871  -17.0493   20.8518 N   0  0  0  0  0  0  0  0  0  0  0  0
  -24.7964  -26.6766   23.9113 N   0  0  0  0  0  0  0  0  0  0  0  0
  -27.7759  -20.7696   20.5606 N   0  0  0  0  0  0  0  0  0  0  0  0
  -30.9339  -17.2584   20.6074 N   0  0  0  0  0  0  0  0  0  0  0  0
  -30.1515  -12.9488   19.5065 N   0  0  0  0  0  0  0  0  0  0  0  0
  -29.6306  -21.6990   19.4387 N   0  0  0  0  0  0  0  0  0  0  0  0
  -21.3951  -27.2864   22.7471 N   0  0  0  0  0  0  0  0  0  0  0  0
  -27.0981  -26.4321   26.3812 N   0  0  0  0  0  0  0  0  0  0  0  0
  -29.5294  -23.7849   25.9953 N   0  3  0  0  0  0  0  0  0  0  0  0
  -31.7840  -14.5397   19.7573 O   0  0  0  0  0  0  0  0  0  0  0  0
  -23.2629  -28.5979   23.2094 O   0  0  0  0  0  0  0  0  0  0  0  0
  -24.2414  -26.4792   26.1672 O   0  0  0  0  0  0  0  0  0  0  0  0
  -28.7771  -26.2166   24.7964 O   0  0  0  0  0  0  0  0  0  0  0  0
  -28.2079  -23.0369   20.6907 O   0  0  0  0  0  0  0  0  0  0  0  0
  -30.3701  -23.9562   19.3204 O   0  0  0  0  0  0  0  0  0  0  0  0
  -25.1901  -10.4162   19.4365 O   0  0  0  0  0  0  0  0  0  0  0  0
  -27.1461  -26.7507   18.2081 O   0  0  0  0  0  0  0  0  0  1  0  0
  -21.3581   -9.0563   23.1608 F   0  0  0  0  0  0  0  0  0  0  0  0
  -23.0931  -12.1262   20.0031 F   0  0  0  0  0  0  0  0  0  0  0  0
  1  2  1  0  0  0  0
  1  5  2  0  0  0  0
  2  6  2  0  0  0  0
  3  8  2  0  0  0  0
  3 17  1  0  0  0  0
  4  9  1  0  0  0  0
  4 17  2  0  0  0  0
  5 19  1  0  0  0  0
  6 21  1  0  0  0  0
  7 10  2  0  0  0  0
  7 20  1  0  0  0  0
  8 23  1  0  0  0  0
  9 23  2  0  0  0  0
 10 24  1  0  0  0  0
 11 12  2  0  0  0  0
 11 25  1  0  0  0  0
 12 26  1  0  0  0  0
 13 14  1  0  0  0  0
 13 29  2  0  0  0  0
 14 31  2  0  0  0  0
 15 22  1  0  0  0  0
 15 24  2  0  0  0  0
 16 26  2  0  0  0  0
 16 27  1  0  0  0  0
 17 28  1  0  0  0  0
 18 28  1  0  0  0  0
 18 30  2  0  0  0  0
 18 32  1  0  0  0  0
 19 21  2  0  0  0  0
 19 37  1  0  0  0  0
 20 22  2  0  0  0  0
 20 38  1  0  0  0  0
 21 46  1  0  0  0  0
 22 39  1  0  0  0  0
 23 77  1  0  0  0  0
 24 78  1  0  0  0  0
 25 27  2  0  0  0  0
 25 77  1  0  0  0  0
 26 79  1  0  0  0  0
 27 80  1  0  0  0  0
 28 61  2  0  0  0  0
 29 54  1  0  0  0  0
 29 76  1  0  0  0  0
 30 62  1  0  0  0  0
 30 65  1  0  0  0  0
 31 67  1  0  0  0  0
 31 76  1  0  0  0  0
 32 66  1  0  0  0  0
 32 71  2  0  0  0  0
 33 47  1  0  0  0  0
 33 68  1  0  0  0  0
 33 72  2  0  0  0  0
 34 58  1  0  0  0  0
 34 63  1  0  0  0  0
 34 73  2  0  0  0  0
 35 59  1  0  0  0  0
 35 69  1  0  0  0  0
 35 74  2  0  0  0  0
 36 64  1  0  0  0  0
 36 67  1  0  0  0  0
 36 75  2  0  0  0  0
 37 40  1  0  0  0  0
 38 47  1  0  0  0  0
 39 63  1  0  0  0  0
 40 42  1  0  0  0  0
 41 43  1  0  0  0  0
 41 44  1  0  0  0  0
 42 46  1  0  0  0  0
 43 48  1  0  0  0  0
 44 64  1  0  0  0  0
 45 48  1  0  0  0  0
 45 64  1  0  0  0  0
 46 68  1  0  0  0  0
 47 63  1  0  0  0  0
 48 62  1  0  0  0  0
 49 59  1  0  0  0  0
 50 60  1  0  0  0  0
 51 60  1  0  0  0  0
 52 60  1  0  0  0  0
 53 70  1  0  0  0  0
 54 55  1  0  0  0  0
 55 56  1  0  0  0  0
 56 57  1  0  0  0  0
 57 78  1  0  0  0  0
 58 60  1  0  0  0  0
 58 69  1  0  0  0  0
 59 70  1  0  0  0  0
 61 62  1  0  0  0  0
M  CHG  1  70   1
M  ISO  4  36 100  57 101  67 100  78 101
M  END
> <Batch ID>
0131

> <Smiles>
CNC(C)C(=O)NC(C(=O)N1Cc2cc([101O:1][101CH2:1]CCCc3ccc([100NH:0][100C:0](=O)N4CCCC(n5nc(-c6ccc(Oc7ccc(F)cc7F)cc6)c(C(N)=O)c5N)C4)o3)ccc2CC1C(=O)NC1CCCc2ccccc21)C(C)(C)C

> <Shape>
0.248

> <Color>
0.079

> <Negative vol penalty>
0.000

$$$$

  -OEChem-04052302253D

 87 95  0     1  0  0  0  0  0999 V2000
  -24.6712  -36.1426   23.9510 C   0  0  0  0  0  0  0  0  0  0  0  0
  -24.8358  -34.7654   24.0582 C   0  0  0  0  0  0  0  0  0  0  0  0
  -23.0777   -9.8638   19.9453 C   0  0  0  0  0  0  0  0  0  0  0  0
  -23.8347   -9.8798   22.2396 C   0  0  0  0  0  0  0  0  0  0  0  0
  -25.0562  -36.8009   22.7838 C   0  0  0  0  0  0  0  0  0  0  0  0
  -25.3846  -34.0454   22.9976 C   0  0  0  0  0  0  0  0  0  0  0  0
  -29.0063  -29.1212   23.3745 C   0  0  0  0  0  0  0  0  0  0  0  0
  -22.3343   -8.7110   20.1986 C   0  0  0  0  0  0  0  0  0  0  0  0
  -23.0912   -8.7271   22.4930 C   0  0  0  0  0  0  0  0  0  0  0  0
  -28.7473  -27.7557   23.2643 C   0  0  0  0  0  0  0  0  0  0  0  0
  -19.8629   -7.9293   23.0943 C   0  0  0  0  0  0  0  0  0  0  0  0
  -19.1044   -7.8932   24.2644 C   0  0  0  0  0  0  0  0  0  0  0  0
  -29.3923  -27.8270   20.9409 C   0  0  0  0  0  0  0  0  0  0  0  0
  -30.5798  -19.8760   21.4716 C   0  0  0  0  0  0  0  0  0  0  0  0
  -31.1463  -17.7020   20.5833 C   0  0  0  0  0  0  0  0  0  0  0  0
  -29.5127  -17.8956   22.3527 C   0  0  0  0  0  0  0  0  0  0  0  0
  -20.3462   -5.9593   25.0096 C   0  0  0  0  0  0  0  0  0  0  0  0
  -23.8280  -10.4481   20.9658 C   0  0  0  0  0  0  0  0  0  0  0  0
  -24.1682  -12.9731   20.8369 C   0  0  0  0  0  0  0  0  0  0  0  0
  -25.6189  -36.0899   21.7121 C   0  0  0  0  0  0  0  0  0  0  0  0
  -29.4506  -29.8533   22.2641 C   0  0  0  0  0  0  0  0  0  0  0  0
  -25.7763  -34.6945   21.8145 C   0  0  0  0  0  0  0  0  0  0  0  0
  -29.6587  -29.2012   21.0403 C   0  0  0  0  0  0  0  0  0  0  0  0
  -31.3132  -19.0868   20.5858 C   0  0  0  0  0  0  0  0  0  0  0  0
  -29.6796  -19.2804   22.3552 C   0  0  0  0  0  0  0  0  0  0  0  0
  -30.2461  -17.1063   21.4667 C   0  0  0  0  0  0  0  0  0  0  0  0
  -22.3410   -8.1427   21.4724 C   0  0  0  0  0  0  0  0  0  0  0  0
  -28.9375  -27.1090   22.0466 C   0  0  0  0  0  0  0  0  0  0  0  0
  -20.8629   -6.9804   22.8818 C   0  0  0  0  0  0  0  0  0  0  0  0
  -19.3461   -6.9082   25.2221 C   0  0  0  0  0  0  0  0  0  0  0  0
  -21.1046   -5.9954   23.8395 C   0  0  0  0  0  0  0  0  0  0  0  0
  -24.5966  -11.6386   20.7047 C   0  0  0  0  0  0  0  0  0  0  0  0
  -25.2603  -13.7219   20.4722 C   0  0  0  0  0  0  0  0  0  0  0  0
  -22.8968  -13.4895   21.2523 C   0  0  0  0  0  0  0  0  0  0  0  0
  -28.3070  -32.2987   20.5861 C   0  0  0  0  0  0  0  0  0  0  0  0
  -27.9960  -23.6320   22.8210 C   0  0  0  0  0  0  0  0  0  0  0  0
  -31.1872  -32.1240   19.1041 C   0  0  0  0  0  0  0  0  0  0  0  0
  -33.9025  -30.2358   18.2623 C   0  0  0  0  0  0  0  0  0  0  0  0
  -30.7256  -14.7719   20.6500 C   0  0  0  0  0  0  0  0  0  0  0  0
  -25.9763  -36.8382   20.4524 C   0  0  0  0  0  0  0  0  0  0  0  0
  -29.7510  -31.3202   22.4063 C   0  0  0  0  0  0  0  0  0  0  0  0
  -30.1537  -29.9377   19.8234 C   0  0  0  0  0  0  0  0  0  0  0  0
  -26.8958  -36.0552   19.5188 C   0  0  0  0  0  0  0  0  0  0  0  0
  -29.6158  -12.3486   18.2893 C   0  0  0  0  0  0  0  0  0  0  0  0
  -26.3951  -34.6239   19.3532 C   0  0  0  0  0  0  0  0  0  0  0  0
  -28.1758  -12.0576   18.7181 C   0  0  0  0  0  0  0  0  0  0  0  0
  -30.5292  -12.5825   19.4913 C   0  0  0  0  0  0  0  0  0  0  0  0
  -28.6200  -13.3107   20.8674 C   0  0  0  0  0  0  0  0  0  0  0  0
  -26.3908  -33.8821   20.6953 C   0  0  1  0  0  0  0  0  0  0  0  0
  -29.7080  -32.0704   21.0786 C   0  0  1  0  0  0  0  0  0  0  0  0
  -27.6488  -13.1324   19.6890 C   0  0  2  0  0  0  0  0  0  0  0  0
  -32.2758  -19.7237   19.6413 C   0  0  0  0  0  0  0  0  0  0  0  0
  -36.0768  -30.3581   17.0153 C   0  0  0  0  0  0  0  0  0  0  0  0
  -29.6758  -31.9668   16.4581 C   0  0  0  0  0  0  0  0  0  0  0  0
  -31.7835  -31.1484   15.3829 C   0  0  0  0  0  0  0  0  0  0  0  0
  -31.7110  -33.4195   16.4123 C   0  0  0  0  0  0  0  0  0  0  0  0
  -26.2649  -20.8094   24.8776 C   0  0  0  0  0  0  0  0  0  0  0  0
  -25.3974  -21.9281   22.8190 C   0  0  0  0  0  0  0  0  0  0  0  0
  -35.4677  -29.6272   20.6992 C   0  0  0  0  0  0  0  0  0  0  0  0
  -28.8857  -20.1349   23.3140 C   0  0  0  0  0  0  0  0  0  0  0  0
  -27.4888  -22.7795   23.9742 C   0  0  0  0  0  0  0  0  0  0  0  0
  -28.2271  -25.1027   23.1079 C   0  0  0  0  0  0  0  0  0  1  0  0
  -27.5522  -20.5780   22.6943 C   0  0  0  0  0  0  0  0  0  0  0  0
  -31.7305  -31.3809   17.9076 C   0  0  1  0  0  0  0  0  0  0  0  0
  -35.3918  -30.5114   18.3644 C   0  0  2  0  0  0  0  0  0  0  0  0
  -31.2140  -31.9651   16.5625 C   0  0  0  0  0  0  0  0  0  0  0  0
  -26.6770  -21.5193   23.5704 C   0  0  0  0  0  0  0  0  0  0  0  0
  -25.8620  -11.5421   20.2884 N   0  0  0  0  0  0  0  0  0  0  0  0
  -26.2382  -12.8254   20.1557 N   0  0  0  0  0  0  0  0  0  0  0  0
  -30.4273  -31.3721   20.0113 N   0  0  0  0  0  0  0  0  0  0  0  0
  -29.9684  -13.6162   20.3641 N   0  0  0  0  0  0  0  0  0  0  0  0
  -25.4699  -15.0533   20.3945 N   0  0  0  0  0  0  0  0  0  0  0  0
  -21.8851  -12.5809   21.5916 N   0  0  0  0  0  0  0  0  0  0  0  0
  -30.0765  -15.6996   21.4642 N   0  0  0  0  0  0  0  0  0  0  0  0
  -27.7318  -33.4672   21.0477 N   0  0  0  0  0  0  0  0  0  0  0  0
  -33.1829  -31.3918   18.0453 N   0  0  0  0  0  0  0  0  0  0  0  0
  -36.0287  -29.5666   19.3250 N   0  3  0  0  0  0  0  0  0  0  0  0
  -22.6597  -14.7202   21.3047 O   0  0  0  0  0  0  0  0  0  0  0  0
  -27.7869  -31.4763   19.8411 O   0  0  0  0  0  0  0  0  0  0  0  0
  -28.2177  -23.1439   21.7130 O   0  0  0  0  0  0  0  0  0  0  0  0
  -31.4340  -33.3257   19.2328 O   0  0  0  0  0  0  0  0  0  0  0  0
  -33.4255  -29.1074   18.3610 O   0  0  0  0  0  0  0  0  0  0  0  0
  -31.8551  -14.9397   20.1832 O   0  0  0  0  0  0  0  0  0  0  0  0
  -21.6156   -7.0180   21.7200 O   0  0  0  0  0  0  0  0  0  0  0  0
  -28.6848  -25.7764   21.9361 O   0  0  0  0  0  0  0  0  0  1  0  0
  -18.6188   -6.8746   26.3463 F   0  0  0  0  0  0  0  0  0  0  0  0
  -22.0648   -5.0819   23.6415 F   0  0  0  0  0  0  0  0  0  0  0  0
  1  2  1  0  0  0  0
  1  5  2  0  0  0  0
  2  6  2  0  0  0  0
  3  8  2  0  0  0  0
  3 18  1  0  0  0  0
  4  9  1  0  0  0  0
  4 18  2  0  0  0  0
  5 20  1  0  0  0  0
  6 22  1  0  0  0  0
  7 10  2  0  0  0  0
  7 21  1  0  0  0  0
  8 27  1  0  0  0  0
  9 27  2  0  0  0  0
 10 28  1  0  0  0  0
 11 12  2  0  0  0  0
 11 29  1  0  0  0  0
 12 30  1  0  0  0  0
 13 23  1  0  0  0  0
 13 28  2  0  0  0  0
 14 24  2  0  0  0  0
 14 25  1  0  0  0  0
 15 24  1  0  0  0  0
 15 26  2  0  0  0  0
 16 25  2  0  0  0  0
 16 26  1  0  0  0  0
 17 30  2  0  0  0  0
 17 31  1  0  0  0  0
 18 32  1  0  0  0  0
 19 32  1  0  0  0  0
 19 33  2  0  0  0  0
 19 34  1  0  0  0  0
 20 22  2  0  0  0  0
 20 40  1  0  0  0  0
 21 23  2  0  0  0  0
 21 41  1  0  0  0  0
 22 49  1  0  0  0  0
 23 42  1  0  0  0  0
 24 52  1  0  0  0  0
 25 60  1  0  0  0  0
 26 74  1  0  0  0  0
 27 84  1  0  0  0  0
 28 85  1  0  0  0  0
 29 31  2  0  0  0  0
 29 84  1  0  0  0  0
 30 86  1  0  0  0  0
 31 87  1  0  0  0  0
 32 68  2  0  0  0  0
 33 69  1  0  0  0  0
 33 72  1  0  0  0  0
 34 73  1  0  0  0  0
 34 78  2  0  0  0  0
 35 50  1  0  0  0  0
 35 75  1  0  0  0  0
 35 79  2  0  0  0  0
 36 61  1  0  0  0  0
 36 62  1  0  0  0  0
 36 80  2  0  0  0  0
 37 64  1  0  0  0  0
 37 70  1  0  0  0  0
 37 81  2  0  0  0  0
 38 65  1  0  0  0  0
 38 76  1  0  0  0  0
 38 82  2  0  0  0  0
 39 71  1  0  0  0  0
 39 74  1  0  0  0  0
 39 83  2  0  0  0  0
 40 43  1  0  0  0  0
 41 50  1  0  0  0  0
 42 70  1  0  0  0  0
 43 45  1  0  0  0  0
 44 46  1  0  0  0  0
 44 47  1  0  0  0  0
 45 49  1  0  0  0  0
 46 51  1  0  0  0  0
 47 71  1  0  0  0  0
 48 51  1  0  0  0  0
 48 71  1  0  0  0  0
 49 75  1  0  0  0  0
 50 70  1  0  0  0  0
 51 69  1  0  0  0  0
 53 65  1  0  0  0  0
 54 66  1  0  0  0  0
 55 66  1  0  0  0  0
 56 66  1  0  0  0  0
 57 67  1  0  0  0  0
 58 67  1  0  0  0  0
 59 77  1  0  0  0  0
 60 63  1  0  0  0  0
 61 67  1  0  0  0  0
 62 85  1  0  0  0  0
 63 67  1  0  0  0  0
 64 66  1  0  0  0  0
 64 76  1  0  0  0  0
 65 77  1  0  0  0  0
 68 69  1  0  0  0  0
M  CHG  1  77   1
M  ISO  4  39 100  62 101  74 100  85 101
M  END
> <Batch ID>
0131

> <Smiles>
CNC(C)C(=O)NC(C(=O)N1Cc2cc([101O:1][101CH2:1]C(=O)CC(C)(C)CCc3cc(C)cc([100NH:0][100C:0](=O)N4CCCC(n5nc(-c6ccc(Oc7ccc(F)cc7F)cc6)c(C(N)=O)c5N)C4)c3)ccc2CC1C(=O)NC1CCCc2ccccc21)C(C)(C)C

> <Shape>
0.234

> <Color>
0.187

> <Negative vol penalty>
0.000

$$$$

  -OEChem-04052302253D

 82 90  0     1  0  0  0  0  0999 V2000
  -25.0524  -37.1557   18.0736 C   0  0  0  0  0  0  0  0  0  0  0  0
  -25.7838  -35.9770   17.9683 C   0  0  0  0  0  0  0  0  0  0  0  0
  -24.1918   -9.4851   22.1919 C   0  0  0  0  0  0  0  0  0  0  0  0
  -24.4522   -8.7201   19.9151 C   0  0  0  0  0  0  0  0  0  0  0  0
  -24.3663  -37.4461   19.2521 C   0  0  0  0  0  0  0  0  0  0  0  0
  -25.8304  -35.0884   19.0418 C   0  0  0  0  0  0  0  0  0  0  0  0
  -26.0812  -28.9761   18.7534 C   0  0  0  0  0  0  0  0  0  0  0  0
  -23.1015   -8.6304   22.3544 C   0  0  0  0  0  0  0  0  0  0  0  0
  -23.3620   -7.8653   20.0775 C   0  0  0  0  0  0  0  0  0  0  0  0
  -27.1403  -28.0750   18.8539 C   0  0  0  0  0  0  0  0  0  0  0  0
  -22.5802   -5.3387   22.9253 C   0  0  0  0  0  0  0  0  0  0  0  0
  -22.5170   -4.5841   24.0967 C   0  0  0  0  0  0  0  0  0  0  0  0
  -31.2636  -20.7367   20.3694 C   0  0  0  0  0  0  0  0  0  0  0  0
  -31.0248  -22.0493   19.8970 C   0  0  0  0  0  0  0  0  0  0  0  0
  -26.6447  -27.7628   21.1940 C   0  0  0  0  0  0  0  0  0  0  0  0
  -20.4114   -5.6286   24.6559 C   0  0  0  0  0  0  0  0  0  0  0  0
  -24.8671   -9.5300   20.9722 C   0  0  0  0  0  0  0  0  0  0  0  0
  -27.3471  -10.1220   21.0561 C   0  0  0  0  0  0  0  0  0  0  0  0
  -24.3966  -36.5560   20.3372 C   0  0  0  0  0  0  0  0  0  0  0  0
  -25.3014  -29.2861   19.8769 C   0  0  0  0  0  0  0  0  0  0  0  0
  -25.1451  -35.3677   20.2365 C   0  0  0  0  0  0  0  0  0  0  0  0
  -25.5746  -28.6662   21.1045 C   0  0  0  0  0  0  0  0  0  0  0  0
  -22.6866   -7.8205   21.2972 C   0  0  0  0  0  0  0  0  0  0  0  0
  -27.4240  -27.4704   20.0749 C   0  0  0  0  0  0  0  0  0  0  0  0
  -21.5591   -6.2383   22.6192 C   0  0  0  0  0  0  0  0  0  0  0  0
  -21.4326   -4.7290   24.9620 C   0  0  0  0  0  0  0  0  0  0  0  0
  -20.4747   -6.3832   23.4844 C   0  0  0  0  0  0  0  0  0  0  0  0
  -25.9931  -10.4131   20.8036 C   0  0  0  0  0  0  0  0  0  0  0  0
  -30.0420  -20.1046   20.3751 C   0  0  0  0  0  0  0  0  0  0  0  0
  -29.6743  -22.1258   19.6475 C   0  0  0  0  0  0  0  0  0  0  0  0
  -28.0121  -11.2818   20.7416 C   0  0  0  0  0  0  0  0  0  0  0  0
  -29.7667  -18.7746   20.7685 C   0  0  0  0  0  0  0  0  0  0  0  0
  -28.5450  -18.1463   20.7501 C   0  0  0  0  0  0  0  0  0  0  0  0
  -29.3729  -24.5274   19.4379 C   0  0  0  0  0  0  0  0  0  0  0  0
  -27.9498   -8.9113   21.5323 C   0  0  0  0  0  0  0  0  0  0  0  0
  -28.9205  -23.2935   19.1371 C   0  0  0  0  0  0  0  0  0  0  0  0
  -28.4205  -16.7409   21.1860 C   0  0  0  0  0  0  0  0  0  0  0  0
  -24.6995  -31.9347   21.5281 C   0  0  0  0  0  0  0  0  0  0  0  0
  -22.5968  -30.0189   23.0871 C   0  0  0  0  0  0  0  0  0  0  0  0
  -21.6808  -26.8601   23.9984 C   0  0  0  0  0  0  0  0  0  0  0  0
  -23.6777  -36.9354   21.6077 C   0  0  0  0  0  0  0  0  0  0  0  0
  -24.1457  -30.2399   19.7457 C   0  0  0  0  0  0  0  0  0  0  0  0
  -24.7549  -28.9495   22.3358 C   0  0  0  0  0  0  0  0  0  0  0  0
  -23.4719  -35.7637   22.5642 C   0  0  0  0  0  0  0  0  0  0  0  0
  -26.4470  -15.4531   18.3791 C   0  0  0  0  0  0  0  0  0  0  0  0
  -24.7619  -34.9634   22.7134 C   0  0  0  0  0  0  0  0  0  0  0  0
  -26.2269  -14.0067   18.8140 C   0  0  0  0  0  0  0  0  0  0  0  0
  -26.4726  -16.4105   19.5695 C   0  0  0  0  0  0  0  0  0  0  0  0
  -27.2398  -14.5818   21.0553 C   0  0  0  0  0  0  0  0  0  0  0  0
  -25.1996  -34.3669   21.3703 C   0  0  1  0  0  0  0  0  0  0  0  0
  -23.7393  -30.8723   21.0732 C   0  0  1  0  0  0  0  0  0  0  0  0
  -27.2575  -13.5952   19.8773 C   0  0  1  0  0  0  0  0  0  0  0  0
  -26.4475  -22.8677   19.2620 C   0  0  0  0  0  0  0  0  0  0  0  0
  -19.9372  -25.6141   25.3039 C   0  0  0  0  0  0  0  0  0  0  0  0
  -23.9324  -30.8828   25.6909 C   0  0  0  0  0  0  0  0  0  0  0  0
  -22.8257  -28.9422   26.8212 C   0  0  0  0  0  0  0  0  0  0  0  0
  -21.4376  -30.7428   25.7947 C   0  0  0  0  0  0  0  0  0  0  0  0
  -20.7873  -25.3686   21.6035 C   0  0  0  0  0  0  0  0  0  0  0  0
  -28.7828  -25.8343   19.0106 C   0  0  0  0  0  0  0  0  0  1  0  0
  -27.6626  -22.9983   18.3533 C   0  0  0  0  0  0  0  0  0  0  0  0
  -22.6651  -29.1178   24.2964 C   0  0  1  0  0  0  0  0  0  0  0  0
  -20.3451  -26.1415   23.9371 C   0  0  2  0  0  0  0  0  0  0  0  0
  -22.7320  -29.9173   25.6282 C   0  0  0  0  0  0  0  0  0  0  0  0
  -25.8073  -11.6602   20.3628 N   0  0  0  0  0  0  0  0  0  0  0  0
  -27.0533  -12.1630   20.3359 N   0  0  0  0  0  0  0  0  0  0  0  0
  -27.4233  -15.9641   20.5990 N   0  0  0  0  0  0  0  0  0  0  0  0
  -23.6395  -29.8940   22.1582 N   0  0  0  0  0  0  0  0  0  0  0  0
  -29.3176  -11.6238   20.7753 N   0  0  0  0  0  0  0  0  0  0  0  0
  -27.1206   -7.8151   21.8065 N   0  0  0  0  0  0  0  0  0  0  0  0
  -24.4061  -33.1988   21.0534 N   0  0  0  0  0  0  0  0  0  0  0  0
  -21.5230  -28.2153   24.1980 N   0  0  0  0  0  0  0  0  0  0  0  0
  -20.4186  -24.9913   22.9923 N   0  3  0  0  0  0  0  0  0  0  0  0
  -29.1851   -8.8100   21.7250 O   0  0  0  0  0  0  0  0  0  0  0  0
  -29.2053  -16.3413   22.0480 O   0  0  0  0  0  0  0  0  0  0  0  0
  -25.6364  -31.6303   22.2571 O   0  0  0  0  0  0  0  0  0  0  0  0
  -21.6492  -30.7996   22.9675 O   0  0  0  0  0  0  0  0  0  0  0  0
  -22.7568  -26.2771   23.8845 O   0  0  0  0  0  0  0  0  0  0  0  0
  -29.0679  -20.9445   19.9363 O   0  0  0  0  0  0  0  0  0  0  0  0
  -21.6229   -6.9862   21.4554 O   0  0  0  0  0  0  0  0  0  0  0  0
  -28.4576  -26.5910   20.1759 O   0  0  0  0  0  0  0  0  0  1  0  0
  -21.3712   -4.0032   26.0860 F   0  0  0  0  0  0  0  0  0  0  0  0
  -19.4901   -7.2450   23.1951 F   0  0  0  0  0  0  0  0  0  0  0  0
  1  2  1  0  0  0  0
  1  5  2  0  0  0  0
  2  6  2  0  0  0  0
  3  8  2  0  0  0  0
  3 17  1  0  0  0  0
  4  9  1  0  0  0  0
  4 17  2  0  0  0  0
  5 19  1  0  0  0  0
  6 21  1  0  0  0  0
  7 10  2  0  0  0  0
  7 20  1  0  0  0  0
  8 23  1  0  0  0  0
  9 23  2  0  0  0  0
 10 24  1  0  0  0  0
 11 12  2  0  0  0  0
 11 25  1  0  0  0  0
 12 26  1  0  0  0  0
 13 14  1  0  0  0  0
 13 29  2  0  0  0  0
 14 30  2  0  0  0  0
 15 22  1  0  0  0  0
 15 24  2  0  0  0  0
 16 26  2  0  0  0  0
 16 27  1  0  0  0  0
 17 28  1  0  0  0  0
 18 28  1  0  0  0  0
 18 31  2  0  0  0  0
 18 35  1  0  0  0  0
 19 21  2  0  0  0  0
 19 41  1  0  0  0  0
 20 22  2  0  0  0  0
 20 42  1  0  0  0  0
 21 50  1  0  0  0  0
 22 43  1  0  0  0  0
 23 79  1  0  0  0  0
 24 80  1  0  0  0  0
 25 27  2  0  0  0  0
 25 79  1  0  0  0  0
 26 81  1  0  0  0  0
 27 82  1  0  0  0  0
 28 64  2  0  0  0  0
 29 32  1  0  0  0  0
 29 78  1  0  0  0  0
 30 36  1  0  0  0  0
 30 78  1  0  0  0  0
 31 65  1  0  0  0  0
 31 68  1  0  0  0  0
 32 33  2  0  0  0  0
 33 37  1  0  0  0  0
 34 36  2  0  0  0  0
 34 59  1  0  0  0  0
 35 69  1  0  0  0  0
 35 73  2  0  0  0  0
 36 60  1  0  0  0  0
 37 66  1  0  0  0  0
 37 74  2  0  0  0  0
 38 51  1  0  0  0  0
 38 70  1  0  0  0  0
 38 75  2  0  0  0  0
 39 61  1  0  0  0  0
 39 67  1  0  0  0  0
 39 76  2  0  0  0  0
 40 62  1  0  0  0  0
 40 71  1  0  0  0  0
 40 77  2  0  0  0  0
 41 44  1  0  0  0  0
 42 51  1  0  0  0  0
 43 67  1  0  0  0  0
 44 46  1  0  0  0  0
 45 47  1  0  0  0  0
 45 48  1  0  0  0  0
 46 50  1  0  0  0  0
 47 52  1  0  0  0  0
 48 66  1  0  0  0  0
 49 52  1  0  0  0  0
 49 66  1  0  0  0  0
 50 70  1  0  0  0  0
 51 67  1  0  0  0  0
 52 65  1  0  0  0  0
 53 60  1  0  0  0  0
 54 62  1  0  0  0  0
 55 63  1  0  0  0  0
 56 63  1  0  0  0  0
 57 63  1  0  0  0  0
 58 72  1  0  0  0  0
 59 80  1  0  0  0  0
 61 63  1  0  0  0  0
 61 71  1  0  0  0  0
 62 72  1  0  0  0  0
 64 65  1  0  0  0  0
M  CHG  1  72   1
M  ISO  4  33 100  37 100  59 101  80 101
M  END
> <Batch ID>
0131

> <Smiles>
CCC(=C[101CH2:1][101O:1]c1ccc2c(c1)CN(C(=O)C(NC(=O)C(C)NC)C(C)(C)C)C(C(=O)NC1CCCc3ccccc31)C2)c1ccc(C=[100CH:0][100C:0](=O)N2CCCC(n3nc(-c4ccc(Oc5ccc(F)cc5F)cc4)c(C(N)=O)c3N)C2)o1

> <Shape>
0.273

> <Color>
0.137

> <Negative vol penalty>
0.000

$$$$

  -OEChem-04052302253D

 85 93  0     1  0  0  0  0  0999 V2000
  -29.2422  -26.0970   15.9322 C   0  0  0  0  0  0  0  0  0  0  0  0
  -27.9753  -26.1642   16.5030 C   0  0  0  0  0  0  0  0  0  0  0  0
  -25.6530  -17.7744   20.5614 C   0  0  0  0  0  0  0  0  0  0  0  0
  -27.1138  -18.0070   22.4716 C   0  0  0  0  0  0  0  0  0  0  0  0
  -30.3558  -26.5170   16.6584 C   0  0  0  0  0  0  0  0  0  0  0  0
  -27.8213  -26.6503   17.8008 C   0  0  0  0  0  0  0  0  0  0  0  0
  -23.9525  -29.8916   18.2150 C   0  0  0  0  0  0  0  0  0  0  0  0
  -20.5628  -27.0293   23.0230 C   0  0  0  0  0  0  0  0  0  0  0  0
  -21.9034  -26.6539   22.9376 C   0  0  0  0  0  0  0  0  0  0  0  0
  -25.3016  -16.4931   20.9861 C   0  0  0  0  0  0  0  0  0  0  0  0
  -26.7624  -16.7257   22.8964 C   0  0  0  0  0  0  0  0  0  0  0  0
  -22.6700  -29.3480   18.2743 C   0  0  0  0  0  0  0  0  0  0  0  0
  -26.6378  -13.3895   20.9070 C   0  0  0  0  0  0  0  0  0  0  0  0
  -26.6076  -12.3756   19.9495 C   0  0  0  0  0  0  0  0  0  0  0  0
  -22.6721  -29.6198   20.6712 C   0  0  0  0  0  0  0  0  0  0  0  0
  -20.0300  -25.5425   21.1947 C   0  0  0  0  0  0  0  0  0  0  0  0
  -24.2659  -12.0056   20.4152 C   0  0  0  0  0  0  0  0  0  0  0  0
  -26.5591  -18.5314   21.3041 C   0  0  0  0  0  0  0  0  0  0  0  0
  -27.5327  -20.2090   19.6472 C   0  0  0  0  0  0  0  0  0  0  0  0
  -30.2144  -27.0176   17.9623 C   0  0  0  0  0  0  0  0  0  0  0  0
  -24.6099  -30.2939   19.3866 C   0  0  0  0  0  0  0  0  0  0  0  0
  -28.9342  -27.0761   18.5456 C   0  0  0  0  0  0  0  0  0  0  0  0
  -23.9619  -30.1705   20.6239 C   0  0  0  0  0  0  0  0  0  0  0  0
  -19.6260  -26.4735   22.1515 C   0  0  0  0  0  0  0  0  0  0  0  0
  -21.3707  -25.1671   21.1093 C   0  0  0  0  0  0  0  0  0  0  0  0
  -22.3074  -25.7228   21.9808 C   0  0  0  0  0  0  0  0  0  0  0  0
  -25.8563  -15.9688   22.1536 C   0  0  0  0  0  0  0  0  0  0  0  0
  -22.0308  -29.2094   19.5027 C   0  0  0  0  0  0  0  0  0  0  0  0
  -25.4821  -13.7113   21.6187 C   0  0  0  0  0  0  0  0  0  0  0  0
  -25.4217  -11.6837   19.7036 C   0  0  0  0  0  0  0  0  0  0  0  0
  -24.2962  -13.0194   21.3728 C   0  0  0  0  0  0  0  0  0  0  0  0
  -26.9229  -19.8548   20.8656 C   0  0  0  0  0  0  0  0  0  0  0  0
  -27.6661  -21.5743   19.7142 C   0  0  0  0  0  0  0  0  0  0  0  0
  -19.7783  -29.4487   20.0857 C   0  0  0  0  0  0  0  0  0  1  0  0
  -27.9419  -19.3781   18.5527 C   0  0  0  0  0  0  0  0  0  0  0  0
  -18.4989  -29.0573   20.2078 C   0  0  0  0  0  0  0  0  0  0  0  0
  -27.2784  -29.4181   20.8751 C   0  0  0  0  0  0  0  0  0  0  0  0
  -26.5694  -31.9332   22.7970 C   0  0  0  0  0  0  0  0  0  0  0  0
  -24.1983  -34.0438   24.0502 C   0  0  0  0  0  0  0  0  0  0  0  0
  -24.7172  -25.8221   22.7083 C   0  0  0  0  0  0  0  0  0  0  0  0
  -31.4529  -27.4155   18.7255 C   0  0  0  0  0  0  0  0  0  0  0  0
  -25.9826  -30.9031   19.3030 C   0  0  0  0  0  0  0  0  0  0  0  0
  -24.6162  -30.6060   21.9087 C   0  0  0  0  0  0  0  0  0  0  0  0
  -31.1614  -28.2681   19.9577 C   0  0  0  0  0  0  0  0  0  0  0  0
  -28.2067  -25.1337   22.8722 C   0  0  0  0  0  0  0  0  0  0  0  0
  -30.0165  -27.6652   20.7655 C   0  0  0  0  0  0  0  0  0  0  0  0
  -28.3297  -23.7366   22.2598 C   0  0  0  0  0  0  0  0  0  0  0  0
  -26.9306  -25.2800   23.6992 C   0  0  0  0  0  0  0  0  0  0  0  0
  -25.8151  -23.5185   22.3871 C   0  0  0  0  0  0  0  0  0  0  0  0
  -28.7238  -27.6207   19.9418 C   0  0  1  0  0  0  0  0  0  0  0  0
  -26.7610  -30.8038   20.6113 C   0  0  1  0  0  0  0  0  0  0  0  0
  -27.0525  -23.3435   21.4917 C   0  0  2  0  0  0  0  0  0  0  0  0
  -21.7757  -24.1697   20.0726 C   0  0  0  0  0  0  0  0  0  0  0  0
  -17.4835  -30.0075   20.7857 C   0  0  0  0  0  0  0  0  0  0  0  0
  -17.0140  -27.7979   18.6172 C   0  0  0  0  0  0  0  0  0  0  0  0
  -23.2498  -35.9881   25.3219 C   0  0  0  0  0  0  0  0  0  0  0  0
  -26.7882  -30.0235   25.1666 C   0  0  0  0  0  0  0  0  0  0  0  0
  -25.5928  -31.7260   26.5597 C   0  0  0  0  0  0  0  0  0  0  0  0
  -27.8043  -32.2770   25.5456 C   0  0  0  0  0  0  0  0  0  0  0  0
  -24.5063  -35.8588   21.7330 C   0  0  0  0  0  0  0  0  0  0  0  0
  -18.1766  -26.8814   22.2424 C   0  0  0  0  0  0  0  0  0  0  0  0
  -17.4153  -26.8273   20.9086 C   0  0  0  0  0  0  0  0  0  0  0  0
  -18.0215  -27.6779   19.7684 C   0  0  2  0  0  0  0  0  0  0  0  0
  -25.7644  -32.1197   24.0604 C   0  0  1  0  0  0  0  0  0  0  0  0
  -24.1671  -35.5551   24.1889 C   0  0  2  0  0  0  0  0  0  0  0  0
  -26.4756  -31.5265   25.3092 C   0  0  0  0  0  0  0  0  0  0  0  0
  -26.6855  -20.9100   21.6493 N   0  0  0  0  0  0  0  0  0  0  0  0
  -27.1486  -21.9407   20.9217 N   0  0  0  0  0  0  0  0  0  0  0  0
  -25.9612  -31.1899   21.7755 N   0  0  0  0  0  0  0  0  0  0  0  0
  -25.7618  -24.8944   22.9056 N   0  0  0  0  0  0  0  0  0  0  0  0
  -28.1746  -22.4853   18.8574 N   0  0  0  0  0  0  0  0  0  0  0  0
  -29.2430  -18.8570   18.5595 N   0  0  0  0  0  0  0  0  0  0  0  0
  -23.6738  -25.3545   21.9100 N   0  0  0  0  0  0  0  0  0  0  0  0
  -28.1137  -28.9319   19.8875 N   0  0  0  0  0  0  0  0  0  0  0  0
  -25.4804  -33.5475   24.1564 N   0  0  0  0  0  0  0  0  0  0  0  0
  -23.6824  -36.1812   22.9264 N   0  3  0  0  0  0  0  0  0  0  0  0
  -27.1819  -19.1192   17.5889 O   0  0  0  0  0  0  0  0  0  0  0  0
  -26.9455  -28.8337   21.8995 O   0  0  0  0  0  0  0  0  0  0  0  0
  -27.6934  -32.4349   22.7165 O   0  0  0  0  0  0  0  0  0  0  0  0
  -23.1862  -33.3704   23.8698 O   0  0  0  0  0  0  0  0  0  0  0  0
  -24.7588  -26.9579   23.1882 O   0  0  0  0  0  0  0  0  0  0  0  0
  -25.5135  -14.7186   22.5685 O   0  0  0  0  0  0  0  0  0  0  0  0
  -20.7792  -28.6785   19.5635 O   0  0  0  0  0  0  0  0  0  1  0  0
  -25.3924  -10.7112   18.7829 F   0  0  0  0  0  0  0  0  0  0  0  0
  -23.1824  -13.3249   22.0525 F   0  0  0  0  0  0  0  0  0  0  0  0
  1  2  1  0  0  0  0
  1  5  2  0  0  0  0
  2  6  2  0  0  0  0
  3 10  2  0  0  0  0
  3 18  1  0  0  0  0
  4 11  1  0  0  0  0
  4 18  2  0  0  0  0
  5 20  1  0  0  0  0
  6 22  1  0  0  0  0
  7 12  2  0  0  0  0
  7 21  1  0  0  0  0
  8  9  2  0  0  0  0
  8 24  1  0  0  0  0
  9 26  1  0  0  0  0
 10 27  1  0  0  0  0
 11 27  2  0  0  0  0
 12 28  1  0  0  0  0
 13 14  2  0  0  0  0
 13 29  1  0  0  0  0
 14 30  1  0  0  0  0
 15 23  1  0  0  0  0
 15 28  2  0  0  0  0
 16 24  2  0  0  0  0
 16 25  1  0  0  0  0
 17 30  2  0  0  0  0
 17 31  1  0  0  0  0
 18 32  1  0  0  0  0
 19 32  1  0  0  0  0
 19 33  2  0  0  0  0
 19 35  1  0  0  0  0
 20 22  2  0  0  0  0
 20 41  1  0  0  0  0
 21 23  2  0  0  0  0
 21 42  1  0  0  0  0
 22 50  1  0  0  0  0
 23 43  1  0  0  0  0
 24 61  1  0  0  0  0
 25 26  2  0  0  0  0
 25 53  1  0  0  0  0
 26 73  1  0  0  0  0
 27 82  1  0  0  0  0
 28 83  1  0  0  0  0
 29 31  2  0  0  0  0
 29 82  1  0  0  0  0
 30 84  1  0  0  0  0
 31 85  1  0  0  0  0
 32 67  2  0  0  0  0
 33 68  1  0  0  0  0
 33 71  1  0  0  0  0
 34 36  2  0  0  0  0
 34 83  1  0  0  0  0
 35 72  1  0  0  0  0
 35 77  2  0  0  0  0
 36 54  1  0  0  0  0
 36 63  1  0  0  0  0
 37 51  1  0  0  0  0
 37 74  1  0  0  0  0
 37 78  2  0  0  0  0
 38 64  1  0  0  0  0
 38 69  1  0  0  0  0
 38 79  2  0  0  0  0
 39 65  1  0  0  0  0
 39 75  1  0  0  0  0
 39 80  2  0  0  0  0
 40 70  1  0  0  0  0
 40 73  1  0  0  0  0
 40 81  2  0  0  0  0
 41 44  1  0  0  0  0
 42 51  1  0  0  0  0
 43 69  1  0  0  0  0
 44 46  1  0  0  0  0
 45 47  1  0  0  0  0
 45 48  1  0  0  0  0
 46 50  1  0  0  0  0
 47 52  1  0  0  0  0
 48 70  1  0  0  0  0
 49 52  1  0  0  0  0
 49 70  1  0  0  0  0
 50 74  1  0  0  0  0
 51 69  1  0  0  0  0
 52 68  1  0  0  0  0
 55 63  1  0  0  0  0
 56 65  1  0  0  0  0
 57 66  1  0  0  0  0
 58 66  1  0  0  0  0
 59 66  1  0  0  0  0
 60 76  1  0  0  0  0
 61 62  1  0  0  0  0
 62 63  1  0  0  0  0
 64 66  1  0  0  0  0
 64 75  1  0  0  0  0
 65 76  1  0  0  0  0
 67 68  1  0  0  0  0
M  CHG  1  76   1
M  ISO  4  34 101  40 100  73 100  83 101
M  END
> <Batch ID>
0131

> <Smiles>
CNC(C)C(=O)NC(C(=O)N1Cc2cc([101O:1][101CH:1]=C(C)C(C)CCc3ccc([100NH:0][100C:0](=O)N4CCCC(n5nc(-c6ccc(Oc7ccc(F)cc7F)cc6)c(C(N)=O)c5N)C4)c(C)c3)ccc2CC1C(=O)NC1CCCc2ccccc21)C(C)(C)C

> <Shape>
0.280

> <Color>
0.072

> <Negative vol penalty>
0.000

$$$$

  -OEChem-04052302253D

 83 91  0     1  0  0  0  0  0999 V2000
  -28.7009  -19.9699   15.4819 C   0  0  0  0  0  0  0  0  0  0  0  0
  -28.8831  -18.7153   16.0526 C   0  0  0  0  0  0  0  0  0  0  0  0
  -25.6570  -27.9031   20.5312 C   0  0  0  0  0  0  0  0  0  0  0  0
  -27.4062  -29.2172   19.5062 C   0  0  0  0  0  0  0  0  0  0  0  0
  -27.6992  -20.8110   15.9621 C   0  0  0  0  0  0  0  0  0  0  0  0
  -28.0562  -18.2966   17.0955 C   0  0  0  0  0  0  0  0  0  0  0  0
  -28.5409  -13.6375   18.5993 C   0  0  0  0  0  0  0  0  0  0  0  0
  -25.0683  -29.0688   21.0212 C   0  0  0  0  0  0  0  0  0  0  0  0
  -26.8174  -30.3830   19.9962 C   0  0  0  0  0  0  0  0  0  0  0  0
  -29.6455  -13.1901   19.3228 C   0  0  0  0  0  0  0  0  0  0  0  0
  -23.3033  -31.6730   22.8451 C   0  0  0  0  0  0  0  0  0  0  0  0
  -22.8723  -31.6756   24.1716 C   0  0  0  0  0  0  0  0  0  0  0  0
  -28.3249  -13.2123   21.3413 C   0  0  0  0  0  0  0  0  0  0  0  0
  -31.1270  -16.0586   22.2245 C   0  0  0  0  0  0  0  0  0  0  0  0
  -25.1301  -31.2282   24.9060 C   0  0  0  0  0  0  0  0  0  0  0  0
  -33.2603  -16.4386   22.7548 C   0  0  0  0  0  0  0  0  0  0  0  0
  -26.8260  -27.9773   19.7738 C   0  0  0  0  0  0  0  0  0  0  0  0
  -27.1820  -26.1471   18.0327 C   0  0  0  0  0  0  0  0  0  0  0  0
  -26.8681  -20.4065   17.0197 C   0  0  0  0  0  0  0  0  0  0  0  0
  -27.3209  -13.8866   19.2444 C   0  0  0  0  0  0  0  0  0  0  0  0
  -27.0241  -19.1215   17.5781 C   0  0  0  0  0  0  0  0  0  0  0  0
  -27.2056  -13.6604   20.6234 C   0  0  0  0  0  0  0  0  0  0  0  0
  -32.3006  -15.4535   22.7343 C   0  0  0  0  0  0  0  0  0  0  0  0
  -25.6485  -30.3088   20.7537 C   0  0  0  0  0  0  0  0  0  0  0  0
  -29.5384  -12.9802   20.6945 C   0  0  0  0  0  0  0  0  0  0  0  0
  -24.6477  -31.4480   22.5489 C   0  0  0  0  0  0  0  0  0  0  0  0
  -23.7857  -31.4532   25.2021 C   0  0  0  0  0  0  0  0  0  0  0  0
  -25.5611  -31.2256   23.5794 C   0  0  0  0  0  0  0  0  0  0  0  0
  -27.4349  -26.7734   19.2678 C   0  0  0  0  0  0  0  0  0  0  0  0
  -31.4532  -17.3704   21.9702 C   0  0  0  0  0  0  0  0  0  0  0  0
  -28.0065  -25.0487   18.0295 C   0  0  0  0  0  0  0  0  0  0  0  0
  -30.6088  -18.3784   21.4503 C   0  0  0  0  0  0  0  0  0  0  0  0
  -30.9512  -19.6813   21.1801 C   0  0  0  0  0  0  0  0  0  0  0  0
  -26.2822  -26.5246   16.9822 C   0  0  0  0  0  0  0  0  0  0  0  0
  -29.9522  -20.6173   20.6261 C   0  0  0  0  0  0  0  0  0  0  0  0
  -25.4922  -16.4511   19.6722 C   0  0  0  0  0  0  0  0  0  0  0  0
  -23.4510  -14.2960   20.9804 C   0  0  0  0  0  0  0  0  0  0  0  0
  -23.0134  -11.2704   22.4973 C   0  0  0  0  0  0  0  0  0  0  0  0
  -25.7947  -21.3536   17.4950 C   0  0  0  0  0  0  0  0  0  0  0  0
  -26.1313  -14.3434   18.4453 C   0  0  0  0  0  0  0  0  0  0  0  0
  -25.9126  -13.8934   21.3598 C   0  0  0  0  0  0  0  0  0  0  0  0
  -25.2661  -21.0050   18.8826 C   0  0  0  0  0  0  0  0  0  0  0  0
  -31.7954  -23.7503   21.0937 C   0  0  0  0  0  0  0  0  0  0  0  0
  -24.9115  -19.5270   18.9475 C   0  0  0  0  0  0  0  0  0  0  0  0
  -30.7729  -24.7693   20.5978 C   0  0  0  0  0  0  0  0  0  0  0  0
  -31.1291  -22.5626   21.7866 C   0  0  0  0  0  0  0  0  0  0  0  0
  -29.0678  -22.9111   20.4562 C   0  0  0  0  0  0  0  0  0  0  0  0
  -26.1565  -18.6568   18.7339 C   0  0  1  0  0  0  0  0  0  0  0  0
  -25.0814  -15.0568   19.2915 C   0  0  1  0  0  0  0  0  0  0  0  0
  -29.7135  -24.0918   19.7142 C   0  0  1  0  0  0  0  0  0  0  0  0
  -33.5863  -10.4736   21.8189 C   0  0  0  0  0  0  0  0  0  0  0  0
  -21.2351   -9.8005   23.4844 C   0  0  0  0  0  0  0  0  0  0  0  0
  -23.3608  -16.0736   23.4587 C   0  0  0  0  0  0  0  0  0  0  0  0
  -22.3789  -14.1465   24.7198 C   0  0  0  0  0  0  0  0  0  0  0  0
  -21.1515  -15.1194   22.7783 C   0  0  0  0  0  0  0  0  0  0  0  0
  -34.3068  -13.3955   21.5072 C   0  0  0  0  0  0  0  0  0  0  0  0
  -23.5556   -9.1091   20.5496 C   0  0  0  0  0  0  0  0  0  0  0  0
  -32.4679  -14.0148   23.1691 C   0  0  0  0  0  0  0  0  0  0  0  0
  -33.1206  -11.5907   22.7456 C   0  0  0  0  0  0  0  0  0  0  0  0
  -31.9048  -12.9255   20.9256 C   0  0  0  0  0  0  0  0  0  1  0  0
  -23.2286  -13.7384   22.3655 C   0  0  1  0  0  0  0  0  0  0  0  0
  -22.0297  -10.1446   22.2342 C   0  0  2  0  0  0  0  0  0  0  0  0
  -22.5550  -14.7668   23.3173 C   0  0  0  0  0  0  0  0  0  0  0  0
  -32.9289  -12.9927   22.0837 C   0  0  2  0  0  0  0  0  0  0  0  0
  -28.3486  -26.1265   19.9964 N   0  0  0  0  0  0  0  0  0  0  0  0
  -28.6768  -25.0823   19.2168 N   0  0  0  0  0  0  0  0  0  0  0  0
  -30.0797  -21.9680   20.9452 N   0  0  0  0  0  0  0  0  0  0  0  0
  -24.7797  -14.3459   20.5356 N   0  0  0  0  0  0  0  0  0  0  0  0
  -28.2162  -24.0669   17.1269 N   0  0  0  0  0  0  0  0  0  0  0  0
  -25.5091  -27.6817   17.1482 N   0  0  0  0  0  0  0  0  0  0  0  0
  -25.7491  -17.2761   18.5938 N   0  0  0  0  0  0  0  0  0  0  0  0
  -22.4740  -12.5019   22.1914 N   0  0  0  0  0  0  0  0  0  0  0  0
  -22.7513   -8.9207   21.7844 N   0  3  0  0  0  0  0  0  0  0  0  0
  -26.1552  -25.8465   15.9345 O   0  0  0  0  0  0  0  0  0  0  0  0
  -29.0616  -20.1446   19.9175 O   0  0  0  0  0  0  0  0  0  0  0  0
  -25.5690  -16.7562   20.8565 O   0  0  0  0  0  0  0  0  0  0  0  0
  -22.4809  -14.6669   20.3148 O   0  0  0  0  0  0  0  0  0  0  0  0
  -24.1458  -11.0770   22.9343 O   0  0  0  0  0  0  0  0  0  0  0  0
  -32.7518  -17.6102   22.2908 O   0  0  0  0  0  0  0  0  0  0  0  0
  -25.0742  -31.4465   21.2314 O   0  0  0  0  0  0  0  0  0  0  0  0
  -30.6153  -12.5441   21.4031 O   0  0  0  0  0  0  0  0  0  1  0  0
  -23.3720  -31.4572   26.4761 F   0  0  0  0  0  0  0  0  0  0  0  0
  -26.8541  -31.0100   23.3012 F   0  0  0  0  0  0  0  0  0  0  0  0
  1  2  1  0  0  0  0
  1  5  2  0  0  0  0
  2  6  2  0  0  0  0
  3  8  2  0  0  0  0
  3 17  1  0  0  0  0
  4  9  1  0  0  0  0
  4 17  2  0  0  0  0
  5 19  1  0  0  0  0
  6 21  1  0  0  0  0
  7 10  2  0  0  0  0
  7 20  1  0  0  0  0
  8 24  1  0  0  0  0
  9 24  2  0  0  0  0
 10 25  1  0  0  0  0
 11 12  2  0  0  0  0
 11 26  1  0  0  0  0
 12 27  1  0  0  0  0
 13 22  1  0  0  0  0
 13 25  2  0  0  0  0
 14 23  1  0  0  0  0
 14 30  2  0  0  0  0
 15 27  2  0  0  0  0
 15 28  1  0  0  0  0
 16 23  2  0  0  0  0
 16 79  1  0  0  0  0
 17 29  1  0  0  0  0
 18 29  1  0  0  0  0
 18 31  2  0  0  0  0
 18 34  1  0  0  0  0
 19 21  2  0  0  0  0
 19 39  1  0  0  0  0
 20 22  2  0  0  0  0
 20 40  1  0  0  0  0
 21 48  1  0  0  0  0
 22 41  1  0  0  0  0
 23 58  1  0  0  0  0
 24 80  1  0  0  0  0
 25 81  1  0  0  0  0
 26 28  2  0  0  0  0
 26 80  1  0  0  0  0
 27 82  1  0  0  0  0
 28 83  1  0  0  0  0
 29 65  2  0  0  0  0
 30 32  1  0  0  0  0
 30 79  1  0  0  0  0
 31 66  1  0  0  0  0
 31 69  1  0  0  0  0
 32 33  2  0  0  0  0
 33 35  1  0  0  0  0
 34 70  1  0  0  0  0
 34 74  2  0  0  0  0
 35 67  1  0  0  0  0
 35 75  2  0  0  0  0
 36 49  1  0  0  0  0
 36 71  1  0  0  0  0
 36 76  2  0  0  0  0
 37 61  1  0  0  0  0
 37 68  1  0  0  0  0
 37 77  2  0  0  0  0
 38 62  1  0  0  0  0
 38 72  1  0  0  0  0
 38 78  2  0  0  0  0
 39 42  1  0  0  0  0
 40 49  1  0  0  0  0
 41 68  1  0  0  0  0
 42 44  1  0  0  0  0
 43 45  1  0  0  0  0
 43 46  1  0  0  0  0
 44 48  1  0  0  0  0
 45 50  1  0  0  0  0
 46 67  1  0  0  0  0
 47 50  1  0  0  0  0
 47 67  1  0  0  0  0
 48 71  1  0  0  0  0
 49 68  1  0  0  0  0
 50 66  1  0  0  0  0
 51 59  1  0  0  0  0
 52 62  1  0  0  0  0
 53 63  1  0  0  0  0
 54 63  1  0  0  0  0
 55 63  1  0  0  0  0
 56 64  1  0  0  0  0
 57 73  1  0  0  0  0
 58 64  1  0  0  0  0
 59 64  1  0  0  0  0
 60 64  1  0  0  0  0
 60 81  1  0  0  0  0
 61 63  1  0  0  0  0
 61 72  1  0  0  0  0
 62 73  1  0  0  0  0
 65 66  1  0  0  0  0
M  CHG  1  73   1
M  ISO  4  33 100  35 100  60 101  81 101
M  END
> <Batch ID>
0131

> <Smiles>
CCC(C)(Cc1coc(C=[100CH:0][100C:0](=O)N2CCCC(n3nc(-c4ccc(Oc5ccc(F)cc5F)cc4)c(C(N)=O)c3N)C2)c1)[101CH2:1][101O:1]c1ccc2c(c1)CN(C(=O)C(NC(=O)C(C)NC)C(C)(C)C)C(C(=O)NC1CCCc3ccccc31)C2

> <Shape>
0.249

> <Color>
0.079

> <Negative vol penalty>
0.000

$$$$

  -OEChem-04052302253D

 86 94  0     1  0  0  0  0  0999 V2000
  -25.6754  -37.6851   18.0470 C   0  0  0  0  0  0  0  0  0  0  0  0
  -26.2745  -36.4444   17.8538 C   0  0  0  0  0  0  0  0  0  0  0  0
  -23.8283   -9.6812   22.3068 C   0  0  0  0  0  0  0  0  0  0  0  0
  -23.8727   -9.2698   19.9265 C   0  0  0  0  0  0  0  0  0  0  0  0
  -25.2255  -38.0507   19.3150 C   0  0  0  0  0  0  0  0  0  0  0  0
  -26.4250  -35.5691   18.9288 C   0  0  0  0  0  0  0  0  0  0  0  0
  -26.0974  -29.4557   18.7721 C   0  0  0  0  0  0  0  0  0  0  0  0
  -25.3526  -23.9516   21.8262 C   0  0  0  0  0  0  0  0  0  0  0  0
  -24.6609  -23.4085   22.9088 C   0  0  0  0  0  0  0  0  0  0  0  0
  -22.8579   -8.6911   22.4599 C   0  0  0  0  0  0  0  0  0  0  0  0
  -22.9023   -8.2795   20.0796 C   0  0  0  0  0  0  0  0  0  0  0  0
  -27.0769  -28.4649   18.7194 C   0  0  0  0  0  0  0  0  0  0  0  0
  -22.7432   -5.3141   22.5868 C   0  0  0  0  0  0  0  0  0  0  0  0
  -22.9044   -4.4046   23.6319 C   0  0  0  0  0  0  0  0  0  0  0  0
  -25.9590  -21.7289   21.0986 C   0  0  0  0  0  0  0  0  0  0  0  0
  -26.9581  -28.2284   21.1172 C   0  0  0  0  0  0  0  0  0  0  0  0
  -20.7934   -5.1102   24.5715 C   0  0  0  0  0  0  0  0  0  0  0  0
  -24.3357   -9.9706   21.0401 C   0  0  0  0  0  0  0  0  0  0  0  0
  -25.2673  -21.1859   22.1814 C   0  0  0  0  0  0  0  0  0  0  0  0
  -26.7350  -10.8308   20.9352 C   0  0  0  0  0  0  0  0  0  0  0  0
  -25.3618  -37.1755   20.4041 C   0  0  0  0  0  0  0  0  0  0  0  0
  -25.5478  -29.8486   20.0010 C   0  0  0  0  0  0  0  0  0  0  0  0
  -25.9777  -35.9239   20.2128 C   0  0  0  0  0  0  0  0  0  0  0  0
  -25.9700  -29.2226   21.1825 C   0  0  0  0  0  0  0  0  0  0  0  0
  -26.0017  -23.1118   20.9210 C   0  0  0  0  0  0  0  0  0  0  0  0
  -24.6182  -22.0257   23.0864 C   0  0  0  0  0  0  0  0  0  0  0  0
  -22.3949   -7.9902   21.3463 C   0  0  0  0  0  0  0  0  0  0  0  0
  -27.5095  -27.8531   19.8923 C   0  0  0  0  0  0  0  0  0  0  0  0
  -21.6071   -6.1218   22.5340 C   0  0  0  0  0  0  0  0  0  0  0  0
  -21.9295   -4.3026   24.6243 C   0  0  0  0  0  0  0  0  0  0  0  0
  -20.6322   -6.0198   23.5264 C   0  0  0  0  0  0  0  0  0  0  0  0
  -25.3377  -10.9937   20.8812 C   0  0  0  0  0  0  0  0  0  0  0  0
  -27.2361  -12.0924   20.7256 C   0  0  0  0  0  0  0  0  0  0  0  0
  -25.2412  -19.7376   22.3401 C   0  0  0  0  0  0  0  0  0  0  0  0
  -24.7605  -18.8616   21.4345 C   0  0  0  0  0  0  0  0  0  0  0  0
  -27.5106   -9.6452   21.1551 C   0  0  0  0  0  0  0  0  0  0  0  0
  -24.8136  -17.4176   21.7388 C   0  0  0  0  0  0  0  0  0  0  0  0
  -25.4630  -32.5614   21.6554 C   0  0  0  0  0  0  0  0  0  0  0  0
  -23.4967  -30.8615   23.5961 C   0  0  0  0  0  0  0  0  0  0  0  0
  -22.4796  -27.8092   24.7347 C   0  0  0  0  0  0  0  0  0  0  0  0
  -24.9029  -37.6340   21.7656 C   0  0  0  0  0  0  0  0  0  0  0  0
  -24.4729  -30.9000   20.0381 C   0  0  0  0  0  0  0  0  0  0  0  0
  -25.3971  -29.5939   22.5250 C   0  0  0  0  0  0  0  0  0  0  0  0
  -24.7614  -36.4978   22.7752 C   0  0  0  0  0  0  0  0  0  0  0  0
  -26.2206  -16.2256   18.5716 C   0  0  0  0  0  0  0  0  0  0  0  0
  -25.9845  -35.5874   22.7292 C   0  0  0  0  0  0  0  0  0  0  0  0
  -26.2331  -14.7173   18.8050 C   0  0  0  0  0  0  0  0  0  0  0  0
  -25.0278  -16.8991   19.2486 C   0  0  0  0  0  0  0  0  0  0  0  0
  -24.9343  -15.0898   20.9391 C   0  0  0  0  0  0  0  0  0  0  0  0
  -26.1365  -34.9370   21.3489 C   0  0  1  0  0  0  0  0  0  0  0  0
  -24.3521  -31.5833   21.3968 C   0  0  1  0  0  0  0  0  0  0  0  0
  -26.1518  -14.3981   20.3062 C   0  0  1  0  0  0  0  0  0  0  0  0
  -23.8692  -21.4788   24.2590 C   0  0  0  0  0  0  0  0  0  0  0  0
  -29.7547  -22.4808   17.8254 C   0  0  0  0  0  0  0  0  0  0  0  0
  -20.8807  -26.7409   26.3469 C   0  0  0  0  0  0  0  0  0  0  0  0
  -25.3217  -31.6360   25.9154 C   0  0  0  0  0  0  0  0  0  0  0  0
  -24.2589  -29.8169   27.2679 C   0  0  0  0  0  0  0  0  0  0  0  0
  -22.8775  -31.7209   26.4379 C   0  0  0  0  0  0  0  0  0  0  0  0
  -21.0700  -26.3727   22.5648 C   0  0  0  0  0  0  0  0  0  0  0  0
  -26.7496  -23.7005   19.7503 C   0  0  0  0  0  0  0  0  0  0  0  0
  -29.1122  -23.8561   17.6809 C   0  0  0  0  0  0  0  0  0  0  0  0
  -28.2122  -23.9836   20.1062 C   0  0  0  0  0  0  0  0  0  0  0  0
  -28.5235  -26.0885   18.6620 C   0  0  0  0  0  0  0  0  0  1  0  0
  -23.6903  -29.9735   24.8015 C   0  0  1  0  0  0  0  0  0  0  0  0
  -21.0959  -27.2121   24.9171 C   0  0  2  0  0  0  0  0  0  0  0  0
  -24.0495  -30.7810   26.0807 C   0  0  0  0  0  0  0  0  0  0  0  0
  -29.0319  -24.6721   18.9900 C   0  0  2  0  0  0  0  0  0  0  0  0
  -24.9745  -12.2590   20.6552 N   0  0  0  0  0  0  0  0  0  0  0  0
  -26.1508  -12.9027   20.5654 N   0  0  0  0  0  0  0  0  0  0  0  0
  -24.9377  -16.5320   20.6698 N   0  0  0  0  0  0  0  0  0  0  0  0
  -24.3531  -30.6319   22.5100 N   0  0  0  0  0  0  0  0  0  0  0  0
  -28.4948  -12.5765   20.6647 N   0  0  0  0  0  0  0  0  0  0  0  0
  -26.8361   -8.4327   21.3529 N   0  0  0  0  0  0  0  0  0  0  0  0
  -25.2035  -33.8404   21.2015 N   0  0  0  0  0  0  0  0  0  0  0  0
  -22.4748  -29.1756   24.9202 N   0  0  0  0  0  0  0  0  0  0  0  0
  -20.9098  -26.0479   24.0056 N   0  3  0  0  0  0  0  0  0  0  0  0
  -28.7643   -9.6634   21.1919 O   0  0  0  0  0  0  0  0  0  0  0  0
  -24.7400  -17.0828   22.9226 O   0  0  0  0  0  0  0  0  0  0  0  0
  -26.4797  -32.1839   22.2260 O   0  0  0  0  0  0  0  0  0  0  0  0
  -22.6132  -31.7221   23.6146 O   0  0  0  0  0  0  0  0  0  0  0  0
  -23.4668  -27.1309   24.4590 O   0  0  0  0  0  0  0  0  0  0  0  0
  -30.3753  -24.8096   19.4806 O   0  0  0  0  0  0  0  0  0  0  0  0
  -21.4482   -7.0238   21.4954 O   0  0  0  0  0  0  0  0  0  0  0  0
  -28.4658  -26.8862   19.8438 O   0  0  0  0  0  0  0  0  0  1  0  0
  -22.0837   -3.4280   25.6270 F   0  0  0  0  0  0  0  0  0  0  0  0
  -19.5381   -6.7922   23.4805 F   0  0  0  0  0  0  0  0  0  0  0  0
  1  2  1  0  0  0  0
  1  5  2  0  0  0  0
  2  6  2  0  0  0  0
  3 10  2  0  0  0  0
  3 18  1  0  0  0  0
  4 11  1  0  0  0  0
  4 18  2  0  0  0  0
  5 21  1  0  0  0  0
  6 23  1  0  0  0  0
  7 12  2  0  0  0  0
  7 22  1  0  0  0  0
  8  9  2  0  0  0  0
  8 25  1  0  0  0  0
  9 26  1  0  0  0  0
 10 27  1  0  0  0  0
 11 27  2  0  0  0  0
 12 28  1  0  0  0  0
 13 14  2  0  0  0  0
 13 29  1  0  0  0  0
 14 30  1  0  0  0  0
 15 19  1  0  0  0  0
 15 25  2  0  0  0  0
 16 24  1  0  0  0  0
 16 28  2  0  0  0  0
 17 30  2  0  0  0  0
 17 31  1  0  0  0  0
 18 32  1  0  0  0  0
 19 26  2  0  0  0  0
 19 34  1  0  0  0  0
 20 32  1  0  0  0  0
 20 33  2  0  0  0  0
 20 36  1  0  0  0  0
 21 23  2  0  0  0  0
 21 41  1  0  0  0  0
 22 24  2  0  0  0  0
 22 42  1  0  0  0  0
 23 50  1  0  0  0  0
 24 43  1  0  0  0  0
 25 60  1  0  0  0  0
 26 53  1  0  0  0  0
 27 83  1  0  0  0  0
 28 84  1  0  0  0  0
 29 31  2  0  0  0  0
 29 83  1  0  0  0  0
 30 85  1  0  0  0  0
 31 86  1  0  0  0  0
 32 68  2  0  0  0  0
 33 69  1  0  0  0  0
 33 72  1  0  0  0  0
 34 35  2  0  0  0  0
 35 37  1  0  0  0  0
 36 73  1  0  0  0  0
 36 77  2  0  0  0  0
 37 70  1  0  0  0  0
 37 78  2  0  0  0  0
 38 51  1  0  0  0  0
 38 74  1  0  0  0  0
 38 79  2  0  0  0  0
 39 64  1  0  0  0  0
 39 71  1  0  0  0  0
 39 80  2  0  0  0  0
 40 65  1  0  0  0  0
 40 75  1  0  0  0  0
 40 81  2  0  0  0  0
 41 44  1  0  0  0  0
 42 51  1  0  0  0  0
 43 71  1  0  0  0  0
 44 46  1  0  0  0  0
 45 47  1  0  0  0  0
 45 48  1  0  0  0  0
 46 50  1  0  0  0  0
 47 52  1  0  0  0  0
 48 70  1  0  0  0  0
 49 52  1  0  0  0  0
 49 70  1  0  0  0  0
 50 74  1  0  0  0  0
 51 71  1  0  0  0  0
 52 69  1  0  0  0  0
 54 61  1  0  0  0  0
 55 65  1  0  0  0  0
 56 66  1  0  0  0  0
 57 66  1  0  0  0  0
 58 66  1  0  0  0  0
 59 76  1  0  0  0  0
 60 62  1  0  0  0  0
 61 67  1  0  0  0  0
 62 67  1  0  0  0  0
 63 67  1  0  0  0  0
 63 84  1  0  0  0  0
 64 66  1  0  0  0  0
 64 75  1  0  0  0  0
 65 76  1  0  0  0  0
 67 82  1  0  0  0  0
 68 69  1  0  0  0  0
M  CHG  1  76   1
M  ISO  4  35 100  37 100  63 101  84 101
M  END
> <Batch ID>
0131

> <Smiles>
CCC(O)(CCc1ccc(C)c(C=[100CH:0][100C:0](=O)N2CCCC(n3nc(-c4ccc(Oc5ccc(F)cc5F)cc4)c(C(N)=O)c3N)C2)c1)[101CH2:1][101O:1]c1ccc2c(c1)CN(C(=O)C(NC(=O)C(C)NC)C(C)(C)C)C(C(=O)NC1CCCc3ccccc31)C2

> <Shape>
0.255

> <Color>
0.136

> <Negative vol penalty>
0.000

$$$$

  -OEChem-04052302253D

 87 95  0     1  0  0  0  0  0999 V2000
  -18.8688  -24.4046   20.6702 C   0  0  0  0  0  0  0  0  0  0  0  0
  -20.0735  -24.8542   20.1391 C   0  0  0  0  0  0  0  0  0  0  0  0
  -24.1800  -13.6446   20.0251 C   0  0  0  0  0  0  0  0  0  0  0  0
  -26.2271  -13.7268   21.3056 C   0  0  0  0  0  0  0  0  0  0  0  0
  -18.3427  -25.0088   21.8113 C   0  0  0  0  0  0  0  0  0  0  0  0
  -20.7521  -25.9092   20.7482 C   0  0  0  0  0  0  0  0  0  0  0  0
  -25.7198  -25.0285   21.1861 C   0  0  0  0  0  0  0  0  0  0  0  0
  -24.2312  -12.2507   20.0328 C   0  0  0  0  0  0  0  0  0  0  0  0
  -26.2783  -12.3329   21.3133 C   0  0  0  0  0  0  0  0  0  0  0  0
  -26.4995  -25.1966   20.0426 C   0  0  0  0  0  0  0  0  0  0  0  0
  -23.6298   -8.6656   20.0242 C   0  0  0  0  0  0  0  0  0  0  0  0
  -22.4507   -7.9748   20.3039 C   0  0  0  0  0  0  0  0  0  0  0  0
  -27.1895  -27.3664   20.8395 C   0  0  0  0  0  0  0  0  0  0  0  0
  -30.7410  -22.6997   22.0014 C   0  0  0  0  0  0  0  0  0  0  0  0
  -31.1333  -22.9642   19.2521 C   0  0  0  0  0  0  0  0  0  0  0  0
  -22.3323   -9.0513   22.4636 C   0  0  0  0  0  0  0  0  0  0  0  0
  -25.1780  -14.3827   20.6615 C   0  0  0  0  0  0  0  0  0  0  0  0
  -24.5006  -16.6559   21.6001 C   0  0  0  0  0  0  0  0  0  0  0  0
  -19.0200  -26.0653   22.4402 C   0  0  0  0  0  0  0  0  0  0  0  0
  -25.6604  -26.0344   22.1614 C   0  0  0  0  0  0  0  0  0  0  0  0
  -20.2338  -26.5289   21.8979 C   0  0  0  0  0  0  0  0  0  0  0  0
  -26.4103  -27.2075   21.9957 C   0  0  0  0  0  0  0  0  0  0  0  0
  -30.8277  -21.5636   21.1968 C   0  0  0  0  0  0  0  0  0  0  0  0
  -30.8503  -23.9681   21.4313 C   0  0  0  0  0  0  0  0  0  0  0  0
  -31.0239  -21.6958   19.8222 C   0  0  0  0  0  0  0  0  0  0  0  0
  -25.2803  -11.5949   20.6769 C   0  0  0  0  0  0  0  0  0  0  0  0
  -27.2322  -26.3669   19.8678 C   0  0  0  0  0  0  0  0  0  0  0  0
  -24.1602   -9.5491   20.9643 C   0  0  0  0  0  0  0  0  0  0  0  0
  -31.0465  -24.1003   20.0567 C   0  0  0  0  0  0  0  0  0  0  0  0
  -21.8020   -8.1677   21.5236 C   0  0  0  0  0  0  0  0  0  0  0  0
  -23.5115   -9.7420   22.1839 C   0  0  0  0  0  0  0  0  0  0  0  0
  -25.1260  -15.8226   20.6534 C   0  0  0  0  0  0  0  0  0  0  0  0
  -24.7355  -17.9301   21.1442 C   0  0  0  0  0  0  0  0  0  0  0  0
  -23.7724  -16.3093   22.7855 C   0  0  0  0  0  0  0  0  0  0  0  0
  -23.3541  -27.8657   23.3574 C   0  0  0  0  0  0  0  0  0  0  0  0
  -25.6956  -28.8106   25.3938 C   0  0  0  0  0  0  0  0  0  0  0  0
  -29.0341  -29.1720   26.0025 C   0  0  0  0  0  0  0  0  0  0  0  0
  -28.9984  -20.2957   17.6682 C   0  0  0  0  0  0  0  0  0  0  0  0
  -18.3883  -26.7181   23.6442 C   0  0  0  0  0  0  0  0  0  0  0  0
  -24.8356  -25.8264   23.4019 C   0  0  0  0  0  0  0  0  0  0  0  0
  -26.3967  -28.3091   23.0227 C   0  0  0  0  0  0  0  0  0  0  0  0
  -19.3571  -27.5831   24.4464 C   0  0  0  0  0  0  0  0  0  0  0  0
  -25.4838  -20.3835   17.1054 C   0  0  0  0  0  0  0  0  0  0  0  0
  -20.1642  -28.4836   23.5167 C   0  0  0  0  0  0  0  0  0  0  0  0
  -24.9371  -19.2997   18.0363 C   0  0  0  0  0  0  0  0  0  0  0  0
  -26.8318  -19.9866   16.5076 C   0  0  0  0  0  0  0  0  0  0  0  0
  -27.3101  -18.5145   18.4255 C   0  0  0  0  0  0  0  0  0  0  0  0
  -21.0120  -27.6544   22.5445 C   0  0  1  0  0  0  0  0  0  0  0  0
  -24.4450  -27.1329   24.0858 C   0  0  1  0  0  0  0  0  0  0  0  0
  -25.9786  -18.8934   19.0963 C   0  0  2  0  0  0  0  0  0  0  0  0
  -30.7062  -20.2159   21.8288 C   0  0  0  0  0  0  0  0  0  0  0  0
  -32.1213  -25.7963   22.5841 C   0  0  0  0  0  0  0  0  0  0  0  0
  -29.3418  -28.4181   16.0032 C   0  0  0  0  0  0  0  0  0  0  0  0
  -30.6406  -30.0089   27.7392 C   0  0  0  0  0  0  0  0  0  0  0  0
  -25.0567  -31.6855   24.5958 C   0  0  0  0  0  0  0  0  0  0  0  0
  -27.2493  -32.3747   25.5887 C   0  0  0  0  0  0  0  0  0  0  0  0
  -25.4932  -31.3526   27.0357 C   0  0  0  0  0  0  0  0  0  0  0  0
  -30.2691  -26.5006   26.3144 C   0  0  0  0  0  0  0  0  0  0  0  0
  -30.7561  -25.1733   22.3077 C   0  0  0  0  0  0  0  0  0  0  0  0
  -31.1200  -20.4944   18.9403 C   0  0  0  0  0  0  0  0  0  0  0  0
  -29.7670  -27.0128   16.4047 C   0  0  0  0  0  0  0  0  0  0  0  0
  -29.1646  -27.3393   18.8798 C   0  0  0  0  0  0  0  0  0  1  0  0
  -30.7039  -25.4625   18.1376 C   0  0  0  0  0  0  0  0  0  0  0  0
  -26.7428  -29.8979   25.3882 C   0  0  1  0  0  0  0  0  0  0  0  0
  -29.8846  -28.8025   27.2043 C   0  0  2  0  0  0  0  0  0  0  0  0
  -30.2378  -26.9029   17.8685 C   0  0  1  0  0  0  0  0  0  0  0  0
  -26.1345  -31.3079   25.6316 C   0  0  0  0  0  0  0  0  0  0  0  0
  -25.7139  -16.5095   19.6703 N   0  0  0  0  0  0  0  0  0  0  0  0
  -25.4589  -17.7880   19.9967 N   0  0  0  0  0  0  0  0  0  0  0  0
  -25.5700  -28.0613   24.2155 N   0  0  0  0  0  0  0  0  0  0  0  0
  -27.7744  -19.6143   17.5653 N   0  0  0  0  0  0  0  0  0  0  0  0
  -24.3917  -19.1470   21.6169 N   0  0  0  0  0  0  0  0  0  0  0  0
  -23.6252  -14.9530   23.1066 N   0  0  0  0  0  0  0  0  0  0  0  0
  -22.1879  -27.1388   23.2123 N   0  0  0  0  0  0  0  0  0  0  0  0
  -27.7469  -29.5027   26.3700 N   0  0  0  0  0  0  0  0  0  0  0  0
  -29.8306  -19.8848   18.7022 N   0  0  0  0  0  0  0  0  0  0  0  0
  -30.8758  -27.7529   26.8345 N   0  3  0  0  0  0  0  0  0  0  0  0
  -23.2532  -17.1760   23.5290 O   0  0  0  0  0  0  0  0  0  0  0  0
  -23.5549  -29.0067   22.9581 O   0  0  0  0  0  0  0  0  0  0  0  0
  -25.0189  -28.6280   26.4089 O   0  0  0  0  0  0  0  0  0  0  0  0
  -29.4691  -29.1711   24.8530 O   0  0  0  0  0  0  0  0  0  0  0  0
  -29.3230  -21.2067   16.8990 O   0  0  0  0  0  0  0  0  0  0  0  0
  -25.3305  -10.2347   20.6848 O   0  0  0  0  0  0  0  0  0  0  0  0
  -27.9935  -26.5339   18.7523 O   0  0  0  0  0  0  0  0  0  1  0  0
  -31.1547  -25.3389   19.4802 O   0  0  0  0  0  0  0  0  0  0  0  0
  -20.6688   -7.5055   21.7914 F   0  0  0  0  0  0  0  0  0  0  0  0
  -24.0156  -10.5905   23.0905 F   0  0  0  0  0  0  0  0  0  0  0  0
  1  2  1  0  0  0  0
  1  5  2  0  0  0  0
  2  6  2  0  0  0  0
  3  8  2  0  0  0  0
  3 17  1  0  0  0  0
  4  9  1  0  0  0  0
  4 17  2  0  0  0  0
  5 19  1  0  0  0  0
  6 21  1  0  0  0  0
  7 10  2  0  0  0  0
  7 20  1  0  0  0  0
  8 26  1  0  0  0  0
  9 26  2  0  0  0  0
 10 27  1  0  0  0  0
 11 12  2  0  0  0  0
 11 28  1  0  0  0  0
 12 30  1  0  0  0  0
 13 22  1  0  0  0  0
 13 27  2  0  0  0  0
 14 23  2  0  0  0  0
 14 24  1  0  0  0  0
 15 25  2  0  0  0  0
 15 29  1  0  0  0  0
 16 30  2  0  0  0  0
 16 31  1  0  0  0  0
 17 32  1  0  0  0  0
 18 32  1  0  0  0  0
 18 33  2  0  0  0  0
 18 34  1  0  0  0  0
 19 21  2  0  0  0  0
 19 39  1  0  0  0  0
 20 22  2  0  0  0  0
 20 40  1  0  0  0  0
 21 48  1  0  0  0  0
 22 41  1  0  0  0  0
 23 25  1  0  0  0  0
 23 51  1  0  0  0  0
 24 29  2  0  0  0  0
 24 59  1  0  0  0  0
 25 60  1  0  0  0  0
 26 83  1  0  0  0  0
 27 84  1  0  0  0  0
 28 31  2  0  0  0  0
 28 83  1  0  0  0  0
 29 85  1  0  0  0  0
 30 86  1  0  0  0  0
 31 87  1  0  0  0  0
 32 68  2  0  0  0  0
 33 69  1  0  0  0  0
 33 72  1  0  0  0  0
 34 73  1  0  0  0  0
 34 78  2  0  0  0  0
 35 49  1  0  0  0  0
 35 74  1  0  0  0  0
 35 79  2  0  0  0  0
 36 64  1  0  0  0  0
 36 70  1  0  0  0  0
 36 80  2  0  0  0  0
 37 65  1  0  0  0  0
 37 75  1  0  0  0  0
 37 81  2  0  0  0  0
 38 71  1  0  0  0  0
 38 76  1  0  0  0  0
 38 82  2  0  0  0  0
 39 42  1  0  0  0  0
 40 49  1  0  0  0  0
 41 70  1  0  0  0  0
 42 44  1  0  0  0  0
 43 45  1  0  0  0  0
 43 46  1  0  0  0  0
 44 48  1  0  0  0  0
 45 50  1  0  0  0  0
 46 71  1  0  0  0  0
 47 50  1  0  0  0  0
 47 71  1  0  0  0  0
 48 74  1  0  0  0  0
 49 70  1  0  0  0  0
 50 69  1  0  0  0  0
 52 59  1  0  0  0  0
 53 61  1  0  0  0  0
 54 65  1  0  0  0  0
 55 67  1  0  0  0  0
 56 67  1  0  0  0  0
 57 67  1  0  0  0  0
 58 77  1  0  0  0  0
 60 76  1  0  0  0  0
 61 66  1  0  0  0  0
 62 66  1  0  0  0  0
 62 84  1  0  0  0  0
 63 66  1  0  0  0  0
 63 85  1  0  0  0  0
 64 67  1  0  0  0  0
 64 75  1  0  0  0  0
 65 77  1  0  0  0  0
 68 69  1  0  0  0  0
M  CHG  1  77   1
M  ISO  4  38 100  62 101  76 100  84 101
M  END
> <Batch ID>
0131

> <Smiles>
CCc1cc(C)c(C[100NH:0][100C:0](=O)N2CCCC(n3nc(-c4ccc(Oc5ccc(F)cc5F)cc4)c(C(N)=O)c3N)C2)cc1OCC(CC)[101CH2:1][101O:1]c1ccc2c(c1)CN(C(=O)C(NC(=O)C(C)NC)C(C)(C)C)C(C(=O)NC1CCCc3ccccc31)C2

> <Shape>
0.224

> <Color>
0.094

> <Negative vol penalty>
0.000

$$$$

  -OEChem-04052302253D

 83 91  0     1  0  0  0  0  0999 V2000
  -23.6199   -8.1590   21.4475 C   0  0  0  0  0  0  0  0  0  0  0  0
  -24.3827   -9.2329   20.9998 C   0  0  0  0  0  0  0  0  0  0  0  0
  -33.6436  -22.9679   18.4814 C   0  0  0  0  0  0  0  0  0  0  0  0
  -22.9389  -30.9083   22.3127 C   0  0  0  0  0  0  0  0  0  0  0  0
  -22.4319  -30.0135   24.4988 C   0  0  0  0  0  0  0  0  0  0  0  0
  -33.3069  -21.6379   18.7329 C   0  0  0  0  0  0  0  0  0  0  0  0
  -32.7387  -23.9856   18.7835 C   0  0  0  0  0  0  0  0  0  0  0  0
  -22.2604   -8.3304   21.7049 C   0  0  0  0  0  0  0  0  0  0  0  0
  -23.7861  -10.4786   20.8083 C   0  0  0  0  0  0  0  0  0  0  0  0
  -26.5662  -14.2730   22.6841 C   0  0  0  0  0  0  0  0  0  0  0  0
  -21.5836  -31.1618   22.1020 C   0  0  0  0  0  0  0  0  0  0  0  0
  -21.0765  -30.2671   24.2883 C   0  0  0  0  0  0  0  0  0  0  0  0
  -27.6633  -14.6908   21.9320 C   0  0  0  0  0  0  0  0  0  0  0  0
  -18.5062  -28.8438   22.6154 C   0  0  0  0  0  0  0  0  0  0  0  0
  -17.5985  -27.8419   22.9587 C   0  0  0  0  0  0  0  0  0  0  0  0
  -31.1603  -22.3431   19.5884 C   0  0  0  0  0  0  0  0  0  0  0  0
  -26.3715  -16.5456   21.0892 C   0  0  0  0  0  0  0  0  0  0  0  0
  -16.5349  -29.3423   24.5254 C   0  0  0  0  0  0  0  0  0  0  0  0
  -23.3631  -30.3341   23.5110 C   0  0  0  0  0  0  0  0  0  0  0  0
  -32.0652  -21.3255   19.2864 C   0  0  0  0  0  0  0  0  0  0  0  0
  -31.4971  -23.6732   19.3370 C   0  0  0  0  0  0  0  0  0  0  0  0
  -25.7112  -30.9385   24.3040 C   0  0  0  0  0  0  0  0  0  0  0  0
  -21.6489   -9.5813   21.5256 C   0  0  0  0  0  0  0  0  0  0  0  0
  -25.3581  -14.9834   22.6359 C   0  0  0  0  0  0  0  0  0  0  0  0
  -22.4169  -10.6666   21.0622 C   0  0  0  0  0  0  0  0  0  0  0  0
  -25.2614  -16.1362   21.8436 C   0  0  0  0  0  0  0  0  0  0  0  0
  -20.6524  -30.8413   23.0898 C   0  0  0  0  0  0  0  0  0  0  0  0
  -27.5651  -15.8256   21.1321 C   0  0  0  0  0  0  0  0  0  0  0  0
  -18.4283  -30.0949   23.2272 C   0  0  0  0  0  0  0  0  0  0  0  0
  -16.6128  -28.0912   23.9136 C   0  0  0  0  0  0  0  0  0  0  0  0
  -17.4427  -30.3442   24.1822 C   0  0  0  0  0  0  0  0  0  0  0  0
  -24.7629  -30.0714   23.7290 C   0  0  0  0  0  0  0  0  0  0  0  0
  -26.8847  -30.2252   24.2852 C   0  0  0  0  0  0  0  0  0  0  0  0
  -31.7104  -19.9201   19.5518 C   0  0  0  0  0  0  0  0  0  0  0  0
  -30.5541  -24.7350   19.6519 C   0  0  0  0  0  0  0  0  0  0  0  0
  -30.4586  -19.4679   19.7099 C   0  0  0  0  0  0  0  0  0  0  0  0
  -29.5176  -24.6327   20.5109 C   0  0  0  0  0  0  0  0  0  0  0  0
  -25.5459  -32.2698   24.8100 C   0  0  0  0  0  0  0  0  0  0  0  0
  -30.2061  -18.0237   19.9857 C   0  0  0  0  0  0  0  0  0  0  0  0
  -28.6518  -25.8082   20.7327 C   0  0  0  0  0  0  0  0  0  0  0  0
  -22.3896  -14.3012   21.7269 C   0  0  0  0  0  0  0  0  0  0  0  0
  -21.7636  -17.2551   22.9121 C   0  0  0  0  0  0  0  0  0  0  0  0
  -22.9286  -20.3596   23.7195 C   0  0  0  0  0  0  0  0  0  0  0  0
  -20.1662   -9.7064   21.7717 C   0  0  0  0  0  0  0  0  0  0  0  0
  -24.1922  -14.5350   23.4738 C   0  0  0  0  0  0  0  0  0  0  0  0
  -23.9932  -16.9456   21.7726 C   0  0  0  0  0  0  0  0  0  0  0  0
  -19.6901  -11.1509   21.9018 C   0  0  0  0  0  0  0  0  0  0  0  0
  -28.5685  -25.7634   24.3964 C   0  0  0  0  0  0  0  0  0  0  0  0
  -20.2800  -12.0099   20.7878 C   0  0  0  0  0  0  0  0  0  0  0  0
  -27.6221  -26.9262   24.6828 C   0  0  0  0  0  0  0  0  0  0  0  0
  -28.1899  -25.0201   23.1163 C   0  0  0  0  0  0  0  0  0  0  0  0
  -27.1347  -27.0702   22.2086 C   0  0  0  0  0  0  0  0  0  0  0  0
  -21.8112  -12.0395   20.8661 C   0  0  1  0  0  0  0  0  0  0  0  0
  -22.8511  -15.0404   22.9509 C   0  0  1  0  0  0  0  0  0  0  0  0
  -27.5250  -27.8612   23.4669 C   0  0  1  0  0  0  0  0  0  0  0  0
  -22.1726  -22.5711   24.6332 C   0  0  0  0  0  0  0  0  0  0  0  0
  -20.4841  -17.9255   20.2244 C   0  0  0  0  0  0  0  0  0  0  0  0
  -20.6159  -20.3475   20.8446 C   0  0  0  0  0  0  0  0  0  0  0  0
  -19.2384  -18.7839   22.2158 C   0  0  0  0  0  0  0  0  0  0  0  0
  -24.7460  -20.1508   26.0459 C   0  0  0  0  0  0  0  0  0  0  0  0
  -28.7514  -17.6349   20.1446 C   0  0  0  0  0  0  0  0  0  1  0  0
  -21.7600  -18.6551   22.3471 C   0  0  1  0  0  0  0  0  0  0  0  0
  -22.7563  -21.2071   24.9671 C   0  0  2  0  0  0  0  0  0  0  0  0
  -20.5481  -18.9119   21.4076 C   0  0  0  0  0  0  0  0  0  0  0  0
  -25.2887  -28.8969   23.3708 N   0  0  0  0  0  0  0  0  0  0  0  0
  -26.5800  -29.0211   23.7216 N   0  0  0  0  0  0  0  0  0  0  0  0
  -28.0458  -25.9431   21.9805 N   0  0  0  0  0  0  0  0  0  0  0  0
  -22.8791  -16.4631   22.6054 N   0  0  0  0  0  0  0  0  0  0  0  0
  -28.1372  -30.5167   24.6958 N   0  0  0  0  0  0  0  0  0  0  0  0
  -24.2728  -32.8532   24.7527 N   0  0  0  0  0  0  0  0  0  0  0  0
  -22.2465  -12.9394   21.9126 N   0  0  0  0  0  0  0  0  0  0  0  0
  -21.8306  -19.5572   23.4915 N   0  0  0  0  0  0  0  0  0  0  0  0
  -24.0699  -21.4101   25.6409 N   0  3  0  0  0  0  0  0  0  0  0  0
  -26.5024  -32.9289   25.2836 O   0  0  0  0  0  0  0  0  0  0  0  0
  -31.1191  -17.2075   20.0767 O   0  0  0  0  0  0  0  0  0  0  0  0
  -28.5140  -26.5976   19.7965 O   0  0  0  0  0  0  0  0  0  0  0  0
  -22.1774  -14.9207   20.6911 O   0  0  0  0  0  0  0  0  0  0  0  0
  -20.8150  -16.8807   23.6061 O   0  0  0  0  0  0  0  0  0  0  0  0
  -23.9348  -20.4075   23.0154 O   0  0  0  0  0  0  0  0  0  0  0  0
  -19.3298  -31.0888   22.8848 O   0  0  0  0  0  0  0  0  0  0  0  0
  -28.6342  -16.2352   20.3965 O   0  0  0  0  0  0  0  0  0  1  0  0
  -15.7402  -27.1295   24.2420 F   0  0  0  0  0  0  0  0  0  0  0  0
  -17.3621  -31.5446   24.7725 F   0  0  0  0  0  0  0  0  0  0  0  0
  1  2  1  0  0  0  0
  1  8  2  0  0  0  0
  2  9  2  0  0  0  0
  3  6  2  0  0  0  0
  3  7  1  0  0  0  0
  4 11  2  0  0  0  0
  4 19  1  0  0  0  0
  5 12  1  0  0  0  0
  5 19  2  0  0  0  0
  6 20  1  0  0  0  0
  7 21  2  0  0  0  0
  8 23  1  0  0  0  0
  9 25  1  0  0  0  0
 10 13  2  0  0  0  0
 10 24  1  0  0  0  0
 11 27  1  0  0  0  0
 12 27  2  0  0  0  0
 13 28  1  0  0  0  0
 14 15  2  0  0  0  0
 14 29  1  0  0  0  0
 15 30  1  0  0  0  0
 16 20  2  0  0  0  0
 16 21  1  0  0  0  0
 17 26  1  0  0  0  0
 17 28  2  0  0  0  0
 18 30  2  0  0  0  0
 18 31  1  0  0  0  0
 19 32  1  0  0  0  0
 20 34  1  0  0  0  0
 21 35  1  0  0  0  0
 22 32  1  0  0  0  0
 22 33  2  0  0  0  0
 22 38  1  0  0  0  0
 23 25  2  0  0  0  0
 23 44  1  0  0  0  0
 24 26  2  0  0  0  0
 24 45  1  0  0  0  0
 25 53  1  0  0  0  0
 26 46  1  0  0  0  0
 27 80  1  0  0  0  0
 28 81  1  0  0  0  0
 29 31  2  0  0  0  0
 29 80  1  0  0  0  0
 30 82  1  0  0  0  0
 31 83  1  0  0  0  0
 32 65  2  0  0  0  0
 33 66  1  0  0  0  0
 33 69  1  0  0  0  0
 34 36  2  0  0  0  0
 35 37  2  0  0  0  0
 36 39  1  0  0  0  0
 37 40  1  0  0  0  0
 38 70  1  0  0  0  0
 38 74  2  0  0  0  0
 39 61  1  0  0  0  0
 39 75  2  0  0  0  0
 40 67  1  0  0  0  0
 40 76  2  0  0  0  0
 41 54  1  0  0  0  0
 41 71  1  0  0  0  0
 41 77  2  0  0  0  0
 42 62  1  0  0  0  0
 42 68  1  0  0  0  0
 42 78  2  0  0  0  0
 43 63  1  0  0  0  0
 43 72  1  0  0  0  0
 43 79  2  0  0  0  0
 44 47  1  0  0  0  0
 45 54  1  0  0  0  0
 46 68  1  0  0  0  0
 47 49  1  0  0  0  0
 48 50  1  0  0  0  0
 48 51  1  0  0  0  0
 49 53  1  0  0  0  0
 50 55  1  0  0  0  0
 51 67  1  0  0  0  0
 52 55  1  0  0  0  0
 52 67  1  0  0  0  0
 53 71  1  0  0  0  0
 54 68  1  0  0  0  0
 55 66  1  0  0  0  0
 56 63  1  0  0  0  0
 57 64  1  0  0  0  0
 58 64  1  0  0  0  0
 59 64  1  0  0  0  0
 60 73  1  0  0  0  0
 61 81  1  0  0  0  0
 62 64  1  0  0  0  0
 62 72  1  0  0  0  0
 63 73  1  0  0  0  0
 65 66  1  0  0  0  0
M  CHG  1  73   1
M  ISO  4  37 100  40 100  61 101  81 101
M  END
> <Batch ID>
0131

> <Smiles>
CNC(C)C(=O)NC(C(=O)N1Cc2cc([101O:1][101CH2:1]C(=O)C=Cc3cccc(C=[100CH:0][100C:0](=O)N4CCCC(n5nc(-c6ccc(Oc7ccc(F)cc7F)cc6)c(C(N)=O)c5N)C4)c3)ccc2CC1C(=O)NC1CCCc2ccccc21)C(C)(C)C

> <Shape>
0.207

> <Color>
0.102

> <Negative vol penalty>
0.000

$$$$

  -OEChem-04052302253D

 84 92  0     1  0  0  0  0  0999 V2000
  -17.2460  -30.1601   24.3085 C   0  0  0  0  0  0  0  0  0  0  0  0
  -18.6134  -30.3803   24.4390 C   0  0  0  0  0  0  0  0  0  0  0  0
  -23.7198   -9.7358   22.3843 C   0  0  0  0  0  0  0  0  0  0  0  0
  -23.3254   -9.6663   20.0017 C   0  0  0  0  0  0  0  0  0  0  0  0
  -29.2977  -21.8368   22.6460 C   0  0  0  0  0  0  0  0  0  0  0  0
  -16.7831  -29.0953   23.5366 C   0  0  0  0  0  0  0  0  0  0  0  0
  -19.5189  -29.5350   23.7986 C   0  0  0  0  0  0  0  0  0  0  0  0
  -25.9623  -29.5984   20.6690 C   0  0  0  0  0  0  0  0  0  0  0  0
  -22.7832   -8.7189   22.5691 C   0  0  0  0  0  0  0  0  0  0  0  0
  -22.3887   -8.6493   20.1865 C   0  0  0  0  0  0  0  0  0  0  0  0
  -29.3621  -23.2298   22.6154 C   0  0  0  0  0  0  0  0  0  0  0  0
  -27.1867  -28.9331   20.7111 C   0  0  0  0  0  0  0  0  0  0  0  0
  -22.6580   -5.3566   22.2335 C   0  0  0  0  0  0  0  0  0  0  0  0
  -22.9974   -4.3109   23.0919 C   0  0  0  0  0  0  0  0  0  0  0  0
  -26.9603  -21.9314   22.0422 C   0  0  0  0  0  0  0  0  0  0  0  0
  -26.2707  -27.1729   19.3393 C   0  0  0  0  0  0  0  0  0  0  0  0
  -21.1005   -4.8431   24.4903 C   0  0  0  0  0  0  0  0  0  0  0  0
  -23.9909  -10.2096   21.1006 C   0  0  0  0  0  0  0  0  0  0  0  0
  -28.0968  -21.1876   22.3594 C   0  0  0  0  0  0  0  0  0  0  0  0
  -26.3398  -11.1135   20.6845 C   0  0  0  0  0  0  0  0  0  0  0  0
  -17.6831  -28.2423   22.8785 C   0  0  0  0  0  0  0  0  0  0  0  0
  -24.8778  -29.0497   19.9695 C   0  0  0  0  0  0  0  0  0  0  0  0
  -19.0676  -28.4570   23.0183 C   0  0  0  0  0  0  0  0  0  0  0  0
  -25.0343  -27.8346   19.2876 C   0  0  0  0  0  0  0  0  0  0  0  0
  -27.0246  -23.3245   22.0116 C   0  0  0  0  0  0  0  0  0  0  0  0
  -22.1177   -8.1756   21.4702 C   0  0  0  0  0  0  0  0  0  0  0  0
  -27.3402  -27.7187   20.0486 C   0  0  0  0  0  0  0  0  0  0  0  0
  -28.2256  -23.9736   22.2982 C   0  0  0  0  0  0  0  0  0  0  0  0
  -21.5399   -6.1457   22.5036 C   0  0  0  0  0  0  0  0  0  0  0  0
  -22.2187   -4.0541   24.2202 C   0  0  0  0  0  0  0  0  0  0  0  0
  -20.7612   -5.8889   23.6320 C   0  0  0  0  0  0  0  0  0  0  0  0
  -24.9579  -11.2605   20.9092 C   0  0  0  0  0  0  0  0  0  0  0  0
  -26.8076  -12.3997   20.5687 C   0  0  0  0  0  0  0  0  0  0  0  0
  -28.0321  -19.7348   22.3909 C   0  0  0  0  0  0  0  0  0  0  0  0
  -26.9040  -19.0036   22.5141 C   0  0  0  0  0  0  0  0  0  0  0  0
  -27.1300   -9.9209   20.5889 C   0  0  0  0  0  0  0  0  0  0  0  0
  -27.0019  -17.5301   22.5197 C   0  0  0  0  0  0  0  0  0  0  0  0
  -21.9701  -28.0449   20.7691 C   0  0  0  0  0  0  0  0  0  0  0  0
  -21.6238  -27.7215   17.5601 C   0  0  0  0  0  0  0  0  0  0  0  0
  -23.1039  -27.2949   14.5148 C   0  0  0  0  0  0  0  0  0  0  0  0
  -17.1364  -27.0762   22.0937 C   0  0  0  0  0  0  0  0  0  0  0  0
  -23.5714  -29.7931   19.9114 C   0  0  0  0  0  0  0  0  0  0  0  0
  -23.9070  -27.2131   18.5057 C   0  0  0  0  0  0  0  0  0  0  0  0
  -18.1540  -26.4513   21.1428 C   0  0  0  0  0  0  0  0  0  0  0  0
  -24.3534  -16.7801   20.1001 C   0  0  0  0  0  0  0  0  0  0  0  0
  -19.4884  -26.2417   21.8516 C   0  0  0  0  0  0  0  0  0  0  0  0
  -24.3626  -15.2539   20.1183 C   0  0  0  0  0  0  0  0  0  0  0  0
  -24.6801  -17.3703   21.4710 C   0  0  0  0  0  0  0  0  0  0  0  0
  -25.9691  -15.3392   22.0656 C   0  0  0  0  0  0  0  0  0  0  0  0
  -20.0806  -27.5768   22.3188 C   0  0  1  0  0  0  0  0  0  0  0  0
  -22.3832  -28.8894   19.5970 C   0  0  1  0  0  0  0  0  0  0  0  0
  -25.6892  -14.7243   20.6854 C   0  0  1  0  0  0  0  0  0  0  0  0
  -25.1441  -24.7241   22.9010 C   0  0  0  0  0  0  0  0  0  0  0  0
  -22.5591  -27.0286   12.0797 C   0  0  0  0  0  0  0  0  0  0  0  0
  -30.6450  -27.8925   20.8249 C   0  0  0  0  0  0  0  0  0  0  0  0
  -20.7717  -24.8362   18.0688 C   0  0  0  0  0  0  0  0  0  0  0  0
  -21.1633  -24.3659   15.6411 C   0  0  0  0  0  0  0  0  0  0  0  0
  -19.4326  -26.0274   16.3245 C   0  0  0  0  0  0  0  0  0  0  0  0
  -24.5911  -29.7501   13.7943 C   0  0  0  0  0  0  0  0  0  0  0  0
  -25.7990  -24.1054   21.6695 C   0  0  0  0  0  0  0  0  0  0  0  0
  -29.5666  -25.9016   21.9234 C   0  0  0  0  0  0  0  0  0  0  0  0
  -21.8795  -26.6171   16.5631 C   0  0  1  0  0  0  0  0  0  0  0  0
  -22.9058  -28.0086   13.1897 C   0  0  2  0  0  0  0  0  0  0  0  0
  -29.3359  -27.2511   21.2547 C   0  0  2  0  0  0  0  0  0  1  0  0
  -20.8326  -25.4721   16.6656 C   0  0  0  0  0  0  0  0  0  0  0  0
  -24.5729  -12.5392   20.9352 N   0  0  0  0  0  0  0  0  0  0  0  0
  -25.7198  -13.2074   20.7253 N   0  0  0  0  0  0  0  0  0  0  0  0
  -25.9225  -16.8049   22.0183 N   0  0  0  0  0  0  0  0  0  0  0  0
  -22.6474  -27.9751   18.4841 N   0  0  0  0  0  0  0  0  0  0  0  0
  -28.0391  -12.9072   20.3493 N   0  0  0  0  0  0  0  0  0  0  0  0
  -26.4901   -8.6822   20.7317 N   0  0  0  0  0  0  0  0  0  0  0  0
  -20.6804  -28.2808   21.2057 N   0  0  0  0  0  0  0  0  0  0  0  0
  -21.9399  -27.2559   15.2529 N   0  0  0  0  0  0  0  0  0  0  0  0
  -24.1473  -28.7367   12.8029 N   0  3  0  0  0  0  0  0  0  0  0  0
  -28.3696   -9.9534   20.3993 O   0  0  0  0  0  0  0  0  0  0  0  0
  -28.0331  -17.0305   22.9733 O   0  0  0  0  0  0  0  0  0  0  0  0
  -22.7622  -27.2380   21.2415 O   0  0  0  0  0  0  0  0  0  0  0  0
  -20.5582  -28.3413   17.5160 O   0  0  0  0  0  0  0  0  0  0  0  0
  -24.1824  -26.8163   14.8589 O   0  0  0  0  0  0  0  0  0  0  0  0
  -21.2038   -7.1831   21.6500 O   0  0  0  0  0  0  0  0  0  0  0  0
  -28.3062  -25.3407   22.2740 O   0  0  0  0  0  0  0  0  0  0  0  0
  -28.5341  -27.0669   20.0887 O   0  0  0  0  0  0  0  0  0  1  0  0
  -22.5438   -3.0488   25.0436 F   0  0  0  0  0  0  0  0  0  0  0  0
  -19.6852   -6.6428   23.8960 F   0  0  0  0  0  0  0  0  0  0  0  0
  1  2  1  0  0  0  0
  1  6  2  0  0  0  0
  2  7  2  0  0  0  0
  3  9  2  0  0  0  0
  3 18  1  0  0  0  0
  4 10  1  0  0  0  0
  4 18  2  0  0  0  0
  5 11  2  0  0  0  0
  5 19  1  0  0  0  0
  6 21  1  0  0  0  0
  7 23  1  0  0  0  0
  8 12  2  0  0  0  0
  8 22  1  0  0  0  0
  9 26  1  0  0  0  0
 10 26  2  0  0  0  0
 11 28  1  0  0  0  0
 12 27  1  0  0  0  0
 13 14  2  0  0  0  0
 13 29  1  0  0  0  0
 14 30  1  0  0  0  0
 15 19  2  0  0  0  0
 15 25  1  0  0  0  0
 16 24  1  0  0  0  0
 16 27  2  0  0  0  0
 17 30  2  0  0  0  0
 17 31  1  0  0  0  0
 18 32  1  0  0  0  0
 19 34  1  0  0  0  0
 20 32  1  0  0  0  0
 20 33  2  0  0  0  0
 20 36  1  0  0  0  0
 21 23  2  0  0  0  0
 21 41  1  0  0  0  0
 22 24  2  0  0  0  0
 22 42  1  0  0  0  0
 23 50  1  0  0  0  0
 24 43  1  0  0  0  0
 25 28  2  0  0  0  0
 25 60  1  0  0  0  0
 26 80  1  0  0  0  0
 27 82  1  0  0  0  0
 28 81  1  0  0  0  0
 29 31  2  0  0  0  0
 29 80  1  0  0  0  0
 30 83  1  0  0  0  0
 31 84  1  0  0  0  0
 32 66  2  0  0  0  0
 33 67  1  0  0  0  0
 33 70  1  0  0  0  0
 34 35  2  0  0  0  0
 35 37  1  0  0  0  0
 36 71  1  0  0  0  0
 36 75  2  0  0  0  0
 37 68  1  0  0  0  0
 37 76  2  0  0  0  0
 38 51  1  0  0  0  0
 38 72  1  0  0  0  0
 38 77  2  0  0  0  0
 39 62  1  0  0  0  0
 39 69  1  0  0  0  0
 39 78  2  0  0  0  0
 40 63  1  0  0  0  0
 40 73  1  0  0  0  0
 40 79  2  0  0  0  0
 41 44  1  0  0  0  0
 42 51  1  0  0  0  0
 43 69  1  0  0  0  0
 44 46  1  0  0  0  0
 45 47  1  0  0  0  0
 45 48  1  0  0  0  0
 46 50  1  0  0  0  0
 47 52  1  0  0  0  0
 48 68  1  0  0  0  0
 49 52  1  0  0  0  0
 49 68  1  0  0  0  0
 50 72  1  0  0  0  0
 51 69  1  0  0  0  0
 52 67  1  0  0  0  0
 53 60  1  0  0  0  0
 54 63  1  0  0  0  0
 55 64  1  0  0  0  0
 56 65  1  0  0  0  0
 57 65  1  0  0  0  0
 58 65  1  0  0  0  0
 59 74  1  0  0  0  0
 61 64  1  0  0  0  0
 61 81  1  0  0  0  0
 62 65  1  0  0  0  0
 62 73  1  0  0  0  0
 63 74  1  0  0  0  0
 64 82  1  0  0  0  0
 66 67  1  0  0  0  0
M  CHG  1  74   1
M  ISO  4  35 100  37 100  64 101  82 101
M  END
> <Batch ID>
0131

> <Smiles>
CCc1cc(C=[100CH:0][100C:0](=O)N2CCCC(n3nc(-c4ccc(Oc5ccc(F)cc5F)cc4)c(C(N)=O)c3N)C2)ccc1OC[101CH:1](C)[101O:1]c1ccc2c(c1)CN(C(=O)C(NC(=O)C(C)NC)C(C)(C)C)C(C(=O)NC1CCCc3ccccc31)C2

> <Shape>
0.272

> <Color>
0.133

> <Negative vol penalty>
0.000

$$$$

  -OEChem-04052302253D

 84 92  0     1  0  0  0  0  0999 V2000
  -18.8491  -29.1557   22.7791 C   0  0  0  0  0  0  0  0  0  0  0  0
  -20.1613  -29.3273   23.2083 C   0  0  0  0  0  0  0  0  0  0  0  0
  -24.6134  -14.5958   20.5346 C   0  0  0  0  0  0  0  0  0  0  0  0
  -23.9093  -13.6580   22.6470 C   0  0  0  0  0  0  0  0  0  0  0  0
  -24.8671  -27.3085   24.5285 C   0  0  0  0  0  0  0  0  0  0  0  0
  -25.3454  -28.4503   25.1711 C   0  0  0  0  0  0  0  0  0  0  0  0
  -18.5110  -28.0511   21.9985 C   0  0  0  0  0  0  0  0  0  0  0  0
  -21.1359  -28.3936   22.8580 C   0  0  0  0  0  0  0  0  0  0  0  0
  -25.4400  -30.5665   21.3092 C   0  0  0  0  0  0  0  0  0  0  0  0
  -25.0624  -13.3398   20.1267 C   0  0  0  0  0  0  0  0  0  0  0  0
  -24.3583  -12.4020   22.2390 C   0  0  0  0  0  0  0  0  0  0  0  0
  -26.2882  -31.0719   22.2935 C   0  0  0  0  0  0  0  0  0  0  0  0
  -23.2700   -9.8937   20.2529 C   0  0  0  0  0  0  0  0  0  0  0  0
  -22.4358   -8.8009   20.4885 C   0  0  0  0  0  0  0  0  0  0  0  0
  -26.5664  -25.9824   25.6197 C   0  0  0  0  0  0  0  0  0  0  0  0
  -27.6580  -29.0938   22.1203 C   0  0  0  0  0  0  0  0  0  0  0  0
  -24.1534   -7.7830   21.8489 C   0  0  0  0  0  0  0  0  0  0  0  0
  -24.0369  -14.7549   21.7948 C   0  0  0  0  0  0  0  0  0  0  0  0
  -25.4776  -26.0745   24.7528 C   0  0  0  0  0  0  0  0  0  0  0  0
  -26.4343  -28.3582   26.0381 C   0  0  0  0  0  0  0  0  0  0  0  0
  -22.2890  -16.5979   22.0314 C   0  0  0  0  0  0  0  0  0  0  0  0
  -19.4840  -27.1085   21.6303 C   0  0  0  0  0  0  0  0  0  0  0  0
  -25.6887  -29.3139   20.7298 C   0  0  0  0  0  0  0  0  0  0  0  0
  -20.8103  -27.2746   22.0728 C   0  0  0  0  0  0  0  0  0  0  0  0
  -26.8129  -28.5758   21.1270 C   0  0  0  0  0  0  0  0  0  0  0  0
  -27.0448  -27.1242   26.2624 C   0  0  0  0  0  0  0  0  0  0  0  0
  -24.9349  -12.2429   20.9788 C   0  0  0  0  0  0  0  0  0  0  0  0
  -27.3958  -30.3342   22.7013 C   0  0  0  0  0  0  0  0  0  0  0  0
  -24.5460   -9.9311   20.8152 C   0  0  0  0  0  0  0  0  0  0  0  0
  -22.8775   -7.7456   21.2865 C   0  0  0  0  0  0  0  0  0  0  0  0
  -24.9877   -8.8758   21.6132 C   0  0  0  0  0  0  0  0  0  0  0  0
  -23.5733  -16.0522   22.2170 C   0  0  0  0  0  0  0  0  0  0  0  0
  -22.3581  -17.8426   22.6080 C   0  0  0  0  0  0  0  0  0  0  0  0
  -24.9777  -24.8845   24.0822 C   0  0  0  0  0  0  0  0  0  0  0  0
  -25.6693  -23.7394   23.9001 C   0  0  0  0  0  0  0  0  0  0  0  0
  -26.9253  -29.5974   26.7135 C   0  0  0  0  0  0  0  0  0  0  0  0
  -21.1365  -16.0304   21.3948 C   0  0  0  0  0  0  0  0  0  0  0  0
  -25.0172  -22.6110   23.2056 C   0  0  0  0  0  0  0  0  0  0  0  0
  -24.1196  -26.5528   20.5962 C   0  0  0  0  0  0  0  0  0  0  0  0
  -26.5324  -25.7255   18.5922 C   0  0  0  0  0  0  0  0  0  0  0  0
  -30.1097  -26.1736   18.4519 C   0  0  0  0  0  0  0  0  0  0  0  0
  -19.0613  -25.9056   20.8248 C   0  0  0  0  0  0  0  0  0  0  0  0
  -24.7792  -28.7947   19.6502 C   0  0  0  0  0  0  0  0  0  0  0  0
  -27.1355  -27.2349   20.5218 C   0  0  0  0  0  0  0  0  0  0  0  0
  -20.2294  -25.1607   20.1838 C   0  0  0  0  0  0  0  0  0  0  0  0
  -25.8799  -19.9310   25.5519 C   0  0  0  0  0  0  0  0  0  0  0  0
  -21.3510  -24.9539   21.1967 C   0  0  0  0  0  0  0  0  0  0  0  0
  -25.2853  -18.7172   24.8427 C   0  0  0  0  0  0  0  0  0  0  0  0
  -26.4177  -20.9642   24.5631 C   0  0  0  0  0  0  0  0  0  0  0  0
  -24.8193  -20.1822   22.8386 C   0  0  0  0  0  0  0  0  0  0  0  0
  -21.9008  -26.2967   21.6928 C   0  0  1  0  0  0  0  0  0  0  0  0
  -24.8405  -27.2783   19.4954 C   0  0  1  0  0  0  0  0  0  0  0  0
  -24.2297  -19.1511   23.8135 C   0  0  1  0  0  0  0  0  0  0  0  0
  -28.2119  -26.9983   27.1868 C   0  0  0  0  0  0  0  0  0  0  0  0
  -31.6689  -26.2476   16.4869 C   0  0  0  0  0  0  0  0  0  0  0  0
  -26.9005  -22.7467   19.1408 C   0  0  0  0  0  0  0  0  0  0  0  0
  -29.3238  -23.0122   18.5703 C   0  0  0  0  0  0  0  0  0  0  0  0
  -27.5806  -23.4770   16.8476 C   0  0  0  0  0  0  0  0  0  0  0  0
  -31.1805  -28.8137   19.2533 C   0  0  0  0  0  0  0  0  0  0  0  0
  -28.3521  -30.0857   26.4998 C   0  0  0  0  0  0  0  0  0  0  0  0
  -28.4070  -31.5104   25.9539 C   0  0  0  0  0  0  0  0  0  0  0  0
  -27.6446  -31.6809   24.6456 C   0  0  0  0  0  0  0  0  0  1  0  0
  -27.8954  -25.0988   18.7614 C   0  0  1  0  0  0  0  0  0  0  0  0
  -30.8768  -27.0671   17.4938 C   0  0  2  0  0  0  0  0  0  0  0  0
  -27.9133  -23.5994   18.3506 C   0  0  0  0  0  0  0  0  0  0  0  0
  -24.3981  -16.8823   22.8610 N   0  0  0  0  0  0  0  0  0  0  0  0
  -26.1353  -30.2721   27.4889 N   0  0  0  0  0  0  0  0  0  0  0  0
  -23.6303  -17.9622   23.0850 N   0  0  0  0  0  0  0  0  0  0  0  0
  -25.4088  -21.3196   23.5538 N   0  0  0  0  0  0  0  0  0  0  0  0
  -26.2126  -26.7673   19.4744 N   0  0  0  0  0  0  0  0  0  0  0  0
  -21.4543  -18.8354   22.7484 N   0  0  0  0  0  0  0  0  0  0  0  0
  -21.2382  -14.7408   20.8554 N   0  0  0  0  0  0  0  0  0  0  0  0
  -22.7811  -26.8792   20.7026 N   0  0  0  0  0  0  0  0  0  0  0  0
  -28.8253  -25.9352   18.0104 N   0  0  0  0  0  0  0  0  0  0  0  0
  -31.8271  -27.9359   18.2442 N   0  3  0  0  0  0  0  0  0  0  0  0
  -20.0534  -16.6550   21.2924 O   0  0  0  0  0  0  0  0  0  0  0  0
  -24.1677  -22.8814   22.3548 O   0  0  0  0  0  0  0  0  0  0  0  0
  -24.7320  -25.7549   21.2961 O   0  0  0  0  0  0  0  0  0  0  0  0
  -25.7821  -25.3110   17.7051 O   0  0  0  0  0  0  0  0  0  0  0  0
  -30.6019  -25.7285   19.4863 O   0  0  0  0  0  0  0  0  0  0  0  0
  -25.3727  -11.0171   20.5810 O   0  0  0  0  0  0  0  0  0  0  0  0
  -28.2249  -30.8249   23.6623 O   0  0  0  0  0  0  0  0  0  1  0  0
  -22.0757   -6.6970   21.5140 F   0  0  0  0  0  0  0  0  0  0  0  0
  -26.2120   -8.9067   22.1571 F   0  0  0  0  0  0  0  0  0  0  0  0
  1  2  1  0  0  0  0
  1  7  2  0  0  0  0
  2  8  2  0  0  0  0
  3 10  2  0  0  0  0
  3 18  1  0  0  0  0
  4 11  1  0  0  0  0
  4 18  2  0  0  0  0
  5  6  2  0  0  0  0
  5 19  1  0  0  0  0
  6 20  1  0  0  0  0
  7 22  1  0  0  0  0
  8 24  1  0  0  0  0
  9 12  2  0  0  0  0
  9 23  1  0  0  0  0
 10 27  1  0  0  0  0
 11 27  2  0  0  0  0
 12 28  1  0  0  0  0
 13 14  2  0  0  0  0
 13 29  1  0  0  0  0
 14 30  1  0  0  0  0
 15 19  2  0  0  0  0
 15 26  1  0  0  0  0
 16 25  1  0  0  0  0
 16 28  2  0  0  0  0
 17 30  2  0  0  0  0
 17 31  1  0  0  0  0
 18 32  1  0  0  0  0
 19 34  1  0  0  0  0
 20 26  2  0  0  0  0
 20 36  1  0  0  0  0
 21 32  1  0  0  0  0
 21 33  2  0  0  0  0
 21 37  1  0  0  0  0
 22 24  2  0  0  0  0
 22 42  1  0  0  0  0
 23 25  2  0  0  0  0
 23 43  1  0  0  0  0
 24 51  1  0  0  0  0
 25 44  1  0  0  0  0
 26 54  1  0  0  0  0
 27 81  1  0  0  0  0
 28 82  1  0  0  0  0
 29 31  2  0  0  0  0
 29 81  1  0  0  0  0
 30 83  1  0  0  0  0
 31 84  1  0  0  0  0
 32 66  2  0  0  0  0
 33 68  1  0  0  0  0
 33 71  1  0  0  0  0
 34 35  2  0  0  0  0
 35 38  1  0  0  0  0
 36 60  1  0  0  0  0
 36 67  2  0  0  0  0
 37 72  1  0  0  0  0
 37 76  2  0  0  0  0
 38 69  1  0  0  0  0
 38 77  2  0  0  0  0
 39 52  1  0  0  0  0
 39 73  1  0  0  0  0
 39 78  2  0  0  0  0
 40 63  1  0  0  0  0
 40 70  1  0  0  0  0
 40 79  2  0  0  0  0
 41 64  1  0  0  0  0
 41 74  1  0  0  0  0
 41 80  2  0  0  0  0
 42 45  1  0  0  0  0
 43 52  1  0  0  0  0
 44 70  1  0  0  0  0
 45 47  1  0  0  0  0
 46 48  1  0  0  0  0
 46 49  1  0  0  0  0
 47 51  1  0  0  0  0
 48 53  1  0  0  0  0
 49 69  1  0  0  0  0
 50 53  1  0  0  0  0
 50 69  1  0  0  0  0
 51 73  1  0  0  0  0
 52 70  1  0  0  0  0
 53 68  1  0  0  0  0
 55 64  1  0  0  0  0
 56 65  1  0  0  0  0
 57 65  1  0  0  0  0
 58 65  1  0  0  0  0
 59 75  1  0  0  0  0
 60 61  1  0  0  0  0
 61 62  1  0  0  0  0
 62 82  1  0  0  0  0
 63 65  1  0  0  0  0
 63 74  1  0  0  0  0
 64 75  1  0  0  0  0
 66 68  1  0  0  0  0
M  CHG  1  75   1
M  ISO  4  35 100  38 100  62 101  82 101
M  END
> <Batch ID>
0131

> <Smiles>
CNC(C)C(=O)NC(C(=O)N1Cc2cc([101O:1][101CH2:1]CCC(=N)c3ccc(C=[100CH:0][100C:0](=O)N4CCCC(n5nc(-c6ccc(Oc7ccc(F)cc7F)cc6)c(C(N)=O)c5N)C4)cc3C)ccc2CC1C(=O)NC1CCCc2ccccc21)C(C)(C)C

> <Shape>
0.235

> <Color>
0.070

> <Negative vol penalty>
0.000

$$$$

  -OEChem-04052302253D

 85 93  0     1  0  0  0  0  0999 V2000
  -27.9440  -32.9693   27.1619 C   0  0  0  0  0  0  0  0  0  0  0  0
  -28.1772  -31.9611   26.2321 C   0  0  0  0  0  0  0  0  0  0  0  0
  -24.4486   -8.2208   22.1180 C   0  0  0  0  0  0  0  0  0  0  0  0
  -24.6494   -7.3715   19.8651 C   0  0  0  0  0  0  0  0  0  0  0  0
  -30.1814  -19.6697   22.0922 C   0  0  0  0  0  0  0  0  0  0  0  0
  -26.6414  -33.2492   27.5730 C   0  0  0  0  0  0  0  0  0  0  0  0
  -27.1080  -31.2315   25.7135 C   0  0  0  0  0  0  0  0  0  0  0  0
  -27.4248  -30.6200   20.6965 C   0  0  0  0  0  0  0  0  0  0  0  0
  -30.4199  -21.0117   21.7961 C   0  0  0  0  0  0  0  0  0  0  0  0
  -23.2766   -7.4845   22.2911 C   0  0  0  0  0  0  0  0  0  0  0  0
  -23.4774   -6.6352   20.0382 C   0  0  0  0  0  0  0  0  0  0  0  0
  -28.3066  -29.6469   20.2281 C   0  0  0  0  0  0  0  0  0  0  0  0
  -22.4223   -4.2786   22.9430 C   0  0  0  0  0  0  0  0  0  0  0  0
  -22.2739   -3.5665   24.1332 C   0  0  0  0  0  0  0  0  0  0  0  0
  -29.7687  -19.2270   19.7532 C   0  0  0  0  0  0  0  0  0  0  0  0
  -26.4584  -28.1266   19.9248 C   0  0  0  0  0  0  0  0  0  0  0  0
  -20.2796   -4.8318   24.6416 C   0  0  0  0  0  0  0  0  0  0  0  0
  -25.1350   -8.1643   20.9049 C   0  0  0  0  0  0  0  0  0  0  0  0
  -29.8558  -18.7773   21.0707 C   0  0  0  0  0  0  0  0  0  0  0  0
  -27.6611   -8.5067   21.0001 C   0  0  0  0  0  0  0  0  0  0  0  0
  -25.5548  -32.5291   27.0520 C   0  0  0  0  0  0  0  0  0  0  0  0
  -26.0522  -30.3495   20.7930 C   0  0  0  0  0  0  0  0  0  0  0  0
  -25.7898  -31.5011   26.1190 C   0  0  0  0  0  0  0  0  0  0  0  0
  -25.5609  -29.0988   20.3923 C   0  0  0  0  0  0  0  0  0  0  0  0
  -30.3328  -21.4614   20.4786 C   0  0  0  0  0  0  0  0  0  0  0  0
  -30.0072  -20.5691   19.4571 C   0  0  0  0  0  0  0  0  0  0  0  0
  -22.7910   -6.6917   21.2512 C   0  0  0  0  0  0  0  0  0  0  0  0
  -27.8238  -28.3991   19.8449 C   0  0  0  0  0  0  0  0  0  0  0  0
  -21.4993   -5.2674   22.6022 C   0  0  0  0  0  0  0  0  0  0  0  0
  -21.2026   -3.8431   24.9825 C   0  0  0  0  0  0  0  0  0  0  0  0
  -20.4280   -5.5440   23.4515 C   0  0  0  0  0  0  0  0  0  0  0  0
  -26.3453   -8.9251   20.7253 C   0  0  0  0  0  0  0  0  0  0  0  0
  -28.4419   -9.5849   20.6623 C   0  0  0  0  0  0  0  0  0  0  0  0
  -29.6076  -17.3777   21.3796 C   0  0  0  0  0  0  0  0  0  0  0  0
  -29.6623  -16.3590   20.4954 C   0  0  0  0  0  0  0  0  0  0  0  0
  -28.1351   -7.2551   21.5146 C   0  0  0  0  0  0  0  0  0  0  0  0
  -29.3936  -14.9856   20.9668 C   0  0  0  0  0  0  0  0  0  0  0  0
  -23.9505  -30.2354   23.1749 C   0  0  0  0  0  0  0  0  0  0  0  0
  -29.5693  -25.2208   19.7432 C   0  0  0  0  0  0  0  0  0  0  0  0
  -21.8237  -29.8239   20.7605 C   0  0  0  0  0  0  0  0  0  0  0  0
  -21.2428  -28.8203   17.5508 C   0  0  0  0  0  0  0  0  0  0  0  0
  -24.1691  -32.8359   27.5621 C   0  0  0  0  0  0  0  0  0  0  0  0
  -25.1107  -31.4189   21.2751 C   0  0  0  0  0  0  0  0  0  0  0  0
  -24.0936  -28.7652   20.4575 C   0  0  0  0  0  0  0  0  0  0  0  0
  -23.0571  -32.2682   26.6837 C   0  0  0  0  0  0  0  0  0  0  0  0
  -27.3236  -13.8259   18.1736 C   0  0  0  0  0  0  0  0  0  0  0  0
  -23.3531  -30.8168   26.3193 C   0  0  0  0  0  0  0  0  0  0  0  0
  -26.9556  -12.4213   18.6441 C   0  0  0  0  0  0  0  0  0  0  0  0
  -27.4356  -14.8082   19.3386 C   0  0  0  0  0  0  0  0  0  0  0  0
  -28.0029  -12.9530   20.8804 C   0  0  0  0  0  0  0  0  0  0  0  0
  -24.6539  -30.7042   25.5151 C   0  0  1  0  0  0  0  0  0  0  0  0
  -23.7986  -30.8599   21.8168 C   0  0  1  0  0  0  0  0  0  0  0  0
  -27.9309  -11.9378   19.7291 C   0  0  1  0  0  0  0  0  0  0  0  0
  -31.1311  -20.6320   17.2168 C   0  0  0  0  0  0  0  0  0  0  0  0
  -19.3970  -28.5657   15.8699 C   0  0  0  0  0  0  0  0  0  0  0  0
  -20.8513  -27.3218   22.2109 C   0  0  0  0  0  0  0  0  0  0  0  0
  -19.7259  -26.6140   20.0894 C   0  0  0  0  0  0  0  0  0  0  0  0
  -19.0341  -28.7265   21.2214 C   0  0  0  0  0  0  0  0  0  0  0  0
  -22.5260  -30.7220   15.6810 C   0  0  0  0  0  0  0  0  0  0  0  0
  -30.5955  -22.9187   20.1830 C   0  0  0  0  0  0  0  0  0  0  0  0
  -29.9084  -21.0275   18.0392 C   0  0  0  0  0  0  0  0  0  0  0  0
  -29.3195  -23.7393   19.9855 C   0  0  0  0  0  0  0  0  0  0  0  0
  -28.3293  -26.0854   19.6268 C   0  0  0  0  0  0  0  0  0  1  0  0
  -21.2591  -28.6329   20.0244 C   0  0  1  0  0  0  0  0  0  0  0  0
  -20.4865  -29.4784   16.4108 C   0  0  2  0  0  0  0  0  0  0  0  0
  -20.2456  -27.8291   20.8870 C   0  0  0  0  0  0  0  0  0  0  0  0
  -26.2895  -10.1720   20.2497 N   0  0  0  0  0  0  0  0  0  0  0  0
  -27.5800  -10.5463   20.2232 N   0  0  0  0  0  0  0  0  0  0  0  0
  -28.3281  -14.2969   20.3897 N   0  0  0  0  0  0  0  0  0  0  0  0
  -23.2139  -29.8419   20.9417 N   0  0  0  0  0  0  0  0  0  0  0  0
  -29.7749   -9.7950   20.7012 N   0  0  0  0  0  0  0  0  0  0  0  0
  -27.1977   -6.2556   21.8087 N   0  0  0  0  0  0  0  0  0  0  0  0
  -24.4337  -31.0983   24.1401 N   0  0  0  0  0  0  0  0  0  0  0  0
  -20.7052  -29.1488   18.7773 N   0  0  0  0  0  0  0  0  0  0  0  0
  -21.4174  -29.8113   15.2956 N   0  3  0  0  0  0  0  0  0  0  0  0
  -29.3524   -7.0358   21.7233 O   0  0  0  0  0  0  0  0  0  0  0  0
  -30.1271  -14.5330   21.8476 O   0  0  0  0  0  0  0  0  0  0  0  0
  -23.6500  -29.0583   23.3357 O   0  0  0  0  0  0  0  0  0  0  0  0
  -30.6999  -25.7008   19.6802 O   0  0  0  0  0  0  0  0  0  0  0  0
  -21.0601  -30.7094   21.1537 O   0  0  0  0  0  0  0  0  0  0  0  0
  -22.2112  -28.0852   17.3709 O   0  0  0  0  0  0  0  0  0  0  0  0
  -21.6476   -5.9729   21.4199 O   0  0  0  0  0  0  0  0  0  0  0  0
  -28.6824  -27.4473   19.3879 O   0  0  0  0  0  0  0  0  0  1  0  0
  -21.0594   -3.1581   26.1246 F   0  0  0  0  0  0  0  0  0  0  0  0
  -19.5374   -6.4919   23.1288 F   0  0  0  0  0  0  0  0  0  0  0  0
  1  2  1  0  0  0  0
  1  6  2  0  0  0  0
  2  7  2  0  0  0  0
  3 10  2  0  0  0  0
  3 18  1  0  0  0  0
  4 11  1  0  0  0  0
  4 18  2  0  0  0  0
  5  9  2  0  0  0  0
  5 19  1  0  0  0  0
  6 21  1  0  0  0  0
  7 23  1  0  0  0  0
  8 12  2  0  0  0  0
  8 22  1  0  0  0  0
  9 25  1  0  0  0  0
 10 27  1  0  0  0  0
 11 27  2  0  0  0  0
 12 28  1  0  0  0  0
 13 14  2  0  0  0  0
 13 29  1  0  0  0  0
 14 30  1  0  0  0  0
 15 19  2  0  0  0  0
 15 26  1  0  0  0  0
 16 24  1  0  0  0  0
 16 28  2  0  0  0  0
 17 30  2  0  0  0  0
 17 31  1  0  0  0  0
 18 32  1  0  0  0  0
 19 34  1  0  0  0  0
 20 32  1  0  0  0  0
 20 33  2  0  0  0  0
 20 36  1  0  0  0  0
 21 23  2  0  0  0  0
 21 42  1  0  0  0  0
 22 24  2  0  0  0  0
 22 43  1  0  0  0  0
 23 51  1  0  0  0  0
 24 44  1  0  0  0  0
 25 26  2  0  0  0  0
 25 60  1  0  0  0  0
 26 61  1  0  0  0  0
 27 82  1  0  0  0  0
 28 83  1  0  0  0  0
 29 31  2  0  0  0  0
 29 82  1  0  0  0  0
 30 84  1  0  0  0  0
 31 85  1  0  0  0  0
 32 67  2  0  0  0  0
 33 68  1  0  0  0  0
 33 71  1  0  0  0  0
 34 35  2  0  0  0  0
 35 37  1  0  0  0  0
 36 72  1  0  0  0  0
 36 76  2  0  0  0  0
 37 69  1  0  0  0  0
 37 77  2  0  0  0  0
 38 52  1  0  0  0  0
 38 73  1  0  0  0  0
 38 78  2  0  0  0  0
 39 62  1  0  0  0  0
 39 63  1  0  0  0  0
 39 79  2  0  0  0  0
 40 64  1  0  0  0  0
 40 70  1  0  0  0  0
 40 80  2  0  0  0  0
 41 65  1  0  0  0  0
 41 74  1  0  0  0  0
 41 81  2  0  0  0  0
 42 45  1  0  0  0  0
 43 52  1  0  0  0  0
 44 70  1  0  0  0  0
 45 47  1  0  0  0  0
 46 48  1  0  0  0  0
 46 49  1  0  0  0  0
 47 51  1  0  0  0  0
 48 53  1  0  0  0  0
 49 69  1  0  0  0  0
 50 53  1  0  0  0  0
 50 69  1  0  0  0  0
 51 73  1  0  0  0  0
 52 70  1  0  0  0  0
 53 68  1  0  0  0  0
 54 61  1  0  0  0  0
 55 65  1  0  0  0  0
 56 66  1  0  0  0  0
 57 66  1  0  0  0  0
 58 66  1  0  0  0  0
 59 75  1  0  0  0  0
 60 62  1  0  0  0  0
 63 83  1  0  0  0  0
 64 66  1  0  0  0  0
 64 74  1  0  0  0  0
 65 75  1  0  0  0  0
 67 68  1  0  0  0  0
M  CHG  1  75   1
M  ISO  4  35 100  37 100  63 101  83 101
M  END
> <Batch ID>
0131

> <Smiles>
CCc1cc(C=[100CH:0][100C:0](=O)N2CCCC(n3nc(-c4ccc(Oc5ccc(F)cc5F)cc4)c(C(N)=O)c3N)C2)ccc1CCC(=O)[101CH2:1][101O:1]c1ccc2c(c1)CN(C(=O)C(NC(=O)C(C)NC)C(C)(C)C)C(C(=O)NC1CCCc3ccccc31)C2

> <Shape>
0.303

> <Color>
0.087

> <Negative vol penalty>
0.000

$$$$

  -OEChem-04052302253D

 83 91  0     1  0  0  0  0  0999 V2000
  -27.6767  -31.4391   27.9094 C   0  0  0  0  0  0  0  0  0  0  0  0
  -27.8872  -30.5415   26.8676 C   0  0  0  0  0  0  0  0  0  0  0  0
  -23.0770   -7.7370   23.6546 C   0  0  0  0  0  0  0  0  0  0  0  0
  -20.9240   -8.3257   22.7297 C   0  0  0  0  0  0  0  0  0  0  0  0
  -28.7061  -18.8009   21.1650 C   0  0  0  0  0  0  0  0  0  0  0  0
  -28.9301  -18.6226   18.7660 C   0  0  0  0  0  0  0  0  0  0  0  0
  -26.3787  -31.8159   28.2517 C   0  0  0  0  0  0  0  0  0  0  0  0
  -26.7997  -30.0193   26.1682 C   0  0  0  0  0  0  0  0  0  0  0  0
  -27.5224  -30.0396   21.1560 C   0  0  0  0  0  0  0  0  0  0  0  0
  -29.1190  -20.1318   21.1046 C   0  0  0  0  0  0  0  0  0  0  0  0
  -29.3429  -19.9536   18.7056 C   0  0  0  0  0  0  0  0  0  0  0  0
  -22.4557   -6.8575   24.5411 C   0  0  0  0  0  0  0  0  0  0  0  0
  -20.3027   -7.4461   23.6163 C   0  0  0  0  0  0  0  0  0  0  0  0
  -28.3349  -29.0384   20.6258 C   0  0  0  0  0  0  0  0  0  0  0  0
  -21.1408   -3.7437   24.4495 C   0  0  0  0  0  0  0  0  0  0  0  0
  -21.7046   -2.4779   24.6087 C   0  0  0  0  0  0  0  0  0  0  0  0
  -26.3711  -27.8028   19.9654 C   0  0  0  0  0  0  0  0  0  0  0  0
  -22.0320   -2.9196   26.9614 C   0  0  0  0  0  0  0  0  0  0  0  0
  -22.3112   -8.4712   22.7489 C   0  0  0  0  0  0  0  0  0  0  0  0
  -28.6117  -18.0462   19.9956 C   0  0  0  0  0  0  0  0  0  0  0  0
  -23.4281   -9.0901   20.5405 C   0  0  0  0  0  0  0  0  0  0  0  0
  -25.2753  -31.3055   27.5499 C   0  0  0  0  0  0  0  0  0  0  0  0
  -26.1257  -29.9246   21.1045 C   0  0  0  0  0  0  0  0  0  0  0  0
  -25.4857  -30.3886   26.5024 C   0  0  0  0  0  0  0  0  0  0  0  0
  -25.5431  -28.8051   20.4934 C   0  0  0  0  0  0  0  0  0  0  0  0
  -29.4373  -20.7082   19.8750 C   0  0  0  0  0  0  0  0  0  0  0  0
  -21.0685   -6.7120   24.5220 C   0  0  0  0  0  0  0  0  0  0  0  0
  -27.7593  -27.9184   20.0329 C   0  0  0  0  0  0  0  0  0  0  0  0
  -21.0226   -4.5975   25.5462 C   0  0  0  0  0  0  0  0  0  0  0  0
  -22.1501   -2.0658   25.8646 C   0  0  0  0  0  0  0  0  0  0  0  0
  -21.4682   -4.1854   26.8021 C   0  0  0  0  0  0  0  0  0  0  0  0
  -22.9523   -9.3803   21.8332 C   0  0  0  0  0  0  0  0  0  0  0  0
  -23.9460  -10.2798   20.0900 C   0  0  0  0  0  0  0  0  0  0  0  0
  -28.1814  -16.6582   20.0583 C   0  0  0  0  0  0  0  0  0  0  0  0
  -27.4962  -16.0959   21.0767 C   0  0  0  0  0  0  0  0  0  0  0  0
  -23.4040   -7.8555   19.8119 C   0  0  0  0  0  0  0  0  0  0  0  0
  -27.1213  -14.6703   20.9876 C   0  0  0  0  0  0  0  0  0  0  0  0
  -23.8080  -29.7499   23.2728 C   0  0  0  0  0  0  0  0  0  0  0  0
  -29.1551  -24.5957   19.6208 C   0  0  0  0  0  0  0  0  0  0  0  0
  -21.8874  -29.9165   20.6640 C   0  0  0  0  0  0  0  0  0  0  0  0
  -21.5085  -29.4204   17.3088 C   0  0  0  0  0  0  0  0  0  0  0  0
  -23.8885  -31.7058   27.9872 C   0  0  0  0  0  0  0  0  0  0  0  0
  -25.2632  -31.0259   21.6571 C   0  0  0  0  0  0  0  0  0  0  0  0
  -24.0489  -28.6434   20.3946 C   0  0  0  0  0  0  0  0  0  0  0  0
  -22.8101  -31.3954   26.9522 C   0  0  0  0  0  0  0  0  0  0  0  0
  -23.5970  -14.9532   21.9523 C   0  0  0  0  0  0  0  0  0  0  0  0
  -22.9817  -29.9798   26.4107 C   0  0  0  0  0  0  0  0  0  0  0  0
  -23.1719  -13.4872   21.9449 C   0  0  0  0  0  0  0  0  0  0  0  0
  -25.0466  -15.1259   22.4033 C   0  0  0  0  0  0  0  0  0  0  0  0
  -25.5911  -12.8420   21.6109 C   0  0  0  0  0  0  0  0  0  0  0  0
  -24.3331  -29.8194   25.7039 C   0  0  1  0  0  0  0  0  0  0  0  0
  -23.8533  -30.5613   22.0089 C   0  0  1  0  0  0  0  0  0  0  0  0
  -24.1505  -12.6410   21.1153 C   0  0  1  0  0  0  0  0  0  0  0  0
  -19.8134  -29.6113   15.4683 C   0  0  0  0  0  0  0  0  0  0  0  0
  -20.5190  -27.3794   21.6644 C   0  0  0  0  0  0  0  0  0  0  0  0
  -19.5300  -27.0963   19.3819 C   0  0  0  0  0  0  0  0  0  0  0  0
  -18.9651  -29.1089   20.7431 C   0  0  0  0  0  0  0  0  0  0  0  0
  -23.1597  -31.3845   15.8342 C   0  0  0  0  0  0  0  0  0  0  0  0
  -29.8819  -22.1498   19.8101 C   0  0  0  0  0  0  0  0  0  0  0  0
  -28.7259  -23.1357   19.6306 C   0  0  0  0  0  0  0  0  0  0  0  0
  -28.0318  -25.6099   19.5303 C   0  0  0  0  0  0  0  0  0  1  0  0
  -21.2704  -28.9086   19.7245 C   0  0  1  0  0  0  0  0  0  0  0  0
  -20.9385  -30.3082   16.2173 C   0  0  2  0  0  0  0  0  0  0  0  0
  -20.0993  -28.1251   20.3819 C   0  0  0  0  0  0  0  0  0  0  0  0
  -23.1505  -10.6545   22.1816 N   0  0  0  0  0  0  0  0  0  0  0  0
  -23.7566  -11.1753   21.1011 N   0  0  0  0  0  0  0  0  0  0  0  0
  -25.9559  -14.2629   21.6344 N   0  0  0  0  0  0  0  0  0  0  0  0
  -23.2480  -29.7443   20.9551 N   0  0  0  0  0  0  0  0  0  0  0  0
  -24.5404  -10.6367   18.9317 N   0  0  0  0  0  0  0  0  0  0  0  0
  -22.8345   -6.7300   20.4231 N   0  0  0  0  0  0  0  0  0  0  0  0
  -24.2875  -30.4144   24.3854 N   0  0  0  0  0  0  0  0  0  0  0  0
  -20.8956  -29.6465   18.5231 N   0  0  0  0  0  0  0  0  0  0  0  0
  -22.0011  -30.6714   15.2375 N   0  3  0  0  0  0  0  0  0  0  0  0
  -23.8882   -7.7493   18.6596 O   0  0  0  0  0  0  0  0  0  0  0  0
  -27.8667  -13.9252   20.3489 O   0  0  0  0  0  0  0  0  0  0  0  0
  -23.3690  -28.6063   23.2411 O   0  0  0  0  0  0  0  0  0  0  0  0
  -30.3316  -24.9414   19.7159 O   0  0  0  0  0  0  0  0  0  0  0  0
  -21.1896  -30.8272   21.1169 O   0  0  0  0  0  0  0  0  0  0  0  0
  -22.4050  -28.6050   17.1038 O   0  0  0  0  0  0  0  0  0  0  0  0
  -20.4619   -5.8537   25.3867 O   0  0  0  0  0  0  0  0  0  0  0  0
  -28.5501  -26.9394   19.5152 O   0  0  0  0  0  0  0  0  0  1  0  0
  -22.6901   -0.8495   26.0177 F   0  0  0  0  0  0  0  0  0  0  0  0
  -21.3563   -5.0008   27.8597 F   0  0  0  0  0  0  0  0  0  0  0  0
  1  2  1  0  0  0  0
  1  7  2  0  0  0  0
  2  8  2  0  0  0  0
  3 12  2  0  0  0  0
  3 19  1  0  0  0  0
  4 13  1  0  0  0  0
  4 19  2  0  0  0  0
  5 10  2  0  0  0  0
  5 20  1  0  0  0  0
  6 11  1  0  0  0  0
  6 20  2  0  0  0  0
  7 22  1  0  0  0  0
  8 24  1  0  0  0  0
  9 14  2  0  0  0  0
  9 23  1  0  0  0  0
 10 26  1  0  0  0  0
 11 26  2  0  0  0  0
 12 27  1  0  0  0  0
 13 27  2  0  0  0  0
 14 28  1  0  0  0  0
 15 16  2  0  0  0  0
 15 29  1  0  0  0  0
 16 30  1  0  0  0  0
 17 25  1  0  0  0  0
 17 28  2  0  0  0  0
 18 30  2  0  0  0  0
 18 31  1  0  0  0  0
 19 32  1  0  0  0  0
 20 34  1  0  0  0  0
 21 32  1  0  0  0  0
 21 33  2  0  0  0  0
 21 36  1  0  0  0  0
 22 24  2  0  0  0  0
 22 42  1  0  0  0  0
 23 25  2  0  0  0  0
 23 43  1  0  0  0  0
 24 51  1  0  0  0  0
 25 44  1  0  0  0  0
 26 59  1  0  0  0  0
 27 80  1  0  0  0  0
 28 81  1  0  0  0  0
 29 31  2  0  0  0  0
 29 80  1  0  0  0  0
 30 82  1  0  0  0  0
 31 83  1  0  0  0  0
 32 65  2  0  0  0  0
 33 66  1  0  0  0  0
 33 69  1  0  0  0  0
 34 35  2  0  0  0  0
 35 37  1  0  0  0  0
 36 70  1  0  0  0  0
 36 74  2  0  0  0  0
 37 67  1  0  0  0  0
 37 75  2  0  0  0  0
 38 52  1  0  0  0  0
 38 71  1  0  0  0  0
 38 76  2  0  0  0  0
 39 60  1  0  0  0  0
 39 61  1  0  0  0  0
 39 77  2  0  0  0  0
 40 62  1  0  0  0  0
 40 68  1  0  0  0  0
 40 78  2  0  0  0  0
 41 63  1  0  0  0  0
 41 72  1  0  0  0  0
 41 79  2  0  0  0  0
 42 45  1  0  0  0  0
 43 52  1  0  0  0  0
 44 68  1  0  0  0  0
 45 47  1  0  0  0  0
 46 48  1  0  0  0  0
 46 49  1  0  0  0  0
 47 51  1  0  0  0  0
 48 53  1  0  0  0  0
 49 67  1  0  0  0  0
 50 53  1  0  0  0  0
 50 67  1  0  0  0  0
 51 71  1  0  0  0  0
 52 68  1  0  0  0  0
 53 66  1  0  0  0  0
 54 63  1  0  0  0  0
 55 64  1  0  0  0  0
 56 64  1  0  0  0  0
 57 64  1  0  0  0  0
 58 73  1  0  0  0  0
 59 60  1  0  0  0  0
 61 81  1  0  0  0  0
 62 64  1  0  0  0  0
 62 72  1  0  0  0  0
 63 73  1  0  0  0  0
 65 66  1  0  0  0  0
M  CHG  1  73   1
M  ISO  4  35 100  37 100  61 101  81 101
M  END
> <Batch ID>
0131

> <Smiles>
CNC(C)C(=O)NC(C(=O)N1Cc2cc([101O:1][101CH2:1]C(=O)CCc3ccc(C=[100CH:0][100C:0](=O)N4CCCC(n5nc(-c6ccc(Oc7ccc(F)cc7F)cc6)c(C(N)=O)c5N)C4)cc3)ccc2CC1C(=O)NC1CCCc2ccccc21)C(C)(C)C

> <Shape>
0.291

> <Color>
0.079

> <Negative vol penalty>
0.000

$$$$

  -OEChem-04052302253D

 83 91  0     1  0  0  0  0  0999 V2000
  -28.9073  -36.7687   22.7869 C   0  0  0  0  0  0  0  0  0  0  0  0
  -29.1844  -35.5574   22.1614 C   0  0  0  0  0  0  0  0  0  0  0  0
  -31.6354  -20.9199   24.4579 C   0  0  0  0  0  0  0  0  0  0  0  0
  -24.5718   -9.2510   22.1733 C   0  0  0  0  0  0  0  0  0  0  0  0
  -23.7598   -9.5351   19.9156 C   0  0  0  0  0  0  0  0  0  0  0  0
  -31.1071  -19.6305   24.3939 C   0  0  0  0  0  0  0  0  0  0  0  0
  -28.0038  -36.8134   23.8479 C   0  0  0  0  0  0  0  0  0  0  0  0
  -28.5589  -34.3898   22.5972 C   0  0  0  0  0  0  0  0  0  0  0  0
  -26.8019  -29.6461   19.1453 C   0  0  0  0  0  0  0  0  0  0  0  0
  -31.4091  -21.8189   23.4157 C   0  0  0  0  0  0  0  0  0  0  0  0
  -23.3777   -8.6209   22.5235 C   0  0  0  0  0  0  0  0  0  0  0  0
  -22.5657   -8.9049   20.2658 C   0  0  0  0  0  0  0  0  0  0  0  0
  -27.3908  -28.4108   18.8790 C   0  0  0  0  0  0  0  0  0  0  0  0
  -21.9750   -5.5654   22.1640 C   0  0  0  0  0  0  0  0  0  0  0  0
  -22.0565   -4.3964   22.9205 C   0  0  0  0  0  0  0  0  0  0  0  0
  -30.1263  -20.1392   22.2453 C   0  0  0  0  0  0  0  0  0  0  0  0
  -26.0552  -27.4059   20.6185 C   0  0  0  0  0  0  0  0  0  0  0  0
  -20.7683   -5.4427   24.6763 C   0  0  0  0  0  0  0  0  0  0  0  0
  -24.7629   -9.7082   20.8693 C   0  0  0  0  0  0  0  0  0  0  0  0
  -30.3526  -19.2402   23.2875 C   0  0  0  0  0  0  0  0  0  0  0  0
  -27.1644   -9.7519   20.0102 C   0  0  0  0  0  0  0  0  0  0  0  0
  -27.3596  -35.6474   24.2906 C   0  0  0  0  0  0  0  0  0  0  0  0
  -25.8415  -29.7730   20.1592 C   0  0  0  0  0  0  0  0  0  0  0  0
  -27.6469  -34.4187   23.6659 C   0  0  0  0  0  0  0  0  0  0  0  0
  -25.4537  -28.6434   20.8939 C   0  0  0  0  0  0  0  0  0  0  0  0
  -30.6546  -21.4286   22.3094 C   0  0  0  0  0  0  0  0  0  0  0  0
  -22.3747   -8.4478   21.5698 C   0  0  0  0  0  0  0  0  0  0  0  0
  -27.0196  -27.2910   19.6176 C   0  0  0  0  0  0  0  0  0  0  0  0
  -21.2902   -6.6732   22.6637 C   0  0  0  0  0  0  0  0  0  0  0  0
  -21.4532   -4.3350   24.1767 C   0  0  0  0  0  0  0  0  0  0  0  0
  -20.6868   -6.6118   23.9198 C   0  0  0  0  0  0  0  0  0  0  0  0
  -25.9959  -10.3597   20.5071 C   0  0  0  0  0  0  0  0  0  0  0  0
  -28.0409  -10.7930   19.8251 C   0  0  0  0  0  0  0  0  0  0  0  0
  -29.8022  -17.8953   23.2203 C   0  0  0  0  0  0  0  0  0  0  0  0
  -28.7734  -17.5085   22.4365 C   0  0  0  0  0  0  0  0  0  0  0  0
  -27.4335   -8.3697   19.7400 C   0  0  0  0  0  0  0  0  0  0  0  0
  -28.3349  -16.0989   22.4735 C   0  0  0  0  0  0  0  0  0  0  0  0
  -25.6518  -31.4104   22.8770 C   0  0  0  0  0  0  0  0  0  0  0  0
  -28.9144  -24.2666   20.2663 C   0  0  0  0  0  0  0  0  0  0  0  0
  -22.6275  -30.2382   22.9181 C   0  0  0  0  0  0  0  0  0  0  0  0
  -20.4422  -27.8232   21.8989 C   0  0  0  0  0  0  0  0  0  0  0  0
  -26.4263  -35.7376   25.4719 C   0  0  0  0  0  0  0  0  0  0  0  0
  -25.1962  -31.1072   20.4161 C   0  0  0  0  0  0  0  0  0  0  0  0
  -24.4126  -28.7225   21.9794 C   0  0  0  0  0  0  0  0  0  0  0  0
  -25.5231  -34.5170   25.6291 C   0  0  0  0  0  0  0  0  0  0  0  0
  -28.1733  -15.4643   18.8675 C   0  0  0  0  0  0  0  0  0  0  0  0
  -26.3322  -33.2320   25.4849 C   0  0  0  0  0  0  0  0  0  0  0  0
  -27.6533  -14.0294   18.8449 C   0  0  0  0  0  0  0  0  0  0  0  0
  -27.5966  -16.2630   20.0354 C   0  0  0  0  0  0  0  0  0  0  0  0
  -27.2857  -14.1790   21.3394 C   0  0  0  0  0  0  0  0  0  0  0  0
  -26.9698  -33.1347   24.0937 C   0  0  1  0  0  0  0  0  0  0  0  0
  -24.6034  -31.2244   21.8169 C   0  0  1  0  0  0  0  0  0  0  0  0
  -27.8894  -13.3434   20.1998 C   0  0  1  0  0  0  0  0  0  0  0  0
  -18.0463  -27.1119   22.1253 C   0  0  0  0  0  0  0  0  0  0  0  0
  -23.2079  -29.1838   25.7219 C   0  0  0  0  0  0  0  0  0  0  0  0
  -21.1944  -27.7111   25.5094 C   0  0  0  0  0  0  0  0  0  0  0  0
  -20.9369  -30.1912   25.4356 C   0  0  0  0  0  0  0  0  0  0  0  0
  -19.9655  -28.0956   18.9908 C   0  0  0  0  0  0  0  0  0  0  0  0
  -30.4088  -22.4025   21.1820 C   0  0  0  0  0  0  0  0  0  0  0  0
  -29.1429  -23.2414   21.3675 C   0  0  0  0  0  0  0  0  0  0  0  0
  -27.7168  -25.1770   20.4548 C   0  0  0  0  0  0  0  0  0  1  0  0
  -21.9707  -28.9933   23.4638 C   0  0  1  0  0  0  0  0  0  0  0  0
  -19.0474  -27.9119   21.3064 C   0  0  2  0  0  0  0  0  0  0  0  0
  -21.8485  -29.0184   25.0136 C   0  0  0  0  0  0  0  0  0  0  0  0
  -26.1160  -11.6842   20.6301 N   0  0  0  0  0  0  0  0  0  0  0  0
  -27.3704  -11.9173   20.2078 N   0  0  0  0  0  0  0  0  0  0  0  0
  -27.7830  -15.5591   21.3131 N   0  0  0  0  0  0  0  0  0  0  0  0
  -23.8152  -30.0503   22.1972 N   0  0  0  0  0  0  0  0  0  0  0  0
  -29.3121  -10.8473   19.3739 N   0  0  0  0  0  0  0  0  0  0  0  0
  -26.4219   -7.4315   19.9865 N   0  0  0  0  0  0  0  0  0  0  0  0
  -25.9849  -32.7305   23.1134 N   0  0  0  0  0  0  0  0  0  0  0  0
  -20.6960  -28.8649   22.7659 N   0  0  0  0  0  0  0  0  0  0  0  0
  -19.0423  -27.3848   19.9124 N   0  3  0  0  0  0  0  0  0  0  0  0
  -28.5438   -7.9764   19.3086 O   0  0  0  0  0  0  0  0  0  0  0  0
  -28.4798  -15.4859   23.5327 O   0  0  0  0  0  0  0  0  0  0  0  0
  -26.1226  -30.4290   23.4400 O   0  0  0  0  0  0  0  0  0  0  0  0
  -29.6672  -24.3808   19.3004 O   0  0  0  0  0  0  0  0  0  0  0  0
  -22.1021  -31.3363   23.1179 O   0  0  0  0  0  0  0  0  0  0  0  0
  -21.2267  -26.9181   21.6233 O   0  0  0  0  0  0  0  0  0  0  0  0
  -21.2094   -7.8328   21.9111 O   0  0  0  0  0  0  0  0  0  0  0  0
  -27.5933  -26.0842   19.3602 O   0  0  0  0  0  0  0  0  0  1  0  0
  -21.5302   -3.2118   24.9024 F   0  0  0  0  0  0  0  0  0  0  0  0
  -20.0265   -7.6724   24.4046 F   0  0  0  0  0  0  0  0  0  0  0  0
  1  2  1  0  0  0  0
  1  7  2  0  0  0  0
  2  8  2  0  0  0  0
  3  6  1  0  0  0  0
  3 10  2  0  0  0  0
  4 11  2  0  0  0  0
  4 19  1  0  0  0  0
  5 12  1  0  0  0  0
  5 19  2  0  0  0  0
  6 20  2  0  0  0  0
  7 22  1  0  0  0  0
  8 24  1  0  0  0  0
  9 13  2  0  0  0  0
  9 23  1  0  0  0  0
 10 26  1  0  0  0  0
 11 27  1  0  0  0  0
 12 27  2  0  0  0  0
 13 28  1  0  0  0  0
 14 15  2  0  0  0  0
 14 29  1  0  0  0  0
 15 30  1  0  0  0  0
 16 20  1  0  0  0  0
 16 26  2  0  0  0  0
 17 25  1  0  0  0  0
 17 28  2  0  0  0  0
 18 30  2  0  0  0  0
 18 31  1  0  0  0  0
 19 32  1  0  0  0  0
 20 34  1  0  0  0  0
 21 32  1  0  0  0  0
 21 33  2  0  0  0  0
 21 36  1  0  0  0  0
 22 24  2  0  0  0  0
 22 42  1  0  0  0  0
 23 25  2  0  0  0  0
 23 43  1  0  0  0  0
 24 51  1  0  0  0  0
 25 44  1  0  0  0  0
 26 59  1  0  0  0  0
 27 80  1  0  0  0  0
 28 81  1  0  0  0  0
 29 31  2  0  0  0  0
 29 80  1  0  0  0  0
 30 82  1  0  0  0  0
 31 83  1  0  0  0  0
 32 65  2  0  0  0  0
 33 66  1  0  0  0  0
 33 69  1  0  0  0  0
 34 35  2  0  0  0  0
 35 37  1  0  0  0  0
 36 70  1  0  0  0  0
 36 74  2  0  0  0  0
 37 67  1  0  0  0  0
 37 75  2  0  0  0  0
 38 52  1  0  0  0  0
 38 71  1  0  0  0  0
 38 76  2  0  0  0  0
 39 60  1  0  0  0  0
 39 61  1  0  0  0  0
 39 77  2  0  0  0  0
 40 62  1  0  0  0  0
 40 68  1  0  0  0  0
 40 78  2  0  0  0  0
 41 63  1  0  0  0  0
 41 72  1  0  0  0  0
 41 79  2  0  0  0  0
 42 45  1  0  0  0  0
 43 52  1  0  0  0  0
 44 68  1  0  0  0  0
 45 47  1  0  0  0  0
 46 48  1  0  0  0  0
 46 49  1  0  0  0  0
 47 51  1  0  0  0  0
 48 53  1  0  0  0  0
 49 67  1  0  0  0  0
 50 53  1  0  0  0  0
 50 67  1  0  0  0  0
 51 71  1  0  0  0  0
 52 68  1  0  0  0  0
 53 66  1  0  0  0  0
 54 63  1  0  0  0  0
 55 64  1  0  0  0  0
 56 64  1  0  0  0  0
 57 64  1  0  0  0  0
 58 73  1  0  0  0  0
 59 60  1  0  0  0  0
 61 81  1  0  0  0  0
 62 64  1  0  0  0  0
 62 72  1  0  0  0  0
 63 73  1  0  0  0  0
 65 66  1  0  0  0  0
M  CHG  1  73   1
M  ISO  4  35 100  37 100  61 101  81 101
M  END
> <Batch ID>
0131

> <Smiles>
CNC(C)C(=O)NC(C(=O)N1Cc2cc([101O:1][101CH2:1]C(=O)CCc3cccc(C=[100CH:0][100C:0](=O)N4CCCC(n5nc(-c6ccc(Oc7ccc(F)cc7F)cc6)c(C(N)=O)c5N)C4)c3)ccc2CC1C(=O)NC1CCCc2ccccc21)C(C)(C)C

> <Shape>
0.307

> <Color>
0.113

> <Negative vol penalty>
0.000

$$$$

  -OEChem-04052302253D

 85 93  0     1  0  0  0  0  0999 V2000
  -27.9664  -32.8894   26.9142 C   0  0  0  0  0  0  0  0  0  0  0  0
  -28.1667  -31.8275   26.0381 C   0  0  0  0  0  0  0  0  0  0  0  0
  -22.7143  -12.5390   18.6039 C   0  0  0  0  0  0  0  0  0  0  0  0
  -24.6925  -12.9448   17.2777 C   0  0  0  0  0  0  0  0  0  0  0  0
  -26.6765  -33.2108   27.3349 C   0  0  0  0  0  0  0  0  0  0  0  0
  -27.0772  -31.0855   25.5830 C   0  0  0  0  0  0  0  0  0  0  0  0
  -27.2812  -30.1892   20.6031 C   0  0  0  0  0  0  0  0  0  0  0  0
  -21.9727  -12.3454   17.4385 C   0  0  0  0  0  0  0  0  0  0  0  0
  -23.9510  -12.7511   16.1122 C   0  0  0  0  0  0  0  0  0  0  0  0
  -28.1399  -29.1788   20.1726 C   0  0  0  0  0  0  0  0  0  0  0  0
  -20.5290  -14.2619   15.0579 C   0  0  0  0  0  0  0  0  0  0  0  0
  -19.2808  -14.8788   14.9749 C   0  0  0  0  0  0  0  0  0  0  0  0
  -26.2657  -27.6708   19.9926 C   0  0  0  0  0  0  0  0  0  0  0  0
  -30.2228  -18.4964   19.4592 C   0  0  0  0  0  0  0  0  0  0  0  0
  -29.4378  -20.3626   20.7776 C   0  0  0  0  0  0  0  0  0  0  0  0
  -18.2300  -12.7182   14.7200 C   0  0  0  0  0  0  0  0  0  0  0  0
  -24.0742  -12.8388   18.5235 C   0  0  0  0  0  0  0  0  0  0  0  0
  -25.5359  -12.0629   20.4648 C   0  0  0  0  0  0  0  0  0  0  0  0
  -25.5698  -32.4785   26.8772 C   0  0  0  0  0  0  0  0  0  0  0  0
  -25.9074  -29.9445   20.7422 C   0  0  0  0  0  0  0  0  0  0  0  0
  -25.7715  -31.3965   25.9991 C   0  0  0  0  0  0  0  0  0  0  0  0
  -25.3912  -28.6806   20.4225 C   0  0  0  0  0  0  0  0  0  0  0  0
  -31.0637  -19.3524   18.7481 C   0  0  0  0  0  0  0  0  0  0  0  0
  -31.0918  -20.7136   19.0518 C   0  0  0  0  0  0  0  0  0  0  0  0
  -29.4098  -19.0015   20.4739 C   0  0  0  0  0  0  0  0  0  0  0  0
  -22.5910  -12.4514   16.1926 C   0  0  0  0  0  0  0  0  0  0  0  0
  -27.6327  -27.9185   19.8701 C   0  0  0  0  0  0  0  0  0  0  0  0
  -20.6279  -12.8732   14.9719 C   0  0  0  0  0  0  0  0  0  0  0  0
  -30.2788  -21.2187   20.0666 C   0  0  0  0  0  0  0  0  0  0  0  0
  -18.1313  -14.1069   14.8060 C   0  0  0  0  0  0  0  0  0  0  0  0
  -19.4783  -12.1013   14.8030 C   0  0  0  0  0  0  0  0  0  0  0  0
  -24.8406  -13.0396   19.7269 C   0  0  0  0  0  0  0  0  0  0  0  0
  -26.0955  -12.7561   21.5102 C   0  0  0  0  0  0  0  0  0  0  0  0
  -25.6645  -10.6549   20.2266 C   0  0  0  0  0  0  0  0  0  0  0  0
  -23.8545  -29.9947   23.1684 C   0  0  0  0  0  0  0  0  0  0  0  0
  -29.3335  -24.7193   19.9244 C   0  0  0  0  0  0  0  0  0  0  0  0
  -21.6725  -29.4794   20.8241 C   0  0  0  0  0  0  0  0  0  0  0  0
  -21.0115  -28.3060   17.6883 C   0  0  0  0  0  0  0  0  0  0  0  0
  -27.6862  -18.4704   22.2327 C   0  0  0  0  0  0  0  0  0  0  0  0
  -24.1992  -32.8335   27.3969 C   0  0  0  0  0  0  0  0  0  0  0  0
  -24.9906  -31.0528   21.1821 C   0  0  0  0  0  0  0  0  0  0  0  0
  -23.9213  -28.3725   20.5358 C   0  0  0  0  0  0  0  0  0  0  0  0
  -23.0617  -32.2336   26.5744 C   0  0  0  0  0  0  0  0  0  0  0  0
  -25.3926  -16.6285   24.2387 C   0  0  0  0  0  0  0  0  0  0  0  0
  -23.3306  -30.7600   26.2864 C   0  0  0  0  0  0  0  0  0  0  0  0
  -25.0587  -15.4072   23.3791 C   0  0  0  0  0  0  0  0  0  0  0  0
  -25.5666  -17.8878   23.3916 C   0  0  0  0  0  0  0  0  0  0  0  0
  -26.1883  -16.5422   21.4239 C   0  0  0  0  0  0  0  0  0  0  0  0
  -24.6127  -30.5836   25.4639 C   0  0  1  0  0  0  0  0  0  0  0  0
  -23.6827  -30.5442   21.7806 C   0  0  1  0  0  0  0  0  0  0  0  0
  -26.0677  -15.2365   22.2265 C   0  0  2  0  0  0  0  0  0  0  0  0
  -31.9244  -18.7872   17.6660 C   0  0  0  0  0  0  0  0  0  0  0  0
  -33.4455  -21.5211   18.7447 C   0  0  0  0  0  0  0  0  0  0  0  0
  -19.1278  -27.9844   16.0618 C   0  0  0  0  0  0  0  0  0  0  0  0
  -20.6972  -27.0769   22.4324 C   0  0  0  0  0  0  0  0  0  0  0  0
  -19.5185  -26.2677   20.3771 C   0  0  0  0  0  0  0  0  0  0  0  0
  -18.8787  -28.4501   21.4020 C   0  0  0  0  0  0  0  0  0  0  0  0
  -22.2808  -30.0810   15.6890 C   0  0  0  0  0  0  0  0  0  0  0  0
  -31.9930  -21.6356   18.2943 C   0  0  0  0  0  0  0  0  0  0  0  0
  -28.1026  -25.5892   19.7726 C   0  0  0  0  0  0  0  0  0  1  0  0
  -29.0765  -23.2623   20.2502 C   0  0  0  0  0  0  0  0  0  0  0  0
  -21.0769  -28.2573   20.1678 C   0  0  1  0  0  0  0  0  0  0  0  0
  -20.2405  -28.9101   16.5286 C   0  0  2  0  0  0  0  0  0  0  0  0
  -20.0708  -27.5179   21.0944 C   0  0  0  0  0  0  0  0  0  0  0  0
  -24.9472  -14.2603   20.2585 N   0  0  0  0  0  0  0  0  0  0  0  0
  -25.7159  -14.0552   21.3416 N   0  0  0  0  0  0  0  0  0  0  0  0
  -23.0663  -29.4873   20.9761 N   0  0  0  0  0  0  0  0  0  0  0  0
  -26.5398  -17.6527   22.3228 N   0  0  0  0  0  0  0  0  0  0  0  0
  -26.8702  -12.3751   22.5480 N   0  0  0  0  0  0  0  0  0  0  0  0
  -25.0254  -10.1057   19.1067 N   0  0  0  0  0  0  0  0  0  0  0  0
  -28.5559  -18.1318   21.1966 N   0  0  0  0  0  0  0  0  0  0  0  0
  -24.3692  -30.9031   24.0735 N   0  0  0  0  0  0  0  0  0  0  0  0
  -20.5040  -28.7105   18.9049 N   0  0  0  0  0  0  0  0  0  0  0  0
  -21.1523  -29.1664   15.3779 N   0  3  0  0  0  0  0  0  0  0  0  0
  -26.3128   -9.9033   20.9935 O   0  0  0  0  0  0  0  0  0  0  0  0
  -23.5417  -28.8329   23.4012 O   0  0  0  0  0  0  0  0  0  0  0  0
  -30.4710  -25.1684   19.7919 O   0  0  0  0  0  0  0  0  0  0  0  0
  -20.9292  -30.3965   21.1821 O   0  0  0  0  0  0  0  0  0  0  0  0
  -21.9661  -27.5480   17.5308 O   0  0  0  0  0  0  0  0  0  0  0  0
  -27.8954  -19.3851   23.0337 O   0  0  0  0  0  0  0  0  0  0  0  0
  -21.8678  -12.2622   15.0553 O   0  0  0  0  0  0  0  0  0  0  0  0
  -28.4688  -26.9303   19.4504 O   0  0  0  0  0  0  0  0  0  1  0  0
  -30.2929  -22.5572   20.3801 O   0  0  0  0  0  0  0  0  0  0  0  0
  -16.9325  -14.6993   14.7279 F   0  0  0  0  0  0  0  0  0  0  0  0
  -19.5668  -10.7667   14.7209 F   0  0  0  0  0  0  0  0  0  0  0  0
  1  2  1  0  0  0  0
  1  5  2  0  0  0  0
  2  6  2  0  0  0  0
  3  8  2  0  0  0  0
  3 17  1  0  0  0  0
  4  9  1  0  0  0  0
  4 17  2  0  0  0  0
  5 19  1  0  0  0  0
  6 21  1  0  0  0  0
  7 10  2  0  0  0  0
  7 20  1  0  0  0  0
  8 26  1  0  0  0  0
  9 26  2  0  0  0  0
 10 27  1  0  0  0  0
 11 12  2  0  0  0  0
 11 28  1  0  0  0  0
 12 30  1  0  0  0  0
 13 22  1  0  0  0  0
 13 27  2  0  0  0  0
 14 23  2  0  0  0  0
 14 25  1  0  0  0  0
 15 25  2  0  0  0  0
 15 29  1  0  0  0  0
 16 30  2  0  0  0  0
 16 31  1  0  0  0  0
 17 32  1  0  0  0  0
 18 32  1  0  0  0  0
 18 33  2  0  0  0  0
 18 34  1  0  0  0  0
 19 21  2  0  0  0  0
 19 40  1  0  0  0  0
 20 22  2  0  0  0  0
 20 41  1  0  0  0  0
 21 49  1  0  0  0  0
 22 42  1  0  0  0  0
 23 24  1  0  0  0  0
 23 52  1  0  0  0  0
 24 29  2  0  0  0  0
 24 59  1  0  0  0  0
 25 71  1  0  0  0  0
 26 81  1  0  0  0  0
 27 82  1  0  0  0  0
 28 31  2  0  0  0  0
 28 81  1  0  0  0  0
 29 83  1  0  0  0  0
 30 84  1  0  0  0  0
 31 85  1  0  0  0  0
 32 65  2  0  0  0  0
 33 66  1  0  0  0  0
 33 69  1  0  0  0  0
 34 70  1  0  0  0  0
 34 75  2  0  0  0  0
 35 50  1  0  0  0  0
 35 72  1  0  0  0  0
 35 76  2  0  0  0  0
 36 60  1  0  0  0  0
 36 61  1  0  0  0  0
 36 77  2  0  0  0  0
 37 62  1  0  0  0  0
 37 67  1  0  0  0  0
 37 78  2  0  0  0  0
 38 63  1  0  0  0  0
 38 73  1  0  0  0  0
 38 79  2  0  0  0  0
 39 68  1  0  0  0  0
 39 71  1  0  0  0  0
 39 80  2  0  0  0  0
 40 43  1  0  0  0  0
 41 50  1  0  0  0  0
 42 67  1  0  0  0  0
 43 45  1  0  0  0  0
 44 46  1  0  0  0  0
 44 47  1  0  0  0  0
 45 49  1  0  0  0  0
 46 51  1  0  0  0  0
 47 68  1  0  0  0  0
 48 51  1  0  0  0  0
 48 68  1  0  0  0  0
 49 72  1  0  0  0  0
 50 67  1  0  0  0  0
 51 66  1  0  0  0  0
 53 59  1  0  0  0  0
 54 63  1  0  0  0  0
 55 64  1  0  0  0  0
 56 64  1  0  0  0  0
 57 64  1  0  0  0  0
 58 74  1  0  0  0  0
 60 82  1  0  0  0  0
 61 83  1  0  0  0  0
 62 64  1  0  0  0  0
 62 73  1  0  0  0  0
 63 74  1  0  0  0  0
 65 66  1  0  0  0  0
M  CHG  1  74   1
M  ISO  4  39 100  60 101  71 100  82 101
M  END
> <Batch ID>
0131

> <Smiles>
CCc1c(C)cc([100NH:0][100C:0](=O)N2CCCC(n3nc(-c4ccc(Oc5ccc(F)cc5F)cc4)c(C(N)=O)c3N)C2)cc1OCC(=O)[101CH2:1][101O:1]c1ccc2c(c1)CN(C(=O)C(NC(=O)C(C)NC)C(C)(C)C)C(C(=O)NC1CCCc3ccccc31)C2

> <Shape>
0.230

> <Color>
0.090

> <Negative vol penalty>
0.000

$$$$

  -OEChem-04052302253D

 87 95  0     1  0  0  0  0  0999 V2000
  -18.1771  -33.1399   23.4589 C   0  0  0  0  0  0  0  0  0  0  0  0
  -19.4466  -33.2949   22.9115 C   0  0  0  0  0  0  0  0  0  0  0  0
  -28.6101  -10.8962   21.7695 C   0  0  0  0  0  0  0  0  0  0  0  0
  -27.3809  -11.2936   19.7279 C   0  0  0  0  0  0  0  0  0  0  0  0
  -17.8468  -31.9620   24.1279 C   0  0  0  0  0  0  0  0  0  0  0  0
  -20.3870  -32.2726   23.0337 C   0  0  0  0  0  0  0  0  0  0  0  0
  -25.8688  -29.2808   19.5243 C   0  0  0  0  0  0  0  0  0  0  0  0
  -26.3914  -23.9070   16.8835 C   0  0  0  0  0  0  0  0  0  0  0  0
  -27.7167   -9.8805   22.1098 C   0  0  0  0  0  0  0  0  0  0  0  0
  -26.4874  -10.2778   20.0682 C   0  0  0  0  0  0  0  0  0  0  0  0
  -27.2025  -28.9222   19.7148 C   0  0  0  0  0  0  0  0  0  0  0  0
  -26.6650  -22.5457   17.0159 C   0  0  0  0  0  0  0  0  0  0  0  0
  -23.8299   -9.8816   22.1203 C   0  0  0  0  0  0  0  0  0  0  0  0
  -22.4680  -10.1351   21.9576 C   0  0  0  0  0  0  0  0  0  0  0  0
  -28.9458  -23.0630   17.6221 C   0  0  0  0  0  0  0  0  0  0  0  0
  -26.4943  -26.8999   20.8229 C   0  0  0  0  0  0  0  0  0  0  0  0
  -22.3091   -8.2872   20.4093 C   0  0  0  0  0  0  0  0  0  0  0  0
  -28.4422  -11.6028   20.5786 C   0  0  0  0  0  0  0  0  0  0  0  0
  -28.6722  -24.4244   17.4897 C   0  0  0  0  0  0  0  0  0  0  0  0
  -30.5543  -12.5254   19.4854 C   0  0  0  0  0  0  0  0  0  0  0  0
  -18.7804  -30.9208   24.2499 C   0  0  0  0  0  0  0  0  0  0  0  0
  -24.8361  -28.4555   19.9921 C   0  0  0  0  0  0  0  0  0  0  0  0
  -20.0693  -31.0802   23.7060 C   0  0  0  0  0  0  0  0  0  0  0  0
  -25.1482  -27.2490   20.6348 C   0  0  0  0  0  0  0  0  0  0  0  0
  -27.3951  -24.8464   17.1204 C   0  0  0  0  0  0  0  0  0  0  0  0
  -26.6554   -9.5713   21.2591 C   0  0  0  0  0  0  0  0  0  0  0  0
  -27.9422  -22.1237   17.3852 C   0  0  0  0  0  0  0  0  0  0  0  0
  -27.5155  -27.7331   20.3668 C   0  0  0  0  0  0  0  0  0  0  0  0
  -24.4315   -8.8310   21.4275 C   0  0  0  0  0  0  0  0  0  0  0  0
  -21.7076   -9.3379   21.1021 C   0  0  0  0  0  0  0  0  0  0  0  0
  -23.6710   -8.0338   20.5720 C   0  0  0  0  0  0  0  0  0  0  0  0
  -29.3644  -12.6525   20.2268 C   0  0  0  0  0  0  0  0  0  0  0  0
  -31.0608  -13.8008   19.4277 C   0  0  0  0  0  0  0  0  0  0  0  0
  -29.7649  -25.4077   17.7495 C   0  0  0  0  0  0  0  0  0  0  0  0
  -31.1487  -11.3588   18.9010 C   0  0  0  0  0  0  0  0  0  0  0  0
  -22.4810  -28.7866   22.1011 C   0  0  0  0  0  0  0  0  0  0  0  0
  -28.4319  -19.1860   19.8757 C   0  0  0  0  0  0  0  0  0  0  0  0
  -21.5981  -25.8706   20.9877 C   0  0  0  0  0  0  0  0  0  0  0  0
  -22.5062  -22.9530   19.4678 C   0  0  0  0  0  0  0  0  0  0  0  0
  -18.3928  -29.6851   25.0229 C   0  0  0  0  0  0  0  0  0  0  0  0
  -23.4023  -28.8435   19.7550 C   0  0  0  0  0  0  0  0  0  0  0  0
  -24.0765  -26.3181   21.1380 C   0  0  0  0  0  0  0  0  0  0  0  0
  -19.3242  -28.4997   24.7833 C   0  0  0  0  0  0  0  0  0  0  0  0
  -31.1423  -17.9187   21.8474 C   0  0  0  0  0  0  0  0  0  0  0  0
  -20.7820  -28.9400   24.8710 C   0  0  0  0  0  0  0  0  0  0  0  0
  -31.0840  -16.4102   21.6104 C   0  0  0  0  0  0  0  0  0  0  0  0
  -29.7472  -18.5354   21.8659 C   0  0  0  0  0  0  0  0  0  0  0  0
  -28.8790  -16.7381   20.4039 C   0  0  0  0  0  0  0  0  0  0  0  0
  -21.1086  -29.9840   23.7963 C   0  0  1  0  0  0  0  0  0  0  0  0
  -22.4343  -28.1777   20.7282 C   0  0  1  0  0  0  0  0  0  0  0  0
  -30.2691  -16.0802   20.3472 C   0  0  2  0  0  0  0  0  0  0  0  0
  -26.6562  -28.1953   15.3472 C   0  0  0  0  0  0  0  0  0  0  0  0
  -22.2285  -20.6984   18.4015 C   0  0  0  0  0  0  0  0  0  0  0  0
  -21.5980  -24.9042   23.8818 C   0  0  0  0  0  0  0  0  0  0  0  0
  -21.6057  -22.5524   23.0234 C   0  0  0  0  0  0  0  0  0  0  0  0
  -19.6903  -24.0626   22.5010 C   0  0  0  0  0  0  0  0  0  0  0  0
  -22.0693  -24.1430   16.7934 C   0  0  0  0  0  0  0  0  0  0  0  0
  -27.0747  -26.2979   16.9712 C   0  0  0  0  0  0  0  0  0  0  0  0
  -30.4115  -25.4342   19.1262 C   0  0  0  0  0  0  0  0  0  0  0  0
  -27.6779  -18.7428   18.6473 C   0  0  0  0  0  0  0  0  0  0  0  0
  -27.0154  -26.7256   15.4979 C   0  0  0  0  0  0  0  0  0  0  0  0
  -30.9032  -26.8293   19.5067 C   0  0  0  0  0  0  0  0  0  0  0  0
  -27.1290  -19.9513   17.9098 C   0  0  0  0  0  0  0  0  0  0  0  0
  -29.7577  -27.8285   19.5798 C   0  0  0  0  0  0  0  0  0  1  0  0
  -21.9149  -24.4427   21.3614 C   0  0  1  0  0  0  0  0  0  0  0  0
  -21.8813  -22.1769   18.3225 C   0  0  2  0  0  0  0  0  0  0  0  0
  -21.2227  -24.0087   22.6843 C   0  0  0  0  0  0  0  0  0  0  0  0
  -29.1289  -13.9093   20.6126 N   0  0  0  0  0  0  0  0  0  0  0  0
  -30.1779  -14.5837   20.1117 N   0  0  0  0  0  0  0  0  0  0  0  0
  -22.6897  -26.7447   20.8878 N   0  0  0  0  0  0  0  0  0  0  0  0
  -28.9973  -18.1803   20.6598 N   0  0  0  0  0  0  0  0  0  0  0  0
  -32.1707  -14.3178   18.8592 N   0  0  0  0  0  0  0  0  0  0  0  0
  -30.4963  -10.1280   19.0551 N   0  0  0  0  0  0  0  0  0  0  0  0
  -21.2853  -29.3462   22.5092 N   0  0  0  0  0  0  0  0  0  0  0  0
  -21.5568  -23.6289   20.2047 N   0  0  0  0  0  0  0  0  0  0  0  0
  -22.3647  -22.7040   17.0150 N   0  3  0  0  0  0  0  0  0  0  0  0
  -30.1143  -26.1679   16.8494 O   0  0  0  0  0  0  0  0  0  0  0  0
  -32.2349  -11.4038   18.2751 O   0  0  0  0  0  0  0  0  0  0  0  0
  -23.5241  -28.7500   22.7431 O   0  0  0  0  0  0  0  0  0  0  0  0
  -28.5173  -20.3908   20.1276 O   0  0  0  0  0  0  0  0  0  0  0  0
  -20.4258  -26.1967   20.7847 O   0  0  0  0  0  0  0  0  0  0  0  0
  -23.7152  -22.9562   19.6889 O   0  0  0  0  0  0  0  0  0  0  0  0
  -25.7835   -8.5801   21.5907 O   0  0  0  0  0  0  0  0  0  0  0  0
  -28.2090  -20.7951   17.5133 O   0  0  0  0  0  0  0  0  0  0  0  0
  -28.8165  -27.3810   20.5546 O   0  0  0  0  0  0  0  0  0  1  0  0
  -20.3994   -9.5804   20.9471 F   0  0  0  0  0  0  0  0  0  0  0  0
  -24.2431   -7.0222   19.9047 F   0  0  0  0  0  0  0  0  0  0  0  0
  1  2  1  0  0  0  0
  1  5  2  0  0  0  0
  2  6  2  0  0  0  0
  3  9  2  0  0  0  0
  3 18  1  0  0  0  0
  4 10  1  0  0  0  0
  4 18  2  0  0  0  0
  5 21  1  0  0  0  0
  6 23  1  0  0  0  0
  7 11  2  0  0  0  0
  7 22  1  0  0  0  0
  8 12  2  0  0  0  0
  8 25  1  0  0  0  0
  9 26  1  0  0  0  0
 10 26  2  0  0  0  0
 11 28  1  0  0  0  0
 12 27  1  0  0  0  0
 13 14  2  0  0  0  0
 13 29  1  0  0  0  0
 14 30  1  0  0  0  0
 15 19  1  0  0  0  0
 15 27  2  0  0  0  0
 16 24  1  0  0  0  0
 16 28  2  0  0  0  0
 17 30  2  0  0  0  0
 17 31  1  0  0  0  0
 18 32  1  0  0  0  0
 19 25  2  0  0  0  0
 19 34  1  0  0  0  0
 20 32  1  0  0  0  0
 20 33  2  0  0  0  0
 20 35  1  0  0  0  0
 21 23  2  0  0  0  0
 21 40  1  0  0  0  0
 22 24  2  0  0  0  0
 22 41  1  0  0  0  0
 23 49  1  0  0  0  0
 24 42  1  0  0  0  0
 25 58  1  0  0  0  0
 26 83  1  0  0  0  0
 27 84  1  0  0  0  0
 28 85  1  0  0  0  0
 29 31  2  0  0  0  0
 29 83  1  0  0  0  0
 30 86  1  0  0  0  0
 31 87  1  0  0  0  0
 32 68  2  0  0  0  0
 33 69  1  0  0  0  0
 33 72  1  0  0  0  0
 34 59  1  0  0  0  0
 34 77  2  0  0  0  0
 35 73  1  0  0  0  0
 35 78  2  0  0  0  0
 36 50  1  0  0  0  0
 36 74  1  0  0  0  0
 36 79  2  0  0  0  0
 37 60  1  0  0  0  0
 37 71  1  0  0  0  0
 37 80  2  0  0  0  0
 38 65  1  0  0  0  0
 38 70  1  0  0  0  0
 38 81  2  0  0  0  0
 39 66  1  0  0  0  0
 39 75  1  0  0  0  0
 39 82  2  0  0  0  0
 40 43  1  0  0  0  0
 41 50  1  0  0  0  0
 42 70  1  0  0  0  0
 43 45  1  0  0  0  0
 44 46  1  0  0  0  0
 44 47  1  0  0  0  0
 45 49  1  0  0  0  0
 46 51  1  0  0  0  0
 47 71  1  0  0  0  0
 48 51  1  0  0  0  0
 48 71  1  0  0  0  0
 49 74  1  0  0  0  0
 50 70  1  0  0  0  0
 51 69  1  0  0  0  0
 52 61  1  0  0  0  0
 53 66  1  0  0  0  0
 54 67  1  0  0  0  0
 55 67  1  0  0  0  0
 56 67  1  0  0  0  0
 57 76  1  0  0  0  0
 58 61  1  0  0  0  0
 59 62  1  0  0  0  0
 60 63  1  0  0  0  0
 62 64  1  0  0  0  0
 63 84  1  0  0  0  0
 64 85  1  0  0  0  0
 65 67  1  0  0  0  0
 65 75  1  0  0  0  0
 66 76  1  0  0  0  0
 68 69  1  0  0  0  0
M  CHG  1  76   1
M  ISO  4  37 100  60 100  64 101  85 101
M  END
> <Batch ID>
0131

> <Smiles>
CCCc1ccc(OC[100CH2:0][100C:0](=O)N2CCCC(n3nc(-c4ccc(Oc5ccc(F)cc5F)cc4)c(C(N)=O)c3N)C2)cc1C(=O)CC[101CH2:1][101O:1]c1ccc2c(c1)CN(C(=O)C(NC(=O)C(C)NC)C(C)(C)C)C(C(=O)NC1CCCc3ccccc31)C2

> <Shape>
0.264

> <Color>
0.096

> <Negative vol penalty>
0.000

$$$$

  -OEChem-04052302253D

 86 95  0     1  0  0  0  0  0999 V2000
  -28.7663  -35.8097   17.7390 C   0  0  0  0  0  0  0  0  0  0  0  0
  -28.9207  -34.4287   17.8053 C   0  0  0  0  0  0  0  0  0  0  0  0
  -22.9187  -10.3088   19.8694 C   0  0  0  0  0  0  0  0  0  0  0  0
  -23.5265  -10.0417   22.1924 C   0  0  0  0  0  0  0  0  0  0  0  0
  -28.0914  -36.4841   18.7557 C   0  0  0  0  0  0  0  0  0  0  0  0
  -28.4013  -33.7214   18.8890 C   0  0  0  0  0  0  0  0  0  0  0  0
  -26.0215  -28.0792   18.8026 C   0  0  0  0  0  0  0  0  0  0  0  0
  -22.0000   -9.2661   19.9899 C   0  0  0  0  0  0  0  0  0  0  0  0
  -22.6078   -8.9991   22.3129 C   0  0  0  0  0  0  0  0  0  0  0  0
  -26.5531  -26.8319   19.1273 C   0  0  0  0  0  0  0  0  0  0  0  0
  -18.8820   -8.8234   21.2207 C   0  0  0  0  0  0  0  0  0  0  0  0
  -17.6154   -9.0083   20.6667 C   0  0  0  0  0  0  0  0  0  0  0  0
  -25.5958  -27.0052   21.3348 C   0  0  0  0  0  0  0  0  0  0  0  0
  -29.3065  -18.6731   19.4825 C   0  0  0  0  0  0  0  0  0  0  0  0
  -29.9042  -20.1843   17.6703 C   0  0  0  0  0  0  0  0  0  0  0  0
  -17.9664   -7.0998   19.2273 C   0  0  0  0  0  0  0  0  0  0  0  0
  -23.6820  -10.6965   20.9706 C   0  0  0  0  0  0  0  0  0  0  0  0
  -24.3964  -13.1436   21.0660 C   0  0  0  0  0  0  0  0  0  0  0  0
  -27.5550  -35.7835   19.8476 C   0  0  0  0  0  0  0  0  0  0  0  0
  -25.2810  -28.8049   19.7468 C   0  0  0  0  0  0  0  0  0  0  0  0
  -27.7198  -34.3872   19.9219 C   0  0  0  0  0  0  0  0  0  0  0  0
  -25.0538  -28.2604   21.0187 C   0  0  0  0  0  0  0  0  0  0  0  0
  -29.4771  -17.6163   18.6057 C   0  0  0  0  0  0  0  0  0  0  0  0
  -29.8542  -17.8321   17.2766 C   0  0  0  0  0  0  0  0  0  0  0  0
  -30.0711  -19.1103   16.7932 C   0  0  0  0  0  0  0  0  0  0  0  0
  -21.8445   -8.6113   21.2116 C   0  0  0  0  0  0  0  0  0  0  0  0
  -26.3427  -26.2960   20.3945 C   0  0  0  0  0  0  0  0  0  0  0  0
  -19.6910   -7.7768   20.7780 C   0  0  0  0  0  0  0  0  0  0  0  0
  -29.5253  -19.9673   19.0053 C   0  0  0  0  0  0  0  0  0  0  0  0
  -17.1575   -8.1465   19.6700 C   0  0  0  0  0  0  0  0  0  0  0  0
  -19.2331   -6.9150   19.7814 C   0  0  0  0  0  0  0  0  0  0  0  0
  -24.6316  -11.7731   20.8466 C   0  0  0  0  0  0  0  0  0  0  0  0
  -25.6070  -13.7436   20.8191 C   0  0  0  0  0  0  0  0  0  0  0  0
  -23.1913  -13.8144   21.4579 C   0  0  0  0  0  0  0  0  0  0  0  0
  -25.6257  -31.6179   21.1863 C   0  0  0  0  0  0  0  0  0  0  0  0
  -28.1230  -23.0698   20.2308 C   0  0  0  0  0  0  0  0  0  0  0  0
  -22.6768  -30.9416   22.3565 C   0  0  0  0  0  0  0  0  0  0  0  0
  -20.3470  -28.5776   23.1504 C   0  0  0  0  0  0  0  0  0  0  0  0
  -30.0515  -14.1909   17.3925 C   0  0  0  0  0  0  0  0  0  0  0  0
  -26.8747  -36.5616   20.9459 C   0  0  0  0  0  0  0  0  0  0  0  0
  -24.6917  -30.1371   19.3721 C   0  0  0  0  0  0  0  0  0  0  0  0
  -24.2488  -28.9903   22.0616 C   0  0  0  0  0  0  0  0  0  0  0  0
  -29.2854  -16.1566   18.8609 C   0  0  0  0  0  0  0  0  0  0  0  0
  -29.9720  -16.5326   16.5542 C   0  0  0  0  0  0  0  0  0  0  0  0
  -26.0280  -35.6932   21.8730 C   0  0  0  0  0  0  0  0  0  0  0  0
  -30.2062  -11.7509   20.1271 C   0  0  0  0  0  0  0  0  0  0  0  0
  -26.7999  -34.4446   22.2875 C   0  0  0  0  0  0  0  0  0  0  0  0
  -28.7393  -11.6235   20.5439 C   0  0  0  0  0  0  0  0  0  0  0  0
  -30.3542  -12.0837   18.6438 C   0  0  0  0  0  0  0  0  0  0  0  0
  -28.1184  -13.1162   18.6107 C   0  0  0  0  0  0  0  0  0  0  0  0
  -27.1489  -33.5818   21.0688 C   0  0  1  0  0  0  0  0  0  0  0  0
  -24.3886  -31.0175   20.5806 C   0  0  1  0  0  0  0  0  0  0  0  0
  -27.9264  -12.8590   20.1112 C   0  0  1  0  0  0  0  0  0  0  0  0
  -29.3151  -19.8456   14.5185 C   0  0  0  0  0  0  0  0  0  0  0  0
  -18.0482  -28.3267   24.1250 C   0  0  0  0  0  0  0  0  0  0  0  0
  -23.8093  -31.4308   25.1472 C   0  0  0  0  0  0  0  0  0  0  0  0
  -21.8025  -30.2676   26.0896 C   0  0  0  0  0  0  0  0  0  0  0  0
  -21.5207  -32.3665   24.7713 C   0  0  0  0  0  0  0  0  0  0  0  0
  -19.3002  -27.3586   20.6650 C   0  0  0  0  0  0  0  0  0  0  0  0
  -30.4744  -19.3486   15.3801 C   0  0  0  0  0  0  0  0  0  0  0  0
  -27.6079  -24.3992   19.7182 C   0  0  0  0  0  0  0  0  0  1  0  0
  -28.9530  -22.2621   19.2542 C   0  0  0  0  0  0  0  0  0  0  0  0
  -22.1491  -30.2281   23.5777 C   0  0  1  0  0  0  0  0  0  0  0  0
  -18.8618  -28.4864   22.8501 C   0  0  2  0  0  0  0  0  0  0  0  0
  -22.3372  -31.0601   24.8777 C   0  0  0  0  0  0  0  0  0  0  0  0
  -25.8925  -11.5173   20.4879 N   0  0  0  0  0  0  0  0  0  0  0  0
  -26.4604  -12.7353   20.4797 N   0  0  0  0  0  0  0  0  0  0  0  0
  -23.6987  -30.2922   21.6494 N   0  0  0  0  0  0  0  0  0  0  0  0
  -29.6751  -15.5227   17.5838 N   0  0  0  0  0  0  0  0  0  0  0  0
  -29.5424  -13.2468   18.2895 N   0  0  0  0  0  0  0  0  0  0  0  0
  -26.0140  -15.0300   20.8612 N   0  0  0  0  0  0  0  0  0  0  0  0
  -22.0382  -13.0466   21.6706 N   0  0  0  0  0  0  0  0  0  0  0  0
  -25.9912  -32.8304   20.6334 N   0  0  0  0  0  0  0  0  0  0  0  0
  -20.7619  -29.8859   23.2829 N   0  0  0  0  0  0  0  0  0  0  0  0
  -18.5828  -27.3200   21.9653 N   0  3  0  0  0  0  0  0  0  0  0  0
  -23.1345  -15.0595   21.5989 O   0  0  0  0  0  0  0  0  0  0  0  0
  -26.2048  -31.0257   22.0894 O   0  0  0  0  0  0  0  0  0  0  0  0
  -27.8817  -22.6710   21.3691 O   0  0  0  0  0  0  0  0  0  0  0  0
  -22.1951  -32.0314   22.0375 O   0  0  0  0  0  0  0  0  0  0  0  0
  -21.0664  -27.5872   23.2603 O   0  0  0  0  0  0  0  0  0  0  0  0
  -30.8465  -13.8681   16.5005 O   0  0  0  0  0  0  0  0  0  0  0  0
  -20.9479   -7.5941   21.3296 O   0  0  0  0  0  0  0  0  0  0  0  0
  -26.8664  -25.0664   20.7175 O   0  0  0  0  0  0  0  0  0  1  0  0
  -29.3682  -21.0311   19.8423 O   0  0  0  0  0  0  0  0  0  0  0  0
  -15.9405   -8.3232   19.1392 F   0  0  0  0  0  0  0  0  0  0  0  0
  -20.0052   -5.9070   19.3528 F   0  0  0  0  0  0  0  0  0  0  0  0
  1  2  1  0  0  0  0
  1  5  2  0  0  0  0
  2  6  2  0  0  0  0
  3  8  2  0  0  0  0
  3 17  1  0  0  0  0
  4  9  1  0  0  0  0
  4 17  2  0  0  0  0
  5 19  1  0  0  0  0
  6 21  1  0  0  0  0
  7 10  2  0  0  0  0
  7 20  1  0  0  0  0
  8 26  1  0  0  0  0
  9 26  2  0  0  0  0
 10 27  1  0  0  0  0
 11 12  2  0  0  0  0
 11 28  1  0  0  0  0
 12 30  1  0  0  0  0
 13 22  1  0  0  0  0
 13 27  2  0  0  0  0
 14 23  2  0  0  0  0
 14 29  1  0  0  0  0
 15 25  1  0  0  0  0
 15 29  2  0  0  0  0
 16 30  2  0  0  0  0
 16 31  1  0  0  0  0
 17 32  1  0  0  0  0
 18 32  1  0  0  0  0
 18 33  2  0  0  0  0
 18 34  1  0  0  0  0
 19 21  2  0  0  0  0
 19 40  1  0  0  0  0
 20 22  2  0  0  0  0
 20 41  1  0  0  0  0
 21 51  1  0  0  0  0
 22 42  1  0  0  0  0
 23 24  1  0  0  0  0
 23 43  1  0  0  0  0
 24 25  2  0  0  0  0
 24 44  1  0  0  0  0
 25 60  1  0  0  0  0
 26 82  1  0  0  0  0
 27 83  1  0  0  0  0
 28 31  2  0  0  0  0
 28 82  1  0  0  0  0
 29 84  1  0  0  0  0
 30 85  1  0  0  0  0
 31 86  1  0  0  0  0
 32 66  2  0  0  0  0
 33 67  1  0  0  0  0
 33 71  1  0  0  0  0
 34 72  1  0  0  0  0
 34 76  2  0  0  0  0
 35 52  1  0  0  0  0
 35 73  1  0  0  0  0
 35 77  2  0  0  0  0
 36 61  1  0  0  0  0
 36 62  1  0  0  0  0
 36 78  2  0  0  0  0
 37 63  1  0  0  0  0
 37 68  1  0  0  0  0
 37 79  2  0  0  0  0
 38 64  1  0  0  0  0
 38 74  1  0  0  0  0
 38 80  2  0  0  0  0
 39 69  1  0  0  0  0
 39 70  1  0  0  0  0
 39 81  2  0  0  0  0
 40 45  1  0  0  0  0
 41 52  1  0  0  0  0
 42 68  1  0  0  0  0
 43 69  1  0  0  0  0
 44 69  1  0  0  0  0
 45 47  1  0  0  0  0
 46 48  1  0  0  0  0
 46 49  1  0  0  0  0
 47 51  1  0  0  0  0
 48 53  1  0  0  0  0
 49 70  1  0  0  0  0
 50 53  1  0  0  0  0
 50 70  1  0  0  0  0
 51 73  1  0  0  0  0
 52 68  1  0  0  0  0
 53 67  1  0  0  0  0
 54 60  1  0  0  0  0
 55 64  1  0  0  0  0
 56 65  1  0  0  0  0
 57 65  1  0  0  0  0
 58 65  1  0  0  0  0
 59 75  1  0  0  0  0
 61 83  1  0  0  0  0
 62 84  1  0  0  0  0
 63 65  1  0  0  0  0
 63 74  1  0  0  0  0
 64 75  1  0  0  0  0
 66 67  1  0  0  0  0
M  CHG  1  75   1
M  ISO  4  39 100  61 101  69 100  83 101
M  END
> <Batch ID>
0131

> <Smiles>
CCc1cc(OCC(=O)[101CH2:1][101O:1]c2ccc3c(c2)CN(C(=O)C(NC(=O)C(C)NC)C(C)(C)C)C(C(=O)NC2CCCc4ccccc42)C3)cc2c1C[100N:0]([100C:0](=O)N1CCCC(n3nc(-c4ccc(Oc5ccc(F)cc5F)cc4)c(C(N)=O)c3N)C1)C2

> <Shape>
0.299

> <Color>
0.168

> <Negative vol penalty>
0.000

$$$$

  -OEChem-04052302253D

 84 92  0     1  0  0  0  0  0999 V2000
  -22.9219   -8.3658   21.8085 C   0  0  0  0  0  0  0  0  0  0  0  0
  -24.1823   -8.9413   21.9337 C   0  0  0  0  0  0  0  0  0  0  0  0
  -30.3877  -22.7640   16.9637 C   0  0  0  0  0  0  0  0  0  0  0  0
  -24.8927  -30.8628   21.1604 C   0  0  0  0  0  0  0  0  0  0  0  0
  -24.7032  -29.2482   22.9476 C   0  0  0  0  0  0  0  0  0  0  0  0
  -31.0939  -21.5868   17.2108 C   0  0  0  0  0  0  0  0  0  0  0  0
  -29.1221  -22.9482   17.5207 C   0  0  0  0  0  0  0  0  0  0  0  0
  -21.9000   -9.0617   21.1640 C   0  0  0  0  0  0  0  0  0  0  0  0
  -24.4217  -10.2127   21.4136 C   0  0  0  0  0  0  0  0  0  0  0  0
  -28.1155  -14.5071   23.7418 C   0  0  0  0  0  0  0  0  0  0  0  0
  -24.1703  -31.7853   21.9172 C   0  0  0  0  0  0  0  0  0  0  0  0
  -23.9809  -30.1707   23.7045 C   0  0  0  0  0  0  0  0  0  0  0  0
  -29.4206  -14.8889   23.4343 C   0  0  0  0  0  0  0  0  0  0  0  0
  -22.6867  -34.6894   23.5235 C   0  0  0  0  0  0  0  0  0  0  0  0
  -23.1624  -35.9996   23.5757 C   0  0  0  0  0  0  0  0  0  0  0  0
  -28.5667  -16.6477   22.0213 C   0  0  0  0  0  0  0  0  0  0  0  0
  -25.2307  -35.2103   24.5432 C   0  0  0  0  0  0  0  0  0  0  0  0
  -25.1591  -29.5942   21.6756 C   0  0  0  0  0  0  0  0  0  0  0  0
  -30.5345  -20.5937   18.0148 C   0  0  0  0  0  0  0  0  0  0  0  0
  -28.5627  -21.9550   18.3246 C   0  0  0  0  0  0  0  0  0  0  0  0
  -27.3008  -28.4600   20.8791 C   0  0  0  0  0  0  0  0  0  0  0  0
  -22.1244  -10.3463   20.6442 C   0  0  0  0  0  0  0  0  0  0  0  0
  -27.0243  -15.1870   23.1819 C   0  0  0  0  0  0  0  0  0  0  0  0
  -23.4022  -10.9259   20.7604 C   0  0  0  0  0  0  0  0  0  0  0  0
  -27.2487  -16.2742   22.3254 C   0  0  0  0  0  0  0  0  0  0  0  0
  -29.2689  -20.7778   18.5717 C   0  0  0  0  0  0  0  0  0  0  0  0
  -23.7144  -31.4393   23.1892 C   0  0  0  0  0  0  0  0  0  0  0  0
  -29.6464  -15.9575   22.5716 C   0  0  0  0  0  0  0  0  0  0  0  0
  -23.4831  -33.6396   23.9813 C   0  0  0  0  0  0  0  0  0  0  0  0
  -24.4343  -36.2601   24.0855 C   0  0  0  0  0  0  0  0  0  0  0  0
  -24.7550  -33.9001   24.4911 C   0  0  0  0  0  0  0  0  0  0  0  0
  -25.9047  -28.6406   20.8941 C   0  0  0  0  0  0  0  0  0  0  0  0
  -27.5056  -27.4409   19.9813 C   0  0  0  0  0  0  0  0  0  0  0  0
  -31.3078  -19.3639   18.2552 C   0  0  0  0  0  0  0  0  0  0  0  0
  -32.1515  -19.1675   19.2805 C   0  0  0  0  0  0  0  0  0  0  0  0
  -27.2393  -22.1780   18.8923 C   0  0  0  0  0  0  0  0  0  0  0  0
  -28.3212  -29.1515   21.6114 C   0  0  0  0  0  0  0  0  0  0  0  0
  -26.0592  -22.4033   18.0264 C   0  0  0  0  0  0  0  0  0  0  0  0
  -24.6200  -14.3776   21.2668 C   0  0  0  0  0  0  0  0  0  0  0  0
  -23.6193  -17.3995   21.8904 C   0  0  0  0  0  0  0  0  0  0  0  0
  -24.4197  -20.5793   22.8363 C   0  0  0  0  0  0  0  0  0  0  0  0
  -21.0019  -11.0403   19.9142 C   0  0  0  0  0  0  0  0  0  0  0  0
  -25.6226  -14.7797   23.5447 C   0  0  0  0  0  0  0  0  0  0  0  0
  -26.1117  -17.0499   21.7139 C   0  0  0  0  0  0  0  0  0  0  0  0
  -21.2342  -12.5366   19.7210 C   0  0  0  0  0  0  0  0  0  0  0  0
  -24.3630  -25.2625   16.6829 C   0  0  0  0  0  0  0  0  0  0  0  0
  -22.6503  -12.7962   19.2169 C   0  0  0  0  0  0  0  0  0  0  0  0
  -24.6965  -26.3717   17.6800 C   0  0  0  0  0  0  0  0  0  0  0  0
  -24.2228  -23.9115   17.3769 C   0  0  0  0  0  0  0  0  0  0  0  0
  -25.7571  -24.6311   19.1871 C   0  0  0  0  0  0  0  0  0  0  0  0
  -23.6942  -12.3133   20.2311 C   0  0  1  0  0  0  0  0  0  0  0  0
  -24.5874  -15.2166   22.5128 C   0  0  1  0  0  0  0  0  0  0  0  0
  -25.9337  -26.0060   18.5192 C   0  0  2  0  0  0  0  0  0  0  0  0
  -28.6605  -19.7167   19.4367 C   0  0  0  0  0  0  0  0  0  0  0  0
  -23.3949  -22.8379   23.2180 C   0  0  0  0  0  0  0  0  0  0  0  0
  -23.4682  -17.8379   18.8746 C   0  0  0  0  0  0  0  0  0  0  0  0
  -23.3781  -20.3022   19.3076 C   0  0  0  0  0  0  0  0  0  0  0  0
  -21.5660  -18.8194   20.1680 C   0  0  0  0  0  0  0  0  0  0  0  0
  -25.2105  -20.5846   25.6883 C   0  0  0  0  0  0  0  0  0  0  0  0
  -32.9172  -17.8915   19.4880 C   0  0  0  0  0  0  0  0  0  0  0  0
  -32.6100  -17.2768   20.8522 C   0  0  0  0  0  0  0  0  0  0  0  0
  -31.1377  -16.9124   20.9841 C   0  0  0  0  0  0  0  0  0  1  0  0
  -23.8456  -18.7522   21.2595 C   0  0  1  0  0  0  0  0  0  0  0  0
  -23.7933  -21.5153   23.8541 C   0  0  2  0  0  0  0  0  0  0  0  0
  -23.0861  -18.9123   19.9122 C   0  0  0  0  0  0  0  0  0  0  0  0
  -25.2677  -27.8035   20.0710 N   0  0  0  0  0  0  0  0  0  0  0  0
  -27.0061  -22.1924   20.1753 N   0  0  0  0  0  0  0  0  0  0  0  0
  -26.2680  -27.0871   19.5304 N   0  0  0  0  0  0  0  0  0  0  0  0
  -25.3978  -23.6120   18.1929 N   0  0  0  0  0  0  0  0  0  0  0  0
  -24.7594  -16.6093   22.0943 N   0  0  0  0  0  0  0  0  0  0  0  0
  -28.6217  -26.8220   19.5414 N   0  0  0  0  0  0  0  0  0  0  0  0
  -27.9367  -30.1721   22.4916 N   0  0  0  0  0  0  0  0  0  0  0  0
  -23.8134  -13.2569   21.3219 N   0  0  0  0  0  0  0  0  0  0  0  0
  -23.4836  -19.7398   22.2705 N   0  0  0  0  0  0  0  0  0  0  0  0
  -24.7527  -21.7955   24.9595 N   0  3  0  0  0  0  0  0  0  0  0  0
  -29.5393  -28.8837   21.4765 O   0  0  0  0  0  0  0  0  0  0  0  0
  -25.7917  -21.4937   17.2522 O   0  0  0  0  0  0  0  0  0  0  0  0
  -25.3236  -14.7221   20.3246 O   0  0  0  0  0  0  0  0  0  0  0  0
  -22.4740  -17.0595   22.1976 O   0  0  0  0  0  0  0  0  0  0  0  0
  -25.6188  -20.5942   22.5672 O   0  0  0  0  0  0  0  0  0  0  0  0
  -23.0098  -32.3393   23.9281 O   0  0  0  0  0  0  0  0  0  0  0  0
  -30.9193  -16.3318   22.2692 O   0  0  0  0  0  0  0  0  0  1  0  0
  -24.8915  -37.5182   24.1340 F   0  0  0  0  0  0  0  0  0  0  0  0
  -25.5251  -32.8955   24.9312 F   0  0  0  0  0  0  0  0  0  0  0  0
  1  2  1  0  0  0  0
  1  8  2  0  0  0  0
  2  9  2  0  0  0  0
  3  6  2  0  0  0  0
  3  7  1  0  0  0  0
  4 11  2  0  0  0  0
  4 18  1  0  0  0  0
  5 12  1  0  0  0  0
  5 18  2  0  0  0  0
  6 19  1  0  0  0  0
  7 20  2  0  0  0  0
  8 22  1  0  0  0  0
  9 24  1  0  0  0  0
 10 13  2  0  0  0  0
 10 23  1  0  0  0  0
 11 27  1  0  0  0  0
 12 27  2  0  0  0  0
 13 28  1  0  0  0  0
 14 15  2  0  0  0  0
 14 29  1  0  0  0  0
 15 30  1  0  0  0  0
 16 25  1  0  0  0  0
 16 28  2  0  0  0  0
 17 30  2  0  0  0  0
 17 31  1  0  0  0  0
 18 32  1  0  0  0  0
 19 26  2  0  0  0  0
 19 34  1  0  0  0  0
 20 26  1  0  0  0  0
 20 36  1  0  0  0  0
 21 32  1  0  0  0  0
 21 33  2  0  0  0  0
 21 37  1  0  0  0  0
 22 24  2  0  0  0  0
 22 42  1  0  0  0  0
 23 25  2  0  0  0  0
 23 43  1  0  0  0  0
 24 51  1  0  0  0  0
 25 44  1  0  0  0  0
 26 54  1  0  0  0  0
 27 81  1  0  0  0  0
 28 82  1  0  0  0  0
 29 31  2  0  0  0  0
 29 81  1  0  0  0  0
 30 83  1  0  0  0  0
 31 84  1  0  0  0  0
 32 66  2  0  0  0  0
 33 68  1  0  0  0  0
 33 71  1  0  0  0  0
 34 35  2  0  0  0  0
 35 60  1  0  0  0  0
 36 38  1  0  0  0  0
 36 67  2  0  0  0  0
 37 72  1  0  0  0  0
 37 76  2  0  0  0  0
 38 69  1  0  0  0  0
 38 77  2  0  0  0  0
 39 52  1  0  0  0  0
 39 73  1  0  0  0  0
 39 78  2  0  0  0  0
 40 63  1  0  0  0  0
 40 70  1  0  0  0  0
 40 79  2  0  0  0  0
 41 64  1  0  0  0  0
 41 74  1  0  0  0  0
 41 80  2  0  0  0  0
 42 45  1  0  0  0  0
 43 52  1  0  0  0  0
 44 70  1  0  0  0  0
 45 47  1  0  0  0  0
 46 48  1  0  0  0  0
 46 49  1  0  0  0  0
 47 51  1  0  0  0  0
 48 53  1  0  0  0  0
 49 69  1  0  0  0  0
 50 53  1  0  0  0  0
 50 69  1  0  0  0  0
 51 73  1  0  0  0  0
 52 70  1  0  0  0  0
 53 68  1  0  0  0  0
 55 64  1  0  0  0  0
 56 65  1  0  0  0  0
 57 65  1  0  0  0  0
 58 65  1  0  0  0  0
 59 75  1  0  0  0  0
 60 61  1  0  0  0  0
 61 62  1  0  0  0  0
 62 82  1  0  0  0  0
 63 65  1  0  0  0  0
 63 74  1  0  0  0  0
 64 75  1  0  0  0  0
 66 68  1  0  0  0  0
M  CHG  1  75   1
M  ISO  4  36 100  38 100  62 101  82 101
M  END
> <Batch ID>
0131

> <Smiles>
CNC(C)C(=O)NC(C(=O)N1Cc2cc([101O:1][101CH2:1]CCC=Cc3cccc([100C:0](=N)[100C:0](=O)N4CCCC(n5nc(-c6ccc(Oc7ccc(F)cc7F)cc6)c(C(N)=O)c5N)C4)c3C)ccc2CC1C(=O)NC1CCCc2ccccc21)C(C)(C)C

> <Shape>
0.226

> <Color>
0.078

> <Negative vol penalty>
0.000

$$$$

  -OEChem-04052302253D

 82 90  0     1  0  0  0  0  0999 V2000
  -21.2914  -23.0643   19.4725 C   0  0  0  0  0  0  0  0  0  0  0  0
  -22.5093  -22.4569   19.1845 C   0  0  0  0  0  0  0  0  0  0  0  0
  -26.0943  -31.0179   22.2697 C   0  0  0  0  0  0  0  0  0  0  0  0
  -26.6462  -31.8763   20.0798 C   0  0  0  0  0  0  0  0  0  0  0  0
  -20.4951  -22.5718   20.5057 C   0  0  0  0  0  0  0  0  0  0  0  0
  -22.9323  -21.3571   19.9302 C   0  0  0  0  0  0  0  0  0  0  0  0
  -26.1498  -16.5549   17.9073 C   0  0  0  0  0  0  0  0  0  0  0  0
  -26.3429  -32.2733   22.8244 C   0  0  0  0  0  0  0  0  0  0  0  0
  -26.8947  -33.1317   20.6345 C   0  0  0  0  0  0  0  0  0  0  0  0
  -27.5079  -16.2447   17.9641 C   0  0  0  0  0  0  0  0  0  0  0  0
  -24.7432  -35.2404   23.0900 C   0  0  0  0  0  0  0  0  0  0  0  0
  -23.8223  -35.7349   24.0136 C   0  0  0  0  0  0  0  0  0  0  0  0
  -31.7042  -20.1507   20.3822 C   0  0  0  0  0  0  0  0  0  0  0  0
  -27.1160  -14.9185   19.9407 C   0  0  0  0  0  0  0  0  0  0  0  0
  -25.5595  -35.8402   25.6894 C   0  0  0  0  0  0  0  0  0  0  0  0
  -30.3353  -19.1854   21.8556 C   0  0  0  0  0  0  0  0  0  0  0  0
  -26.2460  -30.8194   20.8973 C   0  0  0  0  0  0  0  0  0  0  0  0
  -30.5967  -20.3833   21.2321 C   0  0  0  0  0  0  0  0  0  0  0  0
  -24.7646  -29.0404   19.8257 C   0  0  0  0  0  0  0  0  0  0  0  0
  -20.9041  -21.4595   21.2581 C   0  0  0  0  0  0  0  0  0  0  0  0
  -25.2650  -16.0573   18.8747 C   0  0  0  0  0  0  0  0  0  0  0  0
  -22.1414  -20.8501   20.9753 C   0  0  0  0  0  0  0  0  0  0  0  0
  -25.7468  -15.2218   19.8924 C   0  0  0  0  0  0  0  0  0  0  0  0
  -26.7431  -33.3302   22.0069 C   0  0  0  0  0  0  0  0  0  0  0  0
  -27.9917  -15.4287   18.9825 C   0  0  0  0  0  0  0  0  0  0  0  0
  -26.0723  -35.0457   23.4661 C   0  0  0  0  0  0  0  0  0  0  0  0
  -24.2305  -36.0348   25.3133 C   0  0  0  0  0  0  0  0  0  0  0  0
  -26.4804  -35.3456   24.7658 C   0  0  0  0  0  0  0  0  0  0  0  0
  -25.9898  -29.5227   20.3237 C   0  0  0  0  0  0  0  0  0  0  0  0
  -32.0408  -18.8272   20.5470 C   0  0  0  0  0  0  0  0  0  0  0  0
  -25.0461  -27.7664   19.3963 C   0  0  0  0  0  0  0  0  0  0  0  0
  -29.8818  -21.5819   21.4260 C   0  0  0  0  0  0  0  0  0  0  0  0
  -30.1172  -22.7949   20.8182 C   0  0  0  0  0  0  0  0  0  0  0  0
  -23.4864  -29.6862   19.7572 C   0  0  0  0  0  0  0  0  0  0  0  0
  -29.2678  -23.9643   21.1209 C   0  0  0  0  0  0  0  0  0  0  0  0
  -23.3677  -17.3656   21.0638 C   0  0  0  0  0  0  0  0  0  0  0  0
  -31.5471  -16.0422   19.2746 C   0  0  0  0  0  0  0  0  0  0  0  0
  -22.3963  -14.3002   21.4902 C   0  0  0  0  0  0  0  0  0  0  0  0
  -23.0971  -10.9725   21.2039 C   0  0  0  0  0  0  0  0  0  0  0  0
  -20.0314  -20.9922   22.3960 C   0  0  0  0  0  0  0  0  0  0  0  0
  -23.7985  -16.3795   18.7840 C   0  0  0  0  0  0  0  0  0  0  0  0
  -24.8350  -14.6455   20.9436 C   0  0  0  0  0  0  0  0  0  0  0  0
  -20.3783  -19.5916   22.8942 C   0  0  0  0  0  0  0  0  0  0  0  0
  -28.5993  -25.0775   17.6937 C   0  0  0  0  0  0  0  0  0  0  0  0
  -21.8860  -19.4480   23.0764 C   0  0  0  0  0  0  0  0  0  0  0  0
  -27.7748  -26.3363   17.9493 C   0  0  0  0  0  0  0  0  0  0  0  0
  -29.6668  -24.8655   18.7662 C   0  0  0  0  0  0  0  0  0  0  0  0
  -28.2979  -26.1155   20.4106 C   0  0  0  0  0  0  0  0  0  0  0  0
  -22.6232  -19.6398   21.7455 C   0  0  1  0  0  0  0  0  0  0  0  0
  -23.0718  -16.2365   20.1177 C   0  0  1  0  0  0  0  0  0  0  0  0
  -27.1870  -26.3229   19.3693 C   0  0  1  0  0  0  0  0  0  0  0  0
  -22.1237   -8.7071   21.6707 C   0  0  0  0  0  0  0  0  0  0  0  0
  -23.0130  -14.6494   24.4579 C   0  0  0  0  0  0  0  0  0  0  0  0
  -22.9421  -12.1580   24.6945 C   0  0  0  0  0  0  0  0  0  0  0  0
  -20.9026  -13.3989   23.9711 C   0  0  0  0  0  0  0  0  0  0  0  0
  -23.1620  -10.2265   18.3407 C   0  0  0  0  0  0  0  0  0  0  0  0
  -33.1132  -17.9512   19.9450 C   0  0  0  0  0  0  0  0  0  0  0  0
  -32.6004  -17.0443   18.8247 C   0  0  0  0  0  0  0  0  0  0  0  0
  -30.2288  -16.0951   18.5275 C   0  0  0  0  0  0  0  0  0  1  0  0
  -22.8377  -13.1504   22.3631 C   0  0  1  0  0  0  0  0  0  0  0  0
  -22.2871   -9.8171   20.6440 C   0  0  2  0  0  0  0  0  0  0  0  0
  -22.4416  -13.3515   23.8531 C   0  0  0  0  0  0  0  0  0  0  0  0
  -26.9762  -28.6280   20.2211 N   0  0  0  0  0  0  0  0  0  0  0  0
  -26.3711  -27.5706   19.6536 N   0  0  0  0  0  0  0  0  0  0  0  0
  -29.0892  -24.9152   20.1177 N   0  0  0  0  0  0  0  0  0  0  0  0
  -23.4105  -14.9947   20.8157 N   0  0  0  0  0  0  0  0  0  0  0  0
  -24.2870  -26.8058   18.8277 N   0  0  0  0  0  0  0  0  0  0  0  0
  -23.3727  -30.9960   20.2428 N   0  0  0  0  0  0  0  0  0  0  0  0
  -22.5175  -18.4471   20.9327 N   0  0  0  0  0  0  0  0  0  0  0  0
  -22.2881  -11.9428   21.7564 N   0  0  0  0  0  0  0  0  0  0  0  0
  -22.9583   -9.2491   19.4407 N   0  3  0  0  0  0  0  0  0  0  0  0
  -22.4712  -29.1127   19.2946 O   0  0  0  0  0  0  0  0  0  0  0  0
  -28.7714  -24.0303   22.2469 O   0  0  0  0  0  0  0  0  0  0  0  0
  -24.2976  -17.2627   21.8553 O   0  0  0  0  0  0  0  0  0  0  0  0
  -31.7545  -15.2154   20.1611 O   0  0  0  0  0  0  0  0  0  0  0  0
  -21.1951  -14.5677   21.4042 O   0  0  0  0  0  0  0  0  0  0  0  0
  -24.3248  -11.0088   21.1591 O   0  0  0  0  0  0  0  0  0  0  0  0
  -31.2112  -18.2317   21.4435 O   0  0  0  0  0  0  0  0  0  0  0  0
  -26.9856  -34.5554   22.5478 O   0  0  0  0  0  0  0  0  0  0  0  0
  -29.3169  -15.1249   19.0407 O   0  0  0  0  0  0  0  0  0  1  0  0
  -23.3464  -36.5111   26.1996 F   0  0  0  0  0  0  0  0  0  0  0  0
  -27.7562  -35.1618   25.1326 F   0  0  0  0  0  0  0  0  0  0  0  0
  1  2  1  0  0  0  0
  1  5  2  0  0  0  0
  2  6  2  0  0  0  0
  3  8  2  0  0  0  0
  3 17  1  0  0  0  0
  4  9  1  0  0  0  0
  4 17  2  0  0  0  0
  5 20  1  0  0  0  0
  6 22  1  0  0  0  0
  7 10  2  0  0  0  0
  7 21  1  0  0  0  0
  8 24  1  0  0  0  0
  9 24  2  0  0  0  0
 10 25  1  0  0  0  0
 11 12  2  0  0  0  0
 11 26  1  0  0  0  0
 12 27  1  0  0  0  0
 13 18  1  0  0  0  0
 13 30  2  0  0  0  0
 14 23  1  0  0  0  0
 14 25  2  0  0  0  0
 15 27  2  0  0  0  0
 15 28  1  0  0  0  0
 16 18  2  0  0  0  0
 16 78  1  0  0  0  0
 17 29  1  0  0  0  0
 18 32  1  0  0  0  0
 19 29  1  0  0  0  0
 19 31  2  0  0  0  0
 19 34  1  0  0  0  0
 20 22  2  0  0  0  0
 20 40  1  0  0  0  0
 21 23  2  0  0  0  0
 21 41  1  0  0  0  0
 22 49  1  0  0  0  0
 23 42  1  0  0  0  0
 24 79  1  0  0  0  0
 25 80  1  0  0  0  0
 26 28  2  0  0  0  0
 26 79  1  0  0  0  0
 27 81  1  0  0  0  0
 28 82  1  0  0  0  0
 29 63  2  0  0  0  0
 30 57  1  0  0  0  0
 30 78  1  0  0  0  0
 31 64  1  0  0  0  0
 31 67  1  0  0  0  0
 32 33  2  0  0  0  0
 33 35  1  0  0  0  0
 34 68  1  0  0  0  0
 34 72  2  0  0  0  0
 35 65  1  0  0  0  0
 35 73  2  0  0  0  0
 36 50  1  0  0  0  0
 36 69  1  0  0  0  0
 36 74  2  0  0  0  0
 37 58  1  0  0  0  0
 37 59  1  0  0  0  0
 37 75  2  0  0  0  0
 38 60  1  0  0  0  0
 38 66  1  0  0  0  0
 38 76  2  0  0  0  0
 39 61  1  0  0  0  0
 39 70  1  0  0  0  0
 39 77  2  0  0  0  0
 40 43  1  0  0  0  0
 41 50  1  0  0  0  0
 42 66  1  0  0  0  0
 43 45  1  0  0  0  0
 44 46  1  0  0  0  0
 44 47  1  0  0  0  0
 45 49  1  0  0  0  0
 46 51  1  0  0  0  0
 47 65  1  0  0  0  0
 48 51  1  0  0  0  0
 48 65  1  0  0  0  0
 49 69  1  0  0  0  0
 50 66  1  0  0  0  0
 51 64  1  0  0  0  0
 52 61  1  0  0  0  0
 53 62  1  0  0  0  0
 54 62  1  0  0  0  0
 55 62  1  0  0  0  0
 56 71  1  0  0  0  0
 57 58  1  0  0  0  0
 59 80  1  0  0  0  0
 60 62  1  0  0  0  0
 60 70  1  0  0  0  0
 61 71  1  0  0  0  0
 63 64  1  0  0  0  0
M  CHG  1  71   1
M  ISO  4  33 100  35 100  59 101  80 101
M  END
> <Batch ID>
0131

> <Smiles>
CNC(C)C(=O)NC(C(=O)N1Cc2cc([101O:1][101CH2:1]C(=O)CCc3cc(C=[100CH:0][100C:0](=O)N4CCCC(n5nc(-c6ccc(Oc7ccc(F)cc7F)cc6)c(C(N)=O)c5N)C4)co3)ccc2CC1C(=O)NC1CCCc2ccccc21)C(C)(C)C

> <Shape>
0.231

> <Color>
0.057

> <Negative vol penalty>
0.000

$$$$

  -OEChem-04052302253D

 85 94  0     1  0  0  0  0  0999 V2000
  -31.8783  -30.3483   28.4005 C   0  0  0  0  0  0  0  0  0  0  0  0
  -31.3998  -29.6575   27.2918 C   0  0  0  0  0  0  0  0  0  0  0  0
  -24.5136   -9.0178   22.1156 C   0  0  0  0  0  0  0  0  0  0  0  0
  -24.1397   -8.7073   19.7490 C   0  0  0  0  0  0  0  0  0  0  0  0
  -31.0218  -31.1715   29.1304 C   0  0  0  0  0  0  0  0  0  0  0  0
  -30.0643  -29.7886   26.9130 C   0  0  0  0  0  0  0  0  0  0  0  0
  -29.5151  -30.4300   21.9198 C   0  0  0  0  0  0  0  0  0  0  0  0
  -23.3490   -8.3022   22.3935 C   0  0  0  0  0  0  0  0  0  0  0  0
  -22.9751   -7.9917   20.0269 C   0  0  0  0  0  0  0  0  0  0  0  0
  -29.6241  -29.2958   21.1164 C   0  0  0  0  0  0  0  0  0  0  0  0
  -22.3840   -5.0638   22.5134 C   0  0  0  0  0  0  0  0  0  0  0  0
  -22.4398   -4.1008   23.5210 C   0  0  0  0  0  0  0  0  0  0  0  0
  -29.7300  -21.8021   22.1242 C   0  0  0  0  0  0  0  0  0  0  0  0
  -29.6757  -20.5029   22.6831 C   0  0  0  0  0  0  0  0  0  0  0  0
  -27.2188  -29.1615   20.9900 C   0  0  0  0  0  0  0  0  0  0  0  0
  -20.7235   -5.2817   24.7445 C   0  0  0  0  0  0  0  0  0  0  0  0
  -24.9089   -9.2204   20.7933 C   0  0  0  0  0  0  0  0  0  0  0  0
  -27.4141   -9.4443   20.3673 C   0  0  0  0  0  0  0  0  0  0  0  0
  -29.6775  -31.3203   28.7546 C   0  0  0  0  0  0  0  0  0  0  0  0
  -28.2549  -30.9329   22.2740 C   0  0  0  0  0  0  0  0  0  0  0  0
  -29.1887  -30.6135   27.6394 C   0  0  0  0  0  0  0  0  0  0  0  0
  -27.0965  -30.3037   21.7959 C   0  0  0  0  0  0  0  0  0  0  0  0
  -22.5797   -7.7891   21.3491 C   0  0  0  0  0  0  0  0  0  0  0  0
  -28.4759  -28.6597   20.6537 C   0  0  0  0  0  0  0  0  0  0  0  0
  -21.4981   -6.1358   22.6215 C   0  0  0  0  0  0  0  0  0  0  0  0
  -21.6095   -4.2097   24.6365 C   0  0  0  0  0  0  0  0  0  0  0  0
  -20.6678   -6.2447   23.7370 C   0  0  0  0  0  0  0  0  0  0  0  0
  -26.1116   -9.9600   20.5056 C   0  0  0  0  0  0  0  0  0  0  0  0
  -28.9279  -21.7712   21.0072 C   0  0  0  0  0  0  0  0  0  0  0  0
  -28.8441  -19.7708   21.8680 C   0  0  0  0  0  0  0  0  0  0  0  0
  -28.1922  -10.5440   20.0992 C   0  0  0  0  0  0  0  0  0  0  0  0
  -29.0070  -22.6731   18.7891 C   0  0  0  0  0  0  0  0  0  0  0  0
  -28.6507  -22.8825   20.0714 C   0  0  0  0  0  0  0  0  0  0  0  0
  -28.0177  -24.1534   20.4687 C   0  0  0  0  0  0  0  0  0  0  0  0
  -28.0541  -25.2205   19.6357 C   0  0  0  0  0  0  0  0  0  0  0  0
  -28.4772  -18.4131   22.0151 C   0  0  0  0  0  0  0  0  0  0  0  0
  -27.6619  -17.6854   21.1824 C   0  0  0  0  0  0  0  0  0  0  0  0
  -27.8792   -8.0921   20.4717 C   0  0  0  0  0  0  0  0  0  0  0  0
  -27.3797  -16.2641   21.4675 C   0  0  0  0  0  0  0  0  0  0  0  0
  -26.7002  -31.3632   25.0129 C   0  0  0  0  0  0  0  0  0  0  0  0
  -24.5210  -32.8139   23.0975 C   0  0  0  0  0  0  0  0  0  0  0  0
  -23.1802  -33.1597   19.9782 C   0  0  0  0  0  0  0  0  0  0  0  0
  -28.7781  -32.1845   29.6026 C   0  0  0  0  0  0  0  0  0  0  0  0
  -28.1545  -32.1729   23.1194 C   0  0  0  0  0  0  0  0  0  0  0  0
  -25.7203  -30.8157   22.1308 C   0  0  0  0  0  0  0  0  0  0  0  0
  -28.8162  -23.7004   17.7191 C   0  0  0  0  0  0  0  0  0  0  0  0
  -28.6893  -25.1240   18.2641 C   0  0  0  0  0  0  0  0  0  0  0  0
  -27.4692  -32.5616   28.9134 C   0  0  0  0  0  0  0  0  0  0  0  0
  -28.0062  -14.8849   18.1303 C   0  0  0  0  0  0  0  0  0  0  0  0
  -26.8360  -31.3357   28.2629 C   0  0  0  0  0  0  0  0  0  0  0  0
  -27.6592  -13.4148   18.3502 C   0  0  0  0  0  0  0  0  0  0  0  0
  -27.1264  -15.8115   18.9681 C   0  0  0  0  0  0  0  0  0  0  0  0
  -26.7901  -14.0176   20.6440 C   0  0  0  0  0  0  0  0  0  0  0  0
  -27.7524  -30.7492   27.1824 C   0  0  1  0  0  0  0  0  0  0  0  0
  -26.8164  -32.2971   23.8415 C   0  0  1  0  0  0  0  0  0  0  0  0
  -27.6946  -13.0652   19.8464 C   0  0  1  0  0  0  0  0  0  0  0  0
  -27.3484  -24.1669   21.8206 C   0  0  0  0  0  0  0  0  0  0  0  0
  -21.3857  -34.3931   18.7311 C   0  0  0  0  0  0  0  0  0  0  0  0
  -22.4150  -30.9651   24.3042 C   0  0  0  0  0  0  0  0  0  0  0  0
  -20.9022  -31.5600   22.4001 C   0  0  0  0  0  0  0  0  0  0  0  0
  -21.6667  -33.3297   23.9833 C   0  0  0  0  0  0  0  0  0  0  0  0
  -25.1527  -34.4689   18.2022 C   0  0  0  0  0  0  0  0  0  0  0  0
  -27.5263  -26.5932   19.9581 C   0  0  0  0  0  0  0  0  0  1  0  0
  -23.3077  -32.3592   22.3229 C   0  0  1  0  0  0  0  0  0  0  0  0
  -22.8457  -34.3914   19.1565 C   0  0  2  0  0  0  0  0  0  0  0  0
  -22.0987  -32.0425   23.2477 C   0  0  0  0  0  0  0  0  0  0  0  0
  -26.0610  -11.2843   20.3393 N   0  0  0  0  0  0  0  0  0  0  0  0
  -27.3415  -11.6100   20.0939 N   0  0  0  0  0  0  0  0  0  0  0  0
  -27.1306  -15.4212   20.3859 N   0  0  0  0  0  0  0  0  0  0  0  0
  -25.6743  -32.0275   22.9656 N   0  0  0  0  0  0  0  0  0  0  0  0
  -29.5141  -10.6934   19.8701 N   0  0  0  0  0  0  0  0  0  0  0  0
  -26.9463   -7.0844   20.7520 N   0  0  0  0  0  0  0  0  0  0  0  0
  -27.6783  -31.5403   25.9728 N   0  0  0  0  0  0  0  0  0  0  0  0
  -23.0452  -33.3954   21.3301 N   0  0  0  0  0  0  0  0  0  0  0  0
  -23.6923  -34.4422   17.9311 N   0  3  0  0  0  0  0  0  0  0  0  0
  -29.0889   -7.7886   20.3371 O   0  0  0  0  0  0  0  0  0  0  0  0
  -27.3770  -15.9106   22.6481 O   0  0  0  0  0  0  0  0  0  0  0  0
  -25.7897  -30.5436   25.0442 O   0  0  0  0  0  0  0  0  0  0  0  0
  -24.4504  -33.8335   23.7882 O   0  0  0  0  0  0  0  0  0  0  0  0
  -23.5232  -32.0938   19.4714 O   0  0  0  0  0  0  0  0  0  0  0  0
  -28.3840  -20.5367   20.8441 O   0  0  0  0  0  0  0  0  0  0  0  0
  -21.4434   -7.0906   21.6199 O   0  0  0  0  0  0  0  0  0  0  0  0
  -28.5794  -27.5521   19.8699 O   0  0  0  0  0  0  0  0  0  1  0  0
  -21.6620   -3.2841   25.6032 F   0  0  0  0  0  0  0  0  0  0  0  0
  -19.8138   -7.2717   23.8458 F   0  0  0  0  0  0  0  0  0  0  0  0
  1  2  1  0  0  0  0
  1  5  2  0  0  0  0
  2  6  2  0  0  0  0
  3  8  2  0  0  0  0
  3 17  1  0  0  0  0
  4  9  1  0  0  0  0
  4 17  2  0  0  0  0
  5 19  1  0  0  0  0
  6 21  1  0  0  0  0
  7 10  2  0  0  0  0
  7 20  1  0  0  0  0
  8 23  1  0  0  0  0
  9 23  2  0  0  0  0
 10 24  1  0  0  0  0
 11 12  2  0  0  0  0
 11 25  1  0  0  0  0
 12 26  1  0  0  0  0
 13 14  1  0  0  0  0
 13 29  2  0  0  0  0
 14 30  2  0  0  0  0
 15 22  1  0  0  0  0
 15 24  2  0  0  0  0
 16 26  2  0  0  0  0
 16 27  1  0  0  0  0
 17 28  1  0  0  0  0
 18 28  1  0  0  0  0
 18 31  2  0  0  0  0
 18 38  1  0  0  0  0
 19 21  2  0  0  0  0
 19 43  1  0  0  0  0
 20 22  2  0  0  0  0
 20 44  1  0  0  0  0
 21 54  1  0  0  0  0
 22 45  1  0  0  0  0
 23 82  1  0  0  0  0
 24 83  1  0  0  0  0
 25 27  2  0  0  0  0
 25 82  1  0  0  0  0
 26 84  1  0  0  0  0
 27 85  1  0  0  0  0
 28 67  2  0  0  0  0
 29 33  1  0  0  0  0
 29 81  1  0  0  0  0
 30 36  1  0  0  0  0
 30 81  1  0  0  0  0
 31 68  1  0  0  0  0
 31 71  1  0  0  0  0
 32 33  2  0  0  0  0
 32 46  1  0  0  0  0
 33 34  1  0  0  0  0
 34 35  2  0  0  0  0
 34 57  1  0  0  0  0
 35 47  1  0  0  0  0
 35 63  1  0  0  0  0
 36 37  2  0  0  0  0
 37 39  1  0  0  0  0
 38 72  1  0  0  0  0
 38 76  2  0  0  0  0
 39 69  1  0  0  0  0
 39 77  2  0  0  0  0
 40 55  1  0  0  0  0
 40 73  1  0  0  0  0
 40 78  2  0  0  0  0
 41 64  1  0  0  0  0
 41 70  1  0  0  0  0
 41 79  2  0  0  0  0
 42 65  1  0  0  0  0
 42 74  1  0  0  0  0
 42 80  2  0  0  0  0
 43 48  1  0  0  0  0
 44 55  1  0  0  0  0
 45 70  1  0  0  0  0
 46 47  1  0  0  0  0
 48 50  1  0  0  0  0
 49 51  1  0  0  0  0
 49 52  1  0  0  0  0
 50 54  1  0  0  0  0
 51 56  1  0  0  0  0
 52 69  1  0  0  0  0
 53 56  1  0  0  0  0
 53 69  1  0  0  0  0
 54 73  1  0  0  0  0
 55 70  1  0  0  0  0
 56 68  1  0  0  0  0
 58 65  1  0  0  0  0
 59 66  1  0  0  0  0
 60 66  1  0  0  0  0
 61 66  1  0  0  0  0
 62 75  1  0  0  0  0
 63 83  1  0  0  0  0
 64 66  1  0  0  0  0
 64 74  1  0  0  0  0
 65 75  1  0  0  0  0
 67 68  1  0  0  0  0
M  CHG  1  75   1
M  ISO  4  37 100  39 100  63 101  83 101
M  END
> <Batch ID>
0131

> <Smiles>
CNC(C)C(=O)NC(C(=O)N1Cc2cc([101O:1][101CH2:1]C3=C(C)C(c4ccc(C=[100CH:0][100C:0](=O)N5CCCC(n6nc(-c7ccc(Oc8ccc(F)cc8F)cc7)c(C(N)=O)c6N)C5)o4)=CCC3)ccc2CC1C(=O)NC1CCCc2ccccc21)C(C)(C)C

> <Shape>
0.256

> <Color>
0.074

> <Negative vol penalty>
0.000

$$$$

  -OEChem-04052302253D

 88 96  0     1  0  0  0  0  0999 V2000
  -19.4909  -24.2448   22.6057 C   0  0  0  0  0  0  0  0  0  0  0  0
  -20.6909  -24.5461   21.9696 C   0  0  0  0  0  0  0  0  0  0  0  0
  -25.6955  -12.7454   21.5287 C   0  0  0  0  0  0  0  0  0  0  0  0
  -25.7789  -13.0723   19.1364 C   0  0  0  0  0  0  0  0  0  0  0  0
  -18.6226  -25.2711   22.9757 C   0  0  0  0  0  0  0  0  0  0  0  0
  -21.0228  -25.8737   21.7021 C   0  0  0  0  0  0  0  0  0  0  0  0
  -25.8334  -26.9459   22.8656 C   0  0  0  0  0  0  0  0  0  0  0  0
  -24.6676  -11.8167   21.3660 C   0  0  0  0  0  0  0  0  0  0  0  0
  -24.7510  -12.1435   18.9736 C   0  0  0  0  0  0  0  0  0  0  0  0
  -26.8142  -26.5273   21.9675 C   0  0  0  0  0  0  0  0  0  0  0  0
  -24.3613   -8.5736   20.4597 C   0  0  0  0  0  0  0  0  0  0  0  0
  -24.4442   -7.3821   21.1802 C   0  0  0  0  0  0  0  0  0  0  0  0
  -26.9248  -28.7586   21.0576 C   0  0  0  0  0  0  0  0  0  0  0  0
  -30.3481  -20.8423   14.7297 C   0  0  0  0  0  0  0  0  0  0  0  0
  -29.0310  -22.2228   16.7649 C   0  0  0  0  0  0  0  0  0  0  0  0
  -22.3520   -7.8975   22.2731 C   0  0  0  0  0  0  0  0  0  0  0  0
  -26.2511  -13.3733   20.4139 C   0  0  0  0  0  0  0  0  0  0  0  0
  -28.6966  -14.0766   20.5944 C   0  0  0  0  0  0  0  0  0  0  0  0
  -18.9485  -26.6126   22.7213 C   0  0  0  0  0  0  0  0  0  0  0  0
  -25.3824  -28.2736   22.8591 C   0  0  0  0  0  0  0  0  0  0  0  0
  -20.1575  -26.9188   22.0678 C   0  0  0  0  0  0  0  0  0  0  0  0
  -25.9400  -29.1922   21.9584 C   0  0  0  0  0  0  0  0  0  0  0  0
  -29.9285  -22.1564   14.5228 C   0  0  0  0  0  0  0  0  0  0  0  0
  -30.1091  -20.2185   15.9542 C   0  0  0  0  0  0  0  0  0  0  0  0
  -29.2700  -22.8466   15.5404 C   0  0  0  0  0  0  0  0  0  0  0  0
  -29.4506  -20.9087   16.9718 C   0  0  0  0  0  0  0  0  0  0  0  0
  -24.1954  -11.5157   20.0885 C   0  0  0  0  0  0  0  0  0  0  0  0
  -27.3580  -27.4330   21.0614 C   0  0  0  0  0  0  0  0  0  0  0  0
  -23.2738   -9.4271   20.6459 C   0  0  0  0  0  0  0  0  0  0  0  0
  -23.4395   -7.0441   22.0869 C   0  0  0  0  0  0  0  0  0  0  0  0
  -22.2692   -9.0890   21.5526 C   0  0  0  0  0  0  0  0  0  0  0  0
  -27.3125  -14.3333   20.5814 C   0  0  0  0  0  0  0  0  0  0  0  0
  -29.2726  -15.3092   20.7821 C   0  0  0  0  0  0  0  0  0  0  0  0
  -29.0171  -27.3728   16.4916 C   0  0  0  0  0  0  0  0  0  0  0  0
  -29.3988  -12.8350   20.4496 C   0  0  0  0  0  0  0  0  0  0  0  0
  -29.4649  -26.7489   15.3853 C   0  0  0  0  0  0  0  0  0  0  0  0
  -28.9076  -26.7737   17.8541 C   0  0  0  0  0  0  0  0  0  0  0  0
  -22.5870  -29.6905   22.3282 C   0  0  0  0  0  0  0  0  0  0  0  0
  -24.2044  -32.3512   23.2375 C   0  0  0  0  0  0  0  0  0  0  0  0
  -27.2036  -33.9432   23.5797 C   0  0  0  0  0  0  0  0  0  0  0  0
  -28.5563  -20.8525   19.3262 C   0  0  0  0  0  0  0  0  0  0  0  0
  -17.9564  -27.6845   23.0973 C   0  0  0  0  0  0  0  0  0  0  0  0
  -24.3429  -28.7158   23.8523 C   0  0  0  0  0  0  0  0  0  0  0  0
  -25.5048  -30.6337   21.9244 C   0  0  0  0  0  0  0  0  0  0  0  0
  -18.5543  -29.0890   23.1142 C   0  0  0  0  0  0  0  0  0  0  0  0
  -27.7097  -19.6506   22.5691 C   0  0  0  0  0  0  0  0  0  0  0  0
  -19.3882  -29.3293   21.8597 C   0  0  0  0  0  0  0  0  0  0  0  0
  -27.6560  -18.1317   22.3901 C   0  0  0  0  0  0  0  0  0  0  0  0
  -27.1775  -20.3856   21.3402 C   0  0  0  0  0  0  0  0  0  0  0  0
  -27.7438  -18.4777   19.8882 C   0  0  0  0  0  0  0  0  0  0  0  0
  -20.5642  -28.3482   21.7827 C   0  0  1  0  0  0  0  0  0  0  0  0
  -23.5902  -29.9676   23.4120 C   0  0  1  0  0  0  0  0  0  0  0  0
  -28.3300  -17.6950   21.0746 C   0  0  2  0  0  0  0  0  0  0  0  0
  -30.1951  -22.8035   13.2034 C   0  0  0  0  0  0  0  0  0  0  0  0
  -30.5698  -18.8102   16.1481 C   0  0  0  0  0  0  0  0  0  0  0  0
  -30.9204  -28.0336   13.7788 C   0  0  0  0  0  0  0  0  0  0  0  0
  -28.2035  -36.1243   24.3149 C   0  0  0  0  0  0  0  0  0  0  0  0
  -23.2871  -33.6473   20.6320 C   0  0  0  0  0  0  0  0  0  0  0  0
  -25.0443  -35.3991   20.9660 C   0  0  0  0  0  0  0  0  0  0  0  0
  -23.2029  -35.1488   22.6302 C   0  0  0  0  0  0  0  0  0  0  0  0
  -28.7692  -32.6357   25.7241 C   0  0  0  0  0  0  0  0  0  0  0  0
  -28.8066  -24.2686   15.3396 C   0  0  0  0  0  0  0  0  0  0  0  0
  -29.5693  -27.3722   14.0110 C   0  0  0  0  0  0  0  0  0  0  0  0
  -29.9305  -25.3048   15.4918 C   0  0  0  0  0  0  0  0  0  0  0  0
  -28.3700  -27.6992   18.9258 C   0  0  0  0  0  0  0  0  0  1  0  0
  -25.0250  -33.3992   22.5252 C   0  0  1  0  0  0  0  0  0  0  0  0
  -27.8062  -34.7185   24.7375 C   0  0  2  0  0  0  0  0  0  0  0  0
  -24.1468  -34.3711   21.6874 C   0  0  0  0  0  0  0  0  0  0  0  0
  -27.0265  -15.6273   20.7478 N   0  0  0  0  0  0  0  0  0  0  0  0
  -28.2388  -16.1948   20.8671 N   0  0  0  0  0  0  0  0  0  0  0  0
  -24.4812  -31.0161   22.9111 N   0  0  0  0  0  0  0  0  0  0  0  0
  -27.8650  -19.9236   20.1324 N   0  0  0  0  0  0  0  0  0  0  0  0
  -30.5576  -15.7112   20.8811 N   0  0  0  0  0  0  0  0  0  0  0  0
  -28.6527  -11.6631   20.2643 N   0  0  0  0  0  0  0  0  0  0  0  0
  -29.1987  -20.2923   18.2225 N   0  0  0  0  0  0  0  0  0  0  0  0
  -21.6257  -28.7606   22.6758 N   0  0  0  0  0  0  0  0  0  0  0  0
  -25.8295  -34.0544   23.5508 N   0  0  0  0  0  0  0  0  0  0  0  0
  -29.0191  -34.0219   25.2518 N   0  3  0  0  0  0  0  0  0  0  0  0
  -30.6502  -12.7645   20.5001 O   0  0  0  0  0  0  0  0  0  0  0  0
  -29.2426  -25.6182   18.0944 O   0  0  0  0  0  0  0  0  0  0  0  0
  -22.6774  -30.2781   21.2567 O   0  0  0  0  0  0  0  0  0  0  0  0
  -23.3542  -32.7040   24.0587 O   0  0  0  0  0  0  0  0  0  0  0  0
  -27.8841  -33.3061   22.7788 O   0  0  0  0  0  0  0  0  0  0  0  0
  -28.5996  -22.0523   19.6101 O   0  0  0  0  0  0  0  0  0  0  0  0
  -23.1926  -10.6092   19.9293 O   0  0  0  0  0  0  0  0  0  0  0  0
  -28.3150  -27.0268   20.1833 O   0  0  0  0  0  0  0  0  0  1  0  0
  -23.5185   -5.8991   22.7776 F   0  0  0  0  0  0  0  0  0  0  0  0
  -21.2215   -9.9044   21.7349 F   0  0  0  0  0  0  0  0  0  0  0  0
  1  2  1  0  0  0  0
  1  5  2  0  0  0  0
  2  6  2  0  0  0  0
  3  8  2  0  0  0  0
  3 17  1  0  0  0  0
  4  9  1  0  0  0  0
  4 17  2  0  0  0  0
  5 19  1  0  0  0  0
  6 21  1  0  0  0  0
  7 10  2  0  0  0  0
  7 20  1  0  0  0  0
  8 27  1  0  0  0  0
  9 27  2  0  0  0  0
 10 28  1  0  0  0  0
 11 12  2  0  0  0  0
 11 29  1  0  0  0  0
 12 30  1  0  0  0  0
 13 22  1  0  0  0  0
 13 28  2  0  0  0  0
 14 23  1  0  0  0  0
 14 24  2  0  0  0  0
 15 25  1  0  0  0  0
 15 26  2  0  0  0  0
 16 30  2  0  0  0  0
 16 31  1  0  0  0  0
 17 32  1  0  0  0  0
 18 32  1  0  0  0  0
 18 33  2  0  0  0  0
 18 35  1  0  0  0  0
 19 21  2  0  0  0  0
 19 42  1  0  0  0  0
 20 22  2  0  0  0  0
 20 43  1  0  0  0  0
 21 51  1  0  0  0  0
 22 44  1  0  0  0  0
 23 25  2  0  0  0  0
 23 54  1  0  0  0  0
 24 26  1  0  0  0  0
 24 55  1  0  0  0  0
 25 62  1  0  0  0  0
 26 75  1  0  0  0  0
 27 85  1  0  0  0  0
 28 86  1  0  0  0  0
 29 31  2  0  0  0  0
 29 85  1  0  0  0  0
 30 87  1  0  0  0  0
 31 88  1  0  0  0  0
 32 69  2  0  0  0  0
 33 70  1  0  0  0  0
 33 73  1  0  0  0  0
 34 36  2  0  0  0  0
 34 37  1  0  0  0  0
 35 74  1  0  0  0  0
 35 79  2  0  0  0  0
 36 63  1  0  0  0  0
 36 64  1  0  0  0  0
 37 65  1  0  0  0  0
 37 80  2  0  0  0  0
 38 52  1  0  0  0  0
 38 76  1  0  0  0  0
 38 81  2  0  0  0  0
 39 66  1  0  0  0  0
 39 71  1  0  0  0  0
 39 82  2  0  0  0  0
 40 67  1  0  0  0  0
 40 77  1  0  0  0  0
 40 83  2  0  0  0  0
 41 72  1  0  0  0  0
 41 75  1  0  0  0  0
 41 84  2  0  0  0  0
 42 45  1  0  0  0  0
 43 52  1  0  0  0  0
 44 71  1  0  0  0  0
 45 47  1  0  0  0  0
 46 48  1  0  0  0  0
 46 49  1  0  0  0  0
 47 51  1  0  0  0  0
 48 53  1  0  0  0  0
 49 72  1  0  0  0  0
 50 53  1  0  0  0  0
 50 72  1  0  0  0  0
 51 76  1  0  0  0  0
 52 71  1  0  0  0  0
 53 70  1  0  0  0  0
 56 63  1  0  0  0  0
 57 67  1  0  0  0  0
 58 68  1  0  0  0  0
 59 68  1  0  0  0  0
 60 68  1  0  0  0  0
 61 78  1  0  0  0  0
 62 64  1  0  0  0  0
 65 86  1  0  0  0  0
 66 68  1  0  0  0  0
 66 77  1  0  0  0  0
 67 78  1  0  0  0  0
 69 70  1  0  0  0  0
M  CHG  1  78   1
M  ISO  4  41 100  65 101  75 100  86 101
M  END
> <Batch ID>
0131

> <Smiles>
CCC(=CC(=O)[101CH2:1][101O:1]c1ccc2c(c1)CN(C(=O)C(NC(=O)C(C)NC)C(C)(C)C)C(C(=O)NC1CCCc3ccccc31)C2)CCc1cc([100NH:0][100C:0](=O)N2CCCC(n3nc(-c4ccc(Oc5ccc(F)cc5F)cc4)c(C(N)=O)c3N)C2)c(C)cc1C

> <Shape>
0.304

> <Color>
0.100

> <Negative vol penalty>
0.000

$$$$

  -OEChem-04052302253D

 86 94  0     1  0  0  0  0  0999 V2000
  -28.3606  -32.0966   27.2103 C   0  0  0  0  0  0  0  0  0  0  0  0
  -28.4922  -31.2626   26.1046 C   0  0  0  0  0  0  0  0  0  0  0  0
  -23.0938  -10.7580   21.7948 C   0  0  0  0  0  0  0  0  0  0  0  0
  -22.7424  -12.9223   20.7803 C   0  0  0  0  0  0  0  0  0  0  0  0
  -31.2387  -18.8038   19.9000 C   0  0  0  0  0  0  0  0  0  0  0  0
  -27.1145  -32.2609   27.8137 C   0  0  0  0  0  0  0  0  0  0  0  0
  -27.3778  -30.5914   25.6024 C   0  0  0  0  0  0  0  0  0  0  0  0
  -27.0857  -30.8193   20.5519 C   0  0  0  0  0  0  0  0  0  0  0  0
  -31.0306  -17.4247   19.9193 C   0  0  0  0  0  0  0  0  0  0  0  0
  -21.9788  -10.9584   22.6085 C   0  0  0  0  0  0  0  0  0  0  0  0
  -21.6274  -13.1227   21.5940 C   0  0  0  0  0  0  0  0  0  0  0  0
  -27.9170  -29.9666   19.8269 C   0  0  0  0  0  0  0  0  0  0  0  0
  -21.0076  -14.0227   24.7935 C   0  0  0  0  0  0  0  0  0  0  0  0
  -20.8726  -15.2649   25.4134 C   0  0  0  0  0  0  0  0  0  0  0  0
  -29.1948  -19.0946   18.6450 C   0  0  0  0  0  0  0  0  0  0  0  0
  -26.0671  -28.4541   19.4963 C   0  0  0  0  0  0  0  0  0  0  0  0
  -18.7667  -15.6024   24.2783 C   0  0  0  0  0  0  0  0  0  0  0  0
  -23.4757  -11.7400   20.8807 C   0  0  0  0  0  0  0  0  0  0  0  0
  -30.3207  -19.6387   19.2629 C   0  0  0  0  0  0  0  0  0  0  0  0
  -24.6536  -10.9400   18.7640 C   0  0  0  0  0  0  0  0  0  0  0  0
  -25.9824  -31.5990   27.3128 C   0  0  0  0  0  0  0  0  0  0  0  0
  -25.7393  -30.4899   20.7642 C   0  0  0  0  0  0  0  0  0  0  0  0
  -26.1157  -30.7460   26.2006 C   0  0  0  0  0  0  0  0  0  0  0  0
  -25.2202  -29.3055   20.2221 C   0  0  0  0  0  0  0  0  0  0  0  0
  -28.9867  -17.7154   18.6643 C   0  0  0  0  0  0  0  0  0  0  0  0
  -29.9047  -16.8805   19.3014 C   0  0  0  0  0  0  0  0  0  0  0  0
  -21.2456  -12.1407   22.5081 C   0  0  0  0  0  0  0  0  0  0  0  0
  -27.4085  -28.7824   19.3015 C   0  0  0  0  0  0  0  0  0  0  0  0
  -20.0222  -13.5704   23.9159 C   0  0  0  0  0  0  0  0  0  0  0  0
  -19.7521  -16.0548   25.1558 C   0  0  0  0  0  0  0  0  0  0  0  0
  -18.9018  -14.3602   23.6583 C   0  0  0  0  0  0  0  0  0  0  0  0
  -24.6277  -11.5338   20.0402 C   0  0  0  0  0  0  0  0  0  0  0  0
  -25.9753  -10.9815   18.3928 C   0  0  0  0  0  0  0  0  0  0  0  0
  -30.5408  -21.0942   19.2430 C   0  0  0  0  0  0  0  0  0  0  0  0
  -29.9757  -21.9486   18.3758 C   0  0  0  0  0  0  0  0  0  0  0  0
  -23.5790  -10.3994   17.9839 C   0  0  0  0  0  0  0  0  0  0  0  0
  -23.9472  -29.9164   23.3261 C   0  0  0  0  0  0  0  0  0  0  0  0
  -21.5464  -29.8327   21.1463 C   0  0  0  0  0  0  0  0  0  0  0  0
  -20.5906  -29.3480   17.9062 C   0  0  0  0  0  0  0  0  0  0  0  0
  -30.5369  -14.5234   19.9265 C   0  0  0  0  0  0  0  0  0  0  0  0
  -24.6655  -31.7708   28.0275 C   0  0  0  0  0  0  0  0  0  0  0  0
  -24.8490  -31.4334   21.5257 C   0  0  0  0  0  0  0  0  0  0  0  0
  -23.7768  -28.9159   20.4044 C   0  0  0  0  0  0  0  0  0  0  0  0
  -23.4623  -31.3167   27.2050 C   0  0  0  0  0  0  0  0  0  0  0  0
  -30.3888  -10.9809   20.2517 C   0  0  0  0  0  0  0  0  0  0  0  0
  -23.7318  -29.9554   26.5717 C   0  0  0  0  0  0  0  0  0  0  0  0
  -28.8977  -10.6660   20.1122 C   0  0  0  0  0  0  0  0  0  0  0  0
  -30.6243  -12.2875   21.0073 C   0  0  0  0  0  0  0  0  0  0  0  0
  -28.4106  -13.1357   20.3370 C   0  0  0  0  0  0  0  0  0  0  0  0
  -24.9256  -30.0202   25.6115 C   0  0  1  0  0  0  0  0  0  0  0  0
  -23.6212  -30.7490   22.1185 C   0  0  1  0  0  0  0  0  0  0  0  0
  -28.1217  -11.8618   19.5261 C   0  0  2  0  0  0  0  0  0  0  0  0
  -26.8725  -15.9294   15.9726 C   0  0  0  0  0  0  0  0  0  0  0  0
  -18.5564  -29.3086   16.4373 C   0  0  0  0  0  0  0  0  0  0  0  0
  -20.7944  -27.0954   22.2651 C   0  0  0  0  0  0  0  0  0  0  0  0
  -19.4275  -26.7059   20.2041 C   0  0  0  0  0  0  0  0  0  0  0  0
  -18.8501  -28.5801   21.7457 C   0  0  0  0  0  0  0  0  0  0  0  0
  -21.6081  -31.5723   16.2401 C   0  0  0  0  0  0  0  0  0  0  0  0
  -27.7720  -17.1596   17.9945 C   0  0  0  0  0  0  0  0  0  0  0  0
  -30.2350  -23.4288   18.3860 C   0  0  0  0  0  0  0  0  0  0  0  0
  -28.1040  -16.5239   16.6372 C   0  0  0  0  0  0  0  0  0  0  0  0
  -28.9536  -24.2571   18.5233 C   0  0  0  0  0  0  0  0  0  0  0  0
  -29.2055  -25.7645   18.4645 C   0  0  0  0  0  0  0  0  0  0  0  0
  -27.9159  -26.5541   18.6431 C   0  0  0  0  0  0  0  0  0  1  0  0
  -20.9127  -28.7594   20.2946 C   0  0  1  0  0  0  0  0  0  0  0  0
  -19.6911  -30.1573   16.9895 C   0  0  2  0  0  0  0  0  0  0  0  0
  -20.0239  -27.7913   21.1254 C   0  0  0  0  0  0  0  0  0  0  0  0
  -25.8369  -11.9237   20.4522 N   0  0  0  0  0  0  0  0  0  0  0  0
  -26.6351  -11.5742   19.4290 N   0  0  0  0  0  0  0  0  0  0  0  0
  -22.9480  -29.8682   21.1618 N   0  0  0  0  0  0  0  0  0  0  0  0
  -29.8611  -13.3761   20.3932 N   0  0  0  0  0  0  0  0  0  0  0  0
  -26.6260  -10.5684   17.2845 N   0  0  0  0  0  0  0  0  0  0  0  0
  -22.2827  -10.4373   18.5153 N   0  0  0  0  0  0  0  0  0  0  0  0
  -29.7113  -15.4771   19.3321 N   0  0  0  0  0  0  0  0  0  0  0  0
  -24.5329  -30.6259   24.3571 N   0  0  0  0  0  0  0  0  0  0  0  0
  -20.2029  -29.4530   19.2252 N   0  0  0  0  0  0  0  0  0  0  0  0
  -20.4734  -30.6995   15.8428 N   0  3  0  0  0  0  0  0  0  0  0  0
  -23.7653   -9.8828   16.8561 O   0  0  0  0  0  0  0  0  0  0  0  0
  -23.6853  -28.7193   23.3233 O   0  0  0  0  0  0  0  0  0  0  0  0
  -20.8245  -30.6154   21.7691 O   0  0  0  0  0  0  0  0  0  0  0  0
  -21.5399  -28.6856   17.4930 O   0  0  0  0  0  0  0  0  0  0  0  0
  -31.7616  -14.6384   20.0208 O   0  0  0  0  0  0  0  0  0  0  0  0
  -20.1573  -12.3365   23.3018 O   0  0  0  0  0  0  0  0  0  0  0  0
  -28.2179  -27.9480   18.5940 O   0  0  0  0  0  0  0  0  0  1  0  0
  -19.6218  -17.2469   25.7524 F   0  0  0  0  0  0  0  0  0  0  0  0
  -17.9512  -13.9305   22.8171 F   0  0  0  0  0  0  0  0  0  0  0  0
  1  2  1  0  0  0  0
  1  6  2  0  0  0  0
  2  7  2  0  0  0  0
  3 10  2  0  0  0  0
  3 18  1  0  0  0  0
  4 11  1  0  0  0  0
  4 18  2  0  0  0  0
  5  9  2  0  0  0  0
  5 19  1  0  0  0  0
  6 21  1  0  0  0  0
  7 23  1  0  0  0  0
  8 12  2  0  0  0  0
  8 22  1  0  0  0  0
  9 26  1  0  0  0  0
 10 27  1  0  0  0  0
 11 27  2  0  0  0  0
 12 28  1  0  0  0  0
 13 14  2  0  0  0  0
 13 29  1  0  0  0  0
 14 30  1  0  0  0  0
 15 19  2  0  0  0  0
 15 25  1  0  0  0  0
 16 24  1  0  0  0  0
 16 28  2  0  0  0  0
 17 30  2  0  0  0  0
 17 31  1  0  0  0  0
 18 32  1  0  0  0  0
 19 34  1  0  0  0  0
 20 32  1  0  0  0  0
 20 33  2  0  0  0  0
 20 36  1  0  0  0  0
 21 23  2  0  0  0  0
 21 41  1  0  0  0  0
 22 24  2  0  0  0  0
 22 42  1  0  0  0  0
 23 50  1  0  0  0  0
 24 43  1  0  0  0  0
 25 26  2  0  0  0  0
 25 59  1  0  0  0  0
 26 74  1  0  0  0  0
 27 83  1  0  0  0  0
 28 84  1  0  0  0  0
 29 31  2  0  0  0  0
 29 83  1  0  0  0  0
 30 85  1  0  0  0  0
 31 86  1  0  0  0  0
 32 68  2  0  0  0  0
 33 69  1  0  0  0  0
 33 72  1  0  0  0  0
 34 35  2  0  0  0  0
 35 60  1  0  0  0  0
 36 73  1  0  0  0  0
 36 78  2  0  0  0  0
 37 51  1  0  0  0  0
 37 75  1  0  0  0  0
 37 79  2  0  0  0  0
 38 65  1  0  0  0  0
 38 70  1  0  0  0  0
 38 80  2  0  0  0  0
 39 66  1  0  0  0  0
 39 76  1  0  0  0  0
 39 81  2  0  0  0  0
 40 71  1  0  0  0  0
 40 74  1  0  0  0  0
 40 82  2  0  0  0  0
 41 44  1  0  0  0  0
 42 51  1  0  0  0  0
 43 70  1  0  0  0  0
 44 46  1  0  0  0  0
 45 47  1  0  0  0  0
 45 48  1  0  0  0  0
 46 50  1  0  0  0  0
 47 52  1  0  0  0  0
 48 71  1  0  0  0  0
 49 52  1  0  0  0  0
 49 71  1  0  0  0  0
 50 75  1  0  0  0  0
 51 70  1  0  0  0  0
 52 69  1  0  0  0  0
 53 61  1  0  0  0  0
 54 66  1  0  0  0  0
 55 67  1  0  0  0  0
 56 67  1  0  0  0  0
 57 67  1  0  0  0  0
 58 77  1  0  0  0  0
 59 61  1  0  0  0  0
 60 62  1  0  0  0  0
 62 63  1  0  0  0  0
 63 64  1  0  0  0  0
 64 84  1  0  0  0  0
 65 67  1  0  0  0  0
 65 76  1  0  0  0  0
 66 77  1  0  0  0  0
 68 69  1  0  0  0  0
M  CHG  1  77   1
M  ISO  4  40 100  64 101  74 100  84 101
M  END
> <Batch ID>
0131

> <Smiles>
CCCc1cc(C=CCCC[101CH2:1][101O:1]c2ccc3c(c2)CN(C(=O)C(NC(=O)C(C)NC)C(C)(C)C)C(C(=O)NC2CCCc4ccccc42)C3)ccc1[100NH:0][100C:0](=O)N1CCCC(n2nc(-c3ccc(Oc4ccc(F)cc4F)cc3)c(C(N)=O)c2N)C1

> <Shape>
0.273

> <Color>
0.082

> <Negative vol penalty>
0.000

$$$$

  -OEChem-04052302253D

 86 94  0     1  0  0  0  0  0999 V2000
  -32.3159  -33.6483   21.5310 C   0  0  0  0  0  0  0  0  0  0  0  0
  -32.1526  -32.3951   20.9494 C   0  0  0  0  0  0  0  0  0  0  0  0
  -22.9743  -10.0027   20.2393 C   0  0  0  0  0  0  0  0  0  0  0  0
  -24.4105   -9.2562   22.0329 C   0  0  0  0  0  0  0  0  0  0  0  0
  -31.5052  -34.0309   22.5988 C   0  0  0  0  0  0  0  0  0  0  0  0
  -31.1791  -31.5234   21.4360 C   0  0  0  0  0  0  0  0  0  0  0  0
  -27.8426  -27.5466   18.1865 C   0  0  0  0  0  0  0  0  0  0  0  0
  -28.0035  -17.8061   23.4294 C   0  0  0  0  0  0  0  0  0  0  0  0
  -22.3195   -8.7712   20.2510 C   0  0  0  0  0  0  0  0  0  0  0  0
  -23.7557   -8.0246   22.0446 C   0  0  0  0  0  0  0  0  0  0  0  0
  -27.9726  -26.1769   17.9615 C   0  0  0  0  0  0  0  0  0  0  0  0
  -27.9896  -18.8147   22.4660 C   0  0  0  0  0  0  0  0  0  0  0  0
  -20.8586   -6.7570   23.2365 C   0  0  0  0  0  0  0  0  0  0  0  0
  -20.5033   -6.2254   24.4761 C   0  0  0  0  0  0  0  0  0  0  0  0
  -29.5386  -17.5452   21.1147 C   0  0  0  0  0  0  0  0  0  0  0  0
  -26.4158  -25.7411   19.7520 C   0  0  0  0  0  0  0  0  0  0  0  0
  -21.8684   -4.2817   24.0340 C   0  0  0  0  0  0  0  0  0  0  0  0
  -24.0198  -10.2452   21.1302 C   0  0  0  0  0  0  0  0  0  0  0  0
  -29.5526  -16.5367   22.0782 C   0  0  0  0  0  0  0  0  0  0  0  0
  -24.3639  -12.6644   21.8628 C   0  0  0  0  0  0  0  0  0  0  0  0
  -30.5148  -33.1672   23.0925 C   0  0  0  0  0  0  0  0  0  0  0  0
  -27.0051  -28.0243   19.2048 C   0  0  0  0  0  0  0  0  0  0  0  0
  -30.3552  -31.8943   22.5123 C   0  0  0  0  0  0  0  0  0  0  0  0
  -26.2749  -27.1175   19.9862 C   0  0  0  0  0  0  0  0  0  0  0  0
  -28.7851  -16.6671   23.2355 C   0  0  0  0  0  0  0  0  0  0  0  0
  -22.7102   -7.7821   21.1536 C   0  0  0  0  0  0  0  0  0  0  0  0
  -28.7571  -18.6842   21.3086 C   0  0  0  0  0  0  0  0  0  0  0  0
  -27.2614  -25.2738   18.7462 C   0  0  0  0  0  0  0  0  0  0  0  0
  -21.7189   -6.0509   22.3955 C   0  0  0  0  0  0  0  0  0  0  0  0
  -21.0082   -4.9878   24.8749 C   0  0  0  0  0  0  0  0  0  0  0  0
  -22.2238   -4.8133   22.7943 C   0  0  0  0  0  0  0  0  0  0  0  0
  -24.6970  -11.5170   21.1183 C   0  0  0  0  0  0  0  0  0  0  0  0
  -25.3052  -13.5957   21.4978 C   0  0  0  0  0  0  0  0  0  0  0  0
  -29.1156  -16.0195   26.7399 C   0  0  0  0  0  0  0  0  0  0  0  0
  -29.5997  -15.9668   25.4939 C   0  0  0  0  0  0  0  0  0  0  0  0
  -30.3773  -15.3578   21.8504 C   0  0  0  0  0  0  0  0  0  0  0  0
  -23.2990  -12.8701   22.8006 C   0  0  0  0  0  0  0  0  0  0  0  0
  -30.6569  -14.8673   20.4812 C   0  0  0  0  0  0  0  0  0  0  0  0
  -27.4426  -29.7163   21.8599 C   0  0  0  0  0  0  0  0  0  0  0  0
  -28.0349  -21.8101   19.4890 C   0  0  0  0  0  0  0  0  0  0  0  0
  -24.2018  -29.6405   21.9774 C   0  0  0  0  0  0  0  0  0  0  0  0
  -21.3057  -28.0773   21.0742 C   0  0  0  0  0  0  0  0  0  0  0  0
  -29.6942  -33.6066   24.2792 C   0  0  0  0  0  0  0  0  0  0  0  0
  -26.8553  -29.5058   19.4172 C   0  0  0  0  0  0  0  0  0  0  0  0
  -25.3470  -27.5798   21.0787 C   0  0  0  0  0  0  0  0  0  0  0  0
  -28.4352  -32.7702   24.4924 C   0  0  0  0  0  0  0  0  0  0  0  0
  -28.7082  -13.5666   17.7669 C   0  0  0  0  0  0  0  0  0  0  0  0
  -28.7584  -31.2830   24.3890 C   0  0  0  0  0  0  0  0  0  0  0  0
  -27.4821  -12.9771   18.4633 C   0  0  0  0  0  0  0  0  0  0  0  0
  -29.9633  -13.4108   18.6195 C   0  0  0  0  0  0  0  0  0  0  0  0
  -28.6068  -13.4001   20.6952 C   0  0  0  0  0  0  0  0  0  0  0  0
  -29.2936  -30.9304   22.9959 C   0  0  1  0  0  0  0  0  0  0  0  0
  -26.3692  -29.8623   20.8187 C   0  0  1  0  0  0  0  0  0  0  0  0
  -27.3145  -13.5635   19.8763 C   0  0  2  0  0  0  0  0  0  0  0  0
  -18.8163  -28.2278   21.3526 C   0  0  0  0  0  0  0  0  0  0  0  0
  -24.4550  -28.5433   24.8132 C   0  0  0  0  0  0  0  0  0  0  0  0
  -22.0577  -27.8340   24.6782 C   0  0  0  0  0  0  0  0  0  0  0  0
  -22.6528  -30.2509   24.5124 C   0  0  0  0  0  0  0  0  0  0  0  0
  -20.8832  -28.4007   18.1628 C   0  0  0  0  0  0  0  0  0  0  0  0
  -28.7814  -15.6024   24.2835 C   0  0  0  0  0  0  0  0  0  0  0  0
  -27.9325  -20.8054   20.6182 C   0  0  0  0  0  0  0  0  0  0  0  0
  -27.2213  -23.0769   19.6563 C   0  0  0  0  0  0  0  0  0  1  0  0
  -23.1752  -28.7102   22.5771 C   0  0  1  0  0  0  0  0  0  0  0  0
  -20.0101  -28.6142   20.4933 C   0  0  2  0  0  0  0  0  0  0  0  0
  -23.1041  -28.8255   24.1260 C   0  0  0  0  0  0  0  0  0  0  0  0
  -25.7662  -11.7004   20.3391 N   0  0  0  0  0  0  0  0  0  0  0  0
  -30.9180  -14.6669   22.8157 N   0  0  0  0  0  0  0  0  0  0  0  0
  -26.1131  -12.9738   20.5919 N   0  0  0  0  0  0  0  0  0  0  0  0
  -29.7582  -13.9445   19.9645 N   0  0  0  0  0  0  0  0  0  0  0  0
  -25.2392  -29.0379   21.2518 N   0  0  0  0  0  0  0  0  0  0  0  0
  -25.5123  -14.8777   21.8666 N   0  0  0  0  0  0  0  0  0  0  0  0
  -22.4223  -11.8077   23.0594 N   0  0  0  0  0  0  0  0  0  0  0  0
  -28.2079  -30.8523   22.0422 N   0  0  0  0  0  0  0  0  0  0  0  0
  -21.9167  -28.9988   21.8980 N   0  0  0  0  0  0  0  0  0  0  0  0
  -19.7952  -28.0751   19.1206 N   0  3  0  0  0  0  0  0  0  0  0  0
  -23.1201  -13.9686   23.3791 O   0  0  0  0  0  0  0  0  0  0  0  0
  -31.6570  -15.3308   19.9490 O   0  0  0  0  0  0  0  0  0  0  0  0
  -27.5663  -28.6522   22.4550 O   0  0  0  0  0  0  0  0  0  0  0  0
  -28.7348  -21.6092   18.4975 O   0  0  0  0  0  0  0  0  0  0  0  0
  -24.0836  -30.8575   22.1405 O   0  0  0  0  0  0  0  0  0  0  0  0
  -21.7312  -26.9514   20.8252 O   0  0  0  0  0  0  0  0  0  0  0  0
  -22.0713   -6.5804   21.1654 O   0  0  0  0  0  0  0  0  0  0  0  0
  -28.7438  -19.6790   20.3598 O   0  0  0  0  0  0  0  0  0  0  0  0
  -27.3870  -23.9362   18.5291 O   0  0  0  0  0  0  0  0  0  1  0  0
  -20.6680   -4.4782   26.0660 F   0  0  0  0  0  0  0  0  0  0  0  0
  -23.0515   -4.1309   21.9912 F   0  0  0  0  0  0  0  0  0  0  0  0
  1  2  1  0  0  0  0
  1  5  2  0  0  0  0
  2  6  2  0  0  0  0
  3  9  2  0  0  0  0
  3 18  1  0  0  0  0
  4 10  1  0  0  0  0
  4 18  2  0  0  0  0
  5 21  1  0  0  0  0
  6 23  1  0  0  0  0
  7 11  2  0  0  0  0
  7 22  1  0  0  0  0
  8 12  2  0  0  0  0
  8 25  1  0  0  0  0
  9 26  1  0  0  0  0
 10 26  2  0  0  0  0
 11 28  1  0  0  0  0
 12 27  1  0  0  0  0
 13 14  2  0  0  0  0
 13 29  1  0  0  0  0
 14 30  1  0  0  0  0
 15 19  1  0  0  0  0
 15 27  2  0  0  0  0
 16 24  1  0  0  0  0
 16 28  2  0  0  0  0
 17 30  2  0  0  0  0
 17 31  1  0  0  0  0
 18 32  1  0  0  0  0
 19 25  2  0  0  0  0
 19 36  1  0  0  0  0
 20 32  1  0  0  0  0
 20 33  2  0  0  0  0
 20 37  1  0  0  0  0
 21 23  2  0  0  0  0
 21 43  1  0  0  0  0
 22 24  2  0  0  0  0
 22 44  1  0  0  0  0
 23 52  1  0  0  0  0
 24 45  1  0  0  0  0
 25 60  1  0  0  0  0
 26 82  1  0  0  0  0
 27 83  1  0  0  0  0
 28 84  1  0  0  0  0
 29 31  2  0  0  0  0
 29 82  1  0  0  0  0
 30 85  1  0  0  0  0
 31 86  1  0  0  0  0
 32 66  2  0  0  0  0
 33 68  1  0  0  0  0
 33 71  1  0  0  0  0
 34 35  2  0  0  0  0
 35 60  1  0  0  0  0
 36 38  1  0  0  0  0
 36 67  2  0  0  0  0
 37 72  1  0  0  0  0
 37 76  2  0  0  0  0
 38 69  1  0  0  0  0
 38 77  2  0  0  0  0
 39 53  1  0  0  0  0
 39 73  1  0  0  0  0
 39 78  2  0  0  0  0
 40 61  1  0  0  0  0
 40 62  1  0  0  0  0
 40 79  2  0  0  0  0
 41 63  1  0  0  0  0
 41 70  1  0  0  0  0
 41 80  2  0  0  0  0
 42 64  1  0  0  0  0
 42 74  1  0  0  0  0
 42 81  2  0  0  0  0
 43 46  1  0  0  0  0
 44 53  1  0  0  0  0
 45 70  1  0  0  0  0
 46 48  1  0  0  0  0
 47 49  1  0  0  0  0
 47 50  1  0  0  0  0
 48 52  1  0  0  0  0
 49 54  1  0  0  0  0
 50 69  1  0  0  0  0
 51 54  1  0  0  0  0
 51 69  1  0  0  0  0
 52 73  1  0  0  0  0
 53 70  1  0  0  0  0
 54 68  1  0  0  0  0
 55 64  1  0  0  0  0
 56 65  1  0  0  0  0
 57 65  1  0  0  0  0
 58 65  1  0  0  0  0
 59 75  1  0  0  0  0
 61 83  1  0  0  0  0
 62 84  1  0  0  0  0
 63 65  1  0  0  0  0
 63 74  1  0  0  0  0
 64 75  1  0  0  0  0
 66 68  1  0  0  0  0
M  CHG  1  75   1
M  ISO  4  36 100  38 100  62 101  84 101
M  END
> <Batch ID>
0131

> <Smiles>
C=CCc1ccc(OCC(=O)[101CH2:1][101O:1]c2ccc3c(c2)CN(C(=O)C(NC(=O)C(C)NC)C(C)(C)C)C(C(=O)NC2CCCc4ccccc42)C3)cc1[100C:0](=N)[100C:0](=O)N1CCCC(n2nc(-c3ccc(Oc4ccc(F)cc4F)cc3)c(C(N)=O)c2N)C1

> <Shape>
0.313

> <Color>
0.150

> <Negative vol penalty>
0.000

$$$$

  -OEChem-04052302253D

 84 92  0     1  0  0  0  0  0999 V2000
  -29.0692  -33.3397   26.6568 C   0  0  0  0  0  0  0  0  0  0  0  0
  -29.5600  -32.0836   26.9984 C   0  0  0  0  0  0  0  0  0  0  0  0
  -23.0779   -9.8652   19.9399 C   0  0  0  0  0  0  0  0  0  0  0  0
  -23.8353   -9.8743   22.2341 C   0  0  0  0  0  0  0  0  0  0  0  0
  -29.0528  -33.7410   25.3216 C   0  0  0  0  0  0  0  0  0  0  0  0
  -30.0335  -31.2275   26.0048 C   0  0  0  0  0  0  0  0  0  0  0  0
  -34.6774  -27.2619   26.4685 C   0  0  0  0  0  0  0  0  0  0  0  0
  -22.3346   -8.7118   20.1898 C   0  0  0  0  0  0  0  0  0  0  0  0
  -23.0918   -8.7208   22.4841 C   0  0  0  0  0  0  0  0  0  0  0  0
  -34.7181  -25.8889   26.7068 C   0  0  0  0  0  0  0  0  0  0  0  0
  -19.8636   -7.9212   23.0836 C   0  0  0  0  0  0  0  0  0  0  0  0
  -19.1053   -7.8815   24.2536 C   0  0  0  0  0  0  0  0  0  0  0  0
  -34.8506  -25.4867   24.3320 C   0  0  0  0  0  0  0  0  0  0  0  0
  -30.4933  -18.3479   24.0482 C   0  0  0  0  0  0  0  0  0  0  0  0
  -32.0592  -16.5998   22.5400 C   0  0  0  0  0  0  0  0  0  0  0  0
  -20.3473   -5.9454   24.9927 C   0  0  0  0  0  0  0  0  0  0  0  0
  -23.8283  -10.4465   20.9621 C   0  0  0  0  0  0  0  0  0  0  0  0
  -24.1686  -12.9718   20.8407 C   0  0  0  0  0  0  0  0  0  0  0  0
  -29.5353  -32.8931   24.3122 C   0  0  0  0  0  0  0  0  0  0  0  0
  -34.7120  -27.7581   25.1574 C   0  0  0  0  0  0  0  0  0  0  0  0
  -30.0223  -31.6172   24.6548 C   0  0  0  0  0  0  0  0  0  0  0  0
  -34.8128  -26.8665   24.0798 C   0  0  0  0  0  0  0  0  0  0  0  0
  -29.8890  -17.4697   23.1487 C   0  0  0  0  0  0  0  0  0  0  0  0
  -31.8806  -18.3520   24.1937 C   0  0  0  0  0  0  0  0  0  0  0  0
  -30.6720  -16.5957   22.3946 C   0  0  0  0  0  0  0  0  0  0  0  0
  -22.3415   -8.1395   21.4619 C   0  0  0  0  0  0  0  0  0  0  0  0
  -34.8018  -25.0009   25.6384 C   0  0  0  0  0  0  0  0  0  0  0  0
  -20.8636   -6.9729   22.8680 C   0  0  0  0  0  0  0  0  0  0  0  0
  -19.3472   -6.8936   25.2082 C   0  0  0  0  0  0  0  0  0  0  0  0
  -32.6636  -17.4780   23.4395 C   0  0  0  0  0  0  0  0  0  0  0  0
  -21.1055   -5.9851   23.8226 C   0  0  0  0  0  0  0  0  0  0  0  0
  -24.5969  -11.6377   20.7044 C   0  0  0  0  0  0  0  0  0  0  0  0
  -25.2606  -13.7218   20.4782 C   0  0  0  0  0  0  0  0  0  0  0  0
  -22.8973  -13.4870   21.2579 C   0  0  0  0  0  0  0  0  0  0  0  0
  -32.7310  -29.4676   23.3528 C   0  0  0  0  0  0  0  0  0  0  0  0
  -33.7474  -21.5338   25.4776 C   0  0  0  0  0  0  0  0  0  0  0  0
  -35.2183  -29.4306   21.2709 C   0  0  0  0  0  0  0  0  0  0  0  0
  -38.0654  -27.8934   20.1857 C   0  0  0  0  0  0  0  0  0  0  0  0
  -30.7259  -14.7712   20.6582 C   0  0  0  0  0  0  0  0  0  0  0  0
  -29.4535  -33.3522   22.8779 C   0  0  0  0  0  0  0  0  0  0  0  0
  -34.6943  -29.2430   24.9183 C   0  0  0  0  0  0  0  0  0  0  0  0
  -34.8734  -27.3491   22.6543 C   0  0  0  0  0  0  0  0  0  0  0  0
  -30.3201  -32.5324   21.9256 C   0  0  0  0  0  0  0  0  0  0  0  0
  -29.6157  -12.3551   18.2903 C   0  0  0  0  0  0  0  0  0  0  0  0
  -30.1342  -31.0407   22.1848 C   0  0  0  0  0  0  0  0  0  0  0  0
  -28.1758  -12.0628   18.7185 C   0  0  0  0  0  0  0  0  0  0  0  0
  -30.5294  -12.5853   19.4929 C   0  0  0  0  0  0  0  0  0  0  0  0
  -28.6204  -13.3094   20.8715 C   0  0  0  0  0  0  0  0  0  0  0  0
  -30.5676  -30.6699   23.6082 C   0  0  1  0  0  0  0  0  0  0  0  0
  -34.2169  -29.6172   23.5185 C   0  0  1  0  0  0  0  0  0  0  0  0
  -27.6490  -13.1347   19.6927 C   0  0  2  0  0  0  0  0  0  0  0  0
  -28.4007  -17.4868   23.0134 C   0  0  0  0  0  0  0  0  0  0  0  0
  -39.8598  -28.0753   18.4409 C   0  0  0  0  0  0  0  0  0  0  0  0
  -33.2827  -28.3549   19.1718 C   0  0  0  0  0  0  0  0  0  0  0  0
  -35.2614  -27.6725   17.7979 C   0  0  0  0  0  0  0  0  0  0  0  0
  -34.8838  -30.0807   18.3275 C   0  0  0  0  0  0  0  0  0  0  0  0
  -40.1841  -28.1966   22.2299 C   0  0  0  0  0  0  0  0  0  0  0  0
  -32.5320  -19.3036   25.1685 C   0  0  0  0  0  0  0  0  0  0  0  0
  -33.1380  -20.5392   24.5001 C   0  0  0  0  0  0  0  0  0  0  0  0
  -34.2836  -22.8126   24.8645 C   0  0  0  0  0  0  0  0  0  1  0  0
  -35.6646  -28.5175   20.1547 C   0  0  1  0  0  0  0  0  0  0  0  0
  -39.4429  -28.4403   19.8571 C   0  0  2  0  0  0  0  0  0  0  0  0
  -34.7700  -28.6469   18.8896 C   0  0  0  0  0  0  0  0  0  0  0  0
  -25.8623  -11.5425   20.2876 N   0  0  0  0  0  0  0  0  0  0  0  0
  -26.2384  -12.8262   20.1588 N   0  0  0  0  0  0  0  0  0  0  0  0
  -34.8466  -28.8097   22.4719 N   0  0  0  0  0  0  0  0  0  0  0  0
  -29.9687  -13.6163   20.3689 N   0  0  0  0  0  0  0  0  0  0  0  0
  -25.4702  -15.0533   20.4045 N   0  0  0  0  0  0  0  0  0  0  0  0
  -21.8856  -12.5774   21.5947 N   0  0  0  0  0  0  0  0  0  0  0  0
  -30.0770  -15.6964   21.4753 N   0  0  0  0  0  0  0  0  0  0  0  0
  -32.0104  -30.5962   23.6942 N   0  0  0  0  0  0  0  0  0  0  0  0
  -37.0740  -28.8148   19.9229 N   0  0  0  0  0  0  0  0  0  0  0  0
  -40.4568  -27.8920   20.8017 N   0  3  0  0  0  0  0  0  0  0  0  0
  -22.6601  -14.7175   21.3142 O   0  0  0  0  0  0  0  0  0  0  0  0
  -32.2723  -28.4074   22.9440 O   0  0  0  0  0  0  0  0  0  0  0  0
  -33.7755  -21.3379   26.6914 O   0  0  0  0  0  0  0  0  0  0  0  0
  -35.2069  -30.6502   21.0865 O   0  0  0  0  0  0  0  0  0  0  0  0
  -37.8866  -26.7606   20.6277 O   0  0  0  0  0  0  0  0  0  0  0  0
  -31.8554  -14.9404   20.1918 O   0  0  0  0  0  0  0  0  0  0  0  0
  -21.6160   -7.0141   21.7062 O   0  0  0  0  0  0  0  0  0  0  0  0
  -34.8410  -23.6602   25.8682 O   0  0  0  0  0  0  0  0  0  1  0  0
  -18.6200   -6.8566   26.3325 F   0  0  0  0  0  0  0  0  0  0  0  0
  -33.9973  -17.4748   23.5724 F   0  0  0  0  0  0  0  0  0  0  0  0
  -22.0656   -5.0721   23.6217 F   0  0  0  0  0  0  0  0  0  0  0  0
  1  2  1  0  0  0  0
  1  5  2  0  0  0  0
  2  6  2  0  0  0  0
  3  8  2  0  0  0  0
  3 17  1  0  0  0  0
  4  9  1  0  0  0  0
  4 17  2  0  0  0  0
  5 19  1  0  0  0  0
  6 21  1  0  0  0  0
  7 10  2  0  0  0  0
  7 20  1  0  0  0  0
  8 26  1  0  0  0  0
  9 26  2  0  0  0  0
 10 27  1  0  0  0  0
 11 12  2  0  0  0  0
 11 28  1  0  0  0  0
 12 29  1  0  0  0  0
 13 22  1  0  0  0  0
 13 27  2  0  0  0  0
 14 23  2  0  0  0  0
 14 24  1  0  0  0  0
 15 25  2  0  0  0  0
 15 30  1  0  0  0  0
 16 29  2  0  0  0  0
 16 31  1  0  0  0  0
 17 32  1  0  0  0  0
 18 32  1  0  0  0  0
 18 33  2  0  0  0  0
 18 34  1  0  0  0  0
 19 21  2  0  0  0  0
 19 40  1  0  0  0  0
 20 22  2  0  0  0  0
 20 41  1  0  0  0  0
 21 49  1  0  0  0  0
 22 42  1  0  0  0  0
 23 25  1  0  0  0  0
 23 52  1  0  0  0  0
 24 30  2  0  0  0  0
 24 58  1  0  0  0  0
 25 70  1  0  0  0  0
 26 80  1  0  0  0  0
 27 81  1  0  0  0  0
 28 31  2  0  0  0  0
 28 80  1  0  0  0  0
 29 82  1  0  0  0  0
 30 83  1  0  0  0  0
 31 84  1  0  0  0  0
 32 64  2  0  0  0  0
 33 65  1  0  0  0  0
 33 68  1  0  0  0  0
 34 69  1  0  0  0  0
 34 74  2  0  0  0  0
 35 50  1  0  0  0  0
 35 71  1  0  0  0  0
 35 75  2  0  0  0  0
 36 59  1  0  0  0  0
 36 60  1  0  0  0  0
 36 76  2  0  0  0  0
 37 61  1  0  0  0  0
 37 66  1  0  0  0  0
 37 77  2  0  0  0  0
 38 62  1  0  0  0  0
 38 72  1  0  0  0  0
 38 78  2  0  0  0  0
 39 67  1  0  0  0  0
 39 70  1  0  0  0  0
 39 79  2  0  0  0  0
 40 43  1  0  0  0  0
 41 50  1  0  0  0  0
 42 66  1  0  0  0  0
 43 45  1  0  0  0  0
 44 46  1  0  0  0  0
 44 47  1  0  0  0  0
 45 49  1  0  0  0  0
 46 51  1  0  0  0  0
 47 67  1  0  0  0  0
 48 51  1  0  0  0  0
 48 67  1  0  0  0  0
 49 71  1  0  0  0  0
 50 66  1  0  0  0  0
 51 65  1  0  0  0  0
 53 62  1  0  0  0  0
 54 63  1  0  0  0  0
 55 63  1  0  0  0  0
 56 63  1  0  0  0  0
 57 73  1  0  0  0  0
 58 59  1  0  0  0  0
 60 81  1  0  0  0  0
 61 63  1  0  0  0  0
 61 72  1  0  0  0  0
 62 73  1  0  0  0  0
 64 65  1  0  0  0  0
M  CHG  1  73   1
M  ISO  4  39 100  60 101  70 100  81 101
M  END
> <Batch ID>
0131

> <Smiles>
CNC(C)C(=O)NC(C(=O)N1Cc2cc([101O:1][101CH2:1]C(=O)CCc3cc(C)c([100NH:0][100C:0](=O)N4CCCC(n5nc(-c6ccc(Oc7ccc(F)cc7F)cc6)c(C(N)=O)c5N)C4)cc3F)ccc2CC1C(=O)NC1CCCc2ccccc21)C(C)(C)C

> <Shape>
0.177

> <Color>
0.196

> <Negative vol penalty>
0.000

$$$$

  -OEChem-04052302253D

 86 94  0     1  0  0  0  0  0999 V2000
  -30.2817  -23.2755   16.3371 C   0  0  0  0  0  0  0  0  0  0  0  0
  -28.9298  -23.5854   16.4452 C   0  0  0  0  0  0  0  0  0  0  0  0
  -24.4186  -13.6286   20.2006 C   0  0  0  0  0  0  0  0  0  0  0  0
  -26.5445  -13.4585   21.3358 C   0  0  0  0  0  0  0  0  0  0  0  0
  -31.1056  -23.3540   17.4591 C   0  0  0  0  0  0  0  0  0  0  0  0
  -28.4007  -23.9730   17.6757 C   0  0  0  0  0  0  0  0  0  0  0  0
  -23.9221  -28.0367   18.6420 C   0  0  0  0  0  0  0  0  0  0  0  0
  -24.3693  -12.2394   20.0848 C   0  0  0  0  0  0  0  0  0  0  0  0
  -26.4952  -12.0693   21.2200 C   0  0  0  0  0  0  0  0  0  0  0  0
  -22.5563  -27.8886   18.8799 C   0  0  0  0  0  0  0  0  0  0  0  0
  -23.5109   -8.7176   19.8104 C   0  0  0  0  0  0  0  0  0  0  0  0
  -22.3055   -8.0841   20.1121 C   0  0  0  0  0  0  0  0  0  0  0  0
  -23.3272  -20.4761   16.2981 C   0  0  0  0  0  0  0  0  0  0  0  0
  -22.9594  -28.0414   21.2534 C   0  0  0  0  0  0  0  0  0  0  0  0
  -21.4411  -21.1598   17.6441 C   0  0  0  0  0  0  0  0  0  0  0  0
  -22.4046   -8.9657   22.3594 C   0  0  0  0  0  0  0  0  0  0  0  0
  -25.5062  -14.2381   20.8261 C   0  0  0  0  0  0  0  0  0  0  0  0
  -24.1926  -21.1140   17.1868 C   0  0  0  0  0  0  0  0  0  0  0  0
  -25.0567  -16.4568   22.0022 C   0  0  0  0  0  0  0  0  0  0  0  0
  -30.5883  -23.7520   18.7020 C   0  0  0  0  0  0  0  0  0  0  0  0
  -24.8195  -28.1776   19.7103 C   0  0  0  0  0  0  0  0  0  0  0  0
  -29.2181  -24.0556   18.8158 C   0  0  0  0  0  0  0  0  0  0  0  0
  -24.3357  -28.1937   21.0263 C   0  0  0  0  0  0  0  0  0  0  0  0
  -21.9514  -20.4990   16.5267 C   0  0  0  0  0  0  0  0  0  0  0  0
  -22.3065  -21.7976   18.5328 C   0  0  0  0  0  0  0  0  0  0  0  0
  -23.6823  -21.7747   18.3042 C   0  0  0  0  0  0  0  0  0  0  0  0
  -25.4075  -11.4598   20.5945 C   0  0  0  0  0  0  0  0  0  0  0  0
  -22.0751  -27.8880   20.1859 C   0  0  0  0  0  0  0  0  0  0  0  0
  -24.1633   -9.4752   20.7831 C   0  0  0  0  0  0  0  0  0  0  0  0
  -21.7523   -8.2081   21.3866 C   0  0  0  0  0  0  0  0  0  0  0  0
  -23.6101   -9.5993   22.0576 C   0  0  0  0  0  0  0  0  0  0  0  0
  -25.5580  -15.6731   20.9456 C   0  0  0  0  0  0  0  0  0  0  0  0
  -25.3533  -17.7486   21.6422 C   0  0  0  0  0  0  0  0  0  0  0  0
  -25.6361  -21.0726   16.9195 C   0  0  0  0  0  0  0  0  0  0  0  0
  -24.3833  -16.0531   23.2019 C   0  0  0  0  0  0  0  0  0  0  0  0
  -27.2853  -26.4968   20.8051 C   0  0  0  0  0  0  0  0  0  0  0  0
  -20.1185  -24.2503   20.5866 C   0  0  0  0  0  0  0  0  0  0  0  0
  -27.6134  -29.0216   22.8150 C   0  0  0  0  0  0  0  0  0  0  0  0
  -26.1603  -31.6739   24.3963 C   0  0  0  0  0  0  0  0  0  0  0  0
  -31.5081  -23.7764   19.8970 C   0  0  0  0  0  0  0  0  0  0  0  0
  -26.2867  -28.3633   19.4357 C   0  0  0  0  0  0  0  0  0  0  0  0
  -25.2553  -28.3621   22.2072 C   0  0  0  0  0  0  0  0  0  0  0  0
  -30.9461  -24.5569   21.0824 C   0  0  0  0  0  0  0  0  0  0  0  0
  -28.5749  -19.8638   18.5455 C   0  0  0  0  0  0  0  0  0  0  0  0
  -29.4933  -24.1680   21.3372 C   0  0  0  0  0  0  0  0  0  0  0  0
  -28.0550  -18.7213   19.4199 C   0  0  0  0  0  0  0  0  0  0  0  0
  -27.8176  -19.9506   17.2228 C   0  0  0  0  0  0  0  0  0  0  0  0
  -25.8253  -18.8993   18.2378 C   0  0  0  0  0  0  0  0  0  0  0  0
  -28.6121  -24.5038   20.1280 C   0  0  1  0  0  0  0  0  0  0  0  0
  -27.1691  -27.9835   20.6209 C   0  0  1  0  0  0  0  0  0  0  0  0
  -26.5281  -18.8088   19.6023 C   0  0  1  0  0  0  0  0  0  0  0  0
  -21.0265  -19.8170   15.5763 C   0  0  0  0  0  0  0  0  0  0  0  0
  -24.6131  -23.9726   19.0718 C   0  0  0  0  0  0  0  0  0  0  0  0
  -26.6731  -33.5305   26.0049 C   0  0  0  0  0  0  0  0  0  0  0  0
  -27.5747  -27.0279   25.1245 C   0  0  0  0  0  0  0  0  0  0  0  0
  -27.1323  -28.9415   26.6772 C   0  0  0  0  0  0  0  0  0  0  0  0
  -29.2513  -28.8682   25.3630 C   0  0  0  0  0  0  0  0  0  0  0  0
  -25.4727  -33.7488   22.4011 C   0  0  0  0  0  0  0  0  0  0  0  0
  -21.7289  -22.5049   19.7342 C   0  0  0  0  0  0  0  0  0  0  0  0
  -24.6078  -22.4597   19.2599 C   0  0  0  0  0  0  0  0  0  0  0  0
  -20.7009  -23.5707   19.3599 C   0  0  0  0  0  0  0  0  0  0  0  0
  -19.0944  -25.3448   20.3318 C   0  0  0  0  0  0  0  0  0  0  0  0
  -19.0327  -26.3976   21.4337 C   0  0  0  0  0  0  0  0  0  0  0  0
  -20.3637  -27.1104   21.6428 C   0  0  0  0  0  0  0  0  0  1  0  0
  -27.0760  -29.3785   24.1799 C   0  0  1  0  0  0  0  0  0  0  0  0
  -26.5950  -33.1210   24.5424 C   0  0  2  0  0  0  0  0  0  0  0  0
  -27.7412  -28.5489   25.3142 C   0  0  0  0  0  0  0  0  0  0  0  0
  -26.1295  -16.4059   19.9862 N   0  0  0  0  0  0  0  0  0  0  0  0
  -25.9891  -17.6635   20.4386 N   0  0  0  0  0  0  0  0  0  0  0  0
  -26.3753  -20.0155   17.4556 N   0  0  0  0  0  0  0  0  0  0  0  0
  -26.6821  -28.5339   21.8874 N   0  0  0  0  0  0  0  0  0  0  0  0
  -25.1296  -18.9377   22.2409 N   0  0  0  0  0  0  0  0  0  0  0  0
  -24.1594  -14.6860   23.4147 N   0  0  0  0  0  0  0  0  0  0  0  0
  -28.3203  -25.9209   20.0933 N   0  0  0  0  0  0  0  0  0  0  0  0
  -27.2412  -30.8213   24.3191 N   0  0  0  0  0  0  0  0  0  0  0  0
  -25.6305  -34.0237   23.8525 N   0  3  0  0  0  0  0  0  0  0  0  0
  -26.0902  -21.9943   16.2431 O   0  0  0  0  0  0  0  0  0  0  0  0
  -23.9771  -16.8813   24.0519 O   0  0  0  0  0  0  0  0  0  0  0  0
  -26.4954  -25.9154   21.5398 O   0  0  0  0  0  0  0  0  0  0  0  0
  -20.4542  -23.9053   21.7192 O   0  0  0  0  0  0  0  0  0  0  0  0
  -28.8141  -29.1768   22.5783 O   0  0  0  0  0  0  0  0  0  0  0  0
  -24.9800  -31.3335   24.3584 O   0  0  0  0  0  0  0  0  0  0  0  0
  -25.3596  -10.1042   20.4818 O   0  0  0  0  0  0  0  0  0  0  0  0
  -20.7426  -27.7429   20.4210 O   0  0  0  0  0  0  0  0  0  1  0  0
  -20.5939   -7.6010   21.6757 F   0  0  0  0  0  0  0  0  0  0  0  0
  -24.2316  -10.3267   22.9959 F   0  0  0  0  0  0  0  0  0  0  0  0
  1  2  1  0  0  0  0
  1  5  2  0  0  0  0
  2  6  2  0  0  0  0
  3  8  2  0  0  0  0
  3 17  1  0  0  0  0
  4  9  1  0  0  0  0
  4 17  2  0  0  0  0
  5 20  1  0  0  0  0
  6 22  1  0  0  0  0
  7 10  2  0  0  0  0
  7 21  1  0  0  0  0
  8 27  1  0  0  0  0
  9 27  2  0  0  0  0
 10 28  1  0  0  0  0
 11 12  2  0  0  0  0
 11 29  1  0  0  0  0
 12 30  1  0  0  0  0
 13 18  1  0  0  0  0
 13 24  2  0  0  0  0
 14 23  1  0  0  0  0
 14 28  2  0  0  0  0
 15 24  1  0  0  0  0
 15 25  2  0  0  0  0
 16 30  2  0  0  0  0
 16 31  1  0  0  0  0
 17 32  1  0  0  0  0
 18 26  2  0  0  0  0
 18 34  1  0  0  0  0
 19 32  1  0  0  0  0
 19 33  2  0  0  0  0
 19 35  1  0  0  0  0
 20 22  2  0  0  0  0
 20 40  1  0  0  0  0
 21 23  2  0  0  0  0
 21 41  1  0  0  0  0
 22 49  1  0  0  0  0
 23 42  1  0  0  0  0
 24 52  1  0  0  0  0
 25 26  1  0  0  0  0
 25 59  1  0  0  0  0
 26 60  1  0  0  0  0
 27 83  1  0  0  0  0
 28 84  1  0  0  0  0
 29 31  2  0  0  0  0
 29 83  1  0  0  0  0
 30 85  1  0  0  0  0
 31 86  1  0  0  0  0
 32 68  2  0  0  0  0
 33 69  1  0  0  0  0
 33 72  1  0  0  0  0
 34 70  1  0  0  0  0
 34 77  2  0  0  0  0
 35 73  1  0  0  0  0
 35 78  2  0  0  0  0
 36 50  1  0  0  0  0
 36 74  1  0  0  0  0
 36 79  2  0  0  0  0
 37 61  1  0  0  0  0
 37 62  1  0  0  0  0
 37 80  2  0  0  0  0
 38 65  1  0  0  0  0
 38 71  1  0  0  0  0
 38 81  2  0  0  0  0
 39 66  1  0  0  0  0
 39 75  1  0  0  0  0
 39 82  2  0  0  0  0
 40 43  1  0  0  0  0
 41 50  1  0  0  0  0
 42 71  1  0  0  0  0
 43 45  1  0  0  0  0
 44 46  1  0  0  0  0
 44 47  1  0  0  0  0
 45 49  1  0  0  0  0
 46 51  1  0  0  0  0
 47 70  1  0  0  0  0
 48 51  1  0  0  0  0
 48 70  1  0  0  0  0
 49 74  1  0  0  0  0
 50 71  1  0  0  0  0
 51 69  1  0  0  0  0
 53 60  1  0  0  0  0
 54 66  1  0  0  0  0
 55 67  1  0  0  0  0
 56 67  1  0  0  0  0
 57 67  1  0  0  0  0
 58 76  1  0  0  0  0
 59 61  1  0  0  0  0
 62 63  1  0  0  0  0
 63 64  1  0  0  0  0
 64 84  1  0  0  0  0
 65 67  1  0  0  0  0
 65 75  1  0  0  0  0
 66 76  1  0  0  0  0
 68 69  1  0  0  0  0
M  CHG  1  76   1
M  ISO  4  18 100  34 100  64 101  84 101
M  END
> <Batch ID>
0131

> <Smiles>
CCc1c(CCC(=O)CC[101CH2:1][101O:1]c2ccc3c(c2)CN(C(=O)C(NC(=O)C(C)NC)C(C)(C)C)C(C(=O)NC2CCCc4ccccc42)C3)cc(C)c[100c:0]1[100C:0](=O)N1CCCC(n2nc(-c3ccc(Oc4ccc(F)cc4F)cc3)c(C(N)=O)c2N)C1

> <Shape>
0.237

> <Color>
0.066

> <Negative vol penalty>
0.000

$$$$

  -OEChem-04052302253D

 83 91  0     1  0  0  0  0  0999 V2000
  -18.9124  -28.8782   23.5517 C   0  0  0  0  0  0  0  0  0  0  0  0
  -20.2744  -28.5989   23.5037 C   0  0  0  0  0  0  0  0  0  0  0  0
  -23.1074  -12.9714   20.0442 C   0  0  0  0  0  0  0  0  0  0  0  0
  -23.2827  -13.7678   22.3184 C   0  0  0  0  0  0  0  0  0  0  0  0
  -18.0255  -28.1571   22.7534 C   0  0  0  0  0  0  0  0  0  0  0  0
  -20.7502  -27.5974   22.6580 C   0  0  0  0  0  0  0  0  0  0  0  0
  -24.8831  -29.0169   20.0989 C   0  0  0  0  0  0  0  0  0  0  0  0
  -29.1933  -22.5884   21.8481 C   0  0  0  0  0  0  0  0  0  0  0  0
  -22.6492  -11.7394   20.5109 C   0  0  0  0  0  0  0  0  0  0  0  0
  -22.8245  -12.5358   22.7851 C   0  0  0  0  0  0  0  0  0  0  0  0
  -26.0952  -29.0011   20.7876 C   0  0  0  0  0  0  0  0  0  0  0  0
  -29.3253  -23.8012   22.5243 C   0  0  0  0  0  0  0  0  0  0  0  0
  -21.7751   -8.2628   21.1209 C   0  0  0  0  0  0  0  0  0  0  0  0
  -22.3193   -7.1100   20.5548 C   0  0  0  0  0  0  0  0  0  0  0  0
  -26.6410  -26.8849   19.7663 C   0  0  0  0  0  0  0  0  0  0  0  0
  -26.9244  -24.0712   22.5087 C   0  0  0  0  0  0  0  0  0  0  0  0
  -24.5178   -7.7835   21.2965 C   0  0  0  0  0  0  0  0  0  0  0  0
  -23.4242  -13.9856   20.9480 C   0  0  0  0  0  0  0  0  0  0  0  0
  -23.1211  -16.3837   20.1325 C   0  0  0  0  0  0  0  0  0  0  0  0
  -18.4917  -27.1529   21.8904 C   0  0  0  0  0  0  0  0  0  0  0  0
  -24.5355  -27.9597   19.2456 C   0  0  0  0  0  0  0  0  0  0  0  0
  -19.8685  -26.8613   21.8484 C   0  0  0  0  0  0  0  0  0  0  0  0
  -25.4251  -26.8909   19.0659 C   0  0  0  0  0  0  0  0  0  0  0  0
  -26.7925  -22.8584   21.8325 C   0  0  0  0  0  0  0  0  0  0  0  0
  -27.9269  -22.1170   21.5022 C   0  0  0  0  0  0  0  0  0  0  0  0
  -22.5077  -11.5216   21.8813 C   0  0  0  0  0  0  0  0  0  0  0  0
  -26.9731  -27.9336   20.6237 C   0  0  0  0  0  0  0  0  0  0  0  0
  -28.1909  -24.5426   22.8546 C   0  0  0  0  0  0  0  0  0  0  0  0
  -22.6023   -9.1760   21.7748 C   0  0  0  0  0  0  0  0  0  0  0  0
  -23.6906   -6.8703   20.6426 C   0  0  0  0  0  0  0  0  0  0  0  0
  -23.9736   -8.9363   21.8626 C   0  0  0  0  0  0  0  0  0  0  0  0
  -23.8981  -15.2583   20.4665 C   0  0  0  0  0  0  0  0  0  0  0  0
  -24.0365  -17.3265   19.7328 C   0  0  0  0  0  0  0  0  0  0  0  0
  -29.8914  -28.6700   24.3700 C   0  0  0  0  0  0  0  0  0  0  0  0
  -21.6992  -16.5611   20.1795 C   0  0  0  0  0  0  0  0  0  0  0  0
  -29.2349  -27.9428   23.4522 C   0  0  0  0  0  0  0  0  0  0  0  0
  -22.1912  -25.8143   19.1722 C   0  0  0  0  0  0  0  0  0  0  0  0
  -23.5196  -25.0357   16.3172 C   0  0  0  0  0  0  0  0  0  0  0  0
  -26.2818  -25.0272   14.3130 C   0  0  0  0  0  0  0  0  0  0  0  0
  -28.8505  -20.0392   20.4177 C   0  0  0  0  0  0  0  0  0  0  0  0
  -17.4895  -26.3680   21.0815 C   0  0  0  0  0  0  0  0  0  0  0  0
  -23.2361  -28.0047   18.4893 C   0  0  0  0  0  0  0  0  0  0  0  0
  -25.1080  -25.7413   18.1459 C   0  0  0  0  0  0  0  0  0  0  0  0
  -18.1166  -25.5778   19.9357 C   0  0  0  0  0  0  0  0  0  0  0  0
  -28.9814  -16.9026   18.7379 C   0  0  0  0  0  0  0  0  0  0  0  0
  -19.3534  -24.8272   20.4191 C   0  0  0  0  0  0  0  0  0  0  0  0
  -27.6067  -16.2878   19.0104 C   0  0  0  0  0  0  0  0  0  0  0  0
  -29.4998  -17.6884   19.9410 C   0  0  0  0  0  0  0  0  0  0  0  0
  -27.2026  -18.0901   20.7354 C   0  0  0  0  0  0  0  0  0  0  0  0
  -20.4258  -25.7993   20.9255 C   0  0  1  0  0  0  0  0  0  0  0  0
  -22.7570  -26.6270   18.0422 C   0  0  1  0  0  0  0  0  0  0  0  0
  -26.6102  -17.3430   19.5293 C   0  0  2  0  0  0  0  0  0  0  0  0
  -25.4234  -22.3783   21.4746 C   0  0  0  0  0  0  0  0  0  0  0  0
  -27.0702  -24.2876   12.0483 C   0  0  0  0  0  0  0  0  0  0  0  0
  -23.6589  -22.1537   17.3095 C   0  0  0  0  0  0  0  0  0  0  0  0
  -25.2735  -21.6680   15.4588 C   0  0  0  0  0  0  0  0  0  0  0  0
  -22.9504  -22.4026   14.9240 C   0  0  0  0  0  0  0  0  0  0  0  0
  -26.9108  -27.8018   13.4977 C   0  0  0  0  0  0  0  0  0  0  0  0
  -28.1940  -28.5695   22.5630 C   0  0  0  0  0  0  0  0  0  1  0  0
  -29.5111  -26.4738   23.2832 C   0  0  0  0  0  0  0  0  0  0  0  0
  -24.5945  -24.0775   15.8639 C   0  0  1  0  0  0  0  0  0  0  0  0
  -26.4741  -25.4264   12.8611 C   0  0  2  0  0  0  0  0  0  0  0  0
  -24.1247  -22.5960   15.9080 C   0  0  0  0  0  0  0  0  0  0  0  0
  -25.2063  -15.4652   20.2938 N   0  0  0  0  0  0  0  0  0  0  0  0
  -25.2584  -16.7316   19.8468 N   0  0  0  0  0  0  0  0  0  0  0  0
  -23.8226  -25.8281   17.4334 N   0  0  0  0  0  0  0  0  0  0  0  0
  -28.5050  -18.6719   20.3745 N   0  0  0  0  0  0  0  0  0  0  0  0
  -23.9072  -18.5981   19.2982 N   0  0  0  0  0  0  0  0  0  0  0  0
  -20.9063  -15.4904   20.6148 N   0  0  0  0  0  0  0  0  0  0  0  0
  -27.8139  -20.8837   20.8137 N   0  0  0  0  0  0  0  0  0  0  0  0
  -21.1210  -26.4095   19.8125 N   0  0  0  0  0  0  0  0  0  0  0  0
  -25.0158  -24.5318   14.5431 N   0  0  0  0  0  0  0  0  0  0  0  0
  -27.3860  -26.6011   12.7632 N   0  3  0  0  0  0  0  0  0  0  0  0
  -21.1468  -17.6317   19.8299 O   0  0  0  0  0  0  0  0  0  0  0  0
  -22.6878  -24.7270   19.4423 O   0  0  0  0  0  0  0  0  0  0  0  0
  -22.4532  -25.0845   15.6990 O   0  0  0  0  0  0  0  0  0  0  0  0
  -27.1675  -25.1398   15.1577 O   0  0  0  0  0  0  0  0  0  0  0  0
  -29.9747  -20.4349   20.0987 O   0  0  0  0  0  0  0  0  0  0  0  0
  -22.0604  -10.3196   22.3371 O   0  0  0  0  0  0  0  0  0  0  0  0
  -28.1565  -27.9154   21.2952 O   0  0  0  0  0  0  0  0  0  1  0  0
  -28.3206  -25.7341   23.5195 O   0  0  0  0  0  0  0  0  0  0  0  0
  -24.2128   -5.7624   20.1002 F   0  0  0  0  0  0  0  0  0  0  0  0
  -24.7731   -9.8094   22.4906 F   0  0  0  0  0  0  0  0  0  0  0  0
  1  2  1  0  0  0  0
  1  5  2  0  0  0  0
  2  6  2  0  0  0  0
  3  9  2  0  0  0  0
  3 18  1  0  0  0  0
  4 10  1  0  0  0  0
  4 18  2  0  0  0  0
  5 20  1  0  0  0  0
  6 22  1  0  0  0  0
  7 11  2  0  0  0  0
  7 21  1  0  0  0  0
  8 12  2  0  0  0  0
  8 25  1  0  0  0  0
  9 26  1  0  0  0  0
 10 26  2  0  0  0  0
 11 27  1  0  0  0  0
 12 28  1  0  0  0  0
 13 14  2  0  0  0  0
 13 29  1  0  0  0  0
 14 30  1  0  0  0  0
 15 23  1  0  0  0  0
 15 27  2  0  0  0  0
 16 24  1  0  0  0  0
 16 28  2  0  0  0  0
 17 30  2  0  0  0  0
 17 31  1  0  0  0  0
 18 32  1  0  0  0  0
 19 32  1  0  0  0  0
 19 33  2  0  0  0  0
 19 35  1  0  0  0  0
 20 22  2  0  0  0  0
 20 41  1  0  0  0  0
 21 23  2  0  0  0  0
 21 42  1  0  0  0  0
 22 50  1  0  0  0  0
 23 43  1  0  0  0  0
 24 25  2  0  0  0  0
 24 53  1  0  0  0  0
 25 70  1  0  0  0  0
 26 79  1  0  0  0  0
 27 80  1  0  0  0  0
 28 81  1  0  0  0  0
 29 31  2  0  0  0  0
 29 79  1  0  0  0  0
 30 82  1  0  0  0  0
 31 83  1  0  0  0  0
 32 64  2  0  0  0  0
 33 65  1  0  0  0  0
 33 68  1  0  0  0  0
 34 36  2  0  0  0  0
 35 69  1  0  0  0  0
 35 74  2  0  0  0  0
 36 59  1  0  0  0  0
 36 60  1  0  0  0  0
 37 51  1  0  0  0  0
 37 71  1  0  0  0  0
 37 75  2  0  0  0  0
 38 61  1  0  0  0  0
 38 66  1  0  0  0  0
 38 76  2  0  0  0  0
 39 62  1  0  0  0  0
 39 72  1  0  0  0  0
 39 77  2  0  0  0  0
 40 67  1  0  0  0  0
 40 70  1  0  0  0  0
 40 78  2  0  0  0  0
 41 44  1  0  0  0  0
 42 51  1  0  0  0  0
 43 66  1  0  0  0  0
 44 46  1  0  0  0  0
 45 47  1  0  0  0  0
 45 48  1  0  0  0  0
 46 50  1  0  0  0  0
 47 52  1  0  0  0  0
 48 67  1  0  0  0  0
 49 52  1  0  0  0  0
 49 67  1  0  0  0  0
 50 71  1  0  0  0  0
 51 66  1  0  0  0  0
 52 65  1  0  0  0  0
 54 62  1  0  0  0  0
 55 63  1  0  0  0  0
 56 63  1  0  0  0  0
 57 63  1  0  0  0  0
 58 73  1  0  0  0  0
 59 80  1  0  0  0  0
 60 81  1  0  0  0  0
 61 63  1  0  0  0  0
 61 72  1  0  0  0  0
 62 73  1  0  0  0  0
 64 65  1  0  0  0  0
M  CHG  1  73   1
M  ISO  4  40 100  59 101  70 100  80 101
M  END
> <Batch ID>
0131

> <Smiles>
C=C(COc1ccc([100NH:0][100C:0](=O)N2CCCC(n3nc(-c4ccc(Oc5ccc(F)cc5F)cc4)c(C(N)=O)c3N)C2)c(C)c1)[101CH2:1][101O:1]c1ccc2c(c1)CN(C(=O)C(NC(=O)C(C)NC)C(C)(C)C)C(C(=O)NC1CCCc3ccccc31)C2

> <Shape>
0.212

> <Color>
0.068

> <Negative vol penalty>
0.000

$$$$

  -OEChem-04052302253D

 83 92  0     1  0  0  0  0  0999 V2000
  -24.3405  -35.8658   15.7701 C   0  0  0  0  0  0  0  0  0  0  0  0
  -25.2327  -34.8447   16.0810 C   0  0  0  0  0  0  0  0  0  0  0  0
  -24.0442   -9.7331   21.6368 C   0  0  0  0  0  0  0  0  0  0  0  0
  -24.7148  -10.9640   23.6046 C   0  0  0  0  0  0  0  0  0  0  0  0
  -23.3995  -36.2787   16.7125 C   0  0  0  0  0  0  0  0  0  0  0  0
  -25.1851  -34.2365   17.3349 C   0  0  0  0  0  0  0  0  0  0  0  0
  -28.6313  -20.7586   20.8417 C   0  0  0  0  0  0  0  0  0  0  0  0
  -26.3238  -28.3582   18.6210 C   0  0  0  0  0  0  0  0  0  0  0  0
  -28.3410  -19.4435   20.4784 C   0  0  0  0  0  0  0  0  0  0  0  0
  -23.6511   -8.6628   22.4402 C   0  0  0  0  0  0  0  0  0  0  0  0
  -24.3216   -9.8937   24.4080 C   0  0  0  0  0  0  0  0  0  0  0  0
  -27.4548  -27.7075   19.1123 C   0  0  0  0  0  0  0  0  0  0  0  0
  -21.0142   -7.8528   24.3955 C   0  0  0  0  0  0  0  0  0  0  0  0
  -19.7860   -7.2519   24.1196 C   0  0  0  0  0  0  0  0  0  0  0  0
  -26.5491  -27.8318   21.3447 C   0  0  0  0  0  0  0  0  0  0  0  0
  -30.6900  -19.0321   20.0908 C   0  0  0  0  0  0  0  0  0  0  0  0
  -20.9048   -5.1476   23.7229 C   0  0  0  0  0  0  0  0  0  0  0  0
  -24.5761  -10.8837   22.2189 C   0  0  0  0  0  0  0  0  0  0  0  0
  -24.1923  -13.0790   20.9776 C   0  0  0  0  0  0  0  0  0  0  0  0
  -23.3341  -35.6687   17.9751 C   0  0  0  0  0  0  0  0  0  0  0  0
  -25.3003  -28.7609   19.4908 C   0  0  0  0  0  0  0  0  0  0  0  0
  -24.2433  -34.6425   18.2955 C   0  0  0  0  0  0  0  0  0  0  0  0
  -29.9509  -21.2104   20.8295 C   0  0  0  0  0  0  0  0  0  0  0  0
  -25.4050  -28.4851   20.8616 C   0  0  0  0  0  0  0  0  0  0  0  0
  -30.9802  -20.3472   20.4541 C   0  0  0  0  0  0  0  0  0  0  0  0
  -29.3703  -18.5803   20.1030 C   0  0  0  0  0  0  0  0  0  0  0  0
  -23.7898   -8.7431   23.8258 C   0  0  0  0  0  0  0  0  0  0  0  0
  -27.5689  -27.4468   20.4747 C   0  0  0  0  0  0  0  0  0  0  0  0
  -22.1877   -7.1011   24.3351 C   0  0  0  0  0  0  0  0  0  0  0  0
  -19.7313   -5.8993   23.7832 C   0  0  0  0  0  0  0  0  0  0  0  0
  -22.1329   -5.7485   23.9988 C   0  0  0  0  0  0  0  0  0  0  0  0
  -24.9828  -11.9894   21.3895 C   0  0  0  0  0  0  0  0  0  0  0  0
  -25.0363  -13.8454   20.2116 C   0  0  0  0  0  0  0  0  0  0  0  0
  -22.8180  -13.3722   21.2620 C   0  0  0  0  0  0  0  0  0  0  0  0
  -24.0234  -31.5537   20.3114 C   0  0  0  0  0  0  0  0  0  0  0  0
  -21.9343  -29.6790   21.9373 C   0  0  0  0  0  0  0  0  0  0  0  0
  -21.2965  -26.6848   23.4456 C   0  0  0  0  0  0  0  0  0  0  0  0
  -29.9773  -16.2586   19.3364 C   0  0  0  0  0  0  0  0  0  0  0  0
  -22.3308  -36.1813   18.9778 C   0  0  0  0  0  0  0  0  0  0  0  0
  -24.0745  -29.4379   18.9415 C   0  0  0  0  0  0  0  0  0  0  0  0
  -24.3248  -28.8787   21.8345 C   0  0  0  0  0  0  0  0  0  0  0  0
  -22.1005  -35.2304   20.1496 C   0  0  0  0  0  0  0  0  0  0  0  0
  -29.6497  -12.8431   18.3856 C   0  0  0  0  0  0  0  0  0  0  0  0
  -23.4319  -34.7289   20.6997 C   0  0  0  0  0  0  0  0  0  0  0  0
  -28.3413  -12.4062   19.0484 C   0  0  0  0  0  0  0  0  0  0  0  0
  -29.0666  -23.6903   21.4587 C   0  0  0  0  0  0  0  0  0  0  0  0
  -30.7485  -23.7083   20.1568 C   0  0  0  0  0  0  0  0  0  0  0  0
  -30.4330  -13.8168   19.2642 C   0  0  0  0  0  0  0  0  0  0  0  0
  -28.3658  -14.5505   20.3857 C   0  0  0  0  0  0  0  0  0  0  0  0
  -30.2572  -22.7078   21.2460 C   0  0  0  0  0  0  0  0  0  0  0  0
  -24.2067  -33.9414   19.6361 C   0  0  1  0  0  0  0  0  0  0  0  0
  -23.3283  -30.2619   19.9862 C   0  0  1  0  0  0  0  0  0  0  0  0
  -29.9852  -24.8159   20.9233 C   0  0  0  0  0  0  0  0  0  0  0  0
  -27.5108  -13.6197   19.5103 C   0  0  2  0  0  0  0  0  0  0  0  0
  -32.3992  -20.8116   20.4332 C   0  0  0  0  0  0  0  0  0  0  0  0
  -19.5147  -25.4614   24.7207 C   0  0  0  0  0  0  0  0  0  0  0  0
  -22.5914  -31.3195   24.4246 C   0  0  0  0  0  0  0  0  0  0  0  0
  -21.5578  -29.5068   25.8081 C   0  0  0  0  0  0  0  0  0  0  0  0
  -20.1694  -30.7574   24.1555 C   0  0  0  0  0  0  0  0  0  0  0  0
  -21.1126  -24.5681   21.3853 C   0  0  0  0  0  0  0  0  0  0  0  0
  -29.3241  -25.8901   20.0850 C   0  0  0  0  0  0  0  0  0  1  0  0
  -21.8824  -29.0925   23.3274 C   0  0  1  0  0  0  0  0  0  0  0  0
  -20.1113  -25.7411   23.3501 C   0  0  2  0  0  0  0  0  0  0  0  0
  -21.5717  -30.1633   24.4111 C   0  0  0  0  0  0  0  0  0  0  0  0
  -26.2330  -12.0541   20.9236 N   0  0  0  0  0  0  0  0  0  0  0  0
  -26.2343  -13.1935   20.2110 N   0  0  0  0  0  0  0  0  0  0  0  0
  -23.1487  -29.5438   21.2497 N   0  0  0  0  0  0  0  0  0  0  0  0
  -29.5839  -14.9427   19.6596 N   0  0  0  0  0  0  0  0  0  0  0  0
  -24.8631  -15.0066   19.5451 N   0  0  0  0  0  0  0  0  0  0  0  0
  -22.0967  -12.4788   22.0657 N   0  0  0  0  0  0  0  0  0  0  0  0
  -29.0749  -17.2444   19.7344 N   0  0  0  0  0  0  0  0  0  0  0  0
  -23.6603  -32.6087   19.4961 N   0  0  0  0  0  0  0  0  0  0  0  0
  -20.9177  -27.9994   23.2735 N   0  0  0  0  0  0  0  0  0  0  0  0
  -20.5290  -24.4444   22.7459 N   0  3  0  0  0  0  0  0  0  0  0  0
  -22.2418  -14.3876   20.8031 O   0  0  0  0  0  0  0  0  0  0  0  0
  -24.8283  -31.5909   21.2346 O   0  0  0  0  0  0  0  0  0  0  0  0
  -20.9319  -30.2301   21.4756 O   0  0  0  0  0  0  0  0  0  0  0  0
  -22.4430  -26.2951   23.6558 O   0  0  0  0  0  0  0  0  0  0  0  0
  -31.0236  -16.4916   18.7257 O   0  0  0  0  0  0  0  0  0  0  0  0
  -23.4061   -7.6989   24.6101 O   0  0  0  0  0  0  0  0  0  0  0  0
  -28.6720  -26.8125   20.9570 O   0  0  0  0  0  0  0  0  0  1  0  0
  -18.5517   -5.3220   23.5198 F   0  0  0  0  0  0  0  0  0  0  0  0
  -23.2568   -5.0209   23.9403 F   0  0  0  0  0  0  0  0  0  0  0  0
  1  2  1  0  0  0  0
  1  5  2  0  0  0  0
  2  6  2  0  0  0  0
  3 10  2  0  0  0  0
  3 18  1  0  0  0  0
  4 11  1  0  0  0  0
  4 18  2  0  0  0  0
  5 20  1  0  0  0  0
  6 22  1  0  0  0  0
  7  9  2  0  0  0  0
  7 23  1  0  0  0  0
  8 12  2  0  0  0  0
  8 21  1  0  0  0  0
  9 26  1  0  0  0  0
 10 27  1  0  0  0  0
 11 27  2  0  0  0  0
 12 28  1  0  0  0  0
 13 14  2  0  0  0  0
 13 29  1  0  0  0  0
 14 30  1  0  0  0  0
 15 24  1  0  0  0  0
 15 28  2  0  0  0  0
 16 25  1  0  0  0  0
 16 26  2  0  0  0  0
 17 30  2  0  0  0  0
 17 31  1  0  0  0  0
 18 32  1  0  0  0  0
 19 32  1  0  0  0  0
 19 33  2  0  0  0  0
 19 34  1  0  0  0  0
 20 22  2  0  0  0  0
 20 39  1  0  0  0  0
 21 24  2  0  0  0  0
 21 40  1  0  0  0  0
 22 51  1  0  0  0  0
 23 25  2  0  0  0  0
 23 50  1  0  0  0  0
 24 41  1  0  0  0  0
 25 55  1  0  0  0  0
 26 71  1  0  0  0  0
 27 80  1  0  0  0  0
 28 81  1  0  0  0  0
 29 31  2  0  0  0  0
 29 80  1  0  0  0  0
 30 82  1  0  0  0  0
 31 83  1  0  0  0  0
 32 65  2  0  0  0  0
 33 66  1  0  0  0  0
 33 69  1  0  0  0  0
 34 70  1  0  0  0  0
 34 75  2  0  0  0  0
 35 52  1  0  0  0  0
 35 72  1  0  0  0  0
 35 76  2  0  0  0  0
 36 62  1  0  0  0  0
 36 67  1  0  0  0  0
 36 77  2  0  0  0  0
 37 63  1  0  0  0  0
 37 73  1  0  0  0  0
 37 78  2  0  0  0  0
 38 68  1  0  0  0  0
 38 71  1  0  0  0  0
 38 79  2  0  0  0  0
 39 42  1  0  0  0  0
 40 52  1  0  0  0  0
 41 67  1  0  0  0  0
 42 44  1  0  0  0  0
 43 45  1  0  0  0  0
 43 48  1  0  0  0  0
 44 51  1  0  0  0  0
 45 54  1  0  0  0  0
 46 50  1  0  0  0  0
 46 53  1  0  0  0  0
 47 50  1  0  0  0  0
 47 53  1  0  0  0  0
 48 68  1  0  0  0  0
 49 54  1  0  0  0  0
 49 68  1  0  0  0  0
 51 72  1  0  0  0  0
 52 67  1  0  0  0  0
 53 61  1  0  0  0  0
 54 66  1  0  0  0  0
 56 63  1  0  0  0  0
 57 64  1  0  0  0  0
 58 64  1  0  0  0  0
 59 64  1  0  0  0  0
 60 74  1  0  0  0  0
 61 81  1  0  0  0  0
 62 64  1  0  0  0  0
 62 73  1  0  0  0  0
 63 74  1  0  0  0  0
 65 66  1  0  0  0  0
M  CHG  1  74   1
M  ISO  4  38 100  61 101  71 100  81 101
M  END
> <Batch ID>
0131

> <Smiles>
CNC(C)C(=O)NC(C(=O)N1Cc2cc([101O:1][101CH2:1]C3CC(c4ccc([100NH:0][100C:0](=O)N5CCCC(n6nc(-c7ccc(Oc8ccc(F)cc8F)cc7)c(C(N)=O)c6N)C5)cc4C)C3)ccc2CC1C(=O)NC1CCCc2ccccc21)C(C)(C)C

> <Shape>
0.296

> <Color>
0.128

> <Negative vol penalty>
0.000

$$$$

  -OEChem-04052302253D

 82 90  0     1  0  0  0  0  0999 V2000
  -21.9828  -36.4712   16.0721 C   0  0  0  0  0  0  0  0  0  0  0  0
  -22.0261  -35.0863   15.9473 C   0  0  0  0  0  0  0  0  0  0  0  0
  -26.7499  -11.8457   21.1991 C   0  0  0  0  0  0  0  0  0  0  0  0
  -25.9565  -13.4616   19.5878 C   0  0  0  0  0  0  0  0  0  0  0  0
  -22.9884  -37.1388   16.7700 C   0  0  0  0  0  0  0  0  0  0  0  0
  -23.0756  -34.3682   16.5194 C   0  0  0  0  0  0  0  0  0  0  0  0
  -24.4980  -28.0579   19.5973 C   0  0  0  0  0  0  0  0  0  0  0  0
  -25.4332  -11.4884   21.4891 C   0  0  0  0  0  0  0  0  0  0  0  0
  -24.6397  -13.1042   19.8777 C   0  0  0  0  0  0  0  0  0  0  0  0
  -25.3856  -26.9873   19.4990 C   0  0  0  0  0  0  0  0  0  0  0  0
  -23.0059   -9.5851   20.1039 C   0  0  0  0  0  0  0  0  0  0  0  0
  -22.7081   -8.2254   20.1941 C   0  0  0  0  0  0  0  0  0  0  0  0
  -27.0250  -28.2395   20.7494 C   0  0  0  0  0  0  0  0  0  0  0  0
  -21.9937   -8.5337   22.4815 C   0  0  0  0  0  0  0  0  0  0  0  0
  -31.5908  -22.4174   18.9276 C   0  0  0  0  0  0  0  0  0  0  0  0
  -27.0116  -12.8324   20.2485 C   0  0  0  0  0  0  0  0  0  0  0  0
  -29.2101  -12.6375   18.9693 C   0  0  0  0  0  0  0  0  0  0  0  0
  -24.0456  -36.4277   17.3592 C   0  0  0  0  0  0  0  0  0  0  0  0
  -24.8718  -29.2335   20.2642 C   0  0  0  0  0  0  0  0  0  0  0  0
  -24.0970  -35.0271   17.2247 C   0  0  0  0  0  0  0  0  0  0  0  0
  -26.1393  -29.3226   20.8571 C   0  0  0  0  0  0  0  0  0  0  0  0
  -30.6021  -22.1551   18.0079 C   0  0  0  0  0  0  0  0  0  0  0  0
  -30.1608  -20.8363   18.2707 C   0  0  0  0  0  0  0  0  0  0  0  0
  -24.3781  -12.1176   20.8284 C   0  0  0  0  0  0  0  0  0  0  0  0
  -26.6504  -27.0791   20.0725 C   0  0  0  0  0  0  0  0  0  0  0  0
  -22.7977  -10.4191   21.2024 C   0  0  0  0  0  0  0  0  0  0  0  0
  -22.2020   -7.6997   21.3829 C   0  0  0  0  0  0  0  0  0  0  0  0
  -22.2916   -9.8934   22.3912 C   0  0  0  0  0  0  0  0  0  0  0  0
  -28.3715  -13.2024   19.9489 C   0  0  0  0  0  0  0  0  0  0  0  0
  -30.3891  -13.3325   19.0844 C   0  0  0  0  0  0  0  0  0  0  0  0
  -30.9114  -20.3865   19.3319 C   0  0  0  0  0  0  0  0  0  0  0  0
  -28.9467  -11.5793   18.0384 C   0  0  0  0  0  0  0  0  0  0  0  0
  -25.2282  -32.2764   19.4172 C   0  0  0  0  0  0  0  0  0  0  0  0
  -25.7043  -32.7004   22.5977 C   0  0  0  0  0  0  0  0  0  0  0  0
  -26.6277  -31.3526   25.5940 C   0  0  0  0  0  0  0  0  0  0  0  0
  -31.7277  -18.7942   21.1052 C   0  0  0  0  0  0  0  0  0  0  0  0
  -25.1347  -37.1974   18.0634 C   0  0  0  0  0  0  0  0  0  0  0  0
  -23.8930  -30.3692   20.3846 C   0  0  0  0  0  0  0  0  0  0  0  0
  -26.5818  -30.5550   21.6014 C   0  0  0  0  0  0  0  0  0  0  0  0
  -26.0128  -36.3282   18.9600 C   0  0  0  0  0  0  0  0  0  0  0  0
  -33.0404  -15.7042   22.2908 C   0  0  0  0  0  0  0  0  0  0  0  0
  -26.4289  -35.0561   18.2283 C   0  0  0  0  0  0  0  0  0  0  0  0
  -32.0718  -14.6600   21.7305 C   0  0  0  0  0  0  0  0  0  0  0  0
  -32.3171  -16.9849   22.7034 C   0  0  0  0  0  0  0  0  0  0  0  0
  -30.4976  -16.5354   21.1045 C   0  0  0  0  0  0  0  0  0  0  0  0
  -25.2059  -34.2108   17.8524 C   0  0  1  0  0  0  0  0  0  0  0  0
  -24.5664  -31.7135   20.6431 C   0  0  1  0  0  0  0  0  0  0  0  0
  -31.1884  -15.2521   20.6149 C   0  0  2  0  0  0  0  0  0  0  0  0
  -29.6701  -19.0536   16.5773 C   0  0  0  0  0  0  0  0  0  0  0  0
  -26.9542  -31.9550   28.0081 C   0  0  0  0  0  0  0  0  0  0  0  0
  -28.3233  -34.0980   21.8922 C   0  0  0  0  0  0  0  0  0  0  0  0
  -29.0322  -33.8221   24.2775 C   0  0  0  0  0  0  0  0  0  0  0  0
  -27.0197  -35.1892   23.7265 C   0  0  0  0  0  0  0  0  0  0  0  0
  -24.5688  -29.4179   26.4755 C   0  0  0  0  0  0  0  0  0  0  0  0
  -30.0990  -23.0934   16.9401 C   0  0  0  0  0  0  0  0  0  0  0  0
  -29.1072  -20.0934   17.5521 C   0  0  0  0  0  0  0  0  0  0  0  0
  -28.7438  -23.7315   17.2649 C   0  0  0  0  0  0  0  0  0  0  0  0
  -28.7839  -24.6222   18.5076 C   0  0  0  0  0  0  0  0  0  0  0  0
  -27.4131  -25.2059   18.8215 C   0  0  0  0  0  0  0  0  0  1  0  0
  -26.9053  -32.6726   23.5120 C   0  0  1  0  0  0  0  0  0  0  0  0
  -25.9849  -31.4157   26.9678 C   0  0  2  0  0  0  0  0  0  0  0  0
  -27.8128  -33.9228   23.3364 C   0  0  0  0  0  0  0  0  0  0  0  0
  -28.9674  -14.1807   20.6358 N   0  0  0  0  0  0  0  0  0  0  0  0
  -30.1929  -14.2360   20.0872 N   0  0  0  0  0  0  0  0  0  0  0  0
  -25.5913  -31.6409   21.6864 N   0  0  0  0  0  0  0  0  0  0  0  0
  -31.5035  -17.4903   21.5955 N   0  0  0  0  0  0  0  0  0  0  0  0
  -31.5643  -13.2528   18.4248 N   0  0  0  0  0  0  0  0  0  0  0  0
  -27.6827  -10.9741   18.0550 N   0  0  0  0  0  0  0  0  0  0  0  0
  -30.9163  -19.1532   20.0294 N   0  0  0  0  0  0  0  0  0  0  0  0
  -24.7139  -33.4920   19.0081 N   0  0  0  0  0  0  0  0  0  0  0  0
  -26.3854  -32.4968   24.8637 N   0  0  0  0  0  0  0  0  0  0  0  0
  -25.5433  -30.0582   27.3959 N   0  3  0  0  0  0  0  0  0  0  0  0
  -29.8123  -11.1711   17.2274 O   0  0  0  0  0  0  0  0  0  0  0  0
  -26.1391  -31.6547   18.8829 O   0  0  0  0  0  0  0  0  0  0  0  0
  -24.8925  -33.6242   22.6936 O   0  0  0  0  0  0  0  0  0  0  0  0
  -27.2826  -30.3866   25.2088 O   0  0  0  0  0  0  0  0  0  0  0  0
  -32.5956  -19.5278   21.5855 O   0  0  0  0  0  0  0  0  0  0  0  0
  -31.7855  -21.3444   19.7382 O   0  0  0  0  0  0  0  0  0  0  0  0
  -23.0931  -11.7689   21.1110 O   0  0  0  0  0  0  0  0  0  0  0  0
  -27.5190  -26.0359   19.9774 O   0  0  0  0  0  0  0  0  0  1  0  0
  -21.9146   -6.3943   21.4689 F   0  0  0  0  0  0  0  0  0  0  0  0
  -22.0883  -10.6899   23.4495 F   0  0  0  0  0  0  0  0  0  0  0  0
  1  2  1  0  0  0  0
  1  5  2  0  0  0  0
  2  6  2  0  0  0  0
  3  8  2  0  0  0  0
  3 16  1  0  0  0  0
  4  9  1  0  0  0  0
  4 16  2  0  0  0  0
  5 18  1  0  0  0  0
  6 20  1  0  0  0  0
  7 10  2  0  0  0  0
  7 19  1  0  0  0  0
  8 24  1  0  0  0  0
  9 24  2  0  0  0  0
 10 25  1  0  0  0  0
 11 12  2  0  0  0  0
 11 26  1  0  0  0  0
 12 27  1  0  0  0  0
 13 21  1  0  0  0  0
 13 25  2  0  0  0  0
 14 27  2  0  0  0  0
 14 28  1  0  0  0  0
 15 22  2  0  0  0  0
 15 78  1  0  0  0  0
 16 29  1  0  0  0  0
 17 29  1  0  0  0  0
 17 30  2  0  0  0  0
 17 32  1  0  0  0  0
 18 20  2  0  0  0  0
 18 37  1  0  0  0  0
 19 21  2  0  0  0  0
 19 38  1  0  0  0  0
 20 46  1  0  0  0  0
 21 39  1  0  0  0  0
 22 23  1  0  0  0  0
 22 55  1  0  0  0  0
 23 31  2  0  0  0  0
 23 56  1  0  0  0  0
 24 79  1  0  0  0  0
 25 80  1  0  0  0  0
 26 28  2  0  0  0  0
 26 79  1  0  0  0  0
 27 81  1  0  0  0  0
 28 82  1  0  0  0  0
 29 63  2  0  0  0  0
 30 64  1  0  0  0  0
 30 67  1  0  0  0  0
 31 69  1  0  0  0  0
 31 78  1  0  0  0  0
 32 68  1  0  0  0  0
 32 73  2  0  0  0  0
 33 47  1  0  0  0  0
 33 70  1  0  0  0  0
 33 74  2  0  0  0  0
 34 60  1  0  0  0  0
 34 65  1  0  0  0  0
 34 75  2  0  0  0  0
 35 61  1  0  0  0  0
 35 71  1  0  0  0  0
 35 76  2  0  0  0  0
 36 66  1  0  0  0  0
 36 69  1  0  0  0  0
 36 77  2  0  0  0  0
 37 40  1  0  0  0  0
 38 47  1  0  0  0  0
 39 65  1  0  0  0  0
 40 42  1  0  0  0  0
 41 43  1  0  0  0  0
 41 44  1  0  0  0  0
 42 46  1  0  0  0  0
 43 48  1  0  0  0  0
 44 66  1  0  0  0  0
 45 48  1  0  0  0  0
 45 66  1  0  0  0  0
 46 70  1  0  0  0  0
 47 65  1  0  0  0  0
 48 64  1  0  0  0  0
 49 56  1  0  0  0  0
 50 61  1  0  0  0  0
 51 62  1  0  0  0  0
 52 62  1  0  0  0  0
 53 62  1  0  0  0  0
 54 72  1  0  0  0  0
 55 57  1  0  0  0  0
 57 58  1  0  0  0  0
 58 59  1  0  0  0  0
 59 80  1  0  0  0  0
 60 62  1  0  0  0  0
 60 71  1  0  0  0  0
 61 72  1  0  0  0  0
 63 64  1  0  0  0  0
M  CHG  1  72   1
M  ISO  4  36 100  59 101  69 100  80 101
M  END
> <Batch ID>
0131

> <Smiles>
CCc1c(CCC[101CH2:1][101O:1]c2ccc3c(c2)CN(C(=O)C(NC(=O)C(C)NC)C(C)(C)C)C(C(=O)NC2CCCc4ccccc42)C3)coc1[100NH:0][100C:0](=O)N1CCCC(n2nc(-c3ccc(Oc4ccc(F)cc4F)cc3)c(C(N)=O)c2N)C1

> <Shape>
0.297

> <Color>
0.073

> <Negative vol penalty>
0.000

$$$$

  -OEChem-04052302253D

 83 91  0     1  0  0  0  0  0999 V2000
  -31.1706  -25.5358   18.2563 C   0  0  0  0  0  0  0  0  0  0  0  0
  -29.7836  -25.5394   18.1477 C   0  0  0  0  0  0  0  0  0  0  0  0
  -27.8495  -14.9688   21.3814 C   0  0  0  0  0  0  0  0  0  0  0  0
  -26.0891  -15.3942   19.7823 C   0  0  0  0  0  0  0  0  0  0  0  0
  -31.7791  -26.0130   19.4165 C   0  0  0  0  0  0  0  0  0  0  0  0
  -29.0043  -26.0193   19.1998 C   0  0  0  0  0  0  0  0  0  0  0  0
  -23.6972  -29.0449   18.7680 C   0  0  0  0  0  0  0  0  0  0  0  0
  -20.5164  -23.9614   21.5435 C   0  0  0  0  0  0  0  0  0  0  0  0
  -21.8334  -23.6037   21.8318 C   0  0  0  0  0  0  0  0  0  0  0  0
  -27.4464  -13.6365   21.4707 C   0  0  0  0  0  0  0  0  0  0  0  0
  -25.6860  -14.0618   19.8715 C   0  0  0  0  0  0  0  0  0  0  0  0
  -22.3704  -28.6327   18.8837 C   0  0  0  0  0  0  0  0  0  0  0  0
  -24.4194  -10.6859   19.4060 C   0  0  0  0  0  0  0  0  0  0  0  0
  -24.1367  -10.0121   18.2179 C   0  0  0  0  0  0  0  0  0  0  0  0
  -22.3650  -29.3198   21.1961 C   0  0  0  0  0  0  0  0  0  0  0  0
  -20.6593  -22.7892   19.4358 C   0  0  0  0  0  0  0  0  0  0  0  0
  -26.3990  -10.3961   17.4618 C   0  0  0  0  0  0  0  0  0  0  0  0
  -27.1708  -15.8477   20.5372 C   0  0  0  0  0  0  0  0  0  0  0  0
  -28.5285  -17.7699   19.5526 C   0  0  0  0  0  0  0  0  0  0  0  0
  -31.0072  -26.5079   20.4794 C   0  0  0  0  0  0  0  0  0  0  0  0
  -24.3724  -29.5885   19.8703 C   0  0  0  0  0  0  0  0  0  0  0  0
  -29.6030  -26.5023   20.3758 C   0  0  0  0  0  0  0  0  0  0  0  0
  -23.6995  -29.7405   21.0910 C   0  0  0  0  0  0  0  0  0  0  0  0
  -19.9293  -23.5541   20.3455 C   0  0  0  0  0  0  0  0  0  0  0  0
  -21.9764  -22.4316   19.7240 C   0  0  0  0  0  0  0  0  0  0  0  0
  -22.5635  -22.8389   20.9220 C   0  0  0  0  0  0  0  0  0  0  0  0
  -26.3647  -13.1830   20.7157 C   0  0  0  0  0  0  0  0  0  0  0  0
  -21.7050  -28.7674   20.0986 C   0  0  0  0  0  0  0  0  0  0  0  0
  -25.6919  -11.2149   19.6220 C   0  0  0  0  0  0  0  0  0  0  0  0
  -25.1265   -9.8672   17.2458 C   0  0  0  0  0  0  0  0  0  0  0  0
  -26.6817  -11.0700   18.6499 C   0  0  0  0  0  0  0  0  0  0  0  0
  -27.5863  -17.2243   20.4450 C   0  0  0  0  0  0  0  0  0  0  0  0
  -28.5650  -19.1065   19.8667 C   0  0  0  0  0  0  0  0  0  0  0  0
  -29.3015  -17.1261   18.5310 C   0  0  0  0  0  0  0  0  0  0  0  0
  -26.9313  -28.7610   21.5646 C   0  0  0  0  0  0  0  0  0  0  0  0
  -18.9082  -26.4697   20.0701 C   0  0  0  0  0  0  0  0  0  0  0  0
  -26.4257  -31.6260   22.9993 C   0  0  0  0  0  0  0  0  0  0  0  0
  -24.2374  -34.1200   23.7981 C   0  0  0  0  0  0  0  0  0  0  0  0
  -24.6156  -22.8179   22.3831 C   0  0  0  0  0  0  0  0  0  0  0  0
  -31.7083  -26.9694   21.7324 C   0  0  0  0  0  0  0  0  0  0  0  0
  -25.7953  -30.0530   19.7218 C   0  0  0  0  0  0  0  0  0  0  0  0
  -24.3732  -30.3367   22.2990 C   0  0  0  0  0  0  0  0  0  0  0  0
  -30.8240  -27.8082   22.6515 C   0  0  0  0  0  0  0  0  0  0  0  0
  -27.9080  -22.1096   23.5387 C   0  0  0  0  0  0  0  0  0  0  0  0
  -29.4595  -27.1492   22.8266 C   0  0  0  0  0  0  0  0  0  0  0  0
  -28.2872  -20.8295   22.7907 C   0  0  0  0  0  0  0  0  0  0  0  0
  -26.4314  -22.1215   23.9300 C   0  0  0  0  0  0  0  0  0  0  0  0
  -25.8738  -20.5954   22.0782 C   0  0  0  0  0  0  0  0  0  0  0  0
  -28.7244  -27.0377   21.4855 C   0  0  1  0  0  0  0  0  0  0  0  0
  -26.5441  -30.1183   21.0493 C   0  0  1  0  0  0  0  0  0  0  0  0
  -27.3367  -20.5662   21.6063 C   0  0  2  0  0  0  0  0  0  0  0  0
  -22.7357  -21.6142   18.7296 C   0  0  0  0  0  0  0  0  0  0  0  0
  -24.1080  -36.3142   25.0090 C   0  0  0  0  0  0  0  0  0  0  0  0
  -26.4404  -30.1502   25.6698 C   0  0  0  0  0  0  0  0  0  0  0  0
  -25.3844  -32.1674   26.7110 C   0  0  0  0  0  0  0  0  0  0  0  0
  -27.6498  -32.3392   25.6809 C   0  0  0  0  0  0  0  0  0  0  0  0
  -23.4555  -35.5648   21.3363 C   0  0  0  0  0  0  0  0  0  0  0  0
  -18.5044  -23.9434   20.0326 C   0  0  0  0  0  0  0  0  0  0  0  0
  -18.3868  -25.2738   19.2864 C   0  0  0  0  0  0  0  0  0  0  0  0
  -19.9896  -27.2825   19.3856 C   0  0  0  0  0  0  0  0  0  1  0  0
  -25.6239  -32.1000   24.1873 C   0  0  1  0  0  0  0  0  0  0  0  0
  -24.3403  -35.6293   23.6712 C   0  0  2  0  0  0  0  0  0  0  0  0
  -26.2623  -31.6762   25.5402 C   0  0  0  0  0  0  0  0  0  0  0  0
  -27.0622  -18.1395   21.2646 N   0  0  0  0  0  0  0  0  0  0  0  0
  -27.6773  -19.2736   20.8885 N   0  0  0  0  0  0  0  0  0  0  0  0
  -25.7668  -30.7701   22.1053 N   0  0  0  0  0  0  0  0  0  0  0  0
  -25.5912  -21.8697   22.7572 N   0  0  0  0  0  0  0  0  0  0  0  0
  -29.2696  -20.1433   19.3658 N   0  0  0  0  0  0  0  0  0  0  0  0
  -29.1414  -15.7467   18.3414 N   0  0  0  0  0  0  0  0  0  0  0  0
  -23.9000  -22.4859   21.2332 N   0  0  0  0  0  0  0  0  0  0  0  0
  -28.1586  -28.3162   21.1115 N   0  0  0  0  0  0  0  0  0  0  0  0
  -25.4682  -33.5416   24.0257 N   0  0  0  0  0  0  0  0  0  0  0  0
  -23.3295  -36.1376   22.7012 N   0  3  0  0  0  0  0  0  0  0  0  0
  -30.1224  -17.7525   17.8187 O   0  0  0  0  0  0  0  0  0  0  0  0
  -26.1734  -28.1622   22.3188 O   0  0  0  0  0  0  0  0  0  0  0  0
  -18.4626  -26.7854   21.1720 O   0  0  0  0  0  0  0  0  0  0  0  0
  -27.5912  -32.0070   22.8654 O   0  0  0  0  0  0  0  0  0  0  0  0
  -23.1713  -33.5151   23.7082 O   0  0  0  0  0  0  0  0  0  0  0  0
  -24.4473  -23.8614   23.0192 O   0  0  0  0  0  0  0  0  0  0  0  0
  -25.9713  -11.8829   20.8024 O   0  0  0  0  0  0  0  0  0  0  0  0
  -20.4101  -28.3653   20.2145 O   0  0  0  0  0  0  0  0  0  1  0  0
  -24.8552   -9.2187   16.1055 F   0  0  0  0  0  0  0  0  0  0  0  0
  -27.9064  -11.5750   18.8522 F   0  0  0  0  0  0  0  0  0  0  0  0
  1  2  1  0  0  0  0
  1  5  2  0  0  0  0
  2  6  2  0  0  0  0
  3 10  2  0  0  0  0
  3 18  1  0  0  0  0
  4 11  1  0  0  0  0
  4 18  2  0  0  0  0
  5 20  1  0  0  0  0
  6 22  1  0  0  0  0
  7 12  2  0  0  0  0
  7 21  1  0  0  0  0
  8  9  2  0  0  0  0
  8 24  1  0  0  0  0
  9 26  1  0  0  0  0
 10 27  1  0  0  0  0
 11 27  2  0  0  0  0
 12 28  1  0  0  0  0
 13 14  2  0  0  0  0
 13 29  1  0  0  0  0
 14 30  1  0  0  0  0
 15 23  1  0  0  0  0
 15 28  2  0  0  0  0
 16 24  2  0  0  0  0
 16 25  1  0  0  0  0
 17 30  2  0  0  0  0
 17 31  1  0  0  0  0
 18 32  1  0  0  0  0
 19 32  1  0  0  0  0
 19 33  2  0  0  0  0
 19 34  1  0  0  0  0
 20 22  2  0  0  0  0
 20 40  1  0  0  0  0
 21 23  2  0  0  0  0
 21 41  1  0  0  0  0
 22 49  1  0  0  0  0
 23 42  1  0  0  0  0
 24 58  1  0  0  0  0
 25 26  2  0  0  0  0
 25 52  1  0  0  0  0
 26 70  1  0  0  0  0
 27 80  1  0  0  0  0
 28 81  1  0  0  0  0
 29 31  2  0  0  0  0
 29 80  1  0  0  0  0
 30 82  1  0  0  0  0
 31 83  1  0  0  0  0
 32 64  2  0  0  0  0
 33 65  1  0  0  0  0
 33 68  1  0  0  0  0
 34 69  1  0  0  0  0
 34 74  2  0  0  0  0
 35 50  1  0  0  0  0
 35 71  1  0  0  0  0
 35 75  2  0  0  0  0
 36 59  1  0  0  0  0
 36 60  1  0  0  0  0
 36 76  2  0  0  0  0
 37 61  1  0  0  0  0
 37 66  1  0  0  0  0
 37 77  2  0  0  0  0
 38 62  1  0  0  0  0
 38 72  1  0  0  0  0
 38 78  2  0  0  0  0
 39 67  1  0  0  0  0
 39 70  1  0  0  0  0
 39 79  2  0  0  0  0
 40 43  1  0  0  0  0
 41 50  1  0  0  0  0
 42 66  1  0  0  0  0
 43 45  1  0  0  0  0
 44 46  1  0  0  0  0
 44 47  1  0  0  0  0
 45 49  1  0  0  0  0
 46 51  1  0  0  0  0
 47 67  1  0  0  0  0
 48 51  1  0  0  0  0
 48 67  1  0  0  0  0
 49 71  1  0  0  0  0
 50 66  1  0  0  0  0
 51 65  1  0  0  0  0
 53 62  1  0  0  0  0
 54 63  1  0  0  0  0
 55 63  1  0  0  0  0
 56 63  1  0  0  0  0
 57 73  1  0  0  0  0
 58 59  1  0  0  0  0
 60 81  1  0  0  0  0
 61 63  1  0  0  0  0
 61 72  1  0  0  0  0
 62 73  1  0  0  0  0
 64 65  1  0  0  0  0
M  CHG  1  73   1
M  ISO  4  39 100  60 101  70 100  81 101
M  END
> <Batch ID>
0131

> <Smiles>
CNC(C)C(=O)NC(C(=O)N1Cc2cc([101O:1][101CH2:1]C(=O)CCc3ccc([100NH:0][100C:0](=O)N4CCCC(n5nc(-c6ccc(Oc7ccc(F)cc7F)cc6)c(C(N)=O)c5N)C4)c(C)c3)ccc2CC1C(=O)NC1CCCc2ccccc21)C(C)(C)C

> <Shape>
0.278

> <Color>
0.082

> <Negative vol penalty>
0.000

$$$$

  -OEChem-04052302253D

 85 94  0     1  0  0  0  0  0999 V2000
  -35.0452   -3.9826   27.7221 C   0  0  0  0  0  0  0  0  0  0  0  0
  -35.2004   -5.0999   26.9078 C   0  0  0  0  0  0  0  0  0  0  0  0
  -23.2844   -9.7946   19.9092 C   0  0  0  0  0  0  0  0  0  0  0  0
  -23.7114   -9.9391   22.2828 C   0  0  0  0  0  0  0  0  0  0  0  0
  -33.7689   -3.5723   28.1049 C   0  0  0  0  0  0  0  0  0  0  0  0
  -34.0792   -5.8069   26.4750 C   0  0  0  0  0  0  0  0  0  0  0  0
  -33.6585  -11.8502   25.5761 C   0  0  0  0  0  0  0  0  0  0  0  0
  -22.5504   -8.6260   20.1123 C   0  0  0  0  0  0  0  0  0  0  0  0
  -22.9773   -8.7705   22.4859 C   0  0  0  0  0  0  0  0  0  0  0  0
  -33.7429  -12.6358   24.4274 C   0  0  0  0  0  0  0  0  0  0  0  0
  -23.1830   -5.3500   20.6525 C   0  0  0  0  0  0  0  0  0  0  0  0
  -23.4154   -4.2809   19.7872 C   0  0  0  0  0  0  0  0  0  0  0  0
  -33.5751  -16.6335   16.0917 C   0  0  0  0  0  0  0  0  0  0  0  0
  -31.3371  -12.6256   24.2509 C   0  0  0  0  0  0  0  0  0  0  0  0
  -21.1006   -4.3360   19.0975 C   0  0  0  0  0  0  0  0  0  0  0  0
  -35.6749  -17.3100   16.9803 C   0  0  0  0  0  0  0  0  0  0  0  0
  -23.8650  -10.4511   20.9944 C   0  0  0  0  0  0  0  0  0  0  0  0
  -33.0822  -16.5646   17.3900 C   0  0  0  0  0  0  0  0  0  0  0  0
  -24.1383  -12.9794   20.7922 C   0  0  0  0  0  0  0  0  0  0  0  0
  -32.6320   -4.2804   27.6844 C   0  0  0  0  0  0  0  0  0  0  0  0
  -32.4111  -11.4366   26.0655 C   0  0  0  0  0  0  0  0  0  0  0  0
  -32.7864   -5.4049   26.8514 C   0  0  0  0  0  0  0  0  0  0  0  0
  -31.2394  -11.8369   25.4074 C   0  0  0  0  0  0  0  0  0  0  0  0
  -34.8951  -17.0124   15.8743 C   0  0  0  0  0  0  0  0  0  0  0  0
  -22.3968   -8.1140   21.4006 C   0  0  0  0  0  0  0  0  0  0  0  0
  -32.5823  -13.0212   23.7630 C   0  0  0  0  0  0  0  0  0  0  0  0
  -21.9094   -5.9120   20.7403 C   0  0  0  0  0  0  0  0  0  0  0  0
  -22.3743   -3.7739   19.0097 C   0  0  0  0  0  0  0  0  0  0  0  0
  -20.8682   -5.4050   19.9628 C   0  0  0  0  0  0  0  0  0  0  0  0
  -24.6238  -11.6580   20.7852 C   0  0  0  0  0  0  0  0  0  0  0  0
  -33.9432  -16.8821   18.4281 C   0  0  0  0  0  0  0  0  0  0  0  0
  -25.2460  -13.7534   20.5468 C   0  0  0  0  0  0  0  0  0  0  0  0
  -32.7154  -15.9944   21.7562 C   0  0  0  0  0  0  0  0  0  0  0  0
  -31.6979  -16.1663   17.6018 C   0  0  0  0  0  0  0  0  0  0  0  0
  -32.6431  -15.1461   22.7874 C   0  0  0  0  0  0  0  0  0  1  0  0
  -31.1625  -14.9801   17.2459 C   0  0  0  0  0  0  0  0  0  0  0  0
  -22.8053  -13.4638   21.0021 C   0  0  0  0  0  0  0  0  0  0  0  0
  -29.7386  -14.7208   17.5390 C   0  0  0  0  0  0  0  0  0  0  0  0
  -31.0027   -8.6246   26.5269 C   0  0  0  0  0  0  0  0  0  0  0  0
  -28.6959  -10.4444   27.9014 C   0  0  0  0  0  0  0  0  0  0  0  0
  -27.1790  -13.4905   28.1600 C   0  0  0  0  0  0  0  0  0  0  0  0
  -31.2702   -3.7710   28.0852 C   0  0  0  0  0  0  0  0  0  0  0  0
  -32.3357  -10.6117   27.3210 C   0  0  0  0  0  0  0  0  0  0  0  0
  -29.8749  -11.4363   25.9035 C   0  0  0  0  0  0  0  0  0  0  0  0
  -32.6985  -17.4862   21.8666 C   0  0  0  0  0  0  0  0  0  0  0  0
  -32.9446  -15.5960   20.3293 C   0  0  0  0  0  0  0  0  0  0  0  0
  -30.1552   -4.7953   27.8907 C   0  0  0  0  0  0  0  0  0  0  0  0
  -30.1505  -12.5814   20.4861 C   0  0  0  0  0  0  0  0  0  0  0  0
  -30.2697   -5.4553   26.5202 C   0  0  0  0  0  0  0  0  0  0  0  0
  -28.6991  -12.2228   20.7938 C   0  0  0  0  0  0  0  0  0  0  0  0
  -33.5436  -17.9246   20.6739 C   0  0  0  0  0  0  0  0  0  0  0  0
  -30.3985  -12.7234   18.9851 C   0  0  0  0  0  0  0  0  0  0  0  0
  -28.0219  -13.3251   18.6243 C   0  0  0  0  0  0  0  0  0  0  0  0
  -31.5959   -6.2126   26.3817 C   0  0  1  0  0  0  0  0  0  0  0  0
  -31.0376   -9.8189   27.4380 C   0  0  1  0  0  0  0  0  0  0  0  0
  -27.7390  -13.2235   20.1313 C   0  0  1  0  0  0  0  0  0  0  0  0
  -35.4526  -17.0958   14.4980 C   0  0  0  0  0  0  0  0  0  0  0  0
  -25.2968  -14.6602   29.3375 C   0  0  0  0  0  0  0  0  0  0  0  0
  -26.6926   -9.0860   26.0435 C   0  0  0  0  0  0  0  0  0  0  0  0
  -25.0667  -10.9145   26.5737 C   0  0  0  0  0  0  0  0  0  0  0  0
  -25.8862   -9.4116   28.3883 C   0  0  0  0  0  0  0  0  0  0  0  0
  -29.0270  -15.3990   29.4644 C   0  0  0  0  0  0  0  0  0  0  0  0
  -27.4498  -11.1411   27.4107 C   0  0  1  0  0  0  0  0  0  0  0  0
  -26.7779  -14.3167   29.3687 C   0  0  2  0  0  0  0  0  0  0  0  0
  -26.2995  -10.1444   27.0934 C   0  0  0  0  0  0  0  0  0  0  0  0
  -35.2314  -17.2544   18.2561 N   0  0  0  0  0  0  0  0  0  0  0  0
  -25.9376  -11.5925   20.5534 N   0  0  0  0  0  0  0  0  0  0  0  0
  -26.2870  -12.8825   20.4124 N   0  0  0  0  0  0  0  0  0  0  0  0
  -33.4674  -16.8179   19.7231 N   0  0  3  0  0  0  0  0  0  0  0  0
  -29.4310  -13.6404   18.3641 N   0  0  0  0  0  0  0  0  0  0  0  0
  -29.8538  -10.6244   27.1315 N   0  0  0  0  0  0  0  0  0  0  0  0
  -25.4214  -15.0873   20.4348 N   0  0  0  0  0  0  0  0  0  0  0  0
  -21.7858  -12.5323   21.2414 N   0  0  0  0  0  0  0  0  0  0  0  0
  -31.5321   -7.4762   27.0842 N   0  0  0  0  0  0  0  0  0  0  0  0
  -27.1147  -12.1382   28.4216 N   0  0  0  0  0  0  0  0  0  0  0  0
  -27.5545  -15.5880   29.4079 N   0  3  0  0  0  0  0  0  0  0  0  0
  -22.5235  -14.6855   20.9618 O   0  0  0  0  0  0  0  0  0  0  0  0
  -28.9069  -15.4748   17.0307 O   0  0  0  0  0  0  0  0  0  0  0  0
  -30.5292   -8.7363   25.4022 O   0  0  0  0  0  0  0  0  0  0  0  0
  -28.6455   -9.7712   28.9338 O   0  0  0  0  0  0  0  0  0  0  0  0
  -27.5121  -13.9943   27.0896 O   0  0  0  0  0  0  0  0  0  0  0  0
  -21.6805   -6.9738   21.5992 O   0  0  0  0  0  0  0  0  0  0  0  0
  -32.6619  -13.7874   22.6412 O   0  0  0  0  0  0  0  0  0  1  0  0
  -22.5979   -2.7483   18.1777 F   0  0  0  0  0  0  0  0  0  0  0  0
  -19.6428   -5.9416   20.0420 F   0  0  0  0  0  0  0  0  0  0  0  0
  1  2  1  0  0  0  0
  1  5  2  0  0  0  0
  2  6  2  0  0  0  0
  3  8  2  0  0  0  0
  3 17  1  0  0  0  0
  4  9  1  0  0  0  0
  4 17  2  0  0  0  0
  5 20  1  0  0  0  0
  6 22  1  0  0  0  0
  7 10  2  0  0  0  0
  7 21  1  0  0  0  0
  8 25  1  0  0  0  0
  9 25  2  0  0  0  0
 10 26  1  0  0  0  0
 11 12  2  0  0  0  0
 11 27  1  0  0  0  0
 12 28  1  0  0  0  0
 13 18  1  0  0  0  0
 13 24  2  0  0  0  0
 14 23  1  0  0  0  0
 14 26  2  0  0  0  0
 15 28  2  0  0  0  0
 15 29  1  0  0  0  0
 16 24  1  0  0  0  0
 16 66  2  0  0  0  0
 17 30  1  0  0  0  0
 18 31  2  0  0  0  0
 18 34  1  0  0  0  0
 19 30  1  0  0  0  0
 19 32  2  0  0  0  0
 19 37  1  0  0  0  0
 20 22  2  0  0  0  0
 20 42  1  0  0  0  0
 21 23  2  0  0  0  0
 21 43  1  0  0  0  0
 22 54  1  0  0  0  0
 23 44  1  0  0  0  0
 24 57  1  0  0  0  0
 25 82  1  0  0  0  0
 26 83  1  0  0  0  0
 27 29  2  0  0  0  0
 27 82  1  0  0  0  0
 28 84  1  0  0  0  0
 29 85  1  0  0  0  0
 30 67  2  0  0  0  0
 31 66  1  0  0  0  0
 31 69  1  0  0  0  0
 32 68  1  0  0  0  0
 32 72  1  0  0  0  0
 33 35  2  0  0  0  0
 33 45  1  0  0  0  0
 33 46  1  0  0  0  0
 34 36  2  0  0  0  0
 35 83  1  0  0  0  0
 36 38  1  0  0  0  0
 37 73  1  0  0  0  0
 37 77  2  0  0  0  0
 38 70  1  0  0  0  0
 38 78  2  0  0  0  0
 39 55  1  0  0  0  0
 39 74  1  0  0  0  0
 39 79  2  0  0  0  0
 40 63  1  0  0  0  0
 40 71  1  0  0  0  0
 40 80  2  0  0  0  0
 41 64  1  0  0  0  0
 41 75  1  0  0  0  0
 41 81  2  0  0  0  0
 42 47  1  0  0  0  0
 43 55  1  0  0  0  0
 44 71  1  0  0  0  0
 45 51  1  0  0  0  0
 46 69  1  0  0  0  0
 47 49  1  0  0  0  0
 48 50  1  0  0  0  0
 48 52  1  0  0  0  0
 49 54  1  0  0  0  0
 50 56  1  0  0  0  0
 51 69  1  0  0  0  0
 52 70  1  0  0  0  0
 53 56  1  0  0  0  0
 53 70  1  0  0  0  0
 54 74  1  0  0  0  0
 55 71  1  0  0  0  0
 56 68  1  0  0  0  0
 58 64  1  0  0  0  0
 59 65  1  0  0  0  0
 60 65  1  0  0  0  0
 61 65  1  0  0  0  0
 62 76  1  0  0  0  0
 63 65  1  0  0  0  0
 63 75  1  0  0  0  0
 64 76  1  0  0  0  0
 67 68  1  0  0  0  0
M  CHG  1  76   1
M  ISO  4  35 101  36 100  38 100  83 101
M  END
> <Batch ID>
0131

> <Smiles>
CNC(C)C(=O)NC(C(=O)N1Cc2cc([101O:1][101CH:1]=C3CCN(c4ncc(C)cc4C=[100CH:0][100C:0](=O)N4CCCC(n5nc(-c6ccc(Oc7ccc(F)cc7F)cc6)c(C(N)=O)c5N)C4)C3)ccc2CC1C(=O)NC1CCCc2ccccc21)C(C)(C)C

> <Shape>
0.123

> <Color>
0.177

> <Negative vol penalty>
0.000

$$$$

  -OEChem-04052302253D

 84 92  0     1  0  0  0  0  0999 V2000
  -28.3437  -36.3557   22.8231 C   0  0  0  0  0  0  0  0  0  0  0  0
  -28.6168  -34.9953   22.7229 C   0  0  0  0  0  0  0  0  0  0  0  0
  -24.0476   -9.7938   22.2611 C   0  0  0  0  0  0  0  0  0  0  0  0
  -24.6320  -11.4297   23.9403 C   0  0  0  0  0  0  0  0  0  0  0  0
  -30.7039  -20.1463   19.0051 C   0  0  0  0  0  0  0  0  0  0  0  0
  -27.0902  -36.7837   23.2582 C   0  0  0  0  0  0  0  0  0  0  0  0
  -27.6368  -34.0620   23.0589 C   0  0  0  0  0  0  0  0  0  0  0  0
  -27.2925  -30.3050   19.6808 C   0  0  0  0  0  0  0  0  0  0  0  0
  -30.4426  -18.7787   18.9216 C   0  0  0  0  0  0  0  0  0  0  0  0
  -23.6689   -8.9005   23.2632 C   0  0  0  0  0  0  0  0  0  0  0  0
  -24.2533  -10.5363   24.9424 C   0  0  0  0  0  0  0  0  0  0  0  0
  -28.2588  -29.3020   19.7433 C   0  0  0  0  0  0  0  0  0  0  0  0
  -21.0123   -8.4213   25.2993 C   0  0  0  0  0  0  0  0  0  0  0  0
  -19.8105   -7.7330   25.1338 C   0  0  0  0  0  0  0  0  0  0  0  0
  -28.3414  -20.5821   19.2613 C   0  0  0  0  0  0  0  0  0  0  0  0
  -26.7037  -27.8857   20.9246 C   0  0  0  0  0  0  0  0  0  0  0  0
  -21.0035   -5.6332   25.2034 C   0  0  0  0  0  0  0  0  0  0  0  0
  -24.5292  -11.0584   22.5997 C   0  0  0  0  0  0  0  0  0  0  0  0
  -29.6533  -21.0480   19.1750 C   0  0  0  0  0  0  0  0  0  0  0  0
  -24.1071  -12.9329   20.9217 C   0  0  0  0  0  0  0  0  0  0  0  0
  -26.0911  -35.8552   23.5904 C   0  0  0  0  0  0  0  0  0  0  0  0
  -26.0260  -30.1096   20.2502 C   0  0  0  0  0  0  0  0  0  0  0  0
  -26.3691  -34.4779   23.5001 C   0  0  0  0  0  0  0  0  0  0  0  0
  -25.7222  -28.8869   20.8657 C   0  0  0  0  0  0  0  0  0  0  0  0
  -28.0800  -19.2145   19.1777 C   0  0  0  0  0  0  0  0  0  0  0  0
  -29.1306  -18.3128   19.0079 C   0  0  0  0  0  0  0  0  0  0  0  0
  -23.7717   -9.2717   24.6038 C   0  0  0  0  0  0  0  0  0  0  0  0
  -27.9655  -28.0932   20.3678 C   0  0  0  0  0  0  0  0  0  0  0  0
  -22.2098   -7.7156   25.4168 C   0  0  0  0  0  0  0  0  0  0  0  0
  -19.8060   -6.3389   25.0859 C   0  0  0  0  0  0  0  0  0  0  0  0
  -22.2053   -6.3216   25.3689 C   0  0  0  0  0  0  0  0  0  0  0  0
  -24.9211  -11.9815   21.5650 C   0  0  0  0  0  0  0  0  0  0  0  0
  -24.9450  -13.5530   20.0272 C   0  0  0  0  0  0  0  0  0  0  0  0
  -29.9301  -22.4927   19.2632 C   0  0  0  0  0  0  0  0  0  0  0  0
  -29.0946  -23.3967   19.7933 C   0  0  0  0  0  0  0  0  0  0  0  0
  -22.7179  -13.2298   21.1153 C   0  0  0  0  0  0  0  0  0  0  0  0
  -29.4660  -24.8412   19.8258 C   0  0  0  0  0  0  0  0  0  0  0  0
  -24.3716  -31.5102   22.5752 C   0  0  0  0  0  0  0  0  0  0  0  0
  -22.0162  -29.5210   21.5666 C   0  0  0  0  0  0  0  0  0  0  0  0
  -21.1503  -26.6260   19.9804 C   0  0  0  0  0  0  0  0  0  0  0  0
  -29.8280  -15.9055   18.7525 C   0  0  0  0  0  0  0  0  0  0  0  0
  -24.7668  -36.3654   24.1011 C   0  0  0  0  0  0  0  0  0  0  0  0
  -24.9857  -31.1915   20.1509 C   0  0  0  0  0  0  0  0  0  0  0  0
  -24.3708  -28.6197   21.4746 C   0  0  0  0  0  0  0  0  0  0  0  0
  -23.6600  -35.3143   24.0798 C   0  0  0  0  0  0  0  0  0  0  0  0
  -29.6299  -12.3576   18.5289 C   0  0  0  0  0  0  0  0  0  0  0  0
  -24.1633  -33.9972   24.6617 C   0  0  0  0  0  0  0  0  0  0  0  0
  -28.3202  -12.0217   19.2460 C   0  0  0  0  0  0  0  0  0  0  0  0
  -30.3611  -13.5198   19.1985 C   0  0  0  0  0  0  0  0  0  0  0  0
  -28.2458  -14.3965   20.1072 C   0  0  0  0  0  0  0  0  0  0  0  0
  -25.3238  -33.4351   23.8317 C   0  0  1  0  0  0  0  0  0  0  0  0
  -23.8999  -31.0761   21.2163 C   0  0  1  0  0  0  0  0  0  0  0  0
  -27.4415  -13.2745   19.4306 C   0  0  2  0  0  0  0  0  0  0  0  0
  -26.0879  -18.3682   17.9121 C   0  0  0  0  0  0  0  0  0  0  0  0
  -19.1501  -25.2502   19.3451 C   0  0  0  0  0  0  0  0  0  0  0  0
  -21.7627  -28.5615   24.4519 C   0  0  0  0  0  0  0  0  0  0  0  0
  -20.4792  -26.5844   23.6083 C   0  0  0  0  0  0  0  0  0  0  0  0
  -19.5852  -28.8879   23.2660 C   0  0  0  0  0  0  0  0  0  0  0  0
  -21.7538  -26.8709   17.0934 C   0  0  0  0  0  0  0  0  0  0  0  0
  -26.6652  -18.7432   19.2733 C   0  0  0  0  0  0  0  0  0  0  0  0
  -28.4405  -25.7643   20.4493 C   0  0  0  0  0  0  0  0  0  1  0  0
  -21.5790  -28.1187   21.9150 C   0  0  1  0  0  0  0  0  0  0  0  0
  -20.1191  -26.3364   18.9047 C   0  0  2  0  0  0  0  0  0  0  0  0
  -20.8777  -28.0436   23.3006 C   0  0  0  0  0  0  0  0  0  0  0  0
  -26.1795  -11.9923   21.1172 N   0  0  0  0  0  0  0  0  0  0  0  0
  -26.1624  -12.9581   20.1829 N   0  0  0  0  0  0  0  0  0  0  0  0
  -23.3895  -29.7109   21.3574 N   0  0  0  0  0  0  0  0  0  0  0  0
  -29.4681  -14.6724   19.3361 N   0  0  0  0  0  0  0  0  0  0  0  0
  -24.7518  -14.5435   19.1306 N   0  0  0  0  0  0  0  0  0  0  0  0
  -22.0057  -12.4978   22.0752 N   0  0  0  0  0  0  0  0  0  0  0  0
  -28.8859  -16.9198   18.9209 N   0  0  0  0  0  0  0  0  0  0  0  0
  -24.8263  -32.8142   22.6228 N   0  0  0  0  0  0  0  0  0  0  0  0
  -20.7544  -27.6599   20.8023 N   0  0  0  0  0  0  0  0  0  0  0  0
  -20.7897  -25.8881   17.6516 N   0  3  0  0  0  0  0  0  0  0  0  0
  -22.1216  -14.1067   20.4452 O   0  0  0  0  0  0  0  0  0  0  0  0
  -30.5330  -25.2507   19.3764 O   0  0  0  0  0  0  0  0  0  0  0  0
  -24.3251  -30.7210   23.5115 O   0  0  0  0  0  0  0  0  0  0  0  0
  -21.1695  -30.4135   21.4762 O   0  0  0  0  0  0  0  0  0  0  0  0
  -22.2002  -25.9955   20.0837 O   0  0  0  0  0  0  0  0  0  0  0  0
  -30.8809  -16.0436   18.1245 O   0  0  0  0  0  0  0  0  0  0  0  0
  -23.4020   -8.4004   25.5818 O   0  0  0  0  0  0  0  0  0  0  0  0
  -28.9071  -27.1128   20.4308 O   0  0  0  0  0  0  0  0  0  1  0  0
  -18.6516   -5.6780   24.9285 F   0  0  0  0  0  0  0  0  0  0  0  0
  -23.3524   -5.6381   25.4824 F   0  0  0  0  0  0  0  0  0  0  0  0
  1  2  1  0  0  0  0
  1  6  2  0  0  0  0
  2  7  2  0  0  0  0
  3 10  2  0  0  0  0
  3 18  1  0  0  0  0
  4 11  1  0  0  0  0
  4 18  2  0  0  0  0
  5  9  2  0  0  0  0
  5 19  1  0  0  0  0
  6 21  1  0  0  0  0
  7 23  1  0  0  0  0
  8 12  2  0  0  0  0
  8 22  1  0  0  0  0
  9 26  1  0  0  0  0
 10 27  1  0  0  0  0
 11 27  2  0  0  0  0
 12 28  1  0  0  0  0
 13 14  2  0  0  0  0
 13 29  1  0  0  0  0
 14 30  1  0  0  0  0
 15 19  2  0  0  0  0
 15 25  1  0  0  0  0
 16 24  1  0  0  0  0
 16 28  2  0  0  0  0
 17 30  2  0  0  0  0
 17 31  1  0  0  0  0
 18 32  1  0  0  0  0
 19 34  1  0  0  0  0
 20 32  1  0  0  0  0
 20 33  2  0  0  0  0
 20 36  1  0  0  0  0
 21 23  2  0  0  0  0
 21 42  1  0  0  0  0
 22 24  2  0  0  0  0
 22 43  1  0  0  0  0
 23 51  1  0  0  0  0
 24 44  1  0  0  0  0
 25 26  2  0  0  0  0
 25 60  1  0  0  0  0
 26 71  1  0  0  0  0
 27 81  1  0  0  0  0
 28 82  1  0  0  0  0
 29 31  2  0  0  0  0
 29 81  1  0  0  0  0
 30 83  1  0  0  0  0
 31 84  1  0  0  0  0
 32 65  2  0  0  0  0
 33 66  1  0  0  0  0
 33 69  1  0  0  0  0
 34 35  2  0  0  0  0
 35 37  1  0  0  0  0
 36 70  1  0  0  0  0
 36 75  2  0  0  0  0
 37 61  1  0  0  0  0
 37 76  2  0  0  0  0
 38 52  1  0  0  0  0
 38 72  1  0  0  0  0
 38 77  2  0  0  0  0
 39 62  1  0  0  0  0
 39 67  1  0  0  0  0
 39 78  2  0  0  0  0
 40 63  1  0  0  0  0
 40 73  1  0  0  0  0
 40 79  2  0  0  0  0
 41 68  1  0  0  0  0
 41 71  1  0  0  0  0
 41 80  2  0  0  0  0
 42 45  1  0  0  0  0
 43 52  1  0  0  0  0
 44 67  1  0  0  0  0
 45 47  1  0  0  0  0
 46 48  1  0  0  0  0
 46 49  1  0  0  0  0
 47 51  1  0  0  0  0
 48 53  1  0  0  0  0
 49 68  1  0  0  0  0
 50 53  1  0  0  0  0
 50 68  1  0  0  0  0
 51 72  1  0  0  0  0
 52 67  1  0  0  0  0
 53 66  1  0  0  0  0
 54 60  1  0  0  0  0
 55 63  1  0  0  0  0
 56 64  1  0  0  0  0
 57 64  1  0  0  0  0
 58 64  1  0  0  0  0
 59 74  1  0  0  0  0
 61 82  1  0  0  0  0
 62 64  1  0  0  0  0
 62 73  1  0  0  0  0
 63 74  1  0  0  0  0
 65 66  1  0  0  0  0
M  CHG  1  74   1
M  ISO  4  41 100  61 101  71 100  82 101
M  END
> <Batch ID>
0131

> <Smiles>
CCc1cc(C=CC(=O)[101CH2:1][101O:1]c2ccc3c(c2)CN(C(=O)C(NC(=O)C(C)NC)C(C)(C)C)C(C(=O)NC2CCCc4ccccc42)C3)ccc1[100NH:0][100C:0](=O)N1CCCC(n2nc(-c3ccc(Oc4ccc(F)cc4F)cc3)c(C(N)=O)c2N)C1

> <Shape>
0.348

> <Color>
0.138

> <Negative vol penalty>
0.000

$$$$

  -OEChem-04052302253D

 86 94  0     1  0  0  0  0  0999 V2000
  -34.7420  -32.4890   18.6643 C   0  0  0  0  0  0  0  0  0  0  0  0
  -33.4610  -32.6943   19.1667 C   0  0  0  0  0  0  0  0  0  0  0  0
  -27.6572  -13.2088   18.6921 C   0  0  0  0  0  0  0  0  0  0  0  0
  -28.0849  -13.3427   21.0661 C   0  0  0  0  0  0  0  0  0  0  0  0
  -34.9714  -31.4732   17.7371 C   0  0  0  0  0  0  0  0  0  0  0  0
  -32.4084  -31.8847   18.7414 C   0  0  0  0  0  0  0  0  0  0  0  0
  -26.2946  -28.9838   21.0914 C   0  0  0  0  0  0  0  0  0  0  0  0
  -28.9471  -12.7190   18.4873 C   0  0  0  0  0  0  0  0  0  0  0  0
  -29.3748  -12.8529   20.8614 C   0  0  0  0  0  0  0  0  0  0  0  0
  -24.9470  -28.8857   20.7477 C   0  0  0  0  0  0  0  0  0  0  0  0
  -32.9019  -11.9780   20.9242 C   0  0  0  0  0  0  0  0  0  0  0  0
  -33.9501  -12.6137   21.5896 C   0  0  0  0  0  0  0  0  0  0  0  0
  -17.2369  -21.5186   18.5576 C   0  0  0  0  0  0  0  0  0  0  0  0
  -19.2963  -22.6537   19.1117 C   0  0  0  0  0  0  0  0  0  0  0  0
  -25.4767  -27.1108   19.2022 C   0  0  0  0  0  0  0  0  0  0  0  0
  -33.4048  -14.6843   20.4703 C   0  0  0  0  0  0  0  0  0  0  0  0
  -27.2262  -13.5207   19.9815 C   0  0  0  0  0  0  0  0  0  0  0  0
  -18.6064  -21.4773   18.8189 C   0  0  0  0  0  0  0  0  0  0  0  0
  -24.7296  -13.2774   20.4459 C   0  0  0  0  0  0  0  0  0  0  0  0
  -33.9229  -30.6445   17.3076 C   0  0  0  0  0  0  0  0  0  0  0  0
  -27.2464  -28.1521   20.4841 C   0  0  0  0  0  0  0  0  0  0  0  0
  -32.6237  -30.8577   17.8066 C   0  0  0  0  0  0  0  0  0  0  0  0
  -26.8353  -27.1986   19.5419 C   0  0  0  0  0  0  0  0  0  0  0  0
  -17.2471  -23.9127   18.8819 C   0  0  0  0  0  0  0  0  0  0  0  0
  -16.5573  -22.7363   18.5890 C   0  0  0  0  0  0  0  0  0  0  0  0
  -29.8059  -12.5411   19.5719 C   0  0  0  0  0  0  0  0  0  0  0  0
  -24.5383  -27.9511   19.8008 C   0  0  0  0  0  0  0  0  0  0  0  0
  -32.1052  -12.6953   20.0317 C   0  0  0  0  0  0  0  0  0  0  0  0
  -18.6167  -23.8714   19.1432 C   0  0  0  0  0  0  0  0  0  0  0  0
  -34.2015  -13.9669   21.3627 C   0  0  0  0  0  0  0  0  0  0  0  0
  -32.3567  -14.0485   19.8049 C   0  0  0  0  0  0  0  0  0  0  0  0
  -25.8940  -14.0272   20.1936 C   0  0  0  0  0  0  0  0  0  0  0  0
  -23.7365  -14.2176   20.5726 C   0  0  0  0  0  0  0  0  0  0  0  0
  -19.3158  -20.2080   18.7843 C   0  0  0  0  0  0  0  0  0  0  0  0
  -20.6497  -20.0599   18.6375 C   0  0  0  0  0  0  0  0  0  0  0  0
  -24.5608  -11.8578   20.5559 C   0  0  0  0  0  0  0  0  0  0  0  0
  -21.2236  -18.6993   18.6321 C   0  0  0  0  0  0  0  0  0  0  0  0
  -29.7998  -28.6299   18.6523 C   0  0  0  0  0  0  0  0  0  0  0  0
  -21.2912  -26.3959   19.4214 C   0  0  0  0  0  0  0  0  0  0  0  0
  -30.1900  -25.4325   19.0359 C   0  0  0  0  0  0  0  0  0  0  0  0
  -28.7759  -22.4027   19.7193 C   0  0  0  0  0  0  0  0  0  0  0  0
  -34.2103  -29.5900   16.2683 C   0  0  0  0  0  0  0  0  0  0  0  0
  -28.6926  -28.2521   20.8855 C   0  0  0  0  0  0  0  0  0  0  0  0
  -27.8149  -26.2684   18.8757 C   0  0  0  0  0  0  0  0  0  0  0  0
  -33.1134  -28.5348   16.1517 C   0  0  0  0  0  0  0  0  0  0  0  0
  -23.9711  -19.2371   20.9971 C   0  0  0  0  0  0  0  0  0  0  0  0
  -31.7396  -29.1959   16.1030 C   0  0  0  0  0  0  0  0  0  0  0  0
  -24.6478  -17.8691   20.9772 C   0  0  0  0  0  0  0  0  0  0  0  0
  -23.3890  -19.6069   19.6337 C   0  0  0  0  0  0  0  0  0  0  0  0
  -23.1382  -17.2087   19.0627 C   0  0  0  0  0  0  0  0  0  0  0  0
  -31.4609  -29.9843   17.3884 C   0  0  1  0  0  0  0  0  0  0  0  0
  -29.6456  -27.7057   19.8269 C   0  0  1  0  0  0  0  0  0  0  0  0
  -23.6898  -16.7958   20.4363 C   0  0  1  0  0  0  0  0  0  0  0  0
  -16.2377  -25.7616   17.5221 C   0  0  0  0  0  0  0  0  0  0  0  0
  -29.3409  -19.9662   19.9234 C   0  0  0  0  0  0  0  0  0  0  0  0
  -30.3155  -25.2095   15.9955 C   0  0  0  0  0  0  0  0  0  0  0  0
  -29.9229  -22.7479   16.2295 C   0  0  0  0  0  0  0  0  0  0  0  0
  -31.9676  -23.7822   17.2153 C   0  0  0  0  0  0  0  0  0  0  0  0
  -27.9408  -22.3277   22.5576 C   0  0  0  0  0  0  0  0  0  0  0  0
  -16.5271  -25.2236   18.9191 C   0  0  0  0  0  0  0  0  0  0  0  0
  -22.7510  -26.5703   19.0557 C   0  0  0  0  0  0  0  0  0  1  0  0
  -20.6739  -25.0615   19.0565 C   0  0  0  0  0  0  0  0  0  0  0  0
  -29.7215  -24.2021   18.2973 C   0  0  1  0  0  0  0  0  0  0  0  0
  -29.1905  -21.2871   20.6617 C   0  0  2  0  0  0  0  0  0  0  0  0
  -30.4635  -24.0041   16.9453 C   0  0  0  0  0  0  0  0  0  0  0  0
  -25.6635  -15.3424   20.1615 N   0  0  0  0  0  0  0  0  0  0  0  0
  -24.3427  -15.4264   20.3951 N   0  0  0  0  0  0  0  0  0  0  0  0
  -22.5227  -18.5397   19.1109 N   0  0  0  0  0  0  0  0  0  0  0  0
  -29.2185  -26.4092   19.2971 N   0  0  0  0  0  0  0  0  0  0  0  0
  -15.1706  -22.7579   18.3217 N   0  0  0  0  0  0  0  0  0  0  0  0
  -22.4125  -14.1201   20.8174 N   0  0  0  0  0  0  0  0  0  0  0  0
  -25.6859  -11.0370   20.3987 N   0  0  0  0  0  0  0  0  0  0  0  0
  -31.0899  -29.0867   18.4613 N   0  0  0  0  0  0  0  0  0  0  0  0
  -29.8668  -23.0876   19.2274 N   0  0  0  0  0  0  0  0  0  0  0  0
  -28.1728  -21.1118   21.7362 N   0  3  0  0  0  0  0  0  0  0  0  0
  -23.4424  -11.3319   20.7705 O   0  0  0  0  0  0  0  0  0  0  0  0
  -20.5182  -17.7864   18.1988 O   0  0  0  0  0  0  0  0  0  0  0  0
  -28.8211  -28.9067   17.9688 O   0  0  0  0  0  0  0  0  0  0  0  0
  -20.6472  -27.2831   19.9794 O   0  0  0  0  0  0  0  0  0  0  0  0
  -31.3727  -25.5205   19.3752 O   0  0  0  0  0  0  0  0  0  0  0  0
  -27.6019  -22.6401   19.4439 O   0  0  0  0  0  0  0  0  0  0  0  0
  -31.0645  -12.0629   19.3725 O   0  0  0  0  0  0  0  0  0  0  0  0
  -23.2236  -27.8537   19.4630 O   0  0  0  0  0  0  0  0  0  1  0  0
  -19.3135  -25.0207   19.4325 O   0  0  0  0  0  0  0  0  0  0  0  0
  -35.2071  -14.5776   22.0030 F   0  0  0  0  0  0  0  0  0  0  0  0
  -31.5940  -14.7431   18.9496 F   0  0  0  0  0  0  0  0  0  0  0  0
  1  2  1  0  0  0  0
  1  5  2  0  0  0  0
  2  6  2  0  0  0  0
  3  8  2  0  0  0  0
  3 17  1  0  0  0  0
  4  9  1  0  0  0  0
  4 17  2  0  0  0  0
  5 20  1  0  0  0  0
  6 22  1  0  0  0  0
  7 10  2  0  0  0  0
  7 21  1  0  0  0  0
  8 26  1  0  0  0  0
  9 26  2  0  0  0  0
 10 27  1  0  0  0  0
 11 12  2  0  0  0  0
 11 28  1  0  0  0  0
 12 30  1  0  0  0  0
 13 18  1  0  0  0  0
 13 25  2  0  0  0  0
 14 18  2  0  0  0  0
 14 29  1  0  0  0  0
 15 23  1  0  0  0  0
 15 27  2  0  0  0  0
 16 30  2  0  0  0  0
 16 31  1  0  0  0  0
 17 32  1  0  0  0  0
 18 34  1  0  0  0  0
 19 32  1  0  0  0  0
 19 33  2  0  0  0  0
 19 36  1  0  0  0  0
 20 22  2  0  0  0  0
 20 42  1  0  0  0  0
 21 23  2  0  0  0  0
 21 43  1  0  0  0  0
 22 51  1  0  0  0  0
 23 44  1  0  0  0  0
 24 25  1  0  0  0  0
 24 29  2  0  0  0  0
 24 60  1  0  0  0  0
 25 70  1  0  0  0  0
 26 82  1  0  0  0  0
 27 83  1  0  0  0  0
 28 31  2  0  0  0  0
 28 82  1  0  0  0  0
 29 84  1  0  0  0  0
 30 85  1  0  0  0  0
 31 86  1  0  0  0  0
 32 66  2  0  0  0  0
 33 67  1  0  0  0  0
 33 71  1  0  0  0  0
 34 35  2  0  0  0  0
 35 37  1  0  0  0  0
 36 72  1  0  0  0  0
 36 76  2  0  0  0  0
 37 68  1  0  0  0  0
 37 77  2  0  0  0  0
 38 52  1  0  0  0  0
 38 73  1  0  0  0  0
 38 78  2  0  0  0  0
 39 61  1  0  0  0  0
 39 62  1  0  0  0  0
 39 79  2  0  0  0  0
 40 63  1  0  0  0  0
 40 69  1  0  0  0  0
 40 80  2  0  0  0  0
 41 64  1  0  0  0  0
 41 74  1  0  0  0  0
 41 81  2  0  0  0  0
 42 45  1  0  0  0  0
 43 52  1  0  0  0  0
 44 69  1  0  0  0  0
 45 47  1  0  0  0  0
 46 48  1  0  0  0  0
 46 49  1  0  0  0  0
 47 51  1  0  0  0  0
 48 53  1  0  0  0  0
 49 68  1  0  0  0  0
 50 53  1  0  0  0  0
 50 68  1  0  0  0  0
 51 73  1  0  0  0  0
 52 69  1  0  0  0  0
 53 67  1  0  0  0  0
 54 60  1  0  0  0  0
 55 64  1  0  0  0  0
 56 65  1  0  0  0  0
 57 65  1  0  0  0  0
 58 65  1  0  0  0  0
 59 75  1  0  0  0  0
 61 83  1  0  0  0  0
 62 84  1  0  0  0  0
 63 65  1  0  0  0  0
 63 74  1  0  0  0  0
 64 75  1  0  0  0  0
 66 67  1  0  0  0  0
M  CHG  1  75   1
M  ISO  4  35 100  37 100  61 101  83 101
M  END
> <Batch ID>
0131

> <Smiles>
CCc1c(N)cc(C=[100CH:0][100C:0](=O)N2CCCC(n3nc(-c4ccc(Oc5ccc(F)cc5F)cc4)c(C(N)=O)c3N)C2)cc1OCC(=O)[101CH2:1][101O:1]c1ccc2c(c1)CN(C(=O)C(NC(=O)C(C)NC)C(C)(C)C)C(C(=O)NC1CCCc3ccccc31)C2

> <Shape>
0.222

> <Color>
0.076

> <Negative vol penalty>
0.000

$$$$

  -OEChem-04052302253D

 86 94  0     1  0  0  0  0  0999 V2000
  -27.0514  -33.9990   26.0829 C   0  0  0  0  0  0  0  0  0  0  0  0
  -27.4094  -32.8287   25.4215 C   0  0  0  0  0  0  0  0  0  0  0  0
  -24.2873   -8.5787   20.4321 C   0  0  0  0  0  0  0  0  0  0  0  0
  -22.8334  -10.4531   20.8899 C   0  0  0  0  0  0  0  0  0  0  0  0
  -25.7205  -34.2206   26.4343 C   0  0  0  0  0  0  0  0  0  0  0  0
  -26.4368  -31.8786   25.1120 C   0  0  0  0  0  0  0  0  0  0  0  0
  -26.8833  -30.1089   20.3883 C   0  0  0  0  0  0  0  0  0  0  0  0
  -28.9134  -20.4355   20.1219 C   0  0  0  0  0  0  0  0  0  0  0  0
  -29.0182  -19.0855   20.4566 C   0  0  0  0  0  0  0  0  0  0  0  0
  -23.3104   -7.7045   20.9086 C   0  0  0  0  0  0  0  0  0  0  0  0
  -21.8564   -9.5790   21.3663 C   0  0  0  0  0  0  0  0  0  0  0  0
  -27.8759  -29.1579   20.1558 C   0  0  0  0  0  0  0  0  0  0  0  0
  -22.1575   -6.6536   23.9070 C   0  0  0  0  0  0  0  0  0  0  0  0
  -22.5649   -5.6344   24.7677 C   0  0  0  0  0  0  0  0  0  0  0  0
  -26.2168  -27.4098   20.2589 C   0  0  0  0  0  0  0  0  0  0  0  0
  -27.6876  -19.8454   18.1253 C   0  0  0  0  0  0  0  0  0  0  0  0
  -21.7468   -3.9857   23.2025 C   0  0  0  0  0  0  0  0  0  0  0  0
  -24.0489   -9.9530   20.4228 C   0  0  0  0  0  0  0  0  0  0  0  0
  -25.2230  -11.3080   18.6081 C   0  0  0  0  0  0  0  0  0  0  0  0
  -24.7295  -33.2771   26.1204 C   0  0  0  0  0  0  0  0  0  0  0  0
  -25.5494  -29.7160   20.5689 C   0  0  0  0  0  0  0  0  0  0  0  0
  -25.0916  -32.0871   25.4607 C   0  0  0  0  0  0  0  0  0  0  0  0
  -25.2087  -28.3580   20.4909 C   0  0  0  0  0  0  0  0  0  0  0  0
  -28.2480  -20.8155   18.9562 C   0  0  0  0  0  0  0  0  0  0  0  0
  -27.7925  -18.4953   18.4600 C   0  0  0  0  0  0  0  0  0  0  0  0
  -28.4579  -18.1154   19.6256 C   0  0  0  0  0  0  0  0  0  0  0  0
  -22.0949   -8.2046   21.3757 C   0  0  0  0  0  0  0  0  0  0  0  0
  -27.5432  -27.8079   20.0939 C   0  0  0  0  0  0  0  0  0  0  0  0
  -21.5446   -6.3389   22.6942 C   0  0  0  0  0  0  0  0  0  0  0  0
  -22.3597   -4.3004   24.4154 C   0  0  0  0  0  0  0  0  0  0  0  0
  -21.3393   -5.0050   22.3419 C   0  0  0  0  0  0  0  0  0  0  0  0
  -25.0579  -10.8565   19.9313 C   0  0  0  0  0  0  0  0  0  0  0  0
  -26.3134  -12.1414   18.6632 C   0  0  0  0  0  0  0  0  0  0  0  0
  -29.2911  -25.1432   18.4474 C   0  0  0  0  0  0  0  0  0  0  0  0
  -28.3953  -26.0864   18.7593 C   0  0  0  0  0  0  0  0  0  1  0  0
  -24.4590  -11.0015   17.4342 C   0  0  0  0  0  0  0  0  0  0  0  0
  -23.4450  -29.9451   22.9401 C   0  0  0  0  0  0  0  0  0  0  0  0
  -21.4089  -28.7219   20.7309 C   0  0  0  0  0  0  0  0  0  0  0  0
  -20.9860  -26.9108   17.8695 C   0  0  0  0  0  0  0  0  0  0  0  0
  -29.2066  -16.2219   21.1089 C   0  0  0  0  0  0  0  0  0  0  0  0
  -23.3116  -33.5392   26.5626 C   0  0  0  0  0  0  0  0  0  0  0  0
  -24.4864  -30.7564   20.7922 C   0  0  0  0  0  0  0  0  0  0  0  0
  -23.7883  -27.8859   20.6580 C   0  0  0  0  0  0  0  0  0  0  0  0
  -22.2825  -32.6531   25.8654 C   0  0  0  0  0  0  0  0  0  0  0  0
  -29.6782  -12.9231   22.3630 C   0  0  0  0  0  0  0  0  0  0  0  0
  -22.7464  -31.1999   25.8589 C   0  0  0  0  0  0  0  0  0  0  0  0
  -28.5318  -12.1285   21.7333 C   0  0  0  0  0  0  0  0  0  0  0  0
  -29.2488  -14.3416   22.7331 C   0  0  0  0  0  0  0  0  0  0  0  0
  -27.4851  -14.3132   21.0133 C   0  0  0  0  0  0  0  0  0  0  0  0
  -24.0614  -31.0440   25.0857 C   0  0  1  0  0  0  0  0  0  0  0  0
  -23.2398  -30.2003   21.4737 C   0  0  1  0  0  0  0  0  0  0  0  0
  -27.8876  -12.8990   20.5642 C   0  0  2  0  0  0  0  0  0  0  0  0
  -28.2315  -16.7708   16.6936 C   0  0  0  0  0  0  0  0  0  0  0  0
  -19.2021  -26.0485   16.3295 C   0  0  0  0  0  0  0  0  0  0  0  0
  -28.0478  -24.4146   16.3208 C   0  0  0  0  0  0  0  0  0  0  0  0
  -30.5354  -24.4905   16.4168 C   0  0  0  0  0  0  0  0  0  0  0  0
  -20.7099  -26.5524   22.7594 C   0  0  0  0  0  0  0  0  0  0  0  0
  -19.6988  -25.2284   20.8904 C   0  0  0  0  0  0  0  0  0  0  0  0
  -18.7570  -27.4598   21.4876 C   0  0  0  0  0  0  0  0  0  0  0  0
  -22.0674  -28.4353   15.5748 C   0  0  0  0  0  0  0  0  0  0  0  0
  -28.1367  -22.2762   18.5930 C   0  0  0  0  0  0  0  0  0  0  0  0
  -27.1853  -17.4775   17.5497 C   0  0  0  0  0  0  0  0  0  0  0  0
  -29.3245  -22.7307   17.7312 C   0  0  0  0  0  0  0  0  0  0  0  0
  -20.9928  -27.3319   20.3143 C   0  0  1  0  0  0  0  0  0  0  0  0
  -20.1739  -27.1826   16.6161 C   0  0  2  0  0  0  0  0  0  0  0  0
  -29.2641  -24.2078   17.2462 C   0  0  0  0  0  0  0  0  0  0  0  0
  -20.0668  -26.6515   21.3617 C   0  0  0  0  0  0  0  0  0  0  0  0
  -25.9704  -11.3612   20.7659 N   0  0  0  0  0  0  0  0  0  0  0  0
  -26.7195  -12.1383   19.9652 N   0  0  0  0  0  0  0  0  0  0  0  0
  -22.7857  -28.9409   20.8806 N   0  0  0  0  0  0  0  0  0  0  0  0
  -28.6515  -15.0117   21.5759 N   0  0  0  0  0  0  0  0  0  0  0  0
  -26.9548  -12.8691   17.7244 N   0  0  0  0  0  0  0  0  0  0  0  0
  -23.3705  -10.1268   17.5549 N   0  0  0  0  0  0  0  0  0  0  0  0
  -28.5751  -16.7493   19.9830 N   0  0  0  0  0  0  0  0  0  0  0  0
  -23.8148  -31.0653   23.6598 N   0  0  0  0  0  0  0  0  0  0  0  0
  -20.3993  -27.4637   18.9881 N   0  0  0  0  0  0  0  0  0  0  0  0
  -21.0745  -27.3386   15.4390 N   0  3  0  0  0  0  0  0  0  0  0  0
  -24.7434  -11.4760   16.3084 O   0  0  0  0  0  0  0  0  0  0  0  0
  -23.2785  -28.8159   23.3860 O   0  0  0  0  0  0  0  0  0  0  0  0
  -20.5447  -29.5837   20.9098 O   0  0  0  0  0  0  0  0  0  0  0  0
  -22.0340  -26.2688   17.8580 O   0  0  0  0  0  0  0  0  0  0  0  0
  -30.1881  -16.7372   21.6503 O   0  0  0  0  0  0  0  0  0  0  0  0
  -21.1413   -7.3519   21.8404 O   0  0  0  0  0  0  0  0  0  0  0  0
  -28.5102  -26.8775   19.8678 O   0  0  0  0  0  0  0  0  0  1  0  0
  -22.7524   -3.3217   25.2413 F   0  0  0  0  0  0  0  0  0  0  0  0
  -20.7521   -4.6964   21.1775 F   0  0  0  0  0  0  0  0  0  0  0  0
  1  2  1  0  0  0  0
  1  5  2  0  0  0  0
  2  6  2  0  0  0  0
  3 10  2  0  0  0  0
  3 18  1  0  0  0  0
  4 11  1  0  0  0  0
  4 18  2  0  0  0  0
  5 20  1  0  0  0  0
  6 22  1  0  0  0  0
  7 12  2  0  0  0  0
  7 21  1  0  0  0  0
  8  9  2  0  0  0  0
  8 24  1  0  0  0  0
  9 26  1  0  0  0  0
 10 27  1  0  0  0  0
 11 27  2  0  0  0  0
 12 28  1  0  0  0  0
 13 14  2  0  0  0  0
 13 29  1  0  0  0  0
 14 30  1  0  0  0  0
 15 23  1  0  0  0  0
 15 28  2  0  0  0  0
 16 24  2  0  0  0  0
 16 25  1  0  0  0  0
 17 30  2  0  0  0  0
 17 31  1  0  0  0  0
 18 32  1  0  0  0  0
 19 32  1  0  0  0  0
 19 33  2  0  0  0  0
 19 36  1  0  0  0  0
 20 22  2  0  0  0  0
 20 41  1  0  0  0  0
 21 23  2  0  0  0  0
 21 42  1  0  0  0  0
 22 50  1  0  0  0  0
 23 43  1  0  0  0  0
 24 61  1  0  0  0  0
 25 26  2  0  0  0  0
 25 62  1  0  0  0  0
 26 74  1  0  0  0  0
 27 83  1  0  0  0  0
 28 84  1  0  0  0  0
 29 31  2  0  0  0  0
 29 83  1  0  0  0  0
 30 85  1  0  0  0  0
 31 86  1  0  0  0  0
 32 68  2  0  0  0  0
 33 69  1  0  0  0  0
 33 72  1  0  0  0  0
 34 35  2  0  0  0  0
 34 66  1  0  0  0  0
 35 84  1  0  0  0  0
 36 73  1  0  0  0  0
 36 78  2  0  0  0  0
 37 51  1  0  0  0  0
 37 75  1  0  0  0  0
 37 79  2  0  0  0  0
 38 64  1  0  0  0  0
 38 70  1  0  0  0  0
 38 80  2  0  0  0  0
 39 65  1  0  0  0  0
 39 76  1  0  0  0  0
 39 81  2  0  0  0  0
 40 71  1  0  0  0  0
 40 74  1  0  0  0  0
 40 82  2  0  0  0  0
 41 44  1  0  0  0  0
 42 51  1  0  0  0  0
 43 70  1  0  0  0  0
 44 46  1  0  0  0  0
 45 47  1  0  0  0  0
 45 48  1  0  0  0  0
 46 50  1  0  0  0  0
 47 52  1  0  0  0  0
 48 71  1  0  0  0  0
 49 52  1  0  0  0  0
 49 71  1  0  0  0  0
 50 75  1  0  0  0  0
 51 70  1  0  0  0  0
 52 69  1  0  0  0  0
 53 62  1  0  0  0  0
 54 65  1  0  0  0  0
 55 66  1  0  0  0  0
 56 66  1  0  0  0  0
 57 67  1  0  0  0  0
 58 67  1  0  0  0  0
 59 67  1  0  0  0  0
 60 77  1  0  0  0  0
 61 63  1  0  0  0  0
 63 66  1  0  0  0  0
 64 67  1  0  0  0  0
 64 76  1  0  0  0  0
 65 77  1  0  0  0  0
 68 69  1  0  0  0  0
M  CHG  1  77   1
M  ISO  4  35 101  40 100  74 100  84 101
M  END
> <Batch ID>
0131

> <Smiles>
CCc1cc(CCC(C)(C)C=[101CH:1][101O:1]c2ccc3c(c2)CN(C(=O)C(NC(=O)C(C)NC)C(C)(C)C)C(C(=O)NC2CCCc4ccccc42)C3)ccc1[100NH:0][100C:0](=O)N1CCCC(n2nc(-c3ccc(Oc4ccc(F)cc4F)cc3)c(C(N)=O)c2N)C1

> <Shape>
0.341

> <Color>
0.120

> <Negative vol penalty>
0.000

$$$$

  -OEChem-04052302253D

 84 92  0     1  0  0  0  0  0999 V2000
  -26.3445  -36.9423   21.5264 C   0  0  0  0  0  0  0  0  0  0  0  0
  -27.1354  -35.9668   20.9278 C   0  0  0  0  0  0  0  0  0  0  0  0
  -25.3775  -21.6769   19.5692 C   0  0  0  0  0  0  0  0  0  0  0  0
  -24.4893   -8.9209   21.3049 C   0  0  0  0  0  0  0  0  0  0  0  0
  -22.5874  -10.1958   20.5340 C   0  0  0  0  0  0  0  0  0  0  0  0
  -26.6795  -22.1764   19.5388 C   0  0  0  0  0  0  0  0  0  0  0  0
  -25.6620  -36.6562   22.7081 C   0  0  0  0  0  0  0  0  0  0  0  0
  -27.2451  -34.7050   21.5111 C   0  0  0  0  0  0  0  0  0  0  0  0
  -27.8140  -29.3434   18.6068 C   0  0  0  0  0  0  0  0  0  0  0  0
  -25.1499  -20.3435   19.9097 C   0  0  0  0  0  0  0  0  0  0  0  0
  -23.6656   -7.8132   21.5053 C   0  0  0  0  0  0  0  0  0  0  0  0
  -21.7636   -9.0882   20.7344 C   0  0  0  0  0  0  0  0  0  0  0  0
  -28.9206  -28.5464   18.3170 C   0  0  0  0  0  0  0  0  0  0  0  0
  -21.4454   -6.7471   23.8201 C   0  0  0  0  0  0  0  0  0  0  0  0
  -21.5950   -6.0361   25.0108 C   0  0  0  0  0  0  0  0  0  0  0  0
  -28.4777  -27.2257   20.2864 C   0  0  0  0  0  0  0  0  0  0  0  0
  -22.1479   -4.0481   23.7541 C   0  0  0  0  0  0  0  0  0  0  0  0
  -23.9502  -10.1122   20.8192 C   0  0  0  0  0  0  0  0  0  0  0  0
  -27.7539  -21.3425   19.8487 C   0  0  0  0  0  0  0  0  0  0  0  0
  -25.5018  -11.5942   19.4394 C   0  0  0  0  0  0  0  0  0  0  0  0
  -25.7557  -35.3873   23.3010 C   0  0  0  0  0  0  0  0  0  0  0  0
  -27.0360  -29.0938   19.7465 C   0  0  0  0  0  0  0  0  0  0  0  0
  -26.5643  -34.4022   22.7025 C   0  0  0  0  0  0  0  0  0  0  0  0
  -27.3602  -28.0194   20.5871 C   0  0  0  0  0  0  0  0  0  0  0  0
  -26.2242  -19.5096   20.2195 C   0  0  0  0  0  0  0  0  0  0  0  0
  -27.5262  -20.0091   20.1890 C   0  0  0  0  0  0  0  0  0  0  0  0
  -22.3028   -7.8968   21.2200 C   0  0  0  0  0  0  0  0  0  0  0  0
  -29.2543  -27.4892   19.1584 C   0  0  0  0  0  0  0  0  0  0  0  0
  -21.6469   -6.1086   22.5964 C   0  0  0  0  0  0  0  0  0  0  0  0
  -21.9463   -4.6866   24.9778 C   0  0  0  0  0  0  0  0  0  0  0  0
  -21.9982   -4.7592   22.5634 C   0  0  0  0  0  0  0  0  0  0  0  0
  -24.8005  -11.2569   20.6125 C   0  0  0  0  0  0  0  0  0  0  0  0
  -26.1554  -12.7606   19.7534 C   0  0  0  0  0  0  0  0  0  0  0  0
  -29.1148  -21.9030   19.8063 C   0  0  0  0  0  0  0  0  0  0  0  0
  -29.6895  -22.4611   18.7293 C   0  0  0  0  0  0  0  0  0  0  0  0
  -25.5574  -10.9139   18.1785 C   0  0  0  0  0  0  0  0  0  0  0  0
  -26.3203  -30.7297   22.3761 C   0  0  0  0  0  0  0  0  0  0  0  0
  -26.0864  -17.8542   22.0643 C   0  0  0  0  0  0  0  0  0  0  0  0
  -24.3455  -28.2172   22.9324 C   0  0  0  0  0  0  0  0  0  0  0  0
  -23.6116  -24.9308   22.3776 C   0  0  0  0  0  0  0  0  0  0  0  0
  -25.0371  -35.1399   24.6037 C   0  0  0  0  0  0  0  0  0  0  0  0
  -25.8298  -29.9462   20.0306 C   0  0  0  0  0  0  0  0  0  0  0  0
  -26.5454  -27.6970   21.8121 C   0  0  0  0  0  0  0  0  0  0  0  0
  -24.9080  -33.6603   24.9567 C   0  0  0  0  0  0  0  0  0  0  0  0
  -26.8363  -15.0708   24.1928 C   0  0  0  0  0  0  0  0  0  0  0  0
  -26.2406  -32.9455   24.7565 C   0  0  0  0  0  0  0  0  0  0  0  0
  -26.4031  -13.8603   23.3668 C   0  0  0  0  0  0  0  0  0  0  0  0
  -25.9205  -16.2670   23.9531 C   0  0  0  0  0  0  0  0  0  0  0  0
  -25.3582  -15.4460   21.6878 C   0  0  0  0  0  0  0  0  0  0  0  0
  -26.6887  -33.0138   23.2916 C   0  0  1  0  0  0  0  0  0  0  0  0
  -25.4107  -29.9186   21.4973 C   0  0  1  0  0  0  0  0  0  0  0  0
  -26.2753  -14.2248   21.8771 C   0  0  2  0  0  0  0  0  0  0  0  0
  -29.4198  -18.6407   19.2789 C   0  0  0  0  0  0  0  0  0  0  0  0
  -22.3047  -22.7902   22.4633 C   0  0  0  0  0  0  0  0  0  0  0  0
  -25.6730  -27.9399   25.6657 C   0  0  0  0  0  0  0  0  0  0  0  0
  -24.6875  -25.6445   25.8340 C   0  0  0  0  0  0  0  0  0  0  0  0
  -23.1909  -27.6339   25.6756 C   0  0  0  0  0  0  0  0  0  0  0  0
  -22.0964  -25.6224   19.9312 C   0  0  0  0  0  0  0  0  0  0  0  0
  -25.9520  -18.0858   20.5803 C   0  0  0  0  0  0  0  0  0  0  0  0
  -28.6717  -19.1043   20.5233 C   0  0  0  0  0  0  0  0  0  0  0  0
  -31.0821  -23.0250   18.7346 C   0  0  0  0  0  0  0  0  0  0  0  0
  -31.0848  -24.4978   18.3290 C   0  0  0  0  0  0  0  0  0  0  0  0
  -30.2807  -25.3486   19.3023 C   0  0  0  0  0  0  0  0  0  1  0  0
  -24.4796  -26.8866   23.6329 C   0  0  1  0  0  0  0  0  0  0  0  0
  -22.3149  -24.2383   21.9989 C   0  0  2  0  0  0  0  0  0  0  0  0
  -24.5245  -27.0332   25.1801 C   0  0  0  0  0  0  0  0  0  0  0  0
  -24.9908  -12.1378   21.5983 N   0  0  0  0  0  0  0  0  0  0  0  0
  -25.8192  -13.0401   21.0454 N   0  0  0  0  0  0  0  0  0  0  0  0
  -25.3792  -28.5633   22.0507 N   0  0  0  0  0  0  0  0  0  0  0  0
  -25.8076  -16.5672   22.5247 N   0  0  0  0  0  0  0  0  0  0  0  0
  -26.9792  -13.5642   19.0478 N   0  0  0  0  0  0  0  0  0  0  0  0
  -24.8255   -9.7284   18.0261 N   0  0  0  0  0  0  0  0  0  0  0  0
  -25.9534  -32.0568   22.4930 N   0  0  0  0  0  0  0  0  0  0  0  0
  -23.3854  -26.0552   23.1429 N   0  0  0  0  0  0  0  0  0  0  0  0
  -22.1292  -24.2590   20.5203 N   0  3  0  0  0  0  0  0  0  0  0  0
  -26.2491  -11.3358   17.2209 O   0  0  0  0  0  0  0  0  0  0  0  0
  -27.2828  -30.1911   22.9100 O   0  0  0  0  0  0  0  0  0  0  0  0
  -26.4320  -18.7898   22.7907 O   0  0  0  0  0  0  0  0  0  0  0  0
  -23.3563  -28.9201   23.1539 O   0  0  0  0  0  0  0  0  0  0  0  0
  -24.7149  -24.5137   22.0324 O   0  0  0  0  0  0  0  0  0  0  0  0
  -21.4987   -6.8161   21.4153 O   0  0  0  0  0  0  0  0  0  0  0  0
  -30.3343  -26.7101   18.8782 O   0  0  0  0  0  0  0  0  0  1  0  0
  -22.0915   -4.0043   26.1213 F   0  0  0  0  0  0  0  0  0  0  0  0
  -22.1943   -4.1406   21.3909 F   0  0  0  0  0  0  0  0  0  0  0  0
  1  2  1  0  0  0  0
  1  7  2  0  0  0  0
  2  8  2  0  0  0  0
  3  6  1  0  0  0  0
  3 10  2  0  0  0  0
  4 11  2  0  0  0  0
  4 18  1  0  0  0  0
  5 12  1  0  0  0  0
  5 18  2  0  0  0  0
  6 19  2  0  0  0  0
  7 21  1  0  0  0  0
  8 23  1  0  0  0  0
  9 13  2  0  0  0  0
  9 22  1  0  0  0  0
 10 25  1  0  0  0  0
 11 27  1  0  0  0  0
 12 27  2  0  0  0  0
 13 28  1  0  0  0  0
 14 15  2  0  0  0  0
 14 29  1  0  0  0  0
 15 30  1  0  0  0  0
 16 24  1  0  0  0  0
 16 28  2  0  0  0  0
 17 30  2  0  0  0  0
 17 31  1  0  0  0  0
 18 32  1  0  0  0  0
 19 26  1  0  0  0  0
 19 34  1  0  0  0  0
 20 32  1  0  0  0  0
 20 33  2  0  0  0  0
 20 36  1  0  0  0  0
 21 23  2  0  0  0  0
 21 41  1  0  0  0  0
 22 24  2  0  0  0  0
 22 42  1  0  0  0  0
 23 50  1  0  0  0  0
 24 43  1  0  0  0  0
 25 26  2  0  0  0  0
 25 59  1  0  0  0  0
 26 60  1  0  0  0  0
 27 81  1  0  0  0  0
 28 82  1  0  0  0  0
 29 31  2  0  0  0  0
 29 81  1  0  0  0  0
 30 83  1  0  0  0  0
 31 84  1  0  0  0  0
 32 67  2  0  0  0  0
 33 68  1  0  0  0  0
 33 71  1  0  0  0  0
 34 35  2  0  0  0  0
 35 61  1  0  0  0  0
 36 72  1  0  0  0  0
 36 76  2  0  0  0  0
 37 51  1  0  0  0  0
 37 73  1  0  0  0  0
 37 77  2  0  0  0  0
 38 59  1  0  0  0  0
 38 70  1  0  0  0  0
 38 78  2  0  0  0  0
 39 64  1  0  0  0  0
 39 69  1  0  0  0  0
 39 79  2  0  0  0  0
 40 65  1  0  0  0  0
 40 74  1  0  0  0  0
 40 80  2  0  0  0  0
 41 44  1  0  0  0  0
 42 51  1  0  0  0  0
 43 69  1  0  0  0  0
 44 46  1  0  0  0  0
 45 47  1  0  0  0  0
 45 48  1  0  0  0  0
 46 50  1  0  0  0  0
 47 52  1  0  0  0  0
 48 70  1  0  0  0  0
 49 52  1  0  0  0  0
 49 70  1  0  0  0  0
 50 73  1  0  0  0  0
 51 69  1  0  0  0  0
 52 68  1  0  0  0  0
 53 60  1  0  0  0  0
 54 65  1  0  0  0  0
 55 66  1  0  0  0  0
 56 66  1  0  0  0  0
 57 66  1  0  0  0  0
 58 75  1  0  0  0  0
 61 62  1  0  0  0  0
 62 63  1  0  0  0  0
 63 82  1  0  0  0  0
 64 66  1  0  0  0  0
 64 74  1  0  0  0  0
 65 75  1  0  0  0  0
 67 68  1  0  0  0  0
M  CHG  1  75   1
M  ISO  4  38 100  59 100  63 101  82 101
M  END
> <Batch ID>
0131

> <Smiles>
CCc1c(C=CCC[101CH2:1][101O:1]c2ccc3c(c2)CN(C(=O)C(NC(=O)C(C)NC)C(C)(C)C)C(C(=O)NC2CCCc4ccccc42)C3)cccc1[100CH2:0][100C:0](=O)N1CCCC(n2nc(-c3ccc(Oc4ccc(F)cc4F)cc3)c(C(N)=O)c2N)C1

> <Shape>
0.288

> <Color>
0.104

> <Negative vol penalty>
0.000

$$$$

  -OEChem-04052302253D

 88 96  0     1  0  0  0  0  0999 V2000
  -26.4161  -34.1278   10.8883 C   0  0  0  0  0  0  0  0  0  0  0  0
  -26.6557  -32.7600   10.9720 C   0  0  0  0  0  0  0  0  0  0  0  0
  -22.9997   -9.9398   19.9746 C   0  0  0  0  0  0  0  0  0  0  0  0
  -23.7608   -9.9415   22.2676 C   0  0  0  0  0  0  0  0  0  0  0  0
  -26.6059  -34.9375   12.0074 C   0  0  0  0  0  0  0  0  0  0  0  0
  -27.0864  -32.2011   12.1748 C   0  0  0  0  0  0  0  0  0  0  0  0
  -26.5663  -26.1936   16.0420 C   0  0  0  0  0  0  0  0  0  0  0  0
  -31.6733  -18.2959   20.0664 C   0  0  0  0  0  0  0  0  0  0  0  0
  -31.5031  -19.3264   19.1419 C   0  0  0  0  0  0  0  0  0  0  0  0
  -22.2387   -8.7986   20.2280 C   0  0  0  0  0  0  0  0  0  0  0  0
  -22.9997   -8.8003   22.5210 C   0  0  0  0  0  0  0  0  0  0  0  0
  -27.3705  -25.2528   16.6838 C   0  0  0  0  0  0  0  0  0  0  0  0
  -23.2402   -5.4728   21.9726 C   0  0  0  0  0  0  0  0  0  0  0  0
  -23.8406   -4.4403   22.6930 C   0  0  0  0  0  0  0  0  0  0  0  0
  -27.5882  -26.7367   18.5732 C   0  0  0  0  0  0  0  0  0  0  0  0
  -22.1429   -4.6442   24.3999 C   0  0  0  0  0  0  0  0  0  0  0  0
  -23.7609  -10.5112   20.9944 C   0  0  0  0  0  0  0  0  0  0  0  0
  -24.1407  -13.0305   20.8673 C   0  0  0  0  0  0  0  0  0  0  0  0
  -27.0298  -34.3868   13.2271 C   0  0  0  0  0  0  0  0  0  0  0  0
  -26.2755  -27.4196   16.6575 C   0  0  0  0  0  0  0  0  0  0  0  0
  -27.2834  -33.0043   13.3109 C   0  0  0  0  0  0  0  0  0  0  0  0
  -26.7779  -27.6903   17.9382 C   0  0  0  0  0  0  0  0  0  0  0  0
  -30.6348  -17.9594   20.9348 C   0  0  0  0  0  0  0  0  0  0  0  0
  -30.2945  -20.0205   19.0859 C   0  0  0  0  0  0  0  0  0  0  0  0
  -29.4262  -18.6536   20.8788 C   0  0  0  0  0  0  0  0  0  0  0  0
  -22.2387   -8.2289   21.5012 C   0  0  0  0  0  0  0  0  0  0  0  0
  -27.8840  -25.5255   17.9484 C   0  0  0  0  0  0  0  0  0  0  0  0
  -22.0912   -6.0911   22.4658 C   0  0  0  0  0  0  0  0  0  0  0  0
  -29.2561  -19.6841   19.9543 C   0  0  0  0  0  0  0  0  0  0  0  0
  -23.2919   -4.0260   23.9066 C   0  0  0  0  0  0  0  0  0  0  0  0
  -21.5426   -5.6768   23.6794 C   0  0  0  0  0  0  0  0  0  0  0  0
  -24.5477  -11.6896   20.7330 C   0  0  0  0  0  0  0  0  0  0  0  0
  -25.2438  -13.7625   20.5015 C   0  0  0  0  0  0  0  0  0  0  0  0
  -22.8783  -13.5666   21.2855 C   0  0  0  0  0  0  0  0  0  0  0  0
  -26.8434  -30.4689   15.9625 C   0  0  0  0  0  0  0  0  0  0  0  0
  -29.8043  -22.4722   18.7126 C   0  0  0  0  0  0  0  0  0  0  0  0
  -24.9713  -31.0042   18.5569 C   0  0  0  0  0  0  0  0  0  0  0  0
  -23.7059  -29.8426   21.5059 C   0  0  0  0  0  0  0  0  0  0  0  0
  -30.7424  -14.6992   20.6844 C   0  0  0  0  0  0  0  0  0  0  0  0
  -27.2666  -35.3090   14.3967 C   0  0  0  0  0  0  0  0  0  0  0  0
  -25.3845  -28.4128   15.9632 C   0  0  0  0  0  0  0  0  0  0  0  0
  -26.4786  -28.9832   18.6506 C   0  0  0  0  0  0  0  0  0  0  0  0
  -27.3644  -34.5822   15.7355 C   0  0  0  0  0  0  0  0  0  0  0  0
  -29.5677  -12.3257   18.3047 C   0  0  0  0  0  0  0  0  0  0  0  0
  -28.2794  -33.3674   15.6178 C   0  0  0  0  0  0  0  0  0  0  0  0
  -28.1262  -12.0548   18.7391 C   0  0  0  0  0  0  0  0  0  0  0  0
  -30.4887  -12.5359   19.5045 C   0  0  0  0  0  0  0  0  0  0  0  0
  -28.5989  -13.2993   20.8900 C   0  0  0  0  0  0  0  0  0  0  0  0
  -27.7276  -32.3571   14.6047 C   0  0  1  0  0  0  0  0  0  0  0  0
  -25.5750  -29.8404   16.4663 C   0  0  1  0  0  0  0  0  0  0  0  0
  -27.6216  -13.1362   19.7134 C   0  0  2  0  0  0  0  0  0  0  0  0
  -27.0217  -18.9493   23.8848 C   0  0  0  0  0  0  0  0  0  0  0  0
  -25.7088  -20.1748   19.5870 C   0  0  0  0  0  0  0  0  0  0  0  0
  -22.2348  -30.5221   23.4220 C   0  0  0  0  0  0  0  0  0  0  0  0
  -27.2243  -32.7349   19.6698 C   0  0  0  0  0  0  0  0  0  0  0  0
  -26.1274  -32.5962   21.9160 C   0  0  0  0  0  0  0  0  0  0  0  0
  -24.9283  -33.6668   20.0085 C   0  0  0  0  0  0  0  0  0  0  0  0
  -21.7850  -27.6591   20.9568 C   0  0  0  0  0  0  0  0  0  0  0  0
  -30.1317  -21.1310   18.0817 C   0  0  0  0  0  0  0  0  0  0  0  0
  -28.3099  -18.2943   21.8070 C   0  0  0  0  0  0  0  0  0  0  0  0
  -30.8413  -16.8518   21.9155 C   0  0  0  0  0  0  0  0  0  0  0  0
  -28.9276  -23.3895   17.8824 C   0  0  0  0  0  0  0  0  0  1  0  0
  -28.1779  -19.2976   22.9608 C   0  0  0  0  0  0  0  0  0  0  0  0
  -27.0749  -19.8498   19.0212 C   0  0  0  0  0  0  0  0  0  0  0  0
  -25.2158  -31.1551   20.0389 C   0  0  1  0  0  0  0  0  0  0  0  0
  -22.2944  -29.8391   22.0645 C   0  0  2  0  0  0  0  0  0  0  0  0
  -25.8814  -32.5146   20.3943 C   0  0  0  0  0  0  0  0  0  0  0  0
  -25.8107  -11.5736   20.3144 N   0  0  0  0  0  0  0  0  0  0  0  0
  -26.2069  -12.8510   20.1824 N   0  0  0  0  0  0  0  0  0  0  0  0
  -25.6079  -29.9249   17.9278 N   0  0  0  0  0  0  0  0  0  0  0  0
  -29.9542  -13.5750   20.3880 N   0  0  0  0  0  0  0  0  0  0  0  0
  -25.4742  -15.0904   20.4248 N   0  0  0  0  0  0  0  0  0  0  0  0
  -21.8530  -12.6737   21.6257 N   0  0  0  0  0  0  0  0  0  0  0  0
  -26.6439  -31.5963   15.1887 N   0  0  0  0  0  0  0  0  0  0  0  0
  -23.9295  -30.9313   20.6898 N   0  0  0  0  0  0  0  0  0  0  0  0
  -30.1578  -15.6392   21.5242 N   0  0  0  0  0  0  0  0  0  0  0  0
  -21.8023  -28.4410   22.2199 N   0  3  0  0  0  0  0  0  0  0  0  0
  -22.6607  -14.8008   21.3396 O   0  0  0  0  0  0  0  0  0  0  0  0
  -27.9232  -29.9690   16.2554 O   0  0  0  0  0  0  0  0  0  0  0  0
  -30.2175  -22.8048   19.8228 O   0  0  0  0  0  0  0  0  0  0  0  0
  -24.2366  -31.8099   17.9801 O   0  0  0  0  0  0  0  0  0  0  0  0
  -24.5291  -28.9691   21.7702 O   0  0  0  0  0  0  0  0  0  0  0  0
  -31.8806  -14.8563   20.2298 O   0  0  0  0  0  0  0  0  0  0  0  0
  -21.4959   -7.1156   21.7490 O   0  0  0  0  0  0  0  0  0  0  0  0
  -28.6697  -24.6092   18.5768 O   0  0  0  0  0  0  0  0  0  1  0  0
  -28.0747  -20.3636   19.8978 O   0  0  0  0  0  0  0  0  0  0  0  0
  -23.8676   -3.0334   24.5976 F   0  0  0  0  0  0  0  0  0  0  0  0
  -20.4382   -6.2661   24.1578 F   0  0  0  0  0  0  0  0  0  0  0  0
  1  2  1  0  0  0  0
  1  5  2  0  0  0  0
  2  6  2  0  0  0  0
  3 10  2  0  0  0  0
  3 17  1  0  0  0  0
  4 11  1  0  0  0  0
  4 17  2  0  0  0  0
  5 19  1  0  0  0  0
  6 21  1  0  0  0  0
  7 12  2  0  0  0  0
  7 20  1  0  0  0  0
  8  9  1  0  0  0  0
  8 23  2  0  0  0  0
  9 24  2  0  0  0  0
 10 26  1  0  0  0  0
 11 26  2  0  0  0  0
 12 27  1  0  0  0  0
 13 14  2  0  0  0  0
 13 28  1  0  0  0  0
 14 30  1  0  0  0  0
 15 22  1  0  0  0  0
 15 27  2  0  0  0  0
 16 30  2  0  0  0  0
 16 31  1  0  0  0  0
 17 32  1  0  0  0  0
 18 32  1  0  0  0  0
 18 33  2  0  0  0  0
 18 34  1  0  0  0  0
 19 21  2  0  0  0  0
 19 40  1  0  0  0  0
 20 22  2  0  0  0  0
 20 41  1  0  0  0  0
 21 49  1  0  0  0  0
 22 42  1  0  0  0  0
 23 25  1  0  0  0  0
 23 61  1  0  0  0  0
 24 29  1  0  0  0  0
 24 59  1  0  0  0  0
 25 29  2  0  0  0  0
 25 60  1  0  0  0  0
 26 84  1  0  0  0  0
 27 85  1  0  0  0  0
 28 31  2  0  0  0  0
 28 84  1  0  0  0  0
 29 86  1  0  0  0  0
 30 87  1  0  0  0  0
 31 88  1  0  0  0  0
 32 68  2  0  0  0  0
 33 69  1  0  0  0  0
 33 72  1  0  0  0  0
 34 73  1  0  0  0  0
 34 78  2  0  0  0  0
 35 50  1  0  0  0  0
 35 74  1  0  0  0  0
 35 79  2  0  0  0  0
 36 59  1  0  0  0  0
 36 62  1  0  0  0  0
 36 80  2  0  0  0  0
 37 65  1  0  0  0  0
 37 70  1  0  0  0  0
 37 81  2  0  0  0  0
 38 66  1  0  0  0  0
 38 75  1  0  0  0  0
 38 82  2  0  0  0  0
 39 71  1  0  0  0  0
 39 76  1  0  0  0  0
 39 83  2  0  0  0  0
 40 43  1  0  0  0  0
 41 50  1  0  0  0  0
 42 70  1  0  0  0  0
 43 45  1  0  0  0  0
 44 46  1  0  0  0  0
 44 47  1  0  0  0  0
 45 49  1  0  0  0  0
 46 51  1  0  0  0  0
 47 71  1  0  0  0  0
 48 51  1  0  0  0  0
 48 71  1  0  0  0  0
 49 74  1  0  0  0  0
 50 70  1  0  0  0  0
 51 69  1  0  0  0  0
 52 63  1  0  0  0  0
 53 64  1  0  0  0  0
 54 66  1  0  0  0  0
 55 67  1  0  0  0  0
 56 67  1  0  0  0  0
 57 67  1  0  0  0  0
 58 77  1  0  0  0  0
 60 63  1  0  0  0  0
 61 76  1  0  0  0  0
 62 85  1  0  0  0  0
 64 86  1  0  0  0  0
 65 67  1  0  0  0  0
 65 75  1  0  0  0  0
 66 77  1  0  0  0  0
 68 69  1  0  0  0  0
M  CHG  1  77   1
M  ISO  4  39 100  62 101  76 100  85 101
M  END
> <Batch ID>
0131

> <Smiles>
CCCc1c(C[100NH:0][100C:0](=O)N2CCCC(n3nc(-c4ccc(Oc5ccc(F)cc5F)cc4)c(C(N)=O)c3N)C2)ccc(CC(=O)[101CH2:1][101O:1]c2ccc3c(c2)CN(C(=O)C(NC(=O)C(C)NC)C(C)(C)C)C(C(=O)NC2CCCc4ccccc42)C3)c1OCC

> <Shape>
0.298

> <Color>
0.212

> <Negative vol penalty>
0.000

$$$$

  -OEChem-04052302253D

 85 93  0     1  0  0  0  0  0999 V2000
  -26.7187  -32.4611   20.6776 C   0  0  0  0  0  0  0  0  0  0  0  0
  -26.5583  -31.1557   21.1310 C   0  0  0  0  0  0  0  0  0  0  0  0
  -23.0667   -9.8712   19.9517 C   0  0  0  0  0  0  0  0  0  0  0  0
  -23.8577   -9.8763   22.2346 C   0  0  0  0  0  0  0  0  0  0  0  0
  -26.2939  -33.5291   21.4668 C   0  0  0  0  0  0  0  0  0  0  0  0
  -25.9740  -30.9176   22.3745 C   0  0  0  0  0  0  0  0  0  0  0  0
  -22.5542  -27.1854   22.2313 C   0  0  0  0  0  0  0  0  0  0  0  0
  -22.3288   -8.7161   20.2099 C   0  0  0  0  0  0  0  0  0  0  0  0
  -23.1198   -8.7211   22.4928 C   0  0  0  0  0  0  0  0  0  0  0  0
  -23.0386  -25.8781   22.2167 C   0  0  0  0  0  0  0  0  0  0  0  0
  -19.9019   -7.9153   23.1379 C   0  0  0  0  0  0  0  0  0  0  0  0
  -19.1610   -7.8718   24.3190 C   0  0  0  0  0  0  0  0  0  0  0  0
  -22.5953  -25.6937   24.5807 C   0  0  0  0  0  0  0  0  0  0  0  0
  -30.7200  -17.7232   24.2433 C   0  0  0  0  0  0  0  0  0  0  0  0
  -29.5198  -19.7919   24.5852 C   0  0  0  0  0  0  0  0  0  0  0  0
  -29.8813  -18.9610   22.3456 C   0  0  0  0  0  0  0  0  0  0  0  0
  -20.4166   -5.9360   25.0353 C   0  0  0  0  0  0  0  0  0  0  0  0
  -23.8312  -10.4513   20.9640 C   0  0  0  0  0  0  0  0  0  0  0  0
  -24.1659  -12.9774   20.8434 C   0  0  0  0  0  0  0  0  0  0  0  0
  -25.6953  -33.3035   22.7164 C   0  0  0  0  0  0  0  0  0  0  0  0
  -22.0961  -27.7613   23.4250 C   0  0  0  0  0  0  0  0  0  0  0  0
  -25.5421  -31.9836   23.1818 C   0  0  0  0  0  0  0  0  0  0  0  0
  -22.1032  -27.0076   24.6074 C   0  0  0  0  0  0  0  0  0  0  0  0
  -30.1995  -18.6897   25.1038 C   0  0  0  0  0  0  0  0  0  0  0  0
  -30.5610  -17.8589   22.8641 C   0  0  0  0  0  0  0  0  0  0  0  0
  -29.3607  -19.9275   23.2061 C   0  0  0  0  0  0  0  0  0  0  0  0
  -22.3553   -8.1410   21.4805 C   0  0  0  0  0  0  0  0  0  0  0  0
  -23.0619  -25.1331   23.3920 C   0  0  0  0  0  0  0  0  0  0  0  0
  -20.9000   -6.9690   22.9055 C   0  0  0  0  0  0  0  0  0  0  0  0
  -19.4184   -6.8822   25.2677 C   0  0  0  0  0  0  0  0  0  0  0  0
  -21.1574   -5.9794   23.8543 C   0  0  0  0  0  0  0  0  0  0  0  0
  -24.5941  -11.6443   20.6978 C   0  0  0  0  0  0  0  0  0  0  0  0
  -25.2514  -13.7298   20.4665 C   0  0  0  0  0  0  0  0  0  0  0  0
  -27.4005  -20.8912   22.5319 C   0  0  0  0  0  0  0  0  0  0  0  0
  -22.9001  -13.4898   21.2804 C   0  0  0  0  0  0  0  0  0  0  0  0
  -22.9721  -30.2524   25.1945 C   0  0  0  0  0  0  0  0  0  0  0  0
  -25.4535  -22.4483   22.9343 C   0  0  0  0  0  0  0  0  0  0  0  0
  -30.7573  -14.6941   20.6784 C   0  0  0  0  0  0  0  0  0  0  0  0
  -20.2979  -29.5058   26.8719 C   0  0  0  0  0  0  0  0  0  0  0  0
  -18.0064  -27.1413   27.7691 C   0  0  0  0  0  0  0  0  0  0  0  0
  -25.2951  -34.4917   23.5547 C   0  0  0  0  0  0  0  0  0  0  0  0
  -21.5517  -29.1635   23.4188 C   0  0  0  0  0  0  0  0  0  0  0  0
  -21.6038  -27.5727   25.9111 C   0  0  0  0  0  0  0  0  0  0  0  0
  -24.3446  -34.1395   24.6961 C   0  0  0  0  0  0  0  0  0  0  0  0
  -29.5636  -12.3989   18.1991 C   0  0  0  0  0  0  0  0  0  0  0  0
  -24.8400  -32.9041   25.4413 C   0  0  0  0  0  0  0  0  0  0  0  0
  -28.1400  -12.0843   18.6569 C   0  0  0  0  0  0  0  0  0  0  0  0
  -30.4999  -12.6016   19.3862 C   0  0  0  0  0  0  0  0  0  0  0  0
  -28.6142  -13.3300   20.8129 C   0  0  0  0  0  0  0  0  0  0  0  0
  -24.8902  -31.6837   24.5142 C   0  0  1  0  0  0  0  0  0  0  0  0
  -21.5887  -29.8249   24.7931 C   0  0  1  0  0  0  0  0  0  0  0  0
  -27.6291  -13.1482   19.6445 C   0  0  2  0  0  0  0  0  0  0  0  0
  -30.3696  -18.5446   26.5783 C   0  0  0  0  0  0  0  0  0  0  0  0
  -15.9578  -26.8196   29.1823 C   0  0  0  0  0  0  0  0  0  0  0  0
  -22.0395  -29.4362   29.3763 C   0  0  0  0  0  0  0  0  0  0  0  0
  -20.1931  -28.2111   30.5417 C   0  0  0  0  0  0  0  0  0  0  0  0
  -19.8085  -30.5228   29.6870 C   0  0  0  0  0  0  0  0  0  0  0  0
  -16.3536  -26.4351   25.4178 C   0  0  0  0  0  0  0  0  0  0  0  0
  -31.1177  -16.8255   21.9441 C   0  0  0  0  0  0  0  0  0  0  0  0
  -26.5597  -22.0146   21.9965 C   0  0  0  0  0  0  0  0  0  0  0  0
  -24.5448  -23.5473   22.4213 C   0  0  0  0  0  0  0  0  0  1  0  0
  -30.1400  -15.6853   21.6326 C   0  0  0  0  0  0  0  0  0  0  0  0
  -19.9878  -28.6083   28.0455 C   0  0  1  0  0  0  0  0  0  0  0  0
  -16.4890  -27.1702   27.8011 C   0  0  2  0  0  0  0  0  0  0  0  0
  -20.5185  -29.1843   29.3886 C   0  0  0  0  0  0  0  0  0  0  0  0
  -25.8534  -11.5519   20.2621 N   0  0  0  0  0  0  0  0  0  0  0  0
  -28.6761  -21.0377   22.6835 N   0  0  0  0  0  0  0  0  0  0  0  0
  -26.2257  -12.8365   20.1308 N   0  0  0  0  0  0  0  0  0  0  0  0
  -21.0871  -28.9502   25.8549 N   0  0  0  0  0  0  0  0  0  0  0  0
  -29.9685  -13.6033   20.3122 N   0  0  0  0  0  0  0  0  0  0  0  0
  -25.4579  -15.0619   20.3928 N   0  0  0  0  0  0  0  0  0  0  0  0
  -21.8949  -12.5778   21.6300 N   0  0  0  0  0  0  0  0  0  0  0  0
  -23.5622  -31.1430   24.3181 N   0  0  0  0  0  0  0  0  0  0  0  0
  -18.5463  -28.3852   28.0191 N   0  0  0  0  0  0  0  0  0  0  0  0
  -15.9316  -26.1949   26.8218 N   0  3  0  0  0  0  0  0  0  0  0  0
  -22.6620  -14.7198   21.3429 O   0  0  0  0  0  0  0  0  0  0  0  0
  -23.4668  -29.8083   26.2239 O   0  0  0  0  0  0  0  0  0  0  0  0
  -25.3030  -21.9460   24.0472 O   0  0  0  0  0  0  0  0  0  0  0  0
  -31.9053  -14.8868   20.2695 O   0  0  0  0  0  0  0  0  0  0  0  0
  -19.8503  -30.6551   26.8547 O   0  0  0  0  0  0  0  0  0  0  0  0
  -18.6486  -26.1169   27.5483 O   0  0  0  0  0  0  0  0  0  0  0  0
  -21.6352   -7.0139   21.7329 O   0  0  0  0  0  0  0  0  0  0  0  0
  -23.5348  -23.8571   23.3806 O   0  0  0  0  0  0  0  0  0  1  0  0
  -18.7079   -6.8416   26.4025 F   0  0  0  0  0  0  0  0  0  0  0  0
  -22.1158   -5.0683   23.6371 F   0  0  0  0  0  0  0  0  0  0  0  0
  1  2  1  0  0  0  0
  1  5  2  0  0  0  0
  2  6  2  0  0  0  0
  3  8  2  0  0  0  0
  3 18  1  0  0  0  0
  4  9  1  0  0  0  0
  4 18  2  0  0  0  0
  5 20  1  0  0  0  0
  6 22  1  0  0  0  0
  7 10  2  0  0  0  0
  7 21  1  0  0  0  0
  8 27  1  0  0  0  0
  9 27  2  0  0  0  0
 10 28  1  0  0  0  0
 11 12  2  0  0  0  0
 11 29  1  0  0  0  0
 12 30  1  0  0  0  0
 13 23  1  0  0  0  0
 13 28  2  0  0  0  0
 14 24  1  0  0  0  0
 14 25  2  0  0  0  0
 15 24  2  0  0  0  0
 15 26  1  0  0  0  0
 16 25  1  0  0  0  0
 16 26  2  0  0  0  0
 17 30  2  0  0  0  0
 17 31  1  0  0  0  0
 18 32  1  0  0  0  0
 19 32  1  0  0  0  0
 19 33  2  0  0  0  0
 19 35  1  0  0  0  0
 20 22  2  0  0  0  0
 20 41  1  0  0  0  0
 21 23  2  0  0  0  0
 21 42  1  0  0  0  0
 22 50  1  0  0  0  0
 23 43  1  0  0  0  0
 24 53  1  0  0  0  0
 25 59  1  0  0  0  0
 26 67  1  0  0  0  0
 27 82  1  0  0  0  0
 28 83  1  0  0  0  0
 29 31  2  0  0  0  0
 29 82  1  0  0  0  0
 30 84  1  0  0  0  0
 31 85  1  0  0  0  0
 32 66  2  0  0  0  0
 33 68  1  0  0  0  0
 33 71  1  0  0  0  0
 34 60  1  0  0  0  0
 34 67  2  0  0  0  0
 35 72  1  0  0  0  0
 35 76  2  0  0  0  0
 36 51  1  0  0  0  0
 36 73  1  0  0  0  0
 36 77  2  0  0  0  0
 37 60  1  0  0  0  0
 37 61  1  0  0  0  0
 37 78  2  0  0  0  0
 38 62  1  0  0  0  0
 38 70  1  0  0  0  0
 38 79  2  0  0  0  0
 39 63  1  0  0  0  0
 39 69  1  0  0  0  0
 39 80  2  0  0  0  0
 40 64  1  0  0  0  0
 40 74  1  0  0  0  0
 40 81  2  0  0  0  0
 41 44  1  0  0  0  0
 42 51  1  0  0  0  0
 43 69  1  0  0  0  0
 44 46  1  0  0  0  0
 45 47  1  0  0  0  0
 45 48  1  0  0  0  0
 46 50  1  0  0  0  0
 47 52  1  0  0  0  0
 48 70  1  0  0  0  0
 49 52  1  0  0  0  0
 49 70  1  0  0  0  0
 50 73  1  0  0  0  0
 51 69  1  0  0  0  0
 52 68  1  0  0  0  0
 54 64  1  0  0  0  0
 55 65  1  0  0  0  0
 56 65  1  0  0  0  0
 57 65  1  0  0  0  0
 58 75  1  0  0  0  0
 59 62  1  0  0  0  0
 61 83  1  0  0  0  0
 63 65  1  0  0  0  0
 63 74  1  0  0  0  0
 64 75  1  0  0  0  0
 66 68  1  0  0  0  0
M  CHG  1  75   1
M  ISO  4  38 100  61 101  62 100  83 101
M  END
> <Batch ID>
0131

> <Smiles>
CNC(C)C(=O)NC(C(=O)N1Cc2cc([101O:1][101CH2:1]C(=O)C=CNc3cc(C)cc(C[100CH2:0][100C:0](=O)N4CCCC(n5nc(-c6ccc(Oc7ccc(F)cc7F)cc6)c(C(N)=O)c5N)C4)c3)ccc2CC1C(=O)NC1CCCc2ccccc21)C(C)(C)C

> <Shape>
0.255

> <Color>
0.195

> <Negative vol penalty>
0.000

$$$$

  -OEChem-04052302253D

 83 91  0     1  0  0  0  0  0999 V2000
  -31.2678  -12.0236   23.3937 C   0  0  0  0  0  0  0  0  0  0  0  0
  -31.1241  -13.2092   22.6802 C   0  0  0  0  0  0  0  0  0  0  0  0
  -30.2873  -27.5626   22.9756 C   0  0  0  0  0  0  0  0  0  0  0  0
  -20.4611  -28.1577   23.2915 C   0  0  0  0  0  0  0  0  0  0  0  0
  -21.6203  -26.6482   21.8032 C   0  0  0  0  0  0  0  0  0  0  0  0
  -29.6185  -28.6792   22.4741 C   0  0  0  0  0  0  0  0  0  0  0  0
  -30.3232  -11.0078   23.2529 C   0  0  0  0  0  0  0  0  0  0  0  0
  -30.0363  -13.3793   21.8245 C   0  0  0  0  0  0  0  0  0  0  0  0
  -27.8702  -17.9302   22.3166 C   0  0  0  0  0  0  0  0  0  0  0  0
  -30.3706  -26.3983   22.2120 C   0  0  0  0  0  0  0  0  0  0  0  0
  -19.2636  -27.8934   22.6269 C   0  0  0  0  0  0  0  0  0  0  0  0
  -20.4227  -26.3839   21.1386 C   0  0  0  0  0  0  0  0  0  0  0  0
  -28.5092  -19.0088   21.7068 C   0  0  0  0  0  0  0  0  0  0  0  0
  -17.6662  -24.4925   21.6334 C   0  0  0  0  0  0  0  0  0  0  0  0
  -17.3718  -23.1620   21.3361 C   0  0  0  0  0  0  0  0  0  0  0  0
  -29.1162  -27.4671   20.4454 C   0  0  0  0  0  0  0  0  0  0  0  0
  -26.9570  -18.8792   19.8647 C   0  0  0  0  0  0  0  0  0  0  0  0
  -17.3110  -23.7016   18.9819 C   0  0  0  0  0  0  0  0  0  0  0  0
  -21.6395  -27.5351   22.8796 C   0  0  0  0  0  0  0  0  0  0  0  0
  -29.0329  -28.6315   21.2090 C   0  0  0  0  0  0  0  0  0  0  0  0
  -23.4042  -27.1195   24.6742 C   0  0  0  0  0  0  0  0  0  0  0  0
  -29.2181  -11.1693   22.4025 C   0  0  0  0  0  0  0  0  0  0  0  0
  -26.7747  -17.3099   21.6989 C   0  0  0  0  0  0  0  0  0  0  0  0
  -29.0768  -12.3641   21.6712 C   0  0  0  0  0  0  0  0  0  0  0  0
  -26.3042  -17.7945   20.4700 C   0  0  0  0  0  0  0  0  0  0  0  0
  -19.2444  -27.0065   21.5505 C   0  0  0  0  0  0  0  0  0  0  0  0
  -29.7850  -26.3505   20.9469 C   0  0  0  0  0  0  0  0  0  0  0  0
  -28.0545  -19.4816   20.4793 C   0  0  0  0  0  0  0  0  0  0  0  0
  -17.7829  -25.4277   20.6050 C   0  0  0  0  0  0  0  0  0  0  0  0
  -17.1943  -22.7664   20.0103 C   0  0  0  0  0  0  0  0  0  0  0  0
  -17.6054  -25.0322   19.2793 C   0  0  0  0  0  0  0  0  0  0  0  0
  -22.8769  -27.8081   23.5654 C   0  0  0  0  0  0  0  0  0  0  0  0
  -24.5884  -27.7604   24.9451 C   0  0  0  0  0  0  0  0  0  0  0  0
  -28.3356  -29.7956   20.6855 C   0  0  0  0  0  0  0  0  0  0  0  0
  -22.8713  -26.0004   25.3949 C   0  0  0  0  0  0  0  0  0  0  0  0
  -28.2288  -31.0475   21.4696 C   0  0  0  0  0  0  0  0  0  0  0  0
  -26.1793  -14.3890   20.5954 C   0  0  0  0  0  0  0  0  0  0  0  0
  -29.2964  -22.8654   20.0859 C   0  0  0  0  0  0  0  0  0  0  0  0
  -23.1973  -15.5865   20.1528 C   0  0  0  0  0  0  0  0  0  0  0  0
  -21.2140  -18.3253   19.6918 C   0  0  0  0  0  0  0  0  0  0  0  0
  -28.2485  -10.0246   22.2469 C   0  0  0  0  0  0  0  0  0  0  0  0
  -26.0796  -16.1645   22.3825 C   0  0  0  0  0  0  0  0  0  0  0  0
  -25.1195  -17.1765   19.7751 C   0  0  0  0  0  0  0  0  0  0  0  0
  -26.9243  -10.4309   21.6053 C   0  0  0  0  0  0  0  0  0  0  0  0
  -26.7252  -32.0157   24.5773 C   0  0  0  0  0  0  0  0  0  0  0  0
  -27.1711  -11.2987   20.3753 C   0  0  0  0  0  0  0  0  0  0  0  0
  -25.5910  -31.0060   24.7505 C   0  0  0  0  0  0  0  0  0  0  0  0
  -26.9438  -32.3633   23.1084 C   0  0  0  0  0  0  0  0  0  0  0  0
  -26.0538  -30.1577   22.4071 C   0  0  0  0  0  0  0  0  0  0  0  0
  -27.8971  -12.5958   20.7520 C   0  0  1  0  0  0  0  0  0  0  0  0
  -25.2937  -15.2813   21.4183 C   0  0  1  0  0  0  0  0  0  0  0  0
  -25.8217  -29.7611   23.8755 C   0  0  2  0  0  0  0  0  0  0  0  0
  -18.8211  -18.9850   19.3228 C   0  0  0  0  0  0  0  0  0  0  0  0
  -23.3926  -14.6628   17.2513 C   0  0  0  0  0  0  0  0  0  0  0  0
  -21.4515  -16.1519   16.7196 C   0  0  0  0  0  0  0  0  0  0  0  0
  -21.1697  -14.2642   18.3257 C   0  0  0  0  0  0  0  0  0  0  0  0
  -21.1479  -19.9194   22.1845 C   0  0  0  0  0  0  0  0  0  0  0  0
  -29.9349  -23.9777   20.8922 C   0  0  0  0  0  0  0  0  0  0  0  0
  -29.2893  -21.4977   20.7373 C   0  0  0  0  0  0  0  0  0  1  0  0
  -22.4890  -16.3031   19.0286 C   0  0  1  0  0  0  0  0  0  0  0  0
  -19.9155  -18.7514   20.3526 C   0  0  2  0  0  0  0  0  0  0  0  0
  -22.1492  -15.3561   17.8432 C   0  0  0  0  0  0  0  0  0  0  0  0
  -23.6617  -28.8100   23.1597 N   0  0  0  0  0  0  0  0  0  0  0  0
  -27.7670  -29.8218   19.5105 N   0  0  0  0  0  0  0  0  0  0  0  0
  -24.6941  -28.7555   24.0184 N   0  0  0  0  0  0  0  0  0  0  0  0
  -27.1232  -31.1582   22.3011 N   0  0  0  0  0  0  0  0  0  0  0  0
  -24.4775  -16.0551   20.4806 N   0  0  0  0  0  0  0  0  0  0  0  0
  -25.5391  -27.5643   25.8832 N   0  0  0  0  0  0  0  0  0  0  0  0
  -21.6434  -25.4642   24.9835 N   0  0  0  0  0  0  0  0  0  0  0  0
  -26.9723  -13.5394   21.3428 N   0  0  0  0  0  0  0  0  0  0  0  0
  -21.3274  -16.9527   19.6264 N   0  0  0  0  0  0  0  0  0  0  0  0
  -20.1148  -20.0126   21.1210 N   0  3  0  0  0  0  0  0  0  0  0  0
  -23.4584  -25.5014   26.3847 O   0  0  0  0  0  0  0  0  0  0  0  0
  -29.1324  -31.8554   21.2988 O   0  0  0  0  0  0  0  0  0  0  0  0
  -26.1447  -14.4648   19.3728 O   0  0  0  0  0  0  0  0  0  0  0  0
  -28.8143  -23.0607   18.9712 O   0  0  0  0  0  0  0  0  0  0  0  0
  -22.6326  -14.6503   20.7240 O   0  0  0  0  0  0  0  0  0  0  0  0
  -22.0430  -19.1297   19.2719 O   0  0  0  0  0  0  0  0  0  0  0  0
  -18.0760  -26.7482   20.9019 O   0  0  0  0  0  0  0  0  0  0  0  0
  -29.8670  -25.2031   20.1940 O   0  0  0  0  0  0  0  0  0  0  0  0
  -28.6768  -20.5339   19.8815 O   0  0  0  0  0  0  0  0  0  1  0  0
  -16.9131  -21.4883   19.7247 F   0  0  0  0  0  0  0  0  0  0  0  0
  -17.7174  -25.9258   18.2869 F   0  0  0  0  0  0  0  0  0  0  0  0
  1  2  1  0  0  0  0
  1  7  2  0  0  0  0
  2  8  2  0  0  0  0
  3  6  1  0  0  0  0
  3 10  2  0  0  0  0
  4 11  2  0  0  0  0
  4 19  1  0  0  0  0
  5 12  1  0  0  0  0
  5 19  2  0  0  0  0
  6 20  2  0  0  0  0
  7 22  1  0  0  0  0
  8 24  1  0  0  0  0
  9 13  2  0  0  0  0
  9 23  1  0  0  0  0
 10 27  1  0  0  0  0
 11 26  1  0  0  0  0
 12 26  2  0  0  0  0
 13 28  1  0  0  0  0
 14 15  2  0  0  0  0
 14 29  1  0  0  0  0
 15 30  1  0  0  0  0
 16 20  1  0  0  0  0
 16 27  2  0  0  0  0
 17 25  1  0  0  0  0
 17 28  2  0  0  0  0
 18 30  2  0  0  0  0
 18 31  1  0  0  0  0
 19 32  1  0  0  0  0
 20 34  1  0  0  0  0
 21 32  1  0  0  0  0
 21 33  2  0  0  0  0
 21 35  1  0  0  0  0
 22 24  2  0  0  0  0
 22 41  1  0  0  0  0
 23 25  2  0  0  0  0
 23 42  1  0  0  0  0
 24 50  1  0  0  0  0
 25 43  1  0  0  0  0
 26 79  1  0  0  0  0
 27 80  1  0  0  0  0
 28 81  1  0  0  0  0
 29 31  2  0  0  0  0
 29 79  1  0  0  0  0
 30 82  1  0  0  0  0
 31 83  1  0  0  0  0
 32 63  2  0  0  0  0
 33 65  1  0  0  0  0
 33 68  1  0  0  0  0
 34 36  1  0  0  0  0
 34 64  2  0  0  0  0
 35 69  1  0  0  0  0
 35 73  2  0  0  0  0
 36 66  1  0  0  0  0
 36 74  2  0  0  0  0
 37 51  1  0  0  0  0
 37 70  1  0  0  0  0
 37 75  2  0  0  0  0
 38 58  1  0  0  0  0
 38 59  1  0  0  0  0
 38 76  2  0  0  0  0
 39 60  1  0  0  0  0
 39 67  1  0  0  0  0
 39 77  2  0  0  0  0
 40 61  1  0  0  0  0
 40 71  1  0  0  0  0
 40 78  2  0  0  0  0
 41 44  1  0  0  0  0
 42 51  1  0  0  0  0
 43 67  1  0  0  0  0
 44 46  1  0  0  0  0
 45 47  1  0  0  0  0
 45 48  1  0  0  0  0
 46 50  1  0  0  0  0
 47 52  1  0  0  0  0
 48 66  1  0  0  0  0
 49 52  1  0  0  0  0
 49 66  1  0  0  0  0
 50 70  1  0  0  0  0
 51 67  1  0  0  0  0
 52 65  1  0  0  0  0
 53 61  1  0  0  0  0
 54 62  1  0  0  0  0
 55 62  1  0  0  0  0
 56 62  1  0  0  0  0
 57 72  1  0  0  0  0
 58 80  1  0  0  0  0
 59 81  1  0  0  0  0
 60 62  1  0  0  0  0
 60 71  1  0  0  0  0
 61 72  1  0  0  0  0
 63 65  1  0  0  0  0
M  CHG  1  72   1
M  ISO  4  34 100  36 100  59 101  81 101
M  END
> <Batch ID>
0131

> <Smiles>
CNC(C)C(=O)NC(C(=O)N1Cc2cc([101O:1][101CH2:1]C(=O)COc3cccc([100C:0](=N)[100C:0](=O)N4CCCC(n5nc(-c6ccc(Oc7ccc(F)cc7F)cc6)c(C(N)=O)c5N)C4)c3)ccc2CC1C(=O)NC1CCCc2ccccc21)C(C)(C)C

> <Shape>
0.213

> <Color>
0.076

> <Negative vol penalty>
0.000

$$$$

  -OEChem-04052302253D

 82 90  0     1  0  0  0  0  0999 V2000
  -27.5001  -34.3032   24.6323 C   0  0  0  0  0  0  0  0  0  0  0  0
  -27.7588  -33.0057   24.2022 C   0  0  0  0  0  0  0  0  0  0  0  0
  -24.5995   -9.1741   21.0770 C   0  0  0  0  0  0  0  0  0  0  0  0
  -23.0556  -10.9887   20.6761 C   0  0  0  0  0  0  0  0  0  0  0  0
  -26.2136  -34.6596   25.0343 C   0  0  0  0  0  0  0  0  0  0  0  0
  -26.7312  -32.0635   24.1749 C   0  0  0  0  0  0  0  0  0  0  0  0
  -26.7000  -29.3462   19.9018 C   0  0  0  0  0  0  0  0  0  0  0  0
  -28.4299  -20.3633   15.8101 C   0  0  0  0  0  0  0  0  0  0  0  0
  -28.0031  -19.1290   15.3203 C   0  0  0  0  0  0  0  0  0  0  0  0
  -23.5905   -8.4577   21.7205 C   0  0  0  0  0  0  0  0  0  0  0  0
  -22.0465  -10.2723   21.3196 C   0  0  0  0  0  0  0  0  0  0  0  0
  -27.6357  -28.3182   19.7941 C   0  0  0  0  0  0  0  0  0  0  0  0
  -20.9162   -6.5847   20.8411 C   0  0  0  0  0  0  0  0  0  0  0  0
  -20.7758   -5.2341   20.5223 C   0  0  0  0  0  0  0  0  0  0  0  0
  -25.9340  -26.7152   20.3892 C   0  0  0  0  0  0  0  0  0  0  0  0
  -29.0415  -19.3217   17.9025 C   0  0  0  0  0  0  0  0  0  0  0  0
  -21.1840   -4.6469   22.8301 C   0  0  0  0  0  0  0  0  0  0  0  0
  -24.3321  -10.4397   20.5548 C   0  0  0  0  0  0  0  0  0  0  0  0
  -25.6963  -11.1521   18.5204 C   0  0  0  0  0  0  0  0  0  0  0  0
  -25.1675  -33.7240   25.0028 C   0  0  0  0  0  0  0  0  0  0  0  0
  -25.3747  -29.0672   20.2652 C   0  0  0  0  0  0  0  0  0  0  0  0
  -25.4297  -32.4074   24.5782 C   0  0  0  0  0  0  0  0  0  0  0  0
  -24.9829  -27.7412   20.4983 C   0  0  0  0  0  0  0  0  0  0  0  0
  -28.9491  -20.4597   17.1012 C   0  0  0  0  0  0  0  0  0  0  0  0
  -28.0955  -17.9910   16.1217 C   0  0  0  0  0  0  0  0  0  0  0  0
  -28.6147  -18.0873   17.4128 C   0  0  0  0  0  0  0  0  0  0  0  0
  -22.3140   -9.0068   21.8418 C   0  0  0  0  0  0  0  0  0  0  0  0
  -27.2534  -27.0028   20.0406 C   0  0  0  0  0  0  0  0  0  0  0  0
  -21.1906   -6.9665   22.1544 C   0  0  0  0  0  0  0  0  0  0  0  0
  -20.9097   -4.2652   21.5168 C   0  0  0  0  0  0  0  0  0  0  0  0
  -21.3245   -5.9976   23.1489 C   0  0  0  0  0  0  0  0  0  0  0  0
  -25.3742  -11.1805   19.8905 C   0  0  0  0  0  0  0  0  0  0  0  0
  -26.7509  -12.0234   18.3975 C   0  0  0  0  0  0  0  0  0  0  0  0
  -25.0958  -10.4051   17.4541 C   0  0  0  0  0  0  0  0  0  0  0  0
  -23.4962  -29.8830   22.6962 C   0  0  0  0  0  0  0  0  0  0  0  0
  -21.2334  -28.3404   20.9577 C   0  0  0  0  0  0  0  0  0  0  0  0
  -20.4993  -26.0072   18.5777 C   0  0  0  0  0  0  0  0  0  0  0  0
  -29.2121  -16.8846   19.5442 C   0  0  0  0  0  0  0  0  0  0  0  0
  -23.8037  -34.1430   25.4918 C   0  0  0  0  0  0  0  0  0  0  0  0
  -24.3711  -30.1843   20.3510 C   0  0  0  0  0  0  0  0  0  0  0  0
  -23.5676  -27.3865   20.8718 C   0  0  0  0  0  0  0  0  0  0  0  0
  -22.6880  -33.1871   25.0777 C   0  0  0  0  0  0  0  0  0  0  0  0
  -29.5967  -14.2697   21.9298 C   0  0  0  0  0  0  0  0  0  0  0  0
  -23.1001  -31.7414   25.3366 C   0  0  0  0  0  0  0  0  0  0  0  0
  -28.5589  -13.2306   21.4993 C   0  0  0  0  0  0  0  0  0  0  0  0
  -29.0905  -15.6961   21.7231 C   0  0  0  0  0  0  0  0  0  0  0  0
  -27.5620  -14.9517   19.9402 C   0  0  0  0  0  0  0  0  0  0  0  0
  -24.3359  -31.3638   24.5108 C   0  0  1  0  0  0  0  0  0  0  0  0
  -23.1714  -29.8436   21.2297 C   0  0  1  0  0  0  0  0  0  0  0  0
  -28.0514  -13.5000   20.0691 C   0  0  2  0  0  0  0  0  0  0  0  0
  -27.6300  -16.6820   15.5712 C   0  0  0  0  0  0  0  0  0  0  0  0
  -18.5587  -24.9411   17.3967 C   0  0  0  0  0  0  0  0  0  0  0  0
  -20.6430  -26.6694   23.4415 C   0  0  0  0  0  0  0  0  0  0  0  0
  -19.4272  -25.0452   21.9745 C   0  0  0  0  0  0  0  0  0  0  0  0
  -18.6174  -27.3967   22.1677 C   0  0  0  0  0  0  0  0  0  0  0  0
  -21.4252  -26.9737   15.9381 C   0  0  0  0  0  0  0  0  0  0  0  0
  -29.4103  -21.7945   17.6297 C   0  0  0  0  0  0  0  0  0  0  0  0
  -28.3129  -22.5896   18.3458 C   0  0  0  0  0  0  0  0  0  0  0  0
  -28.7786  -23.9715   18.8066 C   0  0  0  0  0  0  0  0  0  0  0  0
  -27.6755  -24.7149   19.5476 C   0  0  0  0  0  0  0  0  0  1  0  0
  -20.7356  -26.9177   20.8733 C   0  0  1  0  0  0  0  0  0  0  0  0
  -19.5896  -26.0587   17.3635 C   0  0  2  0  0  0  0  0  0  0  0  0
  -19.8830  -26.5138   22.1091 C   0  0  0  0  0  0  0  0  0  0  0  0
  -26.1607  -12.0044   20.5881 N   0  0  0  0  0  0  0  0  0  0  0  0
  -26.9874  -12.5018   19.6526 N   0  0  0  0  0  0  0  0  0  0  0  0
  -22.6246  -28.5145   20.9490 N   0  0  0  0  0  0  0  0  0  0  0  0
  -28.6303  -15.8789   20.3448 N   0  0  0  0  0  0  0  0  0  0  0  0
  -27.4898  -12.4193   17.3393 N   0  0  0  0  0  0  0  0  0  0  0  0
  -24.0216   -9.5566   17.7550 N   0  0  0  0  0  0  0  0  0  0  0  0
  -28.7173  -16.9427   18.2417 N   0  0  0  0  0  0  0  0  0  0  0  0
  -23.9655  -31.1061   23.1358 N   0  0  0  0  0  0  0  0  0  0  0  0
  -20.0324  -26.8062   19.5999 N   0  0  0  0  0  0  0  0  0  0  0  0
  -20.3878  -25.9247   16.1122 N   0  3  0  0  0  0  0  0  0  0  0  0
  -25.5104  -10.4751   16.2722 O   0  0  0  0  0  0  0  0  0  0  0  0
  -23.3317  -28.8786   23.3787 O   0  0  0  0  0  0  0  0  0  0  0  0
  -20.4179  -29.2636   21.0215 O   0  0  0  0  0  0  0  0  0  0  0  0
  -21.5199  -25.3236   18.6168 O   0  0  0  0  0  0  0  0  0  0  0  0
  -30.1041  -17.6208   19.9734 O   0  0  0  0  0  0  0  0  0  0  0  0
  -21.3290   -8.3078   22.4694 O   0  0  0  0  0  0  0  0  0  0  0  0
  -28.1648  -25.9976   19.9368 O   0  0  0  0  0  0  0  0  0  1  0  0
  -20.7733   -2.9683   21.2108 F   0  0  0  0  0  0  0  0  0  0  0  0
  -21.5869   -6.3583   24.4125 F   0  0  0  0  0  0  0  0  0  0  0  0
  1  2  1  0  0  0  0
  1  5  2  0  0  0  0
  2  6  2  0  0  0  0
  3 10  2  0  0  0  0
  3 18  1  0  0  0  0
  4 11  1  0  0  0  0
  4 18  2  0  0  0  0
  5 20  1  0  0  0  0
  6 22  1  0  0  0  0
  7 12  2  0  0  0  0
  7 21  1  0  0  0  0
  8  9  2  0  0  0  0
  8 24  1  0  0  0  0
  9 25  1  0  0  0  0
 10 27  1  0  0  0  0
 11 27  2  0  0  0  0
 12 28  1  0  0  0  0
 13 14  2  0  0  0  0
 13 29  1  0  0  0  0
 14 30  1  0  0  0  0
 15 23  1  0  0  0  0
 15 28  2  0  0  0  0
 16 24  2  0  0  0  0
 16 26  1  0  0  0  0
 17 30  2  0  0  0  0
 17 31  1  0  0  0  0
 18 32  1  0  0  0  0
 19 32  1  0  0  0  0
 19 33  2  0  0  0  0
 19 34  1  0  0  0  0
 20 22  2  0  0  0  0
 20 39  1  0  0  0  0
 21 23  2  0  0  0  0
 21 40  1  0  0  0  0
 22 48  1  0  0  0  0
 23 41  1  0  0  0  0
 24 57  1  0  0  0  0
 25 26  2  0  0  0  0
 25 51  1  0  0  0  0
 26 70  1  0  0  0  0
 27 79  1  0  0  0  0
 28 80  1  0  0  0  0
 29 31  2  0  0  0  0
 29 79  1  0  0  0  0
 30 81  1  0  0  0  0
 31 82  1  0  0  0  0
 32 64  2  0  0  0  0
 33 65  1  0  0  0  0
 33 68  1  0  0  0  0
 34 69  1  0  0  0  0
 34 74  2  0  0  0  0
 35 49  1  0  0  0  0
 35 71  1  0  0  0  0
 35 75  2  0  0  0  0
 36 61  1  0  0  0  0
 36 66  1  0  0  0  0
 36 76  2  0  0  0  0
 37 62  1  0  0  0  0
 37 72  1  0  0  0  0
 37 77  2  0  0  0  0
 38 67  1  0  0  0  0
 38 70  1  0  0  0  0
 38 78  2  0  0  0  0
 39 42  1  0  0  0  0
 40 49  1  0  0  0  0
 41 66  1  0  0  0  0
 42 44  1  0  0  0  0
 43 45  1  0  0  0  0
 43 46  1  0  0  0  0
 44 48  1  0  0  0  0
 45 50  1  0  0  0  0
 46 67  1  0  0  0  0
 47 50  1  0  0  0  0
 47 67  1  0  0  0  0
 48 71  1  0  0  0  0
 49 66  1  0  0  0  0
 50 65  1  0  0  0  0
 52 62  1  0  0  0  0
 53 63  1  0  0  0  0
 54 63  1  0  0  0  0
 55 63  1  0  0  0  0
 56 73  1  0  0  0  0
 57 58  1  0  0  0  0
 58 59  1  0  0  0  0
 59 60  1  0  0  0  0
 60 80  1  0  0  0  0
 61 63  1  0  0  0  0
 61 72  1  0  0  0  0
 62 73  1  0  0  0  0
 64 65  1  0  0  0  0
M  CHG  1  73   1
M  ISO  4  38 100  60 101  70 100  80 101
M  END
> <Batch ID>
0131

> <Smiles>
CNC(C)C(=O)NC(C(=O)N1Cc2cc([101O:1][101CH2:1]CCCc3ccc(C)c([100NH:0][100C:0](=O)N4CCCC(n5nc(-c6ccc(Oc7ccc(F)cc7F)cc6)c(C(N)=O)c5N)C4)c3)ccc2CC1C(=O)NC1CCCc2ccccc21)C(C)(C)C

> <Shape>
0.302

> <Color>
0.106

> <Negative vol penalty>
0.000

$$$$

  -OEChem-04052302253D

 82 90  0     1  0  0  0  0  0999 V2000
  -19.2487  -29.0490   23.4023 C   0  0  0  0  0  0  0  0  0  0  0  0
  -19.8312  -27.8244   23.7129 C   0  0  0  0  0  0  0  0  0  0  0  0
  -27.8544  -23.2123   20.4799 C   0  0  0  0  0  0  0  0  0  0  0  0
  -29.2448  -23.3933   18.5124 C   0  0  0  0  0  0  0  0  0  0  0  0
  -27.6649  -14.9237   22.9781 C   0  0  0  0  0  0  0  0  0  0  0  0
  -18.3363  -29.1392   22.3520 C   0  0  0  0  0  0  0  0  0  0  0  0
  -19.5008  -26.6890   22.9739 C   0  0  0  0  0  0  0  0  0  0  0  0
  -23.2021  -22.0268   21.5350 C   0  0  0  0  0  0  0  0  0  0  0  0
  -26.3180  -14.6092   22.7976 C   0  0  0  0  0  0  0  0  0  0  0  0
  -27.8478  -24.6016   20.6031 C   0  0  0  0  0  0  0  0  0  0  0  0
  -29.2382  -24.7827   18.6355 C   0  0  0  0  0  0  0  0  0  0  0  0
  -23.3825  -20.7642   22.0980 C   0  0  0  0  0  0  0  0  0  0  0  0
  -26.2603  -27.2218   19.1722 C   0  0  0  0  0  0  0  0  0  0  0  0
  -25.0401  -27.8432   19.4376 C   0  0  0  0  0  0  0  0  0  0  0  0
  -21.8698  -19.8282   20.4686 C   0  0  0  0  0  0  0  0  0  0  0  0
  -26.7794  -13.9388   20.5229 C   0  0  0  0  0  0  0  0  0  0  0  0
  -25.9438  -28.7406   21.4907 C   0  0  0  0  0  0  0  0  0  0  0  0
  -28.5529  -22.6081   19.4346 C   0  0  0  0  0  0  0  0  0  0  0  0
  -28.5691  -14.7457   21.9311 C   0  0  0  0  0  0  0  0  0  0  0  0
  -27.6473  -20.3784   18.5884 C   0  0  0  0  0  0  0  0  0  0  0  0
  -18.0017  -28.0063   21.5936 C   0  0  0  0  0  0  0  0  0  0  0  0
  -22.3443  -22.2018   20.4396 C   0  0  0  0  0  0  0  0  0  0  0  0
  -18.5820  -26.7639   21.9133 C   0  0  0  0  0  0  0  0  0  0  0  0
  -21.6822  -21.0937   19.8920 C   0  0  0  0  0  0  0  0  0  0  0  0
  -25.8753  -14.1168   21.5699 C   0  0  0  0  0  0  0  0  0  0  0  0
  -28.1264  -14.2533   20.7034 C   0  0  0  0  0  0  0  0  0  0  0  0
  -28.5397  -25.3869   19.6809 C   0  0  0  0  0  0  0  0  0  0  0  0
  -22.7141  -19.6651   21.5666 C   0  0  0  0  0  0  0  0  0  0  0  0
  -27.3223  -27.3596   20.0661 C   0  0  0  0  0  0  0  0  0  0  0  0
  -24.8818  -28.6027   20.5969 C   0  0  0  0  0  0  0  0  0  0  0  0
  -27.1640  -28.1191   21.2253 C   0  0  0  0  0  0  0  0  0  0  0  0
  -28.5606  -21.1729   19.3071 C   0  0  0  0  0  0  0  0  0  0  0  0
  -28.0871  -19.0914   18.7797 C   0  0  0  0  0  0  0  0  0  0  0  0
  -29.9816  -15.0832   22.1496 C   0  0  0  0  0  0  0  0  0  0  0  0
  -26.5037  -20.7689   17.8168 C   0  0  0  0  0  0  0  0  0  0  0  0
  -19.6781  -23.8525   19.9195 C   0  0  0  0  0  0  0  0  0  0  0  0
  -20.1002  -22.8263   16.8714 C   0  0  0  0  0  0  0  0  0  0  0  0
  -21.4498  -20.5160   14.7529 C   0  0  0  0  0  0  0  0  0  0  0  0
  -16.9745  -28.1436   20.4979 C   0  0  0  0  0  0  0  0  0  0  0  0
  -22.1812  -23.5658   19.8271 C   0  0  0  0  0  0  0  0  0  0  0  0
  -20.7660  -21.2248   18.7037 C   0  0  0  0  0  0  0  0  0  0  0  0
  -16.9616  -26.9680   19.5242 C   0  0  0  0  0  0  0  0  0  0  0  0
  -32.3892  -17.3289   20.7704 C   0  0  0  0  0  0  0  0  0  0  0  0
  -16.9884  -25.6454   20.2838 C   0  0  0  0  0  0  0  0  0  0  0  0
  -31.5364  -18.4753   20.2239 C   0  0  0  0  0  0  0  0  0  0  0  0
  -31.8017  -16.7530   22.0564 C   0  0  0  0  0  0  0  0  0  0  0  0
  -29.5321  -17.4786   21.4028 C   0  0  0  0  0  0  0  0  0  0  0  0
  -18.2677  -25.5147   21.1190 C   0  0  1  0  0  0  0  0  0  0  0  0
  -20.8854  -23.7144   19.0357 C   0  0  1  0  0  0  0  0  0  0  0  0
  -30.0620  -18.0539   20.0791 C   0  0  1  0  0  0  0  0  0  0  0  0
  -29.4431  -12.5840   19.3745 C   0  0  0  0  0  0  0  0  0  0  0  0
  -22.0932  -19.4503   12.5739 C   0  0  0  0  0  0  0  0  0  0  0  0
  -17.2462  -21.7517   16.9706 C   0  0  0  0  0  0  0  0  0  0  0  0
  -17.7678  -20.3764   14.9446 C   0  0  0  0  0  0  0  0  0  0  0  0
  -17.8672  -22.8658   14.8194 C   0  0  0  0  0  0  0  0  0  0  0  0
  -23.9913  -22.0277   14.6308 C   0  0  0  0  0  0  0  0  0  0  0  0
  -24.4187  -13.7789   21.3746 C   0  0  0  0  0  0  0  0  0  0  0  0
  -29.0737  -14.0517   19.5660 C   0  0  0  0  0  0  0  0  0  0  0  0
  -23.5750  -14.9502   20.8596 C   0  0  0  0  0  0  0  0  0  0  0  0
  -23.6469  -16.1824   21.7626 C   0  0  0  0  0  0  0  0  0  0  0  0
  -22.7664  -17.3099   21.2410 C   0  0  0  0  0  0  0  0  0  1  0  0
  -19.6662  -21.6154   16.0813 C   0  0  1  0  0  0  0  0  0  0  0  0
  -22.2458  -20.6700   13.4695 C   0  0  2  0  0  0  0  0  0  0  0  0
  -18.1526  -21.6498   15.7276 C   0  0  0  0  0  0  0  0  0  0  0  0
  -29.5088  -20.4510   19.9101 N   0  0  0  0  0  0  0  0  0  0  0  0
  -29.1937  -19.1893   19.5709 N   0  0  0  0  0  0  0  0  0  0  0  0
  -30.3992  -16.3857   21.8655 N   0  0  0  0  0  0  0  0  0  0  0  0
  -20.6344  -22.5802   18.1442 N   0  0  0  0  0  0  0  0  0  0  0  0
  -27.6312  -17.8967   18.3468 N   0  0  0  0  0  0  0  0  0  0  0  0
  -26.1941  -22.1327   17.7243 N   0  0  0  0  0  0  0  0  0  0  0  0
  -19.3875  -25.1557   20.2754 N   0  0  0  0  0  0  0  0  0  0  0  0
  -20.5493  -21.5464   14.9220 N   0  0  0  0  0  0  0  0  0  0  0  0
  -23.6931  -20.8498   13.7760 N   0  3  0  0  0  0  0  0  0  0  0  0
  -30.7003  -14.1738   22.5612 O   0  0  0  0  0  0  0  0  0  0  0  0
  -25.7684  -19.9319   17.2402 O   0  0  0  0  0  0  0  0  0  0  0  0
  -19.0554  -22.8510   20.2526 O   0  0  0  0  0  0  0  0  0  0  0  0
  -19.9766  -23.9486   16.3747 O   0  0  0  0  0  0  0  0  0  0  0  0
  -21.6083  -19.5739   15.5260 O   0  0  0  0  0  0  0  0  0  0  0  0
  -28.5333  -26.7426   19.8007 O   0  0  0  0  0  0  0  0  0  0  0  0
  -22.8879  -18.4317   22.1146 O   0  0  0  0  0  0  0  0  0  1  0  0
  -23.7105  -29.2007   20.8509 F   0  0  0  0  0  0  0  0  0  0  0  0
  -28.1810  -28.2561   22.0872 F   0  0  0  0  0  0  0  0  0  0  0  0
  1  2  1  0  0  0  0
  1  6  2  0  0  0  0
  2  7  2  0  0  0  0
  3 10  2  0  0  0  0
  3 18  1  0  0  0  0
  4 11  1  0  0  0  0
  4 18  2  0  0  0  0
  5  9  2  0  0  0  0
  5 19  1  0  0  0  0
  6 21  1  0  0  0  0
  7 23  1  0  0  0  0
  8 12  2  0  0  0  0
  8 22  1  0  0  0  0
  9 25  1  0  0  0  0
 10 27  1  0  0  0  0
 11 27  2  0  0  0  0
 12 28  1  0  0  0  0
 13 14  2  0  0  0  0
 13 29  1  0  0  0  0
 14 30  1  0  0  0  0
 15 24  1  0  0  0  0
 15 28  2  0  0  0  0
 16 25  2  0  0  0  0
 16 26  1  0  0  0  0
 17 30  2  0  0  0  0
 17 31  1  0  0  0  0
 18 32  1  0  0  0  0
 19 26  2  0  0  0  0
 19 34  1  0  0  0  0
 20 32  1  0  0  0  0
 20 33  2  0  0  0  0
 20 35  1  0  0  0  0
 21 23  2  0  0  0  0
 21 39  1  0  0  0  0
 22 24  2  0  0  0  0
 22 40  1  0  0  0  0
 23 48  1  0  0  0  0
 24 41  1  0  0  0  0
 25 57  1  0  0  0  0
 26 58  1  0  0  0  0
 27 79  1  0  0  0  0
 28 80  1  0  0  0  0
 29 31  2  0  0  0  0
 29 79  1  0  0  0  0
 30 81  1  0  0  0  0
 31 82  1  0  0  0  0
 32 65  2  0  0  0  0
 33 66  1  0  0  0  0
 33 69  1  0  0  0  0
 34 67  1  0  0  0  0
 34 74  2  0  0  0  0
 35 70  1  0  0  0  0
 35 75  2  0  0  0  0
 36 49  1  0  0  0  0
 36 71  1  0  0  0  0
 36 76  2  0  0  0  0
 37 62  1  0  0  0  0
 37 68  1  0  0  0  0
 37 77  2  0  0  0  0
 38 63  1  0  0  0  0
 38 72  1  0  0  0  0
 38 78  2  0  0  0  0
 39 42  1  0  0  0  0
 40 49  1  0  0  0  0
 41 68  1  0  0  0  0
 42 44  1  0  0  0  0
 43 45  1  0  0  0  0
 43 46  1  0  0  0  0
 44 48  1  0  0  0  0
 45 50  1  0  0  0  0
 46 67  1  0  0  0  0
 47 50  1  0  0  0  0
 47 67  1  0  0  0  0
 48 71  1  0  0  0  0
 49 68  1  0  0  0  0
 50 66  1  0  0  0  0
 51 58  1  0  0  0  0
 52 63  1  0  0  0  0
 53 64  1  0  0  0  0
 54 64  1  0  0  0  0
 55 64  1  0  0  0  0
 56 73  1  0  0  0  0
 57 59  1  0  0  0  0
 59 60  1  0  0  0  0
 60 61  1  0  0  0  0
 61 80  1  0  0  0  0
 62 64  1  0  0  0  0
 62 72  1  0  0  0  0
 63 73  1  0  0  0  0
 65 66  1  0  0  0  0
M  CHG  1  73   1
M  ISO  4  19 100  34 100  61 101  80 101
M  END
> <Batch ID>
0131

> <Smiles>
CCc1cc(CCC[101CH2:1][101O:1]c2ccc3c(c2)CN(C(=O)C(NC(=O)C(C)NC)C(C)(C)C)C(C(=O)NC2CCCc4ccccc42)C3)cc[100c:0]1[100C:0](=O)N1CCCC(n2nc(-c3ccc(Oc4ccc(F)cc4F)cc3)c(C(N)=O)c2N)C1

> <Shape>
0.213

> <Color>
0.071

> <Negative vol penalty>
0.000

$$$$

  -OEChem-04052302253D

 85 93  0     1  0  0  0  0  0999 V2000
  -25.8927  -19.2591   16.8402 C   0  0  0  0  0  0  0  0  0  0  0  0
  -25.2079  -20.4019   17.2407 C   0  0  0  0  0  0  0  0  0  0  0  0
  -25.3067  -16.2204   19.7920 C   0  0  0  0  0  0  0  0  0  0  0  0
  -25.6938  -16.8468   22.0930 C   0  0  0  0  0  0  0  0  0  0  0  0
  -27.0951  -18.9162   17.4572 C   0  0  0  0  0  0  0  0  0  0  0  0
  -25.7246  -21.2020   18.2592 C   0  0  0  0  0  0  0  0  0  0  0  0
  -25.3280  -27.2964   18.7134 C   0  0  0  0  0  0  0  0  0  0  0  0
  -19.9969  -28.5607   23.4114 C   0  0  0  0  0  0  0  0  0  0  0  0
  -19.8821  -27.1876   23.6280 C   0  0  0  0  0  0  0  0  0  0  0  0
  -26.6137  -15.7416   19.7024 C   0  0  0  0  0  0  0  0  0  0  0  0
  -27.0009  -16.3680   22.0034 C   0  0  0  0  0  0  0  0  0  0  0  0
  -24.4728  -28.1297   19.4332 C   0  0  0  0  0  0  0  0  0  0  0  0
  -28.3239  -12.9786   20.6372 C   0  0  0  0  0  0  0  0  0  0  0  0
  -28.5202  -11.7403   20.0259 C   0  0  0  0  0  0  0  0  0  0  0  0
  -26.1167  -28.2877   21.1916 C   0  0  0  0  0  0  0  0  0  0  0  0
  -18.4973  -28.3885   21.5249 C   0  0  0  0  0  0  0  0  0  0  0  0
  -29.9315  -12.7836   18.3655 C   0  0  0  0  0  0  0  0  0  0  0  0
  -24.8467  -16.7731   20.9873 C   0  0  0  0  0  0  0  0  0  0  0  0
  -22.3519  -16.5477   21.4694 C   0  0  0  0  0  0  0  0  0  0  0  0
  -27.6317  -19.7177   18.4772 C   0  0  0  0  0  0  0  0  0  0  0  0
  -26.5816  -26.9431   19.2331 C   0  0  0  0  0  0  0  0  0  0  0  0
  -26.9346  -20.8687   18.8913 C   0  0  0  0  0  0  0  0  0  0  0  0
  -26.9869  -27.4518   20.4753 C   0  0  0  0  0  0  0  0  0  0  0  0
  -19.3045  -29.1612   22.3599 C   0  0  0  0  0  0  0  0  0  0  0  0
  -19.0750  -26.4149   22.7930 C   0  0  0  0  0  0  0  0  0  0  0  0
  -18.3826  -27.0154   21.7415 C   0  0  0  0  0  0  0  0  0  0  0  0
  -27.4608  -15.8154   20.8081 C   0  0  0  0  0  0  0  0  0  0  0  0
  -24.8659  -28.6231   20.6738 C   0  0  0  0  0  0  0  0  0  0  0  0
  -28.9314  -14.1195   20.1126 C   0  0  0  0  0  0  0  0  0  0  0  0
  -29.3240  -11.6428   18.8901 C   0  0  0  0  0  0  0  0  0  0  0  0
  -29.7351  -14.0220   18.9768 C   0  0  0  0  0  0  0  0  0  0  0  0
  -23.4969  -17.2683   21.0803 C   0  0  0  0  0  0  0  0  0  0  0  0
  -21.3290  -17.4612   21.3937 C   0  0  0  0  0  0  0  0  0  0  0  0
  -22.2242  -15.1752   21.8640 C   0  0  0  0  0  0  0  0  0  0  0  0
  -27.9715  -24.2116   20.0759 C   0  0  0  0  0  0  0  0  0  0  0  0
  -21.9523  -30.6352   21.6998 C   0  0  0  0  0  0  0  0  0  0  0  0
  -30.5689  -26.1112   20.4847 C   0  0  0  0  0  0  0  0  0  0  0  0
  -31.8095  -29.2350   21.0761 C   0  0  0  0  0  0  0  0  0  0  0  0
  -20.3401  -22.9703   22.4352 C   0  0  0  0  0  0  0  0  0  0  0  0
  -28.9104  -19.2808   19.1469 C   0  0  0  0  0  0  0  0  0  0  0  0
  -27.5033  -26.0649   18.4321 C   0  0  0  0  0  0  0  0  0  0  0  0
  -28.3308  -27.1189   21.0682 C   0  0  0  0  0  0  0  0  0  0  0  0
  -29.5797  -20.3850   19.9611 C   0  0  0  0  0  0  0  0  0  0  0  0
  -20.6611  -21.7587   19.0401 C   0  0  0  0  0  0  0  0  0  0  0  0
  -28.5536  -21.1019   20.8330 C   0  0  0  0  0  0  0  0  0  0  0  0
  -21.3188  -20.3959   19.2644 C   0  0  0  0  0  0  0  0  0  0  0  0
  -21.1958  -22.7986   20.0204 C   0  0  0  0  0  0  0  0  0  0  0  0
  -21.7216  -21.0556   21.6815 C   0  0  0  0  0  0  0  0  0  0  0  0
  -27.4754  -21.7755   19.9755 C   0  0  1  0  0  0  0  0  0  0  0  0
  -28.5469  -25.3552   19.2892 C   0  0  1  0  0  0  0  0  0  0  0  0
  -21.2069  -19.9551   20.7360 C   0  0  2  0  0  0  0  0  0  0  0  0
  -16.0303  -26.3790   21.1514 C   0  0  0  0  0  0  0  0  0  0  0  0
  -33.9718  -30.4682   21.3941 C   0  0  0  0  0  0  0  0  0  0  0  0
  -30.7955  -24.9807   23.3097 C   0  0  0  0  0  0  0  0  0  0  0  0
  -32.3195  -26.8850   23.8746 C   0  0  0  0  0  0  0  0  0  0  0  0
  -32.9759  -25.2446   22.1137 C   0  0  0  0  0  0  0  0  0  0  0  0
  -31.3119  -30.9510   18.7167 C   0  0  0  0  0  0  0  0  0  0  0  0
  -19.4293  -30.6476   22.1253 C   0  0  0  0  0  0  0  0  0  0  0  0
  -17.5128  -26.2082   20.8344 C   0  0  0  0  0  0  0  0  0  0  0  0
  -18.9686  -24.9465   23.0438 C   0  0  0  0  0  0  0  0  0  0  0  0
  -20.5742  -31.0208   21.1817 C   0  0  0  0  0  0  0  0  0  0  0  0
  -22.7708  -29.7428   20.7876 C   0  0  0  0  0  0  0  0  0  1  0  0
  -31.1379  -26.9121   21.6309 C   0  0  1  0  0  0  0  0  0  0  0  0
  -32.9125  -30.0261   20.3965 C   0  0  2  0  0  0  0  0  0  0  0  0
  -31.7810  -26.0105   22.7222 C   0  0  0  0  0  0  0  0  0  0  0  0
  -23.2273  -18.5415   20.7796 N   0  0  0  0  0  0  0  0  0  0  0  0
  -21.9012  -18.6280   20.9796 N   0  0  0  0  0  0  0  0  0  0  0  0
  -29.1938  -26.2514   20.2497 N   0  0  0  0  0  0  0  0  0  0  0  0
  -21.0427  -22.3256   21.4035 N   0  0  0  0  0  0  0  0  0  0  0  0
  -20.0050  -17.3722   21.6414 N   0  0  0  0  0  0  0  0  0  0  0  0
  -23.3759  -14.3767   21.8868 N   0  0  0  0  0  0  0  0  0  0  0  0
  -27.9802  -23.0049   19.4027 N   0  0  0  0  0  0  0  0  0  0  0  0
  -32.0555  -27.8788   21.0375 N   0  0  0  0  0  0  0  0  0  0  0  0
  -19.7317  -24.1712   22.0912 N   0  0  0  0  0  0  0  0  0  0  0  0
  -32.3501  -31.2397   19.7394 N   0  3  0  0  0  0  0  0  0  0  0  0
  -21.1190  -14.6676   22.1710 O   0  0  0  0  0  0  0  0  0  0  0  0
  -27.5522  -24.4091   21.2103 O   0  0  0  0  0  0  0  0  0  0  0  0
  -22.3961  -31.0449   22.7711 O   0  0  0  0  0  0  0  0  0  0  0  0
  -31.3183  -25.3933   19.8178 O   0  0  0  0  0  0  0  0  0  0  0  0
  -30.8296  -29.7671   21.5931 O   0  0  0  0  0  0  0  0  0  0  0  0
  -20.2565  -22.5070   23.5778 O   0  0  0  0  0  0  0  0  0  0  0  0
  -28.7362  -15.3480   20.7211 O   0  0  0  0  0  0  0  0  0  0  0  0
  -24.0329  -29.4361   21.3788 O   0  0  0  0  0  0  0  0  0  1  0  0
  -29.5136  -10.4533   18.3041 F   0  0  0  0  0  0  0  0  0  0  0  0
  -30.3223  -15.1143   18.4690 F   0  0  0  0  0  0  0  0  0  0  0  0
  1  2  1  0  0  0  0
  1  5  2  0  0  0  0
  2  6  2  0  0  0  0
  3 10  2  0  0  0  0
  3 18  1  0  0  0  0
  4 11  1  0  0  0  0
  4 18  2  0  0  0  0
  5 20  1  0  0  0  0
  6 22  1  0  0  0  0
  7 12  2  0  0  0  0
  7 21  1  0  0  0  0
  8  9  2  0  0  0  0
  8 24  1  0  0  0  0
  9 25  1  0  0  0  0
 10 27  1  0  0  0  0
 11 27  2  0  0  0  0
 12 28  1  0  0  0  0
 13 14  2  0  0  0  0
 13 29  1  0  0  0  0
 14 30  1  0  0  0  0
 15 23  1  0  0  0  0
 15 28  2  0  0  0  0
 16 24  2  0  0  0  0
 16 26  1  0  0  0  0
 17 30  2  0  0  0  0
 17 31  1  0  0  0  0
 18 32  1  0  0  0  0
 19 32  1  0  0  0  0
 19 33  2  0  0  0  0
 19 34  1  0  0  0  0
 20 22  2  0  0  0  0
 20 40  1  0  0  0  0
 21 23  2  0  0  0  0
 21 41  1  0  0  0  0
 22 49  1  0  0  0  0
 23 42  1  0  0  0  0
 24 58  1  0  0  0  0
 25 26  2  0  0  0  0
 25 60  1  0  0  0  0
 26 59  1  0  0  0  0
 27 82  1  0  0  0  0
 28 83  1  0  0  0  0
 29 31  2  0  0  0  0
 29 82  1  0  0  0  0
 30 84  1  0  0  0  0
 31 85  1  0  0  0  0
 32 66  2  0  0  0  0
 33 67  1  0  0  0  0
 33 70  1  0  0  0  0
 34 71  1  0  0  0  0
 34 76  2  0  0  0  0
 35 50  1  0  0  0  0
 35 72  1  0  0  0  0
 35 77  2  0  0  0  0
 36 61  1  0  0  0  0
 36 62  1  0  0  0  0
 36 78  2  0  0  0  0
 37 63  1  0  0  0  0
 37 68  1  0  0  0  0
 37 79  2  0  0  0  0
 38 64  1  0  0  0  0
 38 73  1  0  0  0  0
 38 80  2  0  0  0  0
 39 69  1  0  0  0  0
 39 74  1  0  0  0  0
 39 81  2  0  0  0  0
 40 43  1  0  0  0  0
 41 50  1  0  0  0  0
 42 68  1  0  0  0  0
 43 45  1  0  0  0  0
 44 46  1  0  0  0  0
 44 47  1  0  0  0  0
 45 49  1  0  0  0  0
 46 51  1  0  0  0  0
 47 69  1  0  0  0  0
 48 51  1  0  0  0  0
 48 69  1  0  0  0  0
 49 72  1  0  0  0  0
 50 68  1  0  0  0  0
 51 67  1  0  0  0  0
 52 59  1  0  0  0  0
 53 64  1  0  0  0  0
 54 65  1  0  0  0  0
 55 65  1  0  0  0  0
 56 65  1  0  0  0  0
 57 75  1  0  0  0  0
 58 61  1  0  0  0  0
 60 74  1  0  0  0  0
 62 83  1  0  0  0  0
 63 65  1  0  0  0  0
 63 73  1  0  0  0  0
 64 75  1  0  0  0  0
 66 67  1  0  0  0  0
M  CHG  1  75   1
M  ISO  4  39 100  62 101  74 100  83 101
M  END
> <Batch ID>
0131

> <Smiles>
CCc1cc(CCC(=O)[101CH2:1][101O:1]c2ccc3c(c2)CN(C(=O)C(NC(=O)C(C)NC)C(C)(C)C)C(C(=O)NC2CCCc4ccccc42)C3)ccc1C[100NH:0][100C:0](=O)N1CCCC(n2nc(-c3ccc(Oc4ccc(F)cc4F)cc3)c(C(N)=O)c2N)C1

> <Shape>
0.223

> <Color>
0.064

> <Negative vol penalty>
0.000

$$$$

  -OEChem-04052302253D

 82 90  0     1  0  0  0  0  0999 V2000
  -17.7174  -32.4134   23.5391 C   0  0  0  0  0  0  0  0  0  0  0  0
  -18.9627  -32.7333   23.0077 C   0  0  0  0  0  0  0  0  0  0  0  0
  -24.9021  -11.6857   21.5710 C   0  0  0  0  0  0  0  0  0  0  0  0
  -22.9371  -12.4365   20.3825 C   0  0  0  0  0  0  0  0  0  0  0  0
  -31.5130  -22.7644   20.7539 C   0  0  0  0  0  0  0  0  0  0  0  0
  -17.5280  -31.1902   24.1807 C   0  0  0  0  0  0  0  0  0  0  0  0
  -20.0196  -31.8305   23.1186 C   0  0  0  0  0  0  0  0  0  0  0  0
  -25.8512  -29.6029   19.6049 C   0  0  0  0  0  0  0  0  0  0  0  0
  -31.8842  -24.0974   20.9297 C   0  0  0  0  0  0  0  0  0  0  0  0
  -24.1382  -10.7171   22.2220 C   0  0  0  0  0  0  0  0  0  0  0  0
  -22.1733  -11.4677   21.0334 C   0  0  0  0  0  0  0  0  0  0  0  0
  -27.2172  -29.4052   19.8015 C   0  0  0  0  0  0  0  0  0  0  0  0
  -22.7775   -7.8101   23.9288 C   0  0  0  0  0  0  0  0  0  0  0  0
  -23.3049   -6.5221   24.0205 C   0  0  0  0  0  0  0  0  0  0  0  0
  -26.7522  -27.2887   20.8614 C   0  0  0  0  0  0  0  0  0  0  0  0
  -29.9699  -24.8011   19.6346 C   0  0  0  0  0  0  0  0  0  0  0  0
  -23.3800   -6.3811   21.6098 C   0  0  0  0  0  0  0  0  0  0  0  0
  -24.3015  -12.5455   20.6513 C   0  0  0  0  0  0  0  0  0  0  0  0
  -30.3703  -22.4497   20.0184 C   0  0  0  0  0  0  0  0  0  0  0  0
  -25.7761  -13.4095   18.7574 C   0  0  0  0  0  0  0  0  0  0  0  0
  -18.5805  -30.2679   24.2911 C   0  0  0  0  0  0  0  0  0  0  0  0
  -24.9232  -28.6484   20.0455 C   0  0  0  0  0  0  0  0  0  0  0  0
  -19.8444  -30.5943   23.7636 C   0  0  0  0  0  0  0  0  0  0  0  0
  -25.3751  -27.4754   20.6668 C   0  0  0  0  0  0  0  0  0  0  0  0
  -31.1126  -25.1158   20.3700 C   0  0  0  0  0  0  0  0  0  0  0  0
  -29.5988  -23.4681   19.4588 C   0  0  0  0  0  0  0  0  0  0  0  0
  -22.7739  -10.6080   21.9532 C   0  0  0  0  0  0  0  0  0  0  0  0
  -27.6678  -28.2493   20.4324 C   0  0  0  0  0  0  0  0  0  0  0  0
  -22.5512   -8.3836   22.6775 C   0  0  0  0  0  0  0  0  0  0  0  0
  -23.6062   -5.8076   22.8611 C   0  0  0  0  0  0  0  0  0  0  0  0
  -22.8525   -7.6691   21.5180 C   0  0  0  0  0  0  0  0  0  0  0  0
  -25.0899  -13.5468   19.9789 C   0  0  0  0  0  0  0  0  0  0  0  0
  -26.3652  -14.6337   18.5551 C   0  0  0  0  0  0  0  0  0  0  0  0
  -30.0094  -21.0479   19.8526 C   0  0  0  0  0  0  0  0  0  0  0  0
  -29.7113  -20.1947   20.8536 C   0  0  0  0  0  0  0  0  0  0  0  0
  -25.8724  -12.2768   17.8837 C   0  0  0  0  0  0  0  0  0  0  0  0
  -29.3536  -18.8008   20.5222 C   0  0  0  0  0  0  0  0  0  0  0  0
  -22.5295  -28.6457   22.1369 C   0  0  0  0  0  0  0  0  0  0  0  0
  -22.0167  -25.6683   20.9561 C   0  0  0  0  0  0  0  0  0  0  0  0
  -23.2849  -22.9158   19.3868 C   0  0  0  0  0  0  0  0  0  0  0  0
  -18.3405  -28.9781   25.0351 C   0  0  0  0  0  0  0  0  0  0  0  0
  -23.4547  -28.8641   19.8019 C   0  0  0  0  0  0  0  0  0  0  0  0
  -24.4210  -26.4106   21.1403 C   0  0  0  0  0  0  0  0  0  0  0  0
  -19.4111  -27.9200   24.7810 C   0  0  0  0  0  0  0  0  0  0  0  0
  -25.7177  -19.0440   20.9132 C   0  0  0  0  0  0  0  0  0  0  0  0
  -20.8038  -28.5324   24.8921 C   0  0  0  0  0  0  0  0  0  0  0  0
  -25.2967  -17.6010   20.6482 C   0  0  0  0  0  0  0  0  0  0  0  0
  -27.0709  -19.1245   21.6181 C   0  0  0  0  0  0  0  0  0  0  0  0
  -27.7361  -16.9456   20.6431 C   0  0  0  0  0  0  0  0  0  0  0  0
  -21.0088  -29.6310   23.8421 C   0  0  1  0  0  0  0  0  0  0  0  0
  -22.5677  -28.0650   20.7517 C   0  0  1  0  0  0  0  0  0  0  0  0
  -26.3992  -16.8423   19.8925 C   0  0  1  0  0  0  0  0  0  0  0  0
  -28.3684  -23.1681   18.6643 C   0  0  0  0  0  0  0  0  0  0  0  0
  -22.6339  -20.6259   18.5933 C   0  0  0  0  0  0  0  0  0  0  0  0
  -22.1126  -24.6478   23.8300 C   0  0  0  0  0  0  0  0  0  0  0  0
  -22.4132  -22.3331   22.9243 C   0  0  0  0  0  0  0  0  0  0  0  0
  -20.3321  -23.6100   22.4133 C   0  0  0  0  0  0  0  0  0  0  0  0
  -23.9024  -23.5891   16.5718 C   0  0  0  0  0  0  0  0  0  0  0  0
  -31.5125  -26.5570   20.5612 C   0  0  0  0  0  0  0  0  0  0  0  0
  -30.9071  -27.2039   21.8088 C   0  0  0  0  0  0  0  0  0  0  0  0
  -29.3857  -27.2886   21.7672 C   0  0  0  0  0  0  0  0  0  1  0  0
  -22.5023  -24.2819   21.3041 C   0  0  1  0  0  0  0  0  0  0  0  0
  -22.7678  -22.0940   18.2199 C   0  0  2  0  0  0  0  0  0  0  0  0
  -21.8582  -23.7389   22.6109 C   0  0  0  0  0  0  0  0  0  0  0  0
  -25.2294  -14.7622   20.5150 N   0  0  0  0  0  0  0  0  0  0  0  0
  -26.0101  -15.3998   19.6262 N   0  0  0  0  0  0  0  0  0  0  0  0
  -28.0949  -18.3433   20.9081 N   0  0  0  0  0  0  0  0  0  0  0  0
  -22.9946  -26.6706   20.8849 N   0  0  0  0  0  0  0  0  0  0  0  0
  -27.1471  -15.1187   17.5673 N   0  0  0  0  0  0  0  0  0  0  0  0
  -25.2055  -11.0975   18.2428 N   0  0  0  0  0  0  0  0  0  0  0  0
  -21.2715  -29.0469   22.5443 N   0  0  0  0  0  0  0  0  0  0  0  0
  -22.2547  -23.4554   20.1277 N   0  0  0  0  0  0  0  0  0  0  0  0
  -23.6965  -22.2009   17.0592 N   0  3  0  0  0  0  0  0  0  0  0  0
  -26.5437  -12.3043   16.8244 O   0  0  0  0  0  0  0  0  0  0  0  0
  -30.1943  -18.1242   19.9272 O   0  0  0  0  0  0  0  0  0  0  0  0
  -23.5645  -28.7226   22.7886 O   0  0  0  0  0  0  0  0  0  0  0  0
  -20.8151  -25.8536   20.7479 O   0  0  0  0  0  0  0  0  0  0  0  0
  -24.4827  -23.0613   19.6201 O   0  0  0  0  0  0  0  0  0  0  0  0
  -22.0283   -9.6627   22.5880 O   0  0  0  0  0  0  0  0  0  0  0  0
  -29.0005  -28.0542   20.6262 O   0  0  0  0  0  0  0  0  0  1  0  0
  -24.1141   -4.5713   22.9494 F   0  0  0  0  0  0  0  0  0  0  0  0
  -22.6384   -8.2152   20.3132 F   0  0  0  0  0  0  0  0  0  0  0  0
  1  2  1  0  0  0  0
  1  6  2  0  0  0  0
  2  7  2  0  0  0  0
  3 10  2  0  0  0  0
  3 18  1  0  0  0  0
  4 11  1  0  0  0  0
  4 18  2  0  0  0  0
  5  9  2  0  0  0  0
  5 19  1  0  0  0  0
  6 21  1  0  0  0  0
  7 23  1  0  0  0  0
  8 12  2  0  0  0  0
  8 22  1  0  0  0  0
  9 25  1  0  0  0  0
 10 27  1  0  0  0  0
 11 27  2  0  0  0  0
 12 28  1  0  0  0  0
 13 14  2  0  0  0  0
 13 29  1  0  0  0  0
 14 30  1  0  0  0  0
 15 24  1  0  0  0  0
 15 28  2  0  0  0  0
 16 25  2  0  0  0  0
 16 26  1  0  0  0  0
 17 30  2  0  0  0  0
 17 31  1  0  0  0  0
 18 32  1  0  0  0  0
 19 26  2  0  0  0  0
 19 34  1  0  0  0  0
 20 32  1  0  0  0  0
 20 33  2  0  0  0  0
 20 36  1  0  0  0  0
 21 23  2  0  0  0  0
 21 41  1  0  0  0  0
 22 24  2  0  0  0  0
 22 42  1  0  0  0  0
 23 50  1  0  0  0  0
 24 43  1  0  0  0  0
 25 59  1  0  0  0  0
 26 53  1  0  0  0  0
 27 79  1  0  0  0  0
 28 80  1  0  0  0  0
 29 31  2  0  0  0  0
 29 79  1  0  0  0  0
 30 81  1  0  0  0  0
 31 82  1  0  0  0  0
 32 65  2  0  0  0  0
 33 66  1  0  0  0  0
 33 69  1  0  0  0  0
 34 35  2  0  0  0  0
 35 37  1  0  0  0  0
 36 70  1  0  0  0  0
 36 74  2  0  0  0  0
 37 67  1  0  0  0  0
 37 75  2  0  0  0  0
 38 51  1  0  0  0  0
 38 71  1  0  0  0  0
 38 76  2  0  0  0  0
 39 62  1  0  0  0  0
 39 68  1  0  0  0  0
 39 77  2  0  0  0  0
 40 63  1  0  0  0  0
 40 72  1  0  0  0  0
 40 78  2  0  0  0  0
 41 44  1  0  0  0  0
 42 51  1  0  0  0  0
 43 68  1  0  0  0  0
 44 46  1  0  0  0  0
 45 47  1  0  0  0  0
 45 48  1  0  0  0  0
 46 50  1  0  0  0  0
 47 52  1  0  0  0  0
 48 67  1  0  0  0  0
 49 52  1  0  0  0  0
 49 67  1  0  0  0  0
 50 71  1  0  0  0  0
 51 68  1  0  0  0  0
 52 66  1  0  0  0  0
 54 63  1  0  0  0  0
 55 64  1  0  0  0  0
 56 64  1  0  0  0  0
 57 64  1  0  0  0  0
 58 73  1  0  0  0  0
 59 60  1  0  0  0  0
 60 61  1  0  0  0  0
 61 80  1  0  0  0  0
 62 64  1  0  0  0  0
 62 72  1  0  0  0  0
 63 73  1  0  0  0  0
 65 66  1  0  0  0  0
M  CHG  1  73   1
M  ISO  4  35 100  37 100  61 101  80 101
M  END
> <Batch ID>
0131

> <Smiles>
CNC(C)C(=O)NC(C(=O)N1Cc2cc([101O:1][101CH2:1]CCc3ccc(C=[100CH:0][100C:0](=O)N4CCCC(n5nc(-c6ccc(Oc7ccc(F)cc7F)cc6)c(C(N)=O)c5N)C4)c(C)c3)ccc2CC1C(=O)NC1CCCc2ccccc21)C(C)(C)C

> <Shape>
0.244

> <Color>
0.087

> <Negative vol penalty>
0.000

$$$$

  -OEChem-04052302253D

 83 91  0     1  0  0  0  0  0999 V2000
  -23.8773  -18.8148   24.9609 C   0  0  0  0  0  0  0  0  0  0  0  0
  -24.3121  -19.8931   24.1970 C   0  0  0  0  0  0  0  0  0  0  0  0
  -24.7736  -13.3762   21.4863 C   0  0  0  0  0  0  0  0  0  0  0  0
  -26.1935  -13.0300   19.5624 C   0  0  0  0  0  0  0  0  0  0  0  0
  -22.5187  -18.5070   25.0206 C   0  0  0  0  0  0  0  0  0  0  0  0
  -23.3887  -20.6636   23.4913 C   0  0  0  0  0  0  0  0  0  0  0  0
  -24.2320  -25.6335   23.9758 C   0  0  0  0  0  0  0  0  0  0  0  0
  -24.0085  -12.2686   21.1209 C   0  0  0  0  0  0  0  0  0  0  0  0
  -25.4284  -11.9224   19.1971 C   0  0  0  0  0  0  0  0  0  0  0  0
  -25.2618  -26.1819   23.2127 C   0  0  0  0  0  0  0  0  0  0  0  0
  -21.8985   -9.3171   20.8937 C   0  0  0  0  0  0  0  0  0  0  0  0
  -21.5477   -8.4123   21.8956 C   0  0  0  0  0  0  0  0  0  0  0  0
  -23.6422  -26.9877   21.6169 C   0  0  0  0  0  0  0  0  0  0  0  0
  -30.2408  -25.1941   17.3960 C   0  0  0  0  0  0  0  0  0  0  0  0
  -23.8860   -7.9962   22.3386 C   0  0  0  0  0  0  0  0  0  0  0  0
  -25.8661  -13.7569   20.7070 C   0  0  0  0  0  0  0  0  0  0  0  0
  -27.7902  -14.9141   21.9178 C   0  0  0  0  0  0  0  0  0  0  0  0
  -21.5772  -19.2801   24.3231 C   0  0  0  0  0  0  0  0  0  0  0  0
  -22.8981  -25.7488   23.5589 C   0  0  0  0  0  0  0  0  0  0  0  0
  -22.0164  -20.3651   23.5407 C   0  0  0  0  0  0  0  0  0  0  0  0
  -22.5970  -26.4421   22.3779 C   0  0  0  0  0  0  0  0  0  0  0  0
  -30.3167  -26.5689   17.7234 C   0  0  0  0  0  0  0  0  0  0  0  0
  -24.3359  -11.5416   19.9764 C   0  0  0  0  0  0  0  0  0  0  0  0
  -24.9673  -26.8566   22.0316 C   0  0  0  0  0  0  0  0  0  0  0  0
  -23.2431   -9.5614   20.6142 C   0  0  0  0  0  0  0  0  0  0  0  0
  -22.5414   -7.7519   22.6181 C   0  0  0  0  0  0  0  0  0  0  0  0
  -24.2368   -8.9010   21.3367 C   0  0  0  0  0  0  0  0  0  0  0  0
  -26.6564  -14.9014   21.0835 C   0  0  0  0  0  0  0  0  0  0  0  0
  -30.4383  -24.5098   18.5727 C   0  0  0  0  0  0  0  0  0  0  0  0
  -30.5550  -26.6268   19.0768 C   0  0  0  0  0  0  0  0  0  0  0  0
  -28.1706  -16.2332   21.9601 C   0  0  0  0  0  0  0  0  0  0  0  0
  -28.4415  -13.8304   22.5940 C   0  0  0  0  0  0  0  0  0  0  0  0
  -20.6162  -23.6908   22.7456 C   0  0  0  0  0  0  0  0  0  0  0  0
  -28.3034  -27.8544   20.8211 C   0  0  0  0  0  0  0  0  0  0  0  0
  -29.2393  -20.9362   19.3111 C   0  0  0  0  0  0  0  0  0  0  0  0
  -18.7823  -26.3645   22.6429 C   0  0  0  0  0  0  0  0  0  0  0  0
  -18.6197  -29.7540   22.2808 C   0  0  0  0  0  0  0  0  0  0  0  0
  -20.1241  -18.8800   24.3802 C   0  0  0  0  0  0  0  0  0  0  0  0
  -21.7965  -25.1748   24.4071 C   0  0  0  0  0  0  0  0  0  0  0  0
  -21.1798  -26.6112   21.8969 C   0  0  0  0  0  0  0  0  0  0  0  0
  -19.1721  -19.9738   23.9032 C   0  0  0  0  0  0  0  0  0  0  0  0
  -25.8036  -20.4050   20.3792 C   0  0  0  0  0  0  0  0  0  0  0  0
  -19.6699  -20.5821   22.5959 C   0  0  0  0  0  0  0  0  0  0  0  0
  -25.8103  -18.9106   20.6983 C   0  0  0  0  0  0  0  0  0  0  0  0
  -26.7084  -20.7298   19.1935 C   0  0  0  0  0  0  0  0  0  0  0  0
  -28.1238  -18.7588   19.6795 C   0  0  0  0  0  0  0  0  0  0  0  0
  -21.0427  -21.2398   22.7810 C   0  0  1  0  0  0  0  0  0  0  0  0
  -20.5160  -24.9069   23.6224 C   0  0  1  0  0  0  0  0  0  0  0  0
  -27.2470  -18.3935   20.8889 C   0  0  2  0  0  0  0  0  0  0  0  0
  -30.1706  -27.7058   16.7965 C   0  0  0  0  0  0  0  0  0  0  0  0
  -16.9780  -31.6505   22.2048 C   0  0  0  0  0  0  0  0  0  0  0  0
  -17.9849  -25.5576   19.8104 C   0  0  0  0  0  0  0  0  0  0  0  0
  -17.1496  -27.8909   19.4556 C   0  0  0  0  0  0  0  0  0  0  0  0
  -16.1121  -26.4495   21.2073 C   0  0  0  0  0  0  0  0  0  0  0  0
  -19.8337  -31.0527   24.6469 C   0  0  0  0  0  0  0  0  0  0  0  0
  -30.4788  -23.0801   18.9102 C   0  0  0  0  0  0  0  0  0  0  0  0
  -30.7412  -27.7669   20.0492 C   0  0  0  0  0  0  0  0  0  0  0  0
  -29.7649  -27.7284   21.2264 C   0  0  0  0  0  0  0  0  0  0  0  0
  -27.3021  -27.2257   21.7702 C   0  0  0  0  0  0  0  0  0  1  0  0
  -29.0958  -22.3992   18.9748 C   0  0  0  0  0  0  0  0  0  0  0  0
  -18.4323  -27.3808   21.5829 C   0  0  1  0  0  0  0  0  0  0  0  0
  -17.8979  -30.8196   23.0858 C   0  0  2  0  0  0  0  0  0  0  0  0
  -17.4467  -26.8150   20.5219 C   0  0  0  0  0  0  0  0  0  0  0  0
  -26.3372  -16.1160   20.6287 N   0  0  0  0  0  0  0  0  0  0  0  0
  -27.2761  -16.9043   21.1793 N   0  0  0  0  0  0  0  0  0  0  0  0
  -20.1382  -26.0267   22.7577 N   0  0  0  0  0  0  0  0  0  0  0  0
  -28.0600  -20.1965   19.4018 N   0  0  0  0  0  0  0  0  0  0  0  0
  -29.1795  -16.8730   22.5888 N   0  0  0  0  0  0  0  0  0  0  0  0
  -27.9199  -12.5384   22.4425 N   0  0  0  0  0  0  0  0  0  0  0  0
  -20.9037  -22.5256   23.4304 N   0  0  0  0  0  0  0  0  0  0  0  0
  -17.9373  -28.5559   22.2917 N   0  0  0  0  0  0  0  0  0  0  0  0
  -18.8805  -31.7339   23.7334 N   0  3  0  0  0  0  0  0  0  0  0  0
  -29.4461  -14.0052   23.3246 O   0  0  0  0  0  0  0  0  0  0  0  0
  -20.4439  -23.8012   21.5373 O   0  0  0  0  0  0  0  0  0  0  0  0
  -27.9454  -28.4561   19.8099 O   0  0  0  0  0  0  0  0  0  0  0  0
  -30.3664  -20.4675   19.4902 O   0  0  0  0  0  0  0  0  0  0  0  0
  -17.8865  -25.8932   23.3480 O   0  0  0  0  0  0  0  0  0  0  0  0
  -19.6806  -29.9646   21.6973 O   0  0  0  0  0  0  0  0  0  0  0  0
  -30.6305  -25.3758   19.6021 O   0  0  0  0  0  0  0  0  0  0  0  0
  -23.5898  -10.4606   19.6197 O   0  0  0  0  0  0  0  0  0  0  0  0
  -25.9707  -27.3923   21.2845 O   0  0  0  0  0  0  0  0  0  1  0  0
  -22.2044   -6.8841   23.5812 F   0  0  0  0  0  0  0  0  0  0  0  0
  -25.5303   -9.1326   21.0735 F   0  0  0  0  0  0  0  0  0  0  0  0
  1  2  1  0  0  0  0
  1  5  2  0  0  0  0
  2  6  2  0  0  0  0
  3  8  2  0  0  0  0
  3 16  1  0  0  0  0
  4  9  1  0  0  0  0
  4 16  2  0  0  0  0
  5 18  1  0  0  0  0
  6 20  1  0  0  0  0
  7 10  2  0  0  0  0
  7 19  1  0  0  0  0
  8 23  1  0  0  0  0
  9 23  2  0  0  0  0
 10 24  1  0  0  0  0
 11 12  2  0  0  0  0
 11 25  1  0  0  0  0
 12 26  1  0  0  0  0
 13 21  1  0  0  0  0
 13 24  2  0  0  0  0
 14 22  1  0  0  0  0
 14 29  2  0  0  0  0
 15 26  2  0  0  0  0
 15 27  1  0  0  0  0
 16 28  1  0  0  0  0
 17 28  1  0  0  0  0
 17 31  2  0  0  0  0
 17 32  1  0  0  0  0
 18 20  2  0  0  0  0
 18 38  1  0  0  0  0
 19 21  2  0  0  0  0
 19 39  1  0  0  0  0
 20 47  1  0  0  0  0
 21 40  1  0  0  0  0
 22 30  2  0  0  0  0
 22 50  1  0  0  0  0
 23 80  1  0  0  0  0
 24 81  1  0  0  0  0
 25 27  2  0  0  0  0
 25 80  1  0  0  0  0
 26 82  1  0  0  0  0
 27 83  1  0  0  0  0
 28 64  2  0  0  0  0
 29 56  1  0  0  0  0
 29 79  1  0  0  0  0
 30 57  1  0  0  0  0
 30 79  1  0  0  0  0
 31 65  1  0  0  0  0
 31 68  1  0  0  0  0
 32 69  1  0  0  0  0
 32 73  2  0  0  0  0
 33 48  1  0  0  0  0
 33 70  1  0  0  0  0
 33 74  2  0  0  0  0
 34 58  1  0  0  0  0
 34 59  1  0  0  0  0
 34 75  2  0  0  0  0
 35 60  1  0  0  0  0
 35 67  1  0  0  0  0
 35 76  2  0  0  0  0
 36 61  1  0  0  0  0
 36 66  1  0  0  0  0
 36 77  2  0  0  0  0
 37 62  1  0  0  0  0
 37 71  1  0  0  0  0
 37 78  2  0  0  0  0
 38 41  1  0  0  0  0
 39 48  1  0  0  0  0
 40 66  1  0  0  0  0
 41 43  1  0  0  0  0
 42 44  1  0  0  0  0
 42 45  1  0  0  0  0
 43 47  1  0  0  0  0
 44 49  1  0  0  0  0
 45 67  1  0  0  0  0
 46 49  1  0  0  0  0
 46 67  1  0  0  0  0
 47 70  1  0  0  0  0
 48 66  1  0  0  0  0
 49 65  1  0  0  0  0
 51 62  1  0  0  0  0
 52 63  1  0  0  0  0
 53 63  1  0  0  0  0
 54 63  1  0  0  0  0
 55 72  1  0  0  0  0
 56 60  1  0  0  0  0
 57 58  1  0  0  0  0
 59 81  1  0  0  0  0
 61 63  1  0  0  0  0
 61 71  1  0  0  0  0
 62 72  1  0  0  0  0
 64 65  1  0  0  0  0
M  CHG  1  72   1
M  ISO  4  35 100  59 101  60 100  81 101
M  END
> <Batch ID>
0131

> <Smiles>
CNC(C)C(=O)NC(C(=O)N1Cc2cc([101O:1][101CH2:1]C(=O)CCc3oc(C[100CH2:0][100C:0](=O)N4CCCC(n5nc(-c6ccc(Oc7ccc(F)cc7F)cc6)c(C(N)=O)c5N)C4)cc3C)ccc2CC1C(=O)NC1CCCc2ccccc21)C(C)(C)C

> <Shape>
0.247

> <Color>
0.056

> <Negative vol penalty>
0.000

$$$$

  -OEChem-04052302253D

 85 93  0     1  0  0  0  0  0999 V2000
  -27.2911  -33.5580   27.7354 C   0  0  0  0  0  0  0  0  0  0  0  0
  -27.8728  -33.0459   26.5801 C   0  0  0  0  0  0  0  0  0  0  0  0
  -26.4830  -12.1924   21.4825 C   0  0  0  0  0  0  0  0  0  0  0  0
  -25.7772  -13.8082   19.8309 C   0  0  0  0  0  0  0  0  0  0  0  0
  -26.1388  -32.9691   28.2544 C   0  0  0  0  0  0  0  0  0  0  0  0
  -27.3029  -31.9438   25.9435 C   0  0  0  0  0  0  0  0  0  0  0  0
  -27.1316  -30.8537   19.9196 C   0  0  0  0  0  0  0  0  0  0  0  0
  -31.0311  -23.1453   20.4845 C   0  0  0  0  0  0  0  0  0  0  0  0
  -30.6585  -22.1051   21.3358 C   0  0  0  0  0  0  0  0  0  0  0  0
  -25.2359  -11.5720   21.4086 C   0  0  0  0  0  0  0  0  0  0  0  0
  -24.5301  -13.1879   19.7569 C   0  0  0  0  0  0  0  0  0  0  0  0
  -27.9182  -30.0583   19.0875 C   0  0  0  0  0  0  0  0  0  0  0  0
  -22.1180  -12.0984   22.6027 C   0  0  0  0  0  0  0  0  0  0  0  0
  -21.4974  -11.7475   23.8016 C   0  0  0  0  0  0  0  0  0  0  0  0
  -26.3015  -28.2774   19.2717 C   0  0  0  0  0  0  0  0  0  0  0  0
  -29.2785  -22.5140   18.9460 C   0  0  0  0  0  0  0  0  0  0  0  0
  -21.4923   -9.4295   23.1206 C   0  0  0  0  0  0  0  0  0  0  0  0
  -26.7537  -13.3105   20.6937 C   0  0  0  0  0  0  0  0  0  0  0  0
  -29.1828  -13.6622   19.9984 C   0  0  0  0  0  0  0  0  0  0  0  0
  -25.5491  -31.8653   27.6185 C   0  0  0  0  0  0  0  0  0  0  0  0
  -25.9273  -30.3622   20.4436 C   0  0  0  0  0  0  0  0  0  0  0  0
  -26.1424  -31.3388   26.4552 C   0  0  0  0  0  0  0  0  0  0  0  0
  -25.5002  -29.0695   20.1080 C   0  0  0  0  0  0  0  0  0  0  0  0
  -30.3411  -23.3498   19.2896 C   0  0  0  0  0  0  0  0  0  0  0  0
  -28.9060  -21.4738   19.7973 C   0  0  0  0  0  0  0  0  0  0  0  0
  -29.5960  -21.2693   20.9922 C   0  0  0  0  0  0  0  0  0  0  0  0
  -24.2595  -12.0698   20.5458 C   0  0  0  0  0  0  0  0  0  0  0  0
  -27.5047  -28.7689   18.7658 C   0  0  0  0  0  0  0  0  0  0  0  0
  -22.4257  -11.1148   21.6627 C   0  0  0  0  0  0  0  0  0  0  0  0
  -21.1846  -10.4131   24.0606 C   0  0  0  0  0  0  0  0  0  0  0  0
  -22.1129   -9.7803   21.9217 C   0  0  0  0  0  0  0  0  0  0  0  0
  -28.0416  -13.9521   20.7701 C   0  0  0  0  0  0  0  0  0  0  0  0
  -30.1356  -14.5420   20.4508 C   0  0  0  0  0  0  0  0  0  0  0  0
  -29.3652  -12.6851   18.9652 C   0  0  0  0  0  0  0  0  0  0  0  0
  -24.8181  -29.7987   23.3686 C   0  0  0  0  0  0  0  0  0  0  0  0
  -22.0615  -29.1671   21.7796 C   0  0  0  0  0  0  0  0  0  0  0  0
  -20.5436  -28.2379   18.8677 C   0  0  0  0  0  0  0  0  0  0  0  0
  -29.8256  -19.8938   23.0902 C   0  0  0  0  0  0  0  0  0  0  0  0
  -24.3306  -31.2331   28.2432 C   0  0  0  0  0  0  0  0  0  0  0  0
  -25.0771  -31.2424   21.3181 C   0  0  0  0  0  0  0  0  0  0  0  0
  -24.2056  -28.5021   20.6281 C   0  0  0  0  0  0  0  0  0  0  0  0
  -23.5762  -30.3007   27.2989 C   0  0  0  0  0  0  0  0  0  0  0  0
  -31.4242  -16.9795   24.3664 C   0  0  0  0  0  0  0  0  0  0  0  0
  -24.5469  -29.3680   26.5815 C   0  0  0  0  0  0  0  0  0  0  0  0
  -30.8466  -15.8468   23.5147 C   0  0  0  0  0  0  0  0  0  0  0  0
  -30.3798  -18.0535   24.6654 C   0  0  0  0  0  0  0  0  0  0  0  0
  -29.1152  -17.4641   22.6350 C   0  0  0  0  0  0  0  0  0  0  0  0
  -25.5398  -30.1599   25.7222 C   0  0  1  0  0  0  0  0  0  0  0  0
  -24.1221  -30.4549   22.2099 C   0  0  1  0  0  0  0  0  0  0  0  0
  -30.1474  -16.3904   22.2533 C   0  0  2  0  0  0  0  0  0  0  0  0
  -27.5616  -17.0236   17.8706 C   0  0  0  0  0  0  0  0  0  0  0  0
  -18.2812  -27.7710   17.8873 C   0  0  0  0  0  0  0  0  0  0  0  0
  -21.9980  -26.4750   23.2143 C   0  0  0  0  0  0  0  0  0  0  0  0
  -20.3124  -25.6980   21.5340 C   0  0  0  0  0  0  0  0  0  0  0  0
  -19.7794  -27.6156   23.0378 C   0  0  0  0  0  0  0  0  0  0  0  0
  -20.8307  -30.4080   16.8759 C   0  0  0  0  0  0  0  0  0  0  0  0
  -30.7455  -24.4729   18.3682 C   0  0  0  0  0  0  0  0  0  0  0  0
  -27.7657  -20.5921   19.4024 C   0  0  0  0  0  0  0  0  0  0  0  0
  -27.0778  -18.3509   18.4326 C   0  0  0  0  0  0  0  0  0  0  0  0
  -30.0218  -25.7946   18.6482 C   0  0  0  0  0  0  0  0  0  0  0  0
  -28.2466  -19.2332   18.8711 C   0  0  0  0  0  0  0  0  0  0  0  0
  -30.3877  -26.8994   17.6561 C   0  0  0  0  0  0  0  0  0  0  0  0
  -29.6810  -28.2064   17.9892 C   0  0  0  0  0  0  0  0  0  1  0  0
  -21.4420  -27.9375   21.1605 C   0  0  1  0  0  0  0  0  0  0  0  0
  -19.3577  -28.8198   18.1197 C   0  0  2  0  0  0  0  0  0  0  0  0
  -20.9084  -26.9412   22.2282 C   0  0  0  0  0  0  0  0  0  0  0  0
  -28.2485  -14.9388   21.6462 N   0  0  0  0  0  0  0  0  0  0  0  0
  -29.5309  -15.2765   21.4280 N   0  0  0  0  0  0  0  0  0  0  0  0
  -23.4124  -29.3992   21.4846 N   0  0  0  0  0  0  0  0  0  0  0  0
  -29.7627  -18.5242   23.4234 N   0  0  0  0  0  0  0  0  0  0  0  0
  -31.4234  -14.7511   20.1040 N   0  0  0  0  0  0  0  0  0  0  0  0
  -28.2826  -11.8628   18.6245 N   0  0  0  0  0  0  0  0  0  0  0  0
  -29.2329  -20.2182   21.8704 N   0  0  0  0  0  0  0  0  0  0  0  0
  -24.9101  -30.5952   24.4940 N   0  0  0  0  0  0  0  0  0  0  0  0
  -20.4259  -28.4169   20.2299 N   0  0  0  0  0  0  0  0  0  0  0  0
  -19.7902  -29.3507   16.7960 N   0  3  0  0  0  0  0  0  0  0  0  0
  -30.4609  -12.5342   18.3732 O   0  0  0  0  0  0  0  0  0  0  0  0
  -25.2390  -28.6538   23.2508 O   0  0  0  0  0  0  0  0  0  0  0  0
  -21.3703  -29.8987   22.4928 O   0  0  0  0  0  0  0  0  0  0  0  0
  -21.4788  -27.6771   18.3008 O   0  0  0  0  0  0  0  0  0  0  0  0
  -30.3894  -20.7139   23.8194 O   0  0  0  0  0  0  0  0  0  0  0  0
  -23.0425  -11.4646   20.4732 O   0  0  0  0  0  0  0  0  0  0  0  0
  -28.2709  -27.9902   17.9544 O   0  0  0  0  0  0  0  0  0  1  0  0
  -20.5901  -10.0761   25.2126 F   0  0  0  0  0  0  0  0  0  0  0  0
  -22.4071   -8.8308   21.0230 F   0  0  0  0  0  0  0  0  0  0  0  0
  1  2  1  0  0  0  0
  1  5  2  0  0  0  0
  2  6  2  0  0  0  0
  3 10  2  0  0  0  0
  3 18  1  0  0  0  0
  4 11  1  0  0  0  0
  4 18  2  0  0  0  0
  5 20  1  0  0  0  0
  6 22  1  0  0  0  0
  7 12  2  0  0  0  0
  7 21  1  0  0  0  0
  8  9  2  0  0  0  0
  8 24  1  0  0  0  0
  9 26  1  0  0  0  0
 10 27  1  0  0  0  0
 11 27  2  0  0  0  0
 12 28  1  0  0  0  0
 13 14  2  0  0  0  0
 13 29  1  0  0  0  0
 14 30  1  0  0  0  0
 15 23  1  0  0  0  0
 15 28  2  0  0  0  0
 16 24  2  0  0  0  0
 16 25  1  0  0  0  0
 17 30  2  0  0  0  0
 17 31  1  0  0  0  0
 18 32  1  0  0  0  0
 19 32  1  0  0  0  0
 19 33  2  0  0  0  0
 19 34  1  0  0  0  0
 20 22  2  0  0  0  0
 20 39  1  0  0  0  0
 21 23  2  0  0  0  0
 21 40  1  0  0  0  0
 22 48  1  0  0  0  0
 23 41  1  0  0  0  0
 24 57  1  0  0  0  0
 25 26  2  0  0  0  0
 25 58  1  0  0  0  0
 26 73  1  0  0  0  0
 27 82  1  0  0  0  0
 28 83  1  0  0  0  0
 29 31  2  0  0  0  0
 29 82  1  0  0  0  0
 30 84  1  0  0  0  0
 31 85  1  0  0  0  0
 32 67  2  0  0  0  0
 33 68  1  0  0  0  0
 33 71  1  0  0  0  0
 34 72  1  0  0  0  0
 34 77  2  0  0  0  0
 35 49  1  0  0  0  0
 35 74  1  0  0  0  0
 35 78  2  0  0  0  0
 36 64  1  0  0  0  0
 36 69  1  0  0  0  0
 36 79  2  0  0  0  0
 37 65  1  0  0  0  0
 37 75  1  0  0  0  0
 37 80  2  0  0  0  0
 38 70  1  0  0  0  0
 38 73  1  0  0  0  0
 38 81  2  0  0  0  0
 39 42  1  0  0  0  0
 40 49  1  0  0  0  0
 41 69  1  0  0  0  0
 42 44  1  0  0  0  0
 43 45  1  0  0  0  0
 43 46  1  0  0  0  0
 44 48  1  0  0  0  0
 45 50  1  0  0  0  0
 46 70  1  0  0  0  0
 47 50  1  0  0  0  0
 47 70  1  0  0  0  0
 48 74  1  0  0  0  0
 49 69  1  0  0  0  0
 50 68  1  0  0  0  0
 51 59  1  0  0  0  0
 52 65  1  0  0  0  0
 53 66  1  0  0  0  0
 54 66  1  0  0  0  0
 55 66  1  0  0  0  0
 56 76  1  0  0  0  0
 57 60  1  0  0  0  0
 58 61  1  0  0  0  0
 59 61  1  0  0  0  0
 60 62  1  0  0  0  0
 62 63  1  0  0  0  0
 63 83  1  0  0  0  0
 64 66  1  0  0  0  0
 64 75  1  0  0  0  0
 65 76  1  0  0  0  0
 67 68  1  0  0  0  0
M  CHG  1  76   1
M  ISO  4  38 100  63 101  73 100  83 101
M  END
> <Batch ID>
0131

> <Smiles>
CCCCc1cc(CCC[101CH2:1][101O:1]c2ccc3c(c2)CN(C(=O)C(NC(=O)C(C)NC)C(C)(C)C)C(C(=O)NC2CCCc4ccccc42)C3)ccc1[100NH:0][100C:0](=O)N1CCCC(n2nc(-c3ccc(Oc4ccc(F)cc4F)cc3)c(C(N)=O)c2N)C1

> <Shape>
0.328

> <Color>
0.055

> <Negative vol penalty>
0.000

$$$$

  -OEChem-04052302253D

 81 89  0     1  0  0  0  0  0999 V2000
  -27.7953  -32.2367   28.0058 C   0  0  0  0  0  0  0  0  0  0  0  0
  -28.0934  -31.3170   27.0055 C   0  0  0  0  0  0  0  0  0  0  0  0
  -24.6694   -8.5788   22.4206 C   0  0  0  0  0  0  0  0  0  0  0  0
  -26.0361   -7.2969   20.8956 C   0  0  0  0  0  0  0  0  0  0  0  0
  -26.4667  -32.5497   28.2899 C   0  0  0  0  0  0  0  0  0  0  0  0
  -27.0629  -30.7088   26.2894 C   0  0  0  0  0  0  0  0  0  0  0  0
  -27.1398  -29.0914   20.3832 C   0  0  0  0  0  0  0  0  0  0  0  0
  -23.6286   -7.6649   22.2562 C   0  0  0  0  0  0  0  0  0  0  0  0
  -24.9953   -6.3829   20.7311 C   0  0  0  0  0  0  0  0  0  0  0  0
  -27.3714  -27.8724   19.7474 C   0  0  0  0  0  0  0  0  0  0  0  0
  -20.7399   -5.4735   22.5173 C   0  0  0  0  0  0  0  0  0  0  0  0
  -20.0675   -5.0436   23.6613 C   0  0  0  0  0  0  0  0  0  0  0  0
  -24.9928  -27.4865   19.6343 C   0  0  0  0  0  0  0  0  0  0  0  0
  -28.1372  -20.4584   20.0269 C   0  0  0  0  0  0  0  0  0  0  0  0
  -22.1354   -4.1600   24.5446 C   0  0  0  0  0  0  0  0  0  0  0  0
  -28.7752  -20.6645   17.8993 C   0  0  0  0  0  0  0  0  0  0  0  0
  -25.8732   -8.3948   21.7403 C   0  0  0  0  0  0  0  0  0  0  0  0
  -27.9770   -9.2929   22.8694 C   0  0  0  0  0  0  0  0  0  0  0  0
  -25.4197  -31.9523   27.5705 C   0  0  0  0  0  0  0  0  0  0  0  0
  -25.8312  -29.5128   20.6595 C   0  0  0  0  0  0  0  0  0  0  0  0
  -25.7190  -31.0131   26.5651 C   0  0  0  0  0  0  0  0  0  0  0  0
  -24.7472  -28.7124   20.2714 C   0  0  0  0  0  0  0  0  0  0  0  0
  -28.5797  -21.3860   19.0539 C   0  0  0  0  0  0  0  0  0  0  0  0
  -23.7916   -6.5669   21.4114 C   0  0  0  0  0  0  0  0  0  0  0  0
  -26.2979  -27.0684   19.3755 C   0  0  0  0  0  0  0  0  0  0  0  0
  -22.1100   -5.2466   22.3869 C   0  0  0  0  0  0  0  0  0  0  0  0
  -20.7653   -4.3869   24.6749 C   0  0  0  0  0  0  0  0  0  0  0  0
  -22.8078   -4.5899   23.4006 C   0  0  0  0  0  0  0  0  0  0  0  0
  -26.9485   -9.3389   21.9093 C   0  0  0  0  0  0  0  0  0  0  0  0
  -28.0936  -19.2361   19.3975 C   0  0  0  0  0  0  0  0  0  0  0  0
  -28.7370  -10.4077   22.6121 C   0  0  0  0  0  0  0  0  0  0  0  0
  -27.7107  -17.9960   19.9587 C   0  0  0  0  0  0  0  0  0  0  0  0
  -27.6911  -16.7765   19.3260 C   0  0  0  0  0  0  0  0  0  0  0  0
  -28.2235   -8.3287   23.9015 C   0  0  0  0  0  0  0  0  0  0  0  0
  -27.2728  -15.5626   20.0555 C   0  0  0  0  0  0  0  0  0  0  0  0
  -24.1970  -30.1664   23.3064 C   0  0  0  0  0  0  0  0  0  0  0  0
  -27.5592  -23.6963   18.9449 C   0  0  0  0  0  0  0  0  0  0  0  0
  -21.9197  -31.1148   21.1999 C   0  0  0  0  0  0  0  0  0  0  0  0
  -20.6037  -30.8885   18.0593 C   0  0  0  0  0  0  0  0  0  0  0  0
  -23.9977  -32.2868   27.9456 C   0  0  0  0  0  0  0  0  0  0  0  0
  -25.5973  -30.8427   21.3220 C   0  0  0  0  0  0  0  0  0  0  0  0
  -23.3225  -29.1286   20.5271 C   0  0  0  0  0  0  0  0  0  0  0  0
  -22.9764  -31.8788   26.8869 C   0  0  0  0  0  0  0  0  0  0  0  0
  -30.0203  -13.3429   19.0776 C   0  0  0  0  0  0  0  0  0  0  0  0
  -23.2470  -30.4574   26.4040 C   0  0  0  0  0  0  0  0  0  0  0  0
  -29.5998  -12.0401   19.7528 C   0  0  0  0  0  0  0  0  0  0  0  0
  -28.8168  -14.1502   18.5934 C   0  0  0  0  0  0  0  0  0  0  0  0
  -27.3911  -13.1173   20.3372 C   0  0  0  0  0  0  0  0  0  0  0  0
  -24.6297  -30.3508   25.7497 C   0  0  1  0  0  0  0  0  0  0  0  0
  -24.2417  -30.9345   22.0158 C   0  0  1  0  0  0  0  0  0  0  0  0
  -28.5842  -12.3113   20.8740 C   0  0  1  0  0  0  0  0  0  0  0  0
  -18.7191  -31.7537   16.6461 C   0  0  0  0  0  0  0  0  0  0  0  0
  -19.9827  -29.2548   22.6485 C   0  0  0  0  0  0  0  0  0  0  0  0
  -18.4513  -29.4268   20.6754 C   0  0  0  0  0  0  0  0  0  0  0  0
  -19.0145  -31.4665   21.9964 C   0  0  0  0  0  0  0  0  0  0  0  0
  -22.4694  -32.1242   16.1225 C   0  0  0  0  0  0  0  0  0  0  0  0
  -28.7938  -22.8648   19.2422 C   0  0  0  0  0  0  0  0  0  0  0  0
  -27.7342  -25.1970   19.0739 C   0  0  0  0  0  0  0  0  0  1  0  0
  -20.7691  -30.4395   20.4935 C   0  0  1  0  0  0  0  0  0  0  0  0
  -20.1652  -31.9547   17.0716 C   0  0  2  0  0  0  0  0  0  0  0  0
  -19.5812  -30.1379   21.4503 C   0  0  0  0  0  0  0  0  0  0  0  0
  -27.0434  -10.3990   21.1024 N   0  0  0  0  0  0  0  0  0  0  0  0
  -28.1405  -11.0296   21.5549 N   0  0  0  0  0  0  0  0  0  0  0  0
  -27.8325  -14.3463   19.6683 N   0  0  0  0  0  0  0  0  0  0  0  0
  -23.1457  -30.4346   21.1832 N   0  0  0  0  0  0  0  0  0  0  0  0
  -29.8505  -10.9069   23.1894 N   0  0  0  0  0  0  0  0  0  0  0  0
  -27.3444   -7.2443   24.0265 N   0  0  0  0  0  0  0  0  0  0  0  0
  -24.5980  -30.8959   24.4094 N   0  0  0  0  0  0  0  0  0  0  0  0
  -20.4241  -31.2962   19.3642 N   0  0  0  0  0  0  0  0  0  0  0  0
  -21.0232  -31.9167   15.8537 N   0  3  0  0  0  0  0  0  0  0  0  0
  -29.1850   -8.4347   24.7001 O   0  0  0  0  0  0  0  0  0  0  0  0
  -26.4485  -15.6992   20.9613 O   0  0  0  0  0  0  0  0  0  0  0  0
  -23.8247  -28.9989   23.3021 O   0  0  0  0  0  0  0  0  0  0  0  0
  -26.4822  -23.1975   18.6207 O   0  0  0  0  0  0  0  0  0  0  0  0
  -21.7393  -32.2089   21.7403 O   0  0  0  0  0  0  0  0  0  0  0  0
  -21.0565  -29.8011   17.7083 O   0  0  0  0  0  0  0  0  0  0  0  0
  -28.4810  -19.3532   18.1003 O   0  0  0  0  0  0  0  0  0  0  0  0
  -22.7763   -5.6748   21.2509 O   0  0  0  0  0  0  0  0  0  0  0  0
  -26.5212  -25.8778   18.7554 O   0  0  0  0  0  0  0  0  0  1  0  0
  -20.1198   -3.9755   25.7741 F   0  0  0  0  0  0  0  0  0  0  0  0
  -24.1243   -4.3702   23.2815 F   0  0  0  0  0  0  0  0  0  0  0  0
  1  2  1  0  0  0  0
  1  5  2  0  0  0  0
  2  6  2  0  0  0  0
  3  8  2  0  0  0  0
  3 17  1  0  0  0  0
  4  9  1  0  0  0  0
  4 17  2  0  0  0  0
  5 19  1  0  0  0  0
  6 21  1  0  0  0  0
  7 10  2  0  0  0  0
  7 20  1  0  0  0  0
  8 24  1  0  0  0  0
  9 24  2  0  0  0  0
 10 25  1  0  0  0  0
 11 12  2  0  0  0  0
 11 26  1  0  0  0  0
 12 27  1  0  0  0  0
 13 22  1  0  0  0  0
 13 25  2  0  0  0  0
 14 23  1  0  0  0  0
 14 30  2  0  0  0  0
 15 27  2  0  0  0  0
 15 28  1  0  0  0  0
 16 23  2  0  0  0  0
 16 77  1  0  0  0  0
 17 29  1  0  0  0  0
 18 29  1  0  0  0  0
 18 31  2  0  0  0  0
 18 34  1  0  0  0  0
 19 21  2  0  0  0  0
 19 40  1  0  0  0  0
 20 22  2  0  0  0  0
 20 41  1  0  0  0  0
 21 49  1  0  0  0  0
 22 42  1  0  0  0  0
 23 57  1  0  0  0  0
 24 78  1  0  0  0  0
 25 79  1  0  0  0  0
 26 28  2  0  0  0  0
 26 78  1  0  0  0  0
 27 80  1  0  0  0  0
 28 81  1  0  0  0  0
 29 62  2  0  0  0  0
 30 32  1  0  0  0  0
 30 77  1  0  0  0  0
 31 63  1  0  0  0  0
 31 66  1  0  0  0  0
 32 33  2  0  0  0  0
 33 35  1  0  0  0  0
 34 67  1  0  0  0  0
 34 71  2  0  0  0  0
 35 64  1  0  0  0  0
 35 72  2  0  0  0  0
 36 50  1  0  0  0  0
 36 68  1  0  0  0  0
 36 73  2  0  0  0  0
 37 57  1  0  0  0  0
 37 58  1  0  0  0  0
 37 74  2  0  0  0  0
 38 59  1  0  0  0  0
 38 65  1  0  0  0  0
 38 75  2  0  0  0  0
 39 60  1  0  0  0  0
 39 69  1  0  0  0  0
 39 76  2  0  0  0  0
 40 43  1  0  0  0  0
 41 50  1  0  0  0  0
 42 65  1  0  0  0  0
 43 45  1  0  0  0  0
 44 46  1  0  0  0  0
 44 47  1  0  0  0  0
 45 49  1  0  0  0  0
 46 51  1  0  0  0  0
 47 64  1  0  0  0  0
 48 51  1  0  0  0  0
 48 64  1  0  0  0  0
 49 68  1  0  0  0  0
 50 65  1  0  0  0  0
 51 63  1  0  0  0  0
 52 60  1  0  0  0  0
 53 61  1  0  0  0  0
 54 61  1  0  0  0  0
 55 61  1  0  0  0  0
 56 70  1  0  0  0  0
 58 79  1  0  0  0  0
 59 61  1  0  0  0  0
 59 69  1  0  0  0  0
 60 70  1  0  0  0  0
 62 63  1  0  0  0  0
M  CHG  1  70   1
M  ISO  4  33 100  35 100  58 101  79 101
M  END
> <Batch ID>
0131

> <Smiles>
CNC(C)C(=O)NC(C(=O)N1Cc2cc([101O:1][101CH2:1]C(=O)Cc3coc(C=[100CH:0][100C:0](=O)N4CCCC(n5nc(-c6ccc(Oc7ccc(F)cc7F)cc6)c(C(N)=O)c5N)C4)c3)ccc2CC1C(=O)NC1CCCc2ccccc21)C(C)(C)C

> <Shape>
0.253

> <Color>
0.091

> <Negative vol penalty>
0.000

$$$$

  -OEChem-04052302253D

 85 93  0     1  0  0  0  0  0999 V2000
  -20.6921  -30.1745   25.0515 C   0  0  0  0  0  0  0  0  0  0  0  0
  -21.8975  -29.6074   24.6504 C   0  0  0  0  0  0  0  0  0  0  0  0
  -24.0649  -13.1367   21.2003 C   0  0  0  0  0  0  0  0  0  0  0  0
  -26.2964  -13.1267   20.2743 C   0  0  0  0  0  0  0  0  0  0  0  0
  -19.4913  -29.7050   24.5208 C   0  0  0  0  0  0  0  0  0  0  0  0
  -21.9027  -28.5696   23.7191 C   0  0  0  0  0  0  0  0  0  0  0  0
  -25.4451  -29.1783   20.1518 C   0  0  0  0  0  0  0  0  0  0  0  0
  -30.4424  -24.0742   19.8662 C   0  0  0  0  0  0  0  0  0  0  0  0
  -29.2730  -23.3180   19.7883 C   0  0  0  0  0  0  0  0  0  0  0  0
  -23.8890  -11.8150   20.7909 C   0  0  0  0  0  0  0  0  0  0  0  0
  -26.1205  -11.8049   19.8648 C   0  0  0  0  0  0  0  0  0  0  0  0
  -26.7585  -28.8642   20.4985 C   0  0  0  0  0  0  0  0  0  0  0  0
  -22.9845   -8.3272   20.3087 C   0  0  0  0  0  0  0  0  0  0  0  0
  -22.4109   -7.4377   21.2172 C   0  0  0  0  0  0  0  0  0  0  0  0
  -26.5350  -26.7333   19.3900 C   0  0  0  0  0  0  0  0  0  0  0  0
  -31.1337  -22.8058   21.8027 C   0  0  0  0  0  0  0  0  0  0  0  0
  -24.2240   -7.8455   22.7611 C   0  0  0  0  0  0  0  0  0  0  0  0
  -25.2686  -13.7926   20.9420 C   0  0  0  0  0  0  0  0  0  0  0  0
  -25.9641  -15.6058   22.5962 C   0  0  0  0  0  0  0  0  0  0  0  0
  -19.4825  -28.6674   23.5753 C   0  0  0  0  0  0  0  0  0  0  0  0
  -24.6620  -28.2663   19.4298 C   0  0  0  0  0  0  0  0  0  0  0  0
  -20.7006  -28.0848   23.1762 C   0  0  0  0  0  0  0  0  0  0  0  0
  -25.2129  -27.0394   19.0331 C   0  0  0  0  0  0  0  0  0  0  0  0
  -31.3728  -23.8181   20.8734 C   0  0  0  0  0  0  0  0  0  0  0  0
  -29.9643  -22.0495   21.7249 C   0  0  0  0  0  0  0  0  0  0  0  0
  -29.0339  -22.3056   20.7176 C   0  0  0  0  0  0  0  0  0  0  0  0
  -24.9168  -11.1491   20.1231 C   0  0  0  0  0  0  0  0  0  0  0  0
  -27.3027  -27.6403   20.1201 C   0  0  0  0  0  0  0  0  0  0  0  0
  -24.1779   -8.9758   20.6264 C   0  0  0  0  0  0  0  0  0  0  0  0
  -23.0306   -7.1969   22.4434 C   0  0  0  0  0  0  0  0  0  0  0  0
  -24.7976   -8.7350   21.8526 C   0  0  0  0  0  0  0  0  0  0  0  0
  -25.4506  -15.1581   21.3642 C   0  0  0  0  0  0  0  0  0  0  0  0
  -25.9328  -16.9758   22.5038 C   0  0  0  0  0  0  0  0  0  0  0  0
  -26.4280  -14.8506   23.7232 C   0  0  0  0  0  0  0  0  0  0  0  0
  -21.9598  -26.6906   19.9945 C   0  0  0  0  0  0  0  0  0  0  0  0
  -31.3547  -26.7963   21.3158 C   0  0  0  0  0  0  0  0  0  0  0  0
  -22.2982  -25.7838   16.8984 C   0  0  0  0  0  0  0  0  0  0  0  0
  -24.3760  -25.2723   14.2399 C   0  0  0  0  0  0  0  0  0  0  0  0
  -26.8246  -21.6887   19.6761 C   0  0  0  0  0  0  0  0  0  0  0  0
  -18.1564  -28.1614   23.0651 C   0  0  0  0  0  0  0  0  0  0  0  0
  -23.2557  -28.6313   19.0405 C   0  0  0  0  0  0  0  0  0  0  0  0
  -24.4206  -26.0339   18.2395 C   0  0  0  0  0  0  0  0  0  0  0  0
  -18.2737  -27.3114   21.8026 C   0  0  0  0  0  0  0  0  0  0  0  0
  -23.7487  -19.9973   19.0802 C   0  0  0  0  0  0  0  0  0  0  0  0
  -19.3931  -26.2859   21.9516 C   0  0  0  0  0  0  0  0  0  0  0  0
  -23.9595  -18.6244   19.7226 C   0  0  0  0  0  0  0  0  0  0  0  0
  -25.0258  -20.5183   18.4233 C   0  0  0  0  0  0  0  0  0  0  0  0
  -26.4197  -19.1620   19.9354 C   0  0  0  0  0  0  0  0  0  0  0  0
  -20.7490  -26.9740   22.1496 C   0  0  1  0  0  0  0  0  0  0  0  0
  -22.3820  -27.4154   18.7479 C   0  0  1  0  0  0  0  0  0  0  0  0
  -25.1782  -18.6249   20.6661 C   0  0  2  0  0  0  0  0  0  0  0  0
  -28.7271  -21.3908   23.8038 C   0  0  0  0  0  0  0  0  0  0  0  0
  -24.3678  -24.4920   11.8548 C   0  0  0  0  0  0  0  0  0  0  0  0
  -22.0405  -22.8952   17.8469 C   0  0  0  0  0  0  0  0  0  0  0  0
  -22.9724  -22.1614   15.6421 C   0  0  0  0  0  0  0  0  0  0  0  0
  -20.8152  -23.4110   15.7286 C   0  0  0  0  0  0  0  0  0  0  0  0
  -25.3776  -27.8798   13.2618 C   0  0  0  0  0  0  0  0  0  0  0  0
  -32.6349  -24.6368   20.9589 C   0  0  0  0  0  0  0  0  0  0  0  0
  -29.7328  -20.9733   22.7356 C   0  0  0  0  0  0  0  0  0  0  0  0
  -32.4477  -25.8743   21.8346 C   0  0  0  0  0  0  0  0  0  0  0  0
  -30.1749  -27.0052   22.2557 C   0  0  0  0  0  0  0  0  0  0  0  0
  -29.0925  -27.8972   21.6649 C   0  0  0  0  0  0  0  0  0  1  0  0
  -22.9775  -24.6379   16.1882 C   0  0  1  0  0  0  0  0  0  0  0  0
  -24.2717  -25.6916   12.7847 C   0  0  2  0  0  0  0  0  0  0  0  0
  -22.2160  -23.2943   16.3681 C   0  0  0  0  0  0  0  0  0  0  0  0
  -25.1174  -16.1624   20.5491 N   0  0  0  0  0  0  0  0  0  0  0  0
  -25.4220  -17.2546   21.2703 N   0  0  0  0  0  0  0  0  0  0  0  0
  -23.0480  -26.4345   17.8885 N   0  0  0  0  0  0  0  0  0  0  0  0
  -26.1363  -20.4937   19.3777 N   0  0  0  0  0  0  0  0  0  0  0  0
  -26.2926  -17.9571   23.3582 N   0  0  0  0  0  0  0  0  0  0  0  0
  -26.3910  -13.4514   23.6510 N   0  0  0  0  0  0  0  0  0  0  0  0
  -27.8400  -21.5486   20.6216 N   0  0  0  0  0  0  0  0  0  0  0  0
  -21.2520  -27.4724   20.8874 N   0  0  0  0  0  0  0  0  0  0  0  0
  -23.1346  -25.0543   14.7989 N   0  0  0  0  0  0  0  0  0  0  0  0
  -25.3663  -26.6424   12.4398 N   0  3  0  0  0  0  0  0  0  0  0  0
  -26.8472  -15.4004   24.7699 O   0  0  0  0  0  0  0  0  0  0  0  0
  -22.2531  -25.5091   20.1351 O   0  0  0  0  0  0  0  0  0  0  0  0
  -31.4207  -27.3353   20.2123 O   0  0  0  0  0  0  0  0  0  0  0  0
  -21.1474  -26.0949   16.5814 O   0  0  0  0  0  0  0  0  0  0  0  0
  -25.4515  -25.1468   14.8215 O   0  0  0  0  0  0  0  0  0  0  0  0
  -26.5168  -22.7628   19.1530 O   0  0  0  0  0  0  0  0  0  0  0  0
  -24.7457   -9.8592   19.7237 O   0  0  0  0  0  0  0  0  0  0  0  0
  -28.5841  -27.3309   20.4578 O   0  0  0  0  0  0  0  0  0  1  0  0
  -22.4789   -6.3438   23.3164 F   0  0  0  0  0  0  0  0  0  0  0  0
  -25.9435   -9.3560   22.1638 F   0  0  0  0  0  0  0  0  0  0  0  0
  1  2  1  0  0  0  0
  1  5  2  0  0  0  0
  2  6  2  0  0  0  0
  3 10  2  0  0  0  0
  3 18  1  0  0  0  0
  4 11  1  0  0  0  0
  4 18  2  0  0  0  0
  5 20  1  0  0  0  0
  6 22  1  0  0  0  0
  7 12  2  0  0  0  0
  7 21  1  0  0  0  0
  8  9  2  0  0  0  0
  8 24  1  0  0  0  0
  9 26  1  0  0  0  0
 10 27  1  0  0  0  0
 11 27  2  0  0  0  0
 12 28  1  0  0  0  0
 13 14  2  0  0  0  0
 13 29  1  0  0  0  0
 14 30  1  0  0  0  0
 15 23  1  0  0  0  0
 15 28  2  0  0  0  0
 16 24  2  0  0  0  0
 16 25  1  0  0  0  0
 17 30  2  0  0  0  0
 17 31  1  0  0  0  0
 18 32  1  0  0  0  0
 19 32  1  0  0  0  0
 19 33  2  0  0  0  0
 19 34  1  0  0  0  0
 20 22  2  0  0  0  0
 20 40  1  0  0  0  0
 21 23  2  0  0  0  0
 21 41  1  0  0  0  0
 22 49  1  0  0  0  0
 23 42  1  0  0  0  0
 24 58  1  0  0  0  0
 25 26  2  0  0  0  0
 25 59  1  0  0  0  0
 26 72  1  0  0  0  0
 27 82  1  0  0  0  0
 28 83  1  0  0  0  0
 29 31  2  0  0  0  0
 29 82  1  0  0  0  0
 30 84  1  0  0  0  0
 31 85  1  0  0  0  0
 32 66  2  0  0  0  0
 33 67  1  0  0  0  0
 33 70  1  0  0  0  0
 34 71  1  0  0  0  0
 34 76  2  0  0  0  0
 35 50  1  0  0  0  0
 35 73  1  0  0  0  0
 35 77  2  0  0  0  0
 36 60  1  0  0  0  0
 36 61  1  0  0  0  0
 36 78  2  0  0  0  0
 37 63  1  0  0  0  0
 37 68  1  0  0  0  0
 37 79  2  0  0  0  0
 38 64  1  0  0  0  0
 38 74  1  0  0  0  0
 38 80  2  0  0  0  0
 39 69  1  0  0  0  0
 39 72  1  0  0  0  0
 39 81  2  0  0  0  0
 40 43  1  0  0  0  0
 41 50  1  0  0  0  0
 42 68  1  0  0  0  0
 43 45  1  0  0  0  0
 44 46  1  0  0  0  0
 44 47  1  0  0  0  0
 45 49  1  0  0  0  0
 46 51  1  0  0  0  0
 47 69  1  0  0  0  0
 48 51  1  0  0  0  0
 48 69  1  0  0  0  0
 49 73  1  0  0  0  0
 50 68  1  0  0  0  0
 51 67  1  0  0  0  0
 52 59  1  0  0  0  0
 53 64  1  0  0  0  0
 54 65  1  0  0  0  0
 55 65  1  0  0  0  0
 56 65  1  0  0  0  0
 57 75  1  0  0  0  0
 58 60  1  0  0  0  0
 61 62  1  0  0  0  0
 62 83  1  0  0  0  0
 63 65  1  0  0  0  0
 63 74  1  0  0  0  0
 64 75  1  0  0  0  0
 66 67  1  0  0  0  0
M  CHG  1  75   1
M  ISO  4  39 100  62 101  72 100  83 101
M  END
> <Batch ID>
0131

> <Smiles>
CCc1cc(CCC(=O)C[101CH2:1][101O:1]c2ccc3c(c2)CN(C(=O)C(NC(=O)C(C)NC)C(C)(C)C)C(C(=O)NC2CCCc4ccccc42)C3)ccc1[100NH:0][100C:0](=O)N1CCCC(n2nc(-c3ccc(Oc4ccc(F)cc4F)cc3)c(C(N)=O)c2N)C1

> <Shape>
0.232

> <Color>
0.074

> <Negative vol penalty>
0.000

$$$$

  -OEChem-04052302253D

 86 94  0     1  0  0  0  0  0999 V2000
  -26.8734  -23.3474   17.7265 C   0  0  0  0  0  0  0  0  0  0  0  0
  -25.9224  -24.3499   17.8799 C   0  0  0  0  0  0  0  0  0  0  0  0
  -18.4643  -22.2964   20.9697 C   0  0  0  0  0  0  0  0  0  0  0  0
  -25.1271  -13.6930   21.7212 C   0  0  0  0  0  0  0  0  0  0  0  0
  -25.9258  -13.1978   19.4955 C   0  0  0  0  0  0  0  0  0  0  0  0
  -19.7030  -21.9446   20.4334 C   0  0  0  0  0  0  0  0  0  0  0  0
  -27.8918  -23.2082   18.6671 C   0  0  0  0  0  0  0  0  0  0  0  0
  -25.9964  -25.2210   18.9674 C   0  0  0  0  0  0  0  0  0  0  0  0
  -22.8477  -29.0008   19.0214 C   0  0  0  0  0  0  0  0  0  0  0  0
  -18.2721  -23.5704   21.5041 C   0  0  0  0  0  0  0  0  0  0  0  0
  -24.8194  -12.3458   21.9106 C   0  0  0  0  0  0  0  0  0  0  0  0
  -25.6182  -11.8505   19.6849 C   0  0  0  0  0  0  0  0  0  0  0  0
  -21.4845  -28.8426   19.2669 C   0  0  0  0  0  0  0  0  0  0  0  0
  -26.4756   -9.4930   22.6534 C   0  0  0  0  0  0  0  0  0  0  0  0
  -26.8473   -8.9071   23.8634 C   0  0  0  0  0  0  0  0  0  0  0  0
  -21.7974  -29.6776   21.5083 C   0  0  0  0  0  0  0  0  0  0  0  0
  -24.5324   -8.3918   24.3248 C   0  0  0  0  0  0  0  0  0  0  0  0
  -25.6802  -14.1190   20.5137 C   0  0  0  0  0  0  0  0  0  0  0  0
  -20.7495  -22.8668   20.4317 C   0  0  0  0  0  0  0  0  0  0  0  0
  -27.2147  -16.1546   20.6105 C   0  0  0  0  0  0  0  0  0  0  0  0
  -27.9703  -24.0706   19.7731 C   0  0  0  0  0  0  0  0  0  0  0  0
  -23.6993  -29.4891   20.0228 C   0  0  0  0  0  0  0  0  0  0  0  0
  -27.0305  -25.1118   19.9146 C   0  0  0  0  0  0  0  0  0  0  0  0
  -23.1706  -29.8435   21.2722 C   0  0  0  0  0  0  0  0  0  0  0  0
  -20.5573  -24.1409   20.9662 C   0  0  0  0  0  0  0  0  0  0  0  0
  -25.0650  -11.4245   20.8925 C   0  0  0  0  0  0  0  0  0  0  0  0
  -20.9596  -29.1784   20.5114 C   0  0  0  0  0  0  0  0  0  0  0  0
  -19.3186  -24.4926   21.5024 C   0  0  0  0  0  0  0  0  0  0  0  0
  -25.1324   -9.5284   22.2790 C   0  0  0  0  0  0  0  0  0  0  0  0
  -25.8756   -8.3565   24.6991 C   0  0  0  0  0  0  0  0  0  0  0  0
  -24.1608   -8.9778   23.1147 C   0  0  0  0  0  0  0  0  0  0  0  0
  -25.9977  -15.5107   20.3172 C   0  0  0  0  0  0  0  0  0  0  0  0
  -27.0082  -17.4622   20.2445 C   0  0  0  0  0  0  0  0  0  0  0  0
  -22.9885  -25.6883   23.0385 C   0  0  0  0  0  0  0  0  0  0  0  0
  -16.8911  -28.2665   22.7321 C   0  0  0  0  0  0  0  0  0  0  0  0
  -22.7044  -24.8562   22.0303 C   0  0  0  0  0  0  0  0  0  0  0  0
  -22.0318  -22.4711   19.8646 C   0  0  0  0  0  0  0  0  0  0  0  0
  -28.4238  -15.6186   21.1641 C   0  0  0  0  0  0  0  0  0  0  0  0
  -18.0167  -27.8641   22.1211 C   0  0  0  0  0  0  0  0  0  0  0  0
  -22.7930  -21.3300   20.4117 C   0  0  0  0  0  0  0  0  0  0  0  0
  -26.2120  -28.3344   21.5903 C   0  0  0  0  0  0  0  0  0  0  0  0
  -26.3366  -31.3358   22.8142 C   0  0  0  0  0  0  0  0  0  0  0  0
  -24.6914  -34.2316   23.5590 C   0  0  0  0  0  0  0  0  0  0  0  0
  -29.0979  -23.8798   20.7566 C   0  0  0  0  0  0  0  0  0  0  0  0
  -25.1631  -29.6790   19.7334 C   0  0  0  0  0  0  0  0  0  0  0  0
  -24.0390  -30.3910   22.3743 C   0  0  0  0  0  0  0  0  0  0  0  0
  -28.8382  -24.5583   22.0977 C   0  0  0  0  0  0  0  0  0  0  0  0
  -23.8658  -19.8040   17.2569 C   0  0  0  0  0  0  0  0  0  0  0  0
  -28.3990  -25.9979   21.8755 C   0  0  0  0  0  0  0  0  0  0  0  0
  -24.6053  -18.5691   17.7646 C   0  0  0  0  0  0  0  0  0  0  0  0
  -22.6750  -20.1625   18.1447 C   0  0  0  0  0  0  0  0  0  0  0  0
  -23.7722  -19.0914   20.0913 C   0  0  0  0  0  0  0  0  0  0  0  0
  -27.0732  -26.0517   21.1059 C   0  0  1  0  0  0  0  0  0  0  0  0
  -26.0233  -29.7002   20.9932 C   0  0  1  0  0  0  0  0  0  0  0  0
  -25.0021  -18.7403   19.2396 C   0  0  1  0  0  0  0  0  0  0  0  0
  -25.0494  -36.4916   24.5892 C   0  0  0  0  0  0  0  0  0  0  0  0
  -26.3248  -30.0696   25.5902 C   0  0  0  0  0  0  0  0  0  0  0  0
  -25.7285  -32.3107   26.5337 C   0  0  0  0  0  0  0  0  0  0  0  0
  -27.8921  -32.0012   25.3313 C   0  0  0  0  0  0  0  0  0  0  0  0
  -23.9632  -35.6196   21.0487 C   0  0  0  0  0  0  0  0  0  0  0  0
  -21.6743  -25.1359   20.9693 C   0  0  0  0  0  0  0  0  0  0  0  0
  -19.2430  -28.7374   22.0973 C   0  0  0  0  0  0  0  0  0  1  0  0
  -18.0917  -26.5287   21.4328 C   0  0  0  0  0  0  0  0  0  0  0  0
  -25.7346  -32.0272   24.0136 C   0  0  1  0  0  0  0  0  0  0  0  0
  -25.0433  -35.6853   23.2998 C   0  0  2  0  0  0  0  0  0  0  0  0
  -26.4037  -31.5901   25.3473 C   0  0  0  0  0  0  0  0  0  0  0  0
  -25.0855  -16.3409   19.8046 N   0  0  0  0  0  0  0  0  0  0  0  0
  -22.5849  -23.0826   18.8540 N   0  0  0  0  0  0  0  0  0  0  0  0
  -25.7298  -17.5199   19.7730 N   0  0  0  0  0  0  0  0  0  0  0  0
  -23.0684  -20.2632   19.5581 N   0  0  0  0  0  0  0  0  0  0  0  0
  -25.4647  -30.5525   22.0447 N   0  0  0  0  0  0  0  0  0  0  0  0
  -27.7973  -18.5569   20.2834 N   0  0  0  0  0  0  0  0  0  0  0  0
  -28.4653  -14.2545   21.4833 N   0  0  0  0  0  0  0  0  0  0  0  0
  -26.7985  -27.4221   20.7340 N   0  0  0  0  0  0  0  0  0  0  0  0
  -25.8180  -33.4585   23.7443 N   0  0  0  0  0  0  0  0  0  0  0  0
  -24.0565  -36.2987   22.3666 N   0  3  0  0  0  0  0  0  0  0  0  0
  -29.4319  -16.3317   21.3849 O   0  0  0  0  0  0  0  0  0  0  0  0
  -23.1349  -21.3891   21.5942 O   0  0  0  0  0  0  0  0  0  0  0  0
  -25.8534  -28.1241   22.7430 O   0  0  0  0  0  0  0  0  0  0  0  0
  -27.5347  -31.4911   22.5649 O   0  0  0  0  0  0  0  0  0  0  0  0
  -23.5328  -33.8233   23.5973 O   0  0  0  0  0  0  0  0  0  0  0  0
  -24.7651  -10.1097   21.0770 O   0  0  0  0  0  0  0  0  0  0  0  0
  -19.6294  -29.0244   20.7539 O   0  0  0  0  0  0  0  0  0  1  0  0
  -19.1105  -25.7394   22.0322 O   0  0  0  0  0  0  0  0  0  0  0  0
  -26.2328   -7.7925   25.8604 F   0  0  0  0  0  0  0  0  0  0  0  0
  -22.8688   -9.0077   22.7600 F   0  0  0  0  0  0  0  0  0  0  0  0
  1  2  1  0  0  0  0
  1  7  2  0  0  0  0
  2  8  2  0  0  0  0
  3  6  2  0  0  0  0
  3 10  1  0  0  0  0
  4 11  2  0  0  0  0
  4 18  1  0  0  0  0
  5 12  1  0  0  0  0
  5 18  2  0  0  0  0
  6 19  1  0  0  0  0
  7 21  1  0  0  0  0
  8 23  1  0  0  0  0
  9 13  2  0  0  0  0
  9 22  1  0  0  0  0
 10 28  2  0  0  0  0
 11 26  1  0  0  0  0
 12 26  2  0  0  0  0
 13 27  1  0  0  0  0
 14 15  2  0  0  0  0
 14 29  1  0  0  0  0
 15 30  1  0  0  0  0
 16 24  1  0  0  0  0
 16 27  2  0  0  0  0
 17 30  2  0  0  0  0
 17 31  1  0  0  0  0
 18 32  1  0  0  0  0
 19 25  2  0  0  0  0
 19 37  1  0  0  0  0
 20 32  1  0  0  0  0
 20 33  2  0  0  0  0
 20 38  1  0  0  0  0
 21 23  2  0  0  0  0
 21 44  1  0  0  0  0
 22 24  2  0  0  0  0
 22 45  1  0  0  0  0
 23 53  1  0  0  0  0
 24 46  1  0  0  0  0
 25 28  1  0  0  0  0
 25 61  1  0  0  0  0
 26 82  1  0  0  0  0
 27 83  1  0  0  0  0
 28 84  1  0  0  0  0
 29 31  2  0  0  0  0
 29 82  1  0  0  0  0
 30 85  1  0  0  0  0
 31 86  1  0  0  0  0
 32 67  2  0  0  0  0
 33 69  1  0  0  0  0
 33 72  1  0  0  0  0
 34 36  2  0  0  0  0
 35 39  2  0  0  0  0
 36 61  1  0  0  0  0
 37 40  1  0  0  0  0
 37 68  2  0  0  0  0
 38 73  1  0  0  0  0
 38 77  2  0  0  0  0
 39 62  1  0  0  0  0
 39 63  1  0  0  0  0
 40 70  1  0  0  0  0
 40 78  2  0  0  0  0
 41 54  1  0  0  0  0
 41 74  1  0  0  0  0
 41 79  2  0  0  0  0
 42 64  1  0  0  0  0
 42 71  1  0  0  0  0
 42 80  2  0  0  0  0
 43 65  1  0  0  0  0
 43 75  1  0  0  0  0
 43 81  2  0  0  0  0
 44 47  1  0  0  0  0
 45 54  1  0  0  0  0
 46 71  1  0  0  0  0
 47 49  1  0  0  0  0
 48 50  1  0  0  0  0
 48 51  1  0  0  0  0
 49 53  1  0  0  0  0
 50 55  1  0  0  0  0
 51 70  1  0  0  0  0
 52 55  1  0  0  0  0
 52 70  1  0  0  0  0
 53 74  1  0  0  0  0
 54 71  1  0  0  0  0
 55 69  1  0  0  0  0
 56 65  1  0  0  0  0
 57 66  1  0  0  0  0
 58 66  1  0  0  0  0
 59 66  1  0  0  0  0
 60 76  1  0  0  0  0
 62 83  1  0  0  0  0
 63 84  1  0  0  0  0
 64 66  1  0  0  0  0
 64 75  1  0  0  0  0
 65 76  1  0  0  0  0
 67 69  1  0  0  0  0
M  CHG  1  76   1
M  ISO  4  37 100  40 100  62 101  83 101
M  END
> <Batch ID>
0131

> <Smiles>
C=CCc1c(OCC(=C)[101CH2:1][101O:1]c2ccc3c(c2)CN(C(=O)C(NC(=O)C(C)NC)C(C)(C)C)C(C(=O)NC2CCCc4ccccc42)C3)cccc1[100C:0](=N)[100C:0](=O)N1CCCC(n2nc(-c3ccc(Oc4ccc(F)cc4F)cc3)c(C(N)=O)c2N)C1

> <Shape>
0.266

> <Color>
0.068

> <Negative vol penalty>
0.000

$$$$

  -OEChem-04052302253D

 86 94  0     1  0  0  0  0  0999 V2000
  -35.4170  -20.2712   21.8168 C   0  0  0  0  0  0  0  0  0  0  0  0
  -34.3634  -20.2922   20.9086 C   0  0  0  0  0  0  0  0  0  0  0  0
  -23.0585   -9.8941   19.9218 C   0  0  0  0  0  0  0  0  0  0  0  0
  -23.8777   -9.8450   22.1941 C   0  0  0  0  0  0  0  0  0  0  0  0
  -35.2412  -20.7904   23.0988 C   0  0  0  0  0  0  0  0  0  0  0  0
  -33.1329  -20.8314   21.2822 C   0  0  0  0  0  0  0  0  0  0  0  0
  -31.1774  -23.8579   17.7239 C   0  0  0  0  0  0  0  0  0  0  0  0
  -27.6733  -18.3990   21.5746 C   0  0  0  0  0  0  0  0  0  0  0  0
  -22.3220   -8.7342   20.1622 C   0  0  0  0  0  0  0  0  0  0  0  0
  -23.1412   -8.6852   22.4346 C   0  0  0  0  0  0  0  0  0  0  0  0
  -30.5681  -23.2441   16.6304 C   0  0  0  0  0  0  0  0  0  0  0  0
  -28.0112  -19.0064   20.3653 C   0  0  0  0  0  0  0  0  0  0  0  0
  -19.9302   -7.8689   23.1007 C   0  0  0  0  0  0  0  0  0  0  0  0
  -19.2039   -7.7990   24.2895 C   0  0  0  0  0  0  0  0  0  0  0  0
  -29.7560  -17.3692   20.0305 C   0  0  0  0  0  0  0  0  0  0  0  0
  -28.4051  -23.6324   17.6252 C   0  0  0  0  0  0  0  0  0  0  0  0
  -20.4651   -5.8454   24.9452 C   0  0  0  0  0  0  0  0  0  0  0  0
  -23.8364  -10.4495   20.9377 C   0  0  0  0  0  0  0  0  0  0  0  0
  -29.4181  -16.7618   21.2398 C   0  0  0  0  0  0  0  0  0  0  0  0
  -24.1737  -12.9772   20.8715 C   0  0  0  0  0  0  0  0  0  0  0  0
  -34.0108  -21.3451   23.4851 C   0  0  0  0  0  0  0  0  0  0  0  0
  -30.4043  -24.3548   18.7832 C   0  0  0  0  0  0  0  0  0  0  0  0
  -32.9401  -21.3574   22.5709 C   0  0  0  0  0  0  0  0  0  0  0  0
  -29.0068  -24.2545   18.7298 C   0  0  0  0  0  0  0  0  0  0  0  0
  -28.3768  -17.2767   22.0119 C   0  0  0  0  0  0  0  0  0  0  0  0
  -22.3633   -8.1298   21.4187 C   0  0  0  0  0  0  0  0  0  0  0  0
  -29.0525  -18.4915   19.5932 C   0  0  0  0  0  0  0  0  0  0  0  0
  -29.1820  -23.1286   16.5823 C   0  0  0  0  0  0  0  0  0  0  0  0
  -20.9238   -6.9269   22.8341 C   0  0  0  0  0  0  0  0  0  0  0  0
  -19.4714   -6.7873   25.2118 C   0  0  0  0  0  0  0  0  0  0  0  0
  -21.1913   -5.9152   23.7563 C   0  0  0  0  0  0  0  0  0  0  0  0
  -24.5979  -11.6473   20.6897 C   0  0  0  0  0  0  0  0  0  0  0  0
  -25.2557  -13.7367   20.4988 C   0  0  0  0  0  0  0  0  0  0  0  0
  -30.1689  -15.5909   21.6727 C   0  0  0  0  0  0  0  0  0  0  0  0
  -22.9143  -13.4810   21.3360 C   0  0  0  0  0  0  0  0  0  0  0  0
  -30.7699  -14.6570   20.6930 C   0  0  0  0  0  0  0  0  0  0  0  0
  -30.1740  -23.7099   21.8872 C   0  0  0  0  0  0  0  0  0  0  0  0
  -28.1826  -26.2705   21.8738 C   0  0  0  0  0  0  0  0  0  0  0  0
  -26.0821  -28.2979   20.1063 C   0  0  0  0  0  0  0  0  0  0  0  0
  -33.8542  -21.8514   24.8971 C   0  0  0  0  0  0  0  0  0  0  0  0
  -31.0752  -25.0382   19.9431 C   0  0  0  0  0  0  0  0  0  0  0  0
  -28.1306  -24.7897   19.8318 C   0  0  0  0  0  0  0  0  0  0  0  0
  -32.6319  -22.7449   25.0918 C   0  0  0  0  0  0  0  0  0  0  0  0
  -29.5359  -12.4582   18.1437 C   0  0  0  0  0  0  0  0  0  0  0  0
  -31.4026  -22.1164   24.4433 C   0  0  0  0  0  0  0  0  0  0  0  0
  -28.1197  -12.1302   18.6155 C   0  0  0  0  0  0  0  0  0  0  0  0
  -30.4906  -12.6304   19.3206 C   0  0  0  0  0  0  0  0  0  0  0  0
  -28.6211  -13.3250   20.7941 C   0  0  0  0  0  0  0  0  0  0  0  0
  -31.5977  -21.9563   22.9307 C   0  0  1  0  0  0  0  0  0  0  0  0
  -30.2200  -25.0486   21.2064 C   0  0  1  0  0  0  0  0  0  0  0  0
  -27.6221  -13.1711   19.6341 C   0  0  2  0  0  0  0  0  0  0  0  0
  -28.5089  -17.4352   24.5107 C   0  0  0  0  0  0  0  0  0  0  0  0
  -24.5707  -30.2829   20.3760 C   0  0  0  0  0  0  0  0  0  0  0  0
  -26.2605  -22.5133   14.9196 C   0  0  0  0  0  0  0  0  0  0  0  0
  -26.0938  -24.4950   23.2133 C   0  0  0  0  0  0  0  0  0  0  0  0
  -24.3583  -26.1910   22.5970 C   0  0  0  0  0  0  0  0  0  0  0  0
  -26.2266  -26.8197   24.1256 C   0  0  0  0  0  0  0  0  0  0  0  0
  -27.6571  -29.9044   18.1834 C   0  0  0  0  0  0  0  0  0  0  0  0
  -27.9940  -16.6460   23.3109 C   0  0  0  0  0  0  0  0  0  0  0  0
  -28.6228  -19.7044   16.2028 C   0  0  0  0  0  0  0  0  0  0  0  0
  -27.5059  -20.3756   15.4009 C   0  0  0  0  0  0  0  0  0  0  0  0
  -28.3361  -19.7380   17.6988 C   0  0  0  0  0  0  0  0  0  0  0  0
  -26.7008  -26.4713   21.6668 C   0  0  1  0  0  0  0  0  0  0  0  0
  -25.9729  -29.8099   20.0255 C   0  0  2  0  0  0  0  0  0  0  0  0
  -27.3495  -21.8567   15.7574 C   0  0  1  0  0  0  0  0  0  1  0  0
  -25.8612  -25.9823   22.8807 C   0  0  0  0  0  0  0  0  0  0  0  0
  -25.8516  -11.5633   20.2365 N   0  0  0  0  0  0  0  0  0  0  0  0
  -30.3623  -15.2901   22.9271 N   0  0  0  0  0  0  0  0  0  0  0  0
  -26.2243  -12.8501   20.1303 N   0  0  0  0  0  0  0  0  0  0  0  0
  -29.9713  -13.5976   20.2854 N   0  0  0  0  0  0  0  0  0  0  0  0
  -28.8340  -25.4438   20.9475 N   0  0  0  0  0  0  0  0  0  0  0  0
  -25.4634  -15.0699   20.4534 N   0  0  0  0  0  0  0  0  0  0  0  0
  -21.9119  -12.5626   21.6767 N   0  0  0  0  0  0  0  0  0  0  0  0
  -31.4133  -23.2255   22.2602 N   0  0  0  0  0  0  0  0  0  0  0  0
  -26.5211  -27.8831   21.3459 N   0  0  0  0  0  0  0  0  0  0  0  0
  -26.2972  -30.2798   18.6490 N   0  3  0  0  0  0  0  0  0  0  0  0
  -22.6789  -14.7095   21.4300 O   0  0  0  0  0  0  0  0  0  0  0  0
  -31.9137  -14.9208   20.3461 O   0  0  0  0  0  0  0  0  0  0  0  0
  -29.0940  -23.1580   22.0624 O   0  0  0  0  0  0  0  0  0  0  0  0
  -28.7429  -26.8323   22.8183 O   0  0  0  0  0  0  0  0  0  0  0  0
  -25.8021  -27.5586   19.1653 O   0  0  0  0  0  0  0  0  0  0  0  0
  -21.6445   -6.9981   21.6537 O   0  0  0  0  0  0  0  0  0  0  0  0
  -29.3849  -19.0893   18.4055 O   0  0  0  0  0  0  0  0  0  0  0  0
  -28.5848  -22.5293   15.5164 O   0  0  0  0  0  0  0  0  0  1  0  0
  -18.7749   -6.7213   26.3541 F   0  0  0  0  0  0  0  0  0  0  0  0
  -22.1455   -5.0082   23.5063 F   0  0  0  0  0  0  0  0  0  0  0  0
  1  2  1  0  0  0  0
  1  5  2  0  0  0  0
  2  6  2  0  0  0  0
  3  9  2  0  0  0  0
  3 18  1  0  0  0  0
  4 10  1  0  0  0  0
  4 18  2  0  0  0  0
  5 21  1  0  0  0  0
  6 23  1  0  0  0  0
  7 11  2  0  0  0  0
  7 22  1  0  0  0  0
  8 12  2  0  0  0  0
  8 25  1  0  0  0  0
  9 26  1  0  0  0  0
 10 26  2  0  0  0  0
 11 28  1  0  0  0  0
 12 27  1  0  0  0  0
 13 14  2  0  0  0  0
 13 29  1  0  0  0  0
 14 30  1  0  0  0  0
 15 19  1  0  0  0  0
 15 27  2  0  0  0  0
 16 24  1  0  0  0  0
 16 28  2  0  0  0  0
 17 30  2  0  0  0  0
 17 31  1  0  0  0  0
 18 32  1  0  0  0  0
 19 25  2  0  0  0  0
 19 34  1  0  0  0  0
 20 32  1  0  0  0  0
 20 33  2  0  0  0  0
 20 35  1  0  0  0  0
 21 23  2  0  0  0  0
 21 40  1  0  0  0  0
 22 24  2  0  0  0  0
 22 41  1  0  0  0  0
 23 49  1  0  0  0  0
 24 42  1  0  0  0  0
 25 59  1  0  0  0  0
 26 82  1  0  0  0  0
 27 83  1  0  0  0  0
 28 84  1  0  0  0  0
 29 31  2  0  0  0  0
 29 82  1  0  0  0  0
 30 85  1  0  0  0  0
 31 86  1  0  0  0  0
 32 67  2  0  0  0  0
 33 69  1  0  0  0  0
 33 72  1  0  0  0  0
 34 36  1  0  0  0  0
 34 68  2  0  0  0  0
 35 73  1  0  0  0  0
 35 77  2  0  0  0  0
 36 70  1  0  0  0  0
 36 78  2  0  0  0  0
 37 50  1  0  0  0  0
 37 74  1  0  0  0  0
 37 79  2  0  0  0  0
 38 63  1  0  0  0  0
 38 71  1  0  0  0  0
 38 80  2  0  0  0  0
 39 64  1  0  0  0  0
 39 75  1  0  0  0  0
 39 81  2  0  0  0  0
 40 43  1  0  0  0  0
 41 50  1  0  0  0  0
 42 71  1  0  0  0  0
 43 45  1  0  0  0  0
 44 46  1  0  0  0  0
 44 47  1  0  0  0  0
 45 49  1  0  0  0  0
 46 51  1  0  0  0  0
 47 70  1  0  0  0  0
 48 51  1  0  0  0  0
 48 70  1  0  0  0  0
 49 74  1  0  0  0  0
 50 71  1  0  0  0  0
 51 69  1  0  0  0  0
 52 59  1  0  0  0  0
 53 64  1  0  0  0  0
 54 65  1  0  0  0  0
 55 66  1  0  0  0  0
 56 66  1  0  0  0  0
 57 66  1  0  0  0  0
 58 76  1  0  0  0  0
 60 61  1  0  0  0  0
 60 62  1  0  0  0  0
 61 65  1  0  0  0  0
 62 83  1  0  0  0  0
 63 66  1  0  0  0  0
 63 75  1  0  0  0  0
 64 76  1  0  0  0  0
 65 84  1  0  0  0  0
 67 69  1  0  0  0  0
M  CHG  1  76   1
M  ISO  4  34 100  36 100  65 101  84 101
M  END
> <Batch ID>
0131

> <Smiles>
CCc1ccc(OCCC[101CH:1](C)[101O:1]c2ccc3c(c2)CN(C(=O)C(NC(=O)C(C)NC)C(C)(C)C)C(C(=O)NC2CCCc4ccccc42)C3)cc1[100C:0](=N)[100C:0](=O)N1CCCC(n2nc(-c3ccc(Oc4ccc(F)cc4F)cc3)c(C(N)=O)c2N)C1

> <Shape>
0.288

> <Color>
0.185

> <Negative vol penalty>
0.000

$$$$

  -OEChem-04052302253D

 87 96  0     1  0  0  0  0  0999 V2000
  -31.5471  -33.0563   18.7853 C   0  0  0  0  0  0  0  0  0  0  0  0
  -31.0904  -31.8177   19.2243 C   0  0  0  0  0  0  0  0  0  0  0  0
  -23.6976   -9.7290   22.3168 C   0  0  0  0  0  0  0  0  0  0  0  0
  -23.3381   -9.9757   19.9405 C   0  0  0  0  0  0  0  0  0  0  0  0
  -28.3643  -20.3740   22.5183 C   0  0  0  0  0  0  0  0  0  0  0  0
  -30.9712  -34.2257   19.2800 C   0  0  0  0  0  0  0  0  0  0  0  0
  -30.0581  -31.7478   20.1591 C   0  0  0  0  0  0  0  0  0  0  0  0
  -29.1639  -19.2323   22.5703 C   0  0  0  0  0  0  0  0  0  0  0  0
  -26.5718  -28.2803   18.9479 C   0  0  0  0  0  0  0  0  0  0  0  0
  -22.9279   -8.5657   22.3125 C   0  0  0  0  0  0  0  0  0  0  0  0
  -22.5684   -8.8124   19.9361 C   0  0  0  0  0  0  0  0  0  0  0  0
  -26.8848  -26.9461   19.2045 C   0  0  0  0  0  0  0  0  0  0  0  0
  -19.6482   -7.7497   22.2699 C   0  0  0  0  0  0  0  0  0  0  0  0
  -18.7034   -7.5948   23.2843 C   0  0  0  0  0  0  0  0  0  0  0  0
  -29.5384  -19.3861   20.1885 C   0  0  0  0  0  0  0  0  0  0  0  0
  -25.5646  -27.0307   21.2217 C   0  0  0  0  0  0  0  0  0  0  0  0
  -19.8119   -5.5739   24.0082 C   0  0  0  0  0  0  0  0  0  0  0  0
  -23.9026  -10.4340   21.1308 C   0  0  0  0  0  0  0  0  0  0  0  0
  -28.1517  -21.0217   21.3014 C   0  0  0  0  0  0  0  0  0  0  0  0
  -24.4516  -12.8149   21.8641 C   0  0  0  0  0  0  0  0  0  0  0  0
  -29.7510  -18.7383   21.4054 C   0  0  0  0  0  0  0  0  0  0  0  0
  -29.9248  -34.1700   20.2141 C   0  0  0  0  0  0  0  0  0  0  0  0
  -25.7604  -29.0041   19.8334 C   0  0  0  0  0  0  0  0  0  0  0  0
  -29.4685  -32.9176   20.6678 C   0  0  0  0  0  0  0  0  0  0  0  0
  -25.2408  -28.3732   20.9728 C   0  0  0  0  0  0  0  0  0  0  0  0
  -28.7387  -20.5278   20.1365 C   0  0  0  0  0  0  0  0  0  0  0  0
  -22.3634   -8.1074   21.1222 C   0  0  0  0  0  0  0  0  0  0  0  0
  -26.3835  -26.3220   20.3430 C   0  0  0  0  0  0  0  0  0  0  0  0
  -20.6748   -6.8166   22.1246 C   0  0  0  0  0  0  0  0  0  0  0  0
  -18.7852   -6.5069   24.1534 C   0  0  0  0  0  0  0  0  0  0  0  0
  -20.7567   -5.7287   22.9938 C   0  0  0  0  0  0  0  0  0  0  0  0
  -24.6971  -11.6361   21.1347 C   0  0  0  0  0  0  0  0  0  0  0  0
  -25.4874  -13.6506   21.5246 C   0  0  0  0  0  0  0  0  0  0  0  0
  -27.2913  -22.2415   21.2749 C   0  0  0  0  0  0  0  0  0  0  0  0
  -23.3830  -13.1266   22.7677 C   0  0  0  0  0  0  0  0  0  0  0  0
  -30.9559  -14.4437   20.6550 C   0  0  0  0  0  0  0  0  0  0  0  0
  -26.1613  -31.5879   21.6409 C   0  0  0  0  0  0  0  0  0  0  0  0
  -22.9889  -31.2097   22.2023 C   0  0  0  0  0  0  0  0  0  0  0  0
  -20.7375  -28.4648   22.8458 C   0  0  0  0  0  0  0  0  0  0  0  0
  -29.3656  -35.4617   20.7557 C   0  0  0  0  0  0  0  0  0  0  0  0
  -25.4103  -30.4347   19.5285 C   0  0  0  0  0  0  0  0  0  0  0  0
  -24.3487  -29.1002   21.9444 C   0  0  0  0  0  0  0  0  0  0  0  0
  -28.0229  -35.2952   21.4627 C   0  0  0  0  0  0  0  0  0  0  0  0
  -32.7539  -16.4666   22.3495 C   0  0  0  0  0  0  0  0  0  0  0  0
  -28.9860  -13.2684   17.9022 C   0  0  0  0  0  0  0  0  0  0  0  0
  -31.8689  -17.7094   22.3356 C   0  0  0  0  0  0  0  0  0  0  0  0
  -28.0666  -34.1073   22.4185 C   0  0  0  0  0  0  0  0  0  0  0  0
  -31.9860  -15.2254   22.8012 C   0  0  0  0  0  0  0  0  0  0  0  0
  -27.6865  -12.8079   18.5614 C   0  0  0  0  0  0  0  0  0  0  0  0
  -29.8255  -16.2636   21.9309 C   0  0  0  0  0  0  0  0  0  0  0  0
  -30.1916  -13.0011   18.7977 C   0  0  0  0  0  0  0  0  0  0  0  0
  -28.7792  -13.1380   20.8246 C   0  0  0  0  0  0  0  0  0  0  0  0
  -30.6226  -17.4957   21.4622 C   0  0  1  0  0  0  0  0  0  0  0  0
  -28.3339  -32.8003   21.6623 C   0  0  1  0  0  0  0  0  0  0  0  0
  -30.6843  -14.9993   22.0303 C   0  0  1  0  0  0  0  0  0  0  0  0
  -24.9951  -31.2250   20.7656 C   0  0  1  0  0  0  0  0  0  0  0  0
  -27.5330  -13.4177   19.9660 C   0  0  2  0  0  0  0  0  0  0  0  0
  -28.5283  -21.2022   18.8201 C   0  0  0  0  0  0  0  0  0  0  0  0
  -18.2786  -28.2329   22.4013 C   0  0  0  0  0  0  0  0  0  0  0  0
  -22.6722  -32.1782   25.0784 C   0  0  0  0  0  0  0  0  0  0  0  0
  -20.7768  -30.5635   25.3398 C   0  0  0  0  0  0  0  0  0  0  0  0
  -20.6197  -32.4083   23.6681 C   0  0  0  0  0  0  0  0  0  0  0  0
  -21.1364  -25.9850   21.2803 C   0  0  0  0  0  0  0  0  0  0  0  0
  -27.7055  -23.4461   22.1102 C   0  0  0  0  0  0  0  0  0  0  0  0
  -26.7463  -24.6210   21.9650 C   0  0  0  0  0  0  0  0  0  1  0  0
  -22.1655  -30.4584   23.2205 C   0  0  1  0  0  0  0  0  0  0  0  0
  -19.6806  -27.9164   21.9041 C   0  0  2  0  0  0  0  0  0  0  0  0
  -21.5843  -31.3930   24.3188 C   0  0  0  0  0  0  0  0  0  0  0  0
  -25.8020  -11.7123   20.3882 N   0  0  0  0  0  0  0  0  0  0  0  0
  -26.2600  -12.9490   20.6465 N   0  0  0  0  0  0  0  0  0  0  0  0
  -29.9974  -13.5769   20.1297 N   0  0  0  0  0  0  0  0  0  0  0  0
  -24.0402  -30.4994   21.6057 N   0  0  0  0  0  0  0  0  0  0  0  0
  -25.8036  -14.9098   21.8945 N   0  0  0  0  0  0  0  0  0  0  0  0
  -22.4022  -12.1536   23.0035 N   0  0  0  0  0  0  0  0  0  0  0  0
  -27.1292  -32.3414   21.0046 N   0  0  0  0  0  0  0  0  0  0  0  0
  -21.1562  -29.7226   22.4667 N   0  0  0  0  0  0  0  0  0  0  0  0
  -19.8131  -26.4371   21.7818 N   0  3  0  0  0  0  0  0  0  0  0  0
  -26.2756  -22.2431   20.5833 O   0  0  0  0  0  0  0  0  0  0  0  0
  -23.2913  -14.2411   23.3361 O   0  0  0  0  0  0  0  0  0  0  0  0
  -31.9883  -14.7737   20.0655 O   0  0  0  0  0  0  0  0  0  0  0  0
  -26.1807  -31.2134   22.8075 O   0  0  0  0  0  0  0  0  0  0  0  0
  -22.7051  -32.3812   21.9406 O   0  0  0  0  0  0  0  0  0  0  0  0
  -21.1476  -27.8413   23.8223 O   0  0  0  0  0  0  0  0  0  0  0  0
  -21.6125   -6.9722   21.1175 O   0  0  0  0  0  0  0  0  0  0  0  0
  -26.6880  -25.0200   20.5962 O   0  0  0  0  0  0  0  0  0  1  0  0
  -17.8788   -6.3592   25.1285 F   0  0  0  0  0  0  0  0  0  0  0  0
  -21.7414   -4.8297   22.8599 F   0  0  0  0  0  0  0  0  0  0  0  0
  1  2  1  0  0  0  0
  1  6  2  0  0  0  0
  2  7  2  0  0  0  0
  3 10  2  0  0  0  0
  3 18  1  0  0  0  0
  4 11  1  0  0  0  0
  4 18  2  0  0  0  0
  5  8  2  0  0  0  0
  5 19  1  0  0  0  0
  6 22  1  0  0  0  0
  7 24  1  0  0  0  0
  8 21  1  0  0  0  0
  9 12  2  0  0  0  0
  9 23  1  0  0  0  0
 10 27  1  0  0  0  0
 11 27  2  0  0  0  0
 12 28  1  0  0  0  0
 13 14  2  0  0  0  0
 13 29  1  0  0  0  0
 14 30  1  0  0  0  0
 15 21  2  0  0  0  0
 15 26  1  0  0  0  0
 16 25  1  0  0  0  0
 16 28  2  0  0  0  0
 17 30  2  0  0  0  0
 17 31  1  0  0  0  0
 18 32  1  0  0  0  0
 19 26  2  0  0  0  0
 19 34  1  0  0  0  0
 20 32  1  0  0  0  0
 20 33  2  0  0  0  0
 20 35  1  0  0  0  0
 21 53  1  0  0  0  0
 22 24  2  0  0  0  0
 22 40  1  0  0  0  0
 23 25  2  0  0  0  0
 23 41  1  0  0  0  0
 24 54  1  0  0  0  0
 25 42  1  0  0  0  0
 26 58  1  0  0  0  0
 27 84  1  0  0  0  0
 28 85  1  0  0  0  0
 29 31  2  0  0  0  0
 29 84  1  0  0  0  0
 30 86  1  0  0  0  0
 31 87  1  0  0  0  0
 32 69  2  0  0  0  0
 33 70  1  0  0  0  0
 33 73  1  0  0  0  0
 34 64  1  0  0  0  0
 34 78  2  0  0  0  0
 35 74  1  0  0  0  0
 35 79  2  0  0  0  0
 36 55  1  0  0  0  0
 36 71  1  0  0  0  0
 36 80  2  0  0  0  0
 37 56  1  0  0  0  0
 37 75  1  0  0  0  0
 37 81  2  0  0  0  0
 38 66  1  0  0  0  0
 38 72  1  0  0  0  0
 38 82  2  0  0  0  0
 39 67  1  0  0  0  0
 39 76  1  0  0  0  0
 39 83  2  0  0  0  0
 40 43  1  0  0  0  0
 41 56  1  0  0  0  0
 42 72  1  0  0  0  0
 43 47  1  0  0  0  0
 44 46  1  0  0  0  0
 44 48  1  0  0  0  0
 45 49  1  0  0  0  0
 45 51  1  0  0  0  0
 46 53  1  0  0  0  0
 47 54  1  0  0  0  0
 48 55  1  0  0  0  0
 49 57  1  0  0  0  0
 50 53  1  0  0  0  0
 50 55  1  0  0  0  0
 51 71  1  0  0  0  0
 52 57  1  0  0  0  0
 52 71  1  0  0  0  0
 54 75  1  0  0  0  0
 56 72  1  0  0  0  0
 57 70  1  0  0  0  0
 59 67  1  0  0  0  0
 60 68  1  0  0  0  0
 61 68  1  0  0  0  0
 62 68  1  0  0  0  0
 63 77  1  0  0  0  0
 64 65  1  0  0  0  0
 65 85  1  0  0  0  0
 66 68  1  0  0  0  0
 66 76  1  0  0  0  0
 67 77  1  0  0  0  0
 69 70  1  0  0  0  0
M  CHG  1  77   1
M  ISO  4  36 100  55 100  65 101  85 101
M  END
> <Batch ID>
0131

> <Smiles>
CNC(C)C(=O)NC(C(=O)N1Cc2cc([101O:1][101CH2:1]CC(=O)c3ccc(C4CCC[100CH:0]([100C:0](=O)N5CCCC(n6nc(-c7ccc(Oc8ccc(F)cc8F)cc7)c(C(N)=O)c6N)C5)C4)cc3C)ccc2CC1C(=O)NC1CCCc2ccccc21)C(C)(C)C

> <Shape>
0.327

> <Color>
0.172

> <Negative vol penalty>
0.000

$$$$

  -OEChem-04052302253D

 83 91  0     1  0  0  0  0  0999 V2000
  -22.9451  -10.2840   19.8984 C   0  0  0  0  0  0  0  0  0  0  0  0
  -22.2025  -11.3678   20.3559 C   0  0  0  0  0  0  0  0  0  0  0  0
  -30.9475  -25.0994   20.8450 C   0  0  0  0  0  0  0  0  0  0  0  0
  -31.1620  -26.1563   18.6831 C   0  0  0  0  0  0  0  0  0  0  0  0
  -21.4944  -26.6319   24.2646 C   0  0  0  0  0  0  0  0  0  0  0  0
  -24.3370  -10.3583   19.8654 C   0  0  0  0  0  0  0  0  0  0  0  0
  -22.8515  -12.5262   20.7819 C   0  0  0  0  0  0  0  0  0  0  0  0
  -20.8861  -18.2918   20.1488 C   0  0  0  0  0  0  0  0  0  0  0  0
  -20.7190  -25.6218   24.8337 C   0  0  0  0  0  0  0  0  0  0  0  0
  -31.9004  -24.1501   20.4755 C   0  0  0  0  0  0  0  0  0  0  0  0
  -32.1149  -25.2071   18.3136 C   0  0  0  0  0  0  0  0  0  0  0  0
  -20.2354  -19.1622   21.0222 C   0  0  0  0  0  0  0  0  0  0  0  0
  -35.4008  -24.6359   18.8584 C   0  0  0  0  0  0  0  0  0  0  0  0
  -36.5540  -25.0920   18.2199 C   0  0  0  0  0  0  0  0  0  0  0  0
  -22.3577  -20.1432   21.6161 C   0  0  0  0  0  0  0  0  0  0  0  0
  -19.0281  -25.9671   23.1429 C   0  0  0  0  0  0  0  0  0  0  0  0
  -36.0236  -23.7351   16.2926 C   0  0  0  0  0  0  0  0  0  0  0  0
  -30.5783  -26.1025   19.9488 C   0  0  0  0  0  0  0  0  0  0  0  0
  -21.0367  -27.3098   23.1346 C   0  0  0  0  0  0  0  0  0  0  0  0
  -29.8257  -28.3213   20.9579 C   0  0  0  0  0  0  0  0  0  0  0  0
  -25.0029  -11.5217   20.2821 C   0  0  0  0  0  0  0  0  0  0  0  0
  -22.2810  -18.3333   20.0104 C   0  0  0  0  0  0  0  0  0  0  0  0
  -24.2536  -12.6156   20.7557 C   0  0  0  0  0  0  0  0  0  0  0  0
  -23.0234  -19.2740   20.7384 C   0  0  0  0  0  0  0  0  0  0  0  0
  -19.4859  -25.2894   24.2729 C   0  0  0  0  0  0  0  0  0  0  0  0
  -19.8035  -26.9773   22.5738 C   0  0  0  0  0  0  0  0  0  0  0  0
  -32.4841  -24.2040   19.2098 C   0  0  0  0  0  0  0  0  0  0  0  0
  -20.9715  -20.0861   21.7581 C   0  0  0  0  0  0  0  0  0  0  0  0
  -34.5590  -23.7293   18.2140 C   0  0  0  0  0  0  0  0  0  0  0  0
  -36.8654  -24.6416   16.9370 C   0  0  0  0  0  0  0  0  0  0  0  0
  -34.8704  -23.2789   16.9311 C   0  0  0  0  0  0  0  0  0  0  0  0
  -29.5936  -27.0830   20.3297 C   0  0  0  0  0  0  0  0  0  0  0  0
  -28.5761  -28.8725   21.1025 C   0  0  0  0  0  0  0  0  0  0  0  0
  -21.8665  -28.3604   22.5607 C   0  0  0  0  0  0  0  0  0  0  0  0
  -31.0606  -28.9197   21.3735 C   0  0  0  0  0  0  0  0  0  0  0  0
  -23.3391  -28.3162   22.6619 C   0  0  0  0  0  0  0  0  0  0  0  0
  -24.6503  -16.2832   20.5463 C   0  0  0  0  0  0  0  0  0  0  0  0
  -26.4508  -18.6081   19.1768 C   0  0  0  0  0  0  0  0  0  0  0  0
  -26.8205  -21.9133   18.4115 C   0  0  0  0  0  0  0  0  0  0  0  0
  -26.5110  -11.5377   20.2727 C   0  0  0  0  0  0  0  0  0  0  0  0
  -22.9651  -17.4056   19.0442 C   0  0  0  0  0  0  0  0  0  0  0  0
  -24.5209  -19.3728   20.6108 C   0  0  0  0  0  0  0  0  0  0  0  0
  -27.1060  -12.9386   20.3892 C   0  0  0  0  0  0  0  0  0  0  0  0
  -24.1199  -27.5136   19.1722 C   0  0  0  0  0  0  0  0  0  0  0  0
  -26.4141  -13.7218   21.5004 C   0  0  0  0  0  0  0  0  0  0  0  0
  -25.6397  -27.3858   19.2332 C   0  0  0  0  0  0  0  0  0  0  0  0
  -23.4534  -27.0307   20.4595 C   0  0  0  0  0  0  0  0  0  0  0  0
  -25.5010  -27.5642   21.7490 C   0  0  0  0  0  0  0  0  0  0  0  0
  -24.9202  -13.8985   21.2029 C   0  0  1  0  0  0  0  0  0  0  0  0
  -24.4405  -17.1894   19.3663 C   0  0  1  0  0  0  0  0  0  0  0  0
  -26.1953  -28.0883   20.4822 C   0  0  1  0  0  0  0  0  0  0  0  0
  -19.2896  -27.6865   21.3635 C   0  0  0  0  0  0  0  0  0  0  0  0
  -28.4142  -23.5167   17.3222 C   0  0  0  0  0  0  0  0  0  0  0  0
  -28.2413  -18.5014   21.6451 C   0  0  0  0  0  0  0  0  0  0  0  0
  -29.2051  -20.7068   20.9554 C   0  0  0  0  0  0  0  0  0  0  0  0
  -29.4670  -18.7157   19.4757 C   0  0  0  0  0  0  0  0  0  0  0  0
  -24.8329  -22.6721   16.3541 C   0  0  0  0  0  0  0  0  0  0  0  0
  -18.6481  -24.1966   24.8875 C   0  0  0  0  0  0  0  0  0  0  0  0
  -18.9339  -22.8026   24.3178 C   0  0  0  0  0  0  0  0  0  0  0  0
  -18.7523  -22.7270   22.8012 C   0  0  0  0  0  0  0  0  0  0  0  0
  -19.0057  -21.3199   22.2773 C   0  0  0  0  0  0  0  0  0  1  0  0
  -27.2005  -19.8169   19.6824 C   0  0  1  0  0  0  0  0  0  0  0  0
  -27.2094  -22.6109   17.1205 C   0  0  2  0  0  0  0  0  0  0  0  0
  -28.5005  -19.4323   20.4437 C   0  0  0  0  0  0  0  0  0  0  0  0
  -28.2983  -26.8603   20.0918 N   0  0  0  0  0  0  0  0  0  0  0  0
  -21.3777  -29.3914   21.9285 N   0  0  0  0  0  0  0  0  0  0  0  0
  -27.7053  -27.9661   20.5731 N   0  0  0  0  0  0  0  0  0  0  0  0
  -24.0417  -27.6736   21.6441 N   0  0  0  0  0  0  0  0  0  0  0  0
  -25.1445  -18.4399   19.6578 N   0  0  0  0  0  0  0  0  0  0  0  0
  -28.1481  -30.0393   21.6297 N   0  0  0  0  0  0  0  0  0  0  0  0
  -32.2524  -28.2171   21.1491 N   0  0  0  0  0  0  0  0  0  0  0  0
  -24.7205  -14.9422   20.2204 N   0  0  0  0  0  0  0  0  0  0  0  0
  -27.4187  -20.6760   18.5236 N   0  0  0  0  0  0  0  0  0  0  0  0
  -26.0772  -23.4396   16.6182 N   0  3  0  0  0  0  0  0  0  0  0  0
  -31.1043  -30.0369   21.9423 O   0  0  0  0  0  0  0  0  0  0  0  0
  -23.8577  -28.8477   23.6454 O   0  0  0  0  0  0  0  0  0  0  0  0
  -24.7431  -16.7651   21.6692 O   0  0  0  0  0  0  0  0  0  0  0  0
  -27.0012  -17.8452   18.3789 O   0  0  0  0  0  0  0  0  0  0  0  0
  -26.0649  -22.4172   19.2394 O   0  0  0  0  0  0  0  0  0  0  0  0
  -33.4141  -23.2780   18.8490 O   0  0  0  0  0  0  0  0  0  0  0  0
  -20.3389  -20.9364   22.6118 O   0  0  0  0  0  0  0  0  0  1  0  0
  -37.9720  -25.0809   16.3233 F   0  0  0  0  0  0  0  0  0  0  0  0
  -34.0649  -22.4089   16.3066 F   0  0  0  0  0  0  0  0  0  0  0  0
  1  2  1  0  0  0  0
  1  6  2  0  0  0  0
  2  7  2  0  0  0  0
  3 10  2  0  0  0  0
  3 18  1  0  0  0  0
  4 11  1  0  0  0  0
  4 18  2  0  0  0  0
  5  9  2  0  0  0  0
  5 19  1  0  0  0  0
  6 21  1  0  0  0  0
  7 23  1  0  0  0  0
  8 12  2  0  0  0  0
  8 22  1  0  0  0  0
  9 25  1  0  0  0  0
 10 27  1  0  0  0  0
 11 27  2  0  0  0  0
 12 28  1  0  0  0  0
 13 14  2  0  0  0  0
 13 29  1  0  0  0  0
 14 30  1  0  0  0  0
 15 24  1  0  0  0  0
 15 28  2  0  0  0  0
 16 25  2  0  0  0  0
 16 26  1  0  0  0  0
 17 30  2  0  0  0  0
 17 31  1  0  0  0  0
 18 32  1  0  0  0  0
 19 26  2  0  0  0  0
 19 34  1  0  0  0  0
 20 32  1  0  0  0  0
 20 33  2  0  0  0  0
 20 35  1  0  0  0  0
 21 23  2  0  0  0  0
 21 40  1  0  0  0  0
 22 24  2  0  0  0  0
 22 41  1  0  0  0  0
 23 49  1  0  0  0  0
 24 42  1  0  0  0  0
 25 58  1  0  0  0  0
 26 52  1  0  0  0  0
 27 80  1  0  0  0  0
 28 81  1  0  0  0  0
 29 31  2  0  0  0  0
 29 80  1  0  0  0  0
 30 82  1  0  0  0  0
 31 83  1  0  0  0  0
 32 65  2  0  0  0  0
 33 67  1  0  0  0  0
 33 70  1  0  0  0  0
 34 36  1  0  0  0  0
 34 66  2  0  0  0  0
 35 71  1  0  0  0  0
 35 75  2  0  0  0  0
 36 68  1  0  0  0  0
 36 76  2  0  0  0  0
 37 50  1  0  0  0  0
 37 72  1  0  0  0  0
 37 77  2  0  0  0  0
 38 62  1  0  0  0  0
 38 69  1  0  0  0  0
 38 78  2  0  0  0  0
 39 63  1  0  0  0  0
 39 73  1  0  0  0  0
 39 79  2  0  0  0  0
 40 43  1  0  0  0  0
 41 50  1  0  0  0  0
 42 69  1  0  0  0  0
 43 45  1  0  0  0  0
 44 46  1  0  0  0  0
 44 47  1  0  0  0  0
 45 49  1  0  0  0  0
 46 51  1  0  0  0  0
 47 68  1  0  0  0  0
 48 51  1  0  0  0  0
 48 68  1  0  0  0  0
 49 72  1  0  0  0  0
 50 69  1  0  0  0  0
 51 67  1  0  0  0  0
 53 63  1  0  0  0  0
 54 64  1  0  0  0  0
 55 64  1  0  0  0  0
 56 64  1  0  0  0  0
 57 74  1  0  0  0  0
 58 59  1  0  0  0  0
 59 60  1  0  0  0  0
 60 61  1  0  0  0  0
 61 81  1  0  0  0  0
 62 64  1  0  0  0  0
 62 73  1  0  0  0  0
 63 74  1  0  0  0  0
 65 67  1  0  0  0  0
M  CHG  1  74   1
M  ISO  4  34 100  36 100  61 101  81 101
M  END
> <Batch ID>
0131

> <Smiles>
CNC(C)C(=O)NC(C(=O)N1Cc2cc([101O:1][101CH2:1]CCCc3ccc([100C:0](=N)[100C:0](=O)N4CCCC(n5nc(-c6ccc(Oc7ccc(F)cc7F)cc6)c(C(N)=O)c5N)C4)c(C)c3)ccc2CC1C(=O)NC1CCCc2ccccc21)C(C)(C)C

> <Shape>
0.208

> <Color>
0.080

> <Negative vol penalty>
0.000

$$$$

  -OEChem-04052302253D

 83 91  0     1  0  0  0  0  0999 V2000
  -27.6767  -31.4391   27.9094 C   0  0  0  0  0  0  0  0  0  0  0  0
  -27.8872  -30.5415   26.8676 C   0  0  0  0  0  0  0  0  0  0  0  0
  -23.0770   -7.7370   23.6546 C   0  0  0  0  0  0  0  0  0  0  0  0
  -20.9240   -8.3257   22.7297 C   0  0  0  0  0  0  0  0  0  0  0  0
  -28.7061  -18.8009   21.1650 C   0  0  0  0  0  0  0  0  0  0  0  0
  -28.9301  -18.6226   18.7660 C   0  0  0  0  0  0  0  0  0  0  0  0
  -26.3787  -31.8159   28.2517 C   0  0  0  0  0  0  0  0  0  0  0  0
  -26.7997  -30.0193   26.1682 C   0  0  0  0  0  0  0  0  0  0  0  0
  -27.5224  -30.0396   21.1560 C   0  0  0  0  0  0  0  0  0  0  0  0
  -29.1190  -20.1318   21.1046 C   0  0  0  0  0  0  0  0  0  0  0  0
  -29.3429  -19.9536   18.7056 C   0  0  0  0  0  0  0  0  0  0  0  0
  -22.4557   -6.8575   24.5411 C   0  0  0  0  0  0  0  0  0  0  0  0
  -20.3027   -7.4461   23.6163 C   0  0  0  0  0  0  0  0  0  0  0  0
  -28.3349  -29.0384   20.6258 C   0  0  0  0  0  0  0  0  0  0  0  0
  -21.1408   -3.7437   24.4495 C   0  0  0  0  0  0  0  0  0  0  0  0
  -21.7046   -2.4779   24.6087 C   0  0  0  0  0  0  0  0  0  0  0  0
  -26.3711  -27.8028   19.9654 C   0  0  0  0  0  0  0  0  0  0  0  0
  -22.0320   -2.9196   26.9614 C   0  0  0  0  0  0  0  0  0  0  0  0
  -22.3112   -8.4712   22.7489 C   0  0  0  0  0  0  0  0  0  0  0  0
  -28.6117  -18.0462   19.9956 C   0  0  0  0  0  0  0  0  0  0  0  0
  -23.4281   -9.0901   20.5405 C   0  0  0  0  0  0  0  0  0  0  0  0
  -25.2753  -31.3055   27.5499 C   0  0  0  0  0  0  0  0  0  0  0  0
  -26.1257  -29.9246   21.1045 C   0  0  0  0  0  0  0  0  0  0  0  0
  -25.4857  -30.3886   26.5024 C   0  0  0  0  0  0  0  0  0  0  0  0
  -25.5431  -28.8051   20.4934 C   0  0  0  0  0  0  0  0  0  0  0  0
  -29.4373  -20.7082   19.8750 C   0  0  0  0  0  0  0  0  0  0  0  0
  -21.0685   -6.7120   24.5220 C   0  0  0  0  0  0  0  0  0  0  0  0
  -27.7593  -27.9184   20.0329 C   0  0  0  0  0  0  0  0  0  0  0  0
  -21.0226   -4.5975   25.5462 C   0  0  0  0  0  0  0  0  0  0  0  0
  -22.1501   -2.0658   25.8646 C   0  0  0  0  0  0  0  0  0  0  0  0
  -21.4682   -4.1854   26.8021 C   0  0  0  0  0  0  0  0  0  0  0  0
  -22.9523   -9.3803   21.8332 C   0  0  0  0  0  0  0  0  0  0  0  0
  -23.9460  -10.2798   20.0900 C   0  0  0  0  0  0  0  0  0  0  0  0
  -28.1814  -16.6582   20.0583 C   0  0  0  0  0  0  0  0  0  0  0  0
  -27.4962  -16.0959   21.0767 C   0  0  0  0  0  0  0  0  0  0  0  0
  -23.4040   -7.8555   19.8119 C   0  0  0  0  0  0  0  0  0  0  0  0
  -27.1213  -14.6703   20.9876 C   0  0  0  0  0  0  0  0  0  0  0  0
  -23.8080  -29.7499   23.2728 C   0  0  0  0  0  0  0  0  0  0  0  0
  -29.1551  -24.5957   19.6208 C   0  0  0  0  0  0  0  0  0  0  0  0
  -21.8874  -29.9165   20.6640 C   0  0  0  0  0  0  0  0  0  0  0  0
  -21.5085  -29.4204   17.3088 C   0  0  0  0  0  0  0  0  0  0  0  0
  -23.8885  -31.7058   27.9872 C   0  0  0  0  0  0  0  0  0  0  0  0
  -25.2632  -31.0259   21.6571 C   0  0  0  0  0  0  0  0  0  0  0  0
  -24.0489  -28.6434   20.3946 C   0  0  0  0  0  0  0  0  0  0  0  0
  -22.8101  -31.3954   26.9522 C   0  0  0  0  0  0  0  0  0  0  0  0
  -23.5970  -14.9532   21.9523 C   0  0  0  0  0  0  0  0  0  0  0  0
  -22.9817  -29.9798   26.4107 C   0  0  0  0  0  0  0  0  0  0  0  0
  -23.1719  -13.4872   21.9449 C   0  0  0  0  0  0  0  0  0  0  0  0
  -25.0466  -15.1259   22.4033 C   0  0  0  0  0  0  0  0  0  0  0  0
  -25.5911  -12.8420   21.6109 C   0  0  0  0  0  0  0  0  0  0  0  0
  -24.3331  -29.8194   25.7039 C   0  0  1  0  0  0  0  0  0  0  0  0
  -23.8533  -30.5613   22.0089 C   0  0  1  0  0  0  0  0  0  0  0  0
  -24.1505  -12.6410   21.1153 C   0  0  1  0  0  0  0  0  0  0  0  0
  -19.8134  -29.6113   15.4683 C   0  0  0  0  0  0  0  0  0  0  0  0
  -20.5190  -27.3794   21.6644 C   0  0  0  0  0  0  0  0  0  0  0  0
  -19.5300  -27.0963   19.3819 C   0  0  0  0  0  0  0  0  0  0  0  0
  -18.9651  -29.1089   20.7431 C   0  0  0  0  0  0  0  0  0  0  0  0
  -23.1597  -31.3845   15.8342 C   0  0  0  0  0  0  0  0  0  0  0  0
  -29.8819  -22.1498   19.8101 C   0  0  0  0  0  0  0  0  0  0  0  0
  -28.7259  -23.1357   19.6306 C   0  0  0  0  0  0  0  0  0  0  0  0
  -28.0318  -25.6099   19.5303 C   0  0  0  0  0  0  0  0  0  1  0  0
  -21.2704  -28.9086   19.7245 C   0  0  1  0  0  0  0  0  0  0  0  0
  -20.9385  -30.3082   16.2173 C   0  0  2  0  0  0  0  0  0  0  0  0
  -20.0993  -28.1251   20.3819 C   0  0  0  0  0  0  0  0  0  0  0  0
  -23.1505  -10.6545   22.1816 N   0  0  0  0  0  0  0  0  0  0  0  0
  -23.7566  -11.1753   21.1011 N   0  0  0  0  0  0  0  0  0  0  0  0
  -25.9559  -14.2629   21.6344 N   0  0  0  0  0  0  0  0  0  0  0  0
  -23.2480  -29.7443   20.9551 N   0  0  0  0  0  0  0  0  0  0  0  0
  -24.5404  -10.6367   18.9317 N   0  0  0  0  0  0  0  0  0  0  0  0
  -22.8345   -6.7300   20.4231 N   0  0  0  0  0  0  0  0  0  0  0  0
  -24.2875  -30.4144   24.3854 N   0  0  0  0  0  0  0  0  0  0  0  0
  -20.8956  -29.6465   18.5231 N   0  0  0  0  0  0  0  0  0  0  0  0
  -22.0011  -30.6714   15.2375 N   0  3  0  0  0  0  0  0  0  0  0  0
  -23.8882   -7.7493   18.6596 O   0  0  0  0  0  0  0  0  0  0  0  0
  -27.8667  -13.9252   20.3489 O   0  0  0  0  0  0  0  0  0  0  0  0
  -23.3690  -28.6063   23.2411 O   0  0  0  0  0  0  0  0  0  0  0  0
  -30.3316  -24.9414   19.7159 O   0  0  0  0  0  0  0  0  0  0  0  0
  -21.1896  -30.8272   21.1169 O   0  0  0  0  0  0  0  0  0  0  0  0
  -22.4050  -28.6050   17.1038 O   0  0  0  0  0  0  0  0  0  0  0  0
  -20.4619   -5.8537   25.3867 O   0  0  0  0  0  0  0  0  0  0  0  0
  -28.5501  -26.9394   19.5152 O   0  0  0  0  0  0  0  0  0  1  0  0
  -22.6901   -0.8495   26.0177 F   0  0  0  0  0  0  0  0  0  0  0  0
  -21.3563   -5.0008   27.8597 F   0  0  0  0  0  0  0  0  0  0  0  0
  1  2  1  0  0  0  0
  1  7  2  0  0  0  0
  2  8  2  0  0  0  0
  3 12  2  0  0  0  0
  3 19  1  0  0  0  0
  4 13  1  0  0  0  0
  4 19  2  0  0  0  0
  5 10  2  0  0  0  0
  5 20  1  0  0  0  0
  6 11  1  0  0  0  0
  6 20  2  0  0  0  0
  7 22  1  0  0  0  0
  8 24  1  0  0  0  0
  9 14  2  0  0  0  0
  9 23  1  0  0  0  0
 10 26  1  0  0  0  0
 11 26  2  0  0  0  0
 12 27  1  0  0  0  0
 13 27  2  0  0  0  0
 14 28  1  0  0  0  0
 15 16  2  0  0  0  0
 15 29  1  0  0  0  0
 16 30  1  0  0  0  0
 17 25  1  0  0  0  0
 17 28  2  0  0  0  0
 18 30  2  0  0  0  0
 18 31  1  0  0  0  0
 19 32  1  0  0  0  0
 20 34  1  0  0  0  0
 21 32  1  0  0  0  0
 21 33  2  0  0  0  0
 21 36  1  0  0  0  0
 22 24  2  0  0  0  0
 22 42  1  0  0  0  0
 23 25  2  0  0  0  0
 23 43  1  0  0  0  0
 24 51  1  0  0  0  0
 25 44  1  0  0  0  0
 26 59  1  0  0  0  0
 27 80  1  0  0  0  0
 28 81  1  0  0  0  0
 29 31  2  0  0  0  0
 29 80  1  0  0  0  0
 30 82  1  0  0  0  0
 31 83  1  0  0  0  0
 32 65  2  0  0  0  0
 33 66  1  0  0  0  0
 33 69  1  0  0  0  0
 34 35  2  0  0  0  0
 35 37  1  0  0  0  0
 36 70  1  0  0  0  0
 36 74  2  0  0  0  0
 37 67  1  0  0  0  0
 37 75  2  0  0  0  0
 38 52  1  0  0  0  0
 38 71  1  0  0  0  0
 38 76  2  0  0  0  0
 39 60  1  0  0  0  0
 39 61  1  0  0  0  0
 39 77  2  0  0  0  0
 40 62  1  0  0  0  0
 40 68  1  0  0  0  0
 40 78  2  0  0  0  0
 41 63  1  0  0  0  0
 41 72  1  0  0  0  0
 41 79  2  0  0  0  0
 42 45  1  0  0  0  0
 43 52  1  0  0  0  0
 44 68  1  0  0  0  0
 45 47  1  0  0  0  0
 46 48  1  0  0  0  0
 46 49  1  0  0  0  0
 47 51  1  0  0  0  0
 48 53  1  0  0  0  0
 49 67  1  0  0  0  0
 50 53  1  0  0  0  0
 50 67  1  0  0  0  0
 51 71  1  0  0  0  0
 52 68  1  0  0  0  0
 53 66  1  0  0  0  0
 54 63  1  0  0  0  0
 55 64  1  0  0  0  0
 56 64  1  0  0  0  0
 57 64  1  0  0  0  0
 58 73  1  0  0  0  0
 59 60  1  0  0  0  0
 61 81  1  0  0  0  0
 62 64  1  0  0  0  0
 62 72  1  0  0  0  0
 63 73  1  0  0  0  0
 65 66  1  0  0  0  0
M  CHG  1  73   1
M  ISO  4  35 100  37 100  61 101  81 101
M  END
> <Batch ID>
0131

> <Smiles>
CNC(C)C(=O)NC(C(=O)N1Cc2cc([101O:1][101CH2:1]C(=O)CCc3ccc(C=[100CH:0][100C:0](=O)N4CCCC(n5nc(-c6ccc(Oc7ccc(F)cc7F)cc6)c(C(N)=O)c5N)C4)cc3)ccc2CC1C(=O)NC1CCCc2ccccc21)C(C)(C)C

> <Shape>
0.291

> <Color>
0.079

> <Negative vol penalty>
0.000

$$$$

  -OEChem-04052302253D

 84 92  0     1  0  0  0  0  0999 V2000
  -29.7091  -25.2621   17.3410 C   0  0  0  0  0  0  0  0  0  0  0  0
  -28.3281  -25.4124   17.4164 C   0  0  0  0  0  0  0  0  0  0  0  0
  -25.2746  -14.2255   18.9389 C   0  0  0  0  0  0  0  0  0  0  0  0
  -24.4034  -14.3657   21.1880 C   0  0  0  0  0  0  0  0  0  0  0  0
  -30.5095  -25.6335   18.4206 C   0  0  0  0  0  0  0  0  0  0  0  0
  -27.7466  -25.9331   18.5718 C   0  0  0  0  0  0  0  0  0  0  0  0
  -22.7813  -29.5024   18.9071 C   0  0  0  0  0  0  0  0  0  0  0  0
  -20.9627  -26.0339   21.7926 C   0  0  0  0  0  0  0  0  0  0  0  0
  -21.9418  -25.0580   21.6067 C   0  0  0  0  0  0  0  0  0  0  0  0
  -25.7699  -12.9501   19.2102 C   0  0  0  0  0  0  0  0  0  0  0  0
  -24.8987  -13.0903   21.4593 C   0  0  0  0  0  0  0  0  0  0  0  0
  -21.4442  -29.2253   19.1881 C   0  0  0  0  0  0  0  0  0  0  0  0
  -28.4262  -11.5970   20.8031 C   0  0  0  0  0  0  0  0  0  0  0  0
  -29.7250  -11.3049   20.3867 C   0  0  0  0  0  0  0  0  0  0  0  0
  -21.8102  -29.8285   21.4949 C   0  0  0  0  0  0  0  0  0  0  0  0
  -19.2550  -24.3251   21.7695 C   0  0  0  0  0  0  0  0  0  0  0  0
  -28.8791   -9.5109   19.0071 C   0  0  0  0  0  0  0  0  0  0  0  0
  -24.5914  -14.9333   19.9278 C   0  0  0  0  0  0  0  0  0  0  0  0
  -22.8104  -16.5793   19.1363 C   0  0  0  0  0  0  0  0  0  0  0  0
  -29.9383  -26.1680   19.5861 C   0  0  0  0  0  0  0  0  0  0  0  0
  -23.6471  -29.9349   19.9219 C   0  0  0  0  0  0  0  0  0  0  0  0
  -28.5400  -26.3107   19.6685 C   0  0  0  0  0  0  0  0  0  0  0  0
  -23.1572  -30.1129   21.2236 C   0  0  0  0  0  0  0  0  0  0  0  0
  -19.6193  -25.6675   21.8740 C   0  0  0  0  0  0  0  0  0  0  0  0
  -20.2340  -23.3491   21.5837 C   0  0  0  0  0  0  0  0  0  0  0  0
  -21.5775  -23.7156   21.5022 C   0  0  0  0  0  0  0  0  0  0  0  0
  -25.5820  -12.3825   20.4704 C   0  0  0  0  0  0  0  0  0  0  0  0
  -20.9591  -29.3855   20.4827 C   0  0  0  0  0  0  0  0  0  0  0  0
  -27.3538  -10.8461   20.3216 C   0  0  0  0  0  0  0  0  0  0  0  0
  -29.9514  -10.2619   19.4886 C   0  0  0  0  0  0  0  0  0  0  0  0
  -27.5803   -9.8031   19.4236 C   0  0  0  0  0  0  0  0  0  0  0  0
  -24.0800  -16.2511   19.6483 C   0  0  0  0  0  0  0  0  0  0  0  0
  -22.8171  -17.9503   19.0544 C   0  0  0  0  0  0  0  0  0  0  0  0
  -21.7222  -15.7216   18.7678 C   0  0  0  0  0  0  0  0  0  0  0  0
  -26.3001  -28.7899   21.2463 C   0  0  0  0  0  0  0  0  0  0  0  0
  -26.2921  -31.6402   22.7949 C   0  0  0  0  0  0  0  0  0  0  0  0
  -24.5036  -34.3171   23.9274 C   0  0  0  0  0  0  0  0  0  0  0  0
  -23.9612  -22.9534   21.2139 C   0  0  0  0  0  0  0  0  0  0  0  0
  -30.8403  -26.5111   20.7452 C   0  0  0  0  0  0  0  0  0  0  0  0
  -25.0803  -30.2553   19.5969 C   0  0  0  0  0  0  0  0  0  0  0  0
  -24.0407  -30.5943   22.3445 C   0  0  0  0  0  0  0  0  0  0  0  0
  -30.1763  -27.4041   21.7902 C   0  0  0  0  0  0  0  0  0  0  0  0
  -26.6142  -21.2610   19.5481 C   0  0  0  0  0  0  0  0  0  0  0  0
  -28.7834  -26.8834   22.1299 C   0  0  0  0  0  0  0  0  0  0  0  0
  -26.0869  -19.8337   19.3835 C   0  0  0  0  0  0  0  0  0  0  0  0
  -26.1757  -21.8781   20.8750 C   0  0  0  0  0  0  0  0  0  0  0  0
  -24.2038  -20.4044   20.9694 C   0  0  0  0  0  0  0  0  0  0  0  0
  -27.8739  -26.8949   20.8953 C   0  0  1  0  0  0  0  0  0  0  0  0
  -25.9967  -30.1969   20.8152 C   0  0  1  0  0  0  0  0  0  0  0  0
  -24.5653  -19.7644   19.6191 C   0  0  2  0  0  0  0  0  0  0  0  0
  -19.8383  -21.4210   20.0305 C   0  0  0  0  0  0  0  0  0  0  0  0
  -24.7662  -36.4695   25.1905 C   0  0  0  0  0  0  0  0  0  0  0  0
  -26.4935  -30.0789   25.4086 C   0  0  0  0  0  0  0  0  0  0  0  0
  -25.8017  -32.1567   26.6220 C   0  0  0  0  0  0  0  0  0  0  0  0
  -27.9207  -32.1300   25.3060 C   0  0  0  0  0  0  0  0  0  0  0  0
  -17.2655  -26.2921   19.9081 C   0  0  0  0  0  0  0  0  0  0  0  0
  -16.8545  -28.3574   21.2400 C   0  0  0  0  0  0  0  0  0  0  0  0
  -23.5695  -35.9193   21.6210 C   0  0  0  0  0  0  0  0  0  0  0  0
  -18.5587  -26.7249   22.0729 C   0  0  0  0  0  0  0  0  0  0  0  0
  -19.8147  -21.9191   21.4720 C   0  0  0  0  0  0  0  0  0  0  0  0
  -19.0176  -28.1108   19.9711 C   0  0  0  0  0  0  0  0  0  1  0  0
  -25.7054  -32.1527   24.0879 C   0  0  1  0  0  0  0  0  0  0  0  0
  -24.7496  -35.8112   23.8197 C   0  0  2  0  0  0  0  0  0  0  0  0
  -26.4639  -31.6186   25.3357 C   0  0  0  0  0  0  0  0  0  0  0  0
  -17.9443  -27.3582   20.7898 C   0  0  0  0  0  0  0  0  0  0  0  0
  -24.8382  -17.3270   19.8755 N   0  0  0  0  0  0  0  0  0  0  0  0
  -24.0428  -18.3446   19.5044 N   0  0  0  0  0  0  0  0  0  0  0  0
  -25.4360  -30.8883   21.9779 N   0  0  0  0  0  0  0  0  0  0  0  0
  -24.7224  -21.7801   21.0272 N   0  0  0  0  0  0  0  0  0  0  0  0
  -21.8942  -18.8450   18.6419 N   0  0  0  0  0  0  0  0  0  0  0  0
  -21.8831  -14.3371   18.9156 N   0  0  0  0  0  0  0  0  0  0  0  0
  -22.5869  -22.7392   21.3136 N   0  0  0  0  0  0  0  0  0  0  0  0
  -27.4042  -28.2371   20.6261 N   0  0  0  0  0  0  0  0  0  0  0  0
  -25.6847  -33.6074   23.9786 N   0  0  0  0  0  0  0  0  0  0  0  0
  -23.6823  -36.4543   23.0023 N   0  3  0  0  0  0  0  0  0  0  0  0
  -20.6452  -16.1685   18.3052 O   0  0  0  0  0  0  0  0  0  0  0  0
  -25.5862  -28.2465   22.0811 O   0  0  0  0  0  0  0  0  0  0  0  0
  -27.4646  -31.9036   22.5165 O   0  0  0  0  0  0  0  0  0  0  0  0
  -23.3764  -33.8287   23.9662 O   0  0  0  0  0  0  0  0  0  0  0  0
  -24.4871  -24.0687   21.2533 O   0  0  0  0  0  0  0  0  0  0  0  0
  -26.0649  -11.1379   20.7354 O   0  0  0  0  0  0  0  0  0  0  0  0
  -19.6545  -29.1151   20.7598 O   0  0  0  0  0  0  0  0  0  1  0  0
  -31.1985   -9.9824   19.0876 F   0  0  0  0  0  0  0  0  0  0  0  0
  -26.5540   -9.0789   18.9566 F   0  0  0  0  0  0  0  0  0  0  0  0
  1  2  1  0  0  0  0
  1  5  2  0  0  0  0
  2  6  2  0  0  0  0
  3 10  2  0  0  0  0
  3 18  1  0  0  0  0
  4 11  1  0  0  0  0
  4 18  2  0  0  0  0
  5 20  1  0  0  0  0
  6 22  1  0  0  0  0
  7 12  2  0  0  0  0
  7 21  1  0  0  0  0
  8  9  2  0  0  0  0
  8 24  1  0  0  0  0
  9 26  1  0  0  0  0
 10 27  1  0  0  0  0
 11 27  2  0  0  0  0
 12 28  1  0  0  0  0
 13 14  2  0  0  0  0
 13 29  1  0  0  0  0
 14 30  1  0  0  0  0
 15 23  1  0  0  0  0
 15 28  2  0  0  0  0
 16 24  2  0  0  0  0
 16 25  1  0  0  0  0
 17 30  2  0  0  0  0
 17 31  1  0  0  0  0
 18 32  1  0  0  0  0
 19 32  1  0  0  0  0
 19 33  2  0  0  0  0
 19 34  1  0  0  0  0
 20 22  2  0  0  0  0
 20 39  1  0  0  0  0
 21 23  2  0  0  0  0
 21 40  1  0  0  0  0
 22 48  1  0  0  0  0
 23 41  1  0  0  0  0
 24 59  1  0  0  0  0
 25 26  2  0  0  0  0
 25 60  1  0  0  0  0
 26 72  1  0  0  0  0
 27 81  1  0  0  0  0
 28 82  1  0  0  0  0
 29 31  2  0  0  0  0
 29 81  1  0  0  0  0
 30 83  1  0  0  0  0
 31 84  1  0  0  0  0
 32 66  2  0  0  0  0
 33 67  1  0  0  0  0
 33 70  1  0  0  0  0
 34 71  1  0  0  0  0
 34 76  2  0  0  0  0
 35 49  1  0  0  0  0
 35 73  1  0  0  0  0
 35 77  2  0  0  0  0
 36 62  1  0  0  0  0
 36 68  1  0  0  0  0
 36 78  2  0  0  0  0
 37 63  1  0  0  0  0
 37 74  1  0  0  0  0
 37 79  2  0  0  0  0
 38 69  1  0  0  0  0
 38 72  1  0  0  0  0
 38 80  2  0  0  0  0
 39 42  1  0  0  0  0
 40 49  1  0  0  0  0
 41 68  1  0  0  0  0
 42 44  1  0  0  0  0
 43 45  1  0  0  0  0
 43 46  1  0  0  0  0
 44 48  1  0  0  0  0
 45 50  1  0  0  0  0
 46 69  1  0  0  0  0
 47 50  1  0  0  0  0
 47 69  1  0  0  0  0
 48 73  1  0  0  0  0
 49 68  1  0  0  0  0
 50 67  1  0  0  0  0
 51 60  1  0  0  0  0
 52 63  1  0  0  0  0
 53 64  1  0  0  0  0
 54 64  1  0  0  0  0
 55 64  1  0  0  0  0
 56 65  1  0  0  0  0
 57 65  1  0  0  0  0
 58 75  1  0  0  0  0
 59 65  1  0  0  0  0
 61 65  1  0  0  0  0
 61 82  1  0  0  0  0
 62 64  1  0  0  0  0
 62 74  1  0  0  0  0
 63 75  1  0  0  0  0
 66 67  1  0  0  0  0
M  CHG  1  75   1
M  ISO  4  38 100  61 101  72 100  82 101
M  END
> <Batch ID>
0131

> <Smiles>
CCc1cc(CC(C)(C)[101CH2:1][101O:1]c2ccc3c(c2)CN(C(=O)C(NC(=O)C(C)NC)C(C)(C)C)C(C(=O)NC2CCCc4ccccc42)C3)ccc1[100NH:0][100C:0](=O)N1CCCC(n2nc(-c3ccc(Oc4ccc(F)cc4F)cc3)c(C(N)=O)c2N)C1

> <Shape>
0.272

> <Color>
0.072

> <Negative vol penalty>
0.000

$$$$

  -OEChem-04052302253D

 82 90  0     1  0  0  0  0  0999 V2000
  -30.1418  -24.4748   16.9412 C   0  0  0  0  0  0  0  0  0  0  0  0
  -28.9120  -24.4495   17.5912 C   0  0  0  0  0  0  0  0  0  0  0  0
  -17.5450  -21.3932   23.4080 C   0  0  0  0  0  0  0  0  0  0  0  0
  -29.3922  -17.5443   21.4771 C   0  0  0  0  0  0  0  0  0  0  0  0
  -29.1502  -17.5456   19.0732 C   0  0  0  0  0  0  0  0  0  0  0  0
  -18.2480  -20.1944   23.2887 C   0  0  0  0  0  0  0  0  0  0  0  0
  -31.1884  -25.2350   17.4614 C   0  0  0  0  0  0  0  0  0  0  0  0
  -28.7285  -25.1836   18.7624 C   0  0  0  0  0  0  0  0  0  0  0  0
  -24.3423  -27.7143   18.8019 C   0  0  0  0  0  0  0  0  0  0  0  0
  -18.2341  -22.6057   23.4394 C   0  0  0  0  0  0  0  0  0  0  0  0
  -30.3381  -16.5237   21.3813 C   0  0  0  0  0  0  0  0  0  0  0  0
  -30.0961  -16.5250   18.9774 C   0  0  0  0  0  0  0  0  0  0  0  0
  -23.1889  -26.9849   19.0869 C   0  0  0  0  0  0  0  0  0  0  0  0
  -32.1817  -13.6731   18.1250 C   0  0  0  0  0  0  0  0  0  0  0  0
  -31.8990  -12.6049   17.2738 C   0  0  0  0  0  0  0  0  0  0  0  0
  -20.3291  -21.4203   23.2324 C   0  0  0  0  0  0  0  0  0  0  0  0
  -23.2486  -27.7902   21.3601 C   0  0  0  0  0  0  0  0  0  0  0  0
  -29.9161  -12.1045   18.5602 C   0  0  0  0  0  0  0  0  0  0  0  0
  -28.7981  -18.0552   20.3230 C   0  0  0  0  0  0  0  0  0  0  0  0
  -19.6400  -20.2079   23.2009 C   0  0  0  0  0  0  0  0  0  0  0  0
  -28.0604  -20.4961   20.3978 C   0  0  0  0  0  0  0  0  0  0  0  0
  -31.0147  -25.9864   18.6344 C   0  0  0  0  0  0  0  0  0  0  0  0
  -24.9648  -28.4798   19.7984 C   0  0  0  0  0  0  0  0  0  0  0  0
  -29.7742  -25.9535   19.2996 C   0  0  0  0  0  0  0  0  0  0  0  0
  -24.4084  -28.5304   21.0845 C   0  0  0  0  0  0  0  0  0  0  0  0
  -19.6261  -22.6192   23.3516 C   0  0  0  0  0  0  0  0  0  0  0  0
  -30.6901  -16.0141   20.1315 C   0  0  0  0  0  0  0  0  0  0  0  0
  -22.6435  -27.0204   20.3669 C   0  0  0  0  0  0  0  0  0  0  0  0
  -31.3316  -13.9570   19.1939 C   0  0  0  0  0  0  0  0  0  0  0  0
  -30.7662  -11.8206   17.4913 C   0  0  0  0  0  0  0  0  0  0  0  0
  -30.1988  -13.1727   19.4115 C   0  0  0  0  0  0  0  0  0  0  0  0
  -27.8205  -19.1091   20.4214 C   0  0  0  0  0  0  0  0  0  0  0  0
  -26.8152  -21.0621   20.5226 C   0  0  0  0  0  0  0  0  0  0  0  0
  -20.3726  -18.9579   23.0760 C   0  0  0  0  0  0  0  0  0  0  0  0
  -29.2982  -21.2091   20.2740 C   0  0  0  0  0  0  0  0  0  0  0  0
  -21.8461  -18.9364   22.9809 C   0  0  0  0  0  0  0  0  0  0  0  0
  -27.8151  -28.4404   21.2048 C   0  0  0  0  0  0  0  0  0  0  0  0
  -20.5802  -24.5390   22.0121 C   0  0  0  0  0  0  0  0  0  0  0  0
  -26.7340  -31.1647   22.5947 C   0  0  0  0  0  0  0  0  0  0  0  0
  -24.0679  -33.0616   23.5644 C   0  0  0  0  0  0  0  0  0  0  0  0
  -32.1897  -26.7555   19.1845 C   0  0  0  0  0  0  0  0  0  0  0  0
  -26.1933  -29.2822   19.4678 C   0  0  0  0  0  0  0  0  0  0  0  0
  -25.0268  -29.3529   22.1843 C   0  0  0  0  0  0  0  0  0  0  0  0
  -31.7993  -27.8021   20.2250 C   0  0  0  0  0  0  0  0  0  0  0  0
  -22.2103  -20.2506   19.5791 C   0  0  0  0  0  0  0  0  0  0  0  0
  -30.8260  -27.2095   21.2391 C   0  0  0  0  0  0  0  0  0  0  0  0
  -23.7246  -20.1845   19.3993 C   0  0  0  0  0  0  0  0  0  0  0  0
  -21.6858  -19.1013   20.4385 C   0  0  0  0  0  0  0  0  0  0  0  0
  -23.8762  -18.9256   21.5839 C   0  0  0  0  0  0  0  0  0  0  0  0
  -29.5287  -26.7561   20.5588 C   0  0  1  0  0  0  0  0  0  0  0  0
  -27.0351  -29.6190   20.6948 C   0  0  1  0  0  0  0  0  0  0  0  0
  -24.4312  -20.0990   20.7614 C   0  0  1  0  0  0  0  0  0  0  0  0
  -23.4992  -35.2208   24.7098 C   0  0  0  0  0  0  0  0  0  0  0  0
  -27.4151  -29.9106   25.2916 C   0  0  0  0  0  0  0  0  0  0  0  0
  -25.9855  -31.6518   26.3838 C   0  0  0  0  0  0  0  0  0  0  0  0
  -28.0057  -32.3323   25.0882 C   0  0  0  0  0  0  0  0  0  0  0  0
  -22.6807  -34.1028   21.1663 C   0  0  0  0  0  0  0  0  0  0  0  0
  -20.3702  -23.9281   23.3856 C   0  0  0  0  0  0  0  0  0  0  0  0
  -21.3659  -25.8357   21.9856 C   0  0  0  0  0  0  0  0  0  1  0  0
  -25.9664  -31.4911   23.8530 C   0  0  1  0  0  0  0  0  0  0  0  0
  -23.7595  -34.5362   23.3771 C   0  0  2  0  0  0  0  0  0  0  0  0
  -26.8324  -31.3293   25.1342 C   0  0  0  0  0  0  0  0  0  0  0  0
  -26.5248  -18.8121   20.5511 N   0  0  0  0  0  0  0  0  0  0  0  0
  -19.7933  -17.7881   23.0416 N   0  0  0  0  0  0  0  0  0  0  0  0
  -25.9393  -20.0203   20.6103 N   0  0  0  0  0  0  0  0  0  0  0  0
  -22.4166  -19.0038   21.7110 N   0  0  0  0  0  0  0  0  0  0  0  0
  -26.2306  -30.1150   21.8133 N   0  0  0  0  0  0  0  0  0  0  0  0
  -26.3950  -22.3443   20.5649 N   0  0  0  0  0  0  0  0  0  0  0  0
  -30.4845  -20.4724   20.1549 N   0  0  0  0  0  0  0  0  0  0  0  0
  -28.6812  -27.8948   20.2767 N   0  0  0  0  0  0  0  0  0  0  0  0
  -25.4238  -32.8321   23.6639 N   0  0  0  0  0  0  0  0  0  0  0  0
  -22.5545  -34.7081   22.5171 N   0  3  0  0  0  0  0  0  0  0  0  0
  -29.3522  -22.4623   20.2857 O   0  0  0  0  0  0  0  0  0  0  0  0
  -22.4827  -18.8550   24.0329 O   0  0  0  0  0  0  0  0  0  0  0  0
  -27.6449  -28.0555   22.3557 O   0  0  0  0  0  0  0  0  0  0  0  0
  -20.1461  -24.0262   20.9814 O   0  0  0  0  0  0  0  0  0  0  0  0
  -27.7389  -31.8217   22.3117 O   0  0  0  0  0  0  0  0  0  0  0  0
  -23.1932  -32.2001   23.6209 O   0  0  0  0  0  0  0  0  0  0  0  0
  -31.6132  -15.0183   20.0376 O   0  0  0  0  0  0  0  0  0  0  0  0
  -21.5181  -26.3088   20.6480 O   0  0  0  0  0  0  0  0  0  1  0  0
  -30.4940  -10.7958   16.6729 F   0  0  0  0  0  0  0  0  0  0  0  0
  -29.3778  -13.4413   20.4360 F   0  0  0  0  0  0  0  0  0  0  0  0
  1  2  1  0  0  0  0
  1  7  2  0  0  0  0
  2  8  2  0  0  0  0
  3  6  1  0  0  0  0
  3 10  2  0  0  0  0
  4 11  2  0  0  0  0
  4 19  1  0  0  0  0
  5 12  1  0  0  0  0
  5 19  2  0  0  0  0
  6 20  2  0  0  0  0
  7 22  1  0  0  0  0
  8 24  1  0  0  0  0
  9 13  2  0  0  0  0
  9 23  1  0  0  0  0
 10 26  1  0  0  0  0
 11 27  1  0  0  0  0
 12 27  2  0  0  0  0
 13 28  1  0  0  0  0
 14 15  2  0  0  0  0
 14 29  1  0  0  0  0
 15 30  1  0  0  0  0
 16 20  1  0  0  0  0
 16 26  2  0  0  0  0
 17 25  1  0  0  0  0
 17 28  2  0  0  0  0
 18 30  2  0  0  0  0
 18 31  1  0  0  0  0
 19 32  1  0  0  0  0
 20 34  1  0  0  0  0
 21 32  1  0  0  0  0
 21 33  2  0  0  0  0
 21 35  1  0  0  0  0
 22 24  2  0  0  0  0
 22 41  1  0  0  0  0
 23 25  2  0  0  0  0
 23 42  1  0  0  0  0
 24 50  1  0  0  0  0
 25 43  1  0  0  0  0
 26 58  1  0  0  0  0
 27 79  1  0  0  0  0
 28 80  1  0  0  0  0
 29 31  2  0  0  0  0
 29 79  1  0  0  0  0
 30 81  1  0  0  0  0
 31 82  1  0  0  0  0
 32 63  2  0  0  0  0
 33 65  1  0  0  0  0
 33 68  1  0  0  0  0
 34 36  1  0  0  0  0
 34 64  2  0  0  0  0
 35 69  1  0  0  0  0
 35 73  2  0  0  0  0
 36 66  1  0  0  0  0
 36 74  2  0  0  0  0
 37 51  1  0  0  0  0
 37 70  1  0  0  0  0
 37 75  2  0  0  0  0
 38 58  1  0  0  0  0
 38 59  1  0  0  0  0
 38 76  2  0  0  0  0
 39 60  1  0  0  0  0
 39 67  1  0  0  0  0
 39 77  2  0  0  0  0
 40 61  1  0  0  0  0
 40 71  1  0  0  0  0
 40 78  2  0  0  0  0
 41 44  1  0  0  0  0
 42 51  1  0  0  0  0
 43 67  1  0  0  0  0
 44 46  1  0  0  0  0
 45 47  1  0  0  0  0
 45 48  1  0  0  0  0
 46 50  1  0  0  0  0
 47 52  1  0  0  0  0
 48 66  1  0  0  0  0
 49 52  1  0  0  0  0
 49 66  1  0  0  0  0
 50 70  1  0  0  0  0
 51 67  1  0  0  0  0
 52 65  1  0  0  0  0
 53 61  1  0  0  0  0
 54 62  1  0  0  0  0
 55 62  1  0  0  0  0
 56 62  1  0  0  0  0
 57 72  1  0  0  0  0
 59 80  1  0  0  0  0
 60 62  1  0  0  0  0
 60 71  1  0  0  0  0
 61 72  1  0  0  0  0
 63 65  1  0  0  0  0
M  CHG  1  72   1
M  ISO  4  34 100  36 100  59 101  80 101
M  END
> <Batch ID>
0131

> <Smiles>
CNC(C)C(=O)NC(C(=O)N1Cc2cc([101O:1][101CH2:1]C(=O)Cc3cccc([100C:0](=N)[100C:0](=O)N4CCCC(n5nc(-c6ccc(Oc7ccc(F)cc7F)cc6)c(C(N)=O)c5N)C4)c3)ccc2CC1C(=O)NC1CCCc2ccccc21)C(C)(C)C

> <Shape>
0.275

> <Color>
0.062

> <Negative vol penalty>
0.000

$$$$

  -OEChem-04052302253D

 82 90  0     1  0  0  0  0  0999 V2000
  -25.3151  -35.5793   21.7398 C   0  0  0  0  0  0  0  0  0  0  0  0
  -25.9905  -34.3634   21.7099 C   0  0  0  0  0  0  0  0  0  0  0  0
  -25.7927  -11.8866   20.0416 C   0  0  0  0  0  0  0  0  0  0  0  0
  -23.7991  -12.6217   21.1914 C   0  0  0  0  0  0  0  0  0  0  0  0
  -24.0456  -35.6564   22.3112 C   0  0  0  0  0  0  0  0  0  0  0  0
  -25.3972  -33.2240   22.2523 C   0  0  0  0  0  0  0  0  0  0  0  0
  -25.8896  -29.1665   19.2625 C   0  0  0  0  0  0  0  0  0  0  0  0
  -25.6848  -10.6375   20.6530 C   0  0  0  0  0  0  0  0  0  0  0  0
  -23.6911  -11.3726   21.8027 C   0  0  0  0  0  0  0  0  0  0  0  0
  -27.1236  -28.5177   19.2678 C   0  0  0  0  0  0  0  0  0  0  0  0
  -22.6118   -8.2798   20.9723 C   0  0  0  0  0  0  0  0  0  0  0  0
  -21.3518   -7.6824   21.0044 C   0  0  0  0  0  0  0  0  0  0  0  0
  -32.8293  -22.3357   19.6136 C   0  0  0  0  0  0  0  0  0  0  0  0
  -33.1949  -23.5403   20.2603 C   0  0  0  0  0  0  0  0  0  0  0  0
  -26.2323  -26.8478   20.7632 C   0  0  0  0  0  0  0  0  0  0  0  0
  -21.4232   -7.6615   23.4192 C   0  0  0  0  0  0  0  0  0  0  0  0
  -24.8499  -12.8787   20.3108 C   0  0  0  0  0  0  0  0  0  0  0  0
  -24.3992  -14.5666   18.4519 C   0  0  0  0  0  0  0  0  0  0  0  0
  -23.4325  -34.5154   22.8523 C   0  0  0  0  0  0  0  0  0  0  0  0
  -24.8190  -28.6661   20.0174 C   0  0  0  0  0  0  0  0  0  0  0  0
  -24.1189  -33.2862   22.8327 C   0  0  0  0  0  0  0  0  0  0  0  0
  -24.9850  -27.4907   20.7637 C   0  0  0  0  0  0  0  0  0  0  0  0
  -24.6340  -10.3805   21.5335 C   0  0  0  0  0  0  0  0  0  0  0  0
  -27.2959  -27.3598   20.0205 C   0  0  0  0  0  0  0  0  0  0  0  0
  -23.2776   -8.5680   22.1637 C   0  0  0  0  0  0  0  0  0  0  0  0
  -20.7575   -7.3733   22.2278 C   0  0  0  0  0  0  0  0  0  0  0  0
  -22.6833   -8.2589   23.3871 C   0  0  0  0  0  0  0  0  0  0  0  0
  -24.9612  -14.1694   19.6800 C   0  0  0  0  0  0  0  0  0  0  0  0
  -31.8272  -21.7819   20.3758 C   0  0  0  0  0  0  0  0  0  0  0  0
  -32.3900  -23.6369   21.3715 C   0  0  0  0  0  0  0  0  0  0  0  0
  -24.7931  -15.8738   18.3009 C   0  0  0  0  0  0  0  0  0  0  0  0
  -31.1368  -20.5715   20.1357 C   0  0  0  0  0  0  0  0  0  0  0  0
  -30.1219  -20.0378   20.8928 C   0  0  0  0  0  0  0  0  0  0  0  0
  -23.5932  -13.8208   17.5301 C   0  0  0  0  0  0  0  0  0  0  0  0
  -29.4906  -18.7610   20.5033 C   0  0  0  0  0  0  0  0  0  0  0  0
  -23.0706  -29.7656   22.4336 C   0  0  0  0  0  0  0  0  0  0  0  0
  -30.3552  -25.9774   21.3947 C   0  0  0  0  0  0  0  0  0  0  0  0
  -21.3673  -27.0522   21.9249 C   0  0  0  0  0  0  0  0  0  0  0  0
  -21.2911  -23.8644   20.7088 C   0  0  0  0  0  0  0  0  0  0  0  0
  -22.0787  -34.6577   23.5017 C   0  0  0  0  0  0  0  0  0  0  0  0
  -23.4865  -29.3628   19.9798 C   0  0  0  0  0  0  0  0  0  0  0  0
  -23.8613  -26.9013   21.5751 C   0  0  0  0  0  0  0  0  0  0  0  0
  -21.3642  -33.3263   23.7186 C   0  0  0  0  0  0  0  0  0  0  0  0
  -25.9760  -19.7527   20.8129 C   0  0  0  0  0  0  0  0  0  0  0  0
  -22.3171  -32.3018   24.3262 C   0  0  0  0  0  0  0  0  0  0  0  0
  -25.2704  -18.4392   20.4863 C   0  0  0  0  0  0  0  0  0  0  0  0
  -27.2931  -19.5255   21.5533 C   0  0  0  0  0  0  0  0  0  0  0  0
  -27.5171  -17.2852   20.5182 C   0  0  0  0  0  0  0  0  0  0  0  0
  -23.4982  -32.0230   23.3887 C   0  0  1  0  0  0  0  0  0  0  0  0
  -22.6150  -29.0513   21.1926 C   0  0  1  0  0  0  0  0  0  0  0  0
  -26.2127  -17.4881   19.7316 C   0  0  1  0  0  0  0  0  0  0  0  0
  -19.7699  -21.8829   20.4704 C   0  0  0  0  0  0  0  0  0  0  0  0
  -21.7444  -26.4099   24.8838 C   0  0  0  0  0  0  0  0  0  0  0  0
  -21.0658  -24.0518   24.3868 C   0  0  0  0  0  0  0  0  0  0  0  0
  -19.4597  -25.9193   23.9927 C   0  0  0  0  0  0  0  0  0  0  0  0
  -21.4690  -23.9367   17.7555 C   0  0  0  0  0  0  0  0  0  0  0  0
  -32.2676  -24.6630   22.4724 C   0  0  0  0  0  0  0  0  0  0  0  0
  -30.8542  -25.2292   22.6223 C   0  0  0  0  0  0  0  0  0  0  0  0
  -28.8503  -26.0117   21.2132 C   0  0  0  0  0  0  0  0  0  1  0  0
  -21.4350  -25.6350   22.4405 C   0  0  1  0  0  0  0  0  0  0  0  0
  -20.2932  -23.1511   19.8144 C   0  0  2  0  0  0  0  0  0  0  0  0
  -20.9481  -25.5159   23.9123 C   0  0  0  0  0  0  0  0  0  0  0  0
  -25.6591  -15.1451   20.2673 N   0  0  0  0  0  0  0  0  0  0  0  0
  -25.5383  -16.1684   19.4046 N   0  0  0  0  0  0  0  0  0  0  0  0
  -28.1524  -18.5676   20.8415 N   0  0  0  0  0  0  0  0  0  0  0  0
  -22.5794  -27.6225   21.5111 N   0  0  0  0  0  0  0  0  0  0  0  0
  -24.5713  -16.7883   17.3331 N   0  0  0  0  0  0  0  0  0  0  0  0
  -23.2819  -12.4899   17.8399 N   0  0  0  0  0  0  0  0  0  0  0  0
  -23.0935  -31.1421   22.3141 N   0  0  0  0  0  0  0  0  0  0  0  0
  -20.6813  -24.8199   21.4940 N   0  0  0  0  0  0  0  0  0  0  0  0
  -20.9305  -22.7816   18.5189 N   0  3  0  0  0  0  0  0  0  0  0  0
  -23.1753  -14.3149   16.4555 O   0  0  0  0  0  0  0  0  0  0  0  0
  -30.1891  -17.9403   19.9055 O   0  0  0  0  0  0  0  0  0  0  0  0
  -23.3772  -29.1160   23.4264 O   0  0  0  0  0  0  0  0  0  0  0  0
  -31.1133  -26.5507   20.6142 O   0  0  0  0  0  0  0  0  0  0  0  0
  -20.2779  -27.6295   21.8840 O   0  0  0  0  0  0  0  0  0  0  0  0
  -22.4908  -23.5980   20.7133 O   0  0  0  0  0  0  0  0  0  0  0  0
  -31.5534  -22.5690   21.4492 O   0  0  0  0  0  0  0  0  0  0  0  0
  -24.5282   -9.1618   22.1301 O   0  0  0  0  0  0  0  0  0  0  0  0
  -28.4995  -26.7248   20.0280 O   0  0  0  0  0  0  0  0  0  1  0  0
  -19.5468   -6.8010   22.2585 F   0  0  0  0  0  0  0  0  0  0  0  0
  -23.3175   -8.5344   24.5350 F   0  0  0  0  0  0  0  0  0  0  0  0
  1  2  1  0  0  0  0
  1  5  2  0  0  0  0
  2  6  2  0  0  0  0
  3  8  2  0  0  0  0
  3 17  1  0  0  0  0
  4  9  1  0  0  0  0
  4 17  2  0  0  0  0
  5 19  1  0  0  0  0
  6 21  1  0  0  0  0
  7 10  2  0  0  0  0
  7 20  1  0  0  0  0
  8 23  1  0  0  0  0
  9 23  2  0  0  0  0
 10 24  1  0  0  0  0
 11 12  2  0  0  0  0
 11 25  1  0  0  0  0
 12 26  1  0  0  0  0
 13 14  1  0  0  0  0
 13 29  2  0  0  0  0
 14 30  2  0  0  0  0
 15 22  1  0  0  0  0
 15 24  2  0  0  0  0
 16 26  2  0  0  0  0
 16 27  1  0  0  0  0
 17 28  1  0  0  0  0
 18 28  1  0  0  0  0
 18 31  2  0  0  0  0
 18 34  1  0  0  0  0
 19 21  2  0  0  0  0
 19 40  1  0  0  0  0
 20 22  2  0  0  0  0
 20 41  1  0  0  0  0
 21 49  1  0  0  0  0
 22 42  1  0  0  0  0
 23 79  1  0  0  0  0
 24 80  1  0  0  0  0
 25 27  2  0  0  0  0
 25 79  1  0  0  0  0
 26 81  1  0  0  0  0
 27 82  1  0  0  0  0
 28 63  2  0  0  0  0
 29 32  1  0  0  0  0
 29 78  1  0  0  0  0
 30 57  1  0  0  0  0
 30 78  1  0  0  0  0
 31 64  1  0  0  0  0
 31 67  1  0  0  0  0
 32 33  2  0  0  0  0
 33 35  1  0  0  0  0
 34 68  1  0  0  0  0
 34 72  2  0  0  0  0
 35 65  1  0  0  0  0
 35 73  2  0  0  0  0
 36 50  1  0  0  0  0
 36 69  1  0  0  0  0
 36 74  2  0  0  0  0
 37 58  1  0  0  0  0
 37 59  1  0  0  0  0
 37 75  2  0  0  0  0
 38 60  1  0  0  0  0
 38 66  1  0  0  0  0
 38 76  2  0  0  0  0
 39 61  1  0  0  0  0
 39 70  1  0  0  0  0
 39 77  2  0  0  0  0
 40 43  1  0  0  0  0
 41 50  1  0  0  0  0
 42 66  1  0  0  0  0
 43 45  1  0  0  0  0
 44 46  1  0  0  0  0
 44 47  1  0  0  0  0
 45 49  1  0  0  0  0
 46 51  1  0  0  0  0
 47 65  1  0  0  0  0
 48 51  1  0  0  0  0
 48 65  1  0  0  0  0
 49 69  1  0  0  0  0
 50 66  1  0  0  0  0
 51 64  1  0  0  0  0
 52 61  1  0  0  0  0
 53 62  1  0  0  0  0
 54 62  1  0  0  0  0
 55 62  1  0  0  0  0
 56 71  1  0  0  0  0
 57 58  1  0  0  0  0
 59 80  1  0  0  0  0
 60 62  1  0  0  0  0
 60 70  1  0  0  0  0
 61 71  1  0  0  0  0
 63 64  1  0  0  0  0
M  CHG  1  71   1
M  ISO  4  33 100  35 100  59 101  80 101
M  END
> <Batch ID>
0131

> <Smiles>
CNC(C)C(=O)NC(C(=O)N1Cc2cc([101O:1][101CH2:1]C(=O)CCc3ccc(C=[100CH:0][100C:0](=O)N4CCCC(n5nc(-c6ccc(Oc7ccc(F)cc7F)cc6)c(C(N)=O)c5N)C4)o3)ccc2CC1C(=O)NC1CCCc2ccccc21)C(C)(C)C

> <Shape>
0.226

> <Color>
0.100

> <Negative vol penalty>
0.000

$$$$

  -OEChem-04052302253D

 83 91  0     1  0  0  0  0  0999 V2000
  -27.5874  -18.2228   19.0900 C   0  0  0  0  0  0  0  0  0  0  0  0
  -26.7562  -19.3383   19.1064 C   0  0  0  0  0  0  0  0  0  0  0  0
  -24.5059  -14.7779   20.7814 C   0  0  0  0  0  0  0  0  0  0  0  0
  -24.7225  -14.3155   23.1429 C   0  0  0  0  0  0  0  0  0  0  0  0
  -28.7116  -18.1804   19.9137 C   0  0  0  0  0  0  0  0  0  0  0  0
  -27.0481  -20.4116   19.9473 C   0  0  0  0  0  0  0  0  0  0  0  0
  -26.0694  -26.3496   18.8126 C   0  0  0  0  0  0  0  0  0  0  0  0
  -19.2738  -28.6064   22.8305 C   0  0  0  0  0  0  0  0  0  0  0  0
  -18.7777  -27.6934   23.7610 C   0  0  0  0  0  0  0  0  0  0  0  0
  -25.5077  -13.8469   20.5072 C   0  0  0  0  0  0  0  0  0  0  0  0
  -25.7243  -13.3844   22.8687 C   0  0  0  0  0  0  0  0  0  0  0  0
  -25.0501  -27.2216   19.1926 C   0  0  0  0  0  0  0  0  0  0  0  0
  -28.2597  -11.8522   19.2145 C   0  0  0  0  0  0  0  0  0  0  0  0
  -29.2499  -12.2128   18.3007 C   0  0  0  0  0  0  0  0  0  0  0  0
  -20.0198  -26.7799   21.4360 C   0  0  0  0  0  0  0  0  0  0  0  0
  -26.3996  -27.9841   21.0410 C   0  0  0  0  0  0  0  0  0  0  0  0
  -29.8753  -14.0715   19.7119 C   0  0  0  0  0  0  0  0  0  0  0  0
  -24.1133  -15.0123   22.0993 C   0  0  0  0  0  0  0  0  0  0  0  0
  -19.5237  -25.8669   22.3666 C   0  0  0  0  0  0  0  0  0  0  0  0
  -21.6940  -15.7348   22.4635 C   0  0  0  0  0  0  0  0  0  0  0  0
  -29.0227  -19.2578   20.7581 C   0  0  0  0  0  0  0  0  0  0  0  0
  -27.2591  -26.2803   19.5516 C   0  0  0  0  0  0  0  0  0  0  0  0
  -28.1767  -20.3830   20.7841 C   0  0  0  0  0  0  0  0  0  0  0  0
  -27.4335  -27.1122   20.6668 C   0  0  0  0  0  0  0  0  0  0  0  0
  -19.8949  -28.1497   21.6680 C   0  0  0  0  0  0  0  0  0  0  0  0
  -18.9026  -26.3236   23.5290 C   0  0  0  0  0  0  0  0  0  0  0  0
  -26.1169  -13.1501   21.5508 C   0  0  0  0  0  0  0  0  0  0  0  0
  -25.2139  -28.0369   20.3086 C   0  0  0  0  0  0  0  0  0  0  0  0
  -28.0772  -12.6012   20.3770 C   0  0  0  0  0  0  0  0  0  0  0  0
  -30.0577  -13.3225   18.5494 C   0  0  0  0  0  0  0  0  0  0  0  0
  -28.8850  -13.7108   20.6257 C   0  0  0  0  0  0  0  0  0  0  0  0
  -23.0790  -15.9743   22.3832 C   0  0  0  0  0  0  0  0  0  0  0  0
  -21.1497  -16.9618   22.7545 C   0  0  0  0  0  0  0  0  0  0  0  0
  -19.6697  -24.4425   22.0961 C   0  0  0  0  0  0  0  0  0  0  0  0
  -20.8418  -23.7924   21.9469 C   0  0  0  0  0  0  0  0  0  0  0  0
  -20.9649  -14.5124   22.2906 C   0  0  0  0  0  0  0  0  0  0  0  0
  -20.8247  -22.3392   21.6852 C   0  0  0  0  0  0  0  0  0  0  0  0
  -28.7395  -24.0097   21.2119 C   0  0  0  0  0  0  0  0  0  0  0  0
  -31.0771  -26.2467   21.4436 C   0  0  0  0  0  0  0  0  0  0  0  0
  -31.9460  -29.5464   21.3810 C   0  0  0  0  0  0  0  0  0  0  0  0
  -30.2225  -19.1463   21.6651 C   0  0  0  0  0  0  0  0  0  0  0  0
  -28.3598  -25.3537   19.1130 C   0  0  0  0  0  0  0  0  0  0  0  0
  -28.6998  -27.0906   21.4820 C   0  0  0  0  0  0  0  0  0  0  0  0
  -30.6686  -20.4829   22.2522 C   0  0  0  0  0  0  0  0  0  0  0  0
  -23.3197  -21.2923   24.1573 C   0  0  0  0  0  0  0  0  0  0  0  0
  -29.4686  -21.2583   22.7867 C   0  0  0  0  0  0  0  0  0  0  0  0
  -23.3949  -19.7929   23.8818 C   0  0  0  0  0  0  0  0  0  0  0  0
  -23.0660  -22.0958   22.8827 C   0  0  0  0  0  0  0  0  0  0  0  0
  -21.9378  -20.1466   21.8491 C   0  0  0  0  0  0  0  0  0  0  0  0
  -28.4737  -21.5776   21.6644 C   0  0  1  0  0  0  0  0  0  0  0  0
  -29.3237  -24.9954   20.2398 C   0  0  1  0  0  0  0  0  0  0  0  0
  -22.1456  -19.3153   23.1246 C   0  0  1  0  0  0  0  0  0  0  0  0
  -18.3611  -25.3740   24.5489 C   0  0  0  0  0  0  0  0  0  0  0  0
  -33.9251  -31.0675   21.6394 C   0  0  0  0  0  0  0  0  0  0  0  0
  -22.1651  -30.9106   20.2544 C   0  0  0  0  0  0  0  0  0  0  0  0
  -30.9841  -25.8499   24.4675 C   0  0  0  0  0  0  0  0  0  0  0  0
  -32.2407  -28.0008   24.7183 C   0  0  0  0  0  0  0  0  0  0  0  0
  -33.2854  -26.0810   23.5159 C   0  0  0  0  0  0  0  0  0  0  0  0
  -31.6538  -30.5856   18.6253 C   0  0  0  0  0  0  0  0  0  0  0  0
  -20.4314  -29.1388   20.6619 C   0  0  0  0  0  0  0  0  0  0  0  0
  -22.8815  -28.4951   20.3837 C   0  0  0  0  0  0  0  0  0  1  0  0
  -31.4018  -27.3572   22.4133 C   0  0  1  0  0  0  0  0  0  0  0  0
  -33.0648  -30.2800   20.6635 C   0  0  2  0  0  0  0  0  0  0  0  0
  -21.8968  -29.5495   20.9090 C   0  0  1  0  0  0  0  0  0  0  0  0
  -31.9533  -26.8215   23.7648 C   0  0  0  0  0  0  0  0  0  0  0  0
  -23.3948  -17.2530   22.6051 N   0  0  0  0  0  0  0  0  0  0  0  0
  -22.2006  -17.8280   22.8276 N   0  0  0  0  0  0  0  0  0  0  0  0
  -21.9010  -21.5830   22.1461 N   0  0  0  0  0  0  0  0  0  0  0  0
  -29.7442  -26.1632   21.0167 N   0  0  0  0  0  0  0  0  0  0  0  0
  -19.8793  -17.3734   22.9523 N   0  0  0  0  0  0  0  0  0  0  0  0
  -21.6801  -13.3438   21.9954 N   0  0  0  0  0  0  0  0  0  0  0  0
  -28.9497  -22.6880   20.8677 N   0  0  0  0  0  0  0  0  0  0  0  0
  -32.3102  -28.2585   21.7125 N   0  0  0  0  0  0  0  0  0  0  0  0
  -32.5027  -31.2287   19.6610 N   0  3  0  0  0  0  0  0  0  0  0  0
  -19.7146  -14.4613   22.3785 O   0  0  0  0  0  0  0  0  0  0  0  0
  -19.8594  -21.8836   21.0694 O   0  0  0  0  0  0  0  0  0  0  0  0
  -28.1435  -24.4181   22.2017 O   0  0  0  0  0  0  0  0  0  0  0  0
  -31.9746  -25.4859   21.0729 O   0  0  0  0  0  0  0  0  0  0  0  0
  -30.8593  -30.0653   21.6263 O   0  0  0  0  0  0  0  0  0  0  0  0
  -27.0943  -12.2414   21.2836 O   0  0  0  0  0  0  0  0  0  0  0  0
  -24.2203  -28.8885   20.6821 O   0  0  0  0  0  0  0  0  0  1  0  0
  -31.0096  -13.6678   17.6726 F   0  0  0  0  0  0  0  0  0  0  0  0
  -28.7152  -14.4335   21.7414 F   0  0  0  0  0  0  0  0  0  0  0  0
  1  2  1  0  0  0  0
  1  5  2  0  0  0  0
  2  6  2  0  0  0  0
  3 10  2  0  0  0  0
  3 18  1  0  0  0  0
  4 11  1  0  0  0  0
  4 18  2  0  0  0  0
  5 21  1  0  0  0  0
  6 23  1  0  0  0  0
  7 12  2  0  0  0  0
  7 22  1  0  0  0  0
  8  9  2  0  0  0  0
  8 25  1  0  0  0  0
  9 26  1  0  0  0  0
 10 27  1  0  0  0  0
 11 27  2  0  0  0  0
 12 28  1  0  0  0  0
 13 14  2  0  0  0  0
 13 29  1  0  0  0  0
 14 30  1  0  0  0  0
 15 19  1  0  0  0  0
 15 25  2  0  0  0  0
 16 24  1  0  0  0  0
 16 28  2  0  0  0  0
 17 30  2  0  0  0  0
 17 31  1  0  0  0  0
 18 32  1  0  0  0  0
 19 26  2  0  0  0  0
 19 34  1  0  0  0  0
 20 32  1  0  0  0  0
 20 33  2  0  0  0  0
 20 36  1  0  0  0  0
 21 23  2  0  0  0  0
 21 41  1  0  0  0  0
 22 24  2  0  0  0  0
 22 42  1  0  0  0  0
 23 50  1  0  0  0  0
 24 43  1  0  0  0  0
 25 60  1  0  0  0  0
 26 53  1  0  0  0  0
 27 80  1  0  0  0  0
 28 81  1  0  0  0  0
 29 31  2  0  0  0  0
 29 80  1  0  0  0  0
 30 82  1  0  0  0  0
 31 83  1  0  0  0  0
 32 66  2  0  0  0  0
 33 67  1  0  0  0  0
 33 70  1  0  0  0  0
 34 35  2  0  0  0  0
 35 37  1  0  0  0  0
 36 71  1  0  0  0  0
 36 75  2  0  0  0  0
 37 68  1  0  0  0  0
 37 76  2  0  0  0  0
 38 51  1  0  0  0  0
 38 72  1  0  0  0  0
 38 77  2  0  0  0  0
 39 62  1  0  0  0  0
 39 69  1  0  0  0  0
 39 78  2  0  0  0  0
 40 63  1  0  0  0  0
 40 73  1  0  0  0  0
 40 79  2  0  0  0  0
 41 44  1  0  0  0  0
 42 51  1  0  0  0  0
 43 69  1  0  0  0  0
 44 46  1  0  0  0  0
 45 47  1  0  0  0  0
 45 48  1  0  0  0  0
 46 50  1  0  0  0  0
 47 52  1  0  0  0  0
 48 68  1  0  0  0  0
 49 52  1  0  0  0  0
 49 68  1  0  0  0  0
 50 72  1  0  0  0  0
 51 69  1  0  0  0  0
 52 67  1  0  0  0  0
 54 63  1  0  0  0  0
 55 64  1  0  0  0  0
 56 65  1  0  0  0  0
 57 65  1  0  0  0  0
 58 65  1  0  0  0  0
 59 74  1  0  0  0  0
 60 64  1  0  0  0  0
 61 64  1  0  0  0  0
 61 81  1  0  0  0  0
 62 65  1  0  0  0  0
 62 73  1  0  0  0  0
 63 74  1  0  0  0  0
 66 67  1  0  0  0  0
M  CHG  1  74   1
M  ISO  4  35 100  37 100  61 101  81 101
M  END
> <Batch ID>
0131

> <Smiles>
CNC(C)C(=O)NC(C(=O)N1Cc2cc([101O:1][101CH2:1]C(C)Cc3ccc(C)c(C=[100CH:0][100C:0](=O)N4CCCC(n5nc(-c6ccc(Oc7ccc(F)cc7F)cc6)c(C(N)=O)c5N)C4)c3)ccc2CC1C(=O)NC1CCCc2ccccc21)C(C)(C)C

> <Shape>
0.228

> <Color>
0.056

> <Negative vol penalty>
0.000

$$$$

  -OEChem-04052302253D

 85 94  0     1  0  0  0  0  0999 V2000
  -28.8099  -17.9435   29.8018 C   0  0  0  0  0  0  0  0  0  0  0  0
  -28.8064  -17.5157   28.4780 C   0  0  0  0  0  0  0  0  0  0  0  0
  -24.3644  -11.3404   20.8291 C   0  0  0  0  0  0  0  0  0  0  0  0
  -21.9775  -25.7061   21.7918 C   0  0  0  0  0  0  0  0  0  0  0  0
  -20.7838  -25.7682   19.6922 C   0  0  0  0  0  0  0  0  0  0  0  0
  -23.7660  -12.5498   21.1824 C   0  0  0  0  0  0  0  0  0  0  0  0
  -28.2421  -19.1717   30.1377 C   0  0  0  0  0  0  0  0  0  0  0  0
  -28.2341  -18.3155   27.4895 C   0  0  0  0  0  0  0  0  0  0  0  0
  -25.7099  -11.3087   20.4627 C   0  0  0  0  0  0  0  0  0  0  0  0
  -31.1131  -18.6284   23.3352 C   0  0  0  0  0  0  0  0  0  0  0  0
  -22.2176  -27.0768   21.6959 C   0  0  0  0  0  0  0  0  0  0  0  0
  -21.0239  -27.1389   19.5962 C   0  0  0  0  0  0  0  0  0  0  0  0
  -31.0891  -17.5429   22.4606 C   0  0  0  0  0  0  0  0  0  0  0  0
  -23.4540  -30.4941   21.8247 C   0  0  0  0  0  0  0  0  0  0  0  0
  -24.7405  -30.9504   22.1119 C   0  0  0  0  0  0  0  0  0  0  0  0
  -25.8587  -13.6960   20.8028 C   0  0  0  0  0  0  0  0  0  0  0  0
  -29.5501  -18.7335   21.0347 C   0  0  0  0  0  0  0  0  0  0  0  0
  -25.6240  -29.5829   20.3268 C   0  0  0  0  0  0  0  0  0  0  0  0
  -21.2607  -25.0518   20.7899 C   0  0  0  0  0  0  0  0  0  0  0  0
  -24.5132  -13.7276   21.1692 C   0  0  0  0  0  0  0  0  0  0  0  0
  -19.9103  -23.0059   21.4961 C   0  0  0  0  0  0  0  0  0  0  0  0
  -26.4571  -12.4865   20.4496 C   0  0  0  0  0  0  0  0  0  0  0  0
  -27.6711  -19.9914   29.1514 C   0  0  0  0  0  0  0  0  0  0  0  0
  -30.3460  -19.7723   23.0712 C   0  0  0  0  0  0  0  0  0  0  0  0
  -27.6569  -19.5553   27.8128 C   0  0  0  0  0  0  0  0  0  0  0  0
  -29.5681  -19.8332   21.9061 C   0  0  0  0  0  0  0  0  0  0  0  0
  -21.7408  -27.7932   20.5981 C   0  0  0  0  0  0  0  0  0  0  0  0
  -30.3053  -17.5942   21.3116 C   0  0  0  0  0  0  0  0  0  0  0  0
  -23.2525  -29.5822   20.7886 C   0  0  0  0  0  0  0  0  0  0  0  0
  -25.8254  -30.4948   21.3629 C   0  0  0  0  0  0  0  0  0  0  0  0
  -24.3375  -29.1266   20.0397 C   0  0  0  0  0  0  0  0  0  0  0  0
  -21.0128  -23.6358   20.8882 C   0  0  0  0  0  0  0  0  0  0  0  0
  -20.1434  -21.6635   21.3230 C   0  0  0  0  0  0  0  0  0  0  0  0
  -28.7524  -13.4657   20.8071 C   0  0  0  0  0  0  0  0  0  0  0  0
  -29.7127  -14.2169   20.2394 C   0  0  0  0  0  0  0  0  0  0  0  0
  -23.8890  -14.9892   21.5369 C   0  0  0  0  0  0  0  0  0  0  0  0
  -24.3519  -16.2154   21.2136 C   0  0  0  0  0  0  0  0  0  0  0  0
  -18.7769  -23.5827   22.1581 C   0  0  0  0  0  0  0  0  0  0  0  0
  -23.5968  -17.4055   21.6541 C   0  0  0  0  0  0  0  0  0  0  0  0
  -27.9621  -21.2652   24.5515 C   0  0  0  0  0  0  0  0  0  0  0  0
  -28.3991  -23.4625   22.2056 C   0  0  0  0  0  0  0  0  0  0  0  0
  -29.5290  -24.1580   19.0613 C   0  0  0  0  0  0  0  0  0  0  0  0
  -27.0271  -21.2894   29.5698 C   0  0  0  0  0  0  0  0  0  0  0  0
  -30.4036  -20.9453   24.0108 C   0  0  0  0  0  0  0  0  0  0  0  0
  -28.7422  -21.0461   21.5666 C   0  0  0  0  0  0  0  0  0  0  0  0
  -30.0811  -14.0779   18.7837 C   0  0  0  0  0  0  0  0  0  0  0  0
  -26.7751  -22.2466   28.4076 C   0  0  0  0  0  0  0  0  0  0  0  0
  -29.5313  -12.8063   18.1345 C   0  0  0  0  0  0  0  0  0  0  0  0
  -23.5273  -19.2355   18.4795 C   0  0  0  0  0  0  0  0  0  0  0  0
  -28.0745  -12.5781   18.5224 C   0  0  0  0  0  0  0  0  0  0  0  0
  -26.1392  -21.5068   27.2350 C   0  0  0  0  0  0  0  0  0  0  0  0
  -22.8126  -20.5184   18.8957 C   0  0  0  0  0  0  0  0  0  0  0  0
  -24.4087  -18.6832   19.5988 C   0  0  0  0  0  0  0  0  0  0  0  0
  -22.9658  -19.7613   21.3006 C   0  0  0  0  0  0  0  0  0  0  0  0
  -27.9238  -12.4513   20.0515 C   0  0  2  0  0  0  0  0  0  0  0  0
  -27.0677  -20.4058   26.7085 C   0  0  1  0  0  0  0  0  0  0  0  0
  -29.1838  -21.8554   23.9059 C   0  0  1  0  0  0  0  0  0  0  0  0
  -22.0368  -20.3088   20.2058 C   0  0  1  0  0  0  0  0  0  0  0  0
  -29.7154  -26.0341   17.4052 C   0  0  0  0  0  0  0  0  0  0  0  0
  -25.4236  -23.2041   21.5815 C   0  0  0  0  0  0  0  0  0  0  0  0
  -25.8576  -24.3272   19.3865 C   0  0  0  0  0  0  0  0  0  0  0  0
  -26.3034  -25.5442   21.5179 C   0  0  0  0  0  0  0  0  0  0  0  0
  -32.4830  -23.9819   19.0192 C   0  0  0  0  0  0  0  0  0  0  0  0
  -30.4828  -15.2406   21.0201 C   0  0  0  0  0  0  0  0  0  1  0  0
  -27.8454  -23.6676   20.8162 C   0  0  1  0  0  0  0  0  0  0  0  0
  -30.4048  -25.2785   18.5306 C   0  0  2  0  0  0  0  0  0  0  0  0
  -26.3714  -24.1620   20.8326 C   0  0  0  0  0  0  0  0  0  0  0  0
  -21.8818  -22.7650   20.3679 N   0  0  0  0  0  0  0  0  0  0  0  0
  -21.3255  -21.5743   20.6485 N   0  0  0  0  0  0  0  0  0  0  0  0
  -23.6590  -18.5468   20.8566 N   0  0  0  0  0  0  0  0  0  0  0  0
  -28.8270  -22.1648   22.5199 N   0  0  0  0  0  0  0  0  0  0  0  0
  -19.4505  -20.5624   21.6835 N   0  0  0  0  0  0  0  0  0  0  0  0
  -18.6943  -24.9790   22.2472 N   0  0  0  0  0  0  0  0  0  0  0  0
  -28.1185  -20.9776   25.8940 N   0  0  0  0  0  0  0  0  0  0  0  0
  -28.7704  -24.5685   20.1371 N   0  0  0  0  0  0  0  0  0  0  0  0
  -31.6893  -24.7301   18.0106 N   0  3  0  0  0  0  0  0  0  0  0  0
  -17.8725  -22.8803   22.6703 O   0  0  0  0  0  0  0  0  0  0  0  0
  -22.9599  -17.3178   22.7055 O   0  0  0  0  0  0  0  0  0  0  0  0
  -26.9518  -21.0856   23.8816 O   0  0  0  0  0  0  0  0  0  0  0  0
  -28.4566  -24.4201   22.9811 O   0  0  0  0  0  0  0  0  0  0  0  0
  -29.5161  -23.0322   18.5684 O   0  0  0  0  0  0  0  0  0  0  0  0
  -21.9747  -29.1307   20.5043 O   0  0  0  0  0  0  0  0  0  0  0  0
  -30.2795  -16.5358   20.4567 O   0  0  0  0  0  0  0  0  0  1  0  0
  -27.0605  -30.9343   21.6378 F   0  0  0  0  0  0  0  0  0  0  0  0
  -24.1500  -28.2515   19.0423 F   0  0  0  0  0  0  0  0  0  0  0  0
  1  2  1  0  0  0  0
  1  7  2  0  0  0  0
  2  8  2  0  0  0  0
  3  6  1  0  0  0  0
  3  9  2  0  0  0  0
  4 11  2  0  0  0  0
  4 19  1  0  0  0  0
  5 12  1  0  0  0  0
  5 19  2  0  0  0  0
  6 20  2  0  0  0  0
  7 23  1  0  0  0  0
  8 25  1  0  0  0  0
  9 22  1  0  0  0  0
 10 13  2  0  0  0  0
 10 24  1  0  0  0  0
 11 27  1  0  0  0  0
 12 27  2  0  0  0  0
 13 28  1  0  0  0  0
 14 15  2  0  0  0  0
 14 29  1  0  0  0  0
 15 30  1  0  0  0  0
 16 20  1  0  0  0  0
 16 22  2  0  0  0  0
 17 26  1  0  0  0  0
 17 28  2  0  0  0  0
 18 30  2  0  0  0  0
 18 31  1  0  0  0  0
 19 32  1  0  0  0  0
 20 36  1  0  0  0  0
 21 32  1  0  0  0  0
 21 33  2  0  0  0  0
 21 38  1  0  0  0  0
 22 55  1  0  0  0  0
 23 25  2  0  0  0  0
 23 43  1  0  0  0  0
 24 26  2  0  0  0  0
 24 44  1  0  0  0  0
 25 56  1  0  0  0  0
 26 45  1  0  0  0  0
 27 82  1  0  0  0  0
 28 83  1  0  0  0  0
 29 31  2  0  0  0  0
 29 82  1  0  0  0  0
 30 84  1  0  0  0  0
 31 85  1  0  0  0  0
 32 68  2  0  0  0  0
 33 69  1  0  0  0  0
 33 72  1  0  0  0  0
 34 35  2  0  0  0  0
 34 55  1  0  0  0  0
 35 46  1  0  0  0  0
 35 64  1  0  0  0  0
 36 37  2  0  0  0  0
 37 39  1  0  0  0  0
 38 73  1  0  0  0  0
 38 77  2  0  0  0  0
 39 70  1  0  0  0  0
 39 78  2  0  0  0  0
 40 57  1  0  0  0  0
 40 74  1  0  0  0  0
 40 79  2  0  0  0  0
 41 65  1  0  0  0  0
 41 71  1  0  0  0  0
 41 80  2  0  0  0  0
 42 66  1  0  0  0  0
 42 75  1  0  0  0  0
 42 81  2  0  0  0  0
 43 47  1  0  0  0  0
 44 57  1  0  0  0  0
 45 71  1  0  0  0  0
 46 48  1  0  0  0  0
 47 51  1  0  0  0  0
 48 50  1  0  0  0  0
 49 52  1  0  0  0  0
 49 53  1  0  0  0  0
 50 55  1  0  0  0  0
 51 56  1  0  0  0  0
 52 58  1  0  0  0  0
 53 70  1  0  0  0  0
 54 58  1  0  0  0  0
 54 70  1  0  0  0  0
 56 74  1  0  0  0  0
 57 71  1  0  0  0  0
 58 69  1  0  0  0  0
 59 66  1  0  0  0  0
 60 67  1  0  0  0  0
 61 67  1  0  0  0  0
 62 67  1  0  0  0  0
 63 76  1  0  0  0  0
 64 83  1  0  0  0  0
 65 67  1  0  0  0  0
 65 75  1  0  0  0  0
 66 76  1  0  0  0  0
 68 69  1  0  0  0  0
M  CHG  1  76   1
M  ISO  4  37 100  39 100  64 101  83 101
M  END
> <Batch ID>
0131

> <Smiles>
CNC(C)C(=O)NC(C(=O)N1Cc2cc([101O:1][101CH2:1]C3=CC(c4cccc(C=[100CH:0][100C:0](=O)N5CCCC(n6nc(-c7ccc(Oc8ccc(F)cc8F)cc7)c(C(N)=O)c6N)C5)c4)CCC3)ccc2CC1C(=O)NC1CCCc2ccccc21)C(C)(C)C

> <Shape>
0.213

> <Color>
0.070

> <Negative vol penalty>
0.000

$$$$

  -OEChem-04052302253D

 85 93  0     1  0  0  0  0  0999 V2000
  -29.3931  -22.9167   18.4420 C   0  0  0  0  0  0  0  0  0  0  0  0
  -28.2021  -23.0873   19.1404 C   0  0  0  0  0  0  0  0  0  0  0  0
  -25.3044  -23.4438   26.6170 C   0  0  0  0  0  0  0  0  0  0  0  0
  -26.5767  -13.4390   19.6207 C   0  0  0  0  0  0  0  0  0  0  0  0
  -24.8861  -13.8415   21.2990 C   0  0  0  0  0  0  0  0  0  0  0  0
  -30.4954  -23.7167   18.7400 C   0  0  0  0  0  0  0  0  0  0  0  0
  -28.1131  -24.0573   20.1382 C   0  0  0  0  0  0  0  0  0  0  0  0
  -23.8346  -26.7513   19.8523 C   0  0  0  0  0  0  0  0  0  0  0  0
  -26.0363  -22.7733   25.6369 C   0  0  0  0  0  0  0  0  0  0  0  0
  -23.9107  -23.4547   26.5614 C   0  0  0  0  0  0  0  0  0  0  0  0
  -26.4649  -12.0657   19.8374 C   0  0  0  0  0  0  0  0  0  0  0  0
  -24.7742  -12.4681   21.5157 C   0  0  0  0  0  0  0  0  0  0  0  0
  -22.6725  -26.1543   20.3391 C   0  0  0  0  0  0  0  0  0  0  0  0
  -23.2951   -9.8242   20.0183 C   0  0  0  0  0  0  0  0  0  0  0  0
  -22.0113   -9.2868   20.1112 C   0  0  0  0  0  0  0  0  0  0  0  0
  -22.8913  -27.4116   22.3862 C   0  0  0  0  0  0  0  0  0  0  0  0
  -22.4975   -8.5116   22.3472 C   0  0  0  0  0  0  0  0  0  0  0  0
  -25.7873  -14.3270   20.3515 C   0  0  0  0  0  0  0  0  0  0  0  0
  -25.1745  -16.5238   19.2086 C   0  0  0  0  0  0  0  0  0  0  0  0
  -30.4169  -24.7036   19.7353 C   0  0  0  0  0  0  0  0  0  0  0  0
  -24.5409  -27.6763   20.6345 C   0  0  0  0  0  0  0  0  0  0  0  0
  -29.2158  -24.8704   20.4508 C   0  0  0  0  0  0  0  0  0  0  0  0
  -24.0606  -28.0208   21.9060 C   0  0  0  0  0  0  0  0  0  0  0  0
  -23.9807  -22.1249   24.5455 C   0  0  0  0  0  0  0  0  0  0  0  0
  -25.3744  -22.1139   24.6012 C   0  0  0  0  0  0  0  0  0  0  0  0
  -25.5636  -11.5802   20.7849 C   0  0  0  0  0  0  0  0  0  0  0  0
  -22.2023  -26.4822   21.6073 C   0  0  0  0  0  0  0  0  0  0  0  0
  -23.2488  -22.7953   25.5256 C   0  0  0  0  0  0  0  0  0  0  0  0
  -24.1801   -9.7053   21.0899 C   0  0  0  0  0  0  0  0  0  0  0  0
  -21.6125   -8.6305   21.2756 C   0  0  0  0  0  0  0  0  0  0  0  0
  -23.7813   -9.0490   22.2543 C   0  0  0  0  0  0  0  0  0  0  0  0
  -25.9028  -15.7458   20.1285 C   0  0  0  0  0  0  0  0  0  0  0  0
  -25.6517  -17.7996   19.3845 C   0  0  0  0  0  0  0  0  0  0  0  0
  -24.1576  -16.1285   18.2784 C   0  0  0  0  0  0  0  0  0  0  0  0
  -27.4629  -27.7920   21.8805 C   0  0  0  0  0  0  0  0  0  0  0  0
  -20.1156  -24.5212   23.8347 C   0  0  0  0  0  0  0  0  0  0  0  0
  -26.5656  -30.7954   22.7153 C   0  0  0  0  0  0  0  0  0  0  0  0
  -24.0321  -32.9803   23.3894 C   0  0  0  0  0  0  0  0  0  0  0  0
  -27.5265  -21.3433   23.5423 C   0  0  0  0  0  0  0  0  0  0  0  0
  -31.6493  -25.5122   20.0547 C   0  0  0  0  0  0  0  0  0  0  0  0
  -25.7780  -28.3315   20.0843 C   0  0  0  0  0  0  0  0  0  0  0  0
  -24.7709  -29.0232   22.7773 C   0  0  0  0  0  0  0  0  0  0  0  0
  -31.3583  -26.7703   20.8687 C   0  0  0  0  0  0  0  0  0  0  0  0
  -29.7802  -19.7435   21.2977 C   0  0  0  0  0  0  0  0  0  0  0  0
  -30.4224  -26.4502   22.0300 C   0  0  0  0  0  0  0  0  0  0  0  0
  -28.9403  -18.6251   20.6764 C   0  0  0  0  0  0  0  0  0  0  0  0
  -29.4392  -19.9569   22.7714 C   0  0  0  0  0  0  0  0  0  0  0  0
  -27.1739  -19.0495   22.4334 C   0  0  0  0  0  0  0  0  0  0  0  0
  -29.0724  -25.9287   21.5230 C   0  0  1  0  0  0  0  0  0  0  0  0
  -26.7001  -28.8751   21.1714 C   0  0  1  0  0  0  0  0  0  0  0  0
  -27.4359  -18.8413   20.9328 C   0  0  2  0  0  0  0  0  0  0  0  0
  -23.3019  -22.2085   22.1333 C   0  0  0  0  0  0  0  0  0  0  0  0
  -23.6110  -35.3558   24.0801 C   0  0  0  0  0  0  0  0  0  0  0  0
  -27.3509  -30.0991   25.5803 C   0  0  0  0  0  0  0  0  0  0  0  0
  -26.0521  -32.0971   26.3480 C   0  0  0  0  0  0  0  0  0  0  0  0
  -28.0198  -32.3935   24.8436 C   0  0  0  0  0  0  0  0  0  0  0  0
  -22.5514  -33.5653   20.8945 C   0  0  0  0  0  0  0  0  0  0  0  0
  -23.2610  -21.4213   23.4383 C   0  0  0  0  0  0  0  0  0  0  0  0
  -19.9307  -24.2397   25.3185 C   0  0  0  0  0  0  0  0  0  0  0  0
  -20.9749  -25.7243   23.4981 C   0  0  0  0  0  0  0  0  0  1  0  0
  -21.2416  -23.9624   26.0401 C   0  0  0  0  0  0  0  0  0  0  0  0
  -25.8835  -31.4138   23.9116 C   0  0  1  0  0  0  0  0  0  0  0  0
  -23.7693  -34.3967   22.9105 C   0  0  2  0  0  0  0  0  0  0  0  0
  -26.8140  -31.4805   25.1555 C   0  0  0  0  0  0  0  0  0  0  0  0
  -26.7763  -16.4671   20.8361 N   0  0  0  0  0  0  0  0  0  0  0  0
  -26.6000  -17.7117   20.3607 N   0  0  0  0  0  0  0  0  0  0  0  0
  -25.9796  -29.6318   22.1973 N   0  0  0  0  0  0  0  0  0  0  0  0
  -27.9982  -20.1593   22.9371 N   0  0  0  0  0  0  0  0  0  0  0  0
  -25.3484  -18.9770   18.7976 N   0  0  0  0  0  0  0  0  0  0  0  0
  -23.7868  -14.7778   18.2279 N   0  0  0  0  0  0  0  0  0  0  0  0
  -26.1372  -21.4392   23.6160 N   0  0  0  0  0  0  0  0  0  0  0  0
  -28.2538  -27.0235   21.0479 N   0  0  0  0  0  0  0  0  0  0  0  0
  -25.3819  -32.7108   23.4704 N   0  0  0  0  0  0  0  0  0  0  0  0
  -22.5248  -34.4442   22.0920 N   0  3  0  0  0  0  0  0  0  0  0  0
  -23.6059  -16.9459   17.5032 O   0  0  0  0  0  0  0  0  0  0  0  0
  -27.3438  -27.6641   23.0934 O   0  0  0  0  0  0  0  0  0  0  0  0
  -19.6078  -23.8232   22.9585 O   0  0  0  0  0  0  0  0  0  0  0  0
  -27.5769  -31.3294   22.2528 O   0  0  0  0  0  0  0  0  0  0  0  0
  -23.1302  -32.1931   23.6676 O   0  0  0  0  0  0  0  0  0  0  0  0
  -28.2974  -22.2207   23.9396 O   0  0  0  0  0  0  0  0  0  0  0  0
  -25.4541  -10.2401   20.9965 O   0  0  0  0  0  0  0  0  0  0  0  0
  -21.0686  -25.9005   22.0851 O   0  0  0  0  0  0  0  0  0  1  0  0
  -21.8793  -22.8172   25.4883 O   0  0  0  0  0  0  0  0  0  0  0  0
  -20.3791   -8.1158   21.3652 F   0  0  0  0  0  0  0  0  0  0  0  0
  -24.6268   -8.9327   23.2875 F   0  0  0  0  0  0  0  0  0  0  0  0
  1  2  1  0  0  0  0
  1  6  2  0  0  0  0
  2  7  2  0  0  0  0
  3  9  1  0  0  0  0
  3 10  2  0  0  0  0
  4 11  2  0  0  0  0
  4 18  1  0  0  0  0
  5 12  1  0  0  0  0
  5 18  2  0  0  0  0
  6 20  1  0  0  0  0
  7 22  1  0  0  0  0
  8 13  2  0  0  0  0
  8 21  1  0  0  0  0
  9 25  2  0  0  0  0
 10 28  1  0  0  0  0
 11 26  1  0  0  0  0
 12 26  2  0  0  0  0
 13 27  1  0  0  0  0
 14 15  2  0  0  0  0
 14 29  1  0  0  0  0
 15 30  1  0  0  0  0
 16 23  1  0  0  0  0
 16 27  2  0  0  0  0
 17 30  2  0  0  0  0
 17 31  1  0  0  0  0
 18 32  1  0  0  0  0
 19 32  1  0  0  0  0
 19 33  2  0  0  0  0
 19 34  1  0  0  0  0
 20 22  2  0  0  0  0
 20 40  1  0  0  0  0
 21 23  2  0  0  0  0
 21 41  1  0  0  0  0
 22 49  1  0  0  0  0
 23 42  1  0  0  0  0
 24 25  1  0  0  0  0
 24 28  2  0  0  0  0
 24 58  1  0  0  0  0
 25 71  1  0  0  0  0
 26 81  1  0  0  0  0
 27 82  1  0  0  0  0
 28 83  1  0  0  0  0
 29 31  2  0  0  0  0
 29 81  1  0  0  0  0
 30 84  1  0  0  0  0
 31 85  1  0  0  0  0
 32 65  2  0  0  0  0
 33 66  1  0  0  0  0
 33 69  1  0  0  0  0
 34 70  1  0  0  0  0
 34 75  2  0  0  0  0
 35 50  1  0  0  0  0
 35 72  1  0  0  0  0
 35 76  2  0  0  0  0
 36 59  1  0  0  0  0
 36 60  1  0  0  0  0
 36 77  2  0  0  0  0
 37 62  1  0  0  0  0
 37 67  1  0  0  0  0
 37 78  2  0  0  0  0
 38 63  1  0  0  0  0
 38 73  1  0  0  0  0
 38 79  2  0  0  0  0
 39 68  1  0  0  0  0
 39 71  1  0  0  0  0
 39 80  2  0  0  0  0
 40 43  1  0  0  0  0
 41 50  1  0  0  0  0
 42 67  1  0  0  0  0
 43 45  1  0  0  0  0
 44 46  1  0  0  0  0
 44 47  1  0  0  0  0
 45 49  1  0  0  0  0
 46 51  1  0  0  0  0
 47 68  1  0  0  0  0
 48 51  1  0  0  0  0
 48 68  1  0  0  0  0
 49 72  1  0  0  0  0
 50 67  1  0  0  0  0
 51 66  1  0  0  0  0
 52 58  1  0  0  0  0
 53 63  1  0  0  0  0
 54 64  1  0  0  0  0
 55 64  1  0  0  0  0
 56 64  1  0  0  0  0
 57 74  1  0  0  0  0
 59 61  1  0  0  0  0
 60 82  1  0  0  0  0
 61 83  1  0  0  0  0
 62 64  1  0  0  0  0
 62 73  1  0  0  0  0
 63 74  1  0  0  0  0
 65 66  1  0  0  0  0
M  CHG  1  74   1
M  ISO  4  39 100  60 101  71 100  82 101
M  END
> <Batch ID>
0131

> <Smiles>
CCc1c([100NH:0][100C:0](=O)N2CCCC(n3nc(-c4ccc(Oc5ccc(F)cc5F)cc4)c(C(N)=O)c3N)C2)cccc1OCCC(=O)[101CH2:1][101O:1]c1ccc2c(c1)CN(C(=O)C(NC(=O)C(C)NC)C(C)(C)C)C(C(=O)NC1CCCc3ccccc31)C2

> <Shape>
0.252

> <Color>
0.070

> <Negative vol penalty>
0.000

$$$$

  -OEChem-04052302253D

 85 93  0     1  0  0  0  0  0999 V2000
  -28.6474  -36.0261   23.4355 C   0  0  0  0  0  0  0  0  0  0  0  0
  -28.8213  -34.6737   23.1599 C   0  0  0  0  0  0  0  0  0  0  0  0
  -26.3616  -10.6757   21.0502 C   0  0  0  0  0  0  0  0  0  0  0  0
  -25.7420  -11.4307   18.8404 C   0  0  0  0  0  0  0  0  0  0  0  0
  -27.4627  -36.4703   24.0213 C   0  0  0  0  0  0  0  0  0  0  0  0
  -27.8110  -33.7643   23.4709 C   0  0  0  0  0  0  0  0  0  0  0  0
  -26.9563  -30.4563   19.7331 C   0  0  0  0  0  0  0  0  0  0  0  0
  -25.1306  -10.0319   21.1754 C   0  0  0  0  0  0  0  0  0  0  0  0
  -24.5110  -10.7868   18.9656 C   0  0  0  0  0  0  0  0  0  0  0  0
  -27.8562  -29.3998   19.5997 C   0  0  0  0  0  0  0  0  0  0  0  0
  -23.7011   -7.1605   20.1054 C   0  0  0  0  0  0  0  0  0  0  0  0
  -23.6974   -5.8626   20.6162 C   0  0  0  0  0  0  0  0  0  0  0  0
  -26.3080  -27.9448   20.7422 C   0  0  0  0  0  0  0  0  0  0  0  0
  -27.2862  -19.7369   15.2448 C   0  0  0  0  0  0  0  0  0  0  0  0
  -28.2285  -20.5054   17.7556 C   0  0  0  0  0  0  0  0  0  0  0  0
  -22.2916   -6.5855   22.4432 C   0  0  0  0  0  0  0  0  0  0  0  0
  -26.6673  -11.3752   19.8828 C   0  0  0  0  0  0  0  0  0  0  0  0
  -29.1312  -11.5023   19.2344 C   0  0  0  0  0  0  0  0  0  0  0  0
  -26.4334  -35.5672   24.3308 C   0  0  0  0  0  0  0  0  0  0  0  0
  -25.7280  -30.2673   20.3828 C   0  0  0  0  0  0  0  0  0  0  0  0
  -26.6119  -34.1966   24.0626 C   0  0  0  0  0  0  0  0  0  0  0  0
  -25.3932  -28.9999   20.8803 C   0  0  0  0  0  0  0  0  0  0  0  0
  -27.8851  -18.7963   16.0827 C   0  0  0  0  0  0  0  0  0  0  0  0
  -27.1584  -21.0618   15.6622 C   0  0  0  0  0  0  0  0  0  0  0  0
  -28.3563  -19.1805   17.3382 C   0  0  0  0  0  0  0  0  0  0  0  0
  -24.2053  -10.0874   20.1331 C   0  0  0  0  0  0  0  0  0  0  0  0
  -27.5333  -28.1445   20.1068 C   0  0  0  0  0  0  0  0  0  0  0  0
  -23.0001   -8.1710   20.7636 C   0  0  0  0  0  0  0  0  0  0  0  0
  -27.6296  -21.4459   16.9176 C   0  0  0  0  0  0  0  0  0  0  0  0
  -22.9926   -5.5751   21.7850 C   0  0  0  0  0  0  0  0  0  0  0  0
  -22.2953   -7.8835   21.9325 C   0  0  0  0  0  0  0  0  0  0  0  0
  -27.9385  -12.0410   19.7531 C   0  0  0  0  0  0  0  0  0  0  0  0
  -30.0405  -12.5274   19.3288 C   0  0  0  0  0  0  0  0  0  0  0  0
  -29.3938  -10.1925   18.7138 C   0  0  0  0  0  0  0  0  0  0  0  0
  -24.3566  -31.4761   22.9831 C   0  0  0  0  0  0  0  0  0  0  0  0
  -28.4128  -24.8587   18.0828 C   0  0  0  0  0  0  0  0  0  0  0  0
  -21.8032  -29.7559   21.9615 C   0  0  0  0  0  0  0  0  0  0  0  0
  -20.6267  -27.1213   20.1391 C   0  0  0  0  0  0  0  0  0  0  0  0
  -29.4859  -18.4752   19.4765 C   0  0  0  0  0  0  0  0  0  0  0  0
  -25.1897  -36.0879   25.0067 C   0  0  0  0  0  0  0  0  0  0  0  0
  -24.7570  -31.4105   20.4949 C   0  0  0  0  0  0  0  0  0  0  0  0
  -24.0788  -28.7398   21.5682 C   0  0  0  0  0  0  0  0  0  0  0  0
  -24.0176  -35.1110   24.9616 C   0  0  0  0  0  0  0  0  0  0  0  0
  -31.0387  -16.4196   21.9343 C   0  0  0  0  0  0  0  0  0  0  0  0
  -24.4767  -33.7082   25.3465 C   0  0  0  0  0  0  0  0  0  0  0  0
  -30.5332  -15.0136   21.6029 C   0  0  0  0  0  0  0  0  0  0  0  0
  -29.9623  -17.4785   21.7025 C   0  0  0  0  0  0  0  0  0  0  0  0
  -28.8403  -16.0497   20.0385 C   0  0  0  0  0  0  0  0  0  0  0  0
  -25.5291  -33.1828   24.3626 C   0  0  1  0  0  0  0  0  0  0  0  0
  -23.7525  -31.2322   21.6292 C   0  0  1  0  0  0  0  0  0  0  0  0
  -29.9097  -14.9563   20.1945 C   0  0  2  0  0  0  0  0  0  0  0  0
  -28.0084  -17.3842   15.6098 C   0  0  0  0  0  0  0  0  0  0  0  0
  -26.5148  -22.0560   14.7530 C   0  0  0  0  0  0  0  0  0  0  0  0
  -18.4965  -25.9452   19.5257 C   0  0  0  0  0  0  0  0  0  0  0  0
  -21.7131  -28.4796   24.7315 C   0  0  0  0  0  0  0  0  0  0  0  0
  -20.2398  -26.6913   23.7831 C   0  0  0  0  0  0  0  0  0  0  0  0
  -19.4760  -29.0660   23.7798 C   0  0  0  0  0  0  0  0  0  0  0  0
  -21.0177  -27.6695   17.2572 C   0  0  0  0  0  0  0  0  0  0  0  0
  -29.6288  -25.7059   18.4273 C   0  0  0  0  0  0  0  0  0  0  0  0
  -28.7069  -23.4352   17.6512 C   0  0  0  0  0  0  0  0  0  0  0  0
  -29.2682  -27.1261   18.8385 C   0  0  0  0  0  0  0  0  0  1  0  0
  -21.3029  -28.3494   22.1858 C   0  0  1  0  0  0  0  0  0  0  0  0
  -19.4977  -27.0190   19.1295 C   0  0  2  0  0  0  0  0  0  0  0  0
  -20.7086  -28.1516   23.6089 C   0  0  0  0  0  0  0  0  0  0  0  0
  -28.0745  -13.3097   20.1478 N   0  0  0  0  0  0  0  0  0  0  0  0
  -29.3635  -13.5768   19.8772 N   0  0  0  0  0  0  0  0  0  0  0  0
  -23.1656  -29.8910   21.6588 N   0  0  0  0  0  0  0  0  0  0  0  0
  -29.4205  -17.3662   20.3465 N   0  0  0  0  0  0  0  0  0  0  0  0
  -31.3450  -12.6245   18.9954 N   0  0  0  0  0  0  0  0  0  0  0  0
  -28.3470   -9.2608   18.6898 N   0  0  0  0  0  0  0  0  0  0  0  0
  -28.9691  -18.2401   18.2029 N   0  0  0  0  0  0  0  0  0  0  0  0
  -24.8988  -32.7376   23.1384 N   0  0  0  0  0  0  0  0  0  0  0  0
  -20.3654  -28.0721   21.1029 N   0  0  0  0  0  0  0  0  0  0  0  0
  -20.0373  -26.6841   17.7813 N   0  3  0  0  0  0  0  0  0  0  0  0
  -30.5274   -9.8529   18.2978 O   0  0  0  0  0  0  0  0  0  0  0  0
  -24.3313  -30.5862   23.8252 O   0  0  0  0  0  0  0  0  0  0  0  0
  -27.2630  -25.2903   18.1494 O   0  0  0  0  0  0  0  0  0  0  0  0
  -21.0129  -30.6994   22.0446 O   0  0  0  0  0  0  0  0  0  0  0  0
  -21.6375  -26.4245   20.0809 O   0  0  0  0  0  0  0  0  0  0  0  0
  -29.9898  -19.5455   19.8263 O   0  0  0  0  0  0  0  0  0  0  0  0
  -23.0041   -9.4590   20.2549 O   0  0  0  0  0  0  0  0  0  0  0  0
  -27.5125  -22.7475   17.3446 O   0  0  0  0  0  0  0  0  0  0  0  0
  -28.4101  -27.1118   19.9786 O   0  0  0  0  0  0  0  0  0  1  0  0
  -22.9879   -4.3282   22.2745 F   0  0  0  0  0  0  0  0  0  0  0  0
  -21.6190   -8.8499   22.5686 F   0  0  0  0  0  0  0  0  0  0  0  0
  1  2  1  0  0  0  0
  1  5  2  0  0  0  0
  2  6  2  0  0  0  0
  3  8  2  0  0  0  0
  3 17  1  0  0  0  0
  4  9  1  0  0  0  0
  4 17  2  0  0  0  0
  5 19  1  0  0  0  0
  6 21  1  0  0  0  0
  7 10  2  0  0  0  0
  7 20  1  0  0  0  0
  8 26  1  0  0  0  0
  9 26  2  0  0  0  0
 10 27  1  0  0  0  0
 11 12  2  0  0  0  0
 11 28  1  0  0  0  0
 12 30  1  0  0  0  0
 13 22  1  0  0  0  0
 13 27  2  0  0  0  0
 14 23  2  0  0  0  0
 14 24  1  0  0  0  0
 15 25  2  0  0  0  0
 15 29  1  0  0  0  0
 16 30  2  0  0  0  0
 16 31  1  0  0  0  0
 17 32  1  0  0  0  0
 18 32  1  0  0  0  0
 18 33  2  0  0  0  0
 18 34  1  0  0  0  0
 19 21  2  0  0  0  0
 19 40  1  0  0  0  0
 20 22  2  0  0  0  0
 20 41  1  0  0  0  0
 21 49  1  0  0  0  0
 22 42  1  0  0  0  0
 23 25  1  0  0  0  0
 23 52  1  0  0  0  0
 24 29  2  0  0  0  0
 24 53  1  0  0  0  0
 25 71  1  0  0  0  0
 26 81  1  0  0  0  0
 27 83  1  0  0  0  0
 28 31  2  0  0  0  0
 28 81  1  0  0  0  0
 29 82  1  0  0  0  0
 30 84  1  0  0  0  0
 31 85  1  0  0  0  0
 32 65  2  0  0  0  0
 33 66  1  0  0  0  0
 33 69  1  0  0  0  0
 34 70  1  0  0  0  0
 34 75  2  0  0  0  0
 35 50  1  0  0  0  0
 35 72  1  0  0  0  0
 35 76  2  0  0  0  0
 36 59  1  0  0  0  0
 36 60  1  0  0  0  0
 36 77  2  0  0  0  0
 37 62  1  0  0  0  0
 37 67  1  0  0  0  0
 37 78  2  0  0  0  0
 38 63  1  0  0  0  0
 38 73  1  0  0  0  0
 38 79  2  0  0  0  0
 39 68  1  0  0  0  0
 39 71  1  0  0  0  0
 39 80  2  0  0  0  0
 40 43  1  0  0  0  0
 41 50  1  0  0  0  0
 42 67  1  0  0  0  0
 43 45  1  0  0  0  0
 44 46  1  0  0  0  0
 44 47  1  0  0  0  0
 45 49  1  0  0  0  0
 46 51  1  0  0  0  0
 47 68  1  0  0  0  0
 48 51  1  0  0  0  0
 48 68  1  0  0  0  0
 49 72  1  0  0  0  0
 50 67  1  0  0  0  0
 51 66  1  0  0  0  0
 54 63  1  0  0  0  0
 55 64  1  0  0  0  0
 56 64  1  0  0  0  0
 57 64  1  0  0  0  0
 58 74  1  0  0  0  0
 59 61  1  0  0  0  0
 60 82  1  0  0  0  0
 61 83  1  0  0  0  0
 62 64  1  0  0  0  0
 62 73  1  0  0  0  0
 63 74  1  0  0  0  0
 65 66  1  0  0  0  0
M  CHG  1  74   1
M  ISO  4  39 100  61 101  71 100  83 101
M  END
> <Batch ID>
0131

> <Smiles>
CNC(C)C(=O)NC(C(=O)N1Cc2cc([101O:1][101CH2:1]CC(=O)COc3cc([100NH:0][100C:0](=O)N4CCCC(n5nc(-c6ccc(Oc7ccc(F)cc7F)cc6)c(C(N)=O)c5N)C4)c(C)cc3C)ccc2CC1C(=O)NC1CCCc2ccccc21)C(C)(C)C

> <Shape>
0.337

> <Color>
0.067

> <Negative vol penalty>
0.000

$$$$

  -OEChem-04052302253D

 84 92  0     1  0  0  0  0  0999 V2000
  -29.1236  -31.7050   26.5788 C   0  0  0  0  0  0  0  0  0  0  0  0
  -29.0189  -30.7292   25.5928 C   0  0  0  0  0  0  0  0  0  0  0  0
  -23.6775   -9.4302   21.3942 C   0  0  0  0  0  0  0  0  0  0  0  0
  -22.7098  -11.5597   20.7897 C   0  0  0  0  0  0  0  0  0  0  0  0
  -27.9791  -32.1591   27.2329 C   0  0  0  0  0  0  0  0  0  0  0  0
  -27.7696  -30.2061   25.2610 C   0  0  0  0  0  0  0  0  0  0  0  0
  -27.0799  -29.8483   20.2569 C   0  0  0  0  0  0  0  0  0  0  0  0
  -27.1612  -19.4718   19.6132 C   0  0  0  0  0  0  0  0  0  0  0  0
  -27.3362  -18.1045   19.4000 C   0  0  0  0  0  0  0  0  0  0  0  0
  -22.6088   -9.1896   22.2576 C   0  0  0  0  0  0  0  0  0  0  0  0
  -21.6410  -11.3192   21.6531 C   0  0  0  0  0  0  0  0  0  0  0  0
  -27.6927  -28.7793   19.6045 C   0  0  0  0  0  0  0  0  0  0  0  0
  -19.3941   -8.1691   22.0183 C   0  0  0  0  0  0  0  0  0  0  0  0
  -18.8071   -6.9042   21.9864 C   0  0  0  0  0  0  0  0  0  0  0  0
  -25.5969  -27.5848   19.6060 C   0  0  0  0  0  0  0  0  0  0  0  0
  -29.4642  -18.1992   20.5401 C   0  0  0  0  0  0  0  0  0  0  0  0
  -19.3629   -6.5876   24.3162 C   0  0  0  0  0  0  0  0  0  0  0  0
  -23.7281  -10.6153   20.6602 C   0  0  0  0  0  0  0  0  0  0  0  0
  -24.9200  -10.5182   18.4069 C   0  0  0  0  0  0  0  0  0  0  0  0
  -26.7141  -31.6482   26.9023 C   0  0  0  0  0  0  0  0  0  0  0  0
  -25.7212  -29.7889   20.5990 C   0  0  0  0  0  0  0  0  0  0  0  0
  -26.6073  -30.6528   25.9123 C   0  0  0  0  0  0  0  0  0  0  0  0
  -24.9686  -28.6553   20.2604 C   0  0  0  0  0  0  0  0  0  0  0  0
  -28.1377  -20.2028   20.2898 C   0  0  0  0  0  0  0  0  0  0  0  0
  -29.2892  -19.5665   20.7533 C   0  0  0  0  0  0  0  0  0  0  0  0
  -28.4877  -17.4682   19.8635 C   0  0  0  0  0  0  0  0  0  0  0  0
  -21.5905  -10.1341   22.3871 C   0  0  0  0  0  0  0  0  0  0  0  0
  -26.9519  -27.6462   19.2816 C   0  0  0  0  0  0  0  0  0  0  0  0
  -19.9656   -8.6432   23.1991 C   0  0  0  0  0  0  0  0  0  0  0  0
  -18.7914   -6.1135   23.1354 C   0  0  0  0  0  0  0  0  0  0  0  0
  -19.9500   -7.8525   24.3481 C   0  0  0  0  0  0  0  0  0  0  0  0
  -24.8321  -10.8646   19.7686 C   0  0  0  0  0  0  0  0  0  0  0  0
  -26.1569  -10.9705   18.0168 C   0  0  0  0  0  0  0  0  0  0  0  0
  -23.9687   -9.8477   17.5696 C   0  0  0  0  0  0  0  0  0  0  0  0
  -24.0894  -29.8630   23.3259 C   0  0  0  0  0  0  0  0  0  0  0  0
  -21.5269  -29.9290   21.3380 C   0  0  0  0  0  0  0  0  0  0  0  0
  -20.2255  -29.2178   18.2644 C   0  0  0  0  0  0  0  0  0  0  0  0
  -29.7484  -15.2945   20.0438 C   0  0  0  0  0  0  0  0  0  0  0  0
  -25.5109  -32.1360   27.6698 C   0  0  0  0  0  0  0  0  0  0  0  0
  -25.0687  -30.9613   21.2788 C   0  0  0  0  0  0  0  0  0  0  0  0
  -23.5022  -28.5504   20.5875 C   0  0  0  0  0  0  0  0  0  0  0  0
  -24.1823  -31.8003   26.9973 C   0  0  0  0  0  0  0  0  0  0  0  0
  -30.5413  -11.8370   19.7374 C   0  0  0  0  0  0  0  0  0  0  0  0
  -24.1672  -30.3445   26.5421 C   0  0  0  0  0  0  0  0  0  0  0  0
  -29.1756  -11.1644   19.5806 C   0  0  0  0  0  0  0  0  0  0  0  0
  -30.4848  -13.0159   20.7073 C   0  0  0  0  0  0  0  0  0  0  0  0
  -28.0858  -13.3432   20.2529 C   0  0  0  0  0  0  0  0  0  0  0  0
  -25.2670  -30.0787   25.5071 C   0  0  1  0  0  0  0  0  0  0  0  0
  -23.8012  -30.5821   22.0384 C   0  0  1  0  0  0  0  0  0  0  0  0
  -28.0783  -12.1904   19.2357 C   0  0  2  0  0  0  0  0  0  0  0  0
  -30.2977  -20.0904   22.9882 C   0  0  0  0  0  0  0  0  0  0  0  0
  -18.0924  -29.3519   16.9493 C   0  0  0  0  0  0  0  0  0  0  0  0
  -20.4341  -27.5274   22.8703 C   0  0  0  0  0  0  0  0  0  0  0  0
  -18.8472  -27.1286   20.9753 C   0  0  0  0  0  0  0  0  0  0  0  0
  -18.7236  -29.2528   22.2773 C   0  0  0  0  0  0  0  0  0  0  0  0
  -21.4467  -31.0036   16.2449 C   0  0  0  0  0  0  0  0  0  0  0  0
  -27.9263  -21.6800   20.5076 C   0  0  0  0  0  0  0  0  0  0  0  0
  -30.3470  -20.3284   21.4820 C   0  0  0  0  0  0  0  0  0  0  0  0
  -28.7091  -22.5680   19.5337 C   0  0  0  0  0  0  0  0  0  0  0  0
  -28.4220  -24.0611   19.7208 C   0  0  0  0  0  0  0  0  0  0  0  0
  -29.2449  -24.9084   18.7519 C   0  0  0  0  0  0  0  0  0  0  0  0
  -28.9359  -26.3914   18.9008 C   0  0  0  0  0  0  0  0  0  1  0  0
  -20.6530  -28.8853   20.6853 C   0  0  1  0  0  0  0  0  0  0  0  0
  -19.3953  -30.0510   17.3046 C   0  0  2  0  0  0  0  0  0  0  0  0
  -19.6926  -28.1994   21.6975 C   0  0  0  0  0  0  0  0  0  0  0  0
  -25.9260  -11.4886   20.2136 N   0  0  0  0  0  0  0  0  0  0  0  0
  -26.7130  -11.5378   19.1254 N   0  0  0  0  0  0  0  0  0  0  0  0
  -22.9111  -29.7202   21.2580 N   0  0  0  0  0  0  0  0  0  0  0  0
  -29.4255  -13.9482   20.3154 N   0  0  0  0  0  0  0  0  0  0  0  0
  -26.8121  -10.9341   16.8371 N   0  0  0  0  0  0  0  0  0  0  0  0
  -22.7473   -9.4511   18.1308 N   0  0  0  0  0  0  0  0  0  0  0  0
  -28.6651  -16.0788   19.6489 N   0  0  0  0  0  0  0  0  0  0  0  0
  -24.8718  -30.5822   24.2091 N   0  0  0  0  0  0  0  0  0  0  0  0
  -19.9768  -29.5532   19.5785 N   0  0  0  0  0  0  0  0  0  0  0  0
  -20.1534  -30.3002   16.0460 N   0  3  0  0  0  0  0  0  0  0  0  0
  -24.2018   -9.5928   16.3637 O   0  0  0  0  0  0  0  0  0  0  0  0
  -23.6344  -28.7394   23.5053 O   0  0  0  0  0  0  0  0  0  0  0  0
  -21.0011  -30.8976   21.8920 O   0  0  0  0  0  0  0  0  0  0  0  0
  -21.0128  -28.3531   17.8862 O   0  0  0  0  0  0  0  0  0  0  0  0
  -30.9056  -15.7140   20.1271 O   0  0  0  0  0  0  0  0  0  0  0  0
  -20.5474   -9.8995   23.2293 O   0  0  0  0  0  0  0  0  0  0  0  0
  -27.5477  -26.6011   18.6454 O   0  0  0  0  0  0  0  0  0  1  0  0
  -18.2262   -4.8995   23.1051 F   0  0  0  0  0  0  0  0  0  0  0  0
  -20.4964   -8.3031   25.4857 F   0  0  0  0  0  0  0  0  0  0  0  0
  1  2  1  0  0  0  0
  1  5  2  0  0  0  0
  2  6  2  0  0  0  0
  3 10  2  0  0  0  0
  3 18  1  0  0  0  0
  4 11  1  0  0  0  0
  4 18  2  0  0  0  0
  5 20  1  0  0  0  0
  6 22  1  0  0  0  0
  7 12  2  0  0  0  0
  7 21  1  0  0  0  0
  8  9  2  0  0  0  0
  8 24  1  0  0  0  0
  9 26  1  0  0  0  0
 10 27  1  0  0  0  0
 11 27  2  0  0  0  0
 12 28  1  0  0  0  0
 13 14  2  0  0  0  0
 13 29  1  0  0  0  0
 14 30  1  0  0  0  0
 15 23  1  0  0  0  0
 15 28  2  0  0  0  0
 16 25  1  0  0  0  0
 16 26  2  0  0  0  0
 17 30  2  0  0  0  0
 17 31  1  0  0  0  0
 18 32  1  0  0  0  0
 19 32  1  0  0  0  0
 19 33  2  0  0  0  0
 19 34  1  0  0  0  0
 20 22  2  0  0  0  0
 20 39  1  0  0  0  0
 21 23  2  0  0  0  0
 21 40  1  0  0  0  0
 22 48  1  0  0  0  0
 23 41  1  0  0  0  0
 24 25  2  0  0  0  0
 24 57  1  0  0  0  0
 25 58  1  0  0  0  0
 26 72  1  0  0  0  0
 27 81  1  0  0  0  0
 28 82  1  0  0  0  0
 29 31  2  0  0  0  0
 29 81  1  0  0  0  0
 30 83  1  0  0  0  0
 31 84  1  0  0  0  0
 32 66  2  0  0  0  0
 33 67  1  0  0  0  0
 33 70  1  0  0  0  0
 34 71  1  0  0  0  0
 34 76  2  0  0  0  0
 35 49  1  0  0  0  0
 35 73  1  0  0  0  0
 35 77  2  0  0  0  0
 36 63  1  0  0  0  0
 36 68  1  0  0  0  0
 36 78  2  0  0  0  0
 37 64  1  0  0  0  0
 37 74  1  0  0  0  0
 37 79  2  0  0  0  0
 38 69  1  0  0  0  0
 38 72  1  0  0  0  0
 38 80  2  0  0  0  0
 39 42  1  0  0  0  0
 40 49  1  0  0  0  0
 41 68  1  0  0  0  0
 42 44  1  0  0  0  0
 43 45  1  0  0  0  0
 43 46  1  0  0  0  0
 44 48  1  0  0  0  0
 45 50  1  0  0  0  0
 46 69  1  0  0  0  0
 47 50  1  0  0  0  0
 47 69  1  0  0  0  0
 48 73  1  0  0  0  0
 49 68  1  0  0  0  0
 50 67  1  0  0  0  0
 51 58  1  0  0  0  0
 52 64  1  0  0  0  0
 53 65  1  0  0  0  0
 54 65  1  0  0  0  0
 55 65  1  0  0  0  0
 56 75  1  0  0  0  0
 57 59  1  0  0  0  0
 59 60  1  0  0  0  0
 60 61  1  0  0  0  0
 61 62  1  0  0  0  0
 62 82  1  0  0  0  0
 63 65  1  0  0  0  0
 63 74  1  0  0  0  0
 64 75  1  0  0  0  0
 66 67  1  0  0  0  0
M  CHG  1  75   1
M  ISO  4  38 100  62 101  72 100  82 101
M  END
> <Batch ID>
0131

> <Smiles>
CCc1cc([100NH:0][100C:0](=O)N2CCCC(n3nc(-c4ccc(Oc5ccc(F)cc5F)cc4)c(C(N)=O)c3N)C2)ccc1CCCC[101CH2:1][101O:1]c1ccc2c(c1)CN(C(=O)C(NC(=O)C(C)NC)C(C)(C)C)C(C(=O)NC1CCCc3ccccc31)C2

> <Shape>
0.302

> <Color>
0.085

> <Negative vol penalty>
0.000

$$$$

  -OEChem-04052302253D

 85 94  0     1  0  0  0  0  0999 V2000
  -27.3318  -37.6722   19.3874 C   0  0  0  0  0  0  0  0  0  0  0  0
  -27.8346  -36.3892   19.1963 C   0  0  0  0  0  0  0  0  0  0  0  0
  -27.2105  -17.9244   16.7788 C   0  0  0  0  0  0  0  0  0  0  0  0
  -23.8076   -9.3015   22.2746 C   0  0  0  0  0  0  0  0  0  0  0  0
  -23.9537   -9.9835   19.9614 C   0  0  0  0  0  0  0  0  0  0  0  0
  -26.4814  -37.9337   20.4609 C   0  0  0  0  0  0  0  0  0  0  0  0
  -27.4881  -35.3671   20.0793 C   0  0  0  0  0  0  0  0  0  0  0  0
  -26.6424  -29.4561   18.7189 C   0  0  0  0  0  0  0  0  0  0  0  0
  -27.0706  -19.2790   17.0806 C   0  0  0  0  0  0  0  0  0  0  0  0
  -27.4473  -17.0033   17.7993 C   0  0  0  0  0  0  0  0  0  0  0  0
  -22.5469   -8.7553   22.0339 C   0  0  0  0  0  0  0  0  0  0  0  0
  -22.6931   -9.4372   19.7207 C   0  0  0  0  0  0  0  0  0  0  0  0
  -27.4688  -28.3392   18.8354 C   0  0  0  0  0  0  0  0  0  0  0  0
  -21.2727   -5.9426   20.6561 C   0  0  0  0  0  0  0  0  0  0  0  0
  -21.0047   -4.6765   21.1765 C   0  0  0  0  0  0  0  0  0  0  0  0
  -26.4452  -27.8103   20.9547 C   0  0  0  0  0  0  0  0  0  0  0  0
  -27.4047  -18.7916   19.4233 C   0  0  0  0  0  0  0  0  0  0  0  0
  -19.1770   -5.5925   22.4640 C   0  0  0  0  0  0  0  0  0  0  0  0
  -24.5110   -9.9157   21.2384 C   0  0  0  0  0  0  0  0  0  0  0  0
  -27.0570   -9.8315   21.3735 C   0  0  0  0  0  0  0  0  0  0  0  0
  -26.1166  -36.9121   21.3519 C   0  0  0  0  0  0  0  0  0  0  0  0
  -25.7172  -29.7650   19.7264 C   0  0  0  0  0  0  0  0  0  0  0  0
  -26.6331  -35.6154   21.1665 C   0  0  0  0  0  0  0  0  0  0  0  0
  -25.6065  -28.9301   20.8475 C   0  0  0  0  0  0  0  0  0  0  0  0
  -27.1678  -19.7126   18.4028 C   0  0  0  0  0  0  0  0  0  0  0  0
  -27.5445  -17.4369   19.1215 C   0  0  0  0  0  0  0  0  0  0  0  0
  -21.9897   -8.8231   20.7570 C   0  0  0  0  0  0  0  0  0  0  0  0
  -27.3723  -27.5178   19.9547 C   0  0  0  0  0  0  0  0  0  0  0  0
  -20.4929   -7.0337   21.0398 C   0  0  0  0  0  0  0  0  0  0  0  0
  -19.9569   -4.5014   22.0804 C   0  0  0  0  0  0  0  0  0  0  0  0
  -19.4450   -6.8586   21.9437 C   0  0  0  0  0  0  0  0  0  0  0  0
  -25.8130  -10.4807   21.4865 C   0  0  0  0  0  0  0  0  0  0  0  0
  -27.9778  -10.7921   21.7140 C   0  0  0  0  0  0  0  0  0  0  0  0
  -28.1683  -23.3762   18.4503 C   0  0  0  0  0  0  0  0  0  0  0  0
  -28.8431  -24.3351   19.1087 C   0  0  0  0  0  0  0  0  0  0  0  0
  -27.3537   -8.4809   20.9945 C   0  0  0  0  0  0  0  0  0  0  0  0
  -25.2912  -32.2152   21.7060 C   0  0  0  0  0  0  0  0  0  0  0  0
  -22.5877  -30.6050   22.4938 C   0  0  0  0  0  0  0  0  0  0  0  0
  -20.9255  -27.6277   22.6337 C   0  0  0  0  0  0  0  0  0  0  0  0
  -27.9083  -16.7639   21.5217 C   0  0  0  0  0  0  0  0  0  0  0  0
  -25.2322  -37.2534   22.5249 C   0  0  0  0  0  0  0  0  0  0  0  0
  -24.8145  -30.9584   19.5732 C   0  0  0  0  0  0  0  0  0  0  0  0
  -24.6154  -29.2067   21.9474 C   0  0  0  0  0  0  0  0  0  0  0  0
  -29.8985  -24.0091   20.1354 C   0  0  0  0  0  0  0  0  0  0  0  0
  -24.6148  -36.0306   23.1985 C   0  0  0  0  0  0  0  0  0  0  0  0
  -30.3497  -22.5476   20.1017 C   0  0  0  0  0  0  0  0  0  0  0  0
  -28.4628  -14.7322   24.3925 C   0  0  0  0  0  0  0  0  0  0  0  0
  -25.6715  -34.9532   23.4209 C   0  0  0  0  0  0  0  0  0  0  0  0
  -29.1558  -21.6089   19.9714 C   0  0  0  0  0  0  0  0  0  0  0  0
  -27.9651  -13.3509   23.9607 C   0  0  0  0  0  0  0  0  0  0  0  0
  -27.6008  -15.8524   23.8129 C   0  0  0  0  0  0  0  0  0  0  0  0
  -26.9204  -14.4236   21.9248 C   0  0  0  0  0  0  0  0  0  0  0  0
  -26.2605  -34.4747   22.0884 C   0  0  1  0  0  0  0  0  0  0  0  0
  -28.3622  -21.8988   18.6867 C   0  0  1  0  0  0  0  0  0  0  0  0
  -24.2655  -31.4669   20.9026 C   0  0  1  0  0  0  0  0  0  0  0  0
  -27.7958  -13.2656   22.4311 C   0  0  2  0  0  0  0  0  0  0  0  0
  -18.7453  -26.6212   23.3623 C   0  0  0  0  0  0  0  0  0  0  0  0
  -23.4872  -30.7701   25.4047 C   0  0  0  0  0  0  0  0  0  0  0  0
  -21.8246  -28.9786   25.9473 C   0  0  0  0  0  0  0  0  0  0  0  0
  -21.0449  -31.1689   25.0433 C   0  0  0  0  0  0  0  0  0  0  0  0
  -20.2889  -26.7297   19.8864 C   0  0  0  0  0  0  0  0  0  0  0  0
  -27.0170  -21.1725   18.7275 C   0  0  0  0  0  0  0  0  0  0  0  0
  -28.5919  -25.7934   18.8615 C   0  0  0  0  0  0  0  0  0  1  0  0
  -22.2314  -29.5466   23.5095 C   0  0  1  0  0  0  0  0  0  0  0  0
  -19.5216  -27.2370   22.2086 C   0  0  2  0  0  0  0  0  0  0  0  0
  -22.1671  -30.1117   24.9566 C   0  0  0  0  0  0  0  0  0  0  0  0
  -25.9293  -11.7551   21.8691 N   0  0  0  0  0  0  0  0  0  0  0  0
  -27.2574  -11.9144   21.9995 N   0  0  0  0  0  0  0  0  0  0  0  0
  -23.7593  -30.3888   21.7545 N   0  0  0  0  0  0  0  0  0  0  0  0
  -27.4887  -15.7092   22.3597 N   0  0  0  0  0  0  0  0  0  0  0  0
  -29.3253  -10.7776   21.7941 N   0  0  0  0  0  0  0  0  0  0  0  0
  -26.2889   -7.6270   20.6762 N   0  0  0  0  0  0  0  0  0  0  0  0
  -27.7844  -16.5009   20.1578 N   0  0  0  0  0  0  0  0  0  0  0  0
  -25.3461  -33.5678   21.4283 N   0  0  0  0  0  0  0  0  0  0  0  0
  -20.9866  -28.9412   23.0487 N   0  0  0  0  0  0  0  0  0  0  0  0
  -19.5739  -26.2471   21.0959 N   0  3  0  0  0  0  0  0  0  0  0  0
  -28.5272   -8.0396   20.9556 O   0  0  0  0  0  0  0  0  0  0  0  0
  -25.9808  -31.6106   22.5188 O   0  0  0  0  0  0  0  0  0  0  0  0
  -21.8499  -31.5839   22.3562 O   0  0  0  0  0  0  0  0  0  0  0  0
  -21.8725  -26.8449   22.6042 O   0  0  0  0  0  0  0  0  0  0  0  0
  -28.3707  -17.8120   21.9797 O   0  0  0  0  0  0  0  0  0  0  0  0
  -20.7597   -8.2899   20.5217 O   0  0  0  0  0  0  0  0  0  0  0  0
  -28.1781  -26.4274   20.0711 O   0  0  0  0  0  0  0  0  0  1  0  0
  -19.6987   -3.2853   22.5788 F   0  0  0  0  0  0  0  0  0  0  0  0
  -18.6917   -7.9028   22.3151 F   0  0  0  0  0  0  0  0  0  0  0  0
  1  2  1  0  0  0  0
  1  6  2  0  0  0  0
  2  7  2  0  0  0  0
  3  9  2  0  0  0  0
  3 10  1  0  0  0  0
  4 11  2  0  0  0  0
  4 19  1  0  0  0  0
  5 12  1  0  0  0  0
  5 19  2  0  0  0  0
  6 21  1  0  0  0  0
  7 23  1  0  0  0  0
  8 13  2  0  0  0  0
  8 22  1  0  0  0  0
  9 25  1  0  0  0  0
 10 26  2  0  0  0  0
 11 27  1  0  0  0  0
 12 27  2  0  0  0  0
 13 28  1  0  0  0  0
 14 15  2  0  0  0  0
 14 29  1  0  0  0  0
 15 30  1  0  0  0  0
 16 24  1  0  0  0  0
 16 28  2  0  0  0  0
 17 25  2  0  0  0  0
 17 26  1  0  0  0  0
 18 30  2  0  0  0  0
 18 31  1  0  0  0  0
 19 32  1  0  0  0  0
 20 32  1  0  0  0  0
 20 33  2  0  0  0  0
 20 36  1  0  0  0  0
 21 23  2  0  0  0  0
 21 41  1  0  0  0  0
 22 24  2  0  0  0  0
 22 42  1  0  0  0  0
 23 53  1  0  0  0  0
 24 43  1  0  0  0  0
 25 62  1  0  0  0  0
 26 73  1  0  0  0  0
 27 82  1  0  0  0  0
 28 83  1  0  0  0  0
 29 31  2  0  0  0  0
 29 82  1  0  0  0  0
 30 84  1  0  0  0  0
 31 85  1  0  0  0  0
 32 67  2  0  0  0  0
 33 68  1  0  0  0  0
 33 71  1  0  0  0  0
 34 35  2  0  0  0  0
 34 54  1  0  0  0  0
 35 44  1  0  0  0  0
 35 63  1  0  0  0  0
 36 72  1  0  0  0  0
 36 77  2  0  0  0  0
 37 55  1  0  0  0  0
 37 74  1  0  0  0  0
 37 78  2  0  0  0  0
 38 64  1  0  0  0  0
 38 69  1  0  0  0  0
 38 79  2  0  0  0  0
 39 65  1  0  0  0  0
 39 75  1  0  0  0  0
 39 80  2  0  0  0  0
 40 70  1  0  0  0  0
 40 73  1  0  0  0  0
 40 81  2  0  0  0  0
 41 45  1  0  0  0  0
 42 55  1  0  0  0  0
 43 69  1  0  0  0  0
 44 46  1  0  0  0  0
 45 48  1  0  0  0  0
 46 49  1  0  0  0  0
 47 50  1  0  0  0  0
 47 51  1  0  0  0  0
 48 53  1  0  0  0  0
 49 54  1  0  0  0  0
 50 56  1  0  0  0  0
 51 70  1  0  0  0  0
 52 56  1  0  0  0  0
 52 70  1  0  0  0  0
 53 74  1  0  0  0  0
 54 62  1  0  0  0  0
 55 69  1  0  0  0  0
 56 68  1  0  0  0  0
 57 65  1  0  0  0  0
 58 66  1  0  0  0  0
 59 66  1  0  0  0  0
 60 66  1  0  0  0  0
 61 76  1  0  0  0  0
 63 83  1  0  0  0  0
 64 66  1  0  0  0  0
 64 75  1  0  0  0  0
 65 76  1  0  0  0  0
 67 68  1  0  0  0  0
M  CHG  1  76   1
M  ISO  4  40 100  63 101  73 100  83 101
M  END
> <Batch ID>
0131

> <Smiles>
CNC(C)C(=O)NC(C(=O)N1Cc2cc([101O:1][101CH2:1]C3=CC(Cc4cccc([100NH:0][100C:0](=O)N5CCCC(n6nc(-c7ccc(Oc8ccc(F)cc8F)cc7)c(C(N)=O)c6N)C5)c4)CCC3)ccc2CC1C(=O)NC1CCCc2ccccc21)C(C)(C)C

> <Shape>
0.253

> <Color>
0.080

> <Negative vol penalty>
0.000

$$$$

  -OEChem-04052302253D

 85 93  0     1  0  0  0  0  0999 V2000
  -19.8507  -33.7885   20.3359 C   0  0  0  0  0  0  0  0  0  0  0  0
  -21.0780  -33.2123   20.0245 C   0  0  0  0  0  0  0  0  0  0  0  0
  -23.3821  -10.4009   20.3315 C   0  0  0  0  0  0  0  0  0  0  0  0
  -23.3669  -10.3755   22.7473 C   0  0  0  0  0  0  0  0  0  0  0  0
  -19.1785  -33.4093   21.4971 C   0  0  0  0  0  0  0  0  0  0  0  0
  -21.6345  -32.2573   20.8747 C   0  0  0  0  0  0  0  0  0  0  0  0
  -24.9844  -27.3927   19.2561 C   0  0  0  0  0  0  0  0  0  0  0  0
  -23.4153   -9.0066   20.3170 C   0  0  0  0  0  0  0  0  0  0  0  0
  -23.4001   -8.9811   22.7329 C   0  0  0  0  0  0  0  0  0  0  0  0
  -26.3600  -27.1679   19.2300 C   0  0  0  0  0  0  0  0  0  0  0  0
  -21.2208   -6.4444   22.2468 C   0  0  0  0  0  0  0  0  0  0  0  0
  -20.3563   -5.7682   23.1076 C   0  0  0  0  0  0  0  0  0  0  0  0
  -32.3418  -18.2651   18.3661 C   0  0  0  0  0  0  0  0  0  0  0  0
  -31.2939  -19.5573   20.1179 C   0  0  0  0  0  0  0  0  0  0  0  0
  -26.2247  -26.1244   21.4007 C   0  0  0  0  0  0  0  0  0  0  0  0
  -33.4309  -20.2437   19.2241 C   0  0  0  0  0  0  0  0  0  0  0  0
  -22.2489   -4.7299   24.1925 C   0  0  0  0  0  0  0  0  0  0  0  0
  -23.3580  -11.0854   21.5467 C   0  0  0  0  0  0  0  0  0  0  0  0
  -31.2802  -18.4670   19.2480 C   0  0  0  0  0  0  0  0  0  0  0  0
  -22.1827  -13.3495   21.5639 C   0  0  0  0  0  0  0  0  0  0  0  0
  -19.7224  -32.4422   22.3570 C   0  0  0  0  0  0  0  0  0  0  0  0
  -24.2189  -26.9942   20.3614 C   0  0  0  0  0  0  0  0  0  0  0  0
  -20.9696  -31.8659   22.0491 C   0  0  0  0  0  0  0  0  0  0  0  0
  -24.8391  -26.3430   21.4373 C   0  0  0  0  0  0  0  0  0  0  0  0
  -33.4172  -19.1535   18.3541 C   0  0  0  0  0  0  0  0  0  0  0  0
  -32.3692  -20.4456   20.1060 C   0  0  0  0  0  0  0  0  0  0  0  0
  -23.4242   -8.2967   21.5177 C   0  0  0  0  0  0  0  0  0  0  0  0
  -26.9809  -26.5362   20.3036 C   0  0  0  0  0  0  0  0  0  0  0  0
  -22.5993   -6.2633   22.3588 C   0  0  0  0  0  0  0  0  0  0  0  0
  -20.8704   -4.9109   24.0805 C   0  0  0  0  0  0  0  0  0  0  0  0
  -23.1134   -5.4061   23.3317 C   0  0  0  0  0  0  0  0  0  0  0  0
  -23.3244  -12.5258   21.5623 C   0  0  0  0  0  0  0  0  0  0  0  0
  -22.6823  -14.6288   21.5814 C   0  0  0  0  0  0  0  0  0  0  0  0
  -30.1592  -17.5402   19.2602 C   0  0  0  0  0  0  0  0  0  0  0  0
  -28.9316  -17.8025   19.7571 C   0  0  0  0  0  0  0  0  0  0  0  0
  -30.6434  -23.4177   20.9546 C   0  0  0  0  0  0  0  0  0  0  0  0
  -31.7421  -22.8430   20.4476 C   0  0  0  0  0  0  0  0  0  0  0  0
  -20.7947  -12.9903   21.5510 C   0  0  0  0  0  0  0  0  0  0  0  0
  -30.0461  -24.6224   20.3131 C   0  0  0  0  0  0  0  0  0  0  0  0
  -27.8915  -16.7566   19.6866 C   0  0  0  0  0  0  0  0  0  0  0  0
  -22.4288  -28.5029   22.5116 C   0  0  0  0  0  0  0  0  0  0  0  0
  -21.7032  -25.4842   23.4516 C   0  0  0  0  0  0  0  0  0  0  0  0
  -22.5981  -22.1931   23.5713 C   0  0  0  0  0  0  0  0  0  0  0  0
  -18.9813  -32.0991   23.6250 C   0  0  0  0  0  0  0  0  0  0  0  0
  -22.7318  -27.2200   20.3626 C   0  0  0  0  0  0  0  0  0  0  0  0
  -24.0591  -25.8775   22.6387 C   0  0  0  0  0  0  0  0  0  0  0  0
  -19.4615  -30.8068   24.2804 C   0  0  0  0  0  0  0  0  0  0  0  0
  -26.4511  -17.1682   23.0315 C   0  0  0  0  0  0  0  0  0  0  0  0
  -20.9853  -30.7729   24.3406 C   0  0  0  0  0  0  0  0  0  0  0  0
  -25.4066  -16.0552   23.0404 C   0  0  0  0  0  0  0  0  0  0  0  0
  -27.6936  -16.7798   22.2316 C   0  0  0  0  0  0  0  0  0  0  0  0
  -26.3474  -15.2266   20.8475 C   0  0  0  0  0  0  0  0  0  0  0  0
  -21.5939  -30.8084   22.9336 C   0  0  1  0  0  0  0  0  0  0  0  0
  -22.1306  -27.2337   21.7646 C   0  0  1  0  0  0  0  0  0  0  0  0
  -25.0691  -15.6139   21.6074 C   0  0  1  0  0  0  0  0  0  0  0  0
  -34.5526  -18.9377   17.4114 C   0  0  0  0  0  0  0  0  0  0  0  0
  -21.8206  -19.9705   24.4392 C   0  0  0  0  0  0  0  0  0  0  0  0
  -22.5419  -26.2946   26.2712 C   0  0  0  0  0  0  0  0  0  0  0  0
  -22.6575  -23.8640   26.8603 C   0  0  0  0  0  0  0  0  0  0  0  0
  -20.4863  -24.8744   26.1619 C   0  0  0  0  0  0  0  0  0  0  0  0
  -22.4724  -21.0427   20.8473 C   0  0  0  0  0  0  0  0  0  0  0  0
  -32.3841  -21.6244   21.0468 C   0  0  0  0  0  0  0  0  0  0  0  0
  -28.8064  -25.1731   20.9857 C   0  0  0  0  0  0  0  0  0  1  0  0
  -22.2921  -24.4993   24.4326 C   0  0  1  0  0  0  0  0  0  0  0  0
  -21.8230  -20.9264   23.2563 C   0  0  2  0  0  0  0  0  0  0  0  0
  -22.0098  -24.8935   25.9099 C   0  0  0  0  0  0  0  0  0  0  0  0
  -24.4634  -13.2233   21.5773 N   0  0  0  0  0  0  0  0  0  0  0  0
  -24.0400  -14.4987   21.5884 N   0  0  0  0  0  0  0  0  0  0  0  0
  -27.3405  -16.3059   20.8849 N   0  0  0  0  0  0  0  0  0  0  0  0
  -22.6087  -26.1268   22.5955 N   0  0  0  0  0  0  0  0  0  0  0  0
  -22.0884  -15.8410   21.5911 N   0  0  0  0  0  0  0  0  0  0  0  0
  -20.4566  -11.6303   21.5338 N   0  0  0  0  0  0  0  0  0  0  0  0
  -21.5004  -29.5061   22.3094 N   0  0  0  0  0  0  0  0  0  0  0  0
  -21.7754  -23.1884   24.0547 N   0  0  0  0  0  0  0  0  0  0  0  0
  -22.4273  -20.2264   22.0877 N   0  3  0  0  0  0  0  0  0  0  0  0
  -19.8815  -13.8502   21.5380 O   0  0  0  0  0  0  0  0  0  0  0  0
  -30.5306  -25.1320   19.3062 O   0  0  0  0  0  0  0  0  0  0  0  0
  -27.5769  -16.3418   18.5696 O   0  0  0  0  0  0  0  0  0  0  0  0
  -23.4266  -28.5666   23.2202 O   0  0  0  0  0  0  0  0  0  0  0  0
  -20.4840  -25.6710   23.4405 O   0  0  0  0  0  0  0  0  0  0  0  0
  -23.8125  -22.2887   23.4084 O   0  0  0  0  0  0  0  0  0  0  0  0
  -23.4563   -6.9360   21.5040 O   0  0  0  0  0  0  0  0  0  0  0  0
  -28.3236  -26.3161   20.2810 O   0  0  0  0  0  0  0  0  0  1  0  0
  -20.0402   -4.2628   24.9080 F   0  0  0  0  0  0  0  0  0  0  0  0
  -24.4369   -5.2290   23.4449 F   0  0  0  0  0  0  0  0  0  0  0  0
  1  2  1  0  0  0  0
  1  5  2  0  0  0  0
  2  6  2  0  0  0  0
  3  8  2  0  0  0  0
  3 18  1  0  0  0  0
  4  9  1  0  0  0  0
  4 18  2  0  0  0  0
  5 21  1  0  0  0  0
  6 23  1  0  0  0  0
  7 10  2  0  0  0  0
  7 22  1  0  0  0  0
  8 27  1  0  0  0  0
  9 27  2  0  0  0  0
 10 28  1  0  0  0  0
 11 12  2  0  0  0  0
 11 29  1  0  0  0  0
 12 30  1  0  0  0  0
 13 19  2  0  0  0  0
 13 25  1  0  0  0  0
 14 19  1  0  0  0  0
 14 26  2  0  0  0  0
 15 24  1  0  0  0  0
 15 28  2  0  0  0  0
 16 25  2  0  0  0  0
 16 26  1  0  0  0  0
 17 30  2  0  0  0  0
 17 31  1  0  0  0  0
 18 32  1  0  0  0  0
 19 34  1  0  0  0  0
 20 32  1  0  0  0  0
 20 33  2  0  0  0  0
 20 38  1  0  0  0  0
 21 23  2  0  0  0  0
 21 44  1  0  0  0  0
 22 24  2  0  0  0  0
 22 45  1  0  0  0  0
 23 53  1  0  0  0  0
 24 46  1  0  0  0  0
 25 56  1  0  0  0  0
 26 62  1  0  0  0  0
 27 82  1  0  0  0  0
 28 83  1  0  0  0  0
 29 31  2  0  0  0  0
 29 82  1  0  0  0  0
 30 84  1  0  0  0  0
 31 85  1  0  0  0  0
 32 67  2  0  0  0  0
 33 68  1  0  0  0  0
 33 71  1  0  0  0  0
 34 35  2  0  0  0  0
 35 40  1  0  0  0  0
 36 37  2  0  0  0  0
 36 39  1  0  0  0  0
 37 62  1  0  0  0  0
 38 72  1  0  0  0  0
 38 76  2  0  0  0  0
 39 63  1  0  0  0  0
 39 77  2  0  0  0  0
 40 69  1  0  0  0  0
 40 78  2  0  0  0  0
 41 54  1  0  0  0  0
 41 73  1  0  0  0  0
 41 79  2  0  0  0  0
 42 64  1  0  0  0  0
 42 70  1  0  0  0  0
 42 80  2  0  0  0  0
 43 65  1  0  0  0  0
 43 74  1  0  0  0  0
 43 81  2  0  0  0  0
 44 47  1  0  0  0  0
 45 54  1  0  0  0  0
 46 70  1  0  0  0  0
 47 49  1  0  0  0  0
 48 50  1  0  0  0  0
 48 51  1  0  0  0  0
 49 53  1  0  0  0  0
 50 55  1  0  0  0  0
 51 69  1  0  0  0  0
 52 55  1  0  0  0  0
 52 69  1  0  0  0  0
 53 73  1  0  0  0  0
 54 70  1  0  0  0  0
 55 68  1  0  0  0  0
 57 65  1  0  0  0  0
 58 66  1  0  0  0  0
 59 66  1  0  0  0  0
 60 66  1  0  0  0  0
 61 75  1  0  0  0  0
 63 83  1  0  0  0  0
 64 66  1  0  0  0  0
 64 74  1  0  0  0  0
 65 75  1  0  0  0  0
 67 68  1  0  0  0  0
M  CHG  1  75   1
M  ISO  4  35 100  40 100  63 101  83 101
M  END
> <Batch ID>
0131

> <Smiles>
CNC(C)C(=O)NC(C(=O)N1Cc2cc([101O:1][101CH2:1]C(=O)C=CCc3cc(C)cc(C=[100CH:0][100C:0](=O)N4CCCC(n5nc(-c6ccc(Oc7ccc(F)cc7F)cc6)c(C(N)=O)c5N)C4)c3)ccc2CC1C(=O)NC1CCCc2ccccc21)C(C)(C)C

> <Shape>
0.195

> <Color>
0.106

> <Negative vol penalty>
0.000

$$$$

  -OEChem-04052302253D

 86 94  0     1  0  0  0  0  0999 V2000
  -24.0658  -24.0504   28.2684 C   0  0  0  0  0  0  0  0  0  0  0  0
  -24.1002  -22.6896   27.9814 C   0  0  0  0  0  0  0  0  0  0  0  0
  -23.2708   -9.8197   19.9769 C   0  0  0  0  0  0  0  0  0  0  0  0
  -23.4831  -10.0980   22.3674 C   0  0  0  0  0  0  0  0  0  0  0  0
  -24.2075  -24.9822   27.2410 C   0  0  0  0  0  0  0  0  0  0  0  0
  -24.2753  -22.2597   26.6665 C   0  0  0  0  0  0  0  0  0  0  0  0
  -27.6347  -18.4895   26.2861 C   0  0  0  0  0  0  0  0  0  0  0  0
  -22.5080   -8.6694   20.1785 C   0  0  0  0  0  0  0  0  0  0  0  0
  -22.7203   -8.9477   22.5691 C   0  0  0  0  0  0  0  0  0  0  0  0
  -27.2009  -17.2121   26.6382 C   0  0  0  0  0  0  0  0  0  0  0  0
  -21.1323   -5.8845   23.7112 C   0  0  0  0  0  0  0  0  0  0  0  0
  -21.5805   -4.9677   24.6621 C   0  0  0  0  0  0  0  0  0  0  0  0
  -26.8944  -16.6796   24.3055 C   0  0  0  0  0  0  0  0  0  0  0  0
  -31.7237  -13.9501   27.8686 C   0  0  0  0  0  0  0  0  0  0  0  0
  -30.2310  -12.3249   26.1618 C   0  0  0  0  0  0  0  0  0  0  0  0
  -23.6330   -4.6827   23.4198 C   0  0  0  0  0  0  0  0  0  0  0  0
  -23.7584  -10.5340   21.0713 C   0  0  0  0  0  0  0  0  0  0  0  0
  -24.0780  -13.0446   20.7516 C   0  0  0  0  0  0  0  0  0  0  0  0
  -24.3940  -24.5635   25.9141 C   0  0  0  0  0  0  0  0  0  0  0  0
  -27.6914  -18.8758   24.9392 C   0  0  0  0  0  0  0  0  0  0  0  0
  -24.4183  -23.1868   25.6201 C   0  0  0  0  0  0  0  0  0  0  0  0
  -27.3318  -17.9615   23.9387 C   0  0  0  0  0  0  0  0  0  0  0  0
  -30.6926  -13.1625   28.3805 C   0  0  0  0  0  0  0  0  0  0  0  0
  -32.0084  -13.9252   26.5033 C   0  0  0  0  0  0  0  0  0  0  0  0
  -29.9462  -12.3498   27.5271 C   0  0  0  0  0  0  0  0  0  0  0  0
  -22.2327   -8.2335   21.4746 C   0  0  0  0  0  0  0  0  0  0  0  0
  -26.8279  -16.3080   25.6480 C   0  0  0  0  0  0  0  0  0  0  0  0
  -21.9344   -6.2003   22.6145 C   0  0  0  0  0  0  0  0  0  0  0  0
  -31.2621  -13.1126   25.6499 C   0  0  0  0  0  0  0  0  0  0  0  0
  -22.8309   -4.3668   24.5165 C   0  0  0  0  0  0  0  0  0  0  0  0
  -23.1847   -5.5994   22.4689 C   0  0  0  0  0  0  0  0  0  0  0  0
  -24.5469  -11.7219   20.8637 C   0  0  0  0  0  0  0  0  0  0  0  0
  -25.2123  -13.7962   20.5642 C   0  0  0  0  0  0  0  0  0  0  0  0
  -22.7372  -13.5487   20.8115 C   0  0  0  0  0  0  0  0  0  0  0  0
  -26.2689  -21.1129   23.1855 C   0  0  0  0  0  0  0  0  0  0  0  0
  -26.9880  -12.9835   27.0903 C   0  0  0  0  0  0  0  0  0  0  0  0
  -30.9580  -12.8239   22.0313 C   0  0  0  0  0  0  0  0  0  0  0  0
  -28.3056  -20.0581   20.8917 C   0  0  0  0  0  0  0  0  0  0  0  0
  -30.2471  -17.5249   19.6834 C   0  0  0  0  0  0  0  0  0  0  0  0
  -24.4952  -25.6079   24.8307 C   0  0  0  0  0  0  0  0  0  0  0  0
  -28.1870  -20.2482   24.5745 C   0  0  0  0  0  0  0  0  0  0  0  0
  -27.3939  -18.3202   22.4772 C   0  0  0  0  0  0  0  0  0  0  0  0
  -25.0520  -25.0692   23.5154 C   0  0  0  0  0  0  0  0  0  0  0  0
  -29.6348  -13.5339   18.7779 C   0  0  0  0  0  0  0  0  0  0  0  0
  -24.3714  -23.7549   23.1461 C   0  0  0  0  0  0  0  0  0  0  0  0
  -28.1420  -13.2426   18.9261 C   0  0  0  0  0  0  0  0  0  0  0  0
  -30.4763  -12.5786   19.6185 C   0  0  0  0  0  0  0  0  0  0  0  0
  -28.6138  -12.2651   21.2167 C   0  0  0  0  0  0  0  0  0  0  0  0
  -24.6311  -22.6812   24.2097 C   0  0  1  0  0  0  0  0  0  0  0  0
  -27.7157  -20.7075   23.1981 C   0  0  1  0  0  0  0  0  0  0  0  0
  -27.7262  -13.2274   20.4077 C   0  0  2  0  0  0  0  0  0  0  0  0
  -33.1163  -14.7741   25.9727 C   0  0  0  0  0  0  0  0  0  0  0  0
  -31.4164  -12.4045   30.6582 C   0  0  0  0  0  0  0  0  0  0  0  0
  -31.7634  -16.9461   17.7694 C   0  0  0  0  0  0  0  0  0  0  0  0
  -25.8763  -19.6819   19.0841 C   0  0  0  0  0  0  0  0  0  0  0  0
  -27.2923  -18.2505   17.5961 C   0  0  0  0  0  0  0  0  0  0  0  0
  -27.8831  -20.6485   17.9470 C   0  0  0  0  0  0  0  0  0  0  0  0
  -32.5578  -17.1143   21.4865 C   0  0  0  0  0  0  0  0  0  0  0  0
  -30.4046  -13.2064   29.8453 C   0  0  0  0  0  0  0  0  0  0  0  0
  -28.8253  -11.4883   28.0575 C   0  0  0  0  0  0  0  0  0  0  0  0
  -27.5319  -12.2635   28.3159 C   0  0  0  0  0  0  0  0  0  0  0  0
  -26.9410  -14.4960   27.1842 C   0  0  0  0  0  0  0  0  0  1  0  0
  -30.4287  -12.8088   23.4433 C   0  0  0  0  0  0  0  0  0  0  0  0
  -28.2527  -18.9938   19.8224 C   0  0  1  0  0  0  0  0  0  0  0  0
  -31.6796  -17.5053   19.1812 C   0  0  2  0  0  0  0  0  0  0  0  0
  -27.3230  -19.3872   18.6399 C   0  0  0  0  0  0  0  0  0  0  0  0
  -25.8754  -11.6349   20.7563 N   0  0  0  0  0  0  0  0  0  0  0  0
  -26.2510  -12.9124   20.5747 N   0  0  0  0  0  0  0  0  0  0  0  0
  -27.8791  -19.6762   22.1715 N   0  0  0  0  0  0  0  0  0  0  0  0
  -30.0356  -12.5764   21.0145 N   0  0  0  0  0  0  0  0  0  0  0  0
  -25.4124  -15.1202   20.3930 N   0  0  0  0  0  0  0  0  0  0  0  0
  -21.6896  -12.6390   21.0097 N   0  0  0  0  0  0  0  0  0  0  0  0
  -25.9637  -22.1361   24.0627 N   0  0  0  0  0  0  0  0  0  0  0  0
  -29.6353  -18.7354   19.4350 N   0  0  0  0  0  0  0  0  0  0  0  0
  -32.5290  -16.6642   20.0710 N   0  3  0  0  0  0  0  0  0  0  0  0
  -22.4743  -14.7678   20.6764 O   0  0  0  0  0  0  0  0  0  0  0  0
  -25.4877  -20.5409   22.4345 O   0  0  0  0  0  0  0  0  0  0  0  0
  -26.6403  -12.3882   26.0719 O   0  0  0  0  0  0  0  0  0  0  0  0
  -32.1553  -13.0519   21.8397 O   0  0  0  0  0  0  0  0  0  0  0  0
  -28.7170  -21.1848   20.6036 O   0  0  0  0  0  0  0  0  0  0  0  0
  -29.7221  -16.5614   20.2370 O   0  0  0  0  0  0  0  0  0  0  0  0
  -21.4883   -7.1112   21.6717 O   0  0  0  0  0  0  0  0  0  0  0  0
  -26.4034  -15.0608   25.9891 O   0  0  0  0  0  0  0  0  0  1  0  0
  -31.5262  -13.0775   24.3137 O   0  0  0  0  0  0  0  0  0  0  0  0
  -23.2618   -3.4877   25.4305 F   0  0  0  0  0  0  0  0  0  0  0  0
  -23.9602   -5.8997   21.4181 F   0  0  0  0  0  0  0  0  0  0  0  0
  1  2  1  0  0  0  0
  1  5  2  0  0  0  0
  2  6  2  0  0  0  0
  3  8  2  0  0  0  0
  3 17  1  0  0  0  0
  4  9  1  0  0  0  0
  4 17  2  0  0  0  0
  5 19  1  0  0  0  0
  6 21  1  0  0  0  0
  7 10  2  0  0  0  0
  7 20  1  0  0  0  0
  8 26  1  0  0  0  0
  9 26  2  0  0  0  0
 10 27  1  0  0  0  0
 11 12  2  0  0  0  0
 11 28  1  0  0  0  0
 12 30  1  0  0  0  0
 13 22  1  0  0  0  0
 13 27  2  0  0  0  0
 14 23  1  0  0  0  0
 14 24  2  0  0  0  0
 15 25  1  0  0  0  0
 15 29  2  0  0  0  0
 16 30  2  0  0  0  0
 16 31  1  0  0  0  0
 17 32  1  0  0  0  0
 18 32  1  0  0  0  0
 18 33  2  0  0  0  0
 18 34  1  0  0  0  0
 19 21  2  0  0  0  0
 19 40  1  0  0  0  0
 20 22  2  0  0  0  0
 20 41  1  0  0  0  0
 21 49  1  0  0  0  0
 22 42  1  0  0  0  0
 23 25  2  0  0  0  0
 23 59  1  0  0  0  0
 24 29  1  0  0  0  0
 24 52  1  0  0  0  0
 25 60  1  0  0  0  0
 26 82  1  0  0  0  0
 27 83  1  0  0  0  0
 28 31  2  0  0  0  0
 28 82  1  0  0  0  0
 29 84  1  0  0  0  0
 30 85  1  0  0  0  0
 31 86  1  0  0  0  0
 32 67  2  0  0  0  0
 33 68  1  0  0  0  0
 33 71  1  0  0  0  0
 34 72  1  0  0  0  0
 34 76  2  0  0  0  0
 35 50  1  0  0  0  0
 35 73  1  0  0  0  0
 35 77  2  0  0  0  0
 36 61  1  0  0  0  0
 36 62  1  0  0  0  0
 36 78  2  0  0  0  0
 37 63  1  0  0  0  0
 37 70  1  0  0  0  0
 37 79  2  0  0  0  0
 38 64  1  0  0  0  0
 38 69  1  0  0  0  0
 38 80  2  0  0  0  0
 39 65  1  0  0  0  0
 39 74  1  0  0  0  0
 39 81  2  0  0  0  0
 40 43  1  0  0  0  0
 41 50  1  0  0  0  0
 42 69  1  0  0  0  0
 43 45  1  0  0  0  0
 44 46  1  0  0  0  0
 44 47  1  0  0  0  0
 45 49  1  0  0  0  0
 46 51  1  0  0  0  0
 47 70  1  0  0  0  0
 48 51  1  0  0  0  0
 48 70  1  0  0  0  0
 49 73  1  0  0  0  0
 50 69  1  0  0  0  0
 51 68  1  0  0  0  0
 53 59  1  0  0  0  0
 54 65  1  0  0  0  0
 55 66  1  0  0  0  0
 56 66  1  0  0  0  0
 57 66  1  0  0  0  0
 58 75  1  0  0  0  0
 60 61  1  0  0  0  0
 62 83  1  0  0  0  0
 63 84  1  0  0  0  0
 64 66  1  0  0  0  0
 64 74  1  0  0  0  0
 65 75  1  0  0  0  0
 67 68  1  0  0  0  0
M  CHG  1  75   1
M  ISO  4  37 100  62 101  63 100  83 101
M  END
> <Batch ID>
0131

> <Smiles>
CCc1cc(C)c(O[100CH2:0][100C:0](=O)N2CCCC(n3nc(-c4ccc(Oc5ccc(F)cc5F)cc4)c(C(N)=O)c3N)C2)cc1CCC(=O)[101CH2:1][101O:1]c1ccc2c(c1)CN(C(=O)C(NC(=O)C(C)NC)C(C)(C)C)C(C(=O)NC1CCCc3ccccc31)C2

> <Shape>
0.188

> <Color>
0.188

> <Negative vol penalty>
0.000

$$$$

  -OEChem-04052302253D

 85 93  0     1  0  0  0  0  0999 V2000
  -21.8513  -11.9330   19.7167 C   0  0  0  0  0  0  0  0  0  0  0  0
  -21.6631  -13.2107   20.2339 C   0  0  0  0  0  0  0  0  0  0  0  0
  -17.9352  -29.3777   22.7149 C   0  0  0  0  0  0  0  0  0  0  0  0
  -30.5535  -26.7257   22.4987 C   0  0  0  0  0  0  0  0  0  0  0  0
  -29.6634  -27.3051   24.6687 C   0  0  0  0  0  0  0  0  0  0  0  0
  -17.5280  -28.0538   22.8789 C   0  0  0  0  0  0  0  0  0  0  0  0
  -23.1260  -11.3685   19.7031 C   0  0  0  0  0  0  0  0  0  0  0  0
  -22.7495  -13.9242   20.7390 C   0  0  0  0  0  0  0  0  0  0  0  0
  -22.7932  -18.7471   19.1955 C   0  0  0  0  0  0  0  0  0  0  0  0
  -19.2853  -29.6741   22.5276 C   0  0  0  0  0  0  0  0  0  0  0  0
  -31.8488  -26.7943   23.0116 C   0  0  0  0  0  0  0  0  0  0  0  0
  -30.9587  -27.3736   25.1817 C   0  0  0  0  0  0  0  0  0  0  0  0
  -21.9249  -19.6290   19.8374 C   0  0  0  0  0  0  0  0  0  0  0  0
  -34.0148  -27.3482   27.1508 C   0  0  0  0  0  0  0  0  0  0  0  0
  -34.2574  -26.7441   28.3844 C   0  0  0  0  0  0  0  0  0  0  0  0
  -23.7521  -20.4328   21.1918 C   0  0  0  0  0  0  0  0  0  0  0  0
  -33.5801  -24.6114   27.4733 C   0  0  0  0  0  0  0  0  0  0  0  0
  -29.4608  -26.9811   23.3272 C   0  0  0  0  0  0  0  0  0  0  0  0
  -18.4709  -27.0262   22.8558 C   0  0  0  0  0  0  0  0  0  0  0  0
  -27.2833  -25.7816   22.7553 C   0  0  0  0  0  0  0  0  0  0  0  0
  -24.2302  -12.0792   20.1994 C   0  0  0  0  0  0  0  0  0  0  0  0
  -24.1475  -18.6937   19.5550 C   0  0  0  0  0  0  0  0  0  0  0  0
  -24.0400  -13.3681   20.7333 C   0  0  0  0  0  0  0  0  0  0  0  0
  -24.6361  -19.5512   20.5511 C   0  0  0  0  0  0  0  0  0  0  0  0
  -19.8211  -27.3225   22.6686 C   0  0  0  0  0  0  0  0  0  0  0  0
  -20.2282  -28.6465   22.5045 C   0  0  0  0  0  0  0  0  0  0  0  0
  -32.0514  -27.1182   24.3532 C   0  0  0  0  0  0  0  0  0  0  0  0
  -22.4037  -20.4699   20.8377 C   0  0  0  0  0  0  0  0  0  0  0  0
  -33.5548  -26.5839   26.0784 C   0  0  0  0  0  0  0  0  0  0  0  0
  -34.0401  -25.3757   28.5457 C   0  0  0  0  0  0  0  0  0  0  0  0
  -33.3375  -25.2156   26.2397 C   0  0  0  0  0  0  0  0  0  0  0  0
  -28.1225  -26.9110   22.7978 C   0  0  0  0  0  0  0  0  0  0  0  0
  -26.1296  -26.2332   22.1624 C   0  0  0  0  0  0  0  0  0  0  0  0
  -18.0056  -25.6407   23.0323 C   0  0  0  0  0  0  0  0  0  0  0  0
  -17.6143  -24.8256   22.0404 C   0  0  0  0  0  0  0  0  0  0  0  0
  -27.5249  -24.4438   23.2110 C   0  0  0  0  0  0  0  0  0  0  0  0
  -26.0620  -16.4606   20.7600 C   0  0  0  0  0  0  0  0  0  0  0  0
  -28.3523  -18.6996   20.2462 C   0  0  0  0  0  0  0  0  0  0  0  0
  -29.1460  -21.9959   19.8570 C   0  0  0  0  0  0  0  0  0  0  0  0
  -22.1144  -30.0494   21.5986 C   0  0  0  0  0  0  0  0  0  0  0  0
  -25.5812  -11.4088   20.2069 C   0  0  0  0  0  0  0  0  0  0  0  0
  -25.0767  -17.7557   18.8344 C   0  0  0  0  0  0  0  0  0  0  0  0
  -26.0856  -19.5470   20.9600 C   0  0  0  0  0  0  0  0  0  0  0  0
  -26.7412  -12.3785   20.4178 C   0  0  0  0  0  0  0  0  0  0  0  0
  -25.1334  -30.5928   19.7910 C   0  0  0  0  0  0  0  0  0  0  0  0
  -26.4372  -13.3322   21.5689 C   0  0  0  0  0  0  0  0  0  0  0  0
  -26.1112  -29.5905   20.4086 C   0  0  0  0  0  0  0  0  0  0  0  0
  -24.1903  -31.1836   20.8376 C   0  0  0  0  0  0  0  0  0  0  0  0
  -24.4459  -29.1942   22.2679 C   0  0  0  0  0  0  0  0  0  0  0  0
  -25.1977  -14.1833   21.2675 C   0  0  1  0  0  0  0  0  0  0  0  0
  -26.3304  -17.4226   19.6374 C   0  0  1  0  0  0  0  0  0  0  0  0
  -25.3736  -28.5237   21.2415 C   0  0  2  0  0  0  0  0  0  0  0  0
  -21.2971  -25.8991   21.2258 C   0  0  0  0  0  0  0  0  0  0  0  0
  -31.1054  -23.5202   19.4900 C   0  0  0  0  0  0  0  0  0  0  0  0
  -29.1510  -18.3736   23.1729 C   0  0  0  0  0  0  0  0  0  0  0  0
  -30.4137  -20.5283   22.9959 C   0  0  0  0  0  0  0  0  0  0  0  0
  -31.0714  -18.5796   21.5842 C   0  0  0  0  0  0  0  0  0  0  0  0
  -28.0538  -22.9708   17.2850 C   0  0  0  0  0  0  0  0  0  0  0  0
  -20.8396  -26.2239   22.6427 C   0  0  0  0  0  0  0  0  0  0  0  0
  -17.1379  -23.4183   22.2664 C   0  0  0  0  0  0  0  0  0  0  0  0
  -17.9438  -22.3825   21.4762 C   0  0  0  0  0  0  0  0  0  0  0  0
  -19.4171  -22.3322   21.8834 C   0  0  0  0  0  0  0  0  0  0  0  0
  -20.1930  -21.3205   21.0509 C   0  0  0  0  0  0  0  0  0  1  0  0
  -28.9404  -19.8320   21.0528 C   0  0  1  0  0  0  0  0  0  0  0  0
  -30.0015  -22.7111   18.8270 C   0  0  2  0  0  0  0  0  0  0  0  0
  -29.8664  -19.3273   22.1953 C   0  0  0  0  0  0  0  0  0  0  0  0
  -27.5508  -27.9983   22.2735 N   0  0  0  0  0  0  0  0  0  0  0  0
  -26.3399  -27.5542   21.8959 N   0  0  0  0  0  0  0  0  0  0  0  0
  -26.9533  -18.6077   20.2303 N   0  0  0  0  0  0  0  0  0  0  0  0
  -23.5238  -30.1146   21.5844 N   0  0  0  0  0  0  0  0  0  0  0  0
  -24.9659  -25.6253   21.8482 N   0  0  0  0  0  0  0  0  0  0  0  0
  -28.7641  -24.1511   23.7967 N   0  0  0  0  0  0  0  0  0  0  0  0
  -21.5942  -28.9715   22.3143 N   0  0  0  0  0  0  0  0  0  0  0  0
  -25.5297  -15.2529   20.3508 N   0  0  0  0  0  0  0  0  0  0  0  0
  -29.5986  -20.7156   20.0965 N   0  0  0  0  0  0  0  0  0  0  0  0
  -29.1651  -23.6368   18.0118 N   0  3  0  0  0  0  0  0  0  0  0  0
  -26.6734  -23.5310   23.0873 O   0  0  0  0  0  0  0  0  0  0  0  0
  -26.3202  -16.7892   21.9120 O   0  0  0  0  0  0  0  0  0  0  0  0
  -29.1062  -17.9293   19.6462 O   0  0  0  0  0  0  0  0  0  0  0  0
  -28.1758  -22.5217   20.3980 O   0  0  0  0  0  0  0  0  0  0  0  0
  -21.4206  -30.8725   20.9960 O   0  0  0  0  0  0  0  0  0  0  0  0
  -33.3152  -27.1850   24.8541 O   0  0  0  0  0  0  0  0  0  0  0  0
  -21.5582  -21.3312   21.4664 O   0  0  0  0  0  0  0  0  0  1  0  0
  -34.2746  -24.7955   29.7299 F   0  0  0  0  0  0  0  0  0  0  0  0
  -32.8967  -24.4760   25.2127 F   0  0  0  0  0  0  0  0  0  0  0  0
  1  2  1  0  0  0  0
  1  7  2  0  0  0  0
  2  8  2  0  0  0  0
  3  6  1  0  0  0  0
  3 10  2  0  0  0  0
  4 11  2  0  0  0  0
  4 18  1  0  0  0  0
  5 12  1  0  0  0  0
  5 18  2  0  0  0  0
  6 19  2  0  0  0  0
  7 21  1  0  0  0  0
  8 23  1  0  0  0  0
  9 13  2  0  0  0  0
  9 22  1  0  0  0  0
 10 26  1  0  0  0  0
 11 27  1  0  0  0  0
 12 27  2  0  0  0  0
 13 28  1  0  0  0  0
 14 15  2  0  0  0  0
 14 29  1  0  0  0  0
 15 30  1  0  0  0  0
 16 24  1  0  0  0  0
 16 28  2  0  0  0  0
 17 30  2  0  0  0  0
 17 31  1  0  0  0  0
 18 32  1  0  0  0  0
 19 25  1  0  0  0  0
 19 34  1  0  0  0  0
 20 32  1  0  0  0  0
 20 33  2  0  0  0  0
 20 36  1  0  0  0  0
 21 23  2  0  0  0  0
 21 41  1  0  0  0  0
 22 24  2  0  0  0  0
 22 42  1  0  0  0  0
 23 50  1  0  0  0  0
 24 43  1  0  0  0  0
 25 26  2  0  0  0  0
 25 59  1  0  0  0  0
 26 73  1  0  0  0  0
 27 82  1  0  0  0  0
 28 83  1  0  0  0  0
 29 31  2  0  0  0  0
 29 82  1  0  0  0  0
 30 84  1  0  0  0  0
 31 85  1  0  0  0  0
 32 67  2  0  0  0  0
 33 68  1  0  0  0  0
 33 71  1  0  0  0  0
 34 35  2  0  0  0  0
 35 60  1  0  0  0  0
 36 72  1  0  0  0  0
 36 77  2  0  0  0  0
 37 51  1  0  0  0  0
 37 74  1  0  0  0  0
 37 78  2  0  0  0  0
 38 64  1  0  0  0  0
 38 69  1  0  0  0  0
 38 79  2  0  0  0  0
 39 65  1  0  0  0  0
 39 75  1  0  0  0  0
 39 80  2  0  0  0  0
 40 70  1  0  0  0  0
 40 73  1  0  0  0  0
 40 81  2  0  0  0  0
 41 44  1  0  0  0  0
 42 51  1  0  0  0  0
 43 69  1  0  0  0  0
 44 46  1  0  0  0  0
 45 47  1  0  0  0  0
 45 48  1  0  0  0  0
 46 50  1  0  0  0  0
 47 52  1  0  0  0  0
 48 70  1  0  0  0  0
 49 52  1  0  0  0  0
 49 70  1  0  0  0  0
 50 74  1  0  0  0  0
 51 69  1  0  0  0  0
 52 68  1  0  0  0  0
 53 59  1  0  0  0  0
 54 65  1  0  0  0  0
 55 66  1  0  0  0  0
 56 66  1  0  0  0  0
 57 66  1  0  0  0  0
 58 76  1  0  0  0  0
 60 61  1  0  0  0  0
 61 62  1  0  0  0  0
 62 63  1  0  0  0  0
 63 83  1  0  0  0  0
 64 66  1  0  0  0  0
 64 75  1  0  0  0  0
 65 76  1  0  0  0  0
 67 68  1  0  0  0  0
M  CHG  1  76   1
M  ISO  4  40 100  63 101  73 100  83 101
M  END
> <Batch ID>
0131

> <Smiles>
CCc1c(C=CCCC[101CH2:1][101O:1]c2ccc3c(c2)CN(C(=O)C(NC(=O)C(C)NC)C(C)(C)C)C(C(=O)NC2CCCc4ccccc42)C3)cccc1[100NH:0][100C:0](=O)N1CCCC(n2nc(-c3ccc(Oc4ccc(F)cc4F)cc3)c(C(N)=O)c2N)C1

> <Shape>
0.216

> <Color>
0.087

> <Negative vol penalty>
0.000

$$$$

  -OEChem-04052302253D

 83 91  0     1  0  0  0  0  0999 V2000
  -24.1751  -35.0261   15.0440 C   0  0  0  0  0  0  0  0  0  0  0  0
  -24.9051  -33.8917   15.3839 C   0  0  0  0  0  0  0  0  0  0  0  0
  -25.3294  -23.3045   23.1233 C   0  0  0  0  0  0  0  0  0  0  0  0
  -23.7476   -9.5816   22.4486 C   0  0  0  0  0  0  0  0  0  0  0  0
  -24.3180   -9.0763   20.1559 C   0  0  0  0  0  0  0  0  0  0  0  0
  -25.2474  -21.9256   23.3164 C   0  0  0  0  0  0  0  0  0  0  0  0
  -23.8572  -35.9679   16.0217 C   0  0  0  0  0  0  0  0  0  0  0  0
  -25.3187  -33.6990   16.7015 C   0  0  0  0  0  0  0  0  0  0  0  0
  -24.5422  -28.9596   18.3079 C   0  0  0  0  0  0  0  0  0  0  0  0
  -25.5319  -23.8187   21.8425 C   0  0  0  0  0  0  0  0  0  0  0  0
  -22.7514   -8.6059   22.4158 C   0  0  0  0  0  0  0  0  0  0  0  0
  -23.3218   -8.1006   20.1231 C   0  0  0  0  0  0  0  0  0  0  0  0
  -25.4502  -27.9883   17.8884 C   0  0  0  0  0  0  0  0  0  0  0  0
  -21.1687   -5.2276   19.5498 C   0  0  0  0  0  0  0  0  0  0  0  0
  -21.4859   -3.9948   18.9796 C   0  0  0  0  0  0  0  0  0  0  0  0
  -25.5703  -21.5748   20.9478 C   0  0  0  0  0  0  0  0  0  0  0  0
  -26.5770  -28.1313   20.0166 C   0  0  0  0  0  0  0  0  0  0  0  0
  -23.2319   -3.6850   20.6206 C   0  0  0  0  0  0  0  0  0  0  0  0
  -24.5309   -9.8169   21.3186 C   0  0  0  0  0  0  0  0  0  0  0  0
  -25.3679  -21.0607   22.2287 C   0  0  0  0  0  0  0  0  0  0  0  0
  -26.9065  -10.6534   21.7243 C   0  0  0  0  0  0  0  0  0  0  0  0
  -24.2588  -35.7819   17.3539 C   0  0  0  0  0  0  0  0  0  0  0  0
  -24.6516  -29.5329   19.5830 C   0  0  0  0  0  0  0  0  0  0  0  0
  -25.0071  -34.6398   17.6977 C   0  0  0  0  0  0  0  0  0  0  0  0
  -25.6677  -29.1078   20.4508 C   0  0  0  0  0  0  0  0  0  0  0  0
  -25.6523  -22.9538   20.7548 C   0  0  0  0  0  0  0  0  0  0  0  0
  -22.5385   -7.8654   21.2530 C   0  0  0  0  0  0  0  0  0  0  0  0
  -26.4695  -27.5761   18.7417 C   0  0  0  0  0  0  0  0  0  0  0  0
  -21.8832   -5.6892   20.6553 C   0  0  0  0  0  0  0  0  0  0  0  0
  -22.5174   -3.2235   19.5150 C   0  0  0  0  0  0  0  0  0  0  0  0
  -22.9147   -4.9179   21.1907 C   0  0  0  0  0  0  0  0  0  0  0  0
  -25.5598  -10.8250   21.3517 C   0  0  0  0  0  0  0  0  0  0  0  0
  -27.4626  -11.9017   21.5867 C   0  0  0  0  0  0  0  0  0  0  0  0
  -25.2831  -19.6224   22.4301 C   0  0  0  0  0  0  0  0  0  0  0  0
  -25.0032  -18.7129   21.4726 C   0  0  0  0  0  0  0  0  0  0  0  0
  -27.5933   -9.4712   22.1562 C   0  0  0  0  0  0  0  0  0  0  0  0
  -24.9629  -17.2816   21.8338 C   0  0  0  0  0  0  0  0  0  0  0  0
  -25.1563  -32.4711   20.6856 C   0  0  0  0  0  0  0  0  0  0  0  0
  -24.6035  -31.0682   23.5577 C   0  0  0  0  0  0  0  0  0  0  0  0
  -24.5898  -28.2185   25.4352 C   0  0  0  0  0  0  0  0  0  0  0  0
  -23.9323  -36.8508   18.3666 C   0  0  0  0  0  0  0  0  0  0  0  0
  -23.6481  -30.5601   20.0303 C   0  0  0  0  0  0  0  0  0  0  0  0
  -25.8162  -29.6774   21.8371 C   0  0  0  0  0  0  0  0  0  0  0  0
  -24.0860  -36.3870   19.8128 C   0  0  0  0  0  0  0  0  0  0  0  0
  -27.0246  -15.9548   19.1096 C   0  0  0  0  0  0  0  0  0  0  0  0
  -25.4036  -35.6408   19.9970 C   0  0  0  0  0  0  0  0  0  0  0  0
  -26.9594  -14.4567   19.3949 C   0  0  0  0  0  0  0  0  0  0  0  0
  -25.7216  -16.6637   19.4761 C   0  0  0  0  0  0  0  0  0  0  0  0
  -25.2214  -14.9232   21.1674 C   0  0  0  0  0  0  0  0  0  0  0  0
  -25.4523  -34.3830   19.1211 C   0  0  1  0  0  0  0  0  0  0  0  0
  -24.1638  -31.4472   21.1592 C   0  0  1  0  0  0  0  0  0  0  0  0
  -26.5382  -14.1975   20.8501 C   0  0  1  0  0  0  0  0  0  0  0  0
  -24.1280  -27.3931   27.7597 C   0  0  0  0  0  0  0  0  0  0  0  0
  -29.1156  -24.4873   17.4060 C   0  0  0  0  0  0  0  0  0  0  0  0
  -27.2656  -32.2275   24.4954 C   0  0  0  0  0  0  0  0  0  0  0  0
  -27.2043  -30.6282   26.4207 C   0  0  0  0  0  0  0  0  0  0  0  0
  -25.4210  -32.3556   26.1792 C   0  0  0  0  0  0  0  0  0  0  0  0
  -22.4219  -26.4357   24.4964 C   0  0  0  0  0  0  0  0  0  0  0  0
  -25.8699  -23.5102   19.3699 C   0  0  0  0  0  0  0  0  0  0  0  0
  -27.3476  -23.6853   18.9929 C   0  0  0  0  0  0  0  0  0  0  0  0
  -26.8873  -25.6555   17.4028 C   0  0  0  0  0  0  0  0  0  1  0  0
  -25.4600  -30.3848   24.5961 C   0  0  1  0  0  0  0  0  0  0  0  0
  -23.5491  -27.6361   26.3746 C   0  0  2  0  0  0  0  0  0  0  0  0
  -27.6045  -24.3139   17.6054 C   0  0  1  0  0  0  0  0  0  0  0  0
  -26.3363  -31.3895   25.3961 C   0  0  0  0  0  0  0  0  0  0  0  0
  -25.2775  -12.0832   21.0036 N   0  0  0  0  0  0  0  0  0  0  0  0
  -26.4544  -12.7136   21.1571 N   0  0  0  0  0  0  0  0  0  0  0  0
  -25.3089  -16.3536   20.8531 N   0  0  0  0  0  0  0  0  0  0  0  0
  -24.8143  -30.6836   22.2260 N   0  0  0  0  0  0  0  0  0  0  0  0
  -28.7107  -12.3731   21.7925 N   0  0  0  0  0  0  0  0  0  0  0  0
  -26.8717   -8.2728   22.2415 N   0  0  0  0  0  0  0  0  0  0  0  0
  -24.6658  -33.3230   19.7145 N   0  0  0  0  0  0  0  0  0  0  0  0
  -24.5505  -29.5967   25.4209 N   0  0  0  0  0  0  0  0  0  0  0  0
  -23.0400  -26.3399   25.8440 N   0  3  0  0  0  0  0  0  0  0  0  0
  -28.8070   -9.4810   22.4731 O   0  0  0  0  0  0  0  0  0  0  0  0
  -24.6201  -16.9943   22.9821 O   0  0  0  0  0  0  0  0  0  0  0  0
  -26.2832  -32.4879   21.1667 O   0  0  0  0  0  0  0  0  0  0  0  0
  -23.7731  -31.9072   23.9156 O   0  0  0  0  0  0  0  0  0  0  0  0
  -25.3628  -27.5207   24.7826 O   0  0  0  0  0  0  0  0  0  0  0  0
  -21.5666   -6.9130   21.2207 O   0  0  0  0  0  0  0  0  0  0  0  0
  -27.3575  -26.6287   18.3346 O   0  0  0  0  0  0  0  0  0  1  0  0
  -22.8209   -2.0389   18.9683 F   0  0  0  0  0  0  0  0  0  0  0  0
  -23.6038   -5.3556   22.2535 F   0  0  0  0  0  0  0  0  0  0  0  0
  1  2  1  0  0  0  0
  1  7  2  0  0  0  0
  2  8  2  0  0  0  0
  3  6  1  0  0  0  0
  3 10  2  0  0  0  0
  4 11  2  0  0  0  0
  4 19  1  0  0  0  0
  5 12  1  0  0  0  0
  5 19  2  0  0  0  0
  6 20  2  0  0  0  0
  7 22  1  0  0  0  0
  8 24  1  0  0  0  0
  9 13  2  0  0  0  0
  9 23  1  0  0  0  0
 10 26  1  0  0  0  0
 11 27  1  0  0  0  0
 12 27  2  0  0  0  0
 13 28  1  0  0  0  0
 14 15  2  0  0  0  0
 14 29  1  0  0  0  0
 15 30  1  0  0  0  0
 16 20  1  0  0  0  0
 16 26  2  0  0  0  0
 17 25  1  0  0  0  0
 17 28  2  0  0  0  0
 18 30  2  0  0  0  0
 18 31  1  0  0  0  0
 19 32  1  0  0  0  0
 20 34  1  0  0  0  0
 21 32  1  0  0  0  0
 21 33  2  0  0  0  0
 21 36  1  0  0  0  0
 22 24  2  0  0  0  0
 22 41  1  0  0  0  0
 23 25  2  0  0  0  0
 23 42  1  0  0  0  0
 24 50  1  0  0  0  0
 25 43  1  0  0  0  0
 26 59  1  0  0  0  0
 27 80  1  0  0  0  0
 28 81  1  0  0  0  0
 29 31  2  0  0  0  0
 29 80  1  0  0  0  0
 30 82  1  0  0  0  0
 31 83  1  0  0  0  0
 32 66  2  0  0  0  0
 33 67  1  0  0  0  0
 33 70  1  0  0  0  0
 34 35  2  0  0  0  0
 35 37  1  0  0  0  0
 36 71  1  0  0  0  0
 36 75  2  0  0  0  0
 37 68  1  0  0  0  0
 37 76  2  0  0  0  0
 38 51  1  0  0  0  0
 38 72  1  0  0  0  0
 38 77  2  0  0  0  0
 39 62  1  0  0  0  0
 39 69  1  0  0  0  0
 39 78  2  0  0  0  0
 40 63  1  0  0  0  0
 40 73  1  0  0  0  0
 40 79  2  0  0  0  0
 41 44  1  0  0  0  0
 42 51  1  0  0  0  0
 43 69  1  0  0  0  0
 44 46  1  0  0  0  0
 45 47  1  0  0  0  0
 45 48  1  0  0  0  0
 46 50  1  0  0  0  0
 47 52  1  0  0  0  0
 48 68  1  0  0  0  0
 49 52  1  0  0  0  0
 49 68  1  0  0  0  0
 50 72  1  0  0  0  0
 51 69  1  0  0  0  0
 52 67  1  0  0  0  0
 53 63  1  0  0  0  0
 54 64  1  0  0  0  0
 55 65  1  0  0  0  0
 56 65  1  0  0  0  0
 57 65  1  0  0  0  0
 58 74  1  0  0  0  0
 59 60  1  0  0  0  0
 60 64  1  0  0  0  0
 61 64  1  0  0  0  0
 61 81  1  0  0  0  0
 62 65  1  0  0  0  0
 62 73  1  0  0  0  0
 63 74  1  0  0  0  0
 66 67  1  0  0  0  0
M  CHG  1  74   1
M  ISO  4  35 100  37 100  61 101  81 101
M  END
> <Batch ID>
0131

> <Smiles>
CNC(C)C(=O)NC(C(=O)N1Cc2cc([101O:1][101CH2:1]C(C)CCc3cccc(C=[100CH:0][100C:0](=O)N4CCCC(n5nc(-c6ccc(Oc7ccc(F)cc7F)cc6)c(C(N)=O)c5N)C4)c3)ccc2CC1C(=O)NC1CCCc2ccccc21)C(C)(C)C

> <Shape>
0.187

> <Color>
0.109

> <Negative vol penalty>
0.000

$$$$

  -OEChem-04052302253D

 82 90  0     1  0  0  0  0  0999 V2000
  -16.8544  -24.8841   21.1834 C   0  0  0  0  0  0  0  0  0  0  0  0
  -17.8433  -23.9059   21.2072 C   0  0  0  0  0  0  0  0  0  0  0  0
  -24.4028  -11.9012   20.8847 C   0  0  0  0  0  0  0  0  0  0  0  0
  -27.6696  -23.2586   20.3472 C   0  0  0  0  0  0  0  0  0  0  0  0
  -29.3984  -23.5436   18.6837 C   0  0  0  0  0  0  0  0  0  0  0  0
  -25.7022  -12.1588   21.3218 C   0  0  0  0  0  0  0  0  0  0  0  0
  -17.1537  -26.1862   21.5820 C   0  0  0  0  0  0  0  0  0  0  0  0
  -19.1326  -24.2296   21.6286 C   0  0  0  0  0  0  0  0  0  0  0  0
  -21.0631  -20.7835   24.7975 C   0  0  0  0  0  0  0  0  0  0  0  0
  -23.6469  -12.9205   20.3056 C   0  0  0  0  0  0  0  0  0  0  0  0
  -27.6337  -24.6387   20.5462 C   0  0  0  0  0  0  0  0  0  0  0  0
  -29.3624  -24.9237   18.8827 C   0  0  0  0  0  0  0  0  0  0  0  0
  -21.5506  -19.6043   24.2357 C   0  0  0  0  0  0  0  0  0  0  0  0
  -26.3248  -27.3453   18.9990 C   0  0  0  0  0  0  0  0  0  0  0  0
  -25.0735  -27.9577   19.0697 C   0  0  0  0  0  0  0  0  0  0  0  0
  -25.4895  -14.4549   20.6007 C   0  0  0  0  0  0  0  0  0  0  0  0
  -23.7983  -20.4660   24.3922 C   0  0  0  0  0  0  0  0  0  0  0  0
  -25.5783  -28.7312   21.3022 C   0  0  0  0  0  0  0  0  0  0  0  0
  -28.5521  -22.7110   19.4159 C   0  0  0  0  0  0  0  0  0  0  0  0
  -26.2455  -13.4356   21.1798 C   0  0  0  0  0  0  0  0  0  0  0  0
  -27.8291  -20.5385   18.2911 C   0  0  0  0  0  0  0  0  0  0  0  0
  -18.4448  -26.5238   22.0176 C   0  0  0  0  0  0  0  0  0  0  0  0
  -21.9401  -21.8189   25.1514 C   0  0  0  0  0  0  0  0  0  0  0  0
  -19.4498  -25.5378   22.0321 C   0  0  0  0  0  0  0  0  0  0  0  0
  -23.3197  -21.6563   24.9607 C   0  0  0  0  0  0  0  0  0  0  0  0
  -24.1902  -14.1973   20.1636 C   0  0  0  0  0  0  0  0  0  0  0  0
  -28.4800  -25.4713   19.8140 C   0  0  0  0  0  0  0  0  0  0  0  0
  -22.9181  -19.4465   24.0303 C   0  0  0  0  0  0  0  0  0  0  0  0
  -27.2028  -27.4258   20.0799 C   0  0  0  0  0  0  0  0  0  0  0  0
  -24.7003  -28.6506   20.2213 C   0  0  0  0  0  0  0  0  0  0  0  0
  -26.8296  -28.1188   21.2315 C   0  0  0  0  0  0  0  0  0  0  0  0
  -28.5901  -21.2854   19.2102 C   0  0  0  0  0  0  0  0  0  0  0  0
  -28.2323  -19.2402   18.4865 C   0  0  0  0  0  0  0  0  0  0  0  0
  -27.6185  -13.7072   21.6411 C   0  0  0  0  0  0  0  0  0  0  0  0
  -26.8457  -20.9790   17.3453 C   0  0  0  0  0  0  0  0  0  0  0  0
  -22.3299  -24.8386   24.2387 C   0  0  0  0  0  0  0  0  0  0  0  0
  -24.4996  -24.8786   26.6497 C   0  0  0  0  0  0  0  0  0  0  0  0
  -26.6208  -23.1252   28.6678 C   0  0  0  0  0  0  0  0  0  0  0  0
  -29.4494  -15.0586   21.9773 C   0  0  0  0  0  0  0  0  0  0  0  0
  -18.7328  -27.9556   22.3940 C   0  0  0  0  0  0  0  0  0  0  0  0
  -21.4009  -23.0740   25.7811 C   0  0  0  0  0  0  0  0  0  0  0  0
  -24.3050  -22.7297   25.3422 C   0  0  0  0  0  0  0  0  0  0  0  0
  -20.0281  -28.1293   23.1828 C   0  0  0  0  0  0  0  0  0  0  0  0
  -32.1046  -17.3419   21.1163 C   0  0  0  0  0  0  0  0  0  0  0  0
  -21.1613  -27.3463   22.5275 C   0  0  0  0  0  0  0  0  0  0  0  0
  -31.3585  -18.5251   20.4999 C   0  0  0  0  0  0  0  0  0  0  0  0
  -31.3050  -16.7039   22.2482 C   0  0  0  0  0  0  0  0  0  0  0  0
  -29.1756  -17.4688   21.2337 C   0  0  0  0  0  0  0  0  0  0  0  0
  -20.8538  -25.8442   22.5064 C   0  0  1  0  0  0  0  0  0  0  0  0
  -22.3373  -24.2687   25.6289 C   0  0  1  0  0  0  0  0  0  0  0  0
  -29.9387  -18.1185   20.0668 C   0  0  1  0  0  0  0  0  0  0  0  0
  -28.2894  -23.4370   30.5161 C   0  0  0  0  0  0  0  0  0  0  0  0
  -26.5368  -25.9210   24.6314 C   0  0  0  0  0  0  0  0  0  0  0  0
  -28.3475  -25.3131   26.2501 C   0  0  0  0  0  0  0  0  0  0  0  0
  -26.6376  -27.0178   26.8767 C   0  0  0  0  0  0  0  0  0  0  0  0
  -25.0434  -21.4523   30.5311 C   0  0  0  0  0  0  0  0  0  0  0  0
  -23.3730  -15.2992   19.5377 C   0  0  0  0  0  0  0  0  0  0  0  0
  -22.5426  -16.1027   20.5447 C   0  0  0  0  0  0  0  0  0  0  0  0
  -23.4005  -16.8537   21.5640 C   0  0  0  0  0  0  0  0  0  0  0  0
  -22.5416  -17.6072   22.5705 C   0  0  0  0  0  0  0  0  0  1  0  0
  -25.9750  -24.5805   26.7653 C   0  0  1  0  0  0  0  0  0  0  0  0
  -26.8357  -23.1540   30.1703 C   0  0  2  0  0  0  0  0  0  0  0  0
  -26.8557  -25.6884   26.1218 C   0  0  0  0  0  0  0  0  0  0  0  0
  -29.4143  -20.5248   19.9357 N   0  0  0  0  0  0  0  0  0  0  0  0
  -28.1569  -14.8767   21.5238 N   0  0  0  0  0  0  0  0  0  0  0  0
  -29.1734  -19.2865   19.4726 N   0  0  0  0  0  0  0  0  0  0  0  0
  -23.7282  -23.9410   25.9486 N   0  0  0  0  0  0  0  0  0  0  0  0
  -29.9516  -16.3620   21.8084 N   0  0  0  0  0  0  0  0  0  0  0  0
  -27.8700  -18.0748   17.9093 N   0  0  0  0  0  0  0  0  0  0  0  0
  -26.5518  -22.3476   17.2754 N   0  0  0  0  0  0  0  0  0  0  0  0
  -21.0861  -25.2623   23.8109 N   0  0  0  0  0  0  0  0  0  0  0  0
  -26.2365  -24.3575   28.1832 N   0  0  0  0  0  0  0  0  0  0  0  0
  -26.4554  -21.8452   30.7731 N   0  3  0  0  0  0  0  0  0  0  0  0
  -26.2336  -20.1806   16.5960 O   0  0  0  0  0  0  0  0  0  0  0  0
  -23.3755  -24.8915   23.6018 O   0  0  0  0  0  0  0  0  0  0  0  0
  -24.0470  -25.9021   27.1687 O   0  0  0  0  0  0  0  0  0  0  0  0
  -26.7816  -22.1119   27.9912 O   0  0  0  0  0  0  0  0  0  0  0  0
  -30.1272  -14.1688   22.4970 O   0  0  0  0  0  0  0  0  0  0  0  0
  -28.4450  -26.8180   20.0078 O   0  0  0  0  0  0  0  0  0  0  0  0
  -23.3965  -18.2968   23.4815 O   0  0  0  0  0  0  0  0  0  1  0  0
  -23.4993  -29.2399   20.2885 F   0  0  0  0  0  0  0  0  0  0  0  0
  -27.6693  -28.2006   22.2726 F   0  0  0  0  0  0  0  0  0  0  0  0
  1  2  1  0  0  0  0
  1  7  2  0  0  0  0
  2  8  2  0  0  0  0
  3  6  1  0  0  0  0
  3 10  2  0  0  0  0
  4 11  2  0  0  0  0
  4 19  1  0  0  0  0
  5 12  1  0  0  0  0
  5 19  2  0  0  0  0
  6 20  2  0  0  0  0
  7 22  1  0  0  0  0
  8 24  1  0  0  0  0
  9 13  2  0  0  0  0
  9 23  1  0  0  0  0
 10 26  1  0  0  0  0
 11 27  1  0  0  0  0
 12 27  2  0  0  0  0
 13 28  1  0  0  0  0
 14 15  2  0  0  0  0
 14 29  1  0  0  0  0
 15 30  1  0  0  0  0
 16 20  1  0  0  0  0
 16 26  2  0  0  0  0
 17 25  1  0  0  0  0
 17 28  2  0  0  0  0
 18 30  2  0  0  0  0
 18 31  1  0  0  0  0
 19 32  1  0  0  0  0
 20 34  1  0  0  0  0
 21 32  1  0  0  0  0
 21 33  2  0  0  0  0
 21 35  1  0  0  0  0
 22 24  2  0  0  0  0
 22 40  1  0  0  0  0
 23 25  2  0  0  0  0
 23 41  1  0  0  0  0
 24 49  1  0  0  0  0
 25 42  1  0  0  0  0
 26 57  1  0  0  0  0
 27 79  1  0  0  0  0
 28 80  1  0  0  0  0
 29 31  2  0  0  0  0
 29 79  1  0  0  0  0
 30 81  1  0  0  0  0
 31 82  1  0  0  0  0
 32 64  2  0  0  0  0
 33 66  1  0  0  0  0
 33 69  1  0  0  0  0
 34 65  2  0  0  0  0
 35 70  1  0  0  0  0
 35 74  2  0  0  0  0
 36 50  1  0  0  0  0
 36 71  1  0  0  0  0
 36 75  2  0  0  0  0
 37 61  1  0  0  0  0
 37 67  1  0  0  0  0
 37 76  2  0  0  0  0
 38 62  1  0  0  0  0
 38 72  1  0  0  0  0
 38 77  2  0  0  0  0
 39 65  1  0  0  0  0
 39 68  1  0  0  0  0
 39 78  2  0  0  0  0
 40 43  1  0  0  0  0
 41 50  1  0  0  0  0
 42 67  1  0  0  0  0
 43 45  1  0  0  0  0
 44 46  1  0  0  0  0
 44 47  1  0  0  0  0
 45 49  1  0  0  0  0
 46 51  1  0  0  0  0
 47 68  1  0  0  0  0
 48 51  1  0  0  0  0
 48 68  1  0  0  0  0
 49 71  1  0  0  0  0
 50 67  1  0  0  0  0
 51 66  1  0  0  0  0
 52 62  1  0  0  0  0
 53 63  1  0  0  0  0
 54 63  1  0  0  0  0
 55 63  1  0  0  0  0
 56 73  1  0  0  0  0
 57 58  1  0  0  0  0
 58 59  1  0  0  0  0
 59 60  1  0  0  0  0
 60 80  1  0  0  0  0
 61 63  1  0  0  0  0
 61 72  1  0  0  0  0
 62 73  1  0  0  0  0
 64 66  1  0  0  0  0
M  CHG  1  73   1
M  ISO  4  39 100  60 101  65 100  80 101
M  END
> <Batch ID>
0131

> <Smiles>
CNC(C)C(=O)NC(C(=O)N1Cc2cc([101O:1][101CH2:1]CCCc3cccc(C=[100N:0][100C:0](=O)N4CCCC(n5nc(-c6ccc(Oc7ccc(F)cc7F)cc6)c(C(N)=O)c5N)C4)c3)ccc2CC1C(=O)NC1CCCc2ccccc21)C(C)(C)C

> <Shape>
0.215

> <Color>
0.080

> <Negative vol penalty>
0.000

$$$$

  -OEChem-04052302253D

 85 93  0     1  0  0  0  0  0999 V2000
  -19.2371  -24.1227   21.9920 C   0  0  0  0  0  0  0  0  0  0  0  0
  -20.4440  -24.4353   21.3748 C   0  0  0  0  0  0  0  0  0  0  0  0
  -25.6610  -15.2539   21.6224 C   0  0  0  0  0  0  0  0  0  0  0  0
  -25.9087  -14.5943   19.3114 C   0  0  0  0  0  0  0  0  0  0  0  0
  -18.4211  -25.1418   22.4813 C   0  0  0  0  0  0  0  0  0  0  0  0
  -20.8352  -25.7675   21.2456 C   0  0  0  0  0  0  0  0  0  0  0  0
  -25.7010  -26.4889   22.4492 C   0  0  0  0  0  0  0  0  0  0  0  0
  -35.4706  -22.7676   20.5721 C   0  0  0  0  0  0  0  0  0  0  0  0
  -34.5752  -23.7980   20.2859 C   0  0  0  0  0  0  0  0  0  0  0  0
  -24.6731  -14.2841   21.7933 C   0  0  0  0  0  0  0  0  0  0  0  0
  -24.9208  -13.6245   19.4823 C   0  0  0  0  0  0  0  0  0  0  0  0
  -26.6530  -26.1247   21.4979 C   0  0  0  0  0  0  0  0  0  0  0  0
  -21.3897  -13.9208   21.0782 C   0  0  0  0  0  0  0  0  0  0  0  0
  -20.2310  -14.2904   21.7611 C   0  0  0  0  0  0  0  0  0  0  0  0
  -34.4622  -21.4116   18.8454 C   0  0  0  0  0  0  0  0  0  0  0  0
  -26.8595  -28.4333   20.8294 C   0  0  0  0  0  0  0  0  0  0  0  0
  -20.6706  -12.5945   23.4248 C   0  0  0  0  0  0  0  0  0  0  0  0
  -26.2787  -15.4091   20.3814 C   0  0  0  0  0  0  0  0  0  0  0  0
  -33.5666  -22.4420   18.5592 C   0  0  0  0  0  0  0  0  0  0  0  0
  -28.6848  -16.2565   20.3965 C   0  0  0  0  0  0  0  0  0  0  0  0
  -18.8070  -26.4867   22.3667 C   0  0  0  0  0  0  0  0  0  0  0  0
  -25.3125  -27.8289   22.5905 C   0  0  0  0  0  0  0  0  0  0  0  0
  -20.0230  -26.8057   21.7327 C   0  0  0  0  0  0  0  0  0  0  0  0
  -25.9043  -28.8123   21.7850 C   0  0  0  0  0  0  0  0  0  0  0  0
  -35.4142  -21.5744   19.8518 C   0  0  0  0  0  0  0  0  0  0  0  0
  -33.6231  -23.6352   19.2795 C   0  0  0  0  0  0  0  0  0  0  0  0
  -24.3030  -13.4694   20.7233 C   0  0  0  0  0  0  0  0  0  0  0  0
  -27.2303  -27.0965   20.6859 C   0  0  0  0  0  0  0  0  0  0  0  0
  -22.1888  -12.8880   21.5685 C   0  0  0  0  0  0  0  0  0  0  0  0
  -19.8714  -13.6273   22.9344 C   0  0  0  0  0  0  0  0  0  0  0  0
  -21.8293  -12.2249   22.7418 C   0  0  0  0  0  0  0  0  0  0  0  0
  -27.2988  -16.4111   20.2041 C   0  0  0  0  0  0  0  0  0  0  0  0
  -29.2122  -17.4896   20.1003 C   0  0  0  0  0  0  0  0  0  0  0  0
  -32.5835  -22.2417   17.5025 C   0  0  0  0  0  0  0  0  0  0  0  0
  -31.6259  -21.2884   17.4857 C   0  0  0  0  0  0  0  0  0  0  0  0
  -29.4290  -15.1016   20.8064 C   0  0  0  0  0  0  0  0  0  0  0  0
  -22.5817  -29.4202   22.2528 C   0  0  0  0  0  0  0  0  0  0  0  0
  -30.3285  -25.7307   19.3844 C   0  0  0  0  0  0  0  0  0  0  0  0
  -29.4248  -21.9641   16.7501 C   0  0  0  0  0  0  0  0  0  0  0  0
  -24.3299  -31.8919   23.4176 C   0  0  0  0  0  0  0  0  0  0  0  0
  -27.4032  -33.3000   23.8853 C   0  0  0  0  0  0  0  0  0  0  0  0
  -17.8696  -27.5562   22.8686 C   0  0  0  0  0  0  0  0  0  0  0  0
  -24.3039  -28.2091   23.6396 C   0  0  0  0  0  0  0  0  0  0  0  0
  -25.5366  -30.2674   21.9109 C   0  0  0  0  0  0  0  0  0  0  0  0
  -18.5326  -28.9221   23.0267 C   0  0  0  0  0  0  0  0  0  0  0  0
  -26.9622  -21.9492   19.3530 C   0  0  0  0  0  0  0  0  0  0  0  0
  -19.3654  -29.2572   21.7934 C   0  0  0  0  0  0  0  0  0  0  0  0
  -26.9225  -20.4888   19.8013 C   0  0  0  0  0  0  0  0  0  0  0  0
  -27.2141  -22.0662   17.8531 C   0  0  0  0  0  0  0  0  0  0  0  0
  -28.4083  -19.8994   17.8340 C   0  0  0  0  0  0  0  0  0  0  0  0
  -20.4935  -28.2375   21.5958 C   0  0  1  0  0  0  0  0  0  0  0  0
  -23.6065  -29.5337   23.3457 C   0  0  1  0  0  0  0  0  0  0  0  0
  -28.1866  -19.7370   19.3483 C   0  0  2  0  0  0  0  0  0  0  0  0
  -36.3723  -20.4734   20.1588 C   0  0  0  0  0  0  0  0  0  0  0  0
  -28.5106  -35.3420   24.8346 C   0  0  0  0  0  0  0  0  0  0  0  0
  -23.4506  -33.4999   20.9781 C   0  0  0  0  0  0  0  0  0  0  0  0
  -25.2907  -35.1241   21.4721 C   0  0  0  0  0  0  0  0  0  0  0  0
  -23.4548  -34.7811   23.1258 C   0  0  0  0  0  0  0  0  0  0  0  0
  -28.9254  -31.7005   25.8560 C   0  0  0  0  0  0  0  0  0  0  0  0
  -32.6687  -24.7711   18.9986 C   0  0  0  0  0  0  0  0  0  0  0  0
  -30.6273  -21.1314   16.3832 C   0  0  0  0  0  0  0  0  0  0  0  0
  -31.2822  -24.5669   19.6122 C   0  0  0  0  0  0  0  0  0  0  0  0
  -28.9709  -25.6068   20.0481 C   0  0  0  0  0  0  0  0  0  1  0  0
  -25.1921  -32.9717   22.8095 C   0  0  1  0  0  0  0  0  0  0  0  0
  -28.0519  -33.9186   25.1105 C   0  0  2  0  0  0  0  0  0  0  0  0
  -24.3527  -34.0666   22.0924 C   0  0  0  0  0  0  0  0  0  0  0  0
  -26.9666  -17.6451   19.8158 N   0  0  0  0  0  0  0  0  0  0  0  0
  -28.1513  -18.2772   19.7619 N   0  0  0  0  0  0  0  0  0  0  0  0
  -24.5410  -30.5882   22.9469 N   0  0  0  0  0  0  0  0  0  0  0  0
  -28.4106  -21.3202   17.4592 N   0  0  0  0  0  0  0  0  0  0  0  0
  -30.4752  -17.9662   20.0989 N   0  0  0  0  0  0  0  0  0  0  0  0
  -28.7302  -13.9157   21.0707 N   0  0  0  0  0  0  0  0  0  0  0  0
  -21.5812  -28.5031   22.5127 N   0  0  0  0  0  0  0  0  0  0  0  0
  -26.0356  -33.4760   23.8877 N   0  0  0  0  0  0  0  0  0  0  0  0
  -29.2355  -33.1165   25.5307 N   0  3  0  0  0  0  0  0  0  0  0  0
  -30.6749  -15.1251   20.9503 O   0  0  0  0  0  0  0  0  0  0  0  0
  -22.6897  -30.1144   21.2488 O   0  0  0  0  0  0  0  0  0  0  0  0
  -30.6419  -26.7274   18.7356 O   0  0  0  0  0  0  0  0  0  0  0  0
  -29.3910  -23.1518   16.4180 O   0  0  0  0  0  0  0  0  0  0  0  0
  -23.5046  -32.1930   24.2835 O   0  0  0  0  0  0  0  0  0  0  0  0
  -28.0459  -32.7220   23.0116 O   0  0  0  0  0  0  0  0  0  0  0  0
  -23.3393  -12.5228   20.8898 O   0  0  0  0  0  0  0  0  0  0  0  0
  -28.1592  -26.7436   19.7562 O   0  0  0  0  0  0  0  0  0  1  0  0
  -18.7595  -13.9833   23.5910 F   0  0  0  0  0  0  0  0  0  0  0  0
  -22.5937  -11.2327   23.2184 F   0  0  0  0  0  0  0  0  0  0  0  0
  1  2  1  0  0  0  0
  1  5  2  0  0  0  0
  2  6  2  0  0  0  0
  3 10  2  0  0  0  0
  3 18  1  0  0  0  0
  4 11  1  0  0  0  0
  4 18  2  0  0  0  0
  5 21  1  0  0  0  0
  6 23  1  0  0  0  0
  7 12  2  0  0  0  0
  7 22  1  0  0  0  0
  8  9  2  0  0  0  0
  8 25  1  0  0  0  0
  9 26  1  0  0  0  0
 10 27  1  0  0  0  0
 11 27  2  0  0  0  0
 12 28  1  0  0  0  0
 13 14  2  0  0  0  0
 13 29  1  0  0  0  0
 14 30  1  0  0  0  0
 15 19  1  0  0  0  0
 15 25  2  0  0  0  0
 16 24  1  0  0  0  0
 16 28  2  0  0  0  0
 17 30  2  0  0  0  0
 17 31  1  0  0  0  0
 18 32  1  0  0  0  0
 19 26  2  0  0  0  0
 19 34  1  0  0  0  0
 20 32  1  0  0  0  0
 20 33  2  0  0  0  0
 20 36  1  0  0  0  0
 21 23  2  0  0  0  0
 21 42  1  0  0  0  0
 22 24  2  0  0  0  0
 22 43  1  0  0  0  0
 23 51  1  0  0  0  0
 24 44  1  0  0  0  0
 25 54  1  0  0  0  0
 26 60  1  0  0  0  0
 27 82  1  0  0  0  0
 28 83  1  0  0  0  0
 29 31  2  0  0  0  0
 29 82  1  0  0  0  0
 30 84  1  0  0  0  0
 31 85  1  0  0  0  0
 32 67  2  0  0  0  0
 33 68  1  0  0  0  0
 33 71  1  0  0  0  0
 34 35  2  0  0  0  0
 35 61  1  0  0  0  0
 36 72  1  0  0  0  0
 36 76  2  0  0  0  0
 37 52  1  0  0  0  0
 37 73  1  0  0  0  0
 37 77  2  0  0  0  0
 38 62  1  0  0  0  0
 38 63  1  0  0  0  0
 38 78  2  0  0  0  0
 39 61  1  0  0  0  0
 39 70  1  0  0  0  0
 39 79  2  0  0  0  0
 40 64  1  0  0  0  0
 40 69  1  0  0  0  0
 40 80  2  0  0  0  0
 41 65  1  0  0  0  0
 41 74  1  0  0  0  0
 41 81  2  0  0  0  0
 42 45  1  0  0  0  0
 43 52  1  0  0  0  0
 44 69  1  0  0  0  0
 45 47  1  0  0  0  0
 46 48  1  0  0  0  0
 46 49  1  0  0  0  0
 47 51  1  0  0  0  0
 48 53  1  0  0  0  0
 49 70  1  0  0  0  0
 50 53  1  0  0  0  0
 50 70  1  0  0  0  0
 51 73  1  0  0  0  0
 52 69  1  0  0  0  0
 53 68  1  0  0  0  0
 55 65  1  0  0  0  0
 56 66  1  0  0  0  0
 57 66  1  0  0  0  0
 58 66  1  0  0  0  0
 59 75  1  0  0  0  0
 60 62  1  0  0  0  0
 63 83  1  0  0  0  0
 64 66  1  0  0  0  0
 64 74  1  0  0  0  0
 65 75  1  0  0  0  0
 67 68  1  0  0  0  0
M  CHG  1  75   1
M  ISO  4  39 100  61 100  63 101  83 101
M  END
> <Batch ID>
0131

> <Smiles>
CNC(C)C(=O)NC(C(=O)N1Cc2cc([101O:1][101CH2:1]C(=O)CCc3ccc(C)cc3C=C[100CH2:0][100C:0](=O)N3CCCC(n4nc(-c5ccc(Oc6ccc(F)cc6F)cc5)c(C(N)=O)c4N)C3)ccc2CC1C(=O)NC1CCCc2ccccc21)C(C)(C)C

> <Shape>
0.282

> <Color>
0.097

> <Negative vol penalty>
0.000

$$$$

  -OEChem-04052302253D

 85 93  0     1  0  0  0  0  0999 V2000
  -38.9902  -23.6849   10.8986 C   0  0  0  0  0  0  0  0  0  0  0  0
  -39.0135  -23.2495   12.2197 C   0  0  0  0  0  0  0  0  0  0  0  0
  -23.0038   -9.8909   19.9791 C   0  0  0  0  0  0  0  0  0  0  0  0
  -23.7290   -9.9409   22.2832 C   0  0  0  0  0  0  0  0  0  0  0  0
  -38.1114  -24.6970   10.5147 C   0  0  0  0  0  0  0  0  0  0  0  0
  -38.1587  -23.8267   13.1580 C   0  0  0  0  0  0  0  0  0  0  0  0
  -35.9134  -20.3847   16.1170 C   0  0  0  0  0  0  0  0  0  0  0  0
  -30.4604  -18.3474   23.9966 C   0  0  0  0  0  0  0  0  0  0  0  0
  -29.8732  -17.4523   23.1025 C   0  0  0  0  0  0  0  0  0  0  0  0
  -22.2387   -8.7552   20.2446 C   0  0  0  0  0  0  0  0  0  0  0  0
  -22.9639   -8.8053   22.5487 C   0  0  0  0  0  0  0  0  0  0  0  0
  -36.6730  -19.8430   17.1530 C   0  0  0  0  0  0  0  0  0  0  0  0
  -23.2124   -5.4670   22.0740 C   0  0  0  0  0  0  0  0  0  0  0  0
  -23.8013   -4.4500   22.8253 C   0  0  0  0  0  0  0  0  0  0  0  0
  -35.6025  -21.3400   18.7126 C   0  0  0  0  0  0  0  0  0  0  0  0
  -32.0523  -16.5561   22.5684 C   0  0  0  0  0  0  0  0  0  0  0  0
  -22.0772   -4.6893   24.5008 C   0  0  0  0  0  0  0  0  0  0  0  0
  -23.7490  -10.4838   20.9984 C   0  0  0  0  0  0  0  0  0  0  0  0
  -24.1311  -13.0000   20.8244 C   0  0  0  0  0  0  0  0  0  0  0  0
  -37.2386  -25.2802   11.4467 C   0  0  0  0  0  0  0  0  0  0  0  0
  -34.9989  -21.4173   16.3696 C   0  0  0  0  0  0  0  0  0  0  0  0
  -37.2683  -24.8485   12.7866 C   0  0  0  0  0  0  0  0  0  0  0  0
  -34.8306  -21.8913   17.6785 C   0  0  0  0  0  0  0  0  0  0  0  0
  -31.8437  -18.3470   24.1766 C   0  0  0  0  0  0  0  0  0  0  0  0
  -32.6396  -17.4513   23.4625 C   0  0  0  0  0  0  0  0  0  0  0  0
  -30.6691  -16.5567   22.3884 C   0  0  0  0  0  0  0  0  0  0  0  0
  -22.2187   -8.2124   21.5293 C   0  0  0  0  0  0  0  0  0  0  0  0
  -36.5198  -20.3226   18.4506 C   0  0  0  0  0  0  0  0  0  0  0  0
  -22.0560   -6.0953   22.5362 C   0  0  0  0  0  0  0  0  0  0  0  0
  -23.2337   -4.0611   24.0386 C   0  0  0  0  0  0  0  0  0  0  0  0
  -21.4883   -5.7065   23.7495 C   0  0  0  0  0  0  0  0  0  0  0  0
  -24.5400  -11.6566   20.7247 C   0  0  0  0  0  0  0  0  0  0  0  0
  -25.2399  -13.7243   20.4606 C   0  0  0  0  0  0  0  0  0  0  0  0
  -36.5997  -19.2111   20.5070 C   0  0  0  0  0  0  0  0  0  1  0  0
  -22.8625  -13.5445   21.2115 C   0  0  0  0  0  0  0  0  0  0  0  0
  -37.2266  -18.6626   21.5542 C   0  0  0  0  0  0  0  0  0  0  0  0
  -36.4146  -18.0439   22.6483 C   0  0  0  0  0  0  0  0  0  0  0  0
  -34.6978  -24.4320   15.4080 C   0  0  0  0  0  0  0  0  0  0  0  0
  -31.8993  -24.2636   17.0398 C   0  0  0  0  0  0  0  0  0  0  0  0
  -30.0673  -22.7734   19.5034 C   0  0  0  0  0  0  0  0  0  0  0  0
  -30.7182  -14.6921   20.6951 C   0  0  0  0  0  0  0  0  0  0  0  0
  -36.3397  -26.4039   10.9951 C   0  0  0  0  0  0  0  0  0  0  0  0
  -34.1677  -21.9726   15.2457 C   0  0  0  0  0  0  0  0  0  0  0  0
  -33.8477  -22.9846   18.0058 C   0  0  0  0  0  0  0  0  0  0  0  0
  -35.2032  -26.7037   11.9691 C   0  0  0  0  0  0  0  0  0  0  0  0
  -29.6029  -12.2397   18.3672 C   0  0  0  0  0  0  0  0  0  0  0  0
  -35.7299  -26.7731   13.3990 C   0  0  0  0  0  0  0  0  0  0  0  0
  -28.1527  -11.9799   18.7812 C   0  0  0  0  0  0  0  0  0  0  0  0
  -30.5032  -12.4833   19.5771 C   0  0  0  0  0  0  0  0  0  0  0  0
  -28.5869  -13.2686   20.9114 C   0  0  0  0  0  0  0  0  0  0  0  0
  -36.3390  -25.4328   13.8282 C   0  0  1  0  0  0  0  0  0  0  0  0
  -33.6375  -23.3744   15.5307 C   0  0  1  0  0  0  0  0  0  0  0  0
  -27.6294  -13.0820   19.7231 C   0  0  2  0  0  0  0  0  0  0  0  0
  -32.4496  -19.3152   25.1388 C   0  0  0  0  0  0  0  0  0  0  0  0
  -27.8266  -22.8770   20.6286 C   0  0  0  0  0  0  0  0  0  0  0  0
  -32.7818  -26.7561   18.5625 C   0  0  0  0  0  0  0  0  0  0  0  0
  -31.0142  -26.2575   20.2640 C   0  0  0  0  0  0  0  0  0  0  0  0
  -30.3698  -26.7364   17.9023 C   0  0  0  0  0  0  0  0  0  0  0  0
  -29.4036  -20.0051   18.6942 C   0  0  0  0  0  0  0  0  0  0  0  0
  -34.1387  -17.4310   23.6425 C   0  0  0  0  0  0  0  0  0  0  0  0
  -34.9001  -18.0850   22.4855 C   0  0  0  0  0  0  0  0  0  0  0  0
  -31.4739  -24.5323   18.4631 C   0  0  1  0  0  0  0  0  0  0  0  0
  -28.6468  -22.2381   19.5187 C   0  0  2  0  0  0  0  0  0  0  0  0
  -31.4299  -26.0513   18.7918 C   0  0  0  0  0  0  0  0  0  0  0  0
  -25.8094  -11.5320   20.3284 N   0  0  0  0  0  0  0  0  0  0  0  0
  -26.2077  -12.8064   20.1758 N   0  0  0  0  0  0  0  0  0  0  0  0
  -33.0628  -23.4995   16.8717 N   0  0  0  0  0  0  0  0  0  0  0  0
  -29.9468  -13.5428   20.4213 N   0  0  0  0  0  0  0  0  0  0  0  0
  -25.4717  -15.0503   20.3596 N   0  0  0  0  0  0  0  0  0  0  0  0
  -21.8318  -12.6587   21.5543 N   0  0  0  0  0  0  0  0  0  0  0  0
  -30.0728  -15.6458   21.4814 N   0  0  0  0  0  0  0  0  0  0  0  0
  -35.2955  -24.4877   14.1633 N   0  0  0  0  0  0  0  0  0  0  0  0
  -30.2003  -23.8444   18.6452 N   0  0  0  0  0  0  0  0  0  0  0  0
  -28.6516  -20.7625   19.7275 N   0  3  0  0  0  0  0  0  0  0  0  0
  -22.6442  -14.7795   21.2362 O   0  0  0  0  0  0  0  0  0  0  0  0
  -36.9561  -17.5054   23.6119 O   0  0  0  0  0  0  0  0  0  0  0  0
  -34.9535  -25.1457   16.3707 O   0  0  0  0  0  0  0  0  0  0  0  0
  -31.2203  -24.7092   16.1113 O   0  0  0  0  0  0  0  0  0  0  0  0
  -30.9678  -22.2922   20.1875 O   0  0  0  0  0  0  0  0  0  0  0  0
  -31.8567  -14.8328   20.2411 O   0  0  0  0  0  0  0  0  0  0  0  0
  -38.5992  -18.6379   21.6730 O   0  0  0  0  0  0  0  0  0  0  0  0
  -21.4721   -7.1044   21.7888 O   0  0  0  0  0  0  0  0  0  0  0  0
  -37.2604  -19.7961   19.4635 O   0  0  0  0  0  0  0  0  0  1  0  0
  -23.7984   -3.0833   24.7592 F   0  0  0  0  0  0  0  0  0  0  0  0
  -20.3767   -6.3056   24.1981 F   0  0  0  0  0  0  0  0  0  0  0  0
  1  2  1  0  0  0  0
  1  5  2  0  0  0  0
  2  6  2  0  0  0  0
  3 10  2  0  0  0  0
  3 18  1  0  0  0  0
  4 11  1  0  0  0  0
  4 18  2  0  0  0  0
  5 20  1  0  0  0  0
  6 22  1  0  0  0  0
  7 12  2  0  0  0  0
  7 21  1  0  0  0  0
  8  9  2  0  0  0  0
  8 24  1  0  0  0  0
  9 26  1  0  0  0  0
 10 27  1  0  0  0  0
 11 27  2  0  0  0  0
 12 28  1  0  0  0  0
 13 14  2  0  0  0  0
 13 29  1  0  0  0  0
 14 30  1  0  0  0  0
 15 23  1  0  0  0  0
 15 28  2  0  0  0  0
 16 25  1  0  0  0  0
 16 26  2  0  0  0  0
 17 30  2  0  0  0  0
 17 31  1  0  0  0  0
 18 32  1  0  0  0  0
 19 32  1  0  0  0  0
 19 33  2  0  0  0  0
 19 35  1  0  0  0  0
 20 22  2  0  0  0  0
 20 42  1  0  0  0  0
 21 23  2  0  0  0  0
 21 43  1  0  0  0  0
 22 51  1  0  0  0  0
 23 44  1  0  0  0  0
 24 25  2  0  0  0  0
 24 54  1  0  0  0  0
 25 60  1  0  0  0  0
 26 71  1  0  0  0  0
 27 82  1  0  0  0  0
 28 83  1  0  0  0  0
 29 31  2  0  0  0  0
 29 82  1  0  0  0  0
 30 84  1  0  0  0  0
 31 85  1  0  0  0  0
 32 65  2  0  0  0  0
 33 66  1  0  0  0  0
 33 69  1  0  0  0  0
 34 36  2  0  0  0  0
 34 83  1  0  0  0  0
 35 70  1  0  0  0  0
 35 75  2  0  0  0  0
 36 37  1  0  0  0  0
 36 81  1  0  0  0  0
 37 61  1  0  0  0  0
 37 76  2  0  0  0  0
 38 52  1  0  0  0  0
 38 72  1  0  0  0  0
 38 77  2  0  0  0  0
 39 62  1  0  0  0  0
 39 67  1  0  0  0  0
 39 78  2  0  0  0  0
 40 63  1  0  0  0  0
 40 73  1  0  0  0  0
 40 79  2  0  0  0  0
 41 68  1  0  0  0  0
 41 71  1  0  0  0  0
 41 80  2  0  0  0  0
 42 45  1  0  0  0  0
 43 52  1  0  0  0  0
 44 67  1  0  0  0  0
 45 47  1  0  0  0  0
 46 48  1  0  0  0  0
 46 49  1  0  0  0  0
 47 51  1  0  0  0  0
 48 53  1  0  0  0  0
 49 68  1  0  0  0  0
 50 53  1  0  0  0  0
 50 68  1  0  0  0  0
 51 72  1  0  0  0  0
 52 67  1  0  0  0  0
 53 66  1  0  0  0  0
 55 63  1  0  0  0  0
 56 64  1  0  0  0  0
 57 64  1  0  0  0  0
 58 64  1  0  0  0  0
 59 74  1  0  0  0  0
 60 61  1  0  0  0  0
 62 64  1  0  0  0  0
 62 73  1  0  0  0  0
 63 74  1  0  0  0  0
 65 66  1  0  0  0  0
M  CHG  1  74   1
M  ISO  4  34 101  41 100  71 100  83 101
M  END
> <Batch ID>
0131

> <Smiles>
CNC(C)C(=O)NC(C(=O)N1Cc2cc([101O:1][101CH2:1]C(=O)C(=O)CCc3cc([100NH:0][100C:0](=O)N4CCCC(n5nc(-c6ccc(Oc7ccc(F)cc7F)cc6)c(C(N)=O)c5N)C4)ccc3C)ccc2CC1C(=O)NC1CCCc2ccccc21)C(C)(C)C

> <Shape>
0.240

> <Color>
0.198

> <Negative vol penalty>
0.000

$$$$

  -OEChem-04052302253D

 84 92  0     1  0  0  0  0  0999 V2000
  -24.7475  -33.1300   14.4982 C   0  0  0  0  0  0  0  0  0  0  0  0
  -25.4642  -32.0935   15.0876 C   0  0  0  0  0  0  0  0  0  0  0  0
  -30.1210  -18.9672   24.9559 C   0  0  0  0  0  0  0  0  0  0  0  0
  -23.0848   -9.9532   20.0084 C   0  0  0  0  0  0  0  0  0  0  0  0
  -23.8425  -10.0394   22.3008 C   0  0  0  0  0  0  0  0  0  0  0  0
  -29.4459  -20.0489   24.3903 C   0  0  0  0  0  0  0  0  0  0  0  0
  -24.3521  -34.2261   15.2638 C   0  0  0  0  0  0  0  0  0  0  0  0
  -25.7869  -32.1531   16.4429 C   0  0  0  0  0  0  0  0  0  0  0  0
  -24.9514  -27.7677   18.8334 C   0  0  0  0  0  0  0  0  0  0  0  0
  -30.6554  -17.9729   24.1366 C   0  0  0  0  0  0  0  0  0  0  0  0
  -22.3463   -8.8053   20.2956 C   0  0  0  0  0  0  0  0  0  0  0  0
  -23.1040   -8.8915   22.5881 C   0  0  0  0  0  0  0  0  0  0  0  0
  -25.8968  -26.7578   18.6601 C   0  0  0  0  0  0  0  0  0  0  0  0
  -19.8792   -8.0981   23.2141 C   0  0  0  0  0  0  0  0  0  0  0  0
  -19.1214   -8.0930   24.3851 C   0  0  0  0  0  0  0  0  0  0  0  0
  -29.8396  -19.1418   22.1859 C   0  0  0  0  0  0  0  0  0  0  0  0
  -26.8709  -27.3113   20.7964 C   0  0  0  0  0  0  0  0  0  0  0  0
  -20.3715   -6.1869   25.1858 C   0  0  0  0  0  0  0  0  0  0  0  0
  -23.8329  -10.5703   21.0110 C   0  0  0  0  0  0  0  0  0  0  0  0
  -29.3052  -20.1362   23.0053 C   0  0  0  0  0  0  0  0  0  0  0  0
  -24.1626  -13.0917   20.8082 C   0  0  0  0  0  0  0  0  0  0  0  0
  -24.6618  -34.2946   16.6313 C   0  0  0  0  0  0  0  0  0  0  0  0
  -24.9653  -28.5654   19.9866 C   0  0  0  0  0  0  0  0  0  0  0  0
  -25.3965  -33.2518   17.2272 C   0  0  0  0  0  0  0  0  0  0  0  0
  -25.9229  -28.3289   20.9832 C   0  0  0  0  0  0  0  0  0  0  0  0
  -30.5147  -18.0602   22.7516 C   0  0  0  0  0  0  0  0  0  0  0  0
  -22.3559   -8.2744   21.5854 C   0  0  0  0  0  0  0  0  0  0  0  0
  -26.8585  -26.5313   19.6403 C   0  0  0  0  0  0  0  0  0  0  0  0
  -20.8832   -7.1476   23.0289 C   0  0  0  0  0  0  0  0  0  0  0  0
  -19.3676   -7.1375   25.3710 C   0  0  0  0  0  0  0  0  0  0  0  0
  -21.1293   -6.1920   24.0148 C   0  0  0  0  0  0  0  0  0  0  0  0
  -24.5964  -11.7558   20.7148 C   0  0  0  0  0  0  0  0  0  0  0  0
  -25.2514  -13.8342   20.4213 C   0  0  0  0  0  0  0  0  0  0  0  0
  -28.5914  -21.2785   22.4078 C   0  0  0  0  0  0  0  0  0  0  0  0
  -28.7161  -21.6712   21.1323 C   0  0  0  0  0  0  0  0  0  0  0  0
  -22.8892  -13.6148   21.2090 C   0  0  0  0  0  0  0  0  0  0  0  0
  -27.9539  -22.8512   20.6253 C   0  0  0  0  0  0  0  0  0  0  0  0
  -25.3603  -31.6660   20.5644 C   0  0  0  0  0  0  0  0  0  0  0  0
  -30.7510  -14.8226   20.6793 C   0  0  0  0  0  0  0  0  0  0  0  0
  -24.6236  -30.7959   23.6013 C   0  0  0  0  0  0  0  0  0  0  0  0
  -24.5096  -28.3351   25.9632 C   0  0  0  0  0  0  0  0  0  0  0  0
  -24.2539  -35.5218   17.4074 C   0  0  0  0  0  0  0  0  0  0  0  0
  -23.9221  -29.6332   20.1707 C   0  0  0  0  0  0  0  0  0  0  0  0
  -25.9683  -29.1442   22.2488 C   0  0  0  0  0  0  0  0  0  0  0  0
  -24.3113  -35.3322   18.9210 C   0  0  0  0  0  0  0  0  0  0  0  0
  -29.5997  -12.4396   18.2636 C   0  0  0  0  0  0  0  0  0  0  0  0
  -25.6208  -34.6628   19.3259 C   0  0  0  0  0  0  0  0  0  0  0  0
  -28.1704  -12.1365   18.7114 C   0  0  0  0  0  0  0  0  0  0  0  0
  -30.5181  -12.6861   19.4564 C   0  0  0  0  0  0  0  0  0  0  0  0
  -28.6099  -13.4572   20.8297 C   0  0  0  0  0  0  0  0  0  0  0  0
  -25.7441  -33.2683   18.7000 C   0  0  1  0  0  0  0  0  0  0  0  0
  -24.3482  -30.7224   21.1501 C   0  0  1  0  0  0  0  0  0  0  0  0
  -27.6424  -13.2321   19.6543 C   0  0  2  0  0  0  0  0  0  0  0  0
  -23.8957  -27.9353   28.3633 C   0  0  0  0  0  0  0  0  0  0  0  0
  -27.2012  -32.1679   24.4865 C   0  0  0  0  0  0  0  0  0  0  0  0
  -27.0229  -30.9441   26.6634 C   0  0  0  0  0  0  0  0  0  0  0  0
  -25.2422  -32.5568   25.9918 C   0  0  0  0  0  0  0  0  0  0  0  0
  -22.4319  -26.3614   25.2239 C   0  0  0  0  0  0  0  0  0  0  0  0
  -31.0873  -16.9975   21.8759 C   0  0  0  0  0  0  0  0  0  0  0  0
  -28.1831  -23.1936   19.1611 C   0  0  0  0  0  0  0  0  0  0  0  0
  -30.1173  -15.8441   21.5897 C   0  0  0  0  0  0  0  0  0  0  0  0
  -27.3894  -24.4097   18.7061 C   0  0  0  0  0  0  0  0  0  1  0  0
  -25.4128  -30.3326   24.8019 C   0  0  1  0  0  0  0  0  0  0  0  0
  -23.4123  -27.9090   26.9217 C   0  0  2  0  0  0  0  0  0  0  0  0
  -26.2204  -31.4861   25.4613 C   0  0  0  0  0  0  0  0  0  0  0  0
  -25.8621  -11.6524   20.3008 N   0  0  0  0  0  0  0  0  0  0  0  0
  -26.2329  -12.9329   20.1306 N   0  0  0  0  0  0  0  0  0  0  0  0
  -24.9309  -30.1806   22.3794 N   0  0  0  0  0  0  0  0  0  0  0  0
  -29.9706  -13.7174   20.3395 N   0  0  0  0  0  0  0  0  0  0  0  0
  -25.4554  -15.1636   20.3047 N   0  0  0  0  0  0  0  0  0  0  0  0
  -21.8814  -12.7123   21.5752 N   0  0  0  0  0  0  0  0  0  0  0  0
  -24.9295  -32.3157   19.4235 N   0  0  0  0  0  0  0  0  0  0  0  0
  -24.4566  -29.6865   25.6944 N   0  0  0  0  0  0  0  0  0  0  0  0
  -22.9554  -26.5264   26.6044 N   0  3  0  0  0  0  0  0  0  0  0  0
  -22.6469  -14.8455   21.2256 O   0  0  0  0  0  0  0  0  0  0  0  0
  -27.1969  -23.4912   21.3501 O   0  0  0  0  0  0  0  0  0  0  0  0
  -26.4506  -31.7963   21.1083 O   0  0  0  0  0  0  0  0  0  0  0  0
  -31.9044  -15.0047   20.2806 O   0  0  0  0  0  0  0  0  0  0  0  0
  -23.7612  -31.6663   23.7436 O   0  0  0  0  0  0  0  0  0  0  0  0
  -25.3338  -27.5485   25.5021 O   0  0  0  0  0  0  0  0  0  0  0  0
  -21.6352   -7.1544   21.8661 O   0  0  0  0  0  0  0  0  0  0  0  0
  -27.7829  -25.5467   19.4734 O   0  0  0  0  0  0  0  0  0  1  0  0
  -18.6408   -7.1337   26.4961 F   0  0  0  0  0  0  0  0  0  0  0  0
  -22.0933   -5.2771   23.8430 F   0  0  0  0  0  0  0  0  0  0  0  0
  1  2  1  0  0  0  0
  1  7  2  0  0  0  0
  2  8  2  0  0  0  0
  3  6  2  0  0  0  0
  3 10  1  0  0  0  0
  4 11  2  0  0  0  0
  4 19  1  0  0  0  0
  5 12  1  0  0  0  0
  5 19  2  0  0  0  0
  6 20  1  0  0  0  0
  7 22  1  0  0  0  0
  8 24  1  0  0  0  0
  9 13  2  0  0  0  0
  9 23  1  0  0  0  0
 10 26  2  0  0  0  0
 11 27  1  0  0  0  0
 12 27  2  0  0  0  0
 13 28  1  0  0  0  0
 14 15  2  0  0  0  0
 14 29  1  0  0  0  0
 15 30  1  0  0  0  0
 16 20  2  0  0  0  0
 16 26  1  0  0  0  0
 17 25  1  0  0  0  0
 17 28  2  0  0  0  0
 18 30  2  0  0  0  0
 18 31  1  0  0  0  0
 19 32  1  0  0  0  0
 20 34  1  0  0  0  0
 21 32  1  0  0  0  0
 21 33  2  0  0  0  0
 21 36  1  0  0  0  0
 22 24  2  0  0  0  0
 22 42  1  0  0  0  0
 23 25  2  0  0  0  0
 23 43  1  0  0  0  0
 24 51  1  0  0  0  0
 25 44  1  0  0  0  0
 26 59  1  0  0  0  0
 27 81  1  0  0  0  0
 28 82  1  0  0  0  0
 29 31  2  0  0  0  0
 29 81  1  0  0  0  0
 30 83  1  0  0  0  0
 31 84  1  0  0  0  0
 32 66  2  0  0  0  0
 33 67  1  0  0  0  0
 33 70  1  0  0  0  0
 34 35  2  0  0  0  0
 35 37  1  0  0  0  0
 36 71  1  0  0  0  0
 36 75  2  0  0  0  0
 37 60  1  0  0  0  0
 37 76  2  0  0  0  0
 38 52  1  0  0  0  0
 38 72  1  0  0  0  0
 38 77  2  0  0  0  0
 39 61  1  0  0  0  0
 39 69  1  0  0  0  0
 39 78  2  0  0  0  0
 40 63  1  0  0  0  0
 40 68  1  0  0  0  0
 40 79  2  0  0  0  0
 41 64  1  0  0  0  0
 41 73  1  0  0  0  0
 41 80  2  0  0  0  0
 42 45  1  0  0  0  0
 43 52  1  0  0  0  0
 44 68  1  0  0  0  0
 45 47  1  0  0  0  0
 46 48  1  0  0  0  0
 46 49  1  0  0  0  0
 47 51  1  0  0  0  0
 48 53  1  0  0  0  0
 49 69  1  0  0  0  0
 50 53  1  0  0  0  0
 50 69  1  0  0  0  0
 51 72  1  0  0  0  0
 52 68  1  0  0  0  0
 53 67  1  0  0  0  0
 54 64  1  0  0  0  0
 55 65  1  0  0  0  0
 56 65  1  0  0  0  0
 57 65  1  0  0  0  0
 58 74  1  0  0  0  0
 59 61  1  0  0  0  0
 60 62  1  0  0  0  0
 62 82  1  0  0  0  0
 63 65  1  0  0  0  0
 63 73  1  0  0  0  0
 64 74  1  0  0  0  0
 66 67  1  0  0  0  0
M  CHG  1  74   1
M  ISO  4  39 100  61 100  62 101  82 101
M  END
> <Batch ID>
0131

> <Smiles>
CNC(C)C(=O)NC(C(=O)N1Cc2cc([101O:1][101CH2:1]CC(=O)C=Cc3cccc(C[100CH2:0][100C:0](=O)N4CCCC(n5nc(-c6ccc(Oc7ccc(F)cc7F)cc6)c(C(N)=O)c5N)C4)c3)ccc2CC1C(=O)NC1CCCc2ccccc21)C(C)(C)C

> <Shape>
0.320

> <Color>
0.275

> <Negative vol penalty>
0.000

$$$$

  -OEChem-04052302253D

 86 94  0     1  0  0  0  0  0999 V2000
  -32.5261  -28.6481   18.9023 C   0  0  0  0  0  0  0  0  0  0  0  0
  -31.2847  -28.1907   19.3326 C   0  0  0  0  0  0  0  0  0  0  0  0
  -23.6391   -9.9476   22.3317 C   0  0  0  0  0  0  0  0  0  0  0  0
  -23.3272   -9.7627   19.9431 C   0  0  0  0  0  0  0  0  0  0  0  0
  -33.0835  -29.7906   19.4749 C   0  0  0  0  0  0  0  0  0  0  0  0
  -30.6004  -28.8750   20.3365 C   0  0  0  0  0  0  0  0  0  0  0  0
  -25.6889  -29.4908   19.2673 C   0  0  0  0  0  0  0  0  0  0  0  0
  -22.7435   -8.8968   22.5300 C   0  0  0  0  0  0  0  0  0  0  0  0
  -22.4316   -8.7118   20.1414 C   0  0  0  0  0  0  0  0  0  0  0  0
  -24.8532  -28.3912   19.4573 C   0  0  0  0  0  0  0  0  0  0  0  0
  -22.7807   -5.5215   22.3333 C   0  0  0  0  0  0  0  0  0  0  0  0
  -23.1381   -4.5285   23.2453 C   0  0  0  0  0  0  0  0  0  0  0  0
  -28.6021  -22.2444   21.4315 C   0  0  0  0  0  0  0  0  0  0  0  0
  -26.3892  -22.3058   22.3989 C   0  0  0  0  0  0  0  0  0  0  0  0
  -24.1299  -29.3128   21.5660 C   0  0  0  0  0  0  0  0  0  0  0  0
  -21.1740   -5.0290   24.5602 C   0  0  0  0  0  0  0  0  0  0  0  0
  -23.9309  -10.3806   21.0382 C   0  0  0  0  0  0  0  0  0  0  0  0
  -27.4954  -21.5790   21.9587 C   0  0  0  0  0  0  0  0  0  0  0  0
  -26.2493  -11.3744   20.6577 C   0  0  0  0  0  0  0  0  0  0  0  0
  -32.4013  -30.4948   20.4796 C   0  0  0  0  0  0  0  0  0  0  0  0
  -25.7597  -30.5061   20.2320 C   0  0  0  0  0  0  0  0  0  0  0  0
  -31.1498  -30.0273   20.9240 C   0  0  0  0  0  0  0  0  0  0  0  0
  -24.9653  -30.4255   21.3847 C   0  0  0  0  0  0  0  0  0  0  0  0
  -28.6028  -23.6366   21.3445 C   0  0  0  0  0  0  0  0  0  0  0  0
  -26.3898  -23.6980   22.3119 C   0  0  0  0  0  0  0  0  0  0  0  0
  -27.4966  -24.3634   21.7847 C   0  0  0  0  0  0  0  0  0  0  0  0
  -22.1398   -8.2789   21.4349 C   0  0  0  0  0  0  0  0  0  0  0  0
  -24.0757  -28.3006   20.6081 C   0  0  0  0  0  0  0  0  0  0  0  0
  -21.6199   -6.2683   22.5348 C   0  0  0  0  0  0  0  0  0  0  0  0
  -22.3348   -4.2822   24.3587 C   0  0  0  0  0  0  0  0  0  0  0  0
  -20.8166   -6.0221   23.6481 C   0  0  0  0  0  0  0  0  0  0  0  0
  -24.8555  -11.4664   20.8328 C   0  0  0  0  0  0  0  0  0  0  0  0
  -26.6624  -12.6751   20.5022 C   0  0  0  0  0  0  0  0  0  0  0  0
  -27.4951  -20.1271   22.0497 C   0  0  0  0  0  0  0  0  0  0  0  0
  -26.3974  -19.3503   22.1685 C   0  0  0  0  0  0  0  0  0  0  0  0
  -27.0950  -10.2168   20.6374 C   0  0  0  0  0  0  0  0  0  0  0  0
  -26.5613  -17.8844   22.2395 C   0  0  0  0  0  0  0  0  0  0  0  0
  -28.0571  -31.6799   22.0889 C   0  0  0  0  0  0  0  0  0  0  0  0
  -25.7807  -33.8567   22.8646 C   0  0  0  0  0  0  0  0  0  0  0  0
  -22.4632  -34.6265   23.0844 C   0  0  0  0  0  0  0  0  0  0  0  0
  -33.0654  -31.6976   21.1017 C   0  0  0  0  0  0  0  0  0  0  0  0
  -26.6461  -31.6988   19.9997 C   0  0  0  0  0  0  0  0  0  0  0  0
  -24.9896  -31.4987   22.4411 C   0  0  0  0  0  0  0  0  0  0  0  0
  -32.1064  -32.5791   21.8977 C   0  0  0  0  0  0  0  0  0  0  0  0
  -24.0307  -16.9145   19.7723 C   0  0  0  0  0  0  0  0  0  0  0  0
  -31.2291  -31.7264   22.8088 C   0  0  0  0  0  0  0  0  0  0  0  0
  -24.1078  -15.3923   19.8554 C   0  0  0  0  0  0  0  0  0  0  0  0
  -24.2850  -17.5746   21.1266 C   0  0  0  0  0  0  0  0  0  0  0  0
  -25.6436  -15.6314   21.8465 C   0  0  0  0  0  0  0  0  0  0  0  0
  -30.3656  -30.7565   21.9932 C   0  0  1  0  0  0  0  0  0  0  0  0
  -27.0246  -32.4221   21.2885 C   0  0  1  0  0  0  0  0  0  0  0  0
  -25.4375  -14.9483   20.4855 C   0  0  1  0  0  0  0  0  0  0  0  0
  -29.8000  -24.3252   20.7751 C   0  0  0  0  0  0  0  0  0  0  0  0
  -28.3405  -26.5013   22.7864 C   0  0  0  0  0  0  0  0  0  0  0  0
  -20.9107  -36.4673   23.7905 C   0  0  0  0  0  0  0  0  0  0  0  0
  -21.5818  -24.9067   21.3754 C   0  0  0  0  0  0  0  0  0  0  0  0
  -26.2890  -33.1596   25.7913 C   0  0  0  0  0  0  0  0  0  0  0  0
  -24.1224  -34.2771   26.3614 C   0  0  0  0  0  0  0  0  0  0  0  0
  -25.9746  -35.5991   25.3395 C   0  0  0  0  0  0  0  0  0  0  0  0
  -21.3310  -34.8737   20.3612 C   0  0  0  0  0  0  0  0  0  0  0  0
  -25.1815  -24.4607   22.7949 C   0  0  0  0  0  0  0  0  0  0  0  0
  -27.4973  -25.8560   21.6919 C   0  0  0  0  0  0  0  0  0  0  0  0
  -24.0177  -24.4845   21.7943 C   0  0  0  0  0  0  0  0  0  0  0  0
  -23.0133  -26.8278   22.1437 C   0  0  0  0  0  0  0  0  0  1  0  0
  -24.6995  -33.9451   23.9145 C   0  0  1  0  0  0  0  0  0  0  0  0
  -21.6804  -35.8469   22.6349 C   0  0  2  0  0  0  0  0  0  0  0  0
  -22.7887  -25.3121   22.2312 C   0  0  1  0  0  0  0  0  0  0  0  0
  -25.2721  -34.2239   25.3329 C   0  0  0  0  0  0  0  0  0  0  0  0
  -24.4128  -12.7259   20.7926 N   0  0  0  0  0  0  0  0  0  0  0  0
  -25.5348  -13.4374   20.5905 N   0  0  0  0  0  0  0  0  0  0  0  0
  -25.5328  -17.0902   21.7357 N   0  0  0  0  0  0  0  0  0  0  0  0
  -25.8771  -32.6420   22.1711 N   0  0  0  0  0  0  0  0  0  0  0  0
  -27.8765  -13.2297   20.3001 N   0  0  0  0  0  0  0  0  0  0  0  0
  -26.5071   -8.9567   20.8125 N   0  0  0  0  0  0  0  0  0  0  0  0
  -29.2385  -31.4518   21.4094 N   0  0  0  0  0  0  0  0  0  0  0  0
  -23.7543  -34.9515   23.4432 N   0  0  0  0  0  0  0  0  0  0  0  0
  -20.7081  -35.4748   21.5685 N   0  3  0  0  0  0  0  0  0  0  0  0
  -28.3375  -10.2988   20.4853 O   0  0  0  0  0  0  0  0  0  0  0  0
  -27.5983  -17.4520   22.7458 O   0  0  0  0  0  0  0  0  0  0  0  0
  -27.8014  -31.3406   23.2383 O   0  0  0  0  0  0  0  0  0  0  0  0
  -26.5083  -34.8321   22.6622 O   0  0  0  0  0  0  0  0  0  0  0  0
  -21.9768  -33.4983   23.1178 O   0  0  0  0  0  0  0  0  0  0  0  0
  -21.2660   -7.2533   21.6280 O   0  0  0  0  0  0  0  0  0  0  0  0
  -23.2596  -27.2280   20.7963 O   0  0  0  0  0  0  0  0  0  1  0  0
  -22.6774   -3.3275   25.2336 F   0  0  0  0  0  0  0  0  0  0  0  0
  -19.6997   -6.7355   23.8464 F   0  0  0  0  0  0  0  0  0  0  0  0
  1  2  1  0  0  0  0
  1  5  2  0  0  0  0
  2  6  2  0  0  0  0
  3  8  2  0  0  0  0
  3 17  1  0  0  0  0
  4  9  1  0  0  0  0
  4 17  2  0  0  0  0
  5 20  1  0  0  0  0
  6 22  1  0  0  0  0
  7 10  2  0  0  0  0
  7 21  1  0  0  0  0
  8 27  1  0  0  0  0
  9 27  2  0  0  0  0
 10 28  1  0  0  0  0
 11 12  2  0  0  0  0
 11 29  1  0  0  0  0
 12 30  1  0  0  0  0
 13 18  1  0  0  0  0
 13 24  2  0  0  0  0
 14 18  2  0  0  0  0
 14 25  1  0  0  0  0
 15 23  1  0  0  0  0
 15 28  2  0  0  0  0
 16 30  2  0  0  0  0
 16 31  1  0  0  0  0
 17 32  1  0  0  0  0
 18 34  1  0  0  0  0
 19 32  1  0  0  0  0
 19 33  2  0  0  0  0
 19 36  1  0  0  0  0
 20 22  2  0  0  0  0
 20 41  1  0  0  0  0
 21 23  2  0  0  0  0
 21 42  1  0  0  0  0
 22 50  1  0  0  0  0
 23 43  1  0  0  0  0
 24 26  1  0  0  0  0
 24 53  1  0  0  0  0
 25 26  2  0  0  0  0
 25 61  1  0  0  0  0
 26 62  1  0  0  0  0
 27 83  1  0  0  0  0
 28 84  1  0  0  0  0
 29 31  2  0  0  0  0
 29 83  1  0  0  0  0
 30 85  1  0  0  0  0
 31 86  1  0  0  0  0
 32 69  2  0  0  0  0
 33 70  1  0  0  0  0
 33 73  1  0  0  0  0
 34 35  2  0  0  0  0
 35 37  1  0  0  0  0
 36 74  1  0  0  0  0
 36 78  2  0  0  0  0
 37 71  1  0  0  0  0
 37 79  2  0  0  0  0
 38 51  1  0  0  0  0
 38 75  1  0  0  0  0
 38 80  2  0  0  0  0
 39 65  1  0  0  0  0
 39 72  1  0  0  0  0
 39 81  2  0  0  0  0
 40 66  1  0  0  0  0
 40 76  1  0  0  0  0
 40 82  2  0  0  0  0
 41 44  1  0  0  0  0
 42 51  1  0  0  0  0
 43 72  1  0  0  0  0
 44 46  1  0  0  0  0
 45 47  1  0  0  0  0
 45 48  1  0  0  0  0
 46 50  1  0  0  0  0
 47 52  1  0  0  0  0
 48 71  1  0  0  0  0
 49 52  1  0  0  0  0
 49 71  1  0  0  0  0
 50 75  1  0  0  0  0
 51 72  1  0  0  0  0
 52 70  1  0  0  0  0
 54 62  1  0  0  0  0
 55 66  1  0  0  0  0
 56 67  1  0  0  0  0
 57 68  1  0  0  0  0
 58 68  1  0  0  0  0
 59 68  1  0  0  0  0
 60 77  1  0  0  0  0
 61 63  1  0  0  0  0
 63 67  1  0  0  0  0
 64 67  1  0  0  0  0
 64 84  1  0  0  0  0
 65 68  1  0  0  0  0
 65 76  1  0  0  0  0
 66 77  1  0  0  0  0
 69 70  1  0  0  0  0
M  CHG  1  77   1
M  ISO  4  35 100  37 100  64 101  84 101
M  END
> <Batch ID>
0131

> <Smiles>
CCc1c(C)cc(C=[100CH:0][100C:0](=O)N2CCCC(n3nc(-c4ccc(Oc5ccc(F)cc5F)cc4)c(C(N)=O)c3N)C2)cc1CCC(C)[101CH2:1][101O:1]c1ccc2c(c1)CN(C(=O)C(NC(=O)C(C)NC)C(C)(C)C)C(C(=O)NC1CCCc3ccccc31)C2

> <Shape>
0.237

> <Color>
0.098

> <Negative vol penalty>
0.000

$$$$

  -OEChem-04052302253D

 86 94  0     1  0  0  0  0  0999 V2000
  -22.0606  -36.4785   21.8696 C   0  0  0  0  0  0  0  0  0  0  0  0
  -22.7275  -35.3924   21.3118 C   0  0  0  0  0  0  0  0  0  0  0  0
  -27.5020  -19.6614   16.7279 C   0  0  0  0  0  0  0  0  0  0  0  0
  -22.7850  -10.4581   21.4172 C   0  0  0  0  0  0  0  0  0  0  0  0
  -24.3818   -9.2083   22.7308 C   0  0  0  0  0  0  0  0  0  0  0  0
  -27.7721  -18.7415   17.7411 C   0  0  0  0  0  0  0  0  0  0  0  0
  -22.6354  -37.1786   22.9295 C   0  0  0  0  0  0  0  0  0  0  0  0
  -23.9703  -35.0066   21.8129 C   0  0  0  0  0  0  0  0  0  0  0  0
  -24.3477  -29.9936   22.4231 C   0  0  0  0  0  0  0  0  0  0  0  0
  -27.8284  -21.0064   16.9018 C   0  0  0  0  0  0  0  0  0  0  0  0
  -22.1497   -9.2693   21.0584 C   0  0  0  0  0  0  0  0  0  0  0  0
  -23.7465   -8.0195   22.3720 C   0  0  0  0  0  0  0  0  0  0  0  0
  -24.5789  -29.2287   21.2807 C   0  0  0  0  0  0  0  0  0  0  0  0
  -20.9811   -6.3026   23.2804 C   0  0  0  0  0  0  0  0  0  0  0  0
  -20.7422   -5.3677   24.2876 C   0  0  0  0  0  0  0  0  0  0  0  0
  -26.9203  -29.1017   21.8469 C   0  0  0  0  0  0  0  0  0  0  0  0
  -22.0885   -3.7482   23.1037 C   0  0  0  0  0  0  0  0  0  0  0  0
  -23.9011  -10.4276   22.2534 C   0  0  0  0  0  0  0  0  0  0  0  0
  -28.3685  -19.1666   18.9282 C   0  0  0  0  0  0  0  0  0  0  0  0
  -24.2766  -12.4671   23.7390 C   0  0  0  0  0  0  0  0  0  0  0  0
  -23.8815  -36.7952   23.4501 C   0  0  0  0  0  0  0  0  0  0  0  0
  -25.4047  -30.3280   23.2818 C   0  0  0  0  0  0  0  0  0  0  0  0
  -24.5630  -35.7031   22.8798 C   0  0  0  0  0  0  0  0  0  0  0  0
  -26.6995  -29.8688   23.0010 C   0  0  0  0  0  0  0  0  0  0  0  0
  -28.6950  -20.5116   19.1021 C   0  0  0  0  0  0  0  0  0  0  0  0
  -22.6304   -8.0500   21.5358 C   0  0  0  0  0  0  0  0  0  0  0  0
  -25.8659  -28.7851   20.9908 C   0  0  0  0  0  0  0  0  0  0  0  0
  -28.4249  -21.4315   18.0889 C   0  0  0  0  0  0  0  0  0  0  0  0
  -21.7737   -5.9603   22.1848 C   0  0  0  0  0  0  0  0  0  0  0  0
  -21.2959   -4.0905   24.1993 C   0  0  0  0  0  0  0  0  0  0  0  0
  -22.3274   -4.6831   22.0965 C   0  0  0  0  0  0  0  0  0  0  0  0
  -24.5581  -11.6553   22.6239 C   0  0  0  0  0  0  0  0  0  0  0  0
  -25.1703  -13.5055   23.6421 C   0  0  0  0  0  0  0  0  0  0  0  0
  -28.6389  -18.1831   19.9684 C   0  0  0  0  0  0  0  0  0  0  0  0
  -23.2950  -12.2977   24.7703 C   0  0  0  0  0  0  0  0  0  0  0  0
  -27.5501  -17.3958   20.5812 C   0  0  0  0  0  0  0  0  0  0  0  0
  -26.7464  -33.0477   24.2342 C   0  0  0  0  0  0  0  0  0  0  0  0
  -28.4248  -31.0802   26.1922 C   0  0  0  0  0  0  0  0  0  0  0  0
  -29.6312  -27.9482   26.8107 C   0  0  0  0  0  0  0  0  0  0  0  0
  -24.4846  -37.6119   24.5655 C   0  0  0  0  0  0  0  0  0  0  0  0
  -25.1341  -31.1313   24.5243 C   0  0  0  0  0  0  0  0  0  0  0  0
  -27.8651  -30.1834   23.9014 C   0  0  0  0  0  0  0  0  0  0  0  0
  -25.6327  -36.9077   25.2839 C   0  0  0  0  0  0  0  0  0  0  0  0
  -29.2065  -14.1281   20.6838 C   0  0  0  0  0  0  0  0  0  0  0  0
  -26.5997  -36.2971   24.2744 C   0  0  0  0  0  0  0  0  0  0  0  0
  -28.0922  -13.2517   21.2495 C   0  0  0  0  0  0  0  0  0  0  0  0
  -28.6611  -15.2389   19.7876 C   0  0  0  0  0  0  0  0  0  0  0  0
  -26.5081  -15.2050   21.0138 C   0  0  0  0  0  0  0  0  0  0  0  0
  -25.9014  -35.2387   23.4120 C   0  0  1  0  0  0  0  0  0  0  0  0
  -26.3729  -31.8460   25.0553 C   0  0  1  0  0  0  0  0  0  0  0  0
  -27.0307  -14.1095   21.9563 C   0  0  1  0  0  0  0  0  0  0  0  0
  -31.4804  -21.7271   21.4831 C   0  0  0  0  0  0  0  0  0  0  0  0
  -30.9997  -26.6567   28.4711 C   0  0  0  0  0  0  0  0  0  0  0  0
  -30.9678  -32.3434   25.0753 C   0  0  0  0  0  0  0  0  0  0  0  0
  -32.2571  -30.4172   26.0218 C   0  0  0  0  0  0  0  0  0  0  0  0
  -30.9995  -31.9421   27.5436 C   0  0  0  0  0  0  0  0  0  0  0  0
  -27.3771  -26.1338   27.4319 C   0  0  0  0  0  0  0  0  0  0  0  0
  -29.3340  -20.9765   20.3722 C   0  0  0  0  0  0  0  0  0  0  0  0
  -30.8389  -21.2231   20.2000 C   0  0  0  0  0  0  0  0  0  0  0  0
  -26.8680  -25.9216   19.0106 C   0  0  0  0  0  0  0  0  0  0  0  0
  -27.9780  -24.8772   19.0556 C   0  0  0  0  0  0  0  0  0  0  0  0
  -27.1642  -27.0963   19.9334 C   0  0  0  0  0  0  0  0  0  1  0  0
  -27.6626  -23.6828   18.1663 C   0  0  0  0  0  0  0  0  0  0  0  0
  -29.7238  -30.3186   26.0846 C   0  0  1  0  0  0  0  0  0  0  0  0
  -29.5998  -27.0851   28.0591 C   0  0  2  0  0  0  0  0  0  0  0  0
  -30.9657  -31.2509   26.1631 C   0  0  0  0  0  0  0  0  0  0  0  0
  -25.5528  -12.1366   21.8737 N   0  0  0  0  0  0  0  0  0  0  0  0
  -29.8365  -17.9326   20.4205 N   0  0  0  0  0  0  0  0  0  0  0  0
  -25.9040  -13.2622   22.5184 N   0  0  0  0  0  0  0  0  0  0  0  0
  -27.6065  -16.0080   20.4650 N   0  0  0  0  0  0  0  0  0  0  0  0
  -27.5508  -30.9772   25.1008 N   0  0  0  0  0  0  0  0  0  0  0  0
  -25.3922  -14.5940   24.4092 N   0  0  0  0  0  0  0  0  0  0  0  0
  -22.4580  -11.1747   24.7180 N   0  0  0  0  0  0  0  0  0  0  0  0
  -25.7518  -34.0033   24.1507 N   0  0  0  0  0  0  0  0  0  0  0  0
  -29.6816  -29.2911   27.1195 N   0  0  0  0  0  0  0  0  0  0  0  0
  -28.7844  -25.8605   27.8218 N   0  3  0  0  0  0  0  0  0  0  0  0
  -23.1531  -13.1264   25.7012 O   0  0  0  0  0  0  0  0  0  0  0  0
  -26.6533  -18.0162   21.1552 O   0  0  0  0  0  0  0  0  0  0  0  0
  -27.8554  -33.1044   23.7159 O   0  0  0  0  0  0  0  0  0  0  0  0
  -28.1911  -31.7363   27.2103 O   0  0  0  0  0  0  0  0  0  0  0  0
  -29.6165  -27.4781   25.6753 O   0  0  0  0  0  0  0  0  0  0  0  0
  -22.0106   -6.8898   21.1861 O   0  0  0  0  0  0  0  0  0  0  0  0
  -26.0944  -28.0389   19.8760 O   0  0  0  0  0  0  0  0  0  1  0  0
  -28.7381  -22.7572   18.2412 O   0  0  0  0  0  0  0  0  0  0  0  0
  -21.0676   -3.1933   25.1674 F   0  0  0  0  0  0  0  0  0  0  0  0
  -23.0906   -4.3488   21.0470 F   0  0  0  0  0  0  0  0  0  0  0  0
  1  2  1  0  0  0  0
  1  7  2  0  0  0  0
  2  8  2  0  0  0  0
  3  6  2  0  0  0  0
  3 10  1  0  0  0  0
  4 11  2  0  0  0  0
  4 18  1  0  0  0  0
  5 12  1  0  0  0  0
  5 18  2  0  0  0  0
  6 19  1  0  0  0  0
  7 21  1  0  0  0  0
  8 23  1  0  0  0  0
  9 13  2  0  0  0  0
  9 22  1  0  0  0  0
 10 28  2  0  0  0  0
 11 26  1  0  0  0  0
 12 26  2  0  0  0  0
 13 27  1  0  0  0  0
 14 15  2  0  0  0  0
 14 29  1  0  0  0  0
 15 30  1  0  0  0  0
 16 24  1  0  0  0  0
 16 27  2  0  0  0  0
 17 30  2  0  0  0  0
 17 31  1  0  0  0  0
 18 32  1  0  0  0  0
 19 25  2  0  0  0  0
 19 34  1  0  0  0  0
 20 32  1  0  0  0  0
 20 33  2  0  0  0  0
 20 35  1  0  0  0  0
 21 23  2  0  0  0  0
 21 40  1  0  0  0  0
 22 24  2  0  0  0  0
 22 41  1  0  0  0  0
 23 49  1  0  0  0  0
 24 42  1  0  0  0  0
 25 28  1  0  0  0  0
 25 58  1  0  0  0  0
 26 82  1  0  0  0  0
 27 83  1  0  0  0  0
 28 84  1  0  0  0  0
 29 31  2  0  0  0  0
 29 82  1  0  0  0  0
 30 85  1  0  0  0  0
 31 86  1  0  0  0  0
 32 67  2  0  0  0  0
 33 69  1  0  0  0  0
 33 72  1  0  0  0  0
 34 36  1  0  0  0  0
 34 68  2  0  0  0  0
 35 73  1  0  0  0  0
 35 77  2  0  0  0  0
 36 70  1  0  0  0  0
 36 78  2  0  0  0  0
 37 50  1  0  0  0  0
 37 74  1  0  0  0  0
 37 79  2  0  0  0  0
 38 64  1  0  0  0  0
 38 71  1  0  0  0  0
 38 80  2  0  0  0  0
 39 65  1  0  0  0  0
 39 75  1  0  0  0  0
 39 81  2  0  0  0  0
 40 43  1  0  0  0  0
 41 50  1  0  0  0  0
 42 71  1  0  0  0  0
 43 45  1  0  0  0  0
 44 46  1  0  0  0  0
 44 47  1  0  0  0  0
 45 49  1  0  0  0  0
 46 51  1  0  0  0  0
 47 70  1  0  0  0  0
 48 51  1  0  0  0  0
 48 70  1  0  0  0  0
 49 74  1  0  0  0  0
 50 71  1  0  0  0  0
 51 69  1  0  0  0  0
 52 59  1  0  0  0  0
 53 65  1  0  0  0  0
 54 66  1  0  0  0  0
 55 66  1  0  0  0  0
 56 66  1  0  0  0  0
 57 76  1  0  0  0  0
 58 59  1  0  0  0  0
 60 61  1  0  0  0  0
 60 62  1  0  0  0  0
 61 63  1  0  0  0  0
 62 83  1  0  0  0  0
 63 84  1  0  0  0  0
 64 66  1  0  0  0  0
 64 75  1  0  0  0  0
 65 76  1  0  0  0  0
 67 69  1  0  0  0  0
M  CHG  1  76   1
M  ISO  4  34 100  36 100  62 101  83 101
M  END
> <Batch ID>
0131

> <Smiles>
CCCc1c(OCCC[101CH2:1][101O:1]c2ccc3c(c2)CN(C(=O)C(NC(=O)C(C)NC)C(C)(C)C)C(C(=O)NC2CCCc4ccccc42)C3)cccc1[100C:0](=N)[100C:0](=O)N1CCCC(n2nc(-c3ccc(Oc4ccc(F)cc4F)cc3)c(C(N)=O)c2N)C1

> <Shape>
0.291

> <Color>
0.088

> <Negative vol penalty>
0.000

$$$$

  -OEChem-04052302253D

 85 93  0     1  0  0  0  0  0999 V2000
  -18.9668  -33.5680   24.4791 C   0  0  0  0  0  0  0  0  0  0  0  0
  -20.2780  -33.5944   24.0150 C   0  0  0  0  0  0  0  0  0  0  0  0
  -26.3438  -13.1271   20.6922 C   0  0  0  0  0  0  0  0  0  0  0  0
  -26.6935  -12.7244   18.3358 C   0  0  0  0  0  0  0  0  0  0  0  0
  -18.3669  -32.3512   24.8011 C   0  0  0  0  0  0  0  0  0  0  0  0
  -20.9906  -32.4042   23.8738 C   0  0  0  0  0  0  0  0  0  0  0  0
  -26.0228  -29.3619   19.7826 C   0  0  0  0  0  0  0  0  0  0  0  0
  -25.1513  -12.4055   20.6386 C   0  0  0  0  0  0  0  0  0  0  0  0
  -25.5010  -12.0028   18.2822 C   0  0  0  0  0  0  0  0  0  0  0  0
  -27.2443  -28.6989   19.8922 C   0  0  0  0  0  0  0  0  0  0  0  0
  -24.2036   -9.1601   20.5932 C   0  0  0  0  0  0  0  0  0  0  0  0
  -23.9590   -8.2357   21.6087 C   0  0  0  0  0  0  0  0  0  0  0  0
  -32.9736  -24.0421   21.9220 C   0  0  0  0  0  0  0  0  0  0  0  0
  -26.0793  -26.6495   20.4038 C   0  0  0  0  0  0  0  0  0  0  0  0
  -34.9460  -24.7078   20.0648 C   0  0  0  0  0  0  0  0  0  0  0  0
  -21.9527   -9.4359   22.2180 C   0  0  0  0  0  0  0  0  0  0  0  0
  -27.1149  -13.2866   19.5408 C   0  0  0  0  0  0  0  0  0  0  0  0
  -33.5259  -23.0542   21.1068 C   0  0  0  0  0  0  0  0  0  0  0  0
  -29.6325  -13.5308   19.8718 C   0  0  0  0  0  0  0  0  0  0  0  0
  -19.0692  -31.1446   24.6546 C   0  0  0  0  0  0  0  0  0  0  0  0
  -24.8186  -28.6749   19.9938 C   0  0  0  0  0  0  0  0  0  0  0  0
  -20.4000  -31.1703   24.1954 C   0  0  0  0  0  0  0  0  0  0  0  0
  -24.8437  -27.3054   20.2938 C   0  0  0  0  0  0  0  0  0  0  0  0
  -33.4075  -25.3630   21.8086 C   0  0  0  0  0  0  0  0  0  0  0  0
  -34.5120  -23.3870   20.1782 C   0  0  0  0  0  0  0  0  0  0  0  0
  -34.3937  -25.6958   20.8800 C   0  0  0  0  0  0  0  0  0  0  0  0
  -24.7299  -11.8433   19.4336 C   0  0  0  0  0  0  0  0  0  0  0  0
  -27.2728  -27.3432   20.2057 C   0  0  0  0  0  0  0  0  0  0  0  0
  -23.3227  -10.2225   20.3901 C   0  0  0  0  0  0  0  0  0  0  0  0
  -22.8336   -8.3736   22.4211 C   0  0  0  0  0  0  0  0  0  0  0  0
  -22.1973  -10.3604   21.2025 C   0  0  0  0  0  0  0  0  0  0  0  0
  -28.3465  -14.0324   19.5955 C   0  0  0  0  0  0  0  0  0  0  0  0
  -30.4520  -14.6309   19.8046 C   0  0  0  0  0  0  0  0  0  0  0  0
  -33.0519  -21.6837   21.2488 C   0  0  0  0  0  0  0  0  0  0  0  0
  -31.7842  -21.2710   21.0455 C   0  0  0  0  0  0  0  0  0  0  0  0
  -30.0491  -12.1901   20.1632 C   0  0  0  0  0  0  0  0  0  0  0  0
  -31.4614  -19.8407   21.2206 C   0  0  0  0  0  0  0  0  0  0  0  0
  -22.4283  -28.9256   22.0740 C   0  0  0  0  0  0  0  0  0  0  0  0
  -21.0773  -26.6460   20.2031 C   0  0  0  0  0  0  0  0  0  0  0  0
  -21.5073  -24.1009   17.9705 C   0  0  0  0  0  0  0  0  0  0  0  0
  -18.3947  -29.8582   25.0603 C   0  0  0  0  0  0  0  0  0  0  0  0
  -23.5083  -29.3984   19.8456 C   0  0  0  0  0  0  0  0  0  0  0  0
  -23.5783  -26.5177   20.5100 C   0  0  0  0  0  0  0  0  0  0  0  0
  -19.0927  -28.6098   24.5267 C   0  0  0  0  0  0  0  0  0  0  0  0
  -29.5806  -19.3040   18.1212 C   0  0  0  0  0  0  0  0  0  0  0  0
  -20.5982  -28.7016   24.7541 C   0  0  0  0  0  0  0  0  0  0  0  0
  -29.1583  -17.8461   18.2826 C   0  0  0  0  0  0  0  0  0  0  0  0
  -29.6233  -20.0385   19.4603 C   0  0  0  0  0  0  0  0  0  0  0  0
  -30.0497  -17.9044   20.6453 C   0  0  0  0  0  0  0  0  0  0  0  0
  -21.1973  -29.8982   24.0053 C   0  0  1  0  0  0  0  0  0  0  0  0
  -22.3624  -28.7173   20.5875 C   0  0  1  0  0  0  0  0  0  0  0  0
  -30.0454  -17.1337   19.3159 C   0  0  1  0  0  0  0  0  0  0  0  0
  -35.1261  -22.3543   19.2884 C   0  0  0  0  0  0  0  0  0  0  0  0
  -36.2311  -27.3198   21.4026 C   0  0  0  0  0  0  0  0  0  0  0  0
  -20.2185  -22.4013   16.6485 C   0  0  0  0  0  0  0  0  0  0  0  0
  -20.6828  -24.9828   22.7305 C   0  0  0  0  0  0  0  0  0  0  0  0
  -20.2946  -22.9854   21.2718 C   0  0  0  0  0  0  0  0  0  0  0  0
  -18.7515  -24.9411   21.1422 C   0  0  0  0  0  0  0  0  0  0  0  0
  -22.4659  -25.2048   15.3973 C   0  0  0  0  0  0  0  0  0  0  0  0
  -32.7959  -26.4140   22.7003 C   0  0  0  0  0  0  0  0  0  0  0  0
  -34.8738  -27.1032   20.7404 C   0  0  0  0  0  0  0  0  0  0  0  0
  -31.7769  -27.3120   21.9901 C   0  0  0  0  0  0  0  0  0  0  0  0
  -30.5550  -26.5453   21.4821 C   0  0  0  0  0  0  0  0  0  0  0  0
  -29.5853  -27.4619   20.7485 C   0  0  0  0  0  0  0  0  0  1  0  0
  -21.0832  -25.1365   20.1845 C   0  0  1  0  0  0  0  0  0  0  0  0
  -20.8270  -23.7951   16.6484 C   0  0  2  0  0  0  0  0  0  0  0  0
  -20.2271  -24.5264   21.3302 C   0  0  0  0  0  0  0  0  0  0  0  0
  -28.3441  -15.3488   19.3696 N   0  0  0  0  0  0  0  0  0  0  0  0
  -29.6387  -15.6837   19.5041 N   0  0  0  0  0  0  0  0  0  0  0  0
  -30.4299  -19.3079   20.4494 N   0  0  0  0  0  0  0  0  0  0  0  0
  -22.3224  -27.2713   20.3603 N   0  0  0  0  0  0  0  0  0  0  0  0
  -31.7817  -14.7909   19.9738 N   0  0  0  0  0  0  0  0  0  0  0  0
  -29.0779  -11.1801   20.1924 N   0  0  0  0  0  0  0  0  0  0  0  0
  -21.3381  -29.5943   22.5973 N   0  0  0  0  0  0  0  0  0  0  0  0
  -20.6572  -24.7430   18.8458 N   0  0  0  0  0  0  0  0  0  0  0  0
  -21.8077  -23.8796   15.5294 N   0  3  0  0  0  0  0  0  0  0  0  0
  -31.2447  -11.8994   20.4071 O   0  0  0  0  0  0  0  0  0  0  0  0
  -32.1225  -19.2052   22.0438 O   0  0  0  0  0  0  0  0  0  0  0  0
  -23.3959  -28.5091   22.7002 O   0  0  0  0  0  0  0  0  0  0  0  0
  -20.0084  -27.2482   20.0754 O   0  0  0  0  0  0  0  0  0  0  0  0
  -22.6749  -23.7970   18.2048 O   0  0  0  0  0  0  0  0  0  0  0  0
  -23.5665  -11.1389   19.3810 O   0  0  0  0  0  0  0  0  0  0  0  0
  -28.4638  -26.6938   20.3140 O   0  0  0  0  0  0  0  0  0  1  0  0
  -22.5980   -7.4850   23.3953 F   0  0  0  0  0  0  0  0  0  0  0  0
  -21.3468  -11.3782   21.0114 F   0  0  0  0  0  0  0  0  0  0  0  0
  1  2  1  0  0  0  0
  1  5  2  0  0  0  0
  2  6  2  0  0  0  0
  3  8  2  0  0  0  0
  3 17  1  0  0  0  0
  4  9  1  0  0  0  0
  4 17  2  0  0  0  0
  5 20  1  0  0  0  0
  6 22  1  0  0  0  0
  7 10  2  0  0  0  0
  7 21  1  0  0  0  0
  8 27  1  0  0  0  0
  9 27  2  0  0  0  0
 10 28  1  0  0  0  0
 11 12  2  0  0  0  0
 11 29  1  0  0  0  0
 12 30  1  0  0  0  0
 13 18  2  0  0  0  0
 13 24  1  0  0  0  0
 14 23  1  0  0  0  0
 14 28  2  0  0  0  0
 15 25  2  0  0  0  0
 15 26  1  0  0  0  0
 16 30  2  0  0  0  0
 16 31  1  0  0  0  0
 17 32  1  0  0  0  0
 18 25  1  0  0  0  0
 18 34  1  0  0  0  0
 19 32  1  0  0  0  0
 19 33  2  0  0  0  0
 19 36  1  0  0  0  0
 20 22  2  0  0  0  0
 20 41  1  0  0  0  0
 21 23  2  0  0  0  0
 21 42  1  0  0  0  0
 22 50  1  0  0  0  0
 23 43  1  0  0  0  0
 24 26  2  0  0  0  0
 24 60  1  0  0  0  0
 25 53  1  0  0  0  0
 26 61  1  0  0  0  0
 27 82  1  0  0  0  0
 28 83  1  0  0  0  0
 29 31  2  0  0  0  0
 29 82  1  0  0  0  0
 30 84  1  0  0  0  0
 31 85  1  0  0  0  0
 32 68  2  0  0  0  0
 33 69  1  0  0  0  0
 33 72  1  0  0  0  0
 34 35  2  0  0  0  0
 35 37  1  0  0  0  0
 36 73  1  0  0  0  0
 36 77  2  0  0  0  0
 37 70  1  0  0  0  0
 37 78  2  0  0  0  0
 38 51  1  0  0  0  0
 38 74  1  0  0  0  0
 38 79  2  0  0  0  0
 39 65  1  0  0  0  0
 39 71  1  0  0  0  0
 39 80  2  0  0  0  0
 40 66  1  0  0  0  0
 40 75  1  0  0  0  0
 40 81  2  0  0  0  0
 41 44  1  0  0  0  0
 42 51  1  0  0  0  0
 43 71  1  0  0  0  0
 44 46  1  0  0  0  0
 45 47  1  0  0  0  0
 45 48  1  0  0  0  0
 46 50  1  0  0  0  0
 47 52  1  0  0  0  0
 48 70  1  0  0  0  0
 49 52  1  0  0  0  0
 49 70  1  0  0  0  0
 50 74  1  0  0  0  0
 51 71  1  0  0  0  0
 52 69  1  0  0  0  0
 54 61  1  0  0  0  0
 55 66  1  0  0  0  0
 56 67  1  0  0  0  0
 57 67  1  0  0  0  0
 58 67  1  0  0  0  0
 59 76  1  0  0  0  0
 60 62  1  0  0  0  0
 62 63  1  0  0  0  0
 63 64  1  0  0  0  0
 64 83  1  0  0  0  0
 65 67  1  0  0  0  0
 65 75  1  0  0  0  0
 66 76  1  0  0  0  0
 68 69  1  0  0  0  0
M  CHG  1  76   1
M  ISO  4  35 100  37 100  64 101  83 101
M  END
> <Batch ID>
0131

> <Smiles>
CCc1cc(C)c(C=[100CH:0][100C:0](=O)N2CCCC(n3nc(-c4ccc(Oc5ccc(F)cc5F)cc4)c(C(N)=O)c3N)C2)cc1CCC[101CH2:1][101O:1]c1ccc2c(c1)CN(C(=O)C(NC(=O)C(C)NC)C(C)(C)C)C(C(=O)NC1CCCc3ccccc31)C2

> <Shape>
0.241

> <Color>
0.113

> <Negative vol penalty>
0.000

$$$$

  -OEChem-04052302253D

 87 95  0     1  0  0  0  0  0999 V2000
  -26.2073  -19.0931   28.3758 C   0  0  0  0  0  0  0  0  0  0  0  0
  -26.6903  -20.2951   27.8710 C   0  0  0  0  0  0  0  0  0  0  0  0
  -26.6134  -12.7122   20.4420 C   0  0  0  0  0  0  0  0  0  0  0  0
  -24.8576  -14.3628   20.2693 C   0  0  0  0  0  0  0  0  0  0  0  0
  -31.1681  -23.4463   21.2111 C   0  0  0  0  0  0  0  0  0  0  0  0
  -31.2145  -24.1848   20.0287 C   0  0  0  0  0  0  0  0  0  0  0  0
  -25.1427  -18.4539   27.7439 C   0  0  0  0  0  0  0  0  0  0  0  0
  -26.1013  -20.8643   26.7414 C   0  0  0  0  0  0  0  0  0  0  0  0
  -27.6186  -25.8361   23.5624 C   0  0  0  0  0  0  0  0  0  0  0  0
  -25.6796  -11.6971   20.2339 C   0  0  0  0  0  0  0  0  0  0  0  0
  -23.9238  -13.3478   20.0612 C   0  0  0  0  0  0  0  0  0  0  0  0
  -28.4088  -26.1496   22.4574 C   0  0  0  0  0  0  0  0  0  0  0  0
  -23.7005   -8.6491   20.1061 C   0  0  0  0  0  0  0  0  0  0  0  0
  -23.7659   -7.5265   20.9313 C   0  0  0  0  0  0  0  0  0  0  0  0
  -29.0790  -22.4556   20.5103 C   0  0  0  0  0  0  0  0  0  0  0  0
  -26.4561  -26.0621   21.0437 C   0  0  0  0  0  0  0  0  0  0  0  0
  -23.4076   -8.9282   22.8663 C   0  0  0  0  0  0  0  0  0  0  0  0
  -26.2024  -14.0450   20.4597 C   0  0  0  0  0  0  0  0  0  0  0  0
  -30.1003  -22.5817   21.4519 C   0  0  0  0  0  0  0  0  0  0  0  0
  -30.1932  -24.0588   19.0871 C   0  0  0  0  0  0  0  0  0  0  0  0
  -27.9084  -15.7810   19.6958 C   0  0  0  0  0  0  0  0  0  0  0  0
  -24.5491  -19.0098   26.5988 C   0  0  0  0  0  0  0  0  0  0  0  0
  -26.2406  -25.6222   23.4143 C   0  0  0  0  0  0  0  0  0  0  0  0
  -25.0104  -20.2465   26.1036 C   0  0  0  0  0  0  0  0  0  0  0  0
  -25.6502  -25.7485   22.1488 C   0  0  0  0  0  0  0  0  0  0  0  0
  -29.1254  -23.1942   19.3279 C   0  0  0  0  0  0  0  0  0  0  0  0
  -24.3348  -12.0149   20.0434 C   0  0  0  0  0  0  0  0  0  0  0  0
  -27.8281  -26.2598   21.1974 C   0  0  0  0  0  0  0  0  0  0  0  0
  -23.4888   -9.9113   20.6609 C   0  0  0  0  0  0  0  0  0  0  0  0
  -23.6194   -7.6660   22.3115 C   0  0  0  0  0  0  0  0  0  0  0  0
  -23.3423  -10.0508   22.0410 C   0  0  0  0  0  0  0  0  0  0  0  0
  -27.1664  -15.0940   20.6752 C   0  0  0  0  0  0  0  0  0  0  0  0
  -28.6745  -16.6716   20.4074 C   0  0  0  0  0  0  0  0  0  0  0  0
  -30.0531  -21.8119   22.6851 C   0  0  0  0  0  0  0  0  0  0  0  0
  -28.9456  -21.2525   23.2173 C   0  0  0  0  0  0  0  0  0  0  0  0
  -30.2686  -24.8573   17.8358 C   0  0  0  0  0  0  0  0  0  0  0  0
  -27.9052  -15.6279   18.2702 C   0  0  0  0  0  0  0  0  0  0  0  0
  -29.0626  -20.4869   24.4796 C   0  0  0  0  0  0  0  0  0  0  0  0
  -24.2868  -23.1637   23.9061 C   0  0  0  0  0  0  0  0  0  0  0  0
  -21.9940  -25.3460   23.1969 C   0  0  0  0  0  0  0  0  0  0  0  0
  -21.1562  -28.2682   21.6459 C   0  0  0  0  0  0  0  0  0  0  0  0
  -23.3946  -18.2795   25.9592 C   0  0  0  0  0  0  0  0  0  0  0  0
  -25.3977  -25.3111   24.6206 C   0  0  0  0  0  0  0  0  0  0  0  0
  -24.1721  -25.5485   21.9398 C   0  0  0  0  0  0  0  0  0  0  0  0
  -23.1297  -18.7262   24.5251 C   0  0  0  0  0  0  0  0  0  0  0  0
  -29.5550  -17.0476   25.3657 C   0  0  0  0  0  0  0  0  0  0  0  0
  -23.0627  -20.2446   24.4577 C   0  0  0  0  0  0  0  0  0  0  0  0
  -29.0020  -16.2895   24.1594 C   0  0  0  0  0  0  0  0  0  0  0  0
  -28.7689  -18.3278   25.6289 C   0  0  0  0  0  0  0  0  0  0  0  0
  -28.1386  -18.4866   23.2359 C   0  0  0  0  0  0  0  0  0  0  0  0
  -24.4054  -20.8689   24.8582 C   0  0  1  0  0  0  0  0  0  0  0  0
  -24.0898  -24.6080   24.2704 C   0  0  1  0  0  0  0  0  0  0  0  0
  -28.9246  -17.2016   22.9221 C   0  0  2  0  0  0  0  0  0  0  0  0
  -28.1391  -21.7491   17.5319 C   0  0  0  0  0  0  0  0  0  0  0  0
  -19.1981  -29.7758   21.2096 C   0  0  0  0  0  0  0  0  0  0  0  0
  -20.9621  -23.3926   21.0923 C   0  0  0  0  0  0  0  0  0  0  0  0
  -19.6669  -25.2793   20.0768 C   0  0  0  0  0  0  0  0  0  0  0  0
  -19.1764  -24.5457   22.4100 C   0  0  0  0  0  0  0  0  0  0  0  0
  -29.1594  -28.6000   17.8216 C   0  0  0  0  0  0  0  0  0  0  0  0
  -28.2836  -26.7638   16.3769 C   0  0  0  0  0  0  0  0  0  0  0  0
  -22.4353  -30.5313   23.0606 C   0  0  0  0  0  0  0  0  0  0  0  0
  -28.0192  -23.0403   18.3353 C   0  0  0  0  0  0  0  0  0  0  0  0
  -30.3054  -26.3828   17.8906 C   0  0  0  0  0  0  0  0  0  0  0  0
  -27.9365  -26.6621   18.8559 C   0  0  0  0  0  0  0  0  0  1  0  0
  -21.3135  -25.8089   21.9313 C   0  0  1  0  0  0  0  0  0  0  0  0
  -20.3726  -29.4758   22.1279 C   0  0  2  0  0  0  0  0  0  0  0  0
  -20.3079  -24.7586   21.3809 C   0  0  0  0  0  0  0  0  0  0  0  0
  -28.9226  -27.0751   17.7420 C   0  0  0  0  0  0  0  0  0  0  0  0
  -27.4369  -15.5121   21.9146 N   0  0  0  0  0  0  0  0  0  0  0  0
  -30.2891  -24.2480   16.6921 N   0  0  0  0  0  0  0  0  0  0  0  0
  -28.3575  -16.4714   21.7187 N   0  0  0  0  0  0  0  0  0  0  0  0
  -28.6840  -19.1528   24.4254 N   0  0  0  0  0  0  0  0  0  0  0  0
  -23.3912  -25.2398   23.1491 N   0  0  0  0  0  0  0  0  0  0  0  0
  -29.5818  -17.5985   20.0330 N   0  0  0  0  0  0  0  0  0  0  0  0
  -27.0578  -14.6662   17.7034 N   0  0  0  0  0  0  0  0  0  0  0  0
  -24.2416  -22.3004   24.9841 N   0  0  0  0  0  0  0  0  0  0  0  0
  -20.7163  -27.1039   22.2392 N   0  0  0  0  0  0  0  0  0  0  0  0
  -21.2514  -30.6784   22.1752 N   0  3  0  0  0  0  0  0  0  0  0  0
  -28.6444  -16.3120   17.5224 O   0  0  0  0  0  0  0  0  0  0  0  0
  -29.4829  -21.1167   25.4414 O   0  0  0  0  0  0  0  0  0  0  0  0
  -24.4650  -22.8552   22.7336 O   0  0  0  0  0  0  0  0  0  0  0  0
  -21.3116  -25.0950   24.1934 O   0  0  0  0  0  0  0  0  0  0  0  0
  -22.0650  -28.3493   20.8225 O   0  0  0  0  0  0  0  0  0  0  0  0
  -23.4234  -11.0247   19.8401 O   0  0  0  0  0  0  0  0  0  0  0  0
  -28.5972  -26.5650   20.1170 O   0  0  0  0  0  0  0  0  0  1  0  0
  -23.6806   -6.5877   23.1037 F   0  0  0  0  0  0  0  0  0  0  0  0
  -23.1375  -11.2606   22.5797 F   0  0  0  0  0  0  0  0  0  0  0  0
  1  2  1  0  0  0  0
  1  7  2  0  0  0  0
  2  8  2  0  0  0  0
  3 10  2  0  0  0  0
  3 18  1  0  0  0  0
  4 11  1  0  0  0  0
  4 18  2  0  0  0  0
  5  6  2  0  0  0  0
  5 19  1  0  0  0  0
  6 20  1  0  0  0  0
  7 22  1  0  0  0  0
  8 24  1  0  0  0  0
  9 12  2  0  0  0  0
  9 23  1  0  0  0  0
 10 27  1  0  0  0  0
 11 27  2  0  0  0  0
 12 28  1  0  0  0  0
 13 14  2  0  0  0  0
 13 29  1  0  0  0  0
 14 30  1  0  0  0  0
 15 19  2  0  0  0  0
 15 26  1  0  0  0  0
 16 25  1  0  0  0  0
 16 28  2  0  0  0  0
 17 30  2  0  0  0  0
 17 31  1  0  0  0  0
 18 32  1  0  0  0  0
 19 34  1  0  0  0  0
 20 26  2  0  0  0  0
 20 36  1  0  0  0  0
 21 32  1  0  0  0  0
 21 33  2  0  0  0  0
 21 37  1  0  0  0  0
 22 24  2  0  0  0  0
 22 42  1  0  0  0  0
 23 25  2  0  0  0  0
 23 43  1  0  0  0  0
 24 51  1  0  0  0  0
 25 44  1  0  0  0  0
 26 62  1  0  0  0  0
 27 84  1  0  0  0  0
 28 85  1  0  0  0  0
 29 31  2  0  0  0  0
 29 84  1  0  0  0  0
 30 86  1  0  0  0  0
 31 87  1  0  0  0  0
 32 69  2  0  0  0  0
 33 71  1  0  0  0  0
 33 74  1  0  0  0  0
 34 35  2  0  0  0  0
 35 38  1  0  0  0  0
 36 63  1  0  0  0  0
 36 70  2  0  0  0  0
 37 75  1  0  0  0  0
 37 79  2  0  0  0  0
 38 72  1  0  0  0  0
 38 80  2  0  0  0  0
 39 52  1  0  0  0  0
 39 76  1  0  0  0  0
 39 81  2  0  0  0  0
 40 65  1  0  0  0  0
 40 73  1  0  0  0  0
 40 82  2  0  0  0  0
 41 66  1  0  0  0  0
 41 77  1  0  0  0  0
 41 83  2  0  0  0  0
 42 45  1  0  0  0  0
 43 52  1  0  0  0  0
 44 73  1  0  0  0  0
 45 47  1  0  0  0  0
 46 48  1  0  0  0  0
 46 49  1  0  0  0  0
 47 51  1  0  0  0  0
 48 53  1  0  0  0  0
 49 72  1  0  0  0  0
 50 53  1  0  0  0  0
 50 72  1  0  0  0  0
 51 76  1  0  0  0  0
 52 73  1  0  0  0  0
 53 71  1  0  0  0  0
 54 62  1  0  0  0  0
 55 66  1  0  0  0  0
 56 67  1  0  0  0  0
 57 67  1  0  0  0  0
 58 67  1  0  0  0  0
 59 68  1  0  0  0  0
 60 68  1  0  0  0  0
 61 78  1  0  0  0  0
 63 68  1  0  0  0  0
 64 68  1  0  0  0  0
 64 85  1  0  0  0  0
 65 67  1  0  0  0  0
 65 77  1  0  0  0  0
 66 78  1  0  0  0  0
 69 71  1  0  0  0  0
M  CHG  1  78   1
M  ISO  4  35 100  38 100  64 101  85 101
M  END
> <Batch ID>
0131

> <Smiles>
CCc1cc(C=[100CH:0][100C:0](=O)N2CCCC(n3nc(-c4ccc(Oc5ccc(F)cc5F)cc4)c(C(N)=O)c3N)C2)ccc1C(=N)CC(C)(C)[101CH2:1][101O:1]c1ccc2c(c1)CN(C(=O)C(NC(=O)C(C)NC)C(C)(C)C)C(C(=O)NC1CCCc3ccccc31)C2

> <Shape>
0.192

> <Color>
0.056

> <Negative vol penalty>
0.000

$$$$

  -OEChem-04052302253D

 86 94  0     1  0  0  0  0  0999 V2000
  -24.0878  -35.4726   21.9592 C   0  0  0  0  0  0  0  0  0  0  0  0
  -24.9606  -34.3920   21.8828 C   0  0  0  0  0  0  0  0  0  0  0  0
  -23.3667  -11.4369   23.2870 C   0  0  0  0  0  0  0  0  0  0  0  0
  -22.2559  -13.1127   21.9473 C   0  0  0  0  0  0  0  0  0  0  0  0
  -22.8329  -35.3135   22.5455 C   0  0  0  0  0  0  0  0  0  0  0  0
  -24.5793  -33.1518   22.3937 C   0  0  0  0  0  0  0  0  0  0  0  0
  -25.7121  -29.3317   19.2682 C   0  0  0  0  0  0  0  0  0  0  0  0
  -26.9820  -21.5388   18.5542 C   0  0  0  0  0  0  0  0  0  0  0  0
  -26.0976  -20.5379   18.1524 C   0  0  0  0  0  0  0  0  0  0  0  0
  -22.2762  -11.4088   24.1562 C   0  0  0  0  0  0  0  0  0  0  0  0
  -21.1653  -13.0846   22.8165 C   0  0  0  0  0  0  0  0  0  0  0  0
  -27.0388  -28.9041   19.2400 C   0  0  0  0  0  0  0  0  0  0  0  0
  -19.1786  -10.0550   24.2233 C   0  0  0  0  0  0  0  0  0  0  0  0
  -18.7043   -8.8073   24.6281 C   0  0  0  0  0  0  0  0  0  0  0  0
  -26.4694  -27.0614   20.6888 C   0  0  0  0  0  0  0  0  0  0  0  0
  -28.4354  -19.8673   19.5190 C   0  0  0  0  0  0  0  0  0  0  0  0
  -19.1550   -9.3831   26.9308 C   0  0  0  0  0  0  0  0  0  0  0  0
  -23.3566  -12.2889   22.1825 C   0  0  0  0  0  0  0  0  0  0  0  0
  -24.6756  -11.5283   20.1357 C   0  0  0  0  0  0  0  0  0  0  0  0
  -22.4322  -34.0684   23.0551 C   0  0  0  0  0  0  0  0  0  0  0  0
  -24.7547  -28.6324   20.0170 C   0  0  0  0  0  0  0  0  0  0  0  0
  -23.3183  -32.9762   22.9885 C   0  0  0  0  0  0  0  0  0  0  0  0
  -25.1307  -27.4807   20.7228 C   0  0  0  0  0  0  0  0  0  0  0  0
  -28.1510  -21.2035   19.2375 C   0  0  0  0  0  0  0  0  0  0  0  0
  -26.3820  -19.2017   18.4339 C   0  0  0  0  0  0  0  0  0  0  0  0
  -27.5510  -18.8663   19.1172 C   0  0  0  0  0  0  0  0  0  0  0  0
  -21.1755  -12.2326   23.9210 C   0  0  0  0  0  0  0  0  0  0  0  0
  -27.4182  -27.7705   19.9527 C   0  0  0  0  0  0  0  0  0  0  0  0
  -19.6412  -10.9667   25.1722 C   0  0  0  0  0  0  0  0  0  0  0  0
  -18.6925   -8.4713   25.9819 C   0  0  0  0  0  0  0  0  0  0  0  0
  -19.6294  -10.6308   26.5260 C   0  0  0  0  0  0  0  0  0  0  0  0
  -24.4831  -12.3188   21.2846 C   0  0  0  0  0  0  0  0  0  0  0  0
  -25.8890  -11.9360   19.6379 C   0  0  0  0  0  0  0  0  0  0  0  0
  -23.8329  -10.5161   19.5692 C   0  0  0  0  0  0  0  0  0  0  0  0
  -22.8815  -29.3418   22.4851 C   0  0  0  0  0  0  0  0  0  0  0  0
  -29.9310  -25.1615   18.3686 C   0  0  0  0  0  0  0  0  0  0  0  0
  -21.6596  -26.3935   21.9051 C   0  0  0  0  0  0  0  0  0  0  0  0
  -22.1108  -23.2783   20.5864 C   0  0  0  0  0  0  0  0  0  0  0  0
  -28.9805  -17.0301   20.0821 C   0  0  0  0  0  0  0  0  0  0  0  0
  -21.0842  -33.9567   23.7222 C   0  0  0  0  0  0  0  0  0  0  0  0
  -23.3222  -29.0913   20.0155 C   0  0  0  0  0  0  0  0  0  0  0  0
  -24.1370  -26.6829   21.5258 C   0  0  0  0  0  0  0  0  0  0  0  0
  -20.6114  -32.5165   23.9027 C   0  0  0  0  0  0  0  0  0  0  0  0
  -30.0813  -13.7812   21.0358 C   0  0  0  0  0  0  0  0  0  0  0  0
  -21.7347  -31.6525   24.4669 C   0  0  0  0  0  0  0  0  0  0  0  0
  -28.7888  -12.9640   21.0974 C   0  0  0  0  0  0  0  0  0  0  0  0
  -29.8708  -15.2131   21.5246 C   0  0  0  0  0  0  0  0  0  0  0  0
  -27.4815  -15.1205   20.9316 C   0  0  0  0  0  0  0  0  0  0  0  0
  -22.9314  -31.6089   23.5091 C   0  0  1  0  0  0  0  0  0  0  0  0
  -22.5356  -28.5982   21.2261 C   0  0  1  0  0  0  0  0  0  0  0  0
  -27.6288  -13.6899   20.3881 C   0  0  2  0  0  0  0  0  0  0  0  0
  -25.4160  -18.1505   17.9923 C   0  0  0  0  0  0  0  0  0  0  0  0
  -20.9474  -21.0736   20.2986 C   0  0  0  0  0  0  0  0  0  0  0  0
  -31.3114  -21.5754   18.6308 C   0  0  0  0  0  0  0  0  0  0  0  0
  -22.1865  -25.7354   24.8376 C   0  0  0  0  0  0  0  0  0  0  0  0
  -21.9136  -23.3121   24.2706 C   0  0  0  0  0  0  0  0  0  0  0  0
  -20.0059  -24.8879   23.9538 C   0  0  0  0  0  0  0  0  0  0  0  0
  -22.2283  -23.4700   17.6354 C   0  0  0  0  0  0  0  0  0  0  0  0
  -29.1079  -22.2877   19.6718 C   0  0  0  0  0  0  0  0  0  0  0  0
  -30.5203  -26.5536   18.5529 C   0  0  0  0  0  0  0  0  0  0  0  0
  -30.7906  -24.0137   18.8839 C   0  0  0  0  0  0  0  0  0  0  0  0
  -29.4625  -27.6294   18.7456 C   0  0  0  0  0  0  0  0  0  1  0  0
  -21.9766  -24.9938   22.3735 C   0  0  1  0  0  0  0  0  0  0  0  0
  -21.2360  -22.4322   19.6791 C   0  0  2  0  0  0  0  0  0  0  0  0
  -30.1894  -22.6211   18.6191 C   0  0  1  0  0  0  0  0  0  0  0  0
  -21.5400  -24.7482   23.8454 C   0  0  0  0  0  0  0  0  0  0  0  0
  -25.4933  -13.1645   21.5038 N   0  0  0  0  0  0  0  0  0  0  0  0
  -26.3325  -12.9077   20.4860 N   0  0  0  0  0  0  0  0  0  0  0  0
  -22.7498  -27.1754   21.4981 N   0  0  0  0  0  0  0  0  0  0  0  0
  -28.7592  -15.8390   20.8053 N   0  0  0  0  0  0  0  0  0  0  0  0
  -26.6094  -11.5543   18.5619 N   0  0  0  0  0  0  0  0  0  0  0  0
  -22.6205  -10.2218   20.2077 N   0  0  0  0  0  0  0  0  0  0  0  0
  -27.8578  -17.5148   19.4118 N   0  0  0  0  0  0  0  0  0  0  0  0
  -22.6668  -30.7048   22.4104 N   0  0  0  0  0  0  0  0  0  0  0  0
  -21.3588  -24.0907   21.4084 N   0  0  0  0  0  0  0  0  0  0  0  0
  -21.9070  -22.2170   18.3660 N   0  3  0  0  0  0  0  0  0  0  0  0
  -24.1534   -9.8798   18.5368 O   0  0  0  0  0  0  0  0  0  0  0  0
  -23.3100  -28.7245   23.4531 O   0  0  0  0  0  0  0  0  0  0  0  0
  -28.8502  -24.9738   17.8123 O   0  0  0  0  0  0  0  0  0  0  0  0
  -20.4870  -26.7764   21.8939 O   0  0  0  0  0  0  0  0  0  0  0  0
  -23.3384  -23.2214   20.5702 O   0  0  0  0  0  0  0  0  0  0  0  0
  -30.0913  -17.5650   20.0368 O   0  0  0  0  0  0  0  0  0  0  0  0
  -20.1111  -12.2053   24.7688 O   0  0  0  0  0  0  0  0  0  0  0  0
  -28.7127  -27.3513   19.9274 O   0  0  0  0  0  0  0  0  0  1  0  0
  -18.2355   -7.2737   26.3706 F   0  0  0  0  0  0  0  0  0  0  0  0
  -20.0714  -11.5030   27.4423 F   0  0  0  0  0  0  0  0  0  0  0  0
  1  2  1  0  0  0  0
  1  5  2  0  0  0  0
  2  6  2  0  0  0  0
  3 10  2  0  0  0  0
  3 18  1  0  0  0  0
  4 11  1  0  0  0  0
  4 18  2  0  0  0  0
  5 20  1  0  0  0  0
  6 22  1  0  0  0  0
  7 12  2  0  0  0  0
  7 21  1  0  0  0  0
  8  9  2  0  0  0  0
  8 24  1  0  0  0  0
  9 25  1  0  0  0  0
 10 27  1  0  0  0  0
 11 27  2  0  0  0  0
 12 28  1  0  0  0  0
 13 14  2  0  0  0  0
 13 29  1  0  0  0  0
 14 30  1  0  0  0  0
 15 23  1  0  0  0  0
 15 28  2  0  0  0  0
 16 24  2  0  0  0  0
 16 26  1  0  0  0  0
 17 30  2  0  0  0  0
 17 31  1  0  0  0  0
 18 32  1  0  0  0  0
 19 32  1  0  0  0  0
 19 33  2  0  0  0  0
 19 34  1  0  0  0  0
 20 22  2  0  0  0  0
 20 40  1  0  0  0  0
 21 23  2  0  0  0  0
 21 41  1  0  0  0  0
 22 49  1  0  0  0  0
 23 42  1  0  0  0  0
 24 59  1  0  0  0  0
 25 26  2  0  0  0  0
 25 52  1  0  0  0  0
 26 73  1  0  0  0  0
 27 83  1  0  0  0  0
 28 84  1  0  0  0  0
 29 31  2  0  0  0  0
 29 83  1  0  0  0  0
 30 85  1  0  0  0  0
 31 86  1  0  0  0  0
 32 67  2  0  0  0  0
 33 68  1  0  0  0  0
 33 71  1  0  0  0  0
 34 72  1  0  0  0  0
 34 77  2  0  0  0  0
 35 50  1  0  0  0  0
 35 74  1  0  0  0  0
 35 78  2  0  0  0  0
 36 60  1  0  0  0  0
 36 61  1  0  0  0  0
 36 79  2  0  0  0  0
 37 63  1  0  0  0  0
 37 69  1  0  0  0  0
 37 80  2  0  0  0  0
 38 64  1  0  0  0  0
 38 75  1  0  0  0  0
 38 81  2  0  0  0  0
 39 70  1  0  0  0  0
 39 73  1  0  0  0  0
 39 82  2  0  0  0  0
 40 43  1  0  0  0  0
 41 50  1  0  0  0  0
 42 69  1  0  0  0  0
 43 45  1  0  0  0  0
 44 46  1  0  0  0  0
 44 47  1  0  0  0  0
 45 49  1  0  0  0  0
 46 51  1  0  0  0  0
 47 70  1  0  0  0  0
 48 51  1  0  0  0  0
 48 70  1  0  0  0  0
 49 74  1  0  0  0  0
 50 69  1  0  0  0  0
 51 68  1  0  0  0  0
 53 64  1  0  0  0  0
 54 65  1  0  0  0  0
 55 66  1  0  0  0  0
 56 66  1  0  0  0  0
 57 66  1  0  0  0  0
 58 76  1  0  0  0  0
 59 65  1  0  0  0  0
 60 62  1  0  0  0  0
 61 65  1  0  0  0  0
 62 84  1  0  0  0  0
 63 66  1  0  0  0  0
 63 75  1  0  0  0  0
 64 76  1  0  0  0  0
 67 68  1  0  0  0  0
M  CHG  1  76   1
M  ISO  4  39 100  62 101  73 100  84 101
M  END
> <Batch ID>
0131

> <Smiles>
CNC(C)C(=O)NC(C(=O)N1Cc2cc([101O:1][101CH2:1]CC(=O)CC(C)Cc3ccc(C)c([100NH:0][100C:0](=O)N4CCCC(n5nc(-c6ccc(Oc7ccc(F)cc7F)cc6)c(C(N)=O)c5N)C4)c3)ccc2CC1C(=O)NC1CCCc2ccccc21)C(C)(C)C

> <Shape>
0.247

> <Color>
0.087

> <Negative vol penalty>
0.000

$$$$

  -OEChem-04052302253D

 88 96  0     1  0  0  0  0  0999 V2000
  -16.7815  -28.7177   24.0767 C   0  0  0  0  0  0  0  0  0  0  0  0
  -17.1934  -28.0587   22.9228 C   0  0  0  0  0  0  0  0  0  0  0  0
  -25.1069  -13.6332   21.8288 C   0  0  0  0  0  0  0  0  0  0  0  0
  -26.1137  -13.6757   19.6330 C   0  0  0  0  0  0  0  0  0  0  0  0
  -17.5404  -29.7711   24.5850 C   0  0  0  0  0  0  0  0  0  0  0  0
  -18.3639  -28.4534   22.2759 C   0  0  0  0  0  0  0  0  0  0  0  0
  -22.3362  -24.8445   19.3258 C   0  0  0  0  0  0  0  0  0  0  0  0
  -24.2158  -12.6491   21.4012 C   0  0  0  0  0  0  0  0  0  0  0  0
  -25.2226  -12.6915   19.2053 C   0  0  0  0  0  0  0  0  0  0  0  0
  -22.5083  -24.5467   17.9747 C   0  0  0  0  0  0  0  0  0  0  0  0
  -24.2610   -9.3110   20.8643 C   0  0  0  0  0  0  0  0  0  0  0  0
  -24.0493   -8.2185   21.7053 C   0  0  0  0  0  0  0  0  0  0  0  0
  -24.2172  -26.2427   17.8249 C   0  0  0  0  0  0  0  0  0  0  0  0
  -27.4560  -22.0923   16.2993 C   0  0  0  0  0  0  0  0  0  0  0  0
  -28.9468  -23.7878   15.4392 C   0  0  0  0  0  0  0  0  0  0  0  0
  -21.7009   -8.7718   21.8328 C   0  0  0  0  0  0  0  0  0  0  0  0
  -26.0559  -14.1466   20.9447 C   0  0  0  0  0  0  0  0  0  0  0  0
  -28.2452  -14.9691   21.9634 C   0  0  0  0  0  0  0  0  0  0  0  0
  -18.7260  -30.1726   23.9495 C   0  0  0  0  0  0  0  0  0  0  0  0
  -23.0969  -25.8528   19.9350 C   0  0  0  0  0  0  0  0  0  0  0  0
  -19.1387  -29.5140   22.7755 C   0  0  0  0  0  0  0  0  0  0  0  0
  -24.0546  -26.5496   19.1845 C   0  0  0  0  0  0  0  0  0  0  0  0
  -28.3037  -21.9002   17.3902 C   0  0  0  0  0  0  0  0  0  0  0  0
  -29.7946  -23.5958   16.5302 C   0  0  0  0  0  0  0  0  0  0  0  0
  -29.4729  -22.6520   17.5057 C   0  0  0  0  0  0  0  0  0  0  0  0
  -24.2736  -12.1782   20.0895 C   0  0  0  0  0  0  0  0  0  0  0  0
  -23.4469  -25.2478   17.2233 C   0  0  0  0  0  0  0  0  0  0  0  0
  -23.1927  -10.1339   20.5076 C   0  0  0  0  0  0  0  0  0  0  0  0
  -27.7776  -23.0361   15.3238 C   0  0  0  0  0  0  0  0  0  0  0  0
  -22.7693   -7.9489   22.1896 C   0  0  0  0  0  0  0  0  0  0  0  0
  -21.9127   -9.8643   20.9918 C   0  0  0  0  0  0  0  0  0  0  0  0
  -26.9763  -15.1637   21.3856 C   0  0  0  0  0  0  0  0  0  0  0  0
  -28.7125  -16.2386   22.2013 C   0  0  0  0  0  0  0  0  0  0  0  0
  -24.5668  -25.3018   13.7577 C   0  0  0  0  0  0  0  0  0  0  0  0
  -28.9395  -13.7499   22.2587 C   0  0  0  0  0  0  0  0  0  0  0  0
  -25.5722  -24.7655   13.0377 C   0  0  0  0  0  0  0  0  0  0  0  0
  -22.4301  -28.6167   21.3562 C   0  0  0  0  0  0  0  0  0  0  0  0
  -27.4080  -21.5332   19.6761 C   0  0  0  0  0  0  0  0  0  0  0  0
  -25.6052  -28.5946   22.0203 C   0  0  0  0  0  0  0  0  0  0  0  0
  -28.7276  -27.4832   21.2067 C   0  0  0  0  0  0  0  0  0  0  0  0
  -19.4879  -31.3474   24.5097 C   0  0  0  0  0  0  0  0  0  0  0  0
  -22.9180  -26.1437   21.3998 C   0  0  0  0  0  0  0  0  0  0  0  0
  -24.9107  -27.6274   19.7960 C   0  0  0  0  0  0  0  0  0  0  0  0
  -20.9135  -31.4595   23.9754 C   0  0  0  0  0  0  0  0  0  0  0  0
  -27.2112  -20.6732   23.1491 C   0  0  0  0  0  0  0  0  0  0  0  0
  -20.9310  -31.2843   22.4602 C   0  0  0  0  0  0  0  0  0  0  0  0
  -27.2153  -19.1451   23.1413 C   0  0  0  0  0  0  0  0  0  0  0  0
  -26.4658  -21.2358   21.9428 C   0  0  0  0  0  0  0  0  0  0  0  0
  -26.9783  -19.2097   20.6185 C   0  0  0  0  0  0  0  0  0  0  0  0
  -20.4157  -29.8968   22.0593 C   0  0  1  0  0  0  0  0  0  0  0  0
  -23.3849  -27.5418   21.7928 C   0  0  1  0  0  0  0  0  0  0  0  0
  -27.7477  -18.6006   21.8040 C   0  0  2  0  0  0  0  0  0  0  0  0
  -30.7535  -25.9098   16.6395 C   0  0  0  0  0  0  0  0  0  0  0  0
  -31.6159  -21.6278   18.3090 C   0  0  0  0  0  0  0  0  0  0  0  0
  -25.8284  -25.5157   10.6484 C   0  0  0  0  0  0  0  0  0  0  0  0
  -31.2005  -27.1187   21.4282 C   0  0  0  0  0  0  0  0  0  0  0  0
  -25.7600  -31.3707   20.7637 C   0  0  0  0  0  0  0  0  0  0  0  0
  -28.2449  -31.0954   20.6303 C   0  0  0  0  0  0  0  0  0  0  0  0
  -27.1091  -31.0938   22.8512 C   0  0  0  0  0  0  0  0  0  0  0  0
  -28.3392  -25.0334   22.8213 C   0  0  0  0  0  0  0  0  0  0  0  0
  -27.9350  -20.8841   18.4211 C   0  0  0  0  0  0  0  0  0  0  0  0
  -31.0417  -24.4117   16.6300 C   0  0  0  0  0  0  0  0  0  0  0  0
  -30.3820  -22.4454   18.6754 C   0  0  0  0  0  0  0  0  0  0  0  0
  -24.5957  -25.7172   15.1946 C   0  0  0  0  0  0  0  0  0  1  0  0
  -25.4565  -24.3724   11.5817 C   0  0  0  0  0  0  0  0  0  0  0  0
  -26.9156  -24.5253   13.6821 C   0  0  0  0  0  0  0  0  0  0  0  0
  -26.8467  -29.0966   21.3234 C   0  0  1  0  0  0  0  0  0  0  0  0
  -29.8346  -26.8807   22.0529 C   0  0  2  0  0  0  0  0  0  0  0  0
  -26.9728  -30.6452   21.3799 C   0  0  0  0  0  0  0  0  0  0  0  0
  -26.6577  -16.4550   21.2640 N   0  0  0  0  0  0  0  0  0  0  0  0
  -27.7331  -17.0834   21.7687 N   0  0  0  0  0  0  0  0  0  0  0  0
  -24.6941  -27.8794   21.2303 N   0  0  0  0  0  0  0  0  0  0  0  0
  -26.9862  -20.6773   20.6936 N   0  0  0  0  0  0  0  0  0  0  0  0
  -29.8614  -16.7034   22.7363 N   0  0  0  0  0  0  0  0  0  0  0  0
  -28.3151  -12.5338   21.9496 N   0  0  0  0  0  0  0  0  0  0  0  0
  -21.4380  -28.8957   22.2767 N   0  0  0  0  0  0  0  0  0  0  0  0
  -27.9686  -28.3834   21.9243 N   0  0  0  0  0  0  0  0  0  0  0  0
  -29.6339  -25.4111   22.1983 N   0  3  0  0  0  0  0  0  0  0  0  0
  -30.0729  -13.7389   22.7961 O   0  0  0  0  0  0  0  0  0  0  0  0
  -22.5832  -29.1543   20.2657 O   0  0  0  0  0  0  0  0  0  0  0  0
  -27.3757  -22.7644   19.7491 O   0  0  0  0  0  0  0  0  0  0  0  0
  -25.4529  -28.8224   23.2231 O   0  0  0  0  0  0  0  0  0  0  0  0
  -28.5558  -27.1878   20.0261 O   0  0  0  0  0  0  0  0  0  0  0  0
  -23.4044  -11.2176   19.6719 O   0  0  0  0  0  0  0  0  0  0  0  0
  -23.6165  -24.9596   15.9042 O   0  0  0  0  0  0  0  0  0  1  0  0
  -26.9454  -23.2229   14.2510 O   0  0  0  0  0  0  0  0  0  0  0  0
  -22.5658   -6.8989   22.9959 F   0  0  0  0  0  0  0  0  0  0  0  0
  -20.8822  -10.6505   20.6516 F   0  0  0  0  0  0  0  0  0  0  0  0
  1  2  1  0  0  0  0
  1  5  2  0  0  0  0
  2  6  2  0  0  0  0
  3  8  2  0  0  0  0
  3 17  1  0  0  0  0
  4  9  1  0  0  0  0
  4 17  2  0  0  0  0
  5 19  1  0  0  0  0
  6 21  1  0  0  0  0
  7 10  2  0  0  0  0
  7 20  1  0  0  0  0
  8 26  1  0  0  0  0
  9 26  2  0  0  0  0
 10 27  1  0  0  0  0
 11 12  2  0  0  0  0
 11 28  1  0  0  0  0
 12 30  1  0  0  0  0
 13 22  1  0  0  0  0
 13 27  2  0  0  0  0
 14 23  1  0  0  0  0
 14 29  2  0  0  0  0
 15 24  2  0  0  0  0
 15 29  1  0  0  0  0
 16 30  2  0  0  0  0
 16 31  1  0  0  0  0
 17 32  1  0  0  0  0
 18 32  1  0  0  0  0
 18 33  2  0  0  0  0
 18 35  1  0  0  0  0
 19 21  2  0  0  0  0
 19 41  1  0  0  0  0
 20 22  2  0  0  0  0
 20 42  1  0  0  0  0
 21 50  1  0  0  0  0
 22 43  1  0  0  0  0
 23 25  2  0  0  0  0
 23 61  1  0  0  0  0
 24 25  1  0  0  0  0
 24 62  1  0  0  0  0
 25 63  1  0  0  0  0
 26 84  1  0  0  0  0
 27 85  1  0  0  0  0
 28 31  2  0  0  0  0
 28 84  1  0  0  0  0
 29 86  1  0  0  0  0
 30 87  1  0  0  0  0
 31 88  1  0  0  0  0
 32 70  2  0  0  0  0
 33 71  1  0  0  0  0
 33 74  1  0  0  0  0
 34 36  2  0  0  0  0
 34 64  1  0  0  0  0
 35 75  1  0  0  0  0
 35 79  2  0  0  0  0
 36 65  1  0  0  0  0
 36 66  1  0  0  0  0
 37 51  1  0  0  0  0
 37 76  1  0  0  0  0
 37 80  2  0  0  0  0
 38 61  1  0  0  0  0
 38 73  1  0  0  0  0
 38 81  2  0  0  0  0
 39 67  1  0  0  0  0
 39 72  1  0  0  0  0
 39 82  2  0  0  0  0
 40 68  1  0  0  0  0
 40 77  1  0  0  0  0
 40 83  2  0  0  0  0
 41 44  1  0  0  0  0
 42 51  1  0  0  0  0
 43 72  1  0  0  0  0
 44 46  1  0  0  0  0
 45 47  1  0  0  0  0
 45 48  1  0  0  0  0
 46 50  1  0  0  0  0
 47 52  1  0  0  0  0
 48 73  1  0  0  0  0
 49 52  1  0  0  0  0
 49 73  1  0  0  0  0
 50 76  1  0  0  0  0
 51 72  1  0  0  0  0
 52 71  1  0  0  0  0
 53 62  1  0  0  0  0
 54 63  1  0  0  0  0
 55 65  1  0  0  0  0
 56 68  1  0  0  0  0
 57 69  1  0  0  0  0
 58 69  1  0  0  0  0
 59 69  1  0  0  0  0
 60 78  1  0  0  0  0
 64 85  1  0  0  0  0
 66 86  1  0  0  0  0
 67 69  1  0  0  0  0
 67 77  1  0  0  0  0
 68 78  1  0  0  0  0
 70 71  1  0  0  0  0
M  CHG  1  78   1
M  ISO  4  38 100  61 100  64 101  85 101
M  END
> <Batch ID>
0131

> <Smiles>
CCC(=C[101CH2:1][101O:1]c1ccc2c(c1)CN(C(=O)C(NC(=O)C(C)NC)C(C)(C)C)C(C(=O)NC1CCCc3ccccc31)C2)COc1cc(CC)c(CC)c([100CH2:0][100C:0](=O)N2CCCC(n3nc(-c4ccc(Oc5ccc(F)cc5F)cc4)c(C(N)=O)c3N)C2)c1

> <Shape>
0.257

> <Color>
0.080

> <Negative vol penalty>
0.000

$$$$

  -OEChem-04052302253D

 83 91  0     1  0  0  0  0  0999 V2000
  -30.5675  -10.0344   19.2905 C   0  0  0  0  0  0  0  0  0  0  0  0
  -31.2441  -11.2500   19.2926 C   0  0  0  0  0  0  0  0  0  0  0  0
  -20.2940  -21.2097   23.2285 C   0  0  0  0  0  0  0  0  0  0  0  0
  -25.1069  -30.9778   21.2399 C   0  0  0  0  0  0  0  0  0  0  0  0
  -24.7027  -29.4063   23.0300 C   0  0  0  0  0  0  0  0  0  0  0  0
  -20.5028  -21.5896   21.9027 C   0  0  0  0  0  0  0  0  0  0  0  0
  -21.2600  -21.4903   24.1948 C   0  0  0  0  0  0  0  0  0  0  0  0
  -29.2450   -9.9749   18.8531 C   0  0  0  0  0  0  0  0  0  0  0  0
  -30.5989  -12.4066   18.8564 C   0  0  0  0  0  0  0  0  0  0  0  0
  -29.4838  -19.2042   22.5411 C   0  0  0  0  0  0  0  0  0  0  0  0
  -24.5032  -31.9872   21.9898 C   0  0  0  0  0  0  0  0  0  0  0  0
  -24.0991  -30.4157   23.7798 C   0  0  0  0  0  0  0  0  0  0  0  0
  -29.0872  -20.3959   23.1482 C   0  0  0  0  0  0  0  0  0  0  0  0
  -23.3916  -35.0618   23.5792 C   0  0  0  0  0  0  0  0  0  0  0  0
  -24.0297  -36.3010   23.6311 C   0  0  0  0  0  0  0  0  0  0  0  0
  -22.6437  -22.5306   22.5095 C   0  0  0  0  0  0  0  0  0  0  0  0
  -27.1701  -20.5185   21.6793 C   0  0  0  0  0  0  0  0  0  0  0  0
  -25.9749  -35.2581   24.6139 C   0  0  0  0  0  0  0  0  0  0  0  0
  -25.2066  -29.6873   21.7600 C   0  0  0  0  0  0  0  0  0  0  0  0
  -21.6776  -22.2501   21.5432 C   0  0  0  0  0  0  0  0  0  0  0  0
  -22.4348  -22.1508   23.8353 C   0  0  0  0  0  0  0  0  0  0  0  0
  -27.1913  -28.2872   20.9801 C   0  0  0  0  0  0  0  0  0  0  0  0
  -28.5801  -11.1330   18.4204 C   0  0  0  0  0  0  0  0  0  0  0  0
  -28.7158  -18.6564   21.5098 C   0  0  0  0  0  0  0  0  0  0  0  0
  -29.2666  -12.3623   18.4116 C   0  0  0  0  0  0  0  0  0  0  0  0
  -27.5556  -19.3186   21.0758 C   0  0  0  0  0  0  0  0  0  0  0  0
  -23.9993  -31.7062   23.2597 C   0  0  0  0  0  0  0  0  0  0  0  0
  -27.9333  -21.0516   22.7181 C   0  0  0  0  0  0  0  0  0  0  0  0
  -24.0451  -33.9207   24.0447 C   0  0  0  0  0  0  0  0  0  0  0  0
  -25.3214  -36.3991   24.1484 C   0  0  0  0  0  0  0  0  0  0  0  0
  -25.3367  -34.0189   24.5620 C   0  0  0  0  0  0  0  0  0  0  0  0
  -25.8295  -28.6440   20.9857 C   0  0  0  0  0  0  0  0  0  0  0  0
  -27.2702  -27.2474   20.0862 C   0  0  0  0  0  0  0  0  0  0  0  0
  -21.8941  -22.6459   20.1603 C   0  0  0  0  0  0  0  0  0  0  0  0
  -23.0915  -22.9308   19.6056 C   0  0  0  0  0  0  0  0  0  0  0  0
  -23.4688  -22.4506   24.8716 C   0  0  0  0  0  0  0  0  0  0  0  0
  -28.2870  -28.8457   21.7172 C   0  0  0  0  0  0  0  0  0  0  0  0
  -23.1489  -23.3106   18.1754 C   0  0  0  0  0  0  0  0  0  0  0  0
  -28.2714  -15.8641   19.0438 C   0  0  0  0  0  0  0  0  0  0  0  0
  -25.4873  -16.5313   20.1456 C   0  0  0  0  0  0  0  0  0  0  0  0
  -22.6687  -17.2863   21.9128 C   0  0  0  0  0  0  0  0  0  0  0  0
  -27.1654  -11.0109   17.9121 C   0  0  0  0  0  0  0  0  0  0  0  0
  -29.1384  -17.4070   20.7857 C   0  0  0  0  0  0  0  0  0  0  0  0
  -26.7794  -18.7105   19.9398 C   0  0  0  0  0  0  0  0  0  0  0  0
  -26.4341  -12.3476   17.8189 C   0  0  0  0  0  0  0  0  0  0  0  0
  -25.1700  -25.4923   16.1724 C   0  0  0  0  0  0  0  0  0  0  0  0
  -27.3195  -13.3952   17.1516 C   0  0  0  0  0  0  0  0  0  0  0  0
  -25.6605  -26.5375   17.1738 C   0  0  0  0  0  0  0  0  0  0  0  0
  -23.7599  -25.0170   16.5070 C   0  0  0  0  0  0  0  0  0  0  0  0
  -24.1057  -25.5356   18.9070 C   0  0  0  0  0  0  0  0  0  0  0  0
  -28.5929  -13.6431   17.9692 C   0  0  1  0  0  0  0  0  0  0  0  0
  -27.9501  -16.5318   20.3486 C   0  0  1  0  0  0  0  0  0  0  0  0
  -25.5374  -26.0193   18.6177 C   0  0  2  0  0  0  0  0  0  0  0  0
  -20.2413  -16.6791   22.1029 C   0  0  0  0  0  0  0  0  0  0  0  0
  -24.8931  -18.1300   17.6168 C   0  0  0  0  0  0  0  0  0  0  0  0
  -22.5109  -18.2984   18.3682 C   0  0  0  0  0  0  0  0  0  0  0  0
  -23.5121  -16.0635   17.8936 C   0  0  0  0  0  0  0  0  0  0  0  0
  -22.9941  -16.3842   24.7127 C   0  0  0  0  0  0  0  0  0  0  0  0
  -24.3699  -23.6715   24.7400 C   0  0  0  0  0  0  0  0  0  0  0  0
  -25.8446  -23.2986   24.6099 C   0  0  0  0  0  0  0  0  0  0  0  0
  -26.1505  -22.4921   23.3537 C   0  0  0  0  0  0  0  0  0  1  0  0
  -24.2139  -17.3199   19.9723 C   0  0  1  0  0  0  0  0  0  0  0  0
  -21.6488  -16.4029   22.6083 C   0  0  2  0  0  0  0  0  0  0  0  0
  -23.8036  -17.4622   18.4794 C   0  0  0  0  0  0  0  0  0  0  0  0
  -25.0961  -27.8921   20.1606 N   0  0  0  0  0  0  0  0  0  0  0  0
  -23.6061  -21.6708   25.8980 N   0  0  0  0  0  0  0  0  0  0  0  0
  -26.0004  -27.0524   19.6283 N   0  0  0  0  0  0  0  0  0  0  0  0
  -23.6693  -24.5661   17.8943 N   0  0  0  0  0  0  0  0  0  0  0  0
  -26.6869  -17.2529   20.1180 N   0  0  0  0  0  0  0  0  0  0  0  0
  -28.3012  -26.4900   19.6551 N   0  0  0  0  0  0  0  0  0  0  0  0
  -28.0302  -29.9098   22.5924 N   0  0  0  0  0  0  0  0  0  0  0  0
  -28.3046  -14.4843   19.1110 N   0  0  0  0  0  0  0  0  0  0  0  0
  -23.2121  -16.6663   20.8076 N   0  0  0  0  0  0  0  0  0  0  0  0
  -21.6750  -16.6406   24.0793 N   0  3  0  0  0  0  0  0  0  0  0  0
  -29.4619  -28.4246   21.5908 O   0  0  0  0  0  0  0  0  0  0  0  0
  -22.7281  -22.4716   17.3896 O   0  0  0  0  0  0  0  0  0  0  0  0
  -28.4730  -16.5493   18.0480 O   0  0  0  0  0  0  0  0  0  0  0  0
  -25.4234  -15.3080   20.2960 O   0  0  0  0  0  0  0  0  0  0  0  0
  -22.9521  -18.4150   22.3081 O   0  0  0  0  0  0  0  0  0  0  0  0
  -23.4105  -32.6910   23.9918 O   0  0  0  0  0  0  0  0  0  0  0  0
  -27.5493  -22.2122   23.3182 O   0  0  0  0  0  0  0  0  0  1  0  0
  -25.9347  -37.5890   24.1968 F   0  0  0  0  0  0  0  0  0  0  0  0
  -25.9700  -32.9260   25.0096 F   0  0  0  0  0  0  0  0  0  0  0  0
  1  2  1  0  0  0  0
  1  8  2  0  0  0  0
  2  9  2  0  0  0  0
  3  6  1  0  0  0  0
  3  7  2  0  0  0  0
  4 11  2  0  0  0  0
  4 19  1  0  0  0  0
  5 12  1  0  0  0  0
  5 19  2  0  0  0  0
  6 20  2  0  0  0  0
  7 21  1  0  0  0  0
  8 23  1  0  0  0  0
  9 25  1  0  0  0  0
 10 13  2  0  0  0  0
 10 24  1  0  0  0  0
 11 27  1  0  0  0  0
 12 27  2  0  0  0  0
 13 28  1  0  0  0  0
 14 15  2  0  0  0  0
 14 29  1  0  0  0  0
 15 30  1  0  0  0  0
 16 20  1  0  0  0  0
 16 21  2  0  0  0  0
 17 26  1  0  0  0  0
 17 28  2  0  0  0  0
 18 30  2  0  0  0  0
 18 31  1  0  0  0  0
 19 32  1  0  0  0  0
 20 34  1  0  0  0  0
 21 36  1  0  0  0  0
 22 32  1  0  0  0  0
 22 33  2  0  0  0  0
 22 37  1  0  0  0  0
 23 25  2  0  0  0  0
 23 42  1  0  0  0  0
 24 26  2  0  0  0  0
 24 43  1  0  0  0  0
 25 51  1  0  0  0  0
 26 44  1  0  0  0  0
 27 80  1  0  0  0  0
 28 81  1  0  0  0  0
 29 31  2  0  0  0  0
 29 80  1  0  0  0  0
 30 82  1  0  0  0  0
 31 83  1  0  0  0  0
 32 65  2  0  0  0  0
 33 67  1  0  0  0  0
 33 70  1  0  0  0  0
 34 35  2  0  0  0  0
 35 38  1  0  0  0  0
 36 59  1  0  0  0  0
 36 66  2  0  0  0  0
 37 71  1  0  0  0  0
 37 75  2  0  0  0  0
 38 68  1  0  0  0  0
 38 76  2  0  0  0  0
 39 52  1  0  0  0  0
 39 72  1  0  0  0  0
 39 77  2  0  0  0  0
 40 62  1  0  0  0  0
 40 69  1  0  0  0  0
 40 78  2  0  0  0  0
 41 63  1  0  0  0  0
 41 73  1  0  0  0  0
 41 79  2  0  0  0  0
 42 45  1  0  0  0  0
 43 52  1  0  0  0  0
 44 69  1  0  0  0  0
 45 47  1  0  0  0  0
 46 48  1  0  0  0  0
 46 49  1  0  0  0  0
 47 51  1  0  0  0  0
 48 53  1  0  0  0  0
 49 68  1  0  0  0  0
 50 53  1  0  0  0  0
 50 68  1  0  0  0  0
 51 72  1  0  0  0  0
 52 69  1  0  0  0  0
 53 67  1  0  0  0  0
 54 63  1  0  0  0  0
 55 64  1  0  0  0  0
 56 64  1  0  0  0  0
 57 64  1  0  0  0  0
 58 74  1  0  0  0  0
 59 60  1  0  0  0  0
 60 61  1  0  0  0  0
 61 81  1  0  0  0  0
 62 64  1  0  0  0  0
 62 73  1  0  0  0  0
 63 74  1  0  0  0  0
 65 67  1  0  0  0  0
M  CHG  1  74   1
M  ISO  4  35 100  38 100  61 101  81 101
M  END
> <Batch ID>
0131

> <Smiles>
CNC(C)C(=O)NC(C(=O)N1Cc2cc([101O:1][101CH2:1]CCC(=N)c3cccc(C=[100CH:0][100C:0](=O)N4CCCC(n5nc(-c6ccc(Oc7ccc(F)cc7F)cc6)c(C(N)=O)c5N)C4)c3)ccc2CC1C(=O)NC1CCCc2ccccc21)C(C)(C)C

> <Shape>
0.199

> <Color>
0.065

> <Negative vol penalty>
0.000

$$$$

  -OEChem-04052302253D

 85 93  0     1  0  0  0  0  0999 V2000
  -17.1262  -30.2167   18.0566 C   0  0  0  0  0  0  0  0  0  0  0  0
  -18.3358  -29.5777   17.8034 C   0  0  0  0  0  0  0  0  0  0  0  0
  -25.4986  -11.8138   21.1746 C   0  0  0  0  0  0  0  0  0  0  0  0
  -23.3596  -12.9209   21.3647 C   0  0  0  0  0  0  0  0  0  0  0  0
  -17.1180  -31.5062   18.5868 C   0  0  0  0  0  0  0  0  0  0  0  0
  -19.5379  -30.2282   18.0793 C   0  0  0  0  0  0  0  0  0  0  0  0
  -24.7362  -27.6713   20.0654 C   0  0  0  0  0  0  0  0  0  0  0  0
  -34.2054  -22.4352   20.2429 C   0  0  0  0  0  0  0  0  0  0  0  0
  -25.0990  -10.8780   22.1287 C   0  0  0  0  0  0  0  0  0  0  0  0
  -22.9600  -11.9851   22.3187 C   0  0  0  0  0  0  0  0  0  0  0  0
  -25.8988  -27.2755   19.4054 C   0  0  0  0  0  0  0  0  0  0  0  0
  -33.6200  -23.5583   19.6585 C   0  0  0  0  0  0  0  0  0  0  0  0
  -21.8205   -8.8039   22.3604 C   0  0  0  0  0  0  0  0  0  0  0  0
  -20.5418   -8.2604   22.2370 C   0  0  0  0  0  0  0  0  0  0  0  0
  -31.6524  -22.2589   19.1322 C   0  0  0  0  0  0  0  0  0  0  0  0
  -26.9307  -29.3807   19.9734 C   0  0  0  0  0  0  0  0  0  0  0  0
  -19.9617   -9.1311   24.4148 C   0  0  0  0  0  0  0  0  0  0  0  0
  -24.6289  -12.8353   20.7926 C   0  0  0  0  0  0  0  0  0  0  0  0
  -32.2378  -21.1357   19.7166 C   0  0  0  0  0  0  0  0  0  0  0  0
  -24.8739  -13.7192   18.4122 C   0  0  0  0  0  0  0  0  0  0  0  0
  -18.3206  -32.1691   18.8784 C   0  0  0  0  0  0  0  0  0  0  0  0
  -24.6582  -28.9312   20.6760 C   0  0  0  0  0  0  0  0  0  0  0  0
  -19.5458  -31.5283   18.6126 C   0  0  0  0  0  0  0  0  0  0  0  0
  -25.7669  -29.7890   20.6427 C   0  0  0  0  0  0  0  0  0  0  0  0
  -33.5144  -21.2239   20.2719 C   0  0  0  0  0  0  0  0  0  0  0  0
  -23.8297  -10.9637   22.7008 C   0  0  0  0  0  0  0  0  0  0  0  0
  -32.3435  -23.4702   19.1032 C   0  0  0  0  0  0  0  0  0  0  0  0
  -26.9952  -28.1314   19.3568 C   0  0  0  0  0  0  0  0  0  0  0  0
  -22.1698   -9.5109   23.5110 C   0  0  0  0  0  0  0  0  0  0  0  0
  -19.6124   -8.4240   23.2642 C   0  0  0  0  0  0  0  0  0  0  0  0
  -21.2404   -9.6745   24.5381 C   0  0  0  0  0  0  0  0  0  0  0  0
  -25.0413  -13.8026   19.8075 C   0  0  0  0  0  0  0  0  0  0  0  0
  -25.4303  -14.8786   17.9298 C   0  0  0  0  0  0  0  0  0  0  0  0
  -31.4905  -19.8851   19.7318 C   0  0  0  0  0  0  0  0  0  0  0  0
  -30.2815  -19.7049   20.3017 C   0  0  0  0  0  0  0  0  0  0  0  0
  -24.2696  -12.6861   17.6228 C   0  0  0  0  0  0  0  0  0  0  0  0
  -29.6457  -18.3744   20.2239 C   0  0  0  0  0  0  0  0  0  0  0  0
  -22.8481  -31.5124   20.2702 C   0  0  0  0  0  0  0  0  0  0  0  0
  -29.9187  -26.1180   18.6176 C   0  0  0  0  0  0  0  0  0  0  0  0
  -24.4081  -32.5450   22.9202 C   0  0  0  0  0  0  0  0  0  0  0  0
  -27.1684  -32.3502   24.9175 C   0  0  0  0  0  0  0  0  0  0  0  0
  -18.2618  -33.5806   19.4065 C   0  0  0  0  0  0  0  0  0  0  0  0
  -23.4064  -29.3325   21.4070 C   0  0  0  0  0  0  0  0  0  0  0  0
  -25.7412  -31.1440   21.2999 C   0  0  0  0  0  0  0  0  0  0  0  0
  -19.5758  -34.0564   20.0207 C   0  0  0  0  0  0  0  0  0  0  0  0
  -26.3023  -19.4103   19.1374 C   0  0  0  0  0  0  0  0  0  0  0  0
  -20.7481  -33.7086   19.1088 C   0  0  0  0  0  0  0  0  0  0  0  0
  -25.5746  -18.0689   19.1072 C   0  0  0  0  0  0  0  0  0  0  0  0
  -27.3413  -19.4721   20.2560 C   0  0  0  0  0  0  0  0  0  0  0  0
  -27.5952  -17.0080   20.1898 C   0  0  0  0  0  0  0  0  0  0  0  0
  -20.8704  -32.1916   18.9217 C   0  0  1  0  0  0  0  0  0  0  0  0
  -23.2575  -30.8438   21.5520 C   0  0  1  0  0  0  0  0  0  0  0  0
  -26.5781  -16.9067   19.0424 C   0  0  1  0  0  0  0  0  0  0  0  0
  -33.6201  -19.7504   22.2978 C   0  0  0  0  0  0  0  0  0  0  0  0
  -28.1741  -33.3446   26.9905 C   0  0  0  0  0  0  0  0  0  0  0  0
  -25.1465  -35.0573   21.3539 C   0  0  0  0  0  0  0  0  0  0  0  0
  -26.8882  -35.5410   23.0862 C   0  0  0  0  0  0  0  0  0  0  0  0
  -24.4790  -35.4671   23.7290 C   0  0  0  0  0  0  0  0  0  0  0  0
  -27.1969  -29.7331   26.2991 C   0  0  0  0  0  0  0  0  0  0  0  0
  -34.1727  -20.0410   20.9063 C   0  0  0  0  0  0  0  0  0  0  0  0
  -30.3597  -24.6694   18.5720 C   0  0  0  0  0  0  0  0  0  0  0  0
  -28.4236  -26.3514   18.6881 C   0  0  0  0  0  0  0  0  0  1  0  0
  -25.6820  -33.3123   23.1799 C   0  0  1  0  0  0  0  0  0  0  0  0
  -27.3154  -32.2249   26.4232 C   0  0  2  0  0  0  0  0  0  0  0  0
  -25.5490  -34.8197   22.8231 C   0  0  0  0  0  0  0  0  0  0  0  0
  -25.6559  -14.9261   20.1869 N   0  0  0  0  0  0  0  0  0  0  0  0
  -25.8798  -15.5593   19.0229 N   0  0  0  0  0  0  0  0  0  0  0  0
  -28.2531  -18.3193   20.2079 N   0  0  0  0  0  0  0  0  0  0  0  0
  -24.4923  -31.4933   21.9968 N   0  0  0  0  0  0  0  0  0  0  0  0
  -25.5739  -15.3721   16.6815 N   0  0  0  0  0  0  0  0  0  0  0  0
  -23.7474  -11.5631   18.2788 N   0  0  0  0  0  0  0  0  0  0  0  0
  -21.4806  -31.5863   20.0861 N   0  0  0  0  0  0  0  0  0  0  0  0
  -26.0358  -33.0567   24.5720 N   0  0  0  0  0  0  0  0  0  0  0  0
  -27.9487  -30.9226   26.7752 N   0  3  0  0  0  0  0  0  0  0  0  0
  -24.2095  -12.7493   16.3714 O   0  0  0  0  0  0  0  0  0  0  0  0
  -30.3875  -17.3912   20.1825 O   0  0  0  0  0  0  0  0  0  0  0  0
  -23.7091  -31.9315   19.5055 O   0  0  0  0  0  0  0  0  0  0  0  0
  -30.7248  -27.0470   18.5981 O   0  0  0  0  0  0  0  0  0  0  0  0
  -23.3780  -32.8624   23.5200 O   0  0  0  0  0  0  0  0  0  0  0  0
  -27.9793  -31.8726   24.1270 O   0  0  0  0  0  0  0  0  0  0  0  0
  -23.4394  -10.0506   23.6316 O   0  0  0  0  0  0  0  0  0  0  0  0
  -31.7679  -24.5771   18.5257 O   0  0  0  0  0  0  0  0  0  0  0  0
  -28.1309  -27.7478   18.7127 O   0  0  0  0  0  0  0  0  0  1  0  0
  -18.3840   -7.9033   23.1449 F   0  0  0  0  0  0  0  0  0  0  0  0
  -21.5697  -10.3538   25.6453 F   0  0  0  0  0  0  0  0  0  0  0  0
  1  2  1  0  0  0  0
  1  5  2  0  0  0  0
  2  6  2  0  0  0  0
  3  9  2  0  0  0  0
  3 18  1  0  0  0  0
  4 10  1  0  0  0  0
  4 18  2  0  0  0  0
  5 21  1  0  0  0  0
  6 23  1  0  0  0  0
  7 11  2  0  0  0  0
  7 22  1  0  0  0  0
  8 12  2  0  0  0  0
  8 25  1  0  0  0  0
  9 26  1  0  0  0  0
 10 26  2  0  0  0  0
 11 28  1  0  0  0  0
 12 27  1  0  0  0  0
 13 14  2  0  0  0  0
 13 29  1  0  0  0  0
 14 30  1  0  0  0  0
 15 19  1  0  0  0  0
 15 27  2  0  0  0  0
 16 24  1  0  0  0  0
 16 28  2  0  0  0  0
 17 30  2  0  0  0  0
 17 31  1  0  0  0  0
 18 32  1  0  0  0  0
 19 25  2  0  0  0  0
 19 34  1  0  0  0  0
 20 32  1  0  0  0  0
 20 33  2  0  0  0  0
 20 36  1  0  0  0  0
 21 23  2  0  0  0  0
 21 42  1  0  0  0  0
 22 24  2  0  0  0  0
 22 43  1  0  0  0  0
 23 51  1  0  0  0  0
 24 44  1  0  0  0  0
 25 60  1  0  0  0  0
 26 81  1  0  0  0  0
 27 82  1  0  0  0  0
 28 83  1  0  0  0  0
 29 31  2  0  0  0  0
 29 81  1  0  0  0  0
 30 84  1  0  0  0  0
 31 85  1  0  0  0  0
 32 66  2  0  0  0  0
 33 67  1  0  0  0  0
 33 70  1  0  0  0  0
 34 35  2  0  0  0  0
 35 37  1  0  0  0  0
 36 71  1  0  0  0  0
 36 75  2  0  0  0  0
 37 68  1  0  0  0  0
 37 76  2  0  0  0  0
 38 52  1  0  0  0  0
 38 72  1  0  0  0  0
 38 77  2  0  0  0  0
 39 61  1  0  0  0  0
 39 62  1  0  0  0  0
 39 78  2  0  0  0  0
 40 63  1  0  0  0  0
 40 69  1  0  0  0  0
 40 79  2  0  0  0  0
 41 64  1  0  0  0  0
 41 73  1  0  0  0  0
 41 80  2  0  0  0  0
 42 45  1  0  0  0  0
 43 52  1  0  0  0  0
 44 69  1  0  0  0  0
 45 47  1  0  0  0  0
 46 48  1  0  0  0  0
 46 49  1  0  0  0  0
 47 51  1  0  0  0  0
 48 53  1  0  0  0  0
 49 68  1  0  0  0  0
 50 53  1  0  0  0  0
 50 68  1  0  0  0  0
 51 72  1  0  0  0  0
 52 69  1  0  0  0  0
 53 67  1  0  0  0  0
 54 60  1  0  0  0  0
 55 64  1  0  0  0  0
 56 65  1  0  0  0  0
 57 65  1  0  0  0  0
 58 65  1  0  0  0  0
 59 74  1  0  0  0  0
 61 82  1  0  0  0  0
 62 83  1  0  0  0  0
 63 65  1  0  0  0  0
 63 73  1  0  0  0  0
 64 74  1  0  0  0  0
 66 67  1  0  0  0  0
M  CHG  1  74   1
M  ISO  4  35 100  37 100  62 101  83 101
M  END
> <Batch ID>
0131

> <Smiles>
CCc1ccc(OCC(=O)[101CH2:1][101O:1]c2ccc3c(c2)CN(C(=O)C(NC(=O)C(C)NC)C(C)(C)C)C(C(=O)NC2CCCc4ccccc42)C3)cc1C=[100CH:0][100C:0](=O)N1CCCC(n2nc(-c3ccc(Oc4ccc(F)cc4F)cc3)c(C(N)=O)c2N)C1

> <Shape>
0.237

> <Color>
0.090

> <Negative vol penalty>
0.000

$$$$

  -OEChem-04052302253D

 84 92  0     1  0  0  0  0  0999 V2000
  -28.6908  -35.4109   26.9353 C   0  0  0  0  0  0  0  0  0  0  0  0
  -29.2307  -34.7962   25.8101 C   0  0  0  0  0  0  0  0  0  0  0  0
  -29.8610  -18.8010   22.7954 C   0  0  0  0  0  0  0  0  0  0  0  0
  -22.9655   -6.9828   19.5404 C   0  0  0  0  0  0  0  0  0  0  0  0
  -22.9094   -6.3852   21.8807 C   0  0  0  0  0  0  0  0  0  0  0  0
  -28.9071  -17.8238   22.5118 C   0  0  0  0  0  0  0  0  0  0  0  0
  -27.7146  -34.7561   27.6850 C   0  0  0  0  0  0  0  0  0  0  0  0
  -28.7956  -33.5257   25.4347 C   0  0  0  0  0  0  0  0  0  0  0  0
  -27.6749  -29.5016   19.6152 C   0  0  0  0  0  0  0  0  0  0  0  0
  -29.9641  -19.9312   21.9844 C   0  0  0  0  0  0  0  0  0  0  0  0
  -22.9153   -5.6325   19.1944 C   0  0  0  0  0  0  0  0  0  0  0  0
  -22.8592   -5.0349   21.5347 C   0  0  0  0  0  0  0  0  0  0  0  0
  -27.9998  -28.2510   19.0916 C   0  0  0  0  0  0  0  0  0  0  0  0
  -20.5401   -2.8265   20.4551 C   0  0  0  0  0  0  0  0  0  0  0  0
  -19.6228   -2.0202   21.1288 C   0  0  0  0  0  0  0  0  0  0  0  0
  -26.2514  -27.2485   20.4172 C   0  0  0  0  0  0  0  0  0  0  0  0
  -21.4318   -0.6385   21.9383 C   0  0  0  0  0  0  0  0  0  0  0  0
  -22.9626   -7.3592   20.8836 C   0  0  0  0  0  0  0  0  0  0  0  0
  -28.0562  -17.9766   21.4172 C   0  0  0  0  0  0  0  0  0  0  0  0
  -21.9249   -9.6228   21.4376 C   0  0  0  0  0  0  0  0  0  0  0  0
  -27.2602  -33.4810   27.3131 C   0  0  0  0  0  0  0  0  0  0  0  0
  -26.6412  -29.6337   20.5535 C   0  0  0  0  0  0  0  0  0  0  0  0
  -27.8133  -32.8527   26.1810 C   0  0  0  0  0  0  0  0  0  0  0  0
  -25.9136  -28.5023   20.9492 C   0  0  0  0  0  0  0  0  0  0  0  0
  -29.1132  -20.0841   20.8897 C   0  0  0  0  0  0  0  0  0  0  0  0
  -28.1592  -19.1068   20.6061 C   0  0  0  0  0  0  0  0  0  0  0  0
  -22.8621   -4.6585   20.1915 C   0  0  0  0  0  0  0  0  0  0  0  0
  -27.2899  -27.1238   19.4948 C   0  0  0  0  0  0  0  0  0  0  0  0
  -21.9033   -2.5388   20.5230 C   0  0  0  0  0  0  0  0  0  0  0  0
  -20.0686   -0.9261   21.8704 C   0  0  0  0  0  0  0  0  0  0  0  0
  -22.3492   -1.4448   21.2646 C   0  0  0  0  0  0  0  0  0  0  0  0
  -23.0150   -8.7539   21.2417 C   0  0  0  0  0  0  0  0  0  0  0  0
  -22.4999  -10.8278   21.7599 C   0  0  0  0  0  0  0  0  0  0  0  0
  -27.0713  -16.9363   21.1500 C   0  0  0  0  0  0  0  0  0  0  0  0
  -27.3516  -15.6389   20.9117 C   0  0  0  0  0  0  0  0  0  0  0  0
  -20.5183   -9.3638   21.3373 C   0  0  0  0  0  0  0  0  0  0  0  0
  -26.2379  -14.7005   20.6670 C   0  0  0  0  0  0  0  0  0  0  0  0
  -26.4644  -30.6087   23.5738 C   0  0  0  0  0  0  0  0  0  0  0  0
  -28.3484  -23.6542   19.5019 C   0  0  0  0  0  0  0  0  0  0  0  0
  -23.2759  -30.2572   23.0919 C   0  0  0  0  0  0  0  0  0  0  0  0
  -20.7582  -28.7643   21.3372 C   0  0  0  0  0  0  0  0  0  0  0  0
  -26.2373  -32.7929   28.1819 C   0  0  0  0  0  0  0  0  0  0  0  0
  -26.2855  -30.9937   21.0887 C   0  0  0  0  0  0  0  0  0  0  0  0
  -24.7817  -28.5935   21.9386 C   0  0  0  0  0  0  0  0  0  0  0  0
  -25.5611  -31.6051   27.5022 C   0  0  0  0  0  0  0  0  0  0  0  0
  -27.2589  -12.0101   22.9366 C   0  0  0  0  0  0  0  0  0  0  0  0
  -26.5986  -30.7174   26.8222 C   0  0  0  0  0  0  0  0  0  0  0  0
  -26.1709  -10.9731   22.6709 C   0  0  0  0  0  0  0  0  0  0  0  0
  -27.6127  -12.8027   21.6791 C   0  0  0  0  0  0  0  0  0  0  0  0
  -25.3456  -12.4054   20.7610 C   0  0  0  0  0  0  0  0  0  0  0  0
  -27.3493  -31.4855   25.7276 C   0  0  1  0  0  0  0  0  0  0  0  0
  -25.5526  -30.9368   22.4255 C   0  0  1  0  0  0  0  0  0  0  0  0
  -24.9407  -11.6285   22.0235 C   0  0  1  0  0  0  0  0  0  0  0  0
  -27.2514  -19.2817   19.4280 C   0  0  0  0  0  0  0  0  0  0  0  0
  -18.2554  -28.6466   21.1972 C   0  0  0  0  0  0  0  0  0  0  0  0
  -23.2227  -28.4857   25.5757 C   0  0  0  0  0  0  0  0  0  0  0  0
  -20.9756  -27.6543   24.8492 C   0  0  0  0  0  0  0  0  0  0  0  0
  -21.2971  -30.0698   25.3827 C   0  0  0  0  0  0  0  0  0  0  0  0
  -20.7489  -29.7974   18.5639 C   0  0  0  0  0  0  0  0  0  0  0  0
  -29.2469  -21.3171   20.0285 C   0  0  0  0  0  0  0  0  0  0  0  0
  -28.1900  -22.3832   20.3237 C   0  0  0  0  0  0  0  0  0  0  0  0
  -27.3733  -24.7698   19.8231 C   0  0  0  0  0  0  0  0  0  1  0  0
  -22.2880  -29.1276   23.2561 C   0  0  1  0  0  0  0  0  0  0  0  0
  -19.5116  -29.3325   20.6833 C   0  0  2  0  0  0  0  0  0  0  0  0
  -21.9684  -28.8320   24.7487 C   0  0  0  0  0  0  0  0  0  0  0  0
  -24.1934   -9.3557   21.4241 N   0  0  0  0  0  0  0  0  0  0  0  0
  -23.8470  -10.6157   21.7380 N   0  0  0  0  0  0  0  0  0  0  0  0
  -26.4132  -13.3707   21.0456 N   0  0  0  0  0  0  0  0  0  0  0  0
  -24.4760  -29.9443   22.4380 N   0  0  0  0  0  0  0  0  0  0  0  0
  -21.9795  -12.0374   22.0571 N   0  0  0  0  0  0  0  0  0  0  0  0
  -20.0997   -8.0705   20.9963 N   0  0  0  0  0  0  0  0  0  0  0  0
  -26.5331  -31.5964   24.5376 N   0  0  0  0  0  0  0  0  0  0  0  0
  -21.1224  -29.4850   22.4549 N   0  0  0  0  0  0  0  0  0  0  0  0
  -19.5742  -29.1526   19.2052 N   0  3  0  0  0  0  0  0  0  0  0  0
  -19.6585  -10.2571   21.5279 O   0  0  0  0  0  0  0  0  0  0  0  0
  -25.2207  -15.1511   20.1369 O   0  0  0  0  0  0  0  0  0  0  0  0
  -27.0603  -29.5379   23.5852 O   0  0  0  0  0  0  0  0  0  0  0  0
  -29.2298  -23.7904   18.6550 O   0  0  0  0  0  0  0  0  0  0  0  0
  -22.9902  -31.3776   23.5216 O   0  0  0  0  0  0  0  0  0  0  0  0
  -21.3476  -27.7773   20.9024 O   0  0  0  0  0  0  0  0  0  0  0  0
  -22.8129   -3.3408   19.8543 O   0  0  0  0  0  0  0  0  0  0  0  0
  -27.6054  -25.9018   18.9858 O   0  0  0  0  0  0  0  0  0  1  0  0
  -19.1877   -0.1528   22.5185 F   0  0  0  0  0  0  0  0  0  0  0  0
  -23.6577   -1.1642   21.3345 F   0  0  0  0  0  0  0  0  0  0  0  0
  1  2  1  0  0  0  0
  1  7  2  0  0  0  0
  2  8  2  0  0  0  0
  3  6  1  0  0  0  0
  3 10  2  0  0  0  0
  4 11  2  0  0  0  0
  4 18  1  0  0  0  0
  5 12  1  0  0  0  0
  5 18  2  0  0  0  0
  6 19  2  0  0  0  0
  7 21  1  0  0  0  0
  8 23  1  0  0  0  0
  9 13  2  0  0  0  0
  9 22  1  0  0  0  0
 10 25  1  0  0  0  0
 11 27  1  0  0  0  0
 12 27  2  0  0  0  0
 13 28  1  0  0  0  0
 14 15  2  0  0  0  0
 14 29  1  0  0  0  0
 15 30  1  0  0  0  0
 16 24  1  0  0  0  0
 16 28  2  0  0  0  0
 17 30  2  0  0  0  0
 17 31  1  0  0  0  0
 18 32  1  0  0  0  0
 19 26  1  0  0  0  0
 19 34  1  0  0  0  0
 20 32  1  0  0  0  0
 20 33  2  0  0  0  0
 20 36  1  0  0  0  0
 21 23  2  0  0  0  0
 21 42  1  0  0  0  0
 22 24  2  0  0  0  0
 22 43  1  0  0  0  0
 23 51  1  0  0  0  0
 24 44  1  0  0  0  0
 25 26  2  0  0  0  0
 25 60  1  0  0  0  0
 26 54  1  0  0  0  0
 27 81  1  0  0  0  0
 28 82  1  0  0  0  0
 29 31  2  0  0  0  0
 29 81  1  0  0  0  0
 30 83  1  0  0  0  0
 31 84  1  0  0  0  0
 32 66  2  0  0  0  0
 33 67  1  0  0  0  0
 33 70  1  0  0  0  0
 34 35  2  0  0  0  0
 35 37  1  0  0  0  0
 36 71  1  0  0  0  0
 36 75  2  0  0  0  0
 37 68  1  0  0  0  0
 37 76  2  0  0  0  0
 38 52  1  0  0  0  0
 38 72  1  0  0  0  0
 38 77  2  0  0  0  0
 39 61  1  0  0  0  0
 39 62  1  0  0  0  0
 39 78  2  0  0  0  0
 40 63  1  0  0  0  0
 40 69  1  0  0  0  0
 40 79  2  0  0  0  0
 41 64  1  0  0  0  0
 41 73  1  0  0  0  0
 41 80  2  0  0  0  0
 42 45  1  0  0  0  0
 43 52  1  0  0  0  0
 44 69  1  0  0  0  0
 45 47  1  0  0  0  0
 46 48  1  0  0  0  0
 46 49  1  0  0  0  0
 47 51  1  0  0  0  0
 48 53  1  0  0  0  0
 49 68  1  0  0  0  0
 50 53  1  0  0  0  0
 50 68  1  0  0  0  0
 51 72  1  0  0  0  0
 52 69  1  0  0  0  0
 53 67  1  0  0  0  0
 55 64  1  0  0  0  0
 56 65  1  0  0  0  0
 57 65  1  0  0  0  0
 58 65  1  0  0  0  0
 59 74  1  0  0  0  0
 60 61  1  0  0  0  0
 62 82  1  0  0  0  0
 63 65  1  0  0  0  0
 63 73  1  0  0  0  0
 64 74  1  0  0  0  0
 66 67  1  0  0  0  0
M  CHG  1  74   1
M  ISO  4  35 100  37 100  62 101  82 101
M  END
> <Batch ID>
0131

> <Smiles>
CNC(C)C(=O)NC(C(=O)N1Cc2cc([101O:1][101CH2:1]C(=O)CCc3cccc(C=[100CH:0][100C:0](=O)N4CCCC(n5nc(-c6ccc(Oc7ccc(F)cc7F)cc6)c(C(N)=O)c5N)C4)c3C)ccc2CC1C(=O)NC1CCCc2ccccc21)C(C)(C)C

> <Shape>
0.275

> <Color>
0.096

> <Negative vol penalty>
0.000

$$$$

  -OEChem-04052302253D

 85 93  0     1  0  0  0  0  0999 V2000
  -23.0799  -24.0529   20.0980 C   0  0  0  0  0  0  0  0  0  0  0  0
  -24.2337  -23.2989   20.2862 C   0  0  0  0  0  0  0  0  0  0  0  0
  -24.4326  -28.9791   22.0695 C   0  0  0  0  0  0  0  0  0  0  0  0
  -25.4985  -30.8437   20.9632 C   0  0  0  0  0  0  0  0  0  0  0  0
  -21.8506  -23.5666   20.5411 C   0  0  0  0  0  0  0  0  0  0  0  0
  -24.1592  -22.0585   20.9188 C   0  0  0  0  0  0  0  0  0  0  0  0
  -26.8626  -18.4985   18.5391 C   0  0  0  0  0  0  0  0  0  0  0  0
  -23.7730  -29.8628   22.9236 C   0  0  0  0  0  0  0  0  0  0  0  0
  -24.8388  -31.7275   21.8172 C   0  0  0  0  0  0  0  0  0  0  0  0
  -28.2426  -18.5084   18.7370 C   0  0  0  0  0  0  0  0  0  0  0  0
  -23.7139  -34.4557   23.9390 C   0  0  0  0  0  0  0  0  0  0  0  0
  -24.4581  -35.4948   24.4974 C   0  0  0  0  0  0  0  0  0  0  0  0
  -33.9953  -21.2014   19.3589 C   0  0  0  0  0  0  0  0  0  0  0  0
  -32.9495  -19.6383   17.8425 C   0  0  0  0  0  0  0  0  0  0  0  0
  -28.0174  -16.7324   20.3539 C   0  0  0  0  0  0  0  0  0  0  0  0
  -35.2475  -19.3155   18.5149 C   0  0  0  0  0  0  0  0  0  0  0  0
  -25.9183  -33.8834   25.5501 C   0  0  0  0  0  0  0  0  0  0  0  0
  -25.2954  -29.4695   21.0894 C   0  0  0  0  0  0  0  0  0  0  0  0
  -32.8807  -20.7880   18.6293 C   0  0  0  0  0  0  0  0  0  0  0  0
  -25.5243  -28.0784   18.9633 C   0  0  0  0  0  0  0  0  0  0  0  0
  -21.7596  -22.3152   21.1708 C   0  0  0  0  0  0  0  0  0  0  0  0
  -26.0470  -17.6114   19.2563 C   0  0  0  0  0  0  0  0  0  0  0  0
  -22.9278  -21.5555   21.3720 C   0  0  0  0  0  0  0  0  0  0  0  0
  -26.6276  -16.7115   20.1614 C   0  0  0  0  0  0  0  0  0  0  0  0
  -35.1787  -20.4652   19.3017 C   0  0  0  0  0  0  0  0  0  0  0  0
  -34.1329  -18.9020   17.7852 C   0  0  0  0  0  0  0  0  0  0  0  0
  -23.9760  -31.2371   22.7974 C   0  0  0  0  0  0  0  0  0  0  0  0
  -28.8199  -17.6273   19.6467 C   0  0  0  0  0  0  0  0  0  0  0  0
  -24.0717  -33.1303   24.1862 C   0  0  0  0  0  0  0  0  0  0  0  0
  -25.5603  -35.2087   25.3029 C   0  0  0  0  0  0  0  0  0  0  0  0
  -25.1740  -32.8442   24.9918 C   0  0  0  0  0  0  0  0  0  0  0  0
  -25.9776  -28.5571   20.2072 C   0  0  0  0  0  0  0  0  0  0  0  0
  -26.5281  -27.2478   18.5286 C   0  0  0  0  0  0  0  0  0  0  0  0
  -31.6470  -21.5562   18.6891 C   0  0  0  0  0  0  0  0  0  0  0  0
  -31.3158  -22.4314   19.6622 C   0  0  0  0  0  0  0  0  0  0  0  0
  -24.3050  -28.3595   18.2634 C   0  0  0  0  0  0  0  0  0  0  0  0
  -30.0256  -23.1447   19.5759 C   0  0  0  0  0  0  0  0  0  0  0  0
  -23.6739  -17.9367   21.3459 C   0  0  0  0  0  0  0  0  0  0  0  0
  -32.3765  -16.4902   18.2429 C   0  0  0  0  0  0  0  0  0  0  0  0
  -23.4904  -14.7118   21.0489 C   0  0  0  0  0  0  0  0  0  0  0  0
  -25.0509  -11.7817   20.2575 C   0  0  0  0  0  0  0  0  0  0  0  0
  -20.4156  -21.8524   21.6751 C   0  0  0  0  0  0  0  0  0  0  0  0
  -24.5630  -17.5949   19.0116 C   0  0  0  0  0  0  0  0  0  0  0  0
  -25.7983  -15.7254   20.9414 C   0  0  0  0  0  0  0  0  0  0  0  0
  -20.3676  -20.3618   22.0007 C   0  0  0  0  0  0  0  0  0  0  0  0
  -31.2154  -26.5448   20.2505 C   0  0  0  0  0  0  0  0  0  0  0  0
  -21.5894  -19.9542   22.8179 C   0  0  0  0  0  0  0  0  0  0  0  0
  -29.9021  -27.3225   20.2426 C   0  0  0  0  0  0  0  0  0  0  0  0
  -31.0413  -25.1342   20.8113 C   0  0  0  0  0  0  0  0  0  0  0  0
  -28.6626  -25.1252   20.1169 C   0  0  0  0  0  0  0  0  0  0  0  0
  -22.8840  -20.1943   22.0317 C   0  0  1  0  0  0  0  0  0  0  0  0
  -23.7724  -17.0018   20.1738 C   0  0  1  0  0  0  0  0  0  0  0  0
  -28.8052  -26.5310   19.5129 C   0  0  1  0  0  0  0  0  0  0  0  0
  -36.3707  -20.9072   20.0815 C   0  0  0  0  0  0  0  0  0  0  0  0
  -24.6550   -9.3061   20.1477 C   0  0  0  0  0  0  0  0  0  0  0  0
  -23.7063  -14.5450   24.0879 C   0  0  0  0  0  0  0  0  0  0  0  0
  -24.2586  -12.1151   23.8456 C   0  0  0  0  0  0  0  0  0  0  0  0
  -22.0476  -12.9730   23.0720 C   0  0  0  0  0  0  0  0  0  0  0  0
  -25.5827  -11.7085   17.3470 C   0  0  0  0  0  0  0  0  0  0  0  0
  -34.2072  -17.6601   16.9352 C   0  0  0  0  0  0  0  0  0  0  0  0
  -33.8027  -16.4132   17.7195 C   0  0  0  0  0  0  0  0  0  0  0  0
  -32.2265  -16.3634   19.7530 C   0  0  0  0  0  0  0  0  0  0  0  0
  -30.7764  -16.3997   20.2133 C   0  0  0  0  0  0  0  0  0  1  0  0
  -24.1273  -13.5357   21.7491 C   0  0  1  0  0  0  0  0  0  0  0  0
  -24.6248  -10.6185   19.3800 C   0  0  2  0  0  0  0  0  0  0  0  0
  -23.5506  -13.3120   23.1755 C   0  0  0  0  0  0  0  0  0  0  0  0
  -27.1759  -28.0709   20.5412 N   0  0  0  0  0  0  0  0  0  0  0  0
  -27.4841  -27.2780   19.5008 N   0  0  0  0  0  0  0  0  0  0  0  0
  -29.9480  -24.4181   20.1370 N   0  0  0  0  0  0  0  0  0  0  0  0
  -24.3512  -15.7523   20.6718 N   0  0  0  0  0  0  0  0  0  0  0  0
  -26.6773  -26.5017   17.4134 N   0  0  0  0  0  0  0  0  0  0  0  0
  -23.3829  -29.2352   18.8527 N   0  0  0  0  0  0  0  0  0  0  0  0
  -23.0804  -19.1491   21.0502 N   0  0  0  0  0  0  0  0  0  0  0  0
  -23.9694  -12.3939   20.8548 N   0  0  0  0  0  0  0  0  0  0  0  0
  -25.5329  -10.4965   18.2047 N   0  3  0  0  0  0  0  0  0  0  0  0
  -24.0336  -27.8364   17.1560 O   0  0  0  0  0  0  0  0  0  0  0  0
  -29.0926  -22.5665   19.0156 O   0  0  0  0  0  0  0  0  0  0  0  0
  -24.1032  -17.5838   22.4380 O   0  0  0  0  0  0  0  0  0  0  0  0
  -31.4115  -16.6441   17.4961 O   0  0  0  0  0  0  0  0  0  0  0  0
  -22.2751  -14.7042   20.8378 O   0  0  0  0  0  0  0  0  0  0  0  0
  -26.2260  -12.1118   20.4017 O   0  0  0  0  0  0  0  0  0  0  0  0
  -23.3323  -32.0997   23.6305 O   0  0  0  0  0  0  0  0  0  0  0  0
  -30.1666  -17.6354   19.8423 O   0  0  0  0  0  0  0  0  0  1  0  0
  -26.2759  -36.2067   25.8378 F   0  0  0  0  0  0  0  0  0  0  0  0
  -25.5233  -31.5729   25.2319 F   0  0  0  0  0  0  0  0  0  0  0  0
  1  2  1  0  0  0  0
  1  5  2  0  0  0  0
  2  6  2  0  0  0  0
  3  8  2  0  0  0  0
  3 18  1  0  0  0  0
  4  9  1  0  0  0  0
  4 18  2  0  0  0  0
  5 21  1  0  0  0  0
  6 23  1  0  0  0  0
  7 10  2  0  0  0  0
  7 22  1  0  0  0  0
  8 27  1  0  0  0  0
  9 27  2  0  0  0  0
 10 28  1  0  0  0  0
 11 12  2  0  0  0  0
 11 29  1  0  0  0  0
 12 30  1  0  0  0  0
 13 19  2  0  0  0  0
 13 25  1  0  0  0  0
 14 19  1  0  0  0  0
 14 26  2  0  0  0  0
 15 24  1  0  0  0  0
 15 28  2  0  0  0  0
 16 25  2  0  0  0  0
 16 26  1  0  0  0  0
 17 30  2  0  0  0  0
 17 31  1  0  0  0  0
 18 32  1  0  0  0  0
 19 34  1  0  0  0  0
 20 32  1  0  0  0  0
 20 33  2  0  0  0  0
 20 36  1  0  0  0  0
 21 23  2  0  0  0  0
 21 42  1  0  0  0  0
 22 24  2  0  0  0  0
 22 43  1  0  0  0  0
 23 51  1  0  0  0  0
 24 44  1  0  0  0  0
 25 54  1  0  0  0  0
 26 60  1  0  0  0  0
 27 82  1  0  0  0  0
 28 83  1  0  0  0  0
 29 31  2  0  0  0  0
 29 82  1  0  0  0  0
 30 84  1  0  0  0  0
 31 85  1  0  0  0  0
 32 67  2  0  0  0  0
 33 68  1  0  0  0  0
 33 71  1  0  0  0  0
 34 35  2  0  0  0  0
 35 37  1  0  0  0  0
 36 72  1  0  0  0  0
 36 76  2  0  0  0  0
 37 69  1  0  0  0  0
 37 77  2  0  0  0  0
 38 52  1  0  0  0  0
 38 73  1  0  0  0  0
 38 78  2  0  0  0  0
 39 61  1  0  0  0  0
 39 62  1  0  0  0  0
 39 79  2  0  0  0  0
 40 64  1  0  0  0  0
 40 70  1  0  0  0  0
 40 80  2  0  0  0  0
 41 65  1  0  0  0  0
 41 74  1  0  0  0  0
 41 81  2  0  0  0  0
 42 45  1  0  0  0  0
 43 52  1  0  0  0  0
 44 70  1  0  0  0  0
 45 47  1  0  0  0  0
 46 48  1  0  0  0  0
 46 49  1  0  0  0  0
 47 51  1  0  0  0  0
 48 53  1  0  0  0  0
 49 69  1  0  0  0  0
 50 53  1  0  0  0  0
 50 69  1  0  0  0  0
 51 73  1  0  0  0  0
 52 70  1  0  0  0  0
 53 68  1  0  0  0  0
 55 65  1  0  0  0  0
 56 66  1  0  0  0  0
 57 66  1  0  0  0  0
 58 66  1  0  0  0  0
 59 75  1  0  0  0  0
 60 61  1  0  0  0  0
 62 63  1  0  0  0  0
 63 83  1  0  0  0  0
 64 66  1  0  0  0  0
 64 74  1  0  0  0  0
 65 75  1  0  0  0  0
 67 68  1  0  0  0  0
M  CHG  1  75   1
M  ISO  4  35 100  37 100  63 101  83 101
M  END
> <Batch ID>
0131

> <Smiles>
CNC(C)C(=O)NC(C(=O)N1Cc2cc([101O:1][101CH2:1]CC(=O)CCc3cc(C)cc(C=[100CH:0][100C:0](=O)N4CCCC(n5nc(-c6ccc(Oc7ccc(F)cc7F)cc6)c(C(N)=O)c5N)C4)c3)ccc2CC1C(=O)NC1CCCc2ccccc21)C(C)(C)C

> <Shape>
0.224

> <Color>
0.108

> <Negative vol penalty>
0.000

$$$$

  -OEChem-04052302253D

 83 91  0     1  0  0  0  0  0999 V2000
  -28.7445  -21.7419   36.9697 C   0  0  0  0  0  0  0  0  0  0  0  0
  -28.6522  -21.5070   35.6015 C   0  0  0  0  0  0  0  0  0  0  0  0
  -23.0754   -9.8687   19.9399 C   0  0  0  0  0  0  0  0  0  0  0  0
  -23.8352   -9.8744   22.2333 C   0  0  0  0  0  0  0  0  0  0  0  0
  -28.3695  -20.7485   37.8732 C   0  0  0  0  0  0  0  0  0  0  0  0
  -28.1857  -20.2780   35.1362 C   0  0  0  0  0  0  0  0  0  0  0  0
  -24.8448  -20.7707   31.3626 C   0  0  0  0  0  0  0  0  0  0  0  0
  -32.6527  -17.4897   23.4566 C   0  0  0  0  0  0  0  0  0  0  0  0
  -32.0649  -16.6058   22.5519 C   0  0  0  0  0  0  0  0  0  0  0  0
  -22.3311   -8.7157   20.1893 C   0  0  0  0  0  0  0  0  0  0  0  0
  -23.0909   -8.7214   22.4828 C   0  0  0  0  0  0  0  0  0  0  0  0
  -25.3530  -21.0498   30.0946 C   0  0  0  0  0  0  0  0  0  0  0  0
  -19.8624   -7.9245   23.0848 C   0  0  0  0  0  0  0  0  0  0  0  0
  -19.1054   -7.8844   24.2556 C   0  0  0  0  0  0  0  0  0  0  0  0
  -29.8811  -17.4551   23.1409 C   0  0  0  0  0  0  0  0  0  0  0  0
  -25.1253  -18.7235   29.4980 C   0  0  0  0  0  0  0  0  0  0  0  0
  -20.3461   -5.9461   24.9913 C   0  0  0  0  0  0  0  0  0  0  0  0
  -23.8275  -10.4480   20.9619 C   0  0  0  0  0  0  0  0  0  0  0  0
  -30.4690  -18.3391   24.0457 C   0  0  0  0  0  0  0  0  0  0  0  0
  -24.1703  -12.9731   20.8430 C   0  0  0  0  0  0  0  0  0  0  0  0
  -27.8890  -19.5102   37.4188 C   0  0  0  0  0  0  0  0  0  0  0  0
  -24.4826  -19.4619   31.7120 C   0  0  0  0  0  0  0  0  0  0  0  0
  -27.8051  -19.2667   36.0346 C   0  0  0  0  0  0  0  0  0  0  0  0
  -24.6104  -18.4310   30.7702 C   0  0  0  0  0  0  0  0  0  0  0  0
  -31.8548  -18.3564   24.2036 C   0  0  0  0  0  0  0  0  0  0  0  0
  -30.6791  -16.5885   22.3940 C   0  0  0  0  0  0  0  0  0  0  0  0
  -22.3388   -8.1421   21.4608 C   0  0  0  0  0  0  0  0  0  0  0  0
  -25.4960  -20.0256   29.1631 C   0  0  0  0  0  0  0  0  0  0  0  0
  -20.8612   -6.9755   22.8671 C   0  0  0  0  0  0  0  0  0  0  0  0
  -19.3472   -6.8952   25.2089 C   0  0  0  0  0  0  0  0  0  0  0  0
  -21.1031   -5.9863   23.8204 C   0  0  0  0  0  0  0  0  0  0  0  0
  -24.5971  -11.6388   20.7047 C   0  0  0  0  0  0  0  0  0  0  0  0
  -25.2627  -13.7224   20.4801 C   0  0  0  0  0  0  0  0  0  0  0  0
  -29.5986  -19.2413   24.8202 C   0  0  0  0  0  0  0  0  0  0  0  0
  -28.6213  -18.8354   25.6428 C   0  0  0  0  0  0  0  0  0  0  0  0
  -22.9000  -13.4892   21.2621 C   0  0  0  0  0  0  0  0  0  0  0  0
  -27.7879  -19.8323   26.3757 C   0  0  0  0  0  0  0  0  0  0  0  0
  -25.4605  -17.3717   33.8980 C   0  0  0  0  0  0  0  0  0  0  0  0
  -22.9619  -15.6284   32.7843 C   0  0  0  0  0  0  0  0  0  0  0  0
  -20.8087  -14.9604   30.2223 C   0  0  0  0  0  0  0  0  0  0  0  0
  -30.7293  -14.7659   20.6556 C   0  0  0  0  0  0  0  0  0  0  0  0
  -27.5403  -18.4502   38.4333 C   0  0  0  0  0  0  0  0  0  0  0  0
  -23.9110  -19.1820   33.0748 C   0  0  0  0  0  0  0  0  0  0  0  0
  -24.2171  -17.0124   31.0889 C   0  0  0  0  0  0  0  0  0  0  0  0
  -26.7024  -17.3103   37.8598 C   0  0  0  0  0  0  0  0  0  0  0  0
  -29.6141  -12.3535   18.2862 C   0  0  0  0  0  0  0  0  0  0  0  0
  -27.2876  -16.8320   36.5348 C   0  0  0  0  0  0  0  0  0  0  0  0
  -28.1744  -12.0623   18.7155 C   0  0  0  0  0  0  0  0  0  0  0  0
  -30.5293  -12.5815   19.4880 C   0  0  0  0  0  0  0  0  0  0  0  0
  -28.6225  -13.3060   20.8694 C   0  0  0  0  0  0  0  0  0  0  0  0
  -27.2805  -17.9554   35.4910 C   0  0  1  0  0  0  0  0  0  0  0  0
  -24.0561  -17.7228   33.4955 C   0  0  1  0  0  0  0  0  0  0  0  0
  -27.6497  -13.1336   19.6915 C   0  0  2  0  0  0  0  0  0  0  0  0
  -32.5189  -19.2900   25.1640 C   0  0  0  0  0  0  0  0  0  0  0  0
  -18.9008  -13.4562   29.5939 C   0  0  0  0  0  0  0  0  0  0  0  0
  -24.9201  -13.3282   32.3548 C   0  0  0  0  0  0  0  0  0  0  0  0
  -23.2103  -12.2390   30.8856 C   0  0  0  0  0  0  0  0  0  0  0  0
  -22.7034  -12.6498   33.2933 C   0  0  0  0  0  0  0  0  0  0  0  0
  -18.9686  -17.2507   29.8649 C   0  0  0  0  0  0  0  0  0  0  0  0
  -26.7165  -19.2517   27.2743 C   0  0  0  0  0  0  0  0  0  1  0  0
  -22.7759  -14.6041   31.6911 C   0  0  1  0  0  0  0  0  0  0  0  0
  -19.2998  -14.7966   30.1913 C   0  0  2  0  0  0  0  0  0  0  0  0
  -23.4118  -13.2316   32.0505 C   0  0  0  0  0  0  0  0  0  0  0  0
  -25.8619  -11.5426   20.2865 N   0  0  0  0  0  0  0  0  0  0  0  0
  -26.2393  -12.8261   20.1587 N   0  0  0  0  0  0  0  0  0  0  0  0
  -23.6690  -16.7882   32.4368 N   0  0  0  0  0  0  0  0  0  0  0  0
  -29.9706  -13.6121   20.3658 N   0  0  0  0  0  0  0  0  0  0  0  0
  -25.4736  -15.0538   20.4077 N   0  0  0  0  0  0  0  0  0  0  0  0
  -21.8877  -12.5803   21.5989 N   0  0  0  0  0  0  0  0  0  0  0  0
  -30.0822  -15.6908   21.4743 N   0  0  0  0  0  0  0  0  0  0  0  0
  -25.9518  -18.1289   34.9443 N   0  0  0  0  0  0  0  0  0  0  0  0
  -21.3427  -14.5473   31.4245 N   0  0  0  0  0  0  0  0  0  0  0  0
  -18.6780  -15.8782   29.3762 N   0  3  0  0  0  0  0  0  0  0  0  0
  -22.6642  -14.7199   21.3200 O   0  0  0  0  0  0  0  0  0  0  0  0
  -27.9621  -21.0421   26.2562 O   0  0  0  0  0  0  0  0  0  0  0  0
  -26.0538  -16.4789   33.3044 O   0  0  0  0  0  0  0  0  0  0  0  0
  -22.4908  -15.4108   33.9034 O   0  0  0  0  0  0  0  0  0  0  0  0
  -21.4499  -15.4065   29.2734 O   0  0  0  0  0  0  0  0  0  0  0  0
  -31.8585  -14.9344   20.1881 O   0  0  0  0  0  0  0  0  0  0  0  0
  -21.6125   -7.0172   21.7046 O   0  0  0  0  0  0  0  0  0  0  0  0
  -25.9924  -20.2951   27.9250 O   0  0  0  0  0  0  0  0  0  1  0  0
  -18.6212   -6.8577   26.3339 F   0  0  0  0  0  0  0  0  0  0  0  0
  -22.0621   -5.0726   23.6174 F   0  0  0  0  0  0  0  0  0  0  0  0
  1  2  1  0  0  0  0
  1  5  2  0  0  0  0
  2  6  2  0  0  0  0
  3 10  2  0  0  0  0
  3 18  1  0  0  0  0
  4 11  1  0  0  0  0
  4 18  2  0  0  0  0
  5 21  1  0  0  0  0
  6 23  1  0  0  0  0
  7 12  2  0  0  0  0
  7 22  1  0  0  0  0
  8  9  2  0  0  0  0
  8 25  1  0  0  0  0
  9 26  1  0  0  0  0
 10 27  1  0  0  0  0
 11 27  2  0  0  0  0
 12 28  1  0  0  0  0
 13 14  2  0  0  0  0
 13 29  1  0  0  0  0
 14 30  1  0  0  0  0
 15 19  1  0  0  0  0
 15 26  2  0  0  0  0
 16 24  1  0  0  0  0
 16 28  2  0  0  0  0
 17 30  2  0  0  0  0
 17 31  1  0  0  0  0
 18 32  1  0  0  0  0
 19 25  2  0  0  0  0
 19 34  1  0  0  0  0
 20 32  1  0  0  0  0
 20 33  2  0  0  0  0
 20 36  1  0  0  0  0
 21 23  2  0  0  0  0
 21 42  1  0  0  0  0
 22 24  2  0  0  0  0
 22 43  1  0  0  0  0
 23 51  1  0  0  0  0
 24 44  1  0  0  0  0
 25 54  1  0  0  0  0
 26 70  1  0  0  0  0
 27 80  1  0  0  0  0
 28 81  1  0  0  0  0
 29 31  2  0  0  0  0
 29 80  1  0  0  0  0
 30 82  1  0  0  0  0
 31 83  1  0  0  0  0
 32 64  2  0  0  0  0
 33 65  1  0  0  0  0
 33 68  1  0  0  0  0
 34 35  2  0  0  0  0
 35 37  1  0  0  0  0
 36 69  1  0  0  0  0
 36 74  2  0  0  0  0
 37 60  1  0  0  0  0
 37 75  2  0  0  0  0
 38 52  1  0  0  0  0
 38 71  1  0  0  0  0
 38 76  2  0  0  0  0
 39 61  1  0  0  0  0
 39 66  1  0  0  0  0
 39 77  2  0  0  0  0
 40 62  1  0  0  0  0
 40 72  1  0  0  0  0
 40 78  2  0  0  0  0
 41 67  1  0  0  0  0
 41 70  1  0  0  0  0
 41 79  2  0  0  0  0
 42 45  1  0  0  0  0
 43 52  1  0  0  0  0
 44 66  1  0  0  0  0
 45 47  1  0  0  0  0
 46 48  1  0  0  0  0
 46 49  1  0  0  0  0
 47 51  1  0  0  0  0
 48 53  1  0  0  0  0
 49 67  1  0  0  0  0
 50 53  1  0  0  0  0
 50 67  1  0  0  0  0
 51 71  1  0  0  0  0
 52 66  1  0  0  0  0
 53 65  1  0  0  0  0
 55 62  1  0  0  0  0
 56 63  1  0  0  0  0
 57 63  1  0  0  0  0
 58 63  1  0  0  0  0
 59 73  1  0  0  0  0
 60 81  1  0  0  0  0
 61 63  1  0  0  0  0
 61 72  1  0  0  0  0
 62 73  1  0  0  0  0
 64 65  1  0  0  0  0
M  CHG  1  73   1
M  ISO  4  41 100  60 101  70 100  81 101
M  END
> <Batch ID>
0131

> <Smiles>
CNC(C)C(=O)NC(C(=O)N1Cc2cc([101O:1][101CH2:1]C(=O)C=Cc3cc([100NH:0][100C:0](=O)N4CCCC(n5nc(-c6ccc(Oc7ccc(F)cc7F)cc6)c(C(N)=O)c5N)C4)ccc3C)ccc2CC1C(=O)NC1CCCc2ccccc21)C(C)(C)C

> <Shape>
0.166

> <Color>
0.196

> <Negative vol penalty>
0.000

$$$$

  -OEChem-04052302253D

 83 91  0     1  0  0  0  0  0999 V2000
  -28.1139  -32.6359   26.8233 C   0  0  0  0  0  0  0  0  0  0  0  0
  -28.2636  -31.5645   25.9486 C   0  0  0  0  0  0  0  0  0  0  0  0
  -23.0224  -10.5869   20.6778 C   0  0  0  0  0  0  0  0  0  0  0  0
  -23.9004   -9.9517   22.8371 C   0  0  0  0  0  0  0  0  0  0  0  0
  -28.6892  -18.7997   19.8531 C   0  0  0  0  0  0  0  0  0  0  0  0
  -30.9869  -18.8699   19.1096 C   0  0  0  0  0  0  0  0  0  0  0  0
  -26.8438  -32.9959   27.2719 C   0  0  0  0  0  0  0  0  0  0  0  0
  -27.1433  -30.8517   25.5229 C   0  0  0  0  0  0  0  0  0  0  0  0
  -27.2060  -29.9260   20.5445 C   0  0  0  0  0  0  0  0  0  0  0  0
  -22.6685   -9.2604   20.4315 C   0  0  0  0  0  0  0  0  0  0  0  0
  -23.5464   -8.6252   22.5908 C   0  0  0  0  0  0  0  0  0  0  0  0
  -28.7512  -20.1560   20.1728 C   0  0  0  0  0  0  0  0  0  0  0  0
  -31.0489  -20.2262   19.4293 C   0  0  0  0  0  0  0  0  0  0  0  0
  -28.0256  -28.8895   20.0999 C   0  0  0  0  0  0  0  0  0  0  0  0
  -22.5476   -5.1306   22.6811 C   0  0  0  0  0  0  0  0  0  0  0  0
  -21.9186   -4.4252   23.7070 C   0  0  0  0  0  0  0  0  0  0  0  0
  -26.1057  -27.4346   19.9714 C   0  0  0  0  0  0  0  0  0  0  0  0
  -20.1137   -6.0312   23.7046 C   0  0  0  0  0  0  0  0  0  0  0  0
  -23.6384  -10.9326   21.8806 C   0  0  0  0  0  0  0  0  0  0  0  0
  -29.8071  -18.1566   19.3216 C   0  0  0  0  0  0  0  0  0  0  0  0
  -23.2151  -13.2938   22.7484 C   0  0  0  0  0  0  0  0  0  0  0  0
  -25.7064  -32.2931   26.8439 C   0  0  0  0  0  0  0  0  0  0  0  0
  -25.8295  -29.7212   20.7166 C   0  0  0  0  0  0  0  0  0  0  0  0
  -25.8570  -31.2017   25.9672 C   0  0  0  0  0  0  0  0  0  0  0  0
  -25.2704  -28.4709   20.4159 C   0  0  0  0  0  0  0  0  0  0  0  0
  -22.9305   -8.2796   21.3880 C   0  0  0  0  0  0  0  0  0  0  0  0
  -29.9310  -20.8692   19.9609 C   0  0  0  0  0  0  0  0  0  0  0  0
  -27.4760  -27.6428   19.8160 C   0  0  0  0  0  0  0  0  0  0  0  0
  -21.9597   -6.2863   22.1670 C   0  0  0  0  0  0  0  0  0  0  0  0
  -20.7017   -4.8755   24.2187 C   0  0  0  0  0  0  0  0  0  0  0  0
  -20.7427   -6.7366   22.6788 C   0  0  0  0  0  0  0  0  0  0  0  0
  -24.0048  -12.3026   22.1355 C   0  0  0  0  0  0  0  0  0  0  0  0
  -24.0119  -14.4125   22.7544 C   0  0  0  0  0  0  0  0  0  0  0  0
  -29.7426  -16.7425   18.9880 C   0  0  0  0  0  0  0  0  0  0  0  0
  -21.8806  -13.2108   23.2660 C   0  0  0  0  0  0  0  0  0  0  0  0
  -28.5094  -15.9581   19.1994 C   0  0  0  0  0  0  0  0  0  0  0  0
  -23.8357  -29.8413   23.1893 C   0  0  0  0  0  0  0  0  0  0  0  0
  -29.0851  -24.3936   19.8358 C   0  0  0  0  0  0  0  0  0  0  0  0
  -21.5862  -29.3771   20.8989 C   0  0  0  0  0  0  0  0  0  0  0  0
  -20.8195  -28.2079   17.7856 C   0  0  0  0  0  0  0  0  0  0  0  0
  -24.3589  -32.6895   27.3931 C   0  0  0  0  0  0  0  0  0  0  0  0
  -24.9549  -30.8572   21.1715 C   0  0  0  0  0  0  0  0  0  0  0  0
  -23.7954  -28.2053   20.5648 C   0  0  0  0  0  0  0  0  0  0  0  0
  -23.1861  -32.1183   26.6004 C   0  0  0  0  0  0  0  0  0  0  0  0
  -28.5853  -15.7642   22.8585 C   0  0  0  0  0  0  0  0  0  0  0  0
  -23.4064  -30.6362   26.3144 C   0  0  0  0  0  0  0  0  0  0  0  0
  -27.3596  -14.8967   23.1321 C   0  0  0  0  0  0  0  0  0  0  0  0
  -29.2860  -15.3704   21.5590 C   0  0  0  0  0  0  0  0  0  0  0  0
  -27.1553  -14.4939   20.6469 C   0  0  0  0  0  0  0  0  0  0  0  0
  -24.6635  -30.4195   25.4634 C   0  0  1  0  0  0  0  0  0  0  0  0
  -23.6474  -30.3889   21.8028 C   0  0  1  0  0  0  0  0  0  0  0  0
  -26.4077  -14.9035   21.9254 C   0  0  1  0  0  0  0  0  0  0  0  0
  -18.8902  -27.9322   16.2049 C   0  0  0  0  0  0  0  0  0  0  0  0
  -20.5808  -27.0110   22.5423 C   0  0  0  0  0  0  0  0  0  0  0  0
  -19.3323  -26.2258   20.5193 C   0  0  0  0  0  0  0  0  0  0  0  0
  -18.7786  -28.4305   21.5467 C   0  0  0  0  0  0  0  0  0  0  0  0
  -22.0918  -29.9365   15.7479 C   0  0  0  0  0  0  0  0  0  0  0  0
  -28.7943  -22.9468   20.1787 C   0  0  0  0  0  0  0  0  0  0  0  0
  -27.8773  -25.3006   19.7204 C   0  0  0  0  0  0  0  0  0  1  0  0
  -20.9411  -28.1693   20.2632 C   0  0  1  0  0  0  0  0  0  0  0  0
  -20.0392  -28.8281   16.6407 C   0  0  2  0  0  0  0  0  0  0  0  0
  -19.9363  -27.4633   21.2168 C   0  0  0  0  0  0  0  0  0  0  0  0
  -25.2107  -12.7521   21.7779 N   0  0  0  0  0  0  0  0  0  0  0  0
  -30.7483  -16.0780   18.4861 N   0  0  0  0  0  0  0  0  0  0  0  0
  -25.1846  -14.0381   22.1673 N   0  0  0  0  0  0  0  0  0  0  0  0
  -28.3435  -15.3271   20.4310 N   0  0  0  0  0  0  0  0  0  0  0  0
  -22.9828  -29.3460   21.0186 N   0  0  0  0  0  0  0  0  0  0  0  0
  -23.8168  -15.6702   23.2045 N   0  0  0  0  0  0  0  0  0  0  0  0
  -21.2054  -11.9857   23.1793 N   0  0  0  0  0  0  0  0  0  0  0  0
  -24.3969  -30.7391   24.0773 N   0  0  0  0  0  0  0  0  0  0  0  0
  -20.3521  -28.6325   19.0114 N   0  0  0  0  0  0  0  0  0  0  0  0
  -20.9308  -29.0528   15.4679 N   0  3  0  0  0  0  0  0  0  0  0  0
  -21.2980  -14.1982   23.7751 O   0  0  0  0  0  0  0  0  0  0  0  0
  -27.7025  -15.9055   18.2695 O   0  0  0  0  0  0  0  0  0  0  0  0
  -23.4957  -28.6901   23.4356 O   0  0  0  0  0  0  0  0  0  0  0  0
  -30.2309  -24.8058   19.6615 O   0  0  0  0  0  0  0  0  0  0  0  0
  -20.8776  -30.3166   21.2689 O   0  0  0  0  0  0  0  0  0  0  0  0
  -21.7483  -27.4223   17.6103 O   0  0  0  0  0  0  0  0  0  0  0  0
  -22.5850   -6.9851   21.1480 O   0  0  0  0  0  0  0  0  0  0  0  0
  -29.9924  -22.2060   20.2760 O   0  0  0  0  0  0  0  0  0  0  0  0
  -28.2738  -26.6291   19.3825 O   0  0  0  0  0  0  0  0  0  1  0  0
  -20.0970   -4.1971   25.2028 F   0  0  0  0  0  0  0  0  0  0  0  0
  -20.1725   -7.8456   22.1881 F   0  0  0  0  0  0  0  0  0  0  0  0
  1  2  1  0  0  0  0
  1  7  2  0  0  0  0
  2  8  2  0  0  0  0
  3 10  2  0  0  0  0
  3 19  1  0  0  0  0
  4 11  1  0  0  0  0
  4 19  2  0  0  0  0
  5 12  2  0  0  0  0
  5 20  1  0  0  0  0
  6 13  1  0  0  0  0
  6 20  2  0  0  0  0
  7 22  1  0  0  0  0
  8 24  1  0  0  0  0
  9 14  2  0  0  0  0
  9 23  1  0  0  0  0
 10 26  1  0  0  0  0
 11 26  2  0  0  0  0
 12 27  1  0  0  0  0
 13 27  2  0  0  0  0
 14 28  1  0  0  0  0
 15 16  2  0  0  0  0
 15 29  1  0  0  0  0
 16 30  1  0  0  0  0
 17 25  1  0  0  0  0
 17 28  2  0  0  0  0
 18 30  2  0  0  0  0
 18 31  1  0  0  0  0
 19 32  1  0  0  0  0
 20 34  1  0  0  0  0
 21 32  1  0  0  0  0
 21 33  2  0  0  0  0
 21 35  1  0  0  0  0
 22 24  2  0  0  0  0
 22 41  1  0  0  0  0
 23 25  2  0  0  0  0
 23 42  1  0  0  0  0
 24 50  1  0  0  0  0
 25 43  1  0  0  0  0
 26 79  1  0  0  0  0
 27 80  1  0  0  0  0
 28 81  1  0  0  0  0
 29 31  2  0  0  0  0
 29 79  1  0  0  0  0
 30 82  1  0  0  0  0
 31 83  1  0  0  0  0
 32 63  2  0  0  0  0
 33 65  1  0  0  0  0
 33 68  1  0  0  0  0
 34 36  1  0  0  0  0
 34 64  2  0  0  0  0
 35 69  1  0  0  0  0
 35 73  2  0  0  0  0
 36 66  1  0  0  0  0
 36 74  2  0  0  0  0
 37 51  1  0  0  0  0
 37 70  1  0  0  0  0
 37 75  2  0  0  0  0
 38 58  1  0  0  0  0
 38 59  1  0  0  0  0
 38 76  2  0  0  0  0
 39 60  1  0  0  0  0
 39 67  1  0  0  0  0
 39 77  2  0  0  0  0
 40 61  1  0  0  0  0
 40 71  1  0  0  0  0
 40 78  2  0  0  0  0
 41 44  1  0  0  0  0
 42 51  1  0  0  0  0
 43 67  1  0  0  0  0
 44 46  1  0  0  0  0
 45 47  1  0  0  0  0
 45 48  1  0  0  0  0
 46 50  1  0  0  0  0
 47 52  1  0  0  0  0
 48 66  1  0  0  0  0
 49 52  1  0  0  0  0
 49 66  1  0  0  0  0
 50 70  1  0  0  0  0
 51 67  1  0  0  0  0
 52 65  1  0  0  0  0
 53 61  1  0  0  0  0
 54 62  1  0  0  0  0
 55 62  1  0  0  0  0
 56 62  1  0  0  0  0
 57 72  1  0  0  0  0
 58 80  1  0  0  0  0
 59 81  1  0  0  0  0
 60 62  1  0  0  0  0
 60 71  1  0  0  0  0
 61 72  1  0  0  0  0
 63 65  1  0  0  0  0
M  CHG  1  72   1
M  ISO  4  34 100  36 100  59 101  81 101
M  END
> <Batch ID>
0131

> <Smiles>
CNC(C)C(=O)NC(C(=O)N1Cc2cc([101O:1][101CH2:1]C(=O)COc3ccc([100C:0](=N)[100C:0](=O)N4CCCC(n5nc(-c6ccc(Oc7ccc(F)cc7F)cc6)c(C(N)=O)c5N)C4)cc3)ccc2CC1C(=O)NC1CCCc2ccccc21)C(C)(C)C

> <Shape>
0.323

> <Color>
0.102

> <Negative vol penalty>
0.000

$$$$

  -OEChem-04052302253D

 86 95  0     1  0  0  0  0  0999 V2000
  -17.7889  -29.4238   25.8147 C   0  0  0  0  0  0  0  0  0  0  0  0
  -19.1482  -29.4107   26.1104 C   0  0  0  0  0  0  0  0  0  0  0  0
  -24.5671   -9.2342   22.1398 C   0  0  0  0  0  0  0  0  0  0  0  0
  -24.0368   -9.1013   19.7864 C   0  0  0  0  0  0  0  0  0  0  0  0
  -29.6128  -20.3141   21.0484 C   0  0  0  0  0  0  0  0  0  0  0  0
  -30.3340  -20.2180   23.3523 C   0  0  0  0  0  0  0  0  0  0  0  0
  -17.3403  -28.9525   24.5816 C   0  0  0  0  0  0  0  0  0  0  0  0
  -20.0597  -28.9251   25.1734 C   0  0  0  0  0  0  0  0  0  0  0  0
  -30.0744  -21.6273   20.9588 C   0  0  0  0  0  0  0  0  0  0  0  0
  -30.7956  -21.5312   23.2626 C   0  0  0  0  0  0  0  0  0  0  0  0
  -26.7639  -29.9381   22.8618 C   0  0  0  0  0  0  0  0  0  0  0  0
  -23.3652   -8.5962   22.4466 C   0  0  0  0  0  0  0  0  0  0  0  0
  -22.8350   -8.4632   20.0933 C   0  0  0  0  0  0  0  0  0  0  0  0
  -27.9381  -29.2271   22.6179 C   0  0  0  0  0  0  0  0  0  0  0  0
  -22.1467   -5.4421   22.4393 C   0  0  0  0  0  0  0  0  0  0  0  0
  -22.1799   -4.4171   23.3848 C   0  0  0  0  0  0  0  0  0  0  0  0
  -27.0557  -28.5117   20.4898 C   0  0  0  0  0  0  0  0  0  0  0  0
  -20.6374   -5.6507   24.7763 C   0  0  0  0  0  0  0  0  0  0  0  0
  -24.9028   -9.4868   20.8096 C   0  0  0  0  0  0  0  0  0  0  0  0
  -29.7426  -19.6094   22.2452 C   0  0  0  0  0  0  0  0  0  0  0  0
  -27.3901   -9.5397   20.2453 C   0  0  0  0  0  0  0  0  0  0  0  0
  -30.6658  -22.2358   22.0658 C   0  0  0  0  0  0  0  0  0  0  0  0
  -18.2476  -28.4698   23.6253 C   0  0  0  0  0  0  0  0  0  0  0  0
  -25.7207  -29.9324   21.9248 C   0  0  0  0  0  0  0  0  0  0  0  0
  -19.6227  -28.4456   23.9269 C   0  0  0  0  0  0  0  0  0  0  0  0
  -25.8703  -29.2256   20.7230 C   0  0  0  0  0  0  0  0  0  0  0  0
  -22.4992   -8.2107   21.4234 C   0  0  0  0  0  0  0  0  0  0  0  0
  -28.0830  -28.5114   21.4330 C   0  0  0  0  0  0  0  0  0  0  0  0
  -21.3590   -6.5715   22.6624 C   0  0  0  0  0  0  0  0  0  0  0  0
  -21.4253   -4.5214   24.5532 C   0  0  0  0  0  0  0  0  0  0  0  0
  -20.6043   -6.6757   23.8308 C   0  0  0  0  0  0  0  0  0  0  0  0
  -26.1439  -10.1463   20.4921 C   0  0  0  0  0  0  0  0  0  0  0  0
  -28.2392  -10.5895   19.9938 C   0  0  0  0  0  0  0  0  0  0  0  0
  -30.1977  -25.6612   20.7604 C   0  0  0  0  0  0  0  0  0  0  0  0
  -30.0649  -24.6960   21.7001 C   0  0  0  0  0  0  0  0  0  0  0  0
  -29.2613  -18.2401   22.3390 C   0  0  0  0  0  0  0  0  0  0  0  0
  -28.3569  -17.6696   21.5148 C   0  0  0  0  0  0  0  0  0  0  0  0
  -27.7481   -8.1513   20.2435 C   0  0  0  0  0  0  0  0  0  0  0  0
  -27.9758  -16.2599   21.7346 C   0  0  0  0  0  0  0  0  0  0  0  0
  -22.6967  -28.9529   21.9405 C   0  0  0  0  0  0  0  0  0  0  0  0
  -22.6385  -30.3455   19.0115 C   0  0  0  0  0  0  0  0  0  0  0  0
  -24.3738  -31.3863   16.2633 C   0  0  0  0  0  0  0  0  0  0  0  0
  -17.7111  -27.9268   22.3246 C   0  0  0  0  0  0  0  0  0  0  0  0
  -24.4712  -30.7262   22.1910 C   0  0  0  0  0  0  0  0  0  0  0  0
  -24.7882  -29.2039   19.6757 C   0  0  0  0  0  0  0  0  0  0  0  0
  -31.4789  -25.8519   19.9783 C   0  0  0  0  0  0  0  0  0  0  0  0
  -18.7763  -27.7767   21.2416 C   0  0  0  0  0  0  0  0  0  0  0  0
  -32.6858  -25.1565   20.5990 C   0  0  0  0  0  0  0  0  0  0  0  0
  -28.2990  -15.0454   18.2919 C   0  0  0  0  0  0  0  0  0  0  0  0
  -32.3364  -23.7221   20.9557 C   0  0  0  0  0  0  0  0  0  0  0  0
  -20.0230  -27.1048   21.8085 C   0  0  0  0  0  0  0  0  0  0  0  0
  -27.8457  -13.5963   18.4479 C   0  0  0  0  0  0  0  0  0  0  0  0
  -27.5464  -15.9844   19.2334 C   0  0  0  0  0  0  0  0  0  0  0  0
  -27.1590  -14.1218   20.8212 C   0  0  0  0  0  0  0  0  0  0  0  0
  -31.1721  -23.6704   21.9663 C   0  0  2  0  0  0  0  0  0  0  0  0
  -20.6447  -27.9496   22.9270 C   0  0  1  0  0  0  0  0  0  0  0  0
  -23.2677  -30.2312   21.3948 C   0  0  1  0  0  0  0  0  0  0  0  0
  -27.9363  -13.1528   19.9167 C   0  0  1  0  0  0  0  0  0  0  0  0
  -28.8581  -24.5873   22.6027 C   0  0  0  0  0  0  0  0  0  0  0  0
  -24.0480  -32.4531   14.0153 C   0  0  0  0  0  0  0  0  0  0  0  0
  -21.5757  -27.7040   17.9147 C   0  0  0  0  0  0  0  0  0  0  0  0
  -22.1681  -28.5002   15.6161 C   0  0  0  0  0  0  0  0  0  0  0  0
  -20.4798  -29.7430   16.9681 C   0  0  0  0  0  0  0  0  0  0  0  0
  -26.0628  -33.7054   16.9899 C   0  0  0  0  0  0  0  0  0  0  0  0
  -29.1184  -26.6435   20.3866 C   0  0  0  0  0  0  0  0  0  1  0  0
  -22.9231  -29.8842   17.6025 C   0  0  1  0  0  0  0  0  0  0  0  0
  -24.3442  -32.6911   15.4879 C   0  0  2  0  0  0  0  0  0  0  0  0
  -21.8065  -28.9565   17.0458 C   0  0  0  0  0  0  0  0  0  0  0  0
  -26.1926  -11.4783   20.4054 N   0  0  0  0  0  0  0  0  0  0  0  0
  -27.4797  -11.7173   20.1014 N   0  0  0  0  0  0  0  0  0  0  0  0
  -27.5982  -15.5077   20.6237 N   0  0  0  0  0  0  0  0  0  0  0  0
  -23.5828  -29.9906   19.9852 N   0  0  0  0  0  0  0  0  0  0  0  0
  -29.5540  -10.6488   19.6935 N   0  0  0  0  0  0  0  0  0  0  0  0
  -26.7530   -7.2044   20.5220 N   0  0  0  0  0  0  0  0  0  0  0  0
  -21.3873  -29.0593   22.3690 N   0  0  0  0  0  0  0  0  0  0  0  0
  -23.1447  -31.0918   16.8145 N   0  0  0  0  0  0  0  0  0  0  0  0
  -25.6569  -33.3881   15.5965 N   0  3  0  0  0  0  0  0  0  0  0  0
  -28.9194   -7.7629   20.0183 O   0  0  0  0  0  0  0  0  0  0  0  0
  -28.0104  -15.8352   22.8909 O   0  0  0  0  0  0  0  0  0  0  0  0
  -23.3922  -27.9443   21.9693 O   0  0  0  0  0  0  0  0  0  0  0  0
  -21.6197  -31.0029   19.2384 O   0  0  0  0  0  0  0  0  0  0  0  0
  -25.3851  -30.6955   16.3664 O   0  0  0  0  0  0  0  0  0  0  0  0
  -21.3265   -7.5879   21.7224 O   0  0  0  0  0  0  0  0  0  0  0  0
  -29.2278  -27.8160   21.1927 O   0  0  0  0  0  0  0  0  0  1  0  0
  -21.4560   -3.5363   25.4603 F   0  0  0  0  0  0  0  0  0  0  0  0
  -19.8447   -7.7577   24.0501 F   0  0  0  0  0  0  0  0  0  0  0  0
  1  2  1  0  0  0  0
  1  7  2  0  0  0  0
  2  8  2  0  0  0  0
  3 12  2  0  0  0  0
  3 19  1  0  0  0  0
  4 13  1  0  0  0  0
  4 19  2  0  0  0  0
  5  9  2  0  0  0  0
  5 20  1  0  0  0  0
  6 10  1  0  0  0  0
  6 20  2  0  0  0  0
  7 23  1  0  0  0  0
  8 25  1  0  0  0  0
  9 22  1  0  0  0  0
 10 22  2  0  0  0  0
 11 14  2  0  0  0  0
 11 24  1  0  0  0  0
 12 27  1  0  0  0  0
 13 27  2  0  0  0  0
 14 28  1  0  0  0  0
 15 16  2  0  0  0  0
 15 29  1  0  0  0  0
 16 30  1  0  0  0  0
 17 26  1  0  0  0  0
 17 28  2  0  0  0  0
 18 30  2  0  0  0  0
 18 31  1  0  0  0  0
 19 32  1  0  0  0  0
 20 36  1  0  0  0  0
 21 32  1  0  0  0  0
 21 33  2  0  0  0  0
 21 38  1  0  0  0  0
 22 55  1  0  0  0  0
 23 25  2  0  0  0  0
 23 43  1  0  0  0  0
 24 26  2  0  0  0  0
 24 44  1  0  0  0  0
 25 56  1  0  0  0  0
 26 45  1  0  0  0  0
 27 83  1  0  0  0  0
 28 84  1  0  0  0  0
 29 31  2  0  0  0  0
 29 83  1  0  0  0  0
 30 85  1  0  0  0  0
 31 86  1  0  0  0  0
 32 69  2  0  0  0  0
 33 70  1  0  0  0  0
 33 73  1  0  0  0  0
 34 35  2  0  0  0  0
 34 46  1  0  0  0  0
 34 65  1  0  0  0  0
 35 55  1  0  0  0  0
 35 59  1  0  0  0  0
 36 37  2  0  0  0  0
 37 39  1  0  0  0  0
 38 74  1  0  0  0  0
 38 78  2  0  0  0  0
 39 71  1  0  0  0  0
 39 79  2  0  0  0  0
 40 57  1  0  0  0  0
 40 75  1  0  0  0  0
 40 80  2  0  0  0  0
 41 66  1  0  0  0  0
 41 72  1  0  0  0  0
 41 81  2  0  0  0  0
 42 67  1  0  0  0  0
 42 76  1  0  0  0  0
 42 82  2  0  0  0  0
 43 47  1  0  0  0  0
 44 57  1  0  0  0  0
 45 72  1  0  0  0  0
 46 48  1  0  0  0  0
 47 51  1  0  0  0  0
 48 50  1  0  0  0  0
 49 52  1  0  0  0  0
 49 53  1  0  0  0  0
 50 55  1  0  0  0  0
 51 56  1  0  0  0  0
 52 58  1  0  0  0  0
 53 71  1  0  0  0  0
 54 58  1  0  0  0  0
 54 71  1  0  0  0  0
 56 75  1  0  0  0  0
 57 72  1  0  0  0  0
 58 70  1  0  0  0  0
 60 67  1  0  0  0  0
 61 68  1  0  0  0  0
 62 68  1  0  0  0  0
 63 68  1  0  0  0  0
 64 77  1  0  0  0  0
 65 84  1  0  0  0  0
 66 68  1  0  0  0  0
 66 76  1  0  0  0  0
 67 77  1  0  0  0  0
 69 70  1  0  0  0  0
M  CHG  1  77   1
M  ISO  4  37 100  39 100  65 101  84 101
M  END
> <Batch ID>
0131

> <Smiles>
CNC(C)C(=O)NC(C(=O)N1Cc2cc([101O:1][101CH2:1]C3=C(C)C(c4ccc(C=[100CH:0][100C:0](=O)N5CCCC(n6nc(-c7ccc(Oc8ccc(F)cc8F)cc7)c(C(N)=O)c6N)C5)cc4)CCC3)ccc2CC1C(=O)NC1CCCc2ccccc21)C(C)(C)C

> <Shape>
0.277

> <Color>
0.121

> <Negative vol penalty>
0.000

$$$$

  -OEChem-04052302253D

 86 94  0     1  0  0  0  0  0999 V2000
  -23.9399  -37.2072   20.1332 C   0  0  0  0  0  0  0  0  0  0  0  0
  -24.8235  -36.1749   19.8349 C   0  0  0  0  0  0  0  0  0  0  0  0
  -23.6928  -10.0636   22.2401 C   0  0  0  0  0  0  0  0  0  0  0  0
  -24.5257   -8.6522   20.4649 C   0  0  0  0  0  0  0  0  0  0  0  0
  -29.1260  -20.1847   17.8607 C   0  0  0  0  0  0  0  0  0  0  0  0
  -23.1161  -37.1160   21.2543 C   0  0  0  0  0  0  0  0  0  0  0  0
  -24.8845  -35.0511   20.6581 C   0  0  0  0  0  0  0  0  0  0  0  0
  -25.9454  -29.2730   18.9277 C   0  0  0  0  0  0  0  0  0  0  0  0
  -29.5847  -21.3436   17.2346 C   0  0  0  0  0  0  0  0  0  0  0  0
  -22.5181   -9.3129   22.2859 C   0  0  0  0  0  0  0  0  0  0  0  0
  -23.3510   -7.9014   20.5108 C   0  0  0  0  0  0  0  0  0  0  0  0
  -27.0977  -28.4883   18.9348 C   0  0  0  0  0  0  0  0  0  0  0  0
  -20.7227   -5.3915   20.4069 C   0  0  0  0  0  0  0  0  0  0  0  0
  -20.8388   -4.0018   20.3771 C   0  0  0  0  0  0  0  0  0  0  0  0
  -26.4319  -27.5404   21.0508 C   0  0  0  0  0  0  0  0  0  0  0  0
  -27.7170  -22.5755   18.1462 C   0  0  0  0  0  0  0  0  0  0  0  0
  -22.1454   -4.0675   22.4083 C   0  0  0  0  0  0  0  0  0  0  0  0
  -24.6966   -9.7333   21.3295 C   0  0  0  0  0  0  0  0  0  0  0  0
  -27.9627  -20.2211   18.6295 C   0  0  0  0  0  0  0  0  0  0  0  0
  -27.0915  -10.2851   22.0132 C   0  0  0  0  0  0  0  0  0  0  0  0
  -23.1601  -35.9861   22.0863 C   0  0  0  0  0  0  0  0  0  0  0  0
  -25.0315  -29.2052   19.9892 C   0  0  0  0  0  0  0  0  0  0  0  0
  -24.0613  -34.9452   21.7922 C   0  0  0  0  0  0  0  0  0  0  0  0
  -25.2674  -28.3234   21.0535 C   0  0  0  0  0  0  0  0  0  0  0  0
  -28.8803  -22.5390   17.3774 C   0  0  0  0  0  0  0  0  0  0  0  0
  -27.2582  -21.4166   18.7723 C   0  0  0  0  0  0  0  0  0  0  0  0
  -22.3472   -8.2317   21.4213 C   0  0  0  0  0  0  0  0  0  0  0  0
  -27.3426  -27.6239   19.9978 C   0  0  0  0  0  0  0  0  0  0  0  0
  -21.3180   -6.1192   21.4374 C   0  0  0  0  0  0  0  0  0  0  0  0
  -21.5501   -3.3398   21.3778 C   0  0  0  0  0  0  0  0  0  0  0  0
  -22.0294   -5.4572   22.4380 C   0  0  0  0  0  0  0  0  0  0  0  0
  -25.9100  -10.5088   21.2813 C   0  0  0  0  0  0  0  0  0  0  0  0
  -27.9392  -11.2885   21.6120 C   0  0  0  0  0  0  0  0  0  0  0  0
  -27.5093  -18.9938   19.2705 C   0  0  0  0  0  0  0  0  0  0  0  0
  -27.1992  -17.8476   18.6311 C   0  0  0  0  0  0  0  0  0  0  0  0
  -27.3956   -9.2617   22.9702 C   0  0  0  0  0  0  0  0  0  0  0  0
  -26.7624  -16.6817   19.4252 C   0  0  0  0  0  0  0  0  0  0  0  0
  -23.9436  -31.2693   22.1478 C   0  0  0  0  0  0  0  0  0  0  0  0
  -29.7196  -25.1342   18.8539 C   0  0  0  0  0  0  0  0  0  0  0  0
  -21.9696  -28.8160   22.9270 C   0  0  0  0  0  0  0  0  0  0  0  0
  -21.3874  -25.4533   22.9258 C   0  0  0  0  0  0  0  0  0  0  0  0
  -22.2839  -35.9537   23.3134 C   0  0  0  0  0  0  0  0  0  0  0  0
  -23.7799  -30.0386   19.9536 C   0  0  0  0  0  0  0  0  0  0  0  0
  -24.3076  -28.1984   22.2074 C   0  0  0  0  0  0  0  0  0  0  0  0
  -22.1428  -34.5620   23.9246 C   0  0  0  0  0  0  0  0  0  0  0  0
  -28.9054  -14.1280   17.9027 C   0  0  0  0  0  0  0  0  0  0  0  0
  -23.5057  -33.8852   24.0312 C   0  0  0  0  0  0  0  0  0  0  0  0
  -28.4427  -12.8764   18.6438 C   0  0  0  0  0  0  0  0  0  0  0  0
  -27.7605  -15.1139   17.6753 C   0  0  0  0  0  0  0  0  0  0  0  0
  -26.5764  -14.2364   19.6673 C   0  0  0  0  0  0  0  0  0  0  0  0
  -24.1390  -33.6989   22.6471 C   0  0  1  0  0  0  0  0  0  0  0  0
  -23.1743  -30.2665   21.3351 C   0  0  1  0  0  0  0  0  0  0  0  0
  -27.7220  -13.2515   19.9484 C   0  0  1  0  0  0  0  0  0  0  0  0
  -24.9738  -22.2523   21.7704 C   0  0  0  0  0  0  0  0  0  0  0  0
  -19.7053  -23.7450   23.6674 C   0  0  0  0  0  0  0  0  0  0  0  0
  -22.9361  -29.1173   25.8054 C   0  0  0  0  0  0  0  0  0  0  0  0
  -21.9885  -26.8506   26.2873 C   0  0  0  0  0  0  0  0  0  0  0  0
  -20.4813  -28.7033   25.5672 C   0  0  0  0  0  0  0  0  0  0  0  0
  -20.9187  -24.5399   20.1500 C   0  0  0  0  0  0  0  0  0  0  0  0
  -29.3774  -23.7942   16.7012 C   0  0  0  0  0  0  0  0  0  0  0  0
  -26.0077  -21.4927   19.5881 C   0  0  0  0  0  0  0  0  0  0  0  0
  -30.3393  -24.6113   17.5659 C   0  0  0  0  0  0  0  0  0  0  0  0
  -28.9932  -26.4602   18.7420 C   0  0  0  0  0  0  0  0  0  1  0  0
  -26.2530  -22.1455   20.9555 C   0  0  0  0  0  0  0  0  0  0  0  0
  -22.0410  -27.6477   23.8805 C   0  0  1  0  0  0  0  0  0  0  0  0
  -20.1666  -24.6425   22.5296 C   0  0  2  0  0  0  0  0  0  0  0  0
  -21.8810  -28.0833   25.3644 C   0  0  0  0  0  0  0  0  0  0  0  0
  -25.9955  -11.5711   20.4761 N   0  0  0  0  0  0  0  0  0  0  0  0
  -27.2410  -12.0239   20.6998 N   0  0  0  0  0  0  0  0  0  0  0  0
  -27.0499  -15.4118   18.9279 N   0  0  0  0  0  0  0  0  0  0  0  0
  -23.1012  -29.0388   22.1298 N   0  0  0  0  0  0  0  0  0  0  0  0
  -29.2062  -11.6048   21.9539 N   0  0  0  0  0  0  0  0  0  0  0  0
  -26.4106   -8.3096   23.2661 N   0  0  0  0  0  0  0  0  0  0  0  0
  -23.5352  -32.5762   21.9620 N   0  0  0  0  0  0  0  0  0  0  0  0
  -21.0387  -26.6893   23.4276 N   0  0  0  0  0  0  0  0  0  0  0  0
  -20.4747  -23.7853   21.3501 N   0  3  0  0  0  0  0  0  0  0  0  0
  -28.5022   -9.2032   23.5581 O   0  0  0  0  0  0  0  0  0  0  0  0
  -26.1644  -16.9037   20.4796 O   0  0  0  0  0  0  0  0  0  0  0  0
  -24.8402  -30.8855   22.8897 O   0  0  0  0  0  0  0  0  0  0  0  0
  -29.7687  -24.5117   19.9134 O   0  0  0  0  0  0  0  0  0  0  0  0
  -20.9447  -29.5012   22.8859 O   0  0  0  0  0  0  0  0  0  0  0  0
  -22.5353  -25.0308   22.8059 O   0  0  0  0  0  0  0  0  0  0  0  0
  -21.2012   -7.4988   21.4659 O   0  0  0  0  0  0  0  0  0  0  0  0
  -28.4669  -26.8574   20.0076 O   0  0  0  0  0  0  0  0  0  1  0  0
  -21.6602   -2.0051   21.3499 F   0  0  0  0  0  0  0  0  0  0  0  0
  -22.6025   -6.1508   23.4311 F   0  0  0  0  0  0  0  0  0  0  0  0
  1  2  1  0  0  0  0
  1  6  2  0  0  0  0
  2  7  2  0  0  0  0
  3 10  2  0  0  0  0
  3 18  1  0  0  0  0
  4 11  1  0  0  0  0
  4 18  2  0  0  0  0
  5  9  2  0  0  0  0
  5 19  1  0  0  0  0
  6 21  1  0  0  0  0
  7 23  1  0  0  0  0
  8 12  2  0  0  0  0
  8 22  1  0  0  0  0
  9 25  1  0  0  0  0
 10 27  1  0  0  0  0
 11 27  2  0  0  0  0
 12 28  1  0  0  0  0
 13 14  2  0  0  0  0
 13 29  1  0  0  0  0
 14 30  1  0  0  0  0
 15 24  1  0  0  0  0
 15 28  2  0  0  0  0
 16 25  2  0  0  0  0
 16 26  1  0  0  0  0
 17 30  2  0  0  0  0
 17 31  1  0  0  0  0
 18 32  1  0  0  0  0
 19 26  2  0  0  0  0
 19 34  1  0  0  0  0
 20 32  1  0  0  0  0
 20 33  2  0  0  0  0
 20 36  1  0  0  0  0
 21 23  2  0  0  0  0
 21 42  1  0  0  0  0
 22 24  2  0  0  0  0
 22 43  1  0  0  0  0
 23 51  1  0  0  0  0
 24 44  1  0  0  0  0
 25 60  1  0  0  0  0
 26 61  1  0  0  0  0
 27 83  1  0  0  0  0
 28 84  1  0  0  0  0
 29 31  2  0  0  0  0
 29 83  1  0  0  0  0
 30 85  1  0  0  0  0
 31 86  1  0  0  0  0
 32 68  2  0  0  0  0
 33 69  1  0  0  0  0
 33 72  1  0  0  0  0
 34 35  2  0  0  0  0
 35 37  1  0  0  0  0
 36 73  1  0  0  0  0
 36 77  2  0  0  0  0
 37 70  1  0  0  0  0
 37 78  2  0  0  0  0
 38 52  1  0  0  0  0
 38 74  1  0  0  0  0
 38 79  2  0  0  0  0
 39 62  1  0  0  0  0
 39 63  1  0  0  0  0
 39 80  2  0  0  0  0
 40 65  1  0  0  0  0
 40 71  1  0  0  0  0
 40 81  2  0  0  0  0
 41 66  1  0  0  0  0
 41 75  1  0  0  0  0
 41 82  2  0  0  0  0
 42 45  1  0  0  0  0
 43 52  1  0  0  0  0
 44 71  1  0  0  0  0
 45 47  1  0  0  0  0
 46 48  1  0  0  0  0
 46 49  1  0  0  0  0
 47 51  1  0  0  0  0
 48 53  1  0  0  0  0
 49 70  1  0  0  0  0
 50 53  1  0  0  0  0
 50 70  1  0  0  0  0
 51 74  1  0  0  0  0
 52 71  1  0  0  0  0
 53 69  1  0  0  0  0
 54 64  1  0  0  0  0
 55 66  1  0  0  0  0
 56 67  1  0  0  0  0
 57 67  1  0  0  0  0
 58 67  1  0  0  0  0
 59 76  1  0  0  0  0
 60 62  1  0  0  0  0
 61 64  1  0  0  0  0
 63 84  1  0  0  0  0
 65 67  1  0  0  0  0
 65 75  1  0  0  0  0
 66 76  1  0  0  0  0
 68 69  1  0  0  0  0
M  CHG  1  76   1
M  ISO  4  35 100  37 100  63 101  84 101
M  END
> <Batch ID>
0131

> <Smiles>
CCCc1cc(CCC(=O)[101CH2:1][101O:1]c2ccc3c(c2)CN(C(=O)C(NC(=O)C(C)NC)C(C)(C)C)C(C(=O)NC2CCCc4ccccc42)C3)ccc1C=[100CH:0][100C:0](=O)N1CCCC(n2nc(-c3ccc(Oc4ccc(F)cc4F)cc3)c(C(N)=O)c2N)C1

> <Shape>
0.258

> <Color>
0.096

> <Negative vol penalty>
0.000

$$$$

  -OEChem-04052302253D

 86 95  0     1  0  0  0  0  0999 V2000
  -26.3457  -30.4404   23.2661 C   0  0  0  0  0  0  0  0  0  0  0  0
  -26.3730  -29.2050   23.9052 C   0  0  0  0  0  0  0  0  0  0  0  0
  -27.5903  -12.5800   19.0135 C   0  0  0  0  0  0  0  0  0  0  0  0
  -28.3338  -13.8459   20.9323 C   0  0  0  0  0  0  0  0  0  0  0  0
  -26.2010  -30.5044   21.8809 C   0  0  0  0  0  0  0  0  0  0  0  0
  -26.2545  -28.0327   23.1594 C   0  0  0  0  0  0  0  0  0  0  0  0
  -29.5970  -24.4946   24.5572 C   0  0  0  0  0  0  0  0  0  0  0  0
  -28.9090  -12.2137   18.7442 C   0  0  0  0  0  0  0  0  0  0  0  0
  -29.6525  -13.4796   20.6631 C   0  0  0  0  0  0  0  0  0  0  0  0
  -29.3154  -23.7759   25.7182 C   0  0  0  0  0  0  0  0  0  0  0  0
  -32.0401  -10.6500   17.7615 C   0  0  0  0  0  0  0  0  0  0  0  0
  -32.2905   -9.3150   17.4444 C   0  0  0  0  0  0  0  0  0  0  0  0
  -25.3749  -19.6831   27.0741 C   0  0  0  0  0  0  0  0  0  0  0  0
  -28.4956  -21.9448   24.3786 C   0  0  0  0  0  0  0  0  0  0  0  0
  -24.2836  -21.0335   24.8905 C   0  0  0  0  0  0  0  0  0  0  0  0
  -31.4116   -8.6402   19.5913 C   0  0  0  0  0  0  0  0  0  0  0  0
  -27.3027  -13.3962   20.1076 C   0  0  0  0  0  0  0  0  0  0  0  0
  -25.2774  -21.0744   27.0923 C   0  0  0  0  0  0  0  0  0  0  0  0
  -24.8596  -12.9179   20.6644 C   0  0  0  0  0  0  0  0  0  0  0  0
  -26.0904  -29.3320   21.1167 C   0  0  0  0  0  0  0  0  0  0  0  0
  -29.3195  -23.9472   23.2963 C   0  0  0  0  0  0  0  0  0  0  0  0
  -26.1068  -28.0811   21.7628 C   0  0  0  0  0  0  0  0  0  0  0  0
  -28.7770  -22.6576   23.2031 C   0  0  0  0  0  0  0  0  0  0  0  0
  -24.9268  -18.9670   25.9641 C   0  0  0  0  0  0  0  0  0  0  0  0
  -24.7317  -21.7496   26.0006 C   0  0  0  0  0  0  0  0  0  0  0  0
  -24.3812  -19.6422   24.8723 C   0  0  0  0  0  0  0  0  0  0  0  0
  -29.9401  -12.6634   19.5690 C   0  0  0  0  0  0  0  0  0  0  0  0
  -28.7619  -22.5020   25.6291 C   0  0  0  0  0  0  0  0  0  0  0  0
  -31.4756  -10.9802   18.9936 C   0  0  0  0  0  0  0  0  0  0  0  0
  -31.9762   -8.3100   18.3593 C   0  0  0  0  0  0  0  0  0  0  0  0
  -31.1613   -9.9753   19.9085 C   0  0  0  0  0  0  0  0  0  0  0  0
  -25.9408  -13.7754   20.3860 C   0  0  0  0  0  0  0  0  0  0  0  0
  -23.7927  -13.7615   20.8556 C   0  0  0  0  0  0  0  0  0  0  0  0
  -25.0251  -22.6013   29.0752 C   0  0  0  0  0  0  0  0  0  0  0  0
  -25.7606  -21.8045   28.2821 C   0  0  0  0  0  0  0  0  0  0  0  0
  -24.8230  -11.4868   20.7434 C   0  0  0  0  0  0  0  0  0  0  0  0
  -27.4272  -24.7473   20.8708 C   0  0  0  0  0  0  0  0  0  0  0  0
  -28.9155  -22.2682   19.4008 C   0  0  0  0  0  0  0  0  0  0  0  0
  -30.6318  -19.3331   19.6952 C   0  0  0  0  0  0  0  0  0  0  0  0
  -23.3573  -19.4669   22.5773 C   0  0  0  0  0  0  0  0  0  0  0  0
  -25.8882  -29.4529   19.6270 C   0  0  0  0  0  0  0  0  0  0  0  0
  -29.6539  -24.7247   22.0529 C   0  0  0  0  0  0  0  0  0  0  0  0
  -28.4791  -22.0168   21.8730 C   0  0  0  0  0  0  0  0  0  0  0  0
  -25.8169  -23.1771   30.2011 C   0  0  0  0  0  0  0  0  0  0  0  0
  -26.1452  -28.1524   18.8700 C   0  0  0  0  0  0  0  0  0  0  0  0
  -27.0664  -22.3047   30.2054 C   0  0  0  0  0  0  0  0  0  0  0  0
  -22.1348  -18.0587   19.5442 C   0  0  0  0  0  0  0  0  0  0  0  0
  -25.4567  -26.9836   19.5676 C   0  0  0  0  0  0  0  0  0  0  0  0
  -22.8692  -16.7197   19.4443 C   0  0  0  0  0  0  0  0  0  0  0  0
  -23.0247  -19.1509   20.1351 C   0  0  0  0  0  0  0  0  0  0  0  0
  -24.3870  -17.4740   21.3188 C   0  0  0  0  0  0  0  0  0  0  0  0
  -26.0061  -26.7865   20.9857 C   0  0  1  0  0  0  0  0  0  0  0  0
  -27.1852  -21.7294   28.7846 C   0  0  2  0  0  0  0  0  0  0  0  0
  -28.8534  -24.2759   20.8342 C   0  0  1  0  0  0  0  0  0  0  0  0
  -23.5107  -16.3271   20.7896 C   0  0  2  0  0  0  0  0  0  0  0  0
  -25.0447  -17.4773   25.9717 C   0  0  0  0  0  0  0  0  0  0  0  0
  -24.7553  -23.8162   24.5810 C   0  0  0  0  0  0  0  0  0  0  0  0
  -31.6823  -17.5186   18.3163 C   0  0  0  0  0  0  0  0  0  0  0  0
  -26.1500  -21.1286   18.7978 C   0  0  0  0  0  0  0  0  0  0  0  0
  -27.2411  -18.9317   18.2968 C   0  0  0  0  0  0  0  0  0  0  0  0
  -27.7894  -20.9375   16.9189 C   0  0  0  0  0  0  0  0  0  0  0  0
  -33.3164  -19.8750   20.8170 C   0  0  0  0  0  0  0  0  0  0  0  0
  -24.6120  -23.2399   25.9857 C   0  0  0  0  0  0  0  0  0  0  0  0
  -28.1467  -22.5496   27.9259 C   0  0  0  0  0  0  0  0  0  1  0  0
  -28.6616  -20.7844   19.2870 C   0  0  1  0  0  0  0  0  0  0  0  0
  -31.9063  -18.8408   19.0335 C   0  0  2  0  0  0  0  0  0  0  0  0
  -27.4642  -20.4581   18.3504 C   0  0  0  0  0  0  0  0  0  0  0  0
  -25.5926  -15.0648   20.3979 N   0  0  0  0  0  0  0  0  0  0  0  0
  -24.2806  -15.0238   20.6862 N   0  0  0  0  0  0  0  0  0  0  0  0
  -28.8180  -22.8195   20.6862 N   0  0  0  0  0  0  0  0  0  0  0  0
  -23.5940  -18.7100   21.4103 N   0  0  0  0  0  0  0  0  0  0  0  0
  -22.4942  -13.5393   21.1502 N   0  0  0  0  0  0  0  0  0  0  0  0
  -25.0683  -10.8795   21.9825 N   0  0  0  0  0  0  0  0  0  0  0  0
  -23.9213  -18.9326   23.7354 N   0  0  0  0  0  0  0  0  0  0  0  0
  -27.2902  -26.1205   20.9421 N   0  0  0  0  0  0  0  0  0  0  0  0
  -29.9253  -20.1847   18.8724 N   0  0  0  0  0  0  0  0  0  0  0  0
  -32.9773  -18.6477   20.0517 N   0  3  0  0  0  0  0  0  0  0  0  0
  -24.5961  -10.7672   19.7413 O   0  0  0  0  0  0  0  0  0  0  0  0
  -26.5183  -23.9261   20.8355 O   0  0  0  0  0  0  0  0  0  0  0  0
  -29.1971  -22.9129   18.3876 O   0  0  0  0  0  0  0  0  0  0  0  0
  -30.2948  -18.9932   20.8271 O   0  0  0  0  0  0  0  0  0  0  0  0
  -22.6796  -20.4975   22.5559 O   0  0  0  0  0  0  0  0  0  0  0  0
  -31.2269  -12.3060   19.3066 O   0  0  0  0  0  0  0  0  0  0  0  0
  -28.4854  -21.7985   26.7608 O   0  0  0  0  0  0  0  0  0  1  0  0
  -32.2152   -7.0279   18.0540 F   0  0  0  0  0  0  0  0  0  0  0  0
  -30.6176  -10.2862   21.0932 F   0  0  0  0  0  0  0  0  0  0  0  0
  1  2  1  0  0  0  0
  1  5  2  0  0  0  0
  2  6  2  0  0  0  0
  3  8  2  0  0  0  0
  3 17  1  0  0  0  0
  4  9  1  0  0  0  0
  4 17  2  0  0  0  0
  5 20  1  0  0  0  0
  6 22  1  0  0  0  0
  7 10  2  0  0  0  0
  7 21  1  0  0  0  0
  8 27  1  0  0  0  0
  9 27  2  0  0  0  0
 10 28  1  0  0  0  0
 11 12  2  0  0  0  0
 11 29  1  0  0  0  0
 12 30  1  0  0  0  0
 13 18  1  0  0  0  0
 13 24  2  0  0  0  0
 14 23  1  0  0  0  0
 14 28  2  0  0  0  0
 15 25  1  0  0  0  0
 15 26  2  0  0  0  0
 16 30  2  0  0  0  0
 16 31  1  0  0  0  0
 17 32  1  0  0  0  0
 18 25  2  0  0  0  0
 18 35  1  0  0  0  0
 19 32  1  0  0  0  0
 19 33  2  0  0  0  0
 19 36  1  0  0  0  0
 20 22  2  0  0  0  0
 20 41  1  0  0  0  0
 21 23  2  0  0  0  0
 21 42  1  0  0  0  0
 22 52  1  0  0  0  0
 23 43  1  0  0  0  0
 24 26  1  0  0  0  0
 24 56  1  0  0  0  0
 25 63  1  0  0  0  0
 26 74  1  0  0  0  0
 27 83  1  0  0  0  0
 28 84  1  0  0  0  0
 29 31  2  0  0  0  0
 29 83  1  0  0  0  0
 30 85  1  0  0  0  0
 31 86  1  0  0  0  0
 32 68  2  0  0  0  0
 33 69  1  0  0  0  0
 33 72  1  0  0  0  0
 34 35  2  0  0  0  0
 34 44  1  0  0  0  0
 35 53  1  0  0  0  0
 36 73  1  0  0  0  0
 36 78  2  0  0  0  0
 37 54  1  0  0  0  0
 37 75  1  0  0  0  0
 37 79  2  0  0  0  0
 38 65  1  0  0  0  0
 38 70  1  0  0  0  0
 38 80  2  0  0  0  0
 39 66  1  0  0  0  0
 39 76  1  0  0  0  0
 39 81  2  0  0  0  0
 40 71  1  0  0  0  0
 40 74  1  0  0  0  0
 40 82  2  0  0  0  0
 41 45  1  0  0  0  0
 42 54  1  0  0  0  0
 43 70  1  0  0  0  0
 44 46  1  0  0  0  0
 45 48  1  0  0  0  0
 46 53  1  0  0  0  0
 47 49  1  0  0  0  0
 47 50  1  0  0  0  0
 48 52  1  0  0  0  0
 49 55  1  0  0  0  0
 50 71  1  0  0  0  0
 51 55  1  0  0  0  0
 51 71  1  0  0  0  0
 52 75  1  0  0  0  0
 53 64  1  0  0  0  0
 54 70  1  0  0  0  0
 55 69  1  0  0  0  0
 57 63  1  0  0  0  0
 58 66  1  0  0  0  0
 59 67  1  0  0  0  0
 60 67  1  0  0  0  0
 61 67  1  0  0  0  0
 62 77  1  0  0  0  0
 64 84  1  0  0  0  0
 65 67  1  0  0  0  0
 65 76  1  0  0  0  0
 66 77  1  0  0  0  0
 68 69  1  0  0  0  0
M  CHG  1  77   1
M  ISO  4  40 100  64 101  74 100  84 101
M  END
> <Batch ID>
0131

> <Smiles>
CCc1cc([100NH:0][100C:0](=O)N2CCCC(n3nc(-c4ccc(Oc5ccc(F)cc5F)cc4)c(C(N)=O)c3N)C2)c(C)cc1C1=CCCC1[101CH2:1][101O:1]c1ccc2c(c1)CN(C(=O)C(NC(=O)C(C)NC)C(C)(C)C)C(C(=O)NC1CCCc3ccccc31)C2

> <Shape>
0.185

> <Color>
0.080

> <Negative vol penalty>
0.000

$$$$

  -OEChem-04052302253D

 83 91  0     1  0  0  0  0  0999 V2000
  -30.6220  -36.0780   21.3100 C   0  0  0  0  0  0  0  0  0  0  0  0
  -30.5350  -34.7962   20.7763 C   0  0  0  0  0  0  0  0  0  0  0  0
  -24.0188  -11.0223   23.7526 C   0  0  0  0  0  0  0  0  0  0  0  0
  -23.9364  -13.4118   24.1002 C   0  0  0  0  0  0  0  0  0  0  0  0
  -30.0020  -36.3699   22.5242 C   0  0  0  0  0  0  0  0  0  0  0  0
  -29.8290  -33.8051   21.4572 C   0  0  0  0  0  0  0  0  0  0  0  0
  -26.5388  -29.2704   18.9840 C   0  0  0  0  0  0  0  0  0  0  0  0
  -23.4837  -10.8188   25.0245 C   0  0  0  0  0  0  0  0  0  0  0  0
  -23.4012  -13.2083   25.3722 C   0  0  0  0  0  0  0  0  0  0  0  0
  -26.8272  -27.9289   18.7374 C   0  0  0  0  0  0  0  0  0  0  0  0
  -20.4436  -10.9526   26.4986 C   0  0  0  0  0  0  0  0  0  0  0  0
  -19.4173  -10.0169   26.6280 C   0  0  0  0  0  0  0  0  0  0  0  0
  -25.7618  -27.3239   20.8154 C   0  0  0  0  0  0  0  0  0  0  0  0
  -29.7601  -18.3351   21.2696 C   0  0  0  0  0  0  0  0  0  0  0  0
  -31.7129  -19.6421   21.8308 C   0  0  0  0  0  0  0  0  0  0  0  0
  -31.9656  -17.3834   21.0115 C   0  0  0  0  0  0  0  0  0  0  0  0
  -20.7733   -8.7427   28.1690 C   0  0  0  0  0  0  0  0  0  0  0  0
  -24.2452  -12.3188   23.2904 C   0  0  0  0  0  0  0  0  0  0  0  0
  -24.0895  -12.6810   20.7701 C   0  0  0  0  0  0  0  0  0  0  0  0
  -29.2799  -35.3844   23.2156 C   0  0  0  0  0  0  0  0  0  0  0  0
  -25.8682  -29.6505   20.1555 C   0  0  0  0  0  0  0  0  0  0  0  0
  -29.1999  -34.0837   22.6825 C   0  0  0  0  0  0  0  0  0  0  0  0
  -25.4638  -28.6707   21.0733 C   0  0  0  0  0  0  0  0  0  0  0  0
  -30.3268  -19.5237   21.7298 C   0  0  0  0  0  0  0  0  0  0  0  0
  -30.5795  -17.2649   20.9105 C   0  0  0  0  0  0  0  0  0  0  0  0
  -23.1749  -11.9118   25.8343 C   0  0  0  0  0  0  0  0  0  0  0  0
  -26.4413  -26.9557   19.6545 C   0  0  0  0  0  0  0  0  0  0  0  0
  -21.6348  -10.7833   27.2043 C   0  0  0  0  0  0  0  0  0  0  0  0
  -19.5821   -8.9120   27.4632 C   0  0  0  0  0  0  0  0  0  0  0  0
  -32.5324  -18.5719   21.4717 C   0  0  0  0  0  0  0  0  0  0  0  0
  -21.7996   -9.6784   28.0395 C   0  0  0  0  0  0  0  0  0  0  0  0
  -24.7985  -12.5297   21.9768 C   0  0  0  0  0  0  0  0  0  0  0  0
  -25.0647  -12.8539   19.8184 C   0  0  0  0  0  0  0  0  0  0  0  0
  -22.6760  -12.6666   20.5308 C   0  0  0  0  0  0  0  0  0  0  0  0
  -26.5836  -31.4746   22.6584 C   0  0  0  0  0  0  0  0  0  0  0  0
  -23.4886  -30.9191   23.4549 C   0  0  0  0  0  0  0  0  0  0  0  0
  -20.7421  -28.9119   23.1817 C   0  0  0  0  0  0  0  0  0  0  0  0
  -30.6740  -14.9005   20.0462 C   0  0  0  0  0  0  0  0  0  0  0  0
  -28.6665  -35.7346   24.5481 C   0  0  0  0  0  0  0  0  0  0  0  0
  -25.5408  -31.0991   20.3940 C   0  0  0  0  0  0  0  0  0  0  0  0
  -24.7235  -29.0245   22.3364 C   0  0  0  0  0  0  0  0  0  0  0  0
  -27.6223  -34.7268   25.0218 C   0  0  0  0  0  0  0  0  0  0  0  0
  -29.6175  -11.7100   18.8709 C   0  0  0  0  0  0  0  0  0  0  0  0
  -28.1406  -33.3021   24.8534 C   0  0  0  0  0  0  0  0  0  0  0  0
  -28.1950  -11.5745   19.4191 C   0  0  0  0  0  0  0  0  0  0  0  0
  -30.5391  -12.4265   19.8562 C   0  0  0  0  0  0  0  0  0  0  0  0
  -28.6252  -13.5896   20.8824 C   0  0  0  0  0  0  0  0  0  0  0  0
  -28.4222  -32.9882   23.3791 C   0  0  1  0  0  0  0  0  0  0  0  0
  -25.3079  -31.4245   21.8661 C   0  0  1  0  0  0  0  0  0  0  0  0
  -27.6441  -12.9318   19.8983 C   0  0  2  0  0  0  0  0  0  0  0  0
  -18.3718  -28.6976   23.9774 C   0  0  0  0  0  0  0  0  0  0  0  0
  -24.4904  -29.9652   26.1745 C   0  0  0  0  0  0  0  0  0  0  0  0
  -22.2547  -28.9016   26.5471 C   0  0  0  0  0  0  0  0  0  0  0  0
  -22.4254  -31.3735   26.2587 C   0  0  0  0  0  0  0  0  0  0  0  0
  -19.6794  -29.0733   20.4243 C   0  0  0  0  0  0  0  0  0  0  0  0
  -29.4414  -20.6812   22.1176 C   0  0  0  0  0  0  0  0  0  0  0  0
  -29.1323  -21.6392   20.9615 C   0  0  0  0  0  0  0  0  0  0  0  0
  -28.1705  -22.7643   21.3562 C   0  0  0  0  0  0  0  0  0  0  0  0
  -27.9152  -23.7106   20.1843 C   0  0  0  0  0  0  0  0  0  0  0  0
  -26.9278  -24.8084   20.5537 C   0  0  0  0  0  0  0  0  0  1  0  0
  -22.7637  -29.8659   24.2575 C   0  0  1  0  0  0  0  0  0  0  0  0
  -19.2875  -29.2299   22.8861 C   0  0  2  0  0  0  0  0  0  0  0  0
  -22.9992  -30.0197   25.7867 C   0  0  0  0  0  0  0  0  0  0  0  0
  -26.1218  -12.6001   21.8098 N   0  0  0  0  0  0  0  0  0  0  0  0
  -26.2521  -12.7975   20.4869 N   0  0  0  0  0  0  0  0  0  0  0  0
  -24.4323  -30.4550   22.5276 N   0  0  0  0  0  0  0  0  0  0  0  0
  -29.9545  -13.7063   20.2627 N   0  0  0  0  0  0  0  0  0  0  0  0
  -25.0136  -13.0471   18.4833 N   0  0  0  0  0  0  0  0  0  0  0  0
  -21.8157  -12.4776   21.6209 N   0  0  0  0  0  0  0  0  0  0  0  0
  -30.0041  -16.0573   20.4433 N   0  0  0  0  0  0  0  0  0  0  0  0
  -27.1871  -32.7176   22.6750 N   0  0  0  0  0  0  0  0  0  0  0  0
  -21.3625  -29.9408   23.8582 N   0  0  0  0  0  0  0  0  0  0  0  0
  -18.8771  -28.6202   21.5896 N   0  3  0  0  0  0  0  0  0  0  0  0
  -22.1907  -12.8006   19.3818 O   0  0  0  0  0  0  0  0  0  0  0  0
  -26.9896  -30.4610   23.2146 O   0  0  0  0  0  0  0  0  0  0  0  0
  -23.2220  -32.1094   23.6386 O   0  0  0  0  0  0  0  0  0  0  0  0
  -21.2737  -27.8548   22.8493 O   0  0  0  0  0  0  0  0  0  0  0  0
  -31.7901  -14.8995   19.5205 O   0  0  0  0  0  0  0  0  0  0  0  0
  -22.6525  -11.7136   27.0754 O   0  0  0  0  0  0  0  0  0  0  0  0
  -26.7222  -25.6456   19.4165 O   0  0  0  0  0  0  0  0  0  1  0  0
  -18.5958   -8.0143   27.5885 F   0  0  0  0  0  0  0  0  0  0  0  0
  -33.8635  -18.6858   21.5687 F   0  0  0  0  0  0  0  0  0  0  0  0
  -22.9413   -9.5110   28.7210 F   0  0  0  0  0  0  0  0  0  0  0  0
  1  2  1  0  0  0  0
  1  5  2  0  0  0  0
  2  6  2  0  0  0  0
  3  8  2  0  0  0  0
  3 18  1  0  0  0  0
  4  9  1  0  0  0  0
  4 18  2  0  0  0  0
  5 20  1  0  0  0  0
  6 22  1  0  0  0  0
  7 10  2  0  0  0  0
  7 21  1  0  0  0  0
  8 26  1  0  0  0  0
  9 26  2  0  0  0  0
 10 27  1  0  0  0  0
 11 12  2  0  0  0  0
 11 28  1  0  0  0  0
 12 29  1  0  0  0  0
 13 23  1  0  0  0  0
 13 27  2  0  0  0  0
 14 24  2  0  0  0  0
 14 25  1  0  0  0  0
 15 24  1  0  0  0  0
 15 30  2  0  0  0  0
 16 25  2  0  0  0  0
 16 30  1  0  0  0  0
 17 29  2  0  0  0  0
 17 31  1  0  0  0  0
 18 32  1  0  0  0  0
 19 32  1  0  0  0  0
 19 33  2  0  0  0  0
 19 34  1  0  0  0  0
 20 22  2  0  0  0  0
 20 39  1  0  0  0  0
 21 23  2  0  0  0  0
 21 40  1  0  0  0  0
 22 48  1  0  0  0  0
 23 41  1  0  0  0  0
 24 56  1  0  0  0  0
 25 70  1  0  0  0  0
 26 79  1  0  0  0  0
 27 80  1  0  0  0  0
 28 31  2  0  0  0  0
 28 79  1  0  0  0  0
 29 81  1  0  0  0  0
 30 82  1  0  0  0  0
 31 83  1  0  0  0  0
 32 64  2  0  0  0  0
 33 65  1  0  0  0  0
 33 68  1  0  0  0  0
 34 69  1  0  0  0  0
 34 74  2  0  0  0  0
 35 49  1  0  0  0  0
 35 71  1  0  0  0  0
 35 75  2  0  0  0  0
 36 61  1  0  0  0  0
 36 66  1  0  0  0  0
 36 76  2  0  0  0  0
 37 62  1  0  0  0  0
 37 72  1  0  0  0  0
 37 77  2  0  0  0  0
 38 67  1  0  0  0  0
 38 70  1  0  0  0  0
 38 78  2  0  0  0  0
 39 42  1  0  0  0  0
 40 49  1  0  0  0  0
 41 66  1  0  0  0  0
 42 44  1  0  0  0  0
 43 45  1  0  0  0  0
 43 46  1  0  0  0  0
 44 48  1  0  0  0  0
 45 50  1  0  0  0  0
 46 67  1  0  0  0  0
 47 50  1  0  0  0  0
 47 67  1  0  0  0  0
 48 71  1  0  0  0  0
 49 66  1  0  0  0  0
 50 65  1  0  0  0  0
 51 62  1  0  0  0  0
 52 63  1  0  0  0  0
 53 63  1  0  0  0  0
 54 63  1  0  0  0  0
 55 73  1  0  0  0  0
 56 57  1  0  0  0  0
 57 58  1  0  0  0  0
 58 59  1  0  0  0  0
 59 60  1  0  0  0  0
 60 80  1  0  0  0  0
 61 63  1  0  0  0  0
 61 72  1  0  0  0  0
 62 73  1  0  0  0  0
 64 65  1  0  0  0  0
M  CHG  1  73   1
M  ISO  4  38 100  60 101  70 100  80 101
M  END
> <Batch ID>
0131

> <Smiles>
CNC(C)C(=O)NC(C(=O)N1Cc2cc([101O:1][101CH2:1]CCCCc3cc(F)cc([100NH:0][100C:0](=O)N4CCCC(n5nc(-c6ccc(Oc7ccc(F)cc7F)cc6)c(C(N)=O)c5N)C4)c3)ccc2CC1C(=O)NC1CCCc2ccccc21)C(C)(C)C

> <Shape>
0.247

> <Color>
0.122

> <Negative vol penalty>
0.000

$$$$
